data_functionalizedCrystal
_audit_creation_method	'MofGen! by Chris Wilmer'
_symmetry_space_group_name_H-M	'P1'
_symmetry_Int_Tables_number	1
_symmetry_cell_setting	triclinic
loop_
_symmetry_equiv_pos_as_xyz
  x,y,z
_cell_length_a	12.759401
_cell_length_b	18.050590
_cell_length_c	18.050591
_cell_angle_alpha	90.005734
_cell_angle_beta	89.999111
_cell_angle_gamma	90.018830
loop_
_atom_site_label
_atom_site_type_symbol
_atom_site_fract_x
_atom_site_fract_y
_atom_site_fract_z
Zn1	Zn	1.606026	-0.295830	0.419846
Zn2	Zn	2.106026	0.204170	0.919846
Zn3	Zn	1.605968	-0.419975	0.295654
Zn4	Zn	2.105968	0.080025	0.795654
Zn5	Zn	1.430387	-0.295804	0.295677
Zn6	Zn	1.930387	0.204196	0.795677
Zn7	Zn	1.430305	-0.419983	0.419809
Zn8	Zn	1.930305	0.080017	0.919809
O9	O	1.518171	-0.357898	0.357747
O10	O	2.018171	0.142102	0.857747
O11	O	1.753039	-0.312306	0.403377
O12	O	2.253039	0.187694	0.903377
O13	O	1.582687	-0.403489	0.191733
O14	O	2.082687	0.096511	0.691733
O15	O	1.453745	-0.191883	0.312173
O16	O	1.953745	0.308117	0.812173
O17	O	1.752997	-0.403515	0.312134
O18	O	2.252997	0.096485	0.812134
O19	O	1.582786	-0.191902	0.403399
O20	O	2.082786	0.308098	0.903399
O21	O	1.453689	-0.312262	0.191749
O22	O	1.953689	0.187738	0.691749
O23	O	1.283355	-0.312269	0.312138
O24	O	1.783355	0.187731	0.812138
O25	O	1.453604	-0.403529	0.523739
O26	O	1.953604	0.096471	1.023739
O27	O	1.283295	-0.403503	0.403337
O28	O	1.783295	0.096497	0.903337
O29	O	1.582706	-0.312314	0.523766
O30	O	2.082706	0.187686	1.023766
O31	O	1.582607	-0.523901	0.312099
O32	O	2.082607	-0.023901	0.812099
O33	O	1.453548	-0.523907	0.403315
O34	O	1.953548	-0.023907	0.903315
C35	C	1.245204	-0.357885	0.357736
C36	C	1.745204	0.142115	0.857736
C37	C	1.128427	-0.357897	0.357750
C38	C	1.628427	0.142103	0.857750
C39	C	0.963830	-0.405486	0.405168
C40	C	1.463830	0.094514	0.905168
C41	C	1.073554	-0.405478	0.405160
C42	C	1.573554	0.094522	0.905160
C43	C	1.073571	-0.310327	0.310339
C44	C	1.573571	0.189673	0.810339
C45	C	0.963849	-0.310340	0.310343
C46	C	1.463849	0.189660	0.810343
C47	C	1.518091	-0.550850	0.357717
C48	C	2.018091	-0.050850	0.857717
C49	C	1.518152	-0.633396	0.357729
C50	C	2.018152	-0.133396	0.857729
C51	C	1.588480	-0.832817	0.308195
C52	C	2.088480	-0.332817	0.808195
C53	C	1.614115	-0.882176	0.375974
C54	C	2.114115	-0.382176	0.875974
C55	C	1.518212	-0.784527	0.357759
C56	C	2.018212	-0.284527	0.857759
C57	C	1.492684	-0.882249	0.290010
C58	C	1.992684	-0.382249	0.790010
C59	C	1.518271	-0.930512	0.357781
C60	C	2.018271	-0.430512	0.857781
C61	C	1.543896	-0.832799	0.425573
C62	C	2.043896	-0.332799	0.925573
C63	C	1.422420	-0.832867	0.339564
C64	C	1.922420	-0.332867	0.839564
C65	C	1.448018	-0.882204	0.407390
C66	C	1.948018	-0.382204	0.907390
C67	C	1.518180	-0.700428	0.357745
C68	C	2.018180	-0.200428	0.857745
C69	C	1.518303	-1.014608	0.357803
C70	C	2.018303	-0.514608	0.857803
C71	C	1.792205	-0.357912	0.357757
C72	C	2.292205	0.142088	0.857757
C73	C	1.908981	-0.357918	0.357762
C74	C	2.408981	0.142082	0.857762
C75	C	1.518152	-0.357925	0.551452
C76	C	2.018152	0.142075	1.051452
C77	C	1.518144	-0.357936	0.633998
C78	C	2.018144	0.142064	1.133998
C79	C	1.518281	-0.164193	0.357793
C80	C	2.018281	0.335807	0.857793
C81	C	1.518328	-0.081647	0.357812
C82	C	2.018328	0.418353	0.857812
C83	C	1.447930	-0.407532	0.833434
C84	C	1.947930	0.092468	1.333434
C85	C	1.543771	-0.425701	0.882821
C86	C	2.043771	0.074299	1.382821
C87	C	1.518148	-0.357926	0.785128
C88	C	2.018148	0.142074	1.285128
C89	C	1.422313	-0.339782	0.882823
C90	C	1.922313	0.160218	1.382823
C91	C	1.518144	-0.357917	0.931113
C92	C	2.018144	0.142083	1.431113
C93	C	1.614040	-0.376129	0.833428
C94	C	2.114040	0.123871	1.333428
C95	C	1.492518	-0.290179	0.833425
C96	C	1.992518	0.209821	1.333425
C97	C	1.588426	-0.308322	0.882790
C98	C	2.088426	0.191678	1.382790
C99	C	1.518149	-0.357933	0.701030
C100	C	2.018149	0.142067	1.201030
C101	C	1.518154	-0.357911	1.015210
C102	C	2.018154	0.142089	1.515210
C103	C	1.518173	-0.357895	1.164794
C104	C	2.018173	0.142105	1.664794
C105	C	1.518150	-0.357905	1.082249
C106	C	2.018150	0.142095	1.582249
H107	H	1.118257	-0.271589	0.271733
H108	H	1.618257	0.228411	0.771733
H109	H	1.118207	-0.444213	0.443762
H110	H	1.618207	0.055787	0.943762
H111	H	1.388623	-0.449519	0.811763
H112	H	1.888623	0.050481	1.311763
N113	N	1.320653	-0.320513	0.910039
N114	N	1.820653	0.179487	1.410039
N115	N	1.309210	-0.264284	0.949643
N116	N	1.809210	0.235716	1.449643
H117	H	1.237410	-0.250678	0.968863
H118	H	1.737410	0.249322	1.468863
H119	H	1.647924	-0.811131	0.266324
H120	H	2.147924	-0.311131	0.766324
N121	N	0.907831	-0.261747	0.261906
N122	N	1.407831	0.238253	0.761906
N123	N	0.956829	-0.219268	0.219575
N124	N	1.456829	0.280732	0.719575
H125	H	0.917267	-0.184953	0.185366
H126	H	1.417267	0.315047	0.685366
H127	H	1.565455	-0.482989	0.904519
H128	H	2.065455	0.017011	1.404519
H129	H	1.695150	-0.903837	0.391378
H130	H	2.195150	-0.403837	0.891378
N131	N	1.715738	-0.395451	0.806319
N132	N	2.215738	0.104549	1.306319
N133	N	1.732144	-0.398594	0.738120
N134	N	2.232144	0.101406	1.238120
H135	H	1.803967	-0.412239	0.718972
H136	H	2.303967	0.087761	1.218972
N137	N	1.571133	-0.805659	0.497478
N138	N	2.071133	-0.305659	0.997478
N139	N	1.575540	-0.737456	0.509065
N140	N	2.075540	-0.237456	1.009065
H141	H	1.594780	-0.718287	0.559845
H142	H	2.094780	-0.218287	1.059845
N143	N	1.663008	-0.255693	0.909800
N144	N	2.163008	0.244307	1.409800
N145	N	1.757838	-0.262498	0.893815
N146	N	2.257838	0.237502	1.393815
H147	H	1.810515	-0.225331	0.912891
H148	H	2.310515	0.274669	1.412891
H149	H	1.388620	-0.903752	0.449362
H150	H	1.888620	-0.403752	0.949362
H151	H	1.341408	-0.811190	0.324140
H152	H	1.841408	-0.311190	0.824140
N153	N	1.465563	-0.909483	0.218119
N154	N	1.965563	-0.409483	0.718119
N155	N	1.446938	-0.865070	0.166654
N156	N	1.946938	-0.365070	0.666654
H157	H	1.427791	-0.884301	0.115879
H158	H	1.927791	-0.384301	0.615879
N159	N	0.907800	-0.454089	0.453607
N160	N	1.407800	0.045911	0.953607
N161	N	0.956791	-0.496557	0.495930
N162	N	1.456791	0.003443	0.995930
H163	H	0.917223	-0.530886	0.530141
H164	H	1.417223	-0.030886	1.030141
N165	N	1.465273	-0.218332	0.806191
N166	N	1.965273	0.281668	1.306191
N167	N	1.378299	-0.190672	0.821989
N168	N	1.878299	0.309328	1.321989
H169	H	1.359046	-0.139928	0.802755
H170	H	1.859046	0.360072	1.302755
