data_functionalizedCrystal
_audit_creation_method	'MofGen! by Chris Wilmer'
_symmetry_space_group_name_H-M	'P1'
_symmetry_Int_Tables_number	1
_symmetry_cell_setting	triclinic
loop_
_symmetry_equiv_pos_as_xyz
  x,y,z
_cell_length_a	17.077404
_cell_length_b	12.594516
_cell_length_c	17.077396
_cell_angle_alpha	90.024821
_cell_angle_beta	90.019501
_cell_angle_gamma	90.012041
loop_
_atom_site_label
_atom_site_type_symbol
_atom_site_fract_x
_atom_site_fract_y
_atom_site_fract_z
Zn1	Zn	1.200115	-0.423736	0.443863
Zn2	Zn	1.700115	0.076264	0.943863
Zn3	Zn	1.200047	-0.601736	0.312605
Zn4	Zn	1.700047	-0.101736	0.812605
Zn5	Zn	1.068847	-0.423773	0.312611
Zn6	Zn	1.568847	0.076227	0.812611
Zn7	Zn	1.068840	-0.601673	0.443829
Zn8	Zn	1.568840	-0.101673	0.943829
O9	O	1.134462	-0.512730	0.378227
O10	O	1.634462	-0.012730	0.878227
O11	O	1.309953	-0.447359	0.426463
O12	O	1.809953	0.052641	0.926463
O13	O	1.182618	-0.578171	0.202759
O14	O	1.682618	-0.078171	0.702759
O15	O	1.086291	-0.274822	0.330038
O16	O	1.586291	0.225178	0.830038
O17	O	1.309903	-0.578135	0.330029
O18	O	1.809903	-0.078135	0.830029
O19	O	1.182733	-0.274795	0.426468
O20	O	1.682733	0.225205	0.926468
O21	O	1.086225	-0.447422	0.202763
O22	O	1.586225	0.052578	0.702763
O23	O	0.958999	-0.447361	0.330005
O24	O	1.458999	0.052639	0.830005
O25	O	1.086280	-0.578027	0.553680
O26	O	1.586280	-0.078027	1.053680
O27	O	0.958994	-0.578064	0.426410
O28	O	1.458994	-0.078064	0.926410
O29	O	1.182727	-0.447297	0.553705
O30	O	1.682727	0.052703	1.053705
O31	O	1.182611	-0.750674	0.329996
O32	O	1.682611	-0.250674	0.829996
O33	O	1.086214	-0.750627	0.426405
O34	O	1.586214	-0.250627	0.926405
C35	C	0.930515	-0.512710	0.378205
C36	C	1.430515	-0.012710	0.878205
C37	C	0.843265	-0.512728	0.378214
C38	C	1.343265	-0.012728	0.878214
C39	C	0.802293	-0.580887	0.428332
C40	C	1.302293	-0.080887	0.928332
C41	C	0.720312	-0.580889	0.428345
C42	C	1.220312	-0.080889	0.928345
C43	C	0.679305	-0.512737	0.378235
C44	C	1.179305	-0.012737	0.878235
C45	C	0.720283	-0.444570	0.328115
C46	C	1.220283	0.055430	0.828115
C47	C	0.802262	-0.444563	0.328107
C48	C	1.302262	0.055437	0.828107
C49	C	0.549413	-0.444591	0.328134
C50	C	1.049413	0.055409	0.828134
C51	C	0.467429	-0.444599	0.328141
C52	C	0.967429	0.055401	0.828141
C53	C	0.467463	-0.580917	0.428372
C54	C	0.967463	-0.080917	0.928372
C55	C	0.549442	-0.580910	0.428364
C56	C	1.049442	-0.080910	0.928364
C57	C	0.590414	-0.512745	0.378242
C58	C	1.090414	-0.012745	0.878242
C59	C	1.134426	-0.789271	0.378213
C60	C	1.634426	-0.289271	0.878213
C61	C	1.134482	-0.907576	0.378234
C62	C	1.634482	-0.407576	0.878234
C63	C	1.186974	-0.976816	0.325852
C64	C	1.686974	-0.476816	0.825852
C65	C	1.206155	-1.047517	0.397500
C66	C	1.706155	-0.547517	0.897500
C67	C	1.115399	-1.047673	0.306632
C68	C	1.615399	-0.547673	0.806632
C69	C	1.153700	-0.976719	0.449918
C70	C	1.653700	-0.476719	0.949918
C71	C	1.062911	-0.976869	0.359002
C72	C	1.562911	-0.476869	0.859002
C73	C	1.082065	-1.047539	0.430699
C74	C	1.582065	-0.547539	0.930699
C75	C	1.339207	-0.512750	0.378249
C76	C	1.839207	-0.012750	0.878249
C77	C	1.426456	-0.512758	0.378258
C78	C	1.926456	-0.012758	0.878258
C79	C	1.134510	-0.512651	0.582971
C80	C	1.634510	-0.012651	1.082971
C81	C	1.134530	-0.512618	0.670221
C82	C	1.634530	-0.012618	1.170221
C83	C	1.134520	-0.235109	0.378258
C84	C	1.634520	0.264891	0.878258
C85	C	1.134545	-0.116803	0.378271
C86	C	1.634545	0.383197	0.878271
C87	C	1.134460	-0.512731	0.174279
C88	C	1.634460	-0.012731	0.674279
C89	C	1.134592	-0.512464	0.087030
C90	C	1.634592	-0.012464	0.587030
C91	C	1.184752	-0.444541	0.711225
C92	C	1.684752	0.055459	1.211225
C93	C	1.184761	-0.444506	0.793206
C94	C	1.684761	0.055494	1.293206
C95	C	1.134552	-0.512553	0.834180
C96	C	1.634552	-0.012553	1.334180
C97	C	1.084325	-0.580633	0.793170
C98	C	1.584325	-0.080633	1.293170
C99	C	1.084312	-0.580662	0.711191
C100	C	1.584312	-0.080662	1.211191
C101	C	1.084357	-0.580569	0.964040
C102	C	1.584357	-0.080569	1.464040
C103	C	1.084370	-0.580541	1.046025
C104	C	1.584370	-0.080541	1.546025
C105	C	1.184806	-0.444412	1.046055
C106	C	1.684806	0.055588	1.546055
C107	C	1.184793	-0.444442	0.964076
C108	C	1.684793	0.055558	1.464076
C109	C	1.134566	-0.512523	0.923072
C110	C	1.634566	-0.012523	1.423072
H111	H	0.835674	-0.636389	0.469135
H112	H	1.335674	-0.136389	0.969135
H113	H	0.686889	-0.389074	0.287318
H114	H	1.186889	0.110926	0.787318
C115	C	0.981134	-0.934896	0.336966
C116	C	1.481134	-0.434896	0.836966
N117	N	0.919541	-0.903276	0.320359
N118	N	1.419541	-0.403276	0.820359
C119	C	0.594481	-0.369607	0.272996
C120	C	1.094481	0.130393	0.772996
N121	N	0.628426	-0.313135	0.231463
N122	N	1.128426	0.186865	0.731463
C123	C	1.240055	-0.369521	1.091162
C124	C	1.740055	0.130479	1.591162
N125	N	1.281670	-0.313119	1.125139
N126	N	1.781670	0.186881	1.625139
C127	C	1.240024	-0.369584	0.919006
C128	C	1.740024	0.130416	1.419006
N129	N	1.281621	-0.313195	0.885059
N130	N	1.781621	0.186805	1.385059
H131	H	1.037702	-1.078396	0.475063
H132	H	1.537702	-0.578396	0.975063
H133	H	0.835621	-0.389055	0.287300
H134	H	1.335621	0.110945	0.787300
H135	H	1.231371	-0.945761	0.281595
H136	H	1.731371	-0.445761	0.781595
H137	H	0.686956	-0.636393	0.469155
H138	H	1.186956	-0.136393	0.969155
C139	C	1.029133	-0.655390	1.091096
C140	C	1.529133	-0.155390	1.591096
N141	N	0.987526	-0.711766	1.125043
N142	N	1.487526	-0.211766	1.625043
H143	H	1.043445	-0.635991	0.930657
H144	H	1.543445	-0.135991	1.430657
H145	H	1.043441	-0.636034	0.826538
H146	H	1.543441	-0.136034	1.326538
H147	H	1.266708	-1.078553	0.413787
H148	H	1.766708	-0.578553	0.913787
H149	H	1.169806	-0.945685	0.510538
H150	H	1.669806	-0.445685	1.010538
C151	C	1.093556	-1.089771	0.224807
C152	C	1.593556	-0.589771	0.724807
N153	N	1.077108	-1.121474	0.163174
N154	N	1.577108	-0.621474	0.663174
C155	C	1.239986	-0.369681	0.666161
C156	C	1.739986	0.130319	1.166161
N157	N	1.281587	-0.313290	0.632221
N158	N	1.781587	0.186710	1.132221
C159	C	1.029066	-0.655554	0.666087
C160	C	1.529066	-0.155554	1.166087
N161	N	0.987451	-0.711963	0.632115
N162	N	1.487451	-0.211963	1.132115
H163	H	0.434043	-0.389090	0.287346
H164	H	0.934043	0.110910	0.787346
H165	H	0.434100	-0.636417	0.469184
H166	H	0.934100	-0.136417	0.969184
C167	C	0.594548	-0.655887	0.483483
C168	C	1.094548	-0.155887	0.983483
N169	N	0.628522	-0.712360	0.525000
N170	N	1.128522	-0.212360	1.025000
H171	H	1.225659	-0.389073	0.826588
H172	H	1.725659	0.110927	1.326588
