data_functionalizedCrystal
_audit_creation_method	'MofGen! by Chris Wilmer'
_symmetry_space_group_name_H-M	'P1'
_symmetry_Int_Tables_number	1
_symmetry_cell_setting	triclinic
loop_
_symmetry_equiv_pos_as_xyz
  x,y,z
_cell_length_a	15.944551
_cell_length_b	9.730223
_cell_length_c	10.654550
_cell_angle_alpha	90.004131
_cell_angle_beta	83.991821
_cell_angle_gamma	89.996201
loop_
_atom_site_label
_atom_site_type_symbol
_atom_site_fract_x
_atom_site_fract_y
_atom_site_fract_z
O1	O	1.115457	0.114143	0.161968
O2	O	1.615457	0.614143	0.661968
O3	O	0.871023	0.114177	0.181937
O4	O	1.371023	0.614177	0.681937
O5	O	0.998860	0.114154	-0.010860
O6	O	1.498860	0.614154	0.489140
O7	O	0.987620	0.114166	0.354764
O8	O	1.487620	0.614166	0.854764
O9	O	0.998858	-0.114426	-0.010869
O10	O	1.498858	0.385574	0.489131
O11	O	0.871021	-0.114403	0.181927
O12	O	1.371021	0.385597	0.681927
O13	O	1.115455	-0.114437	0.161959
O14	O	1.615455	0.385563	0.661959
Zn15	Zn	0.993238	-0.150712	0.171941
Zn16	Zn	1.493238	0.349288	0.671941
Zn17	Zn	0.993240	0.150452	0.171954
Zn18	Zn	1.493240	0.650452	0.671954
O19	O	0.987618	-0.114414	0.354755
O20	O	1.487618	0.385586	0.854755
C21	C	0.839723	-0.000109	0.181103
C22	C	1.339723	0.499891	0.681103
C23	C	0.746463	-0.000096	0.178618
C24	C	1.246463	0.499904	0.678618
N25	N	0.993243	-0.356249	0.171932
N26	N	1.493243	0.143751	0.671932
C27	C	0.998034	-0.000134	-0.057652
C28	C	1.498034	0.499866	0.442348
C29	C	0.995565	-0.000129	-0.197063
C30	C	1.495565	0.499871	0.302937
C31	C	0.530880	-0.000127	0.053173
C32	C	1.030880	0.499873	0.553173
C33	C	0.470198	0.112577	0.111430
C34	C	0.970198	0.612577	0.611430
C35	C	0.575711	-0.000112	0.174122
C36	C	1.075711	0.499888	0.674122
C37	C	0.470219	-0.112785	0.111449
C38	C	0.970219	0.387215	0.611449
C39	C	0.410773	-0.000134	0.169770
C40	C	0.910773	0.499866	0.669770
C41	C	0.516257	0.112684	0.232412
C42	C	1.016257	0.612684	0.732412
C43	C	0.516284	-0.112779	0.232414
C44	C	1.016284	0.387221	0.732414
C45	C	0.455620	-0.000047	0.290759
C46	C	0.955620	0.499953	0.790759
C47	C	0.670728	-0.000099	0.176625
C48	C	1.170728	0.499901	0.676625
C49	C	0.315757	-0.000138	0.167276
C50	C	0.815757	0.499862	0.667276
C51	C	1.146755	-0.000148	0.162792
C52	C	1.646755	0.499852	0.662792
C53	C	1.240015	-0.000152	0.165278
C54	C	1.740015	0.499848	0.665278
N55	N	0.993242	0.355988	0.171953
N56	N	1.493242	0.855988	0.671953
C57	C	1.049955	0.427904	0.086748
C58	C	1.549955	0.927904	0.586748
C59	C	1.049957	0.571787	0.086740
C60	C	1.549957	1.071787	0.586740
C61	C	0.936527	0.571825	0.257146
C62	C	1.436527	1.071825	0.757146
C63	C	0.936529	0.427945	0.257159
C64	C	1.436529	0.927945	0.757159
C65	C	1.106667	0.355947	0.001542
C66	C	1.606667	0.855947	0.501542
C67	C	1.163384	0.427863	-0.083671
C68	C	1.663384	0.927863	0.416329
C69	C	1.163387	0.571746	-0.083679
C70	C	1.663387	1.071746	0.416321
C71	C	1.106673	0.643713	0.001526
C72	C	1.606673	1.143713	0.501526
C73	C	1.070833	-0.000144	-0.277523
C74	C	1.570833	0.499856	0.222477
C75	C	1.068508	-0.000134	-0.408513
C76	C	1.568508	0.499866	0.091487
C77	C	0.915639	-0.000100	-0.378572
C78	C	1.415639	0.499900	0.121428
C79	C	0.917965	-0.000101	-0.247584
C80	C	1.417965	0.499899	0.252416
C81	C	1.148432	-0.000172	-0.227002
C82	C	1.648432	0.499828	0.272998
C83	C	1.223707	-0.000188	-0.307463
C84	C	1.723707	0.499812	0.192537
C85	C	1.221382	-0.000178	-0.438453
C86	C	1.721382	0.499822	0.061547
C87	C	1.143782	-0.000152	-0.488983
C88	C	1.643782	0.499848	0.011017
C89	C	0.988444	-0.000123	0.401547
C90	C	1.488444	0.499877	0.901547
C91	C	0.990913	-0.000119	0.540958
C92	C	1.490913	0.499881	1.040958
H93	H	0.563632	0.000009	-0.047204
H94	H	1.063632	0.500009	0.452796
C95	C	0.442623	0.241284	0.042332
C96	C	0.942623	0.741284	0.542332
H97	H	0.468634	0.241147	-0.042068
H98	H	0.968634	0.741147	0.457932
H99	H	0.459147	0.321320	0.084486
H100	H	0.959147	0.821320	0.584486
H101	H	0.383071	0.240769	0.041923
H102	H	0.883071	0.740769	0.541923
C103	C	0.835172	-0.000087	-0.159074
C104	C	1.335172	0.499913	0.340926
H105	H	0.788624	-0.000089	-0.207920
H106	H	1.288624	0.499911	0.292080
H107	H	0.832907	0.079625	-0.107349
H108	H	1.332907	0.579625	0.392651
H109	H	0.832902	-0.079807	-0.107358
H110	H	1.332902	0.420193	0.392642
H111	H	1.286886	-0.000175	-0.266312
H112	H	1.786886	0.499825	0.233688
H113	H	0.449836	-0.208064	0.060267
H114	H	0.949836	0.291936	0.560267
H115	H	1.282674	-0.000177	-0.503962
H116	H	1.782674	0.499823	-0.003962
C117	C	1.141225	-0.000134	-0.633070
C118	C	1.641225	0.499866	-0.133070
H119	H	1.197167	-0.000150	-0.673756
H120	H	1.697167	0.499850	-0.173756
H121	H	1.112471	0.079582	-0.657165
H122	H	1.612471	0.579582	-0.157165
H123	H	1.112472	-0.079850	-0.657182
H124	H	1.612472	0.420150	-0.157182
H125	H	1.106685	0.760873	0.001520
H126	H	1.606685	1.260873	0.501520
C127	C	0.543649	0.241551	0.301466
C128	C	1.043649	0.741551	0.801466
H129	H	0.495415	0.295298	0.328746
H130	H	0.995415	0.795298	0.828746
H131	H	0.581362	0.294233	0.245726
H132	H	1.081362	0.794233	0.745726
H133	H	0.571058	0.214616	0.372544
H134	H	1.071058	0.714616	0.872544
C135	C	0.411603	0.000040	0.426491
C136	C	0.911603	0.500040	0.926491
H137	H	0.427361	0.080172	0.469251
H138	H	0.927361	0.580172	0.969251
H139	H	0.428079	-0.079258	0.469770
H140	H	0.928079	0.420742	0.969770
H141	H	0.352204	-0.000711	0.424186
H142	H	0.852204	0.499289	0.924186
H143	H	1.150334	-0.000185	-0.120344
H144	H	1.650334	0.499815	0.379656
H145	H	0.890352	0.630430	0.326516
H146	H	1.390352	1.130430	0.826516
C147	C	0.543890	-0.241495	0.301454
C148	C	1.043890	0.258505	0.801454
H149	H	0.528299	-0.321501	0.258355
H150	H	1.028299	0.178499	0.758355
H151	H	0.517080	-0.242303	0.385381
H152	H	1.017080	0.257697	0.885381
H153	H	0.603333	-0.240107	0.303191
H154	H	1.103333	0.259893	0.803191
H155	H	1.106669	0.238791	0.001538
H156	H	1.606669	0.738791	0.501538
H157	H	1.209573	0.630299	-0.153054
H158	H	1.709573	1.130299	0.346946
C159	C	1.225765	0.348707	-0.177387
C160	C	1.725765	0.848707	0.322613
H161	H	1.217637	0.252716	-0.165189
H162	H	1.717637	0.752716	0.334811
H163	H	1.281873	0.372279	-0.163541
H164	H	1.781873	0.872279	0.336459
H165	H	1.216257	0.372278	-0.261258
H166	H	1.716257	0.872278	0.238742
H167	H	0.852461	-0.000081	-0.419724
H168	H	1.352461	0.499919	0.080276
H169	H	0.890349	0.369391	0.326543
H170	H	1.390349	0.869391	0.826543
