data_functionalizedCrystal
_audit_creation_method	'MofGen! by Chris Wilmer'
_symmetry_space_group_name_H-M	'P1'
_symmetry_Int_Tables_number	1
_symmetry_cell_setting	triclinic
loop_
_symmetry_equiv_pos_as_xyz
  x,y,z
_cell_length_a	14.044220
_cell_length_b	14.044209
_cell_length_c	12.503572
_cell_angle_alpha	93.841427
_cell_angle_beta	93.835250
_cell_angle_gamma	86.811584
loop_
_atom_site_label
_atom_site_type_symbol
_atom_site_fract_x
_atom_site_fract_y
_atom_site_fract_z
O1	O	1.282199	-0.225116	0.089218
O2	O	1.782199	0.274884	0.589218
O3	O	1.005529	-0.216809	0.089244
O4	O	1.505529	0.283191	0.589244
O5	O	1.139711	-0.082627	0.089216
O6	O	1.639711	0.417373	0.589216
O7	O	1.148016	-0.359297	0.089246
O8	O	1.648016	0.140703	0.589246
O9	O	1.129621	-0.092737	-0.089424
O10	O	1.629621	0.407263	0.410576
O11	O	0.995439	-0.226918	-0.089395
O12	O	1.495439	0.273082	0.410605
O13	O	1.272109	-0.235225	-0.089422
O14	O	1.772109	0.264775	0.410578
Cu15	Cu	1.132853	-0.231995	-0.105720
Cu16	Cu	1.632853	0.268005	0.394280
Cu17	Cu	1.144785	-0.220039	0.105542
Cu18	Cu	1.644785	0.279961	0.605542
O19	O	1.137927	-0.369407	-0.089394
O20	O	1.637927	0.130593	0.410606
C21	C	0.964862	-0.218228	-0.000072
C22	C	1.464862	0.281772	0.499928
C23	C	0.858720	-0.207382	-0.000063
C24	C	1.358720	0.292618	0.499937
C25	C	1.131031	-0.052060	-0.000105
C26	C	1.631031	0.447940	0.499895
C27	C	1.120187	0.054082	-0.000109
C28	C	1.620187	0.554082	0.499891
C29	C	0.664381	-0.187558	-0.000086
C30	C	1.164381	0.312442	0.499914
C31	C	0.613251	-0.264472	-0.000082
C32	C	1.113251	0.235528	0.499918
C33	C	0.505114	-0.253441	-0.000095
C34	C	1.005114	0.246559	0.499905
C35	C	0.772528	-0.198587	-0.000073
C36	C	1.272528	0.301413	0.499927
C37	C	1.100363	0.248421	-0.000098
C38	C	1.600363	0.748421	0.499902
C39	C	1.177277	0.299550	-0.000104
C40	C	1.677277	0.799550	0.499896
C41	C	1.166247	0.407687	-0.000098
C42	C	1.666247	0.907687	0.499902
C43	C	1.111392	0.140274	-0.000104
C44	C	1.611392	0.640274	0.499896
C45	C	1.312776	-0.233806	-0.000103
C46	C	1.812776	0.266194	0.499897
C47	C	1.418918	-0.244651	-0.000106
C48	C	1.918918	0.255349	0.499894
N49	N	1.124467	-0.240404	-0.254311
N50	N	1.624467	0.259596	0.245689
C51	C	1.146609	0.600026	-0.000079
C52	C	1.646609	1.100026	0.499921
C53	C	1.157458	0.493883	-0.000093
C54	C	1.657458	0.993883	0.499907
C55	C	1.112132	-0.252782	-0.473423
C56	C	1.612132	0.247218	0.026577
C57	C	1.165510	-0.199248	-0.526762
C58	C	1.665510	0.300752	-0.026762
C59	C	1.158646	-0.206135	-0.648683
C60	C	1.658646	0.293865	-0.148683
C61	C	1.118994	-0.245896	-0.351490
C62	C	1.618994	0.254104	0.148510
N63	N	1.153178	-0.211623	0.254133
N64	N	1.653178	0.288377	0.754133
H65	H	0.650690	-0.338604	-0.000069
H66	H	1.150690	0.161396	0.499931
C67	C	1.234222	-0.130355	-0.464753
C68	C	1.734222	0.369645	0.035247
N69	N	1.285979	-0.078473	-0.418043
N70	N	1.785979	0.421527	0.081957
H71	H	1.251414	0.262115	-0.000038
H72	H	1.751414	0.762115	0.499962
H73	H	1.026236	0.285858	-0.000089
H74	H	1.526236	0.785858	0.499911
H75	H	0.626944	-0.113431	-0.000100
H76	H	1.126944	0.386569	0.499900
H77	H	1.061284	-0.303783	-0.519320
H78	H	1.561284	0.196217	-0.019320
