data_functionalizedCrystal
_audit_creation_method	'MofGen! by Chris Wilmer'
_symmetry_space_group_name_H-M	'P1'
_symmetry_Int_Tables_number	1
_symmetry_cell_setting	triclinic
loop_
_symmetry_equiv_pos_as_xyz
  x,y,z
_cell_length_a	6.817900
_cell_length_b	9.514072
_cell_length_c	16.256277
_cell_angle_alpha	91.317330
_cell_angle_beta	103.500353
_cell_angle_gamma	118.843421
loop_
_atom_site_label
_atom_site_type_symbol
_atom_site_fract_x
_atom_site_fract_y
_atom_site_fract_z
V1	V	-4.112011	-0.223505	-0.264541
O2	O	-4.010733	0.009405	-0.258823
O3	O	-4.146780	-0.441889	-0.263388
O4	O	-4.062543	-0.220653	-0.379617
O5	O	-4.095554	-0.213363	-0.141789
V6	V	-4.585001	-0.195577	-0.249779
O7	O	-4.396375	-0.284768	-0.296922
O8	O	-4.750834	-0.134315	-0.217398
O9	O	-4.327025	0.022806	-0.250932
O10	O	-4.803675	-0.428488	-0.255497
O11	O	-4.718855	-0.205720	-0.372531
O12	O	-4.411263	-0.198429	-0.134703
C13	C	-4.012048	-0.495108	-0.259384
C14	C	-4.121756	-0.673644	-0.259208
C15	C	-3.904593	-0.212898	-0.407644
C16	C	-3.945981	-0.212011	-0.501724
C17	C	-4.239286	-0.218208	-0.733563
C18	C	-4.080230	-0.080375	-0.776242
C19	C	-4.021642	-0.210342	-0.673965
C20	C	-4.254359	-0.346497	-0.798910
C21	C	-4.094746	-0.208737	-0.840343
C22	C	-3.861968	-0.072410	-0.715396
C23	C	-4.036201	-0.338654	-0.738070
C24	C	-3.876972	-0.200782	-0.780717
C25	C	-3.979533	-0.211265	-0.578119
C26	C	-4.136831	-0.207801	-0.936186
C27	C	-4.125102	0.076017	-0.254934
C28	C	-3.994633	0.254551	-0.255115
C29	C	-4.232556	-0.206190	-0.106671
C30	C	-4.170404	-0.207069	-0.012591
H31	H	-4.314554	-0.748770	-0.262608
C32	C	-4.010630	-0.486188	-0.714984
H33	H	-3.860898	-0.449588	-0.676584
H34	H	-4.127376	-0.552058	-0.688520
H35	H	-4.027818	-0.547936	-0.765610
H36	H	-3.801842	-0.670328	-0.251703
C37	C	-4.445445	-0.227946	-0.705361
H38	H	-4.460364	-0.136045	-0.718180
H39	H	-4.584923	-0.324346	-0.735063
H40	H	-4.418195	-0.229420	-0.645431
C41	C	-4.105882	0.067149	-0.799306
H42	H	-4.234964	0.060837	-0.783294
H43	H	-3.967817	0.164388	-0.769573
H44	H	-4.130749	0.067206	-0.859289
H45	H	-3.695727	0.043530	-0.679259
C46	C	-3.670359	-0.190763	-0.808681
H47	H	-3.531525	-0.093360	-0.779635
H48	H	-3.653594	-0.281600	-0.794904
H49	H	-3.698481	-0.191113	-0.868762
C50	C	-4.478998	-0.502960	-0.847854
H51	H	-4.607838	-0.508936	-0.831796
H52	H	-4.503108	-0.501732	-0.907734
H53	H	-4.464649	-0.594744	-0.834210
