data_functionalizedCrystal
_audit_creation_method	'MofGen! by Chris Wilmer'
_symmetry_space_group_name_H-M	'P1'
_symmetry_Int_Tables_number	1
_symmetry_cell_setting	triclinic
loop_
_symmetry_equiv_pos_as_xyz
  x,y,z
_cell_length_a	18.215407
_cell_length_b	16.120484
_cell_length_c	16.120256
_cell_angle_alpha	84.383827
_cell_angle_beta	87.121873
_cell_angle_gamma	92.926015
loop_
_atom_site_label
_atom_site_type_symbol
_atom_site_fract_x
_atom_site_fract_y
_atom_site_fract_z
Zn1	Zn	1.087191	-0.356754	0.489461
Zn2	Zn	1.420524	-0.023420	0.822794
Zn3	Zn	1.753858	0.309913	1.156128
Zn4	Zn	1.087099	-0.489439	0.356771
Zn5	Zn	1.420432	-0.156106	0.690104
Zn6	Zn	1.753765	0.177227	1.023438
Zn7	Zn	0.970696	-0.349686	0.349706
Zn8	Zn	1.304029	-0.016353	0.683039
Zn9	Zn	1.637362	0.316980	1.016373
Zn10	Zn	0.957519	-0.496486	0.496494
Zn11	Zn	1.290852	-0.163152	0.829827
Zn12	Zn	1.624186	0.170181	1.163160
O13	O	1.025626	-0.423091	0.423108
O14	O	1.358959	-0.089758	0.756441
O15	O	1.692293	0.243575	1.089775
O16	O	1.190162	-0.374363	0.471873
O17	O	1.523495	-0.041030	0.805206
O18	O	1.856829	0.292303	1.138540
O19	O	1.077133	-0.464994	0.238871
O20	O	1.410467	-0.131661	0.572205
O21	O	1.743800	0.201673	0.905538
O22	O	0.991702	-0.233658	0.362345
O23	O	1.325036	0.099675	0.695678
O24	O	1.658369	0.433008	1.029012
O25	O	1.190094	-0.471847	0.374386
O26	O	1.523427	-0.138514	0.707719
O27	O	1.856761	0.194820	1.041053
O28	O	1.077291	-0.238851	0.465022
O29	O	1.410624	0.094483	0.798356
O30	O	1.743958	0.427816	1.131689
O31	O	0.991613	-0.362318	0.233681
O32	O	1.324946	-0.028985	0.567014
O33	O	1.658279	0.304348	0.900347
O34	O	0.865965	-0.369151	0.369164
O35	O	1.199298	-0.035818	0.702497
O36	O	1.532631	0.297516	1.035831
O37	O	0.969244	-0.483857	0.612523
O38	O	1.302578	-0.150523	0.945857
O39	O	1.635911	0.182810	1.279190
O40	O	0.856284	-0.477004	0.477008
O41	O	1.189617	-0.143671	0.810342
O42	O	1.522950	0.189663	1.143675
O43	O	1.064514	-0.381196	0.607357
O44	O	1.397847	-0.047863	0.940690
O45	O	1.731181	0.285471	1.274023
O46	O	1.064356	-0.607339	0.381205
O47	O	1.397690	-0.274006	0.714539
O48	O	1.731023	0.059327	1.047872
O49	O	0.969155	-0.612517	0.483859
O50	O	1.302488	-0.279183	0.817192
O51	O	1.635821	0.054150	1.150526
C52	C	0.834422	-0.423076	0.423083
C53	C	1.167755	-0.089742	0.756417
C54	C	1.501088	0.243591	1.089750
C55	C	0.752622	-0.423090	0.423093
C56	C	1.085955	-0.089757	0.756427
C57	C	1.419288	0.243576	1.089760
C58	C	0.559405	-0.479330	0.479185
C59	C	0.892739	-0.145997	0.812519
C60	C	1.226072	0.187337	1.145852
C61	C	0.482546	-0.479333	0.479196
C62	C	0.815879	-0.146000	0.812529
C63	C	1.149213	0.187334	1.145862
C64	C	0.492597	-0.366869	0.367050
C65	C	0.825931	-0.033535	0.700383
C66	C	1.159264	0.299798	1.033716
C67	C	0.569455	-0.366862	0.367044
C68	C	0.902789	-0.033529	0.700377
C69	C	1.236122	0.299804	1.033710
C70	C	0.602857	-0.423098	0.423111
C71	C	0.936190	-0.089764	0.756444
C72	C	1.269524	0.243569	1.089777
C73	C	0.449140	-0.423107	0.423127
C74	C	0.782473	-0.089774	0.756460
C75	C	1.115806	0.243560	1.089794
C76	C	0.365805	-0.423110	0.423138
C77	C	0.699139	-0.089777	0.756471
C78	C	1.032472	0.243557	1.089805
C79	C	0.686197	-0.423094	0.423101
C80	C	1.019530	-0.089760	0.756434
C81	C	1.352863	0.243573	1.089767
C82	C	1.015335	-0.640257	0.434080
C83	C	1.348668	-0.306923	0.767413
C84	C	1.682001	0.026410	1.100747
C85	C	1.010998	-0.733162	0.438802
C86	C	1.344331	-0.399829	0.772135
C87	C	1.677665	-0.066496	1.105469
C88	C	1.003084	-0.903263	0.447440
C89	C	1.336417	-0.569930	0.780773
C90	C	1.669751	-0.236596	1.114107
C91	C	1.048299	-0.942080	0.398789
C92	C	1.381633	-0.608747	0.732123
C93	C	1.714966	-0.275413	1.065456
C94	C	1.043896	-1.036730	0.403596
C95	C	1.377229	-0.703396	0.736929
C96	C	1.710563	-0.370063	1.070262
C97	C	1.007486	-0.808605	0.442635
C98	C	1.340820	-0.475271	0.775968
C99	C	1.674153	-0.141938	1.109302
C100	C	1.217577	-0.423107	0.423133
C101	C	1.550910	-0.089774	0.756467
C102	C	1.884244	0.243559	1.089800
C103	C	1.299375	-0.423114	0.423144
C104	C	1.632709	-0.089781	0.756477
C105	C	1.966042	0.243552	1.089811
C106	C	1.015420	-0.434101	0.641115
C107	C	1.348753	-0.100767	0.974448
C108	C	1.682086	0.232566	1.307782
C109	C	1.011070	-0.438792	0.734017
C110	C	1.344404	-0.105459	1.067350
C111	C	1.677737	0.227874	1.400683
C112	C	1.035977	-0.205079	0.412111
C113	C	1.369310	0.128255	0.745445
C114	C	1.702643	0.461588	1.078778
C115	C	1.040388	-0.112175	0.407425
C116	C	1.373721	0.221159	0.740758
C117	C	1.707054	0.554492	1.074092
C118	C	1.035838	-0.412064	0.205946
C119	C	1.369171	-0.078731	0.539279
C120	C	1.702505	0.254602	0.872613
C121	C	1.040341	-0.407137	0.113033
C122	C	1.373674	-0.073804	0.446366
C123	C	1.707008	0.259529	0.779700
C124	C	1.048307	-0.398604	0.942943
C125	C	1.381640	-0.065270	1.276276
C126	C	1.714974	0.268063	1.609609
C127	C	1.003106	-0.447323	0.904101
C128	C	1.336440	-0.113990	1.237435
C129	C	1.669773	0.219343	1.570768
C130	C	1.007539	-0.442575	0.809457
C131	C	1.340872	-0.109242	1.142791
C132	C	1.674206	0.224091	1.476124
C133	C	1.043876	-0.403351	1.037595
C134	C	1.377209	-0.070017	1.370928
C135	C	1.710542	0.263316	1.704262
H136	H	0.447170	-0.525122	0.524859
H137	H	0.780504	-0.191789	0.858192
H138	H	1.113837	0.141545	1.191525
H139	H	0.961070	-0.941112	0.492697
H140	H	1.294403	-0.607779	0.826030
H141	H	1.627736	-0.274446	1.159363
Br142	Br	1.118330	-0.878995	0.323349
Br143	Br	1.451664	-0.545662	0.656682
Br144	Br	1.784997	-0.212329	0.990015
Br145	Br	0.933059	-0.522788	0.967145
Br146	Br	1.266392	-0.189454	1.300478
Br147	Br	1.599725	0.143879	1.633811
Br148	Br	0.447261	-0.290553	0.290963
Br149	Br	0.780595	0.042780	0.624296
Br150	Br	1.113928	0.376113	0.957629
Br151	Br	1.118339	-0.323131	0.879898
Br152	Br	1.451673	0.010202	1.213231
Br153	Br	1.785006	0.343536	1.546564
H154	H	0.604835	-0.321066	0.321381
H155	H	0.938169	0.012267	0.654714
H156	H	1.271502	0.345601	0.988047
H157	H	0.586598	-0.525118	0.524840
H158	H	0.919932	-0.191785	0.858174
H159	H	1.253265	0.141548	1.191507
