data_functionalizedCrystal
_audit_creation_method	'MofGen! by Chris Wilmer'
_symmetry_space_group_name_H-M	'P1'
_symmetry_Int_Tables_number	1
_symmetry_cell_setting	triclinic
loop_
_symmetry_equiv_pos_as_xyz
  x,y,z
_cell_length_a	11.792241
_cell_length_b	11.792241
_cell_length_c	10.868271
_cell_angle_alpha	89.994719
_cell_angle_beta	89.999893
_cell_angle_gamma	84.193416
loop_
_atom_site_label
_atom_site_type_symbol
_atom_site_fract_x
_atom_site_fract_y
_atom_site_fract_z
O1	O	1.506908	0.155568	-0.102203
O2	O	1.840242	0.488902	0.231130
O3	O	2.173575	0.822235	0.564463
O4	O	1.176567	0.171601	-0.102232
O5	O	1.509901	0.504935	0.231101
O6	O	1.843234	0.838268	0.564435
O7	O	1.349754	-0.001586	-0.102208
O8	O	1.683088	0.331748	0.231125
O9	O	2.016421	0.665081	0.564458
O10	O	1.333721	0.328755	-0.102227
O11	O	1.667055	0.662089	0.231106
O12	O	2.000388	0.995422	0.564440
O13	O	1.349740	-0.001592	0.102436
O14	O	1.683073	0.331741	0.435770
O15	O	2.016407	0.665074	0.769103
O16	O	1.176553	0.171595	0.102413
O17	O	1.509886	0.504928	0.435746
O18	O	1.843220	0.838261	0.769079
O19	O	1.506894	0.155562	0.102441
O20	O	1.840227	0.488895	0.435775
O21	O	2.173561	0.822228	0.769108
Zn22	Zn	1.341721	0.163577	0.134919
Zn23	Zn	1.675055	0.496910	0.468252
Zn24	Zn	2.008388	0.830244	0.801585
Zn25	Zn	1.341740	0.163586	-0.134709
Zn26	Zn	1.675073	0.496919	0.198624
Zn27	Zn	2.008407	0.830253	0.531957
O28	O	1.333707	0.328749	0.102418
O29	O	1.667040	0.662082	0.435751
O30	O	2.000374	0.995415	0.769084
C31	C	1.134269	0.170591	0.000087
C32	C	1.467603	0.503924	0.333420
C33	C	1.800936	0.837258	0.666753
C34	C	1.008255	0.167576	0.000076
C35	C	1.341589	0.500910	0.333409
C36	C	1.674922	0.834243	0.666743
C37	C	1.348740	-0.043880	0.000114
C38	C	1.682073	0.289453	0.333447
C39	C	2.015407	0.622787	0.666780
C40	C	1.345726	-0.169894	0.000112
C41	C	1.679059	0.163440	0.333445
C42	C	2.012392	0.496773	0.666779
C43	C	0.777543	0.162034	0.000112
C44	C	1.110877	0.495367	0.333445
C45	C	1.444210	0.828700	0.666778
C46	C	0.905928	0.165113	0.000092
C47	C	1.239262	0.498447	0.333425
C48	C	1.572595	0.831780	0.666759
C49	C	1.340183	-0.400606	0.000091
C50	C	1.673516	-0.067272	0.333424
C51	C	2.006849	0.266061	0.666758
C52	C	1.343262	-0.272221	0.000102
C53	C	1.676596	0.061113	0.333436
C54	C	2.009929	0.394446	0.666769
C55	C	1.549192	0.156572	0.000120
C56	C	1.882525	0.489905	0.333453
C57	C	2.215859	0.823239	0.666787
C58	C	1.675206	0.159587	0.000123
C59	C	2.008539	0.492920	0.333456
C60	C	2.341873	0.826253	0.666789
C61	C	1.334721	0.371043	0.000093
C62	C	1.668055	0.704376	0.333426
C63	C	2.001388	1.037710	0.666760
C64	C	1.337736	0.497057	0.000087
C65	C	1.671069	0.830390	0.333420
C66	C	2.004402	1.163723	0.666753
N67	N	1.341717	0.163570	0.318933
N68	N	1.675050	0.496904	0.652266
N69	N	2.008383	0.830237	0.985600
N70	N	1.341754	0.163584	-0.318723
N71	N	1.675087	0.496917	0.014610
N72	N	2.008420	0.830251	0.347943
C73	C	1.341734	0.163584	0.569939
C74	C	1.675068	0.496917	0.903272
C75	C	2.008401	0.830250	1.236606
C76	C	1.341721	0.163580	0.430261
C77	C	1.675054	0.496913	0.763595
C78	C	2.008387	0.830246	1.096928
