data_functionalizedCrystal
_audit_creation_method	'MofGen! by Chris Wilmer'
_symmetry_space_group_name_H-M	'P1'
_symmetry_Int_Tables_number	1
_symmetry_cell_setting	triclinic
loop_
_symmetry_equiv_pos_as_xyz
  x,y,z
_cell_length_a	10.540539
_cell_length_b	17.019294
_cell_length_c	9.616153
_cell_angle_alpha	86.118767
_cell_angle_beta	89.995174
_cell_angle_gamma	83.958693
loop_
_atom_site_label
_atom_site_type_symbol
_atom_site_fract_x
_atom_site_fract_y
_atom_site_fract_z
O1	O	1.684070	0.111163	-0.128890
O2	O	1.314485	0.121637	-0.130161
O3	O	1.509587	0.001626	-0.115774
O4	O	1.488968	0.231175	-0.143277
O5	O	1.509560	0.001629	0.115517
O6	O	1.314458	0.121640	0.101130
O7	O	1.684043	0.111166	0.102401
Zn8	Zn	1.499246	0.116403	0.138488
Zn9	Zn	1.499282	0.116400	-0.166248
O10	O	1.488941	0.231177	0.088014
C11	C	1.267182	0.120853	-0.014423
C12	C	1.126272	0.118503	-0.014148
C13	C	0.944321	0.028453	-0.002819
C14	C	1.090901	0.030836	-0.003640
C15	C	1.063923	0.160691	-0.151277
C16	C	0.917428	0.157699	-0.151015
C17	C	0.916880	0.159485	0.111793
C18	C	1.063848	0.160293	0.113428
C19	C	1.508791	-0.027766	0.003390
C20	C	1.506445	-0.115350	0.013875
C21	C	1.505361	-0.156493	-0.107276
C22	C	1.503148	-0.238787	-0.097420
C23	C	1.502029	-0.279935	0.033587
C24	C	1.503110	-0.238786	0.154746
C25	C	1.505314	-0.156493	0.144890
C26	C	1.495367	-0.528405	0.069656
C27	C	1.493168	-0.610703	0.079504
C28	C	1.493203	-0.610699	-0.172664
C29	C	1.495414	-0.528405	-0.182509
C30	C	1.496488	-0.487262	-0.061350
C31	C	1.499772	-0.364053	0.043664
C32	C	1.498737	-0.403146	-0.071428
C33	C	1.731347	0.111950	-0.013339
C34	C	1.872256	0.114300	-0.013623
C35	C	1.489737	0.260569	-0.031153
C36	C	1.492083	0.348153	-0.041647
N37	N	1.499232	0.116405	0.346463
N38	N	1.499306	0.116392	-0.374221
C39	C	1.394553	0.180388	0.559162
C40	C	1.394777	0.180627	0.397966
C41	C	1.631648	0.135130	0.402674
C42	C	1.631076	0.135583	0.563838
C43	C	1.472819	0.033488	0.576307
C44	C	1.469764	0.034025	0.415016
H45	H	1.133205	-0.002596	-0.094475
H46	H	1.502270	-0.272283	-0.196074
H47	H	1.492326	-0.644206	-0.271305
N48	N	1.492017	-0.652725	0.213343
N49	N	1.492969	-0.615981	0.321509
H50	H	1.492154	-0.645658	0.416029
H51	H	1.496327	-0.494908	-0.289189
N52	N	1.559291	-0.028584	0.372010
N53	N	1.627301	-0.070638	0.460665
H54	H	1.690545	-0.114853	0.430297
H55	H	0.914690	-0.006035	-0.092877
H56	H	0.889740	0.126516	-0.246005
N57	N	1.499870	-0.361130	-0.205257
N58	N	1.410210	-0.363552	-0.289403
H59	H	1.411014	-0.333873	-0.383923
H60	H	1.107003	0.131383	-0.246057
N61	N	1.498612	-0.406088	0.177480
N62	N	1.407941	-0.445239	0.210285
H63	H	1.407116	-0.474930	0.304792
N64	N	1.354320	0.011133	0.630029
N65	N	1.352298	-0.050989	0.706807
H66	H	1.268602	-0.066769	0.744748
H67	H	0.868426	0.220748	-0.164563
H68	H	1.105304	0.129473	0.214828
N69	N	1.092932	0.240473	0.113816
N70	N	1.160435	0.268248	0.019648
H71	H	1.180976	0.324878	0.019911
H72	H	1.295810	0.169294	0.599298
H73	H	1.411668	0.242135	0.352018
H74	H	1.296345	0.169361	0.359796
H75	H	0.868614	0.222807	0.105099
H76	H	1.411218	0.241547	0.592334
H77	H	1.506278	-0.122996	-0.213956
N78	N	1.496469	-0.486398	0.193426
N79	N	1.495476	-0.523151	0.310385
H80	H	1.496257	-0.493481	0.397806
N81	N	1.090619	0.241459	-0.167121
N82	N	1.054852	0.288084	-0.076462
H83	H	1.073706	0.345128	-0.087649
H84	H	0.885787	0.131115	0.215303
N85	N	1.501953	-0.280826	0.288557
N86	N	1.499986	-0.354301	0.297343
H87	H	1.499171	-0.383993	0.391850
N88	N	0.909232	-0.014961	0.121275
N89	N	0.830693	0.016855	0.203199
H90	H	0.805934	-0.013798	0.290869
N91	N	1.568641	-0.026263	0.631317
N92	N	1.583371	-0.038556	0.760219
H93	H	1.651047	-0.080750	0.799079
N94	N	1.660391	0.211460	0.601891
N95	N	1.681126	0.263714	0.509466
H96	H	1.701829	0.317305	0.536332
H97	H	1.711452	0.090849	0.608189
N98	N	1.347575	0.016201	0.369239
N99	N	1.306004	-0.047129	0.412038
H100	H	1.219706	-0.059717	0.379705
H101	H	1.506179	-0.122994	0.243543
H102	H	1.711446	0.089791	0.369757
N103	N	1.661630	0.210156	0.343030
N104	N	1.589370	0.271479	0.362274
H105	H	1.610535	0.324469	0.320151
N106	N	1.145019	-0.010816	0.120116
N107	N	1.074543	-0.041853	0.207699
H108	H	1.112759	-0.071277	0.295103
