data_functionalizedCrystal
_audit_creation_method	'MofGen! by Chris Wilmer'
_symmetry_space_group_name_H-M	'P1'
_symmetry_Int_Tables_number	1
_symmetry_cell_setting	triclinic
loop_
_symmetry_equiv_pos_as_xyz
  x,y,z
_cell_length_a	14.519731
_cell_length_b	12.996460
_cell_length_c	14.519709
_cell_angle_alpha	90.007090
_cell_angle_beta	96.315501
_cell_angle_gamma	89.993310
loop_
_atom_site_label
_atom_site_type_symbol
_atom_site_fract_x
_atom_site_fract_y
_atom_site_fract_z
O1	O	-1.223857	0.085596	0.120986
O2	O	-0.890523	0.418929	0.454320
O3	O	-0.557190	0.752262	0.787653
O4	O	-0.955382	0.085592	0.135203
O5	O	-0.622049	0.418925	0.468536
O6	O	-0.288716	0.752259	0.801869
O7	O	-1.096738	0.085585	-0.006143
O8	O	-0.763404	0.418918	0.327190
O9	O	-0.430071	0.752251	0.660523
O10	O	-1.082501	0.085603	0.262332
O11	O	-0.749168	0.418936	0.595666
O12	O	-0.415835	0.752270	0.928999
O13	O	-1.096723	-0.085549	-0.006151
O14	O	-0.763390	0.247784	0.327182
O15	O	-0.430056	0.581118	0.660515
O16	O	-0.955368	-0.085542	0.135195
O17	O	-0.622034	0.247792	0.468528
O18	O	-0.288701	0.581125	0.801861
O19	O	-1.223842	-0.085538	0.120979
O20	O	-0.890509	0.247795	0.454312
O21	O	-0.557175	0.581128	0.787645
Cu22	Cu	-1.089603	-0.101166	0.128086
Cu23	Cu	-0.756270	0.232167	0.461419
Cu24	Cu	-0.422937	0.565501	0.794753
Cu25	Cu	-1.089621	0.101220	0.128095
Cu26	Cu	-0.756288	0.434553	0.461429
Cu27	Cu	-0.422954	0.767886	0.794762
O28	O	-1.082487	-0.085531	0.262325
O29	O	-0.749153	0.247803	0.595658
O30	O	-0.415820	0.581136	0.928991
C31	C	-0.921016	0.000025	0.134532
C32	C	-0.587682	0.333358	0.467866
C33	C	-0.254349	0.666691	0.801199
C34	C	-0.818635	0.000023	0.132536
C35	C	-0.485302	0.333356	0.465870
C36	C	-0.151969	0.666690	0.799203
N37	N	-1.089598	-0.243513	0.128079
N38	N	-0.756265	0.089820	0.461412
N39	N	-0.422931	0.423154	0.794746
C40	C	-0.735491	0.000025	0.130915
C41	C	-0.402158	0.333359	0.464248
C42	C	-0.068825	0.666692	0.797581
C43	C	-0.631182	0.000024	0.128888
C44	C	-0.297849	0.333357	0.462221
C45	C	0.035484	0.666690	0.795555
C46	C	-0.548043	0.000022	0.127280
C47	C	-0.214710	0.333355	0.460613
C48	C	0.118623	0.666688	0.793946
C49	C	-0.443728	0.000022	0.125253
C50	C	-0.110395	0.333355	0.458586
C51	C	0.222939	0.666689	0.791920
C52	C	-1.089620	-0.663327	0.128096
C53	C	-0.756286	-0.329994	0.461430
C54	C	-0.422953	0.003339	0.794763
C55	C	-1.089611	-0.546522	0.128094
C56	C	-0.756277	-0.213189	0.461428
C57	C	-0.422944	0.120145	0.794761
C58	C	-1.089609	-0.453424	0.128088
C59	C	-0.756276	-0.120090	0.461422
C60	C	-0.422943	0.213243	0.794755
C61	C	-1.089600	-0.336611	0.128085
C62	C	-0.756266	-0.003278	0.461418
C63	C	-0.422933	0.330055	0.794752
C64	C	-0.258209	0.000026	0.121649
C65	C	0.075125	0.333360	0.454982
C66	C	0.408458	0.666693	0.788315
C67	C	-0.360589	0.000020	0.123645
C68	C	-0.027256	0.333353	0.456978
C69	C	0.306078	0.666687	0.790311
C70	C	-1.096067	0.000018	-0.040507
C71	C	-0.762734	0.333351	0.292826
C72	C	-0.429400	0.666684	0.626160
C73	C	-1.094079	0.000017	-0.142889
C74	C	-0.760745	0.333350	0.190445
C75	C	-0.427412	0.666684	0.523778
N76	N	-1.089634	0.243567	0.128095
N77	N	-0.756300	0.576900	0.461428
N78	N	-0.422967	0.910233	0.794762
C79	C	-1.086759	0.000044	-0.517785
C80	C	-0.753426	0.333377	-0.184452
C81	C	-0.420093	0.666710	0.148882
C82	C	-1.088792	0.000036	-0.413477
C83	C	-0.755459	0.333369	-0.080143
C84	C	-0.422125	0.666703	0.253190
C85	C	-1.090419	0.000029	-0.330340
C86	C	-0.757085	0.333363	0.002993
C87	C	-0.423752	0.666696	0.336327
C88	C	-1.092452	0.000024	-0.226025
C89	C	-0.759118	0.333357	0.107308
C90	C	-0.425785	0.666690	0.440641
C91	C	-1.083157	0.000039	0.296688
C92	C	-0.749824	0.333372	0.630022
C93	C	-0.416491	0.666705	0.963355
C94	C	-1.085146	0.000046	0.399070
C95	C	-0.751812	0.333379	0.732403
C96	C	-0.418479	0.666713	1.065736
