data_functionalizedCrystal
_audit_creation_method	'MofGen! by Chris Wilmer'
_symmetry_space_group_name_H-M	'P1'
_symmetry_Int_Tables_number	1
_symmetry_cell_setting	triclinic
loop_
_symmetry_equiv_pos_as_xyz
  x,y,z
_cell_length_a	18.050590
_cell_length_b	19.120786
_cell_length_c	18.050582
_cell_angle_alpha	92.465003
_cell_angle_beta	89.999233
_cell_angle_gamma	92.454965
loop_
_atom_site_label
_atom_site_type_symbol
_atom_site_fract_x
_atom_site_fract_y
_atom_site_fract_z
Zn1	Zn	1.122683	-0.279875	0.406968
Zn2	Zn	1.622683	0.220125	0.906968
Zn3	Zn	1.117303	-0.397324	0.277476
Zn4	Zn	1.617303	0.102676	0.777476
Zn5	Zn	0.998503	-0.279863	0.282826
Zn6	Zn	1.498503	0.220137	0.782826
Zn7	Zn	0.993162	-0.397273	0.401660
Zn8	Zn	1.493162	0.102727	0.901660
O9	O	1.057913	-0.338584	0.342232
O10	O	1.557913	0.161416	0.842232
O11	O	1.225893	-0.295481	0.389772
O12	O	1.725893	0.204519	0.889772
O13	O	1.101527	-0.381759	0.174260
O14	O	1.601527	0.118241	0.674260
O15	O	1.019463	-0.181576	0.303754
O16	O	1.519463	0.318424	0.803754
O17	O	1.221940	-0.381770	0.294635
O18	O	1.721940	0.118230	0.794635
O19	O	1.110698	-0.181584	0.394960
O20	O	1.610698	0.318416	0.894960
O21	O	1.014246	-0.295462	0.178191
O22	O	1.514246	0.204538	0.678191
O23	O	0.893871	-0.295412	0.298608
O24	O	1.393871	0.204588	0.798608
O25	O	1.010359	-0.381683	0.506290
O26	O	1.510359	0.118317	1.006290
O27	O	0.889947	-0.381672	0.385915
O28	O	1.389947	0.118328	0.885915
O29	O	1.105518	-0.295431	0.510189
O30	O	1.605518	0.204569	1.010189
O31	O	1.096348	-0.495606	0.289489
O32	O	1.596348	0.004394	0.789489
O33	O	1.005142	-0.495569	0.380727
O34	O	1.505142	0.004431	0.880727
C35	C	0.864963	-0.338536	0.342267
C36	C	1.364963	0.161464	0.842267
C37	C	0.782417	-0.338532	0.342298
C38	C	1.282417	0.161468	0.842298
C39	C	0.580848	-0.385575	0.389652
C40	C	1.080848	0.114425	0.889652
C41	C	0.534340	-0.321532	0.410818
C42	C	1.034340	0.178468	0.910818
C43	C	0.631285	-0.338571	0.342260
C44	C	1.131285	0.161429	0.842260
C45	C	0.530710	-0.402651	0.321091
C46	C	1.030710	0.097349	0.821091
C47	C	0.485298	-0.338615	0.342224
C48	C	0.985298	0.161385	0.842224
C49	C	0.585866	-0.274494	0.363463
C50	C	1.085866	0.225506	0.863463
C51	C	0.582238	-0.355657	0.273703
C52	C	1.082238	0.144343	0.773703
C53	C	0.535754	-0.291570	0.294846
C54	C	1.035754	0.208430	0.794846
C55	C	0.715384	-0.338547	0.342282
C56	C	1.215384	0.161453	0.842282
C57	C	0.401201	-0.338632	0.342202
C58	C	0.901201	0.161368	0.842202
C59	C	1.049602	-0.521073	0.333967
C60	C	1.549602	-0.021073	0.833967
C61	C	1.046114	-0.599142	0.330457
C62	C	1.546114	-0.099142	0.830457
C63	C	1.091941	-0.635763	0.376332
C64	C	1.591941	-0.135763	0.876332
C65	C	1.088661	-0.709118	0.373034
C66	C	1.588661	-0.209118	0.873034
C67	C	1.039557	-0.745850	0.323857
C68	C	1.539557	-0.245850	0.823857
C69	C	0.993725	-0.709224	0.277980
C70	C	1.493725	-0.209224	0.777980
C71	C	0.997002	-0.635871	0.281282
C72	C	1.497002	-0.135871	0.781282
C73	C	1.027285	-0.967333	0.311513
C74	C	1.527285	-0.467333	0.811513
C75	C	1.024014	-1.040691	0.308213
C76	C	1.524014	-0.540691	0.808213
C77	C	1.118949	-1.040580	0.403269
C78	C	1.618949	-0.540580	0.903269
C79	C	1.122225	-0.967226	0.406563
C80	C	1.622225	-0.467226	0.906563
C81	C	1.076390	-0.930606	0.360689
C82	C	1.576390	-0.430606	0.860689
C83	C	1.036205	-0.820831	0.320483
C84	C	1.536205	-0.320831	0.820483
C85	C	1.079739	-0.855627	0.364067
C86	C	1.579739	-0.355627	0.864067
C87	C	1.251616	-0.338632	0.342199
C88	C	1.751616	0.161368	0.842199
C89	C	1.334161	-0.338653	0.342184
C90	C	1.834161	0.161347	0.842184
C91	C	1.057943	-0.338553	0.535939
C92	C	1.557943	0.161447	1.035939
C93	C	1.057956	-0.338539	0.618486
C94	C	1.557956	0.161461	1.118486
C95	C	1.066277	-0.155382	0.350546
C96	C	1.566277	0.344618	0.850546
C97	C	1.069841	-0.077312	0.354089
C98	C	1.569841	0.422688	0.854089
C99	C	1.057927	-0.338564	0.149281
C100	C	1.557927	0.161436	0.649281
C101	C	1.058067	-0.338379	0.066744
C102	C	1.558067	0.161621	0.566744
C103	C	1.006250	-0.385379	0.815819
C104	C	1.506250	0.114621	1.315819
C105	C	1.073231	-0.402560	0.864416
C106	C	1.573231	0.097440	1.364416
C107	C	1.057995	-0.338486	0.769619
C108	C	1.557995	0.161514	1.269619
C109	C	0.991052	-0.321285	0.868104
C110	C	1.491052	0.178715	1.368104
C111	C	1.058027	-0.338435	0.915606
C112	C	1.558027	0.161565	1.415606
C113	C	1.125011	-0.355700	0.817127
C114	C	1.625011	0.144300	1.317127
C115	C	1.042788	-0.274395	0.820812
C116	C	1.542788	0.225605	1.320812
C117	C	1.109817	-0.291552	0.869388
C118	C	1.609817	0.208448	1.369388
C119	C	1.057976	-0.338517	0.685519
C120	C	1.557976	0.161483	1.185519
C121	C	1.058054	-0.338404	0.999704
C122	C	1.558054	0.161596	1.499704
H123	H	0.609908	-0.220305	0.381418
H124	H	1.109908	0.279695	0.881418
Br125	Br	0.934802	-0.586169	0.219023
Br126	Br	1.434802	-0.086169	0.719023
Br127	Br	0.502864	-0.225277	0.228023
Br128	Br	1.002864	0.274723	0.728023
H129	H	0.513276	-0.307095	0.468780
H130	H	1.013276	0.192905	0.968780
H131	H	0.506573	-0.456824	0.303204
H132	H	1.006573	0.043176	0.803204
H133	H	1.153638	-0.251875	0.892704
H134	H	1.653638	0.248125	1.392704
Br135	Br	1.021284	-0.184119	0.788698
Br136	Br	1.521284	0.315881	1.288698
H137	H	1.131930	-0.605861	0.416374
H138	H	1.631930	-0.105861	0.916374
H139	H	1.119717	-0.825717	0.404110
H140	H	1.619717	-0.325717	0.904110
Br141	Br	0.896674	-0.297071	0.905384
Br142	Br	1.396674	0.202929	1.405384
Br143	Br	1.150845	-0.758816	0.435309
Br144	Br	1.650845	-0.258816	0.935309
Br145	Br	0.613972	-0.451714	0.456528
Br146	Br	1.113972	0.048286	0.956528
Br147	Br	0.617344	-0.379736	0.177105
Br148	Br	1.117344	0.120264	0.677105
Br149	Br	1.188869	-0.917380	0.473305
Br150	Br	1.688869	-0.417380	0.973305
Br151	Br	1.181148	-1.090282	0.465525
Br152	Br	1.681148	-0.590282	0.965525
Br153	Br	0.933374	-0.451557	0.776725
Br154	Br	1.433374	0.048443	1.276725
Br155	Br	0.957373	-1.090542	0.241463
Br156	Br	1.457373	-0.590542	0.741463
H157	H	0.989966	-0.937523	0.274159
H158	H	1.489966	-0.437523	0.774159
Br159	Br	0.927073	-0.759074	0.211248
Br160	Br	1.427073	-0.259074	0.711248
Br161	Br	0.969559	-0.870687	0.253751
Br162	Br	1.469559	-0.370687	0.753751
H163	H	1.086113	-0.456738	0.883666
H164	H	1.586113	0.043262	1.383666
Br165	Br	1.219413	-0.380024	0.780004
Br166	Br	1.719413	0.119976	1.280004
