data_functionalizedCrystal
_audit_creation_method	'MofGen! by Chris Wilmer'
_symmetry_space_group_name_H-M	'P1'
_symmetry_Int_Tables_number	1
_symmetry_cell_setting	triclinic
loop_
_symmetry_equiv_pos_as_xyz
  x,y,z
_cell_length_a	18.215405
_cell_length_b	12.759401
_cell_length_c	18.215399
_cell_angle_alpha	90.018681
_cell_angle_beta	89.969030
_cell_angle_gamma	89.973382
loop_
_atom_site_label
_atom_site_type_symbol
_atom_site_fract_x
_atom_site_fract_y
_atom_site_fract_z
Zn1	Zn	-0.292955	-1.606155	-0.416089
Zn2	Zn	-0.416027	-1.606026	-0.293018
Zn3	Zn	-0.292983	-1.430465	-0.293038
Zn4	Zn	-0.415988	-1.430415	-0.416044
O5	O	-0.354488	-1.518265	-0.354547
O6	O	-0.309285	-1.753159	-0.399774
O7	O	-0.399733	-1.582704	-0.190036
O8	O	-0.189995	-1.453846	-0.309389
O9	O	-0.399706	-1.753064	-0.309354
O10	O	-0.189974	-1.582925	-0.399794
O11	O	-0.309333	-1.453720	-0.190051
O12	O	-0.309295	-1.283437	-0.309345
O13	O	-0.399639	-1.453760	-0.519034
O14	O	-0.399666	-1.283400	-0.399717
O15	O	-0.309247	-1.582876	-0.519068
O16	O	-0.519006	-1.582656	-0.309310
O17	O	-0.518977	-1.453635	-0.399696
C18	C	-0.545694	-1.518154	-0.354512
C19	C	-0.627493	-1.518203	-0.354521
C20	C	-0.354480	-1.245298	-0.354528
C21	C	-0.354494	-1.128521	-0.354538
C22	C	-0.354436	-1.518327	-0.546500
C23	C	-0.354414	-1.518353	-0.628299
C24	C	-0.815678	-1.585542	-0.307544
C25	C	-0.892536	-1.585589	-0.307561
C26	C	-0.892546	-1.451123	-0.401604
C27	C	-0.815689	-1.451082	-0.401589
C28	C	-0.777257	-1.518290	-0.354555
C29	C	-0.930973	-1.518378	-0.354587
C30	C	-1.014306	-1.518428	-0.354607
C31	C	-0.693918	-1.518241	-0.354536
C32	C	-0.162535	-1.518405	-0.354599
C33	C	-0.080736	-1.518465	-0.354621
C34	C	-0.354497	-1.792298	-0.354567
C35	C	-0.354501	-1.909075	-0.354575
C36	C	-0.401621	-0.963943	-0.401545
C37	C	-0.401620	-1.073667	-0.401525
C38	C	-0.307371	-1.073646	-0.307562
C39	C	-0.307377	-0.963924	-0.307579
C40	C	-0.456033	-0.963956	-0.455796
C41	C	-0.456032	-1.073680	-0.455776
C42	C	-0.307283	-1.585623	-0.893376
C43	C	-0.307303	-1.585610	-0.816517
C44	C	-0.401437	-1.451169	-0.816472
C45	C	-0.401421	-1.451188	-0.893329
C46	C	-0.354339	-1.518413	-0.931779
C47	C	-0.354376	-1.518382	-0.778063
C48	C	-0.354398	-1.518368	-0.694729
C49	C	-0.354318	-1.518428	-1.015118
C50	C	-0.354487	-1.518264	-0.163341
C51	C	-0.354302	-1.518442	-0.081543
H52	H	-0.784388	-1.640268	-0.269246
H53	H	-0.269015	-0.919255	-0.269323
H54	H	-0.923847	-1.396403	-0.439897
C55	C	-0.774063	-1.378121	-0.452753
C56	C	-0.792705	-1.400925	-0.525585
C57	C	-0.754381	-1.333734	-0.572736
H58	H	-0.722774	-1.387659	-0.446109
H59	H	-0.786721	-1.307528	-0.441983
H60	H	-0.780042	-1.471502	-0.536351
H61	H	-0.843987	-1.391381	-0.532252
H62	H	-0.767039	-1.263140	-0.561966
H63	H	-0.703095	-1.343277	-0.566085
H64	H	-0.767030	-1.349190	-0.622157
H65	H	-0.269005	-1.118317	-0.269300
C66	C	-0.452541	-1.378097	-0.934897
C67	C	-0.493759	-1.319194	-0.884776
C68	C	-0.540851	-1.251849	-0.923042
H69	H	-0.484663	-1.418159	-0.964876
H70	H	-0.424399	-1.332290	-0.964869
H71	H	-0.521899	-1.364995	-0.854818
H72	H	-0.461656	-1.279110	-0.854796
H73	H	-0.512709	-1.206042	-0.953013
H74	H	-0.572968	-1.291920	-0.953019
H75	H	-0.568818	-1.211869	-0.889041
C76	C	-0.934383	-1.658635	-0.256648
C77	C	-1.009918	-1.644345	-0.266762
C78	C	-1.048489	-1.711662	-0.219902
H79	H	-0.921949	-1.643429	-0.207141
H80	H	-0.921751	-1.729207	-0.267517
H81	H	-1.022545	-1.573789	-0.255888
H82	H	-1.022373	-1.659558	-0.316259
H83	H	-1.035857	-1.782234	-0.230771
H84	H	-1.036050	-1.696451	-0.170399
H85	H	-1.099743	-1.701983	-0.226763
C86	C	-0.532045	-0.924389	-0.435260
C87	C	-0.578536	-1.009880	-0.422682
C88	C	-0.648557	-0.973471	-0.403753
H89	H	-0.551129	-0.883073	-0.474204
H90	H	-0.528923	-0.883027	-0.391997
H91	H	-0.581660	-1.051224	-0.465940
H92	H	-0.559475	-1.051204	-0.383736
H93	H	-0.645436	-0.932109	-0.360490
H94	H	-0.667634	-0.932155	-0.442699
H95	H	-0.680108	-1.031470	-0.395210
C96	C	-0.429042	-0.918699	-0.528112
C97	C	-0.474730	-0.952736	-0.585116
C98	C	-0.449892	-0.911055	-0.651740
H99	H	-0.380249	-0.941694	-0.537080
H100	H	-0.430008	-0.844332	-0.525673
H101	H	-0.473756	-1.027087	-0.587556
H102	H	-0.523525	-0.929742	-0.576172
H103	H	-0.450858	-0.836688	-0.649301
H104	H	-0.401098	-0.934054	-0.660701
H105	H	-0.480891	-0.934136	-0.690424
C106	C	-0.435912	-1.113533	-0.531824
C107	C	-0.493555	-1.174415	-0.559457
C108	C	-0.475048	-1.211135	-0.629509
H109	H	-0.392685	-1.154986	-0.528879
H110	H	-0.427496	-1.055682	-0.563550
H111	H	-0.501961	-1.232257	-0.527739
H112	H	-0.536787	-1.132985	-0.562421
H113	H	-0.466632	-1.153285	-0.661235
H114	H	-0.431821	-1.252584	-0.626557
H115	H	-0.514158	-1.252439	-0.648270
C116	C	-0.256145	-1.658730	-0.934989
C117	C	-0.214955	-1.717607	-0.884903
C118	C	-0.167846	-1.784978	-0.923208
H119	H	-0.224007	-1.618688	-0.964980
H120	H	-0.284274	-1.704552	-0.964952
H121	H	-0.186827	-1.671790	-0.854953
H122	H	-0.247073	-1.757670	-0.854911
H123	H	-0.195976	-1.830800	-0.953170
H124	H	-0.135713	-1.744927	-0.953197
H125	H	-0.139898	-1.824940	-0.889230
C126	C	-0.256280	-1.658523	-0.774689
C127	C	-0.266378	-1.644138	-0.699150
C128	C	-0.219389	-1.711294	-0.660596
H129	H	-0.206804	-1.643230	-0.787215
H130	H	-0.267041	-1.729138	-0.787243
H131	H	-0.255612	-1.573539	-0.686601
H132	H	-0.315844	-1.659439	-0.686602
H133	H	-0.230150	-1.781909	-0.673151
H134	H	-0.169917	-1.695994	-0.673128
H135	H	-0.226239	-1.701549	-0.609339
H136	H	-0.510150	-1.107662	-0.435258
H137	H	-0.439768	-1.396435	-0.785156
