data_functionalizedCrystal
_audit_creation_method	'MofGen! by Chris Wilmer'
_symmetry_space_group_name_H-M	'P1'
_symmetry_Int_Tables_number	1
_symmetry_cell_setting	triclinic
loop_
_symmetry_equiv_pos_as_xyz
  x,y,z
_cell_length_a	19.077312
_cell_length_b	29.839131
_cell_length_c	19.076919
_cell_angle_alpha	87.739939
_cell_angle_beta	85.331053
_cell_angle_gamma	87.741726
loop_
_atom_site_label
_atom_site_type_symbol
_atom_site_fract_x
_atom_site_fract_y
_atom_site_fract_z
Zn1	Zn	1.061590	-0.215151	0.355208
Zn2	Zn	1.066224	-0.287374	0.237306
Zn3	Zn	0.948449	-0.209366	0.242077
Zn4	Zn	0.943656	-0.287355	0.359889
O5	O	1.004980	-0.249811	0.298620
O6	O	1.160850	-0.227160	0.335612
O7	O	1.054546	-0.274612	0.139292
O8	O	0.963524	-0.147268	0.257122
O9	O	1.164254	-0.280222	0.248990
O10	O	1.046648	-0.151519	0.340238
O11	O	0.968018	-0.217300	0.142797
O12	O	0.849168	-0.217282	0.261661
O13	O	0.955354	-0.280190	0.457915
O14	O	0.845646	-0.274581	0.348217
O15	O	1.042000	-0.227142	0.454476
O16	O	1.049898	-0.350236	0.253529
O17	O	0.959848	-0.350222	0.343591
C18	C	0.821829	-0.245302	0.305965
C19	C	0.743476	-0.243384	0.309124
C20	C	1.004874	-0.366530	0.298565
C21	C	1.004893	-0.416465	0.298562
C22	C	0.302240	-0.229593	0.331787
C23	C	0.375861	-0.231403	0.328815
C24	C	0.414439	-0.259886	0.282157
C25	C	0.379391	-0.286563	0.238473
C26	C	0.305771	-0.284755	0.241449
C27	C	0.634808	-0.268253	0.268416
C28	C	0.708434	-0.270059	0.265441
C29	C	0.704899	-0.214899	0.355785
C30	C	0.631278	-0.213091	0.358754
C31	C	0.596236	-0.239770	0.315073
N32	N	0.489691	-0.261736	0.279116
N33	N	0.520985	-0.237922	0.318117
C34	C	1.048250	-0.728291	0.341963
C35	C	1.048325	-0.915967	0.342003
O36	O	1.085085	-0.942085	0.378864
N37	N	1.005096	-0.937258	0.298693
C38	C	0.961842	-0.911627	0.255375
O39	O	0.925070	-0.934043	0.218543
C40	C	0.961764	-0.723952	0.255339
C41	C	1.005001	-0.702664	0.298646
C42	C	1.091482	-0.707003	0.385267
C43	C	1.091466	-0.660086	0.385254
C44	C	1.048217	-0.634459	0.341937
C45	C	1.004985	-0.655747	0.298633
C46	C	0.918508	-0.698322	0.212025
C47	C	0.918491	-0.651400	0.212021
C48	C	0.961727	-0.630112	0.255328
C49	C	0.961720	-0.583204	0.255303
N50	N	1.004948	-0.561913	0.298613
C51	C	1.048197	-0.587540	0.341930
C52	C	0.961887	-1.010159	0.255395
C53	C	0.961908	-1.057078	0.255403
C54	C	1.048389	-1.061415	0.342032
C55	C	1.048372	-1.014495	0.342020
C56	C	1.005116	-0.988868	0.298704
C57	C	1.048160	-0.489013	0.341898
C58	C	1.048142	-0.442092	0.341879
C59	C	0.961658	-0.437759	0.255253
C60	C	0.961678	-0.484676	0.255269
C61	C	1.004931	-0.510302	0.298597
O62	O	0.924973	-0.557058	0.218467
O63	O	1.084952	-0.565116	0.378767
C64	C	1.048266	-0.775207	0.341977
C65	C	1.005034	-0.796496	0.298673
C66	C	0.961785	-0.770868	0.255355
C67	C	1.005054	-0.843415	0.298680
C68	C	1.048303	-0.869042	0.341997
C69	C	1.091531	-0.847751	0.385307
C70	C	1.091515	-0.800835	0.385294
C71	C	0.918556	-0.792159	0.212046
C72	C	0.918577	-0.839076	0.212062
C73	C	0.961826	-0.864703	0.255379
C74	C	1.188845	-0.254338	0.291247
C75	C	1.267197	-0.256268	0.288105
C76	C	0.997625	-0.254309	0.482489
C77	C	0.994492	-0.256226	0.560842
C78	C	1.005104	-0.132638	0.298690
C79	C	1.005157	-0.082705	0.298720
C80	C	1.012346	-0.245299	0.115465
C81	C	1.015616	-0.243259	0.037106
C82	C	1.038129	-0.229509	0.595864
C83	C	1.035176	-0.231308	0.669486
C84	C	0.988588	-0.259827	0.708085
C85	C	0.944946	-0.286546	0.673059
C86	C	0.947896	-0.284744	0.599438
C87	C	0.974924	-0.268176	0.928459
C88	C	0.971979	-0.269977	1.002085
C89	C	1.062208	-0.214738	0.998507
C90	C	1.065157	-0.212940	0.924885
C91	C	1.021512	-0.239657	0.889865
N92	N	0.985570	-0.261668	0.783339
N93	N	1.024527	-0.237814	0.814613
H94	H	0.404390	-0.209684	0.364388
H95	H	0.277240	-0.306477	0.205879
O96	O	1.110428	-0.185196	0.887500
C97	C	1.148324	-0.162007	0.934198
H98	H	1.117350	-0.161024	0.987835
H99	H	1.156734	-0.126278	0.912646
H100	H	1.201530	-0.179969	0.939875
H101	H	1.083353	-0.424761	0.377145
H102	H	1.083605	-1.082289	0.377302
O103	O	0.919969	-0.985220	0.213273
C104	C	0.961948	-0.957956	0.166146
H105	H	1.014347	-0.952804	0.188911
H106	H	0.933603	-0.924047	0.157813
H107	H	0.971839	-0.974968	0.113606
H108	H	1.097740	-0.192986	1.027028
H109	H	1.126749	-0.868625	0.420574
H110	H	0.926708	-1.074407	0.220130
O111	O	0.593913	-0.185413	0.404141
C112	C	0.640630	-0.162248	0.442046
H113	H	0.692997	-0.181999	0.442313
H114	H	0.617157	-0.158347	0.498460
H115	H	0.649515	-0.127667	0.416018
H116	H	0.934040	-0.293202	1.033511
O117	O	1.133482	-0.639482	0.427393
C118	C	1.171665	-0.672170	0.465610
H119	H	1.142701	-0.704978	0.469184
H120	H	1.176913	-0.660138	0.520858
H121	H	1.226257	-0.677826	0.437693
H122	H	1.076067	-0.206287	0.564441
O123	O	0.876570	-0.626460	0.169903
C124	C	0.918546	-0.599197	0.122770
H125	H	0.970949	-0.594048	0.145528
H126	H	0.890202	-0.565288	0.114441
H127	H	0.928428	-0.616210	0.070230
H128	H	0.883370	-0.856404	0.176790
H129	H	0.907011	-0.309765	0.704492
O130	O	1.077638	-0.205341	0.703394
C131	C	1.119381	-0.179777	0.653539
H132	H	1.123903	-0.196955	0.600951
H133	H	1.174075	-0.176876	0.672590
H134	H	1.093922	-0.144830	0.646761
H135	H	0.939396	-0.289937	0.899955
O136	O	1.133396	-0.731912	0.427426
C137	C	1.091432	-0.759196	0.474537
H138	H	1.035726	-0.743835	0.481073
H139	H	1.114719	-0.761641	0.527785
H140	H	1.089917	-0.794173	0.452848
H141	H	0.926447	-0.416886	0.219982
O142	O	1.090238	-0.513834	0.384009
C143	C	1.128372	-0.484975	0.422238
H144	H	1.131977	-0.450896	0.393250
H145	H	1.183610	-0.500044	0.427587
H146	H	1.100368	-0.480649	0.476788
O147	O	1.090386	-0.993889	0.384159
C148	C	1.128573	-1.026576	0.422376
H149	H	1.099614	-1.059385	0.425948
H150	H	1.133818	-1.014544	0.477625
H151	H	1.183166	-1.032228	0.394459
O152	O	0.905489	-0.310748	0.565525
C153	C	0.863729	-0.336302	0.615379
H154	H	0.890495	-0.339847	0.666704
H155	H	0.857035	-0.370993	0.594389
H156	H	0.809891	-0.318729	0.625357
O157	O	0.876446	-0.767317	0.170000
C158	C	0.805565	-0.777457	0.188177
H159	H	0.803011	-0.812137	0.215352
H160	H	0.776040	-0.777085	0.138538
H161	H	0.780327	-0.751349	0.225337
O162	O	0.264876	-0.201915	0.377175
C163	C	0.311597	-0.178753	0.415081
H164	H	0.363963	-0.198504	0.415340
H165	H	0.288127	-0.174856	0.471497
H166	H	0.320478	-0.144170	0.389059
H167	H	0.733438	-0.193179	0.391349
O168	O	1.133590	-0.780138	0.427263
C169	C	1.180740	-0.753117	0.385342
H170	H	1.187366	-0.766019	0.329649
H171	H	1.233946	-0.754509	0.408710
H172	H	1.159036	-0.716974	0.383769
O173	O	0.745801	-0.297771	0.220103
C174	C	0.699087	-0.320925	0.182176
H175	H	0.645459	-0.321927	0.213163
H176	H	0.720630	-0.356649	0.173697
H177	H	0.693397	-0.302924	0.129001
H178	H	0.926478	-0.502010	0.219999
O179	O	0.600743	-0.294217	0.226083
C180	C	0.556533	-0.323204	0.267846
H181	H	0.576511	-0.327936	0.322462
H182	H	0.556690	-0.357104	0.242277
H183	H	0.500649	-0.308012	0.272568
H184	H	0.410806	-0.309756	0.200485
O185	O	0.876438	-0.718922	0.169939
C186	C	0.838277	-0.686233	0.131702
H187	H	0.834658	-0.653427	0.160672
H188	H	0.783045	-0.698266	0.126373
H189	H	0.866267	-0.680573	0.077144
