data_functionalizedCrystal
_audit_creation_method	'MofGen! by Chris Wilmer'
_symmetry_space_group_name_H-M	'P1'
_symmetry_Int_Tables_number	1
_symmetry_cell_setting	triclinic
loop_
_symmetry_equiv_pos_as_xyz
  x,y,z
_cell_length_a	14.853567
_cell_length_b	8.559649
_cell_length_c	7.088929
_cell_angle_alpha	84.674985
_cell_angle_beta	83.771294
_cell_angle_gamma	103.293203
loop_
_atom_site_label
_atom_site_type_symbol
_atom_site_fract_x
_atom_site_fract_y
_atom_site_fract_z
O1	O	-0.020180	-2.103683	-0.158959
O2	O	0.026373	-1.638582	-0.158964
O3	O	-0.129002	-1.883556	-0.158967
O4	O	0.135195	-1.858710	-0.158956
O5	O	-0.149808	-1.916294	0.159008
O6	O	0.005566	-1.671320	0.159011
O7	O	-0.040986	-2.136422	0.159016
Cu8	Cu	-0.019609	-1.906860	0.188047
Cu9	Cu	0.004996	-1.868144	-0.187995
O10	O	0.114389	-1.891448	0.159019
C11	C	0.019497	-1.595429	0.000023
C12	C	0.029999	-1.418072	0.000021
C13	C	-0.172915	-1.898798	0.000015
C14	C	-0.272761	-1.895423	-0.000002
C15	C	-0.034110	-2.179574	0.000025
C16	C	-0.044611	-2.356930	0.000015
C17	C	-0.674122	-1.735645	0.000033
C18	C	-0.715759	-2.026680	0.000036
C19	C	-0.621946	-2.029851	0.000024
C20	C	-0.554217	-1.885917	0.000020
C21	C	-0.580300	-1.738813	0.000028
C22	C	-0.595857	-2.176955	0.000037
C23	C	-0.502039	-2.180133	0.000027
C24	C	-0.434307	-2.036196	0.000010
C25	C	-0.460395	-1.889085	0.000015
C26	C	-0.392666	-1.745151	0.000011
C27	C	-0.418751	-1.598037	0.000002
C28	C	-0.512568	-1.594876	0.000010
C29	C	-0.340490	-2.039357	0.000002
C30	C	-0.298844	-1.748318	0.000005
C31	C	0.158302	-1.876205	0.000033
C32	C	0.258149	-1.879579	0.000037
N33	N	-0.036917	-1.934103	0.452535
N34	N	0.022296	-1.840913	-0.452483
H35	H	-0.363595	-1.480848	0.000012
H36	H	-0.243703	-1.631107	-0.000006
H37	H	0.101914	-1.334725	0.000013
H38	H	0.083658	-1.744333	0.465873
C39	C	-0.747494	-2.314673	0.000032
C40	C	-0.790203	-2.184888	0.000041
H41	H	-0.793458	-2.412347	0.000044
H42	H	-0.702787	-2.298437	-0.110850
H43	H	-0.717285	-2.321267	0.110920
H44	H	-0.820406	-2.178286	-0.110854
H45	H	-0.834926	-2.201127	0.110936
H46	H	-0.098278	-2.030702	0.534189
H47	H	-0.533816	-1.475103	0.000005
C48	C	-0.141692	-1.549562	-0.163442
C49	C	-0.141691	-1.469425	0.000012
H50	H	-0.201625	-1.619026	-0.163434
H51	H	-0.127173	-1.472357	-0.274306
H52	H	-0.096288	-1.611674	-0.163419
H53	H	-0.187091	-1.407304	-0.000018
H54	H	-0.156221	-1.546641	0.110905
H55	H	-0.651009	-2.294140	0.000058
C56	C	-0.497963	-2.412338	-0.163446
C57	C	-0.473368	-2.341832	0.000014
H58	H	-0.480255	-2.512159	-0.163461
H59	H	-0.563522	-2.431046	-0.163418
H60	H	-0.466776	-2.341631	-0.274318
H61	H	-0.504560	-2.412534	0.110887
H62	H	-0.407796	-2.323130	0.000003
C63	C	-0.744771	-1.546410	-0.163431
C64	C	-0.702793	-1.573945	0.000027
H65	H	-0.762477	-1.446587	-0.163424
H66	H	-0.701782	-1.542275	-0.274292
H67	H	-0.798533	-1.631685	-0.163411
H68	H	-0.649027	-1.488676	-0.000000
H69	H	-0.745785	-1.578068	0.110917
H70	H	-0.319257	-2.159136	0.000022
