data_functionalizedCrystal
_audit_creation_method	'MofGen! by Chris Wilmer'
_symmetry_space_group_name_H-M	'P1'
_symmetry_Int_Tables_number	1
_symmetry_cell_setting	triclinic
loop_
_symmetry_equiv_pos_as_xyz
  x,y,z
_cell_length_a	27.440280
_cell_length_b	23.196402
_cell_length_c	23.196402
_cell_angle_alpha	90.003332
_cell_angle_beta	60.004222
_cell_angle_gamma	60.002021
loop_
_atom_site_label
_atom_site_type_symbol
_atom_site_fract_x
_atom_site_fract_y
_atom_site_fract_z
Zr1	Zr	0.533377	-0.075658	0.555448
O2	O	0.635039	-0.167705	0.463404
O3	O	0.431715	-0.047441	0.583654
O4	O	0.533375	-0.167709	0.583659
O5	O	0.533380	0.047432	0.463407
O6	O	0.533373	-0.167711	0.678531
O7	O	0.533379	-0.047437	0.463398
O8	O	0.351522	0.047425	0.678522
O9	O	0.715232	-0.167703	0.463416
O10	O	0.473528	-0.035408	0.666498
O11	O	0.473531	0.035394	0.595702
O12	O	0.593222	-0.106205	0.595709
O13	O	0.593225	-0.035403	0.524913
Zr14	Zr	0.533375	0.075646	0.706771
Zr15	Zr	0.533373	-0.075661	0.706758
Zr16	Zr	0.533379	0.075649	0.555461
Zr17	Zr	0.661274	-0.075656	0.555468
Zr18	Zr	0.405478	0.075644	0.706751
O19	O	0.635037	0.047429	0.678565
O20	O	0.635034	-0.167709	0.678547
O21	O	0.635042	0.047434	0.463422
O22	O	0.431713	0.167692	0.798815
O23	O	0.431710	-0.047446	0.798797
O24	O	0.431718	0.167697	0.583672
O25	O	0.533372	-0.047445	0.798812
O26	O	0.533377	0.167696	0.678560
O27	O	0.533379	0.167698	0.583688
O28	O	0.533373	0.047425	0.798820
O29	O	0.715229	-0.167706	0.583687
O30	O	0.351523	0.167694	0.678532
O31	O	0.351521	0.167691	0.798803
O32	O	0.351519	0.047423	0.798793
O33	O	0.715233	-0.047435	0.463426
O34	O	0.715230	-0.047438	0.583697
O35	O	0.473530	0.106193	0.666510
O36	O	0.473527	0.035391	0.737306
O37	O	0.593222	-0.035406	0.666516
O38	O	0.593224	0.035396	0.595721
C39	C	0.373396	-0.000008	0.631085
C40	C	0.319100	-0.000009	0.631077
C41	C	0.533380	-0.000002	0.441844
C42	C	0.533382	-0.000001	0.377609
C43	C	0.533379	0.189255	0.631125
C44	C	0.533379	0.253489	0.631131
C45	C	-0.017644	-0.036958	0.668084
C46	C	-0.068668	-0.036956	0.668090
O47	O	-0.095075	-0.068365	0.699540
N48	N	-0.094182	0.000001	0.631135
C49	C	-0.068676	0.036963	0.594177
O50	O	-0.095064	0.068398	0.562744
C51	C	-0.017656	0.036965	0.594175
C52	C	0.007861	0.000000	0.631127
C53	C	0.007873	-0.073919	0.705033
C54	C	0.058894	-0.073922	0.705026
C55	C	0.084399	-0.036963	0.668068
C56	C	0.058882	-0.000002	0.631119
C57	C	0.007846	0.073932	0.557221
C58	C	0.058869	0.073931	0.557223
C59	C	0.084386	0.036966	0.594175
C60	C	0.135408	0.036953	0.594154
N61	N	0.160923	-0.000003	0.631109
C62	C	0.135418	-0.036962	0.668067
C63	C	-0.175821	0.036958	0.594184
C64	C	-0.226836	0.036952	0.594182
C65	C	-0.226825	-0.036966	0.668096
C66	C	-0.175806	-0.036964	0.668095
C67	C	-0.150306	0.000001	0.631140
C68	C	0.242567	-0.036965	0.668047
C69	C	0.293595	-0.036967	0.668034
C70	C	0.293577	0.036954	0.594122
C71	C	0.242556	0.036953	0.594132
C72	C	0.217051	-0.000008	0.631100
O73	O	0.161846	0.068349	0.562722
O74	O	0.161806	-0.068384	0.699501
C75	C	0.693357	-0.000004	0.631134
C76	C	0.747652	-0.000003	0.631142
C77	C	0.533374	-0.189268	0.631093
C78	C	0.533373	-0.253501	0.631088
C79	C	0.595856	0.246709	0.594183
C80	C	0.595857	0.307063	0.594172
C81	C	0.533378	0.374197	0.631124
C82	C	0.470892	0.380975	0.668074
C83	C	0.470893	0.320621	0.668077
C84	C	0.485509	0.498132	0.693020
C85	C	0.485511	0.558484	0.693018
C86	C	0.533372	0.560351	0.631112
C87	C	0.581244	0.501853	0.569208
C88	C	0.581245	0.441498	0.569212
C89	C	0.533370	0.439645	0.631124
C90	C	0.595855	0.619011	0.594149
C91	C	0.595853	0.679368	0.594137
C92	C	0.470886	0.753280	0.668045
C93	C	0.470890	0.692923	0.668051
C94	C	0.533376	0.625792	0.631104
C95	C	0.533386	-0.052269	0.347432
C96	C	0.533380	-0.052269	0.287081
C97	C	0.533383	-0.000006	0.256901
C98	C	0.533375	0.052271	0.287087
C99	C	0.533374	0.052274	0.347441
C100	C	0.573540	0.016281	0.137534
C101	C	0.573545	0.016273	0.077178
C102	C	0.533382	-0.000009	0.070751
C103	C	0.493223	-0.016300	0.124681
C104	C	0.493222	-0.016298	0.185035
C105	C	0.533383	-0.000002	0.191457
C106	C	0.533379	-0.052280	-0.024865
C107	C	0.533368	-0.052276	-0.085215
C108	C	0.533370	0.052262	-0.085212
C109	C	0.533374	0.052260	-0.024859
C110	C	0.533381	-0.000015	0.005309
C111	C	0.533372	-0.000010	0.820375
C112	C	0.533371	-0.000012	0.884610
C113	C	0.373391	-0.000012	0.820350
C114	C	0.319094	-0.000015	0.884577
C115	C	0.373398	0.189253	0.631101
C116	C	0.319103	0.253486	0.631098
C117	C	0.373394	0.189249	0.820366
C118	C	0.319097	0.253481	0.884599
C119	C	0.693358	-0.189261	0.441852
C120	C	0.747655	-0.253493	0.377620
C121	C	0.693361	0.000000	0.441869
C122	C	0.747658	0.000002	0.377642
C123	C	0.693354	-0.189265	0.631118
C124	C	0.747649	-0.253498	0.631121
C125	C	0.293596	-0.036978	0.877778
C126	C	0.242585	-0.036994	0.938120
C127	C	0.217070	-0.000042	1.005260
C128	C	0.242573	0.036922	1.012058
C129	C	0.293586	0.036934	0.951717
C130	C	0.293605	0.320613	0.668058
C131	C	0.242596	0.380972	0.668052
C132	C	0.217083	0.374203	0.631091
C133	C	0.242586	0.307069	0.594127
C134	C	0.293597	0.246711	0.594129
C135	C	0.293598	0.246686	0.951724
C136	C	0.242588	0.307033	1.012082
C137	C	0.217074	0.374173	1.005314
C138	C	0.242579	0.380966	0.938182
C139	C	0.293592	0.320620	0.877825
C140	C	0.773160	-0.246699	0.310495
C141	C	0.824186	-0.307045	0.250137
C142	C	0.849702	-0.374185	0.256905
C143	C	0.824195	-0.380978	0.324037
C144	C	0.773173	-0.320632	0.384394
C145	C	0.773162	0.036960	0.384441
C146	C	0.824187	0.036959	0.324099
C147	C	0.849704	0.000005	0.256959
C148	C	0.824198	-0.036957	0.250161
C149	C	0.773177	-0.036960	0.310502
C150	C	0.773147	-0.246706	0.668089
C151	C	0.824156	-0.307054	0.668106
C152	C	0.849670	-0.374193	0.631149
C153	C	0.824168	-0.380984	0.594179
C154	C	0.773156	-0.320636	0.594168
H155	H	0.221806	-0.067061	0.698151
N156	N	0.904694	-0.439272	0.631167
H157	H	0.947034	-0.468322	0.581120
H158	H	0.886886	-0.468272	0.652231
H159	H	0.752407	-0.326172	0.439049
N160	N	0.745646	0.076820	0.456852
H161	H	0.769554	0.100226	0.451993
H162	H	0.754523	0.042882	0.483501
H163	H	0.620218	0.503369	0.518798
H164	H	0.752414	-0.067053	0.304956
H165	H	0.314363	0.192023	0.957248
N166	N	0.533391	-0.108645	0.254511
H167	H	0.490906	-0.106375	0.290134
H168	H	0.575913	-0.156595	0.239875
H169	H	0.646735	0.564349	0.564062
H170	H	0.752402	-0.326176	0.564060
H171	H	0.221827	0.301490	1.066739
H172	H	0.221805	0.301568	0.564034
H173	H	0.221838	0.435630	0.698156
H174	H	0.844945	0.067061	0.329648
H175	H	0.175546	0.423356	0.631096
H176	H	0.221826	-0.067095	0.932571
N177	N	0.851654	-0.299721	0.707983
H178	H	0.827752	-0.248031	0.731385
H179	H	0.902867	-0.323152	0.674060
N180	N	0.904733	0.000012	0.191879
H181	H	0.917013	0.029035	0.206381
H182	H	0.886942	0.021031	0.162855
H183	H	0.752381	-0.192044	0.698183
N184	N	0.851691	-0.453399	0.554318
H185	H	0.842813	-0.480086	0.588214
H186	H	0.902895	-0.480020	0.517140
N187	N	0.215044	0.076787	1.084474
H188	H	0.253957	0.057411	1.090147
H189	H	0.178846	0.071160	1.121621
H190	H	0.891247	-0.423317	0.207752
H191	H	0.314351	0.192056	0.564034
N192	N	0.851712	-0.076799	0.177743
H193	H	0.887896	-0.071177	0.140554
H194	H	0.812744	-0.057380	0.172155
N195	N	0.162040	0.439255	1.070419
H196	H	0.149740	0.482823	1.055951
H197	H	0.179832	0.439217	1.099447
N198	N	0.162049	-0.000059	1.070340
H199	H	0.149770	-0.029084	1.055838
H200	H	0.119748	0.050011	1.099362
N201	N	0.616871	0.033835	0.144453
H202	H	0.586119	0.076661	0.187684
H203	H	0.642309	0.044108	0.101095
H204	H	0.314371	-0.067071	0.698124
N205	N	0.321089	0.327947	0.805424
H206	H	0.342254	0.354611	0.799774
H207	H	0.282126	0.354593	0.799826
N208	N	0.215057	0.453381	0.930884
H209	H	0.223933	0.480068	0.954284
H210	H	0.163853	0.480002	0.954271
N211	N	0.086411	-0.113789	0.744883
H212	H	0.062505	-0.137197	0.768294
H213	H	0.077537	-0.079857	0.782037
H214	H	-0.012890	-0.104014	0.735131
N215	N	0.745643	-0.174288	0.303185
H216	H	0.769551	-0.179152	0.251499
H217	H	0.754516	-0.147635	0.326625
N218	N	0.851718	-0.453395	0.331331
H219	H	0.887907	-0.490587	0.282906
H220	H	0.812759	-0.458992	0.358005
N221	N	0.663245	0.672052	0.554284
H222	H	0.666022	0.695456	0.588183
H223	H	0.665996	0.695426	0.517087
N224	N	0.851690	-0.299716	0.177734
H225	H	0.872845	-0.273043	0.172091
H226	H	0.812733	-0.273081	0.172126
N227	N	-0.148291	-0.076831	0.707954
H228	H	-0.157166	-0.042939	0.745146
H229	H	-0.097089	-0.114021	0.674011
N230	N	-0.254338	-0.076830	0.707959
H231	H	-0.290532	-0.071217	0.702352
H232	H	-0.275463	-0.057426	0.759641
H233	H	-0.155057	0.067056	0.564084
N234	N	-0.254350	0.076815	0.554320
H235	H	-0.230447	0.100226	0.530910
H236	H	-0.305561	0.113971	0.588258
N237	N	0.321083	0.076807	0.959056
H238	H	0.297174	0.100213	1.010747
H239	H	0.312199	0.113968	0.935634
H240	H	0.420014	0.698448	0.698142
N241	N	-0.019677	0.113812	0.517376
H242	H	0.004223	0.137228	0.493975
H243	H	-0.070888	0.150965	0.551322
H244	H	0.079629	0.104032	0.527128
H245	H	0.221787	0.067043	0.564034
H246	H	0.533370	0.094838	0.372012
H247	H	0.620222	0.393871	0.518807
H248	H	0.314370	-0.067078	0.823114
N249	N	0.533385	0.108627	0.007682
H250	H	0.533385	0.100698	0.050494
H251	H	0.490896	0.156584	0.022264
N252	N	0.321086	0.076819	0.554265
H253	H	0.372297	0.042927	0.517074
H254	H	0.312162	0.114004	0.588214
N255	N	0.663260	0.174313	0.554347
H256	H	0.690591	0.168647	0.502646
H257	H	0.653743	0.137137	0.560007
N258	N	0.663246	0.299759	0.554318
H259	H	0.702830	0.248073	0.530913
H260	H	0.665960	0.323198	0.588257
H261	H	0.460521	-0.029563	0.119450
N262	N	0.403495	0.825682	0.707895
H263	H	0.412974	0.862888	0.702285
H264	H	0.376208	0.831277	0.759579
H265	H	0.446534	0.606109	0.743425
H266	H	0.446527	0.496625	0.743433
H267	H	0.420015	0.326147	0.698166
N268	N	0.403502	0.453380	0.707932
H269	H	0.412981	0.490587	0.702327
H270	H	0.376220	0.458968	0.759613
H271	H	0.533390	-0.094832	0.371995
N272	N	0.449912	-0.033866	0.243201
H273	H	0.424468	-0.044184	0.229976
H274	H	0.415614	0.007526	0.288528
H275	H	0.533382	-0.094844	-0.000300
N276	N	0.533367	-0.108649	-0.117762
H277	H	0.533373	-0.141763	-0.089491
H278	H	0.575856	-0.136056	-0.167935
N279	N	0.533366	0.108637	-0.117750
H280	H	0.533365	0.100707	-0.160562
H281	H	0.575856	0.106331	-0.132331
H282	H	0.606248	0.029534	0.033270
N283	N	0.321115	0.327924	0.707928
H284	H	0.297218	0.379612	0.731335
H285	H	0.372329	0.304491	0.673998
H286	H	0.533376	0.094826	0.262512
