data_functionalizedCrystal
_audit_creation_method	'MofGen! by Chris Wilmer'
_symmetry_space_group_name_H-M	'P1'
_symmetry_Int_Tables_number	1
_symmetry_cell_setting	triclinic
loop_
_symmetry_equiv_pos_as_xyz
  x,y,z
_cell_length_a	27.440280
_cell_length_b	27.440280
_cell_length_c	12.478026
_cell_angle_alpha	63.140138
_cell_angle_beta	95.301839
_cell_angle_gamma	60.007024
loop_
_atom_site_label
_atom_site_type_symbol
_atom_site_fract_x
_atom_site_fract_y
_atom_site_fract_z
Zr1	Zr	0.463649	0.533357	-0.141218
O2	O	0.378627	0.635033	-0.313116
O3	O	0.489704	0.431689	-0.088508
O4	O	0.480289	0.533355	-0.313068
O5	O	0.395479	0.533365	0.088566
O6	O	0.560493	0.533346	-0.313046
O7	O	0.388042	0.533366	-0.088556
O8	O	0.577334	0.351483	0.088651
O9	O	0.378638	0.715229	-0.313131
O10	O	0.560682	0.473497	-0.066028
O11	O	0.506378	0.473503	0.066139
O12	O	0.495293	0.593203	-0.198251
O13	O	0.440989	0.593209	-0.066084
Zr14	Zr	0.603427	0.533341	0.141306
Zr15	Zr	0.591565	0.533342	-0.141182
Zr16	Zr	0.475511	0.533356	0.141271
Zr17	Zr	0.463667	0.661260	-0.141242
Zr18	Zr	0.603409	0.405438	0.141331
O19	O	0.577373	0.635010	0.088596
O20	O	0.560507	0.635012	-0.313065
O21	O	0.395493	0.635031	0.088546
O22	O	0.688449	0.431665	0.313204
O23	O	0.671583	0.431667	-0.088458
O24	O	0.506570	0.431687	0.313154
O25	O	0.671597	0.533333	-0.088477
O26	O	0.586787	0.533343	0.313156
O27	O	0.506584	0.533352	0.313134
O28	O	0.679035	0.533332	0.088644
O29	O	0.480314	0.715217	-0.313103
O30	O	0.586762	0.351481	0.313192
O31	O	0.688438	0.351470	0.313220
O32	O	0.679010	0.351471	0.088679
O33	O	0.388067	0.715228	-0.088591
O34	O	0.489743	0.715216	-0.088563
O35	O	0.571783	0.473496	0.198340
O36	O	0.626088	0.473489	0.066173
O37	O	0.560699	0.593195	-0.066051
O38	O	0.506394	0.593202	0.066116
C39	C	0.533516	0.373362	0.000075
C40	C	0.533509	0.319064	0.000086
C41	C	0.373535	0.533368	-0.000000
C42	C	0.319232	0.533374	-0.000015
C43	C	0.581820	0.040175	0.097648
C44	C	0.581815	0.091197	0.097653
O45	O	0.622879	0.080015	0.180631
N46	N	0.533533	0.160894	0.000059
C47	C	0.485256	0.179569	-0.097554
O48	O	0.444188	0.243536	-0.180565
C49	C	0.485264	0.128547	-0.097563
C50	C	0.533546	0.058850	0.000045
C51	C	0.630099	-0.029518	0.195248
C52	C	0.630104	-0.080537	0.195244
C53	C	0.581829	-0.061862	0.097640
C54	C	0.533551	0.007832	0.000041
C55	C	0.436990	0.147222	-0.195181
C56	C	0.437002	0.096193	-0.195182
C57	C	0.485285	0.026497	-0.097574
C58	C	0.485281	-0.024511	-0.097566
N59	N	0.533563	-0.094208	0.000028
C60	C	0.581838	-0.112883	0.097631
C61	C	0.485243	0.286714	-0.097528
C62	C	0.485233	0.337735	-0.097514
C63	C	0.581792	0.249360	0.097692
C64	C	0.581801	0.198338	0.097683
C65	C	0.533526	0.217017	0.000066
C66	C	0.581843	-0.220022	0.097616
C67	C	0.581842	-0.271041	0.097606
C68	C	0.485284	-0.182661	-0.097603
C69	C	0.485283	-0.131647	-0.097590
C70	C	0.533568	-0.150332	0.000025
O71	O	0.444239	-0.013381	-0.180505
O72	O	0.622903	-0.176850	0.180618
C73	C	0.016670	0.470853	0.069100
C74	C	-0.034348	0.470849	0.069112
O75	O	-0.031705	0.417707	0.127850
N76	N	-0.093997	0.533333	0.000091
C77	C	-0.102627	0.595826	-0.068935
O78	O	-0.158048	0.648974	-0.127640
C79	C	-0.051609	0.595829	-0.068938
C80	C	0.008039	0.533340	0.000076
C81	C	0.076316	0.408369	0.138110
C82	C	0.127330	0.408373	0.138096
C83	C	0.118699	0.470861	0.069072
C84	C	0.059053	0.533344	0.000062
C85	C	-0.060240	0.658321	-0.137955
C86	C	-0.009216	0.658318	-0.137952
C87	C	0.050433	0.595830	-0.068938
C88	C	0.101436	0.595836	-0.068976
N89	N	0.161085	0.533351	0.000045
C90	C	0.169717	0.470864	0.069069
C91	C	-0.209765	0.595815	-0.068921
C92	C	-0.260783	0.595812	-0.068926
C93	C	-0.192499	0.470835	0.069122
C94	C	-0.141482	0.470838	0.069119
C95	C	-0.150116	0.533330	0.000100
C96	C	0.276848	0.470877	0.069033
C97	C	0.327863	0.470887	0.069009
C98	C	0.259576	0.595864	-0.069034
C99	C	0.208564	0.595854	-0.069015
C100	C	0.217205	0.533356	0.000028
O101	O	0.098841	0.648950	-0.127680
O102	O	0.225139	0.417725	0.127778
C103	C	0.693541	0.533330	0.000089
C104	C	0.747845	0.533324	0.000104
C105	C	0.518701	0.533351	-0.353305
C106	C	0.513665	0.533352	-0.473229
C107	C	0.533560	0.693336	0.000013
C108	C	0.533568	0.747634	0.000003
C109	C	0.548376	0.533347	0.353394
C110	C	0.553411	0.533347	0.473318
C111	C	0.693519	0.373343	0.000120
C112	C	0.747815	0.319039	0.000145
C113	C	0.548354	0.373360	0.353425
C114	C	0.553382	0.319062	0.473359
C115	C	0.708357	0.373342	0.353469
C116	C	0.767688	0.319037	0.473418
C117	C	0.358720	0.693357	-0.353381
C118	C	0.299388	0.747662	-0.473330
C119	C	0.373557	0.693355	-0.000031
C120	C	0.319261	0.747660	-0.000057
C121	C	0.518723	0.693338	-0.353336
C122	C	0.513695	0.747637	-0.473271
C123	C	0.739172	0.293541	-0.068862
C124	C	0.790183	0.242523	-0.068864
C125	C	0.849837	0.217001	0.000149
C126	C	0.858479	0.242504	0.069158
C127	C	0.807469	0.293524	0.069152
C128	C	0.589885	0.293558	0.598700
C129	C	0.594607	0.242546	0.711402
C130	C	0.562830	0.217034	0.698760
C131	C	0.526323	0.242543	0.573405
C132	C	0.521597	0.293558	0.460706
C133	C	0.823903	0.293531	0.460758
C134	C	0.879656	0.242513	0.573452
C135	C	0.879193	0.216997	0.698805
C136	C	0.822972	0.242508	0.711463
C137	C	0.767221	0.293529	0.598770
C138	C	0.243173	0.773174	-0.460669
C139	C	0.187421	0.824208	-0.573364
C140	C	0.187884	0.849726	-0.698717
C141	C	0.244104	0.824212	-0.711375
C142	C	0.299856	0.773182	-0.598682
C143	C	0.327904	0.773163	0.068939
C144	C	0.276892	0.824195	0.068910
C145	C	0.217238	0.849719	-0.000107
C146	C	0.208595	0.824214	-0.069111
C147	C	0.259607	0.773186	-0.069089
C148	C	0.545480	0.773132	-0.460586
C149	C	0.540767	0.824145	-0.573266
C150	C	0.504266	0.849665	-0.698629
C151	C	0.472480	0.824164	-0.711312
C152	C	0.477196	0.773149	-0.598633
H153	H	0.621160	-0.327792	0.177096
H154	H	0.475782	0.533352	-0.519211
F155	F	0.128542	0.904036	-0.818645
H156	H	0.621161	-0.235246	0.177104
H157	H	0.591296	0.533339	-0.480698
H158	H	0.244474	0.844995	-0.813451
F159	F	0.286103	0.851328	0.142361
H160	H	0.575202	0.752362	-0.358518
H161	H	0.783134	0.221765	-0.125059
F162	F	0.145079	0.662361	-0.142492
F163	F	0.391389	0.746009	0.142398
F164	F	0.633172	0.229492	0.201568
H165	H	0.283892	0.419985	0.125256
H166	H	0.621116	0.141590	0.177164
F167	F	0.816678	0.320652	0.142611
F168	F	0.675687	0.320696	-0.142324
F169	F	0.250399	0.746045	-0.142520
F170	F	0.904122	0.162699	0.000145
H171	H	0.345626	0.752411	-0.609006
F172	F	0.433908	-0.162797	-0.201470
F173	F	0.921973	0.215332	0.142605
H174	H	0.175706	0.891269	-0.000114
H175	H	0.615763	0.314324	0.609020
H176	H	0.500431	0.891205	-0.790369
F177	F	0.824410	0.320680	0.327358
F178	F	-0.123714	0.724831	-0.211402
F179	F	0.633466	0.215406	0.844801
F180	F	0.492507	0.215384	0.559970
H181	H	0.566684	0.175495	0.790537
F182	F	0.145102	0.851384	-0.142556
H183	H	0.491875	0.314316	0.358652
H184	H	0.442761	0.844950	-0.813398
H185	H	0.669421	-0.137284	0.274723
H186	H	0.925428	0.221747	0.563122
H187	H	0.924594	0.175453	0.790557
F188	F	0.822489	0.215346	0.844885
F189	F	0.250401	0.662364	-0.142475
F190	F	0.707395	0.320665	0.612265
F191	F	0.443359	0.746025	-0.612154
F192	F	0.574598	0.851278	-0.559741
H193	H	0.141649	0.844973	-0.563031
F194	F	0.681484	-0.049408	0.299140
H195	H	0.242785	0.752400	-0.358610
F196	F	0.391346	0.404375	0.142463
F197	F	0.433856	0.306604	-0.201424
F198	F	0.385600	0.221392	-0.299069
F199	F	0.385621	0.116080	-0.299085
F200	F	0.433893	-0.057468	-0.201466
F201	F	0.433838	0.411909	-0.201387
H202	H	0.175895	0.357488	0.194289
H203	H	0.083355	0.357481	0.194324
H204	H	-0.092916	0.419954	0.125328
H205	H	-0.185479	0.419954	0.125321
H206	H	-0.309348	0.646697	-0.125142
H207	H	-0.216804	0.646706	-0.125131
H208	H	-0.016252	0.709208	-0.194140
