data_functionalizedCrystal
_audit_creation_method	'MofGen! by Chris Wilmer'
_symmetry_space_group_name_H-M	'P1'
_symmetry_Int_Tables_number	1
_symmetry_cell_setting	triclinic
loop_
_symmetry_equiv_pos_as_xyz
  x,y,z
_cell_length_a	8.597226
_cell_length_b	11.804365
_cell_length_c	13.339070
_cell_angle_alpha	105.104719
_cell_angle_beta	100.340505
_cell_angle_gamma	70.460957
loop_
_atom_site_label
_atom_site_type_symbol
_atom_site_fract_x
_atom_site_fract_y
_atom_site_fract_z
O1	O	-2.224248	0.327293	-0.084920
O2	O	-1.761381	0.279798	-0.106233
O3	O	-1.939686	0.298067	0.051083
O4	O	-2.045943	0.309024	-0.242236
O5	O	-1.892726	0.095200	0.009709
O6	O	-1.714421	0.076931	-0.147608
O7	O	-2.177289	0.124426	-0.126294
Cu8	Cu	-1.941567	0.082155	-0.140729
Cu9	Cu	-1.997102	0.322069	-0.091799
O10	O	-1.998984	0.106157	-0.283611
C11	C	-1.677449	0.172161	-0.126936
C12	C	-1.497314	0.153676	-0.126968
N13	N	-1.902518	-0.086587	-0.175143
C14	C	-2.129922	-0.437236	0.025284
C15	C	-2.159458	-0.309548	0.051322
C16	C	-2.095225	-0.253801	-0.005292
C17	C	-2.001452	-0.325755	-0.087949
C18	C	-1.971923	-0.453455	-0.113995
C19	C	-1.937227	-0.270020	-0.144570
C20	C	-1.843453	-0.341974	-0.227227
C21	C	-1.813929	-0.469661	-0.253269
C22	C	-1.878162	-0.525408	-0.196655
C23	C	-1.966755	-0.142321	-0.118524
C24	C	-1.808757	-0.158540	-0.257803
C25	C	-1.779220	-0.286228	-0.283841
C26	C	-1.261219	0.232060	-0.105590
C27	C	-1.441349	0.250535	-0.105551
C28	C	-1.898258	0.194787	0.067882
C29	C	-1.844760	0.189285	0.179579
N30	N	-2.036160	0.490811	-0.057376
C31	C	-2.260696	0.231909	0.549044
C32	C	-2.310964	0.237072	0.444098
C33	C	-2.194417	0.225126	0.377963
C34	C	-2.027594	0.208015	0.416784
C35	C	-1.977319	0.202841	0.521738
C36	C	-1.911040	0.196059	0.350658
C37	C	-1.744217	0.178948	0.389479
C38	C	-1.693951	0.173776	0.494423
C39	C	-1.810498	0.185722	0.560557
C40	C	-1.961315	0.201233	0.245704
C41	C	-1.677938	0.172165	0.218398
C42	C	-1.627671	0.167002	0.323344
C43	C	-2.040402	0.209399	0.699583
C44	C	-2.093874	0.214789	0.587863
H45	H	-1.531251	0.347600	-0.087191
O46	O	-2.373878	0.243716	0.613370
C47	C	-2.505816	0.359784	0.769187
C48	C	-2.377605	0.346575	0.696412
H49	H	-2.508847	0.442926	0.836356
H50	H	-2.633746	0.372991	0.723489
H51	H	-2.469685	0.273145	0.801631
H52	H	-2.413581	0.433184	0.663949
H53	H	-2.249709	0.333310	0.742158
O54	O	-1.390322	0.037798	-0.148945
C55	C	-1.356996	-0.179805	-0.193620
C56	C	-1.478363	-0.048640	-0.168774
H57	H	-1.428124	-0.249727	-0.209637
H58	H	-1.293447	-0.191718	-0.265342
H59	H	-1.259530	-0.195072	-0.124193
H60	H	-1.575925	-0.033284	-0.238137
H61	H	-1.541788	-0.036790	-0.097016
O62	O	-1.531955	0.157104	0.532292
C63	C	-1.328943	0.136338	0.681886
C64	C	-1.512446	0.155192	0.639131
H65	H	-1.313117	0.134812	0.768275
H66	H	-1.249230	0.045264	0.637276
H67	H	-1.288648	0.215075	0.671766
H68	H	-1.552895	0.076527	0.649244
H69	H	-1.592052	0.246310	0.683746
O70	O	-2.123999	-0.129758	0.020171
C71	C	-2.253146	0.062391	0.133927
C72	C	-2.220657	-0.078083	0.105208
H73	H	-2.331325	0.104215	0.202668
H74	H	-2.129903	0.083630	0.156257
H75	H	-2.322359	0.103334	0.064055
H76	H	-2.151496	-0.119122	0.175039
H77	H	-2.343954	-0.099235	0.082839
O78	O	-2.192197	-0.491274	0.080436
C79	C	-2.198881	-0.528842	0.248491
C80	C	-2.128263	-0.467553	0.186155
H81	H	-2.147192	-0.509708	0.333972
H82	H	-2.339935	-0.489824	0.242003
H83	H	-2.161706	-0.632453	0.215620
H84	H	-2.165314	-0.363939	0.218983
H85	H	-1.987221	-0.506669	0.192641
H86	H	-1.583034	0.162432	0.164550
H87	H	-2.446790	0.251002	0.412498
H88	H	-2.043106	-0.083747	-0.051225
O89	O	-1.722758	-0.539382	-0.333569
C90	C	-1.569257	-0.541980	-0.469010
C91	C	-1.672442	-0.462882	-0.378080
H92	H	-1.528575	-0.480160	-0.505037
H93	H	-1.455118	-0.612047	-0.438678
H94	H	-1.647798	-0.592293	-0.530683
H95	H	-1.594039	-0.412490	-0.316373
H96	H	-1.786590	-0.392889	-0.408490
H97	H	-2.235809	-0.250967	0.118620
O98	O	-1.687882	-0.356104	-0.364026
C99	C	-1.424632	-0.421249	-0.434055
C100	C	-1.527875	-0.342080	-0.343169
H101	H	-1.295258	-0.409918	-0.417235
H102	H	-1.414423	-0.522115	-0.442943
H103	H	-1.487842	-0.390254	-0.509318
H104	H	-1.464749	-0.372966	-0.267855
H105	H	-1.538091	-0.241230	-0.334373
H106	H	-1.854108	-0.629382	-0.217852
H107	H	-1.491840	0.153068	0.354967
H108	H	-1.756456	-0.113152	-0.303905
H109	H	-2.097143	0.215164	0.214107
H110	H	-2.235355	0.229331	0.292513
H111	H	-1.769579	0.181523	0.646015
