data_functionalizedCrystal
_audit_creation_method	'MofGen! by Chris Wilmer'
_symmetry_space_group_name_H-M	'P1'
_symmetry_Int_Tables_number	1
_symmetry_cell_setting	triclinic
loop_
_symmetry_equiv_pos_as_xyz
  x,y,z
_cell_length_a	17.640112
_cell_length_b	12.645323
_cell_length_c	17.640280
_cell_angle_alpha	101.226961
_cell_angle_beta	87.815931
_cell_angle_gamma	101.173525
loop_
_atom_site_label
_atom_site_type_symbol
_atom_site_fract_x
_atom_site_fract_y
_atom_site_fract_z
Zn1	Zn	1.221973	-0.250363	0.067370
Zn2	Zn	1.247570	-0.031767	0.194373
Zn3	Zn	1.094999	-0.100515	0.093095
Zn4	Zn	1.120652	-0.236398	0.220007
O5	O	1.171298	-0.154761	0.143711
O6	O	1.331623	-0.198439	0.062723
O7	O	1.227307	0.107465	0.180975
O8	O	1.090394	-0.155008	-0.016582
O9	O	1.350429	-0.037837	0.156031
O10	O	1.183681	-0.265101	-0.035482
O11	O	1.115214	0.056956	0.106567
O12	O	0.992147	-0.141467	0.131424
O13	O	1.134116	-0.386602	0.199722
O14	O	1.010995	-0.241300	0.224666
O15	O	1.208556	-0.396862	0.087580
O16	O	1.252182	-0.024296	0.304038
O17	O	1.158936	-0.174638	0.322871
C18	C	0.974021	-0.197329	0.183619
C19	C	0.889628	-0.215559	0.200710
C20	C	0.562832	-0.016282	0.013860
C21	C	0.483535	-0.033422	0.029935
C22	C	0.503242	-0.137101	0.127162
C23	C	0.582541	-0.119975	0.111092
C24	C	0.612330	-0.059564	0.054441
C25	C	0.632039	-0.163256	0.151674
C26	C	0.711332	-0.146126	0.135608
C27	C	0.741127	-0.085715	0.078961
C28	C	0.691623	-0.042434	0.038376
C29	C	0.602250	-0.223660	0.208328
C30	C	0.651748	-0.266941	0.248910
C31	C	0.731042	-0.249818	0.232841
C32	C	0.760837	-0.189407	0.176194
C33	C	0.780547	-0.293099	0.273426
C34	C	0.859840	-0.275970	0.257361
C35	C	0.840130	-0.172278	0.160128
C36	C	1.171342	-0.431273	0.143641
C37	C	1.171361	-0.549106	0.143611
C38	C	1.124294	-0.710345	0.213920
C39	C	1.124507	-0.587658	0.214178
C40	C	1.255757	-0.569280	0.149137
C41	C	1.255508	-0.691829	0.149569
C42	C	1.134723	-0.746898	0.067297
C43	C	1.133035	-0.624520	0.068140
C44	C	1.369347	-0.112027	0.103648
C45	C	1.453743	-0.093816	0.086576
C46	C	1.211141	-0.090510	0.341004
C47	C	1.228255	-0.063044	0.425392
C48	C	1.171287	0.120668	0.143717
C49	C	1.171372	0.238462	0.143503
C50	C	1.131321	-0.219281	-0.054356
C51	C	1.114285	-0.246776	-0.138760
C52	C	1.041595	-0.363737	0.752143
C53	C	1.057678	-0.337894	0.831439
C54	C	1.154835	-0.181467	0.811750
C55	C	1.138763	-0.207300	0.732450
C56	C	1.082141	-0.298435	0.702654
C57	C	1.179309	-0.141998	0.682961
C58	C	1.163235	-0.167826	0.603669
C59	C	1.106615	-0.258955	0.573866
C60	C	1.066067	-0.324263	0.623362
C61	C	1.235926	-0.050858	0.712759
C62	C	1.276473	0.014443	0.663270
C63	C	1.260403	-0.011389	0.583976
C64	C	1.203783	-0.102518	0.554173
C65	C	1.300950	0.053919	0.534480
C66	C	1.284876	0.028092	0.455188
C67	C	1.187709	-0.128346	0.474882
H68	H	0.443234	0.001819	-0.003121
O69	O	1.061605	-0.806346	0.057410
C70	C	1.057186	-0.883131	-0.012676
H71	H	1.117274	-0.900288	-0.029606
H72	H	1.017106	-0.962727	-0.005152
H73	H	1.033604	-0.848471	-0.059940
H74	H	1.163527	-0.600255	0.014205
H75	H	1.070847	-0.613466	0.063678
H76	H	1.292481	-0.543850	0.098759
H77	H	1.019966	-0.398481	0.599100
H78	H	1.347046	0.128128	0.558754
O79	O	0.986555	-0.452290	0.723322
C80	C	0.954232	-0.504422	0.783999
H81	H	0.963067	-0.443149	0.841070
H82	H	0.889772	-0.536041	0.773230
H83	H	0.983720	-0.576229	0.786764
H84	H	1.062070	-0.757049	0.212503
O85	O	1.018413	-0.401336	0.879578
C86	C	1.070898	-0.445636	0.916630
H87	H	1.130857	-0.392040	0.916827
H88	H	1.051273	-0.448309	0.978667
H89	H	1.073006	-0.532380	0.884357
O90	O	0.591883	0.042502	-0.041084
C91	C	0.646436	0.135046	-0.007194
H92	H	0.669959	0.119111	0.047979
H93	H	0.695942	0.151142	-0.049425
H94	H	0.617523	0.209715	0.007269
H95	H	1.285099	-0.515869	0.203689
O96	O	1.209824	-0.092998	0.840821
C97	C	1.215298	-0.084177	0.921423
H98	H	1.192603	-0.167808	0.937285
H99	H	1.278272	-0.054957	0.940014
H100	H	1.179447	-0.022635	0.952147
O101	O	1.175452	-0.787489	0.005025
C102	C	1.236802	-0.828879	0.030145
H103	H	1.222670	-0.850067	0.089653
H104	H	1.245275	-0.905877	-0.012536
H105	H	1.292070	-0.764165	0.033631
H106	H	1.141607	-0.202564	0.450620
O107	O	0.622880	-0.325773	0.303877
C108	C	0.638940	-0.432656	0.283420
H109	H	0.690616	-0.431980	0.242572
H110	H	0.652751	-0.461631	0.337705
H111	H	0.586442	-0.490783	0.253443
H112	H	1.249014	-0.029835	0.777324
H113	H	1.093523	-0.279976	0.509303
H114	H	0.478978	-0.186283	0.173289
H115	H	1.322572	0.088648	0.687542
O116	O	0.751678	-0.351923	0.328398
C117	C	0.767733	-0.458809	0.307950
H118	H	0.819407	-0.458146	0.267100
H119	H	0.781544	-0.487775	0.362239
H120	H	0.715232	-0.516937	0.277978
H121	H	1.317893	0.081268	0.414893
O122	O	0.525227	-0.240489	0.223946
C123	C	0.494840	-0.354167	0.209893
H124	H	0.543191	-0.401085	0.213648
H125	H	0.448739	-0.373215	0.254920
H126	H	0.468019	-0.380126	0.149749
H127	H	0.864383	-0.123104	0.113986
H128	H	0.715875	0.006739	-0.007766
O129	O	1.290412	-0.698544	0.215433
C130	C	1.367063	-0.639573	0.217581
H131	H	1.372274	-0.575308	0.179482
H132	H	1.383063	-0.597144	0.279569
H133	H	1.407834	-0.698579	0.195431
H134	H	0.900142	-0.311215	0.290406
H135	H	0.805693	-0.071767	0.065884
H136	H	1.149601	-0.719010	0.270405
O137	O	1.050437	-0.572324	0.212421
C138	C	1.010356	-0.602907	0.277867
H139	H	1.053449	-0.598188	0.325517
H140	H	0.968815	-0.544764	0.299251
H141	H	0.976394	-0.690497	0.261753
H142	H	1.150020	-0.536040	0.271008
H143	H	1.292645	-0.724982	0.099630
