data_functionalizedCrystal
_audit_creation_method	'MofGen! by Chris Wilmer'
_symmetry_space_group_name_H-M	'P1'
_symmetry_Int_Tables_number	1
_symmetry_cell_setting	triclinic
loop_
_symmetry_equiv_pos_as_xyz
  x,y,z
_cell_length_a	12.811457
_cell_length_b	11.295501
_cell_length_c	17.699083
_cell_angle_alpha	85.392983
_cell_angle_beta	96.334880
_cell_angle_gamma	89.163056
loop_
_atom_site_label
_atom_site_type_symbol
_atom_site_fract_x
_atom_site_fract_y
_atom_site_fract_z
O1	O	1.389157	-0.050992	-0.099582
O2	O	1.085632	-0.018210	-0.112181
O3	O	1.245969	-0.035538	0.004312
O4	O	1.228820	-0.033664	-0.216076
O5	O	1.233451	-0.232237	0.013388
O6	O	1.073114	-0.214910	-0.103105
O7	O	1.376639	-0.247691	-0.090507
Cu8	Cu	1.223733	-0.249261	-0.095978
Cu9	Cu	1.238537	-0.016641	-0.106710
O10	O	1.216301	-0.230364	-0.207000
C11	C	1.040537	-0.112366	-0.107216
C12	C	0.924820	-0.099868	-0.105933
N13	N	1.213328	-0.412874	-0.088428
C14	C	0.693727	-0.290850	-0.093612
C15	C	0.585000	-0.279114	-0.092406
C16	C	0.598638	-0.064660	-0.102309
C17	C	0.707365	-0.076397	-0.103515
C18	C	0.754905	-0.189496	-0.099168
C19	C	0.863633	-0.201231	-0.100379
C20	C	0.877270	0.013222	-0.110277
C21	C	0.768543	0.024958	-0.109071
C22	C	1.323840	-0.674092	-0.168635
C23	C	1.315985	-0.797908	-0.162924
C24	C	1.189769	-0.784324	-0.071290
C25	C	1.197624	-0.660509	-0.077002
C26	C	1.264660	-0.605397	-0.125677
C27	C	1.272509	-0.481578	-0.131392
C28	C	1.146300	-0.467998	-0.039755
C29	C	1.138445	-0.591813	-0.034043
C30	C	1.421733	-0.153533	-0.095472
C31	C	1.537451	-0.166023	-0.096756
C32	C	1.239095	-0.133821	0.037047
C33	C	1.237252	-0.133622	0.121064
N34	N	1.248950	0.146972	-0.114254
C35	C	1.223175	-0.132078	-0.239735
C36	C	1.225019	-0.132269	-0.323752
C37	C	1.331366	-0.143789	0.169730
C38	C	1.329629	-0.143591	0.248672
C39	C	1.233774	-0.133234	0.278947
C40	C	1.139652	-0.123064	0.230274
C41	C	1.141392	-0.123254	0.151333
C42	C	1.132635	-0.122296	0.548633
C43	C	1.130903	-0.122111	0.627580
C44	C	1.320872	-0.142633	0.645972
C45	C	1.322612	-0.142823	0.567031
C46	C	1.228491	-0.132646	0.518365
C47	C	1.230376	-0.132859	0.432767
C48	C	1.231887	-0.133030	0.364543
H49	H	0.902338	-0.293322	-0.096844
Br50	Br	1.065970	-0.374761	0.018543
Br51	Br	1.461461	-0.157861	0.128652
H52	H	0.729821	0.117040	-0.112607
H53	H	1.135203	-0.829219	-0.031653
H54	H	1.083870	-0.636703	0.005589
Br55	Br	1.396308	-0.891136	-0.221223
Br56	Br	1.457362	-0.157388	0.314717
Br57	Br	0.758249	-0.444336	-0.087727
H58	H	1.400665	-0.151262	0.542387
Br59	Br	1.013660	-0.109446	0.085284
Br60	Br	0.960300	0.150784	-0.117834
Br61	Br	1.448611	-0.156444	0.712023
H62	H	1.052842	-0.113679	0.652226
Br63	Br	1.004900	-0.108477	0.482596
Br64	Br	0.534115	0.088817	-0.108126
Br65	Br	1.363484	-0.406783	-0.197450
H66	H	1.061607	-0.114624	0.254929
H67	H	0.535191	-0.361648	-0.087887
H68	H	1.378413	-0.629218	-0.208275
