data_functionalizedCrystal
_audit_creation_method	'MofGen! by Chris Wilmer'
_symmetry_space_group_name_H-M	'P1'
_symmetry_Int_Tables_number	1
_symmetry_cell_setting	triclinic
loop_
_symmetry_equiv_pos_as_xyz
  x,y,z
_cell_length_a	17.038272
_cell_length_b	27.732048
_cell_length_c	15.500227
_cell_angle_alpha	92.799543
_cell_angle_beta	86.956295
_cell_angle_gamma	86.877106
loop_
_atom_site_label
_atom_site_type_symbol
_atom_site_fract_x
_atom_site_fract_y
_atom_site_fract_z
O1	O	1.039801	0.102821	-0.071852
O2	O	1.539801	0.602821	0.428148
O3	O	0.812191	0.101155	-0.071877
O4	O	1.312191	0.601155	0.428123
O5	O	0.933065	0.031915	-0.071847
O6	O	1.433065	0.531915	0.428153
O7	O	0.918928	0.172061	-0.071882
O8	O	1.418928	0.672061	0.428118
O9	O	0.925730	0.036099	0.072040
O10	O	1.425730	0.536099	0.572040
O11	O	0.804857	0.105339	0.072010
O12	O	1.304857	0.605339	0.572010
O13	O	1.032467	0.107005	0.072035
O14	O	1.532467	0.607005	0.572035
Cu15	Cu	0.917992	0.106554	0.085161
Cu16	Cu	1.417992	0.606554	0.585161
Cu17	Cu	0.926666	0.101606	-0.085002
Cu18	Cu	1.426666	0.601606	0.414998
O19	O	0.911593	0.176245	0.072005
O20	O	1.411593	0.676245	0.572005
C21	C	0.779413	0.101732	0.000064
C22	C	1.279413	0.601732	0.500064
C23	C	0.692674	0.097211	0.000055
C24	C	1.192674	0.597211	0.500055
C25	C	0.642076	0.138713	0.000045
C26	C	1.142076	0.638713	0.500045
C27	C	0.560575	0.134463	0.000058
C28	C	1.060575	0.634463	0.500058
C29	C	0.529672	0.088710	0.000074
C30	C	1.029672	0.588710	0.500074
C31	C	0.580276	0.047205	0.000087
C32	C	1.080276	0.547205	0.500087
C33	C	0.661776	0.051455	0.000080
C34	C	1.161776	0.551455	0.500080
C35	C	0.284088	0.073694	0.000101
C36	C	0.784088	0.573694	0.500101
C37	C	0.202582	0.069447	0.000106
C38	C	0.702582	0.569447	0.500106
C39	C	0.182886	0.156706	0.000079
C40	C	0.682886	0.656706	0.500079
C41	C	0.264388	0.160952	0.000067
C42	C	0.764388	0.660952	0.500067
C43	C	0.314985	0.119447	0.000083
C44	C	0.814985	0.619447	0.500083
C45	C	0.446365	0.084365	0.000085
C46	C	0.946365	0.584365	0.500085
C47	C	0.398290	0.123792	0.000079
C48	C	0.898290	0.623792	0.500079
C49	C	0.929100	0.015987	0.000099
C50	C	1.429100	0.515987	0.500099
C51	C	0.928206	-0.037709	0.000106
C52	C	1.428206	0.462291	0.500106
C53	C	0.994011	-0.373515	0.000069
C54	C	1.494011	0.126485	0.500069
C55	C	0.990696	-0.575327	0.000056
C56	C	1.490696	-0.075327	0.500056
O57	O	1.050870	-0.603831	0.000025
O58	O	1.550870	-0.103831	0.500025
N59	N	0.919023	-0.597729	0.000049
N60	N	1.419023	-0.097729	0.500049
C61	C	0.848173	-0.569676	0.000039
C62	C	1.348173	-0.069676	0.500039
O63	O	0.787135	-0.593361	0.000024
O64	O	1.287135	-0.093361	0.500024
C65	C	0.851490	-0.367865	0.000046
C66	C	1.351490	0.132135	0.500046
C67	C	0.923167	-0.345465	0.000062
C68	C	1.423167	0.154535	0.500062
C69	C	1.065683	-0.351115	0.000084
C70	C	1.565683	0.148885	0.500084
C71	C	1.066511	-0.300665	0.000091
C72	C	1.566511	0.199335	0.500091
C73	C	0.995667	-0.272615	0.000084
C74	C	1.495667	0.227385	0.500084
C75	C	0.923995	-0.295015	0.000069
C76	C	1.423995	0.204985	0.500069
C77	C	0.780641	-0.339813	0.000030
C78	C	1.280641	0.160187	0.500030
C79	C	0.781477	-0.289357	0.000029
C80	C	1.281477	0.210643	0.500029
C81	C	0.853154	-0.266957	0.000045
C82	C	1.353154	0.233043	0.500045
C83	C	0.853979	-0.216515	0.000070
C84	C	1.353979	0.283485	0.500070
N85	N	0.925652	-0.194113	0.000077
N86	N	1.425652	0.305887	0.500077
C87	C	0.996496	-0.222163	0.000084
C88	C	1.496496	0.277837	0.500084
C89	C	0.846437	-0.675629	0.000038
C90	C	1.346437	-0.175629	0.500038
C91	C	0.845608	-0.726081	0.000038
C92	C	1.345608	-0.226081	0.500038
C93	C	0.988131	-0.731729	0.000053
C94	C	1.488131	-0.231729	0.500053
C95	C	0.988959	-0.681276	0.000059
C96	C	1.488959	-0.181276	0.500059
C97	C	0.918111	-0.653227	0.000045
C98	C	1.418111	-0.153227	0.500045
C99	C	0.998229	-0.116214	0.000101
C100	C	1.498229	0.383786	0.500101
C101	C	0.999050	-0.065759	0.000113
C102	C	1.499050	0.434241	0.500113
C103	C	0.856528	-0.060116	0.000093
C104	C	1.356528	0.439884	0.500093
C105	C	0.855706	-0.110566	0.000086
C106	C	1.355706	0.389434	0.500086
C107	C	0.926563	-0.138614	0.000087
C108	C	1.426563	0.361386	0.500087
O109	O	0.793838	-0.187981	0.000092
O110	O	1.293838	0.312019	0.500092
O111	O	1.057526	-0.198468	0.000080
O112	O	1.557526	0.301532	0.500080
C113	C	0.993183	-0.423965	0.000061
C114	C	1.493183	0.076035	0.500061
C115	C	0.921512	-0.446365	0.000046
C116	C	1.421512	0.053635	0.500046
C117	C	0.850668	-0.418315	0.000039
C118	C	1.350668	0.081685	0.500039
C119	C	0.920682	-0.496818	0.000046
C120	C	1.420682	0.003182	0.500046
C121	C	0.991526	-0.524867	0.000053
C122	C	1.491526	-0.024867	0.500053
C123	C	1.063200	-0.502465	0.000060
C124	C	1.563200	-0.002465	0.500060
C125	C	1.064027	-0.452015	0.000068
C126	C	1.564027	0.047985	0.500068
C127	C	0.778994	-0.440718	0.000032
C128	C	1.278994	0.059282	0.500032
C129	C	0.778172	-0.491168	0.000025
C130	C	1.278172	0.008832	0.500025
C131	C	0.849016	-0.519218	0.000032
C132	C	1.349016	-0.019218	0.500032
C133	C	1.065244	0.106429	0.000093
C134	C	1.565244	0.606429	0.500093
C135	C	1.151985	0.110949	0.000096
C136	C	1.651985	0.610949	0.500096
C137	C	0.915558	0.192173	0.000058
C138	C	1.415558	0.692173	0.500058
C139	C	0.916452	0.245869	0.000045
C140	C	1.416452	0.745869	0.500045
N141	N	0.911897	0.110034	0.204844
N142	N	1.411897	0.610034	0.704844
N143	N	0.932767	0.098122	-0.204686
N144	N	1.432767	0.598122	0.295314
C145	C	0.963132	0.080707	0.250133
C146	C	1.463132	0.580707	0.750133
C147	C	0.958530	0.083344	0.340705
C148	C	1.458530	0.583344	0.840705
C149	C	0.902695	0.115310	0.385986
C150	C	1.402695	0.615310	0.885986
C151	C	0.851454	0.144638	0.340690
C152	C	1.351454	0.644638	0.840690
C153	C	0.856053	0.141999	0.250120
C154	C	1.356053	0.641999	0.750120
C155	C	0.886126	0.124811	0.659449
C156	C	1.386126	0.624811	1.159449
C157	C	0.881532	0.127449	0.750025
C158	C	1.381532	0.627449	1.250025
C159	C	0.988608	0.066154	0.750034
C160	C	1.488608	0.566154	1.250034
C161	C	0.993205	0.063519	0.659462
C162	C	1.493205	0.563519	1.159462
C163	C	0.941961	0.092845	0.614174
C164	C	1.441961	0.592845	1.114174
C165	C	0.897990	0.118007	0.478565
C166	C	1.397990	0.618007	0.978565
C167	C	0.946662	0.090146	0.521597
C168	C	1.446662	0.590146	1.021597
H169	H	0.141682	0.190497	0.000067
H170	H	0.641682	0.690497	0.500067
H171	H	0.289543	0.198209	0.000043
H172	H	0.789543	0.698209	0.500043
O173	O	1.132006	-0.529743	-0.000089
O174	O	1.632006	-0.029743	0.499911
C175	C	1.139568	-0.561262	-0.074603
C176	C	1.639568	-0.061262	0.425397
H177	H	1.102035	-0.545958	-0.126687
H178	H	1.602035	-0.045958	0.373313
H179	H	1.203858	-0.565064	-0.099614
H180	H	1.703858	-0.065064	0.400386
H181	H	1.118927	-0.598250	-0.057762
H182	H	1.618927	-0.098250	0.442238
O183	O	0.843722	0.148996	0.522651
O184	O	1.343722	0.648996	1.022651
C185	C	0.793158	0.122646	0.575041
C186	C	1.293158	0.622646	1.075041
H187	H	0.824050	0.086525	0.588609
H188	H	1.324050	0.586525	1.088609
H189	H	0.777325	0.144150	0.638729
H190	H	1.277325	0.644150	1.138729
H191	H	0.737213	0.115956	0.540152
H192	H	1.237213	0.615956	1.040152
O193	O	1.008392	0.054843	0.384565
O194	O	1.508392	0.554843	0.884565
C195	C	1.058653	0.026059	0.325177
C196	C	1.558653	0.526059	0.825177
H197	H	1.062562	0.044021	0.260605
H198	H	1.562562	0.544021	0.760605
H199	H	1.119822	0.022049	0.351336
H200	H	1.619822	0.522049	0.851336
H201	H	1.034220	-0.011168	0.315569
H202	H	1.534220	0.488832	0.815569
H203	H	1.030327	0.042277	0.786915
H204	H	1.530327	0.542277	1.286915
O205	O	0.786069	-0.132312	-0.000078
O206	O	1.286069	0.367688	0.499922
C207	C	0.746714	-0.120408	-0.074591
C208	C	1.246714	0.379592	0.425409
H209	H	0.791294	-0.109696	-0.126664
H210	H	1.291294	0.390304	0.373336
H211	H	0.715124	-0.153030	-0.099623
H212	H	1.215124	0.346970	0.400377
H213	H	0.701901	-0.088875	-0.057741
H214	H	1.201901	0.411125	0.442259
H215	H	0.992121	0.064117	0.484727
H216	H	1.492121	0.564117	0.984727
O217	O	0.172691	0.024964	0.000159
O218	O	0.672691	0.524964	0.500159
C219	C	0.234825	-0.010760	0.000149
C220	C	0.734825	0.489240	0.500149
H221	H	0.288649	0.005850	0.027388
H222	H	0.788649	0.505850	0.527388
H223	H	0.216036	-0.041286	0.041931
H224	H	0.716036	0.458714	0.541931
H225	H	0.250035	-0.025731	-0.068877
H226	H	0.750035	0.474269	0.431123
H227	H	0.702972	0.017660	0.000087
H228	H	1.202972	0.517660	0.500087
O229	O	1.057020	-0.758909	0.000093
O230	O	1.557020	-0.258909	0.500093
C231	C	1.120469	-0.728325	0.000070
C232	C	1.620469	-0.228325	0.500070
H233	H	1.098794	-0.690742	0.027316
H234	H	1.598794	-0.190742	0.527316
H235	H	1.167942	-0.743673	0.041840
H236	H	1.667942	-0.243673	0.541840
H237	H	1.145978	-0.725830	-0.068961
H238	H	1.645978	-0.225830	0.431039
O239	O	0.712697	-0.262057	0.000133
O240	O	1.212697	0.237943	0.500133
C241	C	0.705095	-0.230554	0.074666
C242	C	1.205095	0.269446	0.574666
H243	H	0.765820	-0.224725	0.099524
H244	H	1.265820	0.275275	0.599524
H245	H	0.676368	-0.194367	0.057905
H246	H	1.176368	0.305633	0.557905
H247	H	0.666949	-0.247094	0.126839
H248	H	1.166949	0.252906	0.626839
H249	H	0.844402	0.148691	0.622582
H250	H	1.344402	0.648691	1.122582
H251	H	0.787240	-0.744314	0.000040
H252	H	1.287240	-0.244314	0.500040
O253	O	0.827180	0.158445	0.793978
O254	O	1.327180	0.658445	1.293978
C255	C	0.751047	0.146738	0.771853
C256	C	1.251047	0.646738	1.271853
H257	H	0.752408	0.107317	0.746966
H258	H	1.252408	0.607317	1.246966
H259	H	0.708743	0.152396	0.831425
H260	H	1.208743	0.652396	1.331425
H261	H	0.730426	0.171034	0.719281
H262	H	1.230426	0.671034	1.219281
O263	O	0.428350	0.168221	-0.000093
O264	O	0.928350	0.668221	0.499907
C265	C	0.478707	0.171111	-0.074608
C266	C	0.978707	0.671111	0.425392
H267	H	0.462380	0.143555	-0.126679
H268	H	0.962380	0.643555	0.373321
H269	H	0.472198	0.209017	-0.099640
H270	H	0.972198	0.709017	0.400360
H271	H	0.542263	0.163098	-0.057760
H272	H	1.042263	0.663098	0.442240
H273	H	0.325274	0.039897	0.000116
H274	H	0.825274	0.539897	0.500116
H275	H	0.805987	0.170665	0.377563
H276	H	1.305987	0.670665	0.877563
H277	H	1.122395	-0.433782	0.000081
H278	H	1.622395	0.066218	0.500081
H279	H	0.788740	-0.652796	0.000026
H280	H	1.288740	-0.152796	0.500026
O281	O	0.550389	0.002724	0.000138
O282	O	1.050389	0.502724	0.500138
C283	C	0.612528	-0.032996	0.000123
C284	C	1.112528	0.467004	0.500123
H285	H	0.666350	-0.016384	0.027360
H286	H	1.166350	0.483616	0.527360
H287	H	0.593745	-0.063524	0.041903
H288	H	1.093745	0.436476	0.541903
H289	H	0.627737	-0.047965	-0.068905
H290	H	1.127737	0.452035	0.431095
H291	H	0.722274	-0.358042	0.000012
H292	H	1.222274	0.141958	0.500012
O293	O	0.806248	0.170538	0.206257
O294	O	1.306248	0.670538	0.706257
C295	C	0.755967	0.199310	0.265642
C296	C	1.255967	0.699310	0.765642
H297	H	0.784720	0.203068	0.330198
H298	H	1.284720	0.703068	0.830198
H299	H	0.744904	0.236636	0.239456
H300	H	1.244904	0.736636	0.739456
H301	H	0.697620	0.181495	0.275292
H302	H	1.197620	0.681495	0.775292
H303	H	0.421194	0.047113	0.000123
H304	H	0.921194	0.547113	0.500123
O305	O	0.671959	0.183196	0.000067
O306	O	1.171959	0.683196	0.500067
C307	C	0.609820	0.218915	0.000041
C308	C	1.109820	0.718915	0.500041
H309	H	0.553228	0.203886	0.027290
H310	H	1.053228	0.703886	0.527290
H311	H	0.624354	0.251872	0.041805
H312	H	1.124354	0.751872	0.541805
H313	H	0.601631	0.229870	-0.068992
H314	H	1.101631	0.729870	0.431008
H315	H	1.057421	-0.047523	0.000128
H316	H	1.557421	0.452477	0.500128
H317	H	1.055928	-0.139045	0.000099
H318	H	1.555928	0.360955	0.500099
H319	H	1.124878	-0.282432	0.000101
H320	H	1.624878	0.217568	0.500101
O321	O	0.787787	-0.032792	0.000047
O322	O	1.287787	0.467208	0.500047
C323	C	0.803896	0.016541	0.000074
C324	C	1.303896	0.516541	0.500074
H325	H	0.866643	0.020209	-0.027152
H326	H	1.366643	0.520209	0.472848
H327	H	0.760839	0.036312	-0.041710
H328	H	1.260839	0.536312	0.458290
H329	H	0.797231	0.032994	0.069104
H330	H	1.297231	0.532994	0.569104
H331	H	0.721303	-0.417884	0.000024
H332	H	1.221303	0.082116	0.500024
H333	H	1.123376	-0.373948	0.000086
H334	H	1.623376	0.126052	0.500086
H335	H	0.719799	-0.509401	0.000019
H336	H	1.219799	-0.009401	0.500019
H337	H	1.047326	-0.663041	0.000071
H338	H	1.547326	-0.163041	0.500071
O339	O	1.047464	0.032423	0.615613
O340	O	1.547464	0.532423	1.115613
C341	C	1.091714	0.007112	0.675009
C342	C	1.591714	0.507112	1.175009
H343	H	1.056405	0.007118	0.739576
H344	H	1.556405	0.507118	1.239576
H345	H	1.105433	-0.031738	0.648855
H346	H	1.605433	0.468262	1.148855
H347	H	1.149083	0.025488	0.684625
H348	H	1.649083	0.525488	1.184625
O349	O	0.511382	0.174768	0.000193
O350	O	1.011382	0.674768	0.500193
C351	C	0.459848	0.177086	0.074705
C352	C	0.959848	0.677086	0.574705
H353	H	0.487351	0.155130	0.126802
H354	H	0.987351	0.655130	0.626802
H355	H	0.448936	0.216355	0.099698
H356	H	0.948936	0.716355	0.599698
H357	H	0.401585	0.161651	0.057868
H358	H	0.901585	0.661651	0.557868
O359	O	1.017253	0.049608	0.206076
O360	O	1.517253	0.549608	0.706076
C361	C	0.978396	0.016534	0.153750
C362	C	1.478396	0.516534	0.653750
H363	H	0.917721	0.032862	0.140161
H364	H	1.417721	0.532862	0.640161
H365	H	1.014339	0.008357	0.090069
H366	H	1.514339	0.508357	0.590069
H367	H	0.971707	-0.018360	0.188708
H368	H	1.471707	0.481640	0.688708
