data_functionalizedCrystal
_audit_creation_method	'MofGen! by Chris Wilmer'
_symmetry_space_group_name_H-M	'P1'
_symmetry_Int_Tables_number	1
_symmetry_cell_setting	triclinic
loop_
_symmetry_equiv_pos_as_xyz
  x,y,z
_cell_length_a	23.532407
_cell_length_b	10.489711
_cell_length_c	8.965430
_cell_angle_alpha	90.004128
_cell_angle_beta	90.001560
_cell_angle_gamma	83.687843
loop_
_atom_site_label
_atom_site_type_symbol
_atom_site_fract_x
_atom_site_fract_y
_atom_site_fract_z
O1	O	0.756278	0.154818	-0.123842
O2	O	0.590562	0.177220	-0.123884
O3	O	0.677200	-0.019707	-0.123866
O4	O	0.669640	0.351745	-0.123860
O5	O	0.677192	-0.019694	0.124213
O6	O	0.590555	0.177234	0.124195
O7	O	0.756271	0.154831	0.124237
Cu8	Cu	0.673412	0.166034	0.146868
Cu9	Cu	0.673421	0.166018	-0.146514
O10	O	0.669633	0.351758	0.124219
C11	C	0.569339	0.176657	0.000150
C12	C	0.506110	0.174941	0.000133
C13	C	0.676629	-0.067213	0.000169
C14	C	0.674931	-0.208788	0.000156
C15	C	0.727033	-0.392907	0.000184
C16	C	0.701004	-0.299891	0.122492
C17	C	0.700997	-0.299928	-0.122094
C18	C	0.645850	-0.368009	0.122593
C19	C	0.645851	-0.368055	-0.122103
C20	C	0.619782	-0.275065	0.000235
C21	C	0.107703	0.280721	0.000203
C22	C	0.048292	0.279128	0.000212
O23	O	0.012193	0.377186	0.000268
N24	N	0.024896	0.162054	0.000207
C25	C	0.060914	0.046567	0.000209
O26	O	0.035558	-0.053159	0.000208
C27	C	0.120323	0.048162	0.000211
C28	C	0.143716	0.165243	0.000200
C29	C	0.131097	0.397792	0.000194
C30	C	0.190503	0.399385	0.000182
C31	C	0.226516	0.283906	0.000179
C32	C	0.203123	0.166835	0.000188
C33	C	0.156340	-0.067324	0.000223
C34	C	0.215753	-0.065719	0.000226
C35	C	0.239146	0.051361	0.000215
C36	C	0.298543	0.052950	0.000173
N37	N	0.321939	0.170023	0.000178
C38	C	0.285926	0.285501	0.000181
C39	C	-0.063851	0.043227	0.000208
C40	C	-0.123259	0.041631	0.000196
C41	C	-0.135876	0.274192	0.000202
C42	C	-0.076467	0.275787	0.000203
C43	C	-0.040454	0.160300	0.000213
C44	C	0.410685	0.288837	0.000154
C45	C	0.470097	0.290420	0.000136
C46	C	0.482709	0.057860	0.000139
C47	C	0.423302	0.056276	0.000149
C48	C	0.387291	0.171776	0.000162
O49	O	0.334677	-0.045058	0.000124
O50	O	0.311290	0.385211	0.000202
C51	C	0.777494	0.155395	0.000200
C52	C	0.840723	0.157110	0.000207
C53	C	0.670204	0.399265	0.000181
C54	C	0.671902	0.540840	0.000184
N55	N	0.673410	0.166044	0.353217
N56	N	0.673427	0.165998	-0.352863
C57	C	0.633331	0.257086	0.450514
C58	C	0.684891	0.281183	0.549942
C59	C	0.621871	0.141957	0.549917
C60	C	0.724997	0.190198	0.450456
C61	C	0.661943	0.050922	0.450421
C62	C	0.713541	0.074969	0.549804
H63	H	0.724328	-0.269674	0.225907
H64	H	0.574427	-0.224092	0.000291
H65	H	0.381371	0.382888	0.000170
H66	H	0.724337	-0.269749	-0.225494
H67	H	0.694602	0.378519	0.593655
H68	H	0.768599	0.210667	0.406950
O69	O	-0.053813	0.389599	0.000004
C70	C	-0.072161	0.459921	-0.128499
H71	H	-0.113499	0.425683	-0.171339
H72	H	-0.079974	0.566241	-0.099604
H73	H	-0.037848	0.444704	-0.218463
H74	H	0.578279	0.121605	0.593610
H75	H	0.404255	-0.039060	0.000136
O76	O	0.754100	-0.016776	0.601432
C77	C	0.808343	0.009066	0.550447
H78	H	0.807144	0.115386	0.522713
H79	H	0.841536	-0.017045	0.641165
H80	H	0.820212	-0.050246	0.446237
O81	O	0.781128	-0.453785	0.000410
C82	C	0.820660	-0.362073	0.001799
H83	H	0.799321	-0.267962	0.049369
H84	H	0.858927	-0.398364	0.074011
H85	H	0.835700	-0.345733	-0.116857
O86	O	-0.145885	-0.072213	0.000255
C87	C	-0.101353	-0.173786	0.000208
H88	H	-0.060854	-0.138548	0.047168
H89	H	-0.114098	-0.255572	0.072233
H90	H	-0.093096	-0.209372	-0.118810
O91	O	-0.028812	-0.068882	-0.000006
C92	C	0.005918	-0.074942	-0.128511
H93	H	0.009345	0.026251	-0.171337
H94	H	0.050363	-0.123049	-0.099624
H95	H	-0.013871	-0.132929	-0.218483
H96	H	0.245072	-0.159765	0.000235
O97	O	0.650442	-0.065209	0.398143
C98	C	0.696863	-0.120048	0.311610
H99	H	0.737286	-0.076696	0.345593
H100	H	0.703174	-0.228121	0.330721
H101	H	0.687667	-0.099671	0.188545
O102	O	0.133720	-0.181170	0.000313
C103	C	0.178256	-0.282735	0.000287
H104	H	0.218753	-0.247480	0.047236
H105	H	0.165515	-0.364512	0.072332
H106	H	0.186513	-0.318340	-0.118723
H107	H	0.622538	-0.398038	0.226111
H108	H	0.489140	0.385765	0.000127
O109	O	0.618130	-0.404121	-0.245629
C110	C	0.647338	-0.369823	-0.374338
H111	H	0.693811	-0.360190	-0.345024
H112	H	0.645622	-0.447132	-0.463098
H113	H	0.626201	-0.274417	-0.418972
O114	O	0.213245	0.513092	-0.000101
C115	C	0.247235	0.520964	-0.128575
H116	H	0.232919	0.454469	-0.218362
H117	H	0.242310	0.623816	-0.171718
H118	H	0.293960	0.490973	-0.099536
O119	O	0.096143	0.510012	-0.000075
C120	C	0.106842	0.581128	-0.128544
H121	H	0.126861	0.513508	-0.218335
H122	H	0.064915	0.632839	-0.171684
H123	H	0.137401	0.654541	-0.099498
H124	H	0.512042	-0.036160	0.000131
O125	O	-0.170947	0.386255	0.000277
C126	C	-0.228398	0.359728	0.000244
H127	H	-0.231082	0.259579	0.047208
H128	H	-0.255010	0.433379	0.072272
H129	H	-0.245559	0.364778	-0.118771
O130	O	0.592995	0.349178	0.398556
C131	C	0.605308	0.470369	0.449300
H132	H	0.652742	0.466167	0.477181
H133	H	0.594184	0.544919	0.358378
H134	H	0.578955	0.498019	0.553370
