data_functionalizedCrystal
_audit_creation_method	'MofGen! by Chris Wilmer'
_symmetry_space_group_name_H-M	'P1'
_symmetry_Int_Tables_number	1
_symmetry_cell_setting	triclinic
loop_
_symmetry_equiv_pos_as_xyz
  x,y,z
_cell_length_a	11.169417
_cell_length_b	14.908178
_cell_length_c	11.169409
_cell_angle_alpha	86.665446
_cell_angle_beta	89.980487
_cell_angle_gamma	93.315343
loop_
_atom_site_label
_atom_site_type_symbol
_atom_site_fract_x
_atom_site_fract_y
_atom_site_fract_z
Zn1	Zn	1.807332	-0.359087	-0.650915
Zn2	Zn	2.140665	-0.025754	-0.317581
Zn3	Zn	2.473998	0.307579	0.015752
Zn4	Zn	1.795609	-0.509994	-0.438625
Zn5	Zn	2.128943	-0.176660	-0.105292
Zn6	Zn	2.462276	0.156673	0.228041
Zn7	Zn	1.606613	-0.359143	-0.450246
Zn8	Zn	1.939947	-0.025810	-0.116913
Zn9	Zn	2.273280	0.307523	0.216421
Zn10	Zn	1.595019	-0.509921	-0.639277
Zn11	Zn	1.928352	-0.176588	-0.305943
Zn12	Zn	2.261686	0.156746	0.027390
O13	O	1.701143	-0.434536	-0.544766
O14	O	2.034477	-0.101203	-0.211432
O15	O	2.367810	0.232130	0.121901
O16	O	1.973726	-0.379112	-0.622761
O17	O	2.307059	-0.045779	-0.289428
O18	O	2.640393	0.287554	0.043905
O19	O	1.770485	-0.490037	-0.272213
O20	O	2.103818	-0.156703	0.061121
O21	O	2.437152	0.176630	0.394454
O22	O	1.642997	-0.232880	-0.486599
O23	O	1.976331	0.100453	-0.153266
O24	O	2.309664	0.433787	0.180068
O25	O	1.965114	-0.489982	-0.466793
O26	O	2.298447	-0.156649	-0.133460
O27	O	2.631780	0.176684	0.199873
O28	O	1.790464	-0.232839	-0.634029
O29	O	2.123798	0.100494	-0.300696
O30	O	2.457131	0.433828	0.032637
O31	O	1.631631	-0.379208	-0.280750
O32	O	1.964964	-0.045874	0.052583
O33	O	2.298297	0.287459	0.385916
O34	O	1.437126	-0.379137	-0.475314
O35	O	1.770460	-0.045804	-0.141981
O36	O	2.103793	0.287529	0.191353
O37	O	1.623236	-0.489859	-0.808775
O38	O	1.956570	-0.156526	-0.475441
O39	O	2.289903	0.176808	-0.142108
O40	O	1.428608	-0.489913	-0.614194
O41	O	1.761941	-0.156580	-0.280861
O42	O	2.095275	0.176753	0.052472
O43	O	1.779222	-0.379042	-0.817325
O44	O	2.112555	-0.045709	-0.483992
O45	O	2.445888	0.287625	-0.150658
O46	O	1.759243	-0.636240	-0.455508
O47	O	2.092576	-0.302906	-0.122175
O48	O	2.425909	0.030427	0.211158
O49	O	1.611870	-0.636187	-0.602926
O50	O	1.945203	-0.302853	-0.269593
O51	O	2.278536	0.030480	0.063741
C52	C	1.389320	-0.434524	-0.544753
C53	C	1.722653	-0.101191	-0.211420
C54	C	2.055986	0.232142	0.121914
C55	C	1.255918	-0.434541	-0.544774
C56	C	1.589252	-0.101207	-0.211441
C57	C	1.922585	0.232126	0.121892
C58	C	1.683059	-0.668950	-0.526719
C59	C	2.016392	-0.335617	-0.193386
C60	C	2.349725	-0.002283	0.139947
C61	C	1.675432	-0.769233	-0.519039
C62	C	2.008765	-0.435900	-0.185706
C63	C	2.342098	-0.102566	0.147627
C64	C	1.814541	-0.957483	-0.658292
C65	C	2.147874	-0.624149	-0.324958
C66	C	2.481207	-0.290816	0.008375
C67	C	1.807379	-1.051708	-0.651080
C68	C	2.140712	-0.718374	-0.317746
C69	C	2.474045	-0.385041	0.015587
C70	C	1.653940	-1.051909	-0.497410
C71	C	1.987273	-0.718576	-0.164077
C72	C	2.320607	-0.385243	0.169257
C73	C	1.661102	-0.957684	-0.504622
C74	C	1.994436	-0.624351	-0.171289
C75	C	2.327769	-0.291018	0.162045
C76	C	1.741406	-0.910474	-0.585064
C77	C	2.074740	-0.577141	-0.251731
C78	C	2.408073	-0.243808	0.081602
C79	C	1.748574	-0.816248	-0.592270
C80	C	2.081907	-0.482915	-0.258936
C81	C	2.415240	-0.149581	0.074397
C82	C	1.595130	-0.816451	-0.438607
C83	C	1.928463	-0.483118	-0.105273
C84	C	2.261797	-0.149785	0.228060
C85	C	1.587968	-0.910676	-0.431395
C86	C	1.921301	-0.577343	-0.098061
C87	C	2.254635	-0.244010	0.235272
C88	C	2.014185	-0.434549	-0.544779
C89	C	2.347518	-0.101216	-0.211446
C90	C	2.680851	0.232117	0.121887
C91	C	2.147584	-0.434555	-0.544785
C92	C	2.480918	-0.101221	-0.211452
C93	C	2.814251	0.232112	0.121882
C94	C	1.701243	-0.434436	-0.857816
C95	C	2.034577	-0.101103	-0.524483
C96	C	2.367910	0.232231	-0.191149
C97	C	1.701286	-0.434393	-0.991219
C98	C	2.034619	-0.101060	-0.657886
C99	C	2.367952	0.232273	-0.324553
C100	C	1.719332	-0.199207	-0.562909
C101	C	2.052665	0.134126	-0.229575
C102	C	2.385998	0.467459	0.103758
C103	C	1.727082	-0.098924	-0.570640
C104	C	2.060416	0.234409	-0.237307
C105	C	2.393749	0.567742	0.096027
C106	C	1.701118	-0.434571	-0.232938
C107	C	2.034451	-0.101238	0.100395
C108	C	2.367785	0.232096	0.433728
C109	C	1.701327	-0.434360	-0.099555
C110	C	2.034661	-0.101026	0.233778
C111	C	2.367994	0.232307	0.567112
H112	H	1.879936	-0.919044	-0.723783
H113	H	2.213269	-0.585710	-0.390449
H114	H	2.546603	-0.252377	-0.057116
H115	H	1.535583	-0.778166	-0.378976
H116	H	1.868916	-0.444833	-0.045643
H117	H	2.202249	-0.111500	0.287690
H118	H	1.866926	-1.089978	-0.710715
H119	H	2.200259	-0.756645	-0.377381
H120	H	2.533593	-0.423312	-0.044048
H121	H	1.522584	-0.949127	-0.365904
H122	H	1.855917	-0.615794	-0.032571
H123	H	2.189251	-0.282461	0.300763
H124	H	1.588555	-1.090364	-0.431923
H125	H	1.921888	-0.757031	-0.098590
H126	H	2.255222	-0.423697	0.234743
H127	H	1.813965	-0.777810	-0.657766
H128	H	2.147298	-0.444477	-0.324433
H129	H	2.480631	-0.111144	0.008900
