data_functionalizedCrystal
_audit_creation_method	'MofGen! by Chris Wilmer'
_symmetry_space_group_name_H-M	'P1'
_symmetry_Int_Tables_number	1
_symmetry_cell_setting	triclinic
loop_
_symmetry_equiv_pos_as_xyz
  x,y,z
_cell_length_a	10.654545
_cell_length_b	12.837932
_cell_length_c	9.730223
_cell_angle_alpha	89.998839
_cell_angle_beta	89.997167
_cell_angle_gamma	89.656391
loop_
_atom_site_label
_atom_site_type_symbol
_atom_site_fract_x
_atom_site_fract_y
_atom_site_fract_z
O1	O	1.683743	0.145700	-0.114266
O2	O	1.319779	0.159589	-0.114271
O3	O	1.493690	0.001684	-0.114270
O4	O	1.509833	0.303605	-0.114268
O5	O	1.493677	0.001679	0.114310
O6	O	1.319767	0.159584	0.114309
O7	O	1.683730	0.145696	0.114314
Zn8	Zn	1.501746	0.152640	0.150603
Zn9	Zn	1.501763	0.152645	-0.150561
O10	O	1.509820	0.303601	0.114312
C11	C	1.272864	0.158568	0.000018
C12	C	1.133088	0.155520	0.000016
C13	C	1.067419	0.154083	0.124616
C14	C	0.936086	0.151201	0.124616
C15	C	0.936099	0.151199	-0.124595
C16	C	1.067431	0.154073	-0.124593
C17	C	1.488230	-0.036978	0.000017
C18	C	1.471967	-0.152172	0.000007
C19	C	1.336035	-0.302990	0.000007
C20	C	1.351308	-0.194755	0.000005
C21	C	1.577360	-0.217834	0.000007
C22	C	1.562087	-0.326070	0.000009
C23	C	1.441421	-0.368644	0.000011
C24	C	1.426149	-0.476881	0.000023
C25	C	1.652200	-0.499959	0.000016
C26	C	1.667473	-0.391723	0.000013
C27	C	1.730646	0.146717	0.000021
C28	C	1.870422	0.149765	0.000015
C29	C	1.515279	0.342263	0.000023
C30	C	1.531543	0.457457	0.000023
N31	N	1.501744	0.152635	0.356140
N32	N	1.501775	0.152642	-0.356097
C33	C	1.578784	0.082744	0.428066
C34	C	1.578796	0.082745	0.571949
C35	C	1.424726	0.222535	0.571966
C36	C	1.424708	0.222529	0.428086
H37	H	0.882624	0.150031	0.226077
C38	C	1.799273	-0.251505	-0.000035
C39	C	1.709989	-0.171025	-0.000027
H40	H	1.881152	-0.222605	-0.000071
H41	H	1.788633	-0.293230	0.079684
H42	H	1.788596	-0.293253	-0.079739
H43	H	1.720660	-0.129281	0.079683
H44	H	1.720634	-0.129283	-0.079754
H45	H	0.882626	0.150022	-0.226047
H46	H	1.641527	0.025832	0.630508
C47	C	1.731063	-0.055440	0.442506
C48	C	1.663447	0.005908	0.348981
H49	H	1.783323	-0.102882	0.393682
H50	H	1.781447	-0.011904	0.498605
H51	H	1.674271	-0.093154	0.498644
H52	H	1.720239	0.043628	0.292850
H53	H	1.613059	-0.037634	0.292859
C54	C	1.214423	0.281781	0.616319
C55	C	1.340057	0.299361	0.651061
H56	H	1.162153	0.329208	0.665155
H57	H	1.203391	0.291786	0.520348
H58	H	1.192516	0.212427	0.639915
H59	H	1.361966	0.368713	0.627455
H60	H	1.351094	0.289365	0.747053
C61	C	1.163341	-0.141766	-0.117497
C62	C	1.235464	-0.122589	0.000005
H63	H	1.091817	-0.097217	-0.117491
H64	H	1.212287	-0.128762	-0.197192
H65	H	1.136988	-0.212325	-0.117481
H66	H	1.261824	-0.052032	-0.000016
H67	H	1.186508	-0.135585	0.079721
H68	H	1.120873	0.155261	0.226081
C69	C	1.372373	0.401581	0.383765
C70	C	1.340024	0.299363	0.349013
H71	H	1.320097	0.449009	0.334941
H72	H	1.361353	0.411584	0.479739
H73	H	1.457606	0.413478	0.360160
H74	H	1.254793	0.287464	0.372628
H75	H	1.351032	0.289355	0.253018
C76	C	1.204243	-0.443193	-0.000003
C77	C	1.293516	-0.523682	0.000013
H78	H	1.122360	-0.472086	-0.000022
H79	H	1.214890	-0.401461	0.079704
H80	H	1.214925	-0.401455	-0.079718
H81	H	1.282841	-0.565416	0.079734
H82	H	1.282865	-0.565432	-0.079702
C83	C	1.729170	-0.676123	0.000007
C84	C	1.768051	-0.572128	0.000007
H85	H	1.800691	-0.720675	-0.000005
H86	H	1.680238	-0.689115	0.079716
H87	H	1.680228	-0.689109	-0.079706
H88	H	1.816986	-0.559140	0.079726
H89	H	1.817004	-0.559131	-0.079710
H90	H	1.765717	-0.357044	0.000017
H91	H	1.237784	-0.337654	0.000034
H92	H	1.120900	0.155240	-0.226064
