data_functionalizedCrystal
_audit_creation_method	'MofGen! by Chris Wilmer'
_symmetry_space_group_name_H-M	'P1'
_symmetry_Int_Tables_number	1
_symmetry_cell_setting	triclinic
loop_
_symmetry_equiv_pos_as_xyz
  x,y,z
_cell_length_a	9.065218
_cell_length_b	9.065218
_cell_length_c	7.540329
_cell_angle_alpha	90.001372
_cell_angle_beta	90.001688
_cell_angle_gamma	85.015885
loop_
_atom_site_label
_atom_site_type_symbol
_atom_site_fract_x
_atom_site_fract_y
_atom_site_fract_z
O1	O	-1.960396	-0.216354	-0.147479
O2	O	-1.627062	0.116979	0.185854
O3	O	-1.293729	0.450313	0.519188
O4	O	-1.531111	-0.234101	-0.147481
O5	O	-1.197777	0.099233	0.185852
O6	O	-0.864444	0.432566	0.519186
O7	O	-1.754626	-0.010585	-0.147476
O8	O	-1.421293	0.322748	0.185857
O9	O	-1.087960	0.656082	0.519190
O10	O	-1.736880	-0.439870	-0.147484
O11	O	-1.403547	-0.106536	0.185850
O12	O	-1.070213	0.226797	0.519183
O13	O	-1.754619	-0.010583	0.147489
O14	O	-1.421285	0.322750	0.480822
O15	O	-1.087952	0.656084	0.814155
O16	O	-1.531103	-0.234099	0.147484
O17	O	-1.197770	0.099235	0.480817
O18	O	-0.864436	0.432568	0.814151
O19	O	-1.960388	-0.216352	0.147486
O20	O	-1.627054	0.116981	0.480819
O21	O	-1.293721	0.450314	0.814153
Cu22	Cu	-1.745745	-0.225225	0.174418
Cu23	Cu	-1.412411	0.108108	0.507751
Cu24	Cu	-1.079078	0.441441	0.841084
Cu25	Cu	-1.745754	-0.225227	-0.174413
Cu26	Cu	-1.412421	0.108106	0.158921
Cu27	Cu	-1.079087	0.441439	0.492254
O28	O	-1.736872	-0.439868	0.147481
O29	O	-1.403539	-0.106535	0.480815
O30	O	-1.070205	0.226799	0.814148
C31	C	-1.476120	-0.232394	0.000001
C32	C	-1.142787	0.100939	0.333335
C33	C	-0.809454	0.434273	0.666668
C34	C	-1.312277	-0.227294	0.000000
C35	C	-0.978944	0.106039	0.333334
C36	C	-0.645611	0.439372	0.666667
C37	C	-1.752917	0.044403	0.000003
C38	C	-1.419584	0.377736	0.333337
C39	C	-1.086250	0.711069	0.666670
C40	C	-1.747817	0.208245	-0.000005
C41	C	-1.414484	0.541579	0.333328
C42	C	-1.081151	0.874912	0.666661
N43	N	-1.745749	-0.225223	0.419766
N44	N	-1.412416	0.108110	0.753100
N45	N	-1.079082	0.441444	1.086433
C46	C	-2.015378	-0.218059	-0.000000
C47	C	-1.682045	0.115275	0.333333
C48	C	-1.348712	0.448608	0.666667
C49	C	-2.179221	-0.223158	-0.000011
C50	C	-1.845888	0.110175	0.333322
C51	C	-1.512555	0.443508	0.666656
C52	C	-1.738582	-0.494855	-0.000002
C53	C	-1.405248	-0.161522	0.333331
C54	C	-1.071915	0.171811	0.666665
C55	C	-1.743681	-0.658698	-0.000005
C56	C	-1.410348	-0.325365	0.333328
C57	C	-1.077015	0.007968	0.666661
N58	N	-1.745761	-0.225218	-0.419761
N59	N	-1.412428	0.108115	-0.086428
N60	N	-1.079095	0.441448	0.246906
