data_functionalizedCrystal
_audit_creation_method	'MofGen! by Chris Wilmer'
_symmetry_space_group_name_H-M	'P1'
_symmetry_Int_Tables_number	1
_symmetry_cell_setting	triclinic
loop_
_symmetry_equiv_pos_as_xyz
  x,y,z
_cell_length_a	9.065215
_cell_length_b	16.992695
_cell_length_c	15.455379
_cell_angle_alpha	87.182553
_cell_angle_beta	87.043322
_cell_angle_gamma	87.841460
loop_
_atom_site_label
_atom_site_type_symbol
_atom_site_fract_x
_atom_site_fract_y
_atom_site_fract_z
O1	O	1.964947	0.111949	0.072121
O2	O	1.536537	0.121389	0.072125
O3	O	1.749025	0.002515	0.072116
O4	O	1.752459	0.230824	0.072130
O5	O	1.761269	0.008725	-0.072144
O6	O	1.548781	0.127600	-0.072135
O7	O	1.977191	0.118159	-0.072139
Cu8	Cu	1.764104	0.123447	-0.085309
Cu9	Cu	1.749624	0.116102	0.085295
O10	O	1.764703	0.237034	-0.072130
C11	C	1.487588	0.123588	-0.000004
C12	C	1.323493	0.120876	-0.000003
C13	C	1.750729	-0.023624	-0.000014
C14	C	1.737545	-0.110762	-0.000013
C15	C	1.864751	-0.160099	-0.000015
C16	C	1.852354	-0.241974	-0.000007
C17	C	1.712750	-0.274510	-0.000003
C18	C	1.585534	-0.225166	0.000002
C19	C	1.597932	-0.143293	-0.000000
C20	C	1.661365	-0.518473	0.000010
C21	C	1.648977	-0.600352	0.000009
C22	C	1.915798	-0.617155	0.000002
C23	C	1.928184	-0.535279	-0.000006
C24	C	1.800968	-0.485943	0.000004
N25	N	1.700075	-0.358199	0.000003
N26	N	1.813643	-0.402256	0.000004
C27	C	2.026140	0.115961	-0.000007
C28	C	2.190234	0.118672	-0.000003
C29	C	1.762999	0.263173	0.000002
C30	C	1.776183	0.350310	0.000007
N31	N	1.739439	0.110930	0.205289
N32	N	1.774300	0.128612	-0.205303
C33	C	1.683165	0.082220	0.749288
C34	C	1.690853	0.086150	0.658481
C35	C	1.789684	0.136469	0.613085
C36	C	1.880823	0.182867	0.658501
C37	C	1.873126	0.178940	0.749306
C38	C	1.822881	0.153402	0.341509
C39	C	1.830574	0.157323	0.250698
C40	C	1.640602	0.060607	0.250685
C41	C	1.632920	0.056681	0.341492
C42	C	1.724053	0.103082	0.386899
N43	N	1.797548	0.140486	0.520267
N44	N	1.716180	0.099069	0.479716
H45	H	1.978432	-0.133616	-0.000024
O46	O	1.961807	0.224033	0.793285
C47	C	2.150977	0.320414	0.783720
C48	C	2.050661	0.269371	0.733808
H49	H	2.222819	0.357094	0.735656
H50	H	2.224604	0.280695	0.826197
H51	H	2.079686	0.361282	0.826270
H52	H	2.121836	0.228496	0.691212
H53	H	1.977026	0.309136	0.691386
O54	O	1.602545	0.041044	0.614273
C55	C	1.590605	-0.060633	0.511788
C56	C	1.690791	-0.009588	0.561786
H57	H	1.661911	-0.101593	0.469355
H58	H	1.517147	-0.020918	0.469207
H59	H	1.518573	-0.097217	0.559844
H60	H	1.762913	0.027003	0.513792
H61	H	1.764150	-0.049347	0.604380
O62	O	1.474217	-0.095475	-0.000037
C63	C	1.208255	-0.087446	0.000029
C64	C	1.348246	-0.141688	0.000043
H65	H	1.106371	-0.124789	0.000113
H66	H	1.212402	-0.046112	-0.060356
H67	H	1.202358	-0.051277	0.060390
H68	H	1.354232	-0.177909	-0.060276
H69	H	1.344041	-0.182971	0.060469
H70	H	1.961287	0.223841	0.621532
H71	H	2.019369	-0.657333	-0.000004
O72	O	1.587032	0.033322	0.793247
C73	C	1.399474	-0.062222	0.783639
C74	C	1.508261	-0.006868	0.733751
H75	H	1.335780	-0.094743	0.735559
H76	H	1.318646	-0.026175	0.826143
H77	H	1.463546	-0.106771	0.826160
H78	H	1.444312	0.037692	0.691184
H79	H	1.589088	-0.042966	0.691303
H80	H	1.566405	0.022831	0.213704
H81	H	1.911056	0.198302	0.213739
H82	H	1.897094	0.191181	0.378469
O83	O	1.536682	0.007896	0.385533
C84	C	1.282336	-0.026055	0.413238
C85	C	1.391166	0.029263	0.363332
H86	H	1.164665	-0.008811	0.395293
H87	H	1.292332	-0.020899	0.485953
H88	H	1.309465	-0.089454	0.395369
H89	H	1.364109	0.092684	0.381129
H90	H	1.381150	0.024038	0.290629
O91	O	1.976023	-0.289822	0.000102
C92	C	2.193908	-0.332472	0.074853
C93	C	2.053913	-0.278233	0.074826
H94	H	2.256905	-0.323134	0.135270
H95	H	2.267347	-0.317914	0.014516
H96	H	2.161049	-0.396572	0.074817
H97	H	2.086637	-0.214117	0.074892
H98	H	1.980510	-0.292859	0.135157
O99	O	2.063907	-0.503808	0.000026
C100	C	2.327253	-0.529115	-0.000047
C101	C	2.173637	-0.564861	-0.000054
H102	H	2.416013	-0.578458	-0.000130
H103	H	2.334713	-0.493824	0.060335
H104	H	2.344758	-0.488586	-0.060410
H105	H	2.156031	-0.605424	0.060269
H106	H	2.166251	-0.600104	-0.060476
O107	O	1.513430	-0.632058	0.000133
C108	C	1.338235	-0.717933	0.074900
C109	C	1.491776	-0.682095	0.074861
H110	H	1.320667	-0.758383	0.135321
H111	H	1.330855	-0.753300	0.014567
H112	H	1.249463	-0.668596	0.074865
H113	H	1.580638	-0.731382	0.074926
H114	H	1.499030	-0.646709	0.135189
H115	H	1.471864	-0.251663	0.000011
H116	H	1.557775	-0.478312	0.000017
