data_functionalizedCrystal
_audit_creation_method	'MofGen! by Chris Wilmer'
_symmetry_space_group_name_H-M	'P1'
_symmetry_Int_Tables_number	1
_symmetry_cell_setting	triclinic
loop_
_symmetry_equiv_pos_as_xyz
  x,y,z
_cell_length_a	10.489741
_cell_length_b	9.130313
_cell_length_c	10.654550
_cell_angle_alpha	90.004369
_cell_angle_beta	95.487948
_cell_angle_gamma	89.999174
loop_
_atom_site_label
_atom_site_type_symbol
_atom_site_fract_x
_atom_site_fract_y
_atom_site_fract_z
O1	O	1.693966	-0.121708	-0.177192
O2	O	2.193966	0.378292	0.322808
O3	O	1.322763	-0.121731	-0.193824
O4	O	1.822763	0.378269	0.306176
O5	O	1.516899	-0.121710	-0.002773
O6	O	2.016899	0.378290	0.497227
O7	O	1.499830	-0.121729	-0.368243
O8	O	1.999830	0.378271	0.131757
O9	O	1.516886	0.121889	-0.002767
O10	O	2.016886	0.621889	0.497233
O11	O	1.322749	0.121868	-0.193819
O12	O	1.822749	0.621868	0.306181
O13	O	1.693953	0.121890	-0.177186
O14	O	2.193953	0.621890	0.322814
Cu15	Cu	1.508350	0.144122	-0.185502
Cu16	Cu	2.008350	0.644122	0.314498
Cu17	Cu	1.508366	-0.143962	-0.185509
Cu18	Cu	2.008366	0.356038	0.314491
O19	O	1.499816	0.121869	-0.368238
O20	O	1.999816	0.621869	0.131762
C21	C	1.275225	0.000065	-0.192565
C22	C	1.775225	0.500065	0.307435
C23	C	1.133597	0.000057	-0.188807
C24	C	1.633597	0.500057	0.311193
N25	N	1.508348	0.346744	-0.185497
N26	N	2.008348	0.846744	0.314503
N27	N	1.508378	-0.346585	-0.185504
N28	N	2.008378	0.153415	0.314496
C29	C	1.065516	0.000077	-0.067246
C30	C	1.565516	0.500077	0.432754
C31	C	0.973368	-0.120030	-0.124673
C32	C	1.473368	0.379970	0.375327
C33	C	0.973389	0.120140	-0.124697
C34	C	1.473389	0.620140	0.375303
C35	C	1.043315	-0.120149	-0.246284
C36	C	1.543315	0.379851	0.253716
C37	C	1.043345	0.120128	-0.246290
C38	C	1.543345	0.620128	0.253710
C39	C	0.951224	-0.000008	-0.303805
C40	C	1.451224	0.499992	0.196195
C41	C	1.741491	0.000091	-0.178445
C42	C	2.241491	0.500091	0.321555
C43	C	1.883118	0.000090	-0.182204
C44	C	2.383118	0.500090	0.317796
C45	C	1.515639	0.000089	0.044029
C46	C	2.015639	0.500089	0.544029
C47	C	1.511889	0.000086	0.183474
C48	C	2.011889	0.500086	0.683474
C49	C	1.594341	0.423405	-0.100935
C50	C	2.094341	0.923405	0.399065
C51	C	1.594353	0.576742	-0.100935
C52	C	2.094353	1.076742	0.399065
C53	C	1.422375	0.576743	-0.270070
C54	C	1.922375	1.076743	0.229930
C55	C	1.422358	0.423409	-0.270062
C56	C	1.922358	0.923409	0.229938
C57	C	1.501076	0.000068	-0.415039
C58	C	2.001076	0.500068	0.084961
C59	C	1.504826	0.000060	-0.554484
C60	C	2.004826	0.500060	-0.054484
C61	C	1.626194	0.000093	0.262906
C62	C	2.126194	0.500093	0.762906
C63	C	1.622663	0.000074	0.393928
C64	C	2.122663	0.500074	0.893928
C65	C	1.390513	0.000050	0.366074
C66	C	1.890513	0.500050	0.866074
C67	C	1.394045	0.000057	0.235054
C68	C	1.894045	0.500057	0.735054
H69	H	1.115254	-0.000068	0.032684
H70	H	1.615254	0.499932	0.532684
Cl71	Cl	0.925593	0.276915	-0.045253
Cl72	Cl	1.425593	0.776915	0.454747
H73	H	1.715742	0.000077	0.458597
H74	H	2.215742	0.500077	0.958597
H75	H	1.664375	0.639156	-0.032076
H76	H	2.164375	1.139156	0.467924
H77	H	0.901752	-0.000079	-0.403841
H78	H	1.401752	0.499921	0.096159
Cl79	Cl	1.090873	-0.277101	-0.325636
Cl80	Cl	1.590873	0.222899	0.174364
H81	H	1.294568	0.000029	0.408087
H82	H	1.794568	0.500029	0.908087
Cl83	Cl	1.250336	0.000036	0.135188
Cl84	Cl	1.750336	0.500036	0.635188
Cl85	Cl	1.314283	0.673129	-0.376381
Cl86	Cl	1.814283	1.173129	0.123619
H87	H	1.352326	0.360987	-0.338923
H88	H	1.852326	0.860987	0.161077
Cl89	Cl	1.774340	0.000125	0.198066
Cl90	Cl	2.274340	0.500125	0.698066
H91	H	0.942384	-0.221568	-0.073241
H92	H	1.442384	0.278432	0.426759
H93	H	1.664357	0.360988	-0.032074
H94	H	2.164357	0.860988	0.467926
Cl95	Cl	1.091238	0.276904	-0.325634
Cl96	Cl	1.591238	0.776904	0.174366
