data_functionalizedCrystal
_audit_creation_method	'MofGen! by Chris Wilmer'
_symmetry_space_group_name_H-M	'P1'
_symmetry_Int_Tables_number	1
_symmetry_cell_setting	triclinic
loop_
_symmetry_equiv_pos_as_xyz
  x,y,z
_cell_length_a	12.759401
_cell_length_b	14.908520
_cell_length_c	12.759401
_cell_angle_alpha	86.714681
_cell_angle_beta	90.003749
_cell_angle_gamma	93.320696
loop_
_atom_site_label
_atom_site_type_symbol
_atom_site_fract_x
_atom_site_fract_y
_atom_site_fract_z
Zn1	Zn	1.581893	-0.359320	0.618097
Zn2	Zn	1.571671	-0.510148	0.452540
Zn3	Zn	1.406242	-0.359305	0.442435
Zn4	Zn	1.396022	-0.510141	0.628181
O5	O	1.488957	-0.434728	0.535313
O6	O	1.727558	-0.379337	0.596144
O7	O	1.549725	-0.490135	0.304178
O8	O	1.438097	-0.233060	0.457288
O9	O	1.720047	-0.490149	0.474510
O10	O	1.567148	-0.233071	0.586346
O11	O	1.428185	-0.379311	0.296755
O12	O	1.257866	-0.379304	0.467066
O13	O	1.420680	-0.490137	0.773864
O14	O	1.250358	-0.490123	0.603533
O15	O	1.557239	-0.379330	0.766456
O16	O	1.539816	-0.636394	0.484288
O17	O	1.410768	-0.636389	0.613331
C18	C	1.215991	-0.434712	0.535298
C19	C	1.099213	-0.434726	0.535318
C20	C	1.040463	-0.492522	0.606271
C21	C	0.930738	-0.492533	0.606283
C22	C	0.938524	-0.376951	0.464380
C23	C	1.048247	-0.376936	0.464373
C24	C	1.035967	-0.559255	0.688195
C25	C	0.926242	-0.559266	0.688207
C26	C	1.473102	-0.669126	0.551023
C27	C	1.466416	-0.769402	0.557779
C28	C	1.588367	-0.957776	0.436210
C29	C	1.582087	-1.051994	0.442555
C30	C	1.447584	-1.052059	0.576816
C31	C	1.453863	-0.957841	0.570472
C32	C	1.524256	-0.910702	0.500166
C33	C	1.530529	-0.816482	0.493817
C34	C	1.396032	-0.816549	0.628083
C35	C	1.389752	-0.910767	0.634428
C36	C	1.762989	-0.434746	0.535329
C37	C	1.879765	-0.434753	0.535336
C38	C	1.488960	-0.434735	0.809347
C39	C	1.488961	-0.434738	0.926124
C40	C	1.504902	-0.199416	0.519565
C41	C	1.511697	-0.099139	0.512854
C42	C	1.560057	-0.377048	1.086855
C43	C	1.560059	-0.377048	0.977131
C44	C	1.417862	-0.492438	0.984847
C45	C	1.417864	-0.492441	1.094569
C46	C	1.642150	-0.310426	1.082399
C47	C	1.642153	-0.310426	0.972675
C48	C	1.488949	-0.434743	1.262347
C49	C	1.488961	-0.434741	1.145570
H50	H	0.897013	-0.329900	0.406620
H51	H	0.891747	-0.629114	0.670962
H52	H	1.065520	-0.625581	0.663362
H53	H	1.587843	-0.778103	0.436567
C54	C	1.657702	-0.813315	0.366863
C55	C	1.665732	-0.905954	0.358927
H56	H	1.705460	-0.781325	0.319144
H57	H	1.674057	-0.797848	0.436416
H58	H	1.588144	-0.797943	0.350392
H59	H	1.735288	-0.921327	0.375405
H60	H	1.649384	-0.921427	0.289357
H61	H	1.332444	-0.949160	0.691672
H62	H	1.634295	-1.090318	0.390477
H63	H	1.722254	-0.329142	1.113431
H64	H	1.390281	-1.090455	0.634063
C65	C	1.756713	-0.432417	0.968805
C66	C	1.744214	-0.344205	0.928995
H67	H	1.819722	-0.453268	0.941843
H68	H	1.698729	-0.470247	0.948337
H69	H	1.760181	-0.433555	1.043236
H70	H	1.740738	-0.343068	0.854564
H71	H	1.802213	-0.306366	0.949457
C72	C	1.345930	-0.672149	0.677980
C73	C	1.325557	-0.764803	0.698393
H74	H	1.302425	-0.640206	0.721388
H75	H	1.331639	-0.656747	0.606346
H76	H	1.417542	-0.656657	0.692380
H77	H	1.253946	-0.780296	0.683985
H78	H	1.339841	-0.780211	0.770043
C79	C	1.605118	-0.158901	1.007680
C80	C	1.619105	-0.216106	0.926151
H81	H	1.590880	-0.100677	0.978956
H82	H	1.667115	-0.155096	1.048781
H83	H	1.547858	-0.182128	1.050584
H84	H	1.676371	-0.192882	0.883251
H85	H	1.557101	-0.219907	0.885032
C86	C	1.277315	-0.606502	1.091170
C87	C	1.339719	-0.555864	1.159110
H88	H	1.229067	-0.645654	1.131017
H89	H	1.320755	-0.641007	1.050688
H90	H	1.239789	-0.567184	1.045740
H91	H	1.377252	-0.595182	1.204535
H92	H	1.296274	-0.521357	1.199610
H93	H	1.359978	-0.539415	0.943308
H94	H	1.096078	-0.329867	0.406603
C95	C	0.825957	-0.449350	0.766984
C96	C	0.882571	-0.525639	0.790366
H97	H	0.799000	-0.428587	0.830051
H98	H	0.769508	-0.464350	0.721471
H99	H	0.870974	-0.403368	0.733585
H100	H	0.837551	-0.571623	0.823758
H101	H	0.939027	-0.510641	0.835896
C102	C	1.037043	-0.597074	0.873645
C103	C	1.077876	-0.534137	0.796401
H104	H	1.062911	-0.581562	0.940444
H105	H	1.057931	-0.655255	0.859254
H106	H	0.962593	-0.597075	0.873632
H107	H	1.152327	-0.534140	0.796409
H108	H	1.056995	-0.475941	0.810796
H109	H	1.617497	-0.244055	1.111990
