data_functionalizedCrystal
_audit_creation_method	'MofGen! by Chris Wilmer'
_symmetry_space_group_name_H-M	'P1'
_symmetry_Int_Tables_number	1
_symmetry_cell_setting	triclinic
loop_
_symmetry_equiv_pos_as_xyz
  x,y,z
_cell_length_a	11.792241
_cell_length_b	17.038272
_cell_length_c	10.868271
_cell_angle_alpha	89.994627
_cell_angle_beta	89.999893
_cell_angle_gamma	87.652486
loop_
_atom_site_label
_atom_site_type_symbol
_atom_site_fract_x
_atom_site_fract_y
_atom_site_fract_z
O1	O	1.516303	0.107207	-0.102203
O2	O	1.186930	0.118256	-0.102232
O3	O	1.349659	-0.001093	-0.102208
O4	O	1.353574	0.226555	-0.102227
O5	O	1.349644	-0.001097	0.102436
O6	O	1.186915	0.118251	0.102412
O7	O	1.516288	0.107202	0.102441
Zn8	Zn	1.351599	0.112726	0.134919
Zn9	Zn	1.351618	0.112732	-0.134710
O10	O	1.353559	0.226551	0.102417
C11	C	1.144571	0.117559	0.000086
C12	C	1.018375	0.115482	0.000076
C13	C	0.787328	0.111662	0.000111
C14	C	0.915899	0.113785	0.000092
C15	C	1.346090	-0.030239	0.000114
C16	C	1.335466	-0.117079	0.000112
C17	C	1.433006	-0.166762	0.000122
C18	C	1.423017	-0.248357	0.000110
C19	C	1.315487	-0.280267	0.000096
C20	C	1.217940	-0.230577	0.000083
C21	C	1.227930	-0.148984	0.000086
C22	C	1.280194	-0.526181	0.000076
C23	C	1.270211	-0.607780	0.000076
C24	C	1.475289	-0.625554	0.000101
C25	C	1.485270	-0.543958	0.000112
C26	C	1.387723	-0.494276	0.000092
C27	C	1.305274	-0.363669	0.000087
C28	C	1.397937	-0.410875	0.000092
C29	C	1.558647	0.107899	0.000120
C30	C	1.684843	0.109976	0.000122
C31	C	1.357127	0.255697	0.000093
C32	C	1.367751	0.342537	0.000086
N33	N	1.351594	0.112721	0.318933
N34	N	1.351632	0.112731	-0.318724
C35	C	1.351612	0.112730	0.569939
C36	C	1.351599	0.112728	0.430261
H37	H	1.520568	-0.140788	0.000141
H38	H	1.148503	-0.108532	0.000078
C39	C	1.174387	-0.472151	0.000254
C40	C	1.174136	-0.424779	0.105521
C41	C	1.076689	-0.374985	0.105719
H42	H	1.108832	-0.502742	0.000313
H43	H	1.174024	-0.439903	-0.071075
H44	H	1.174489	-0.457023	0.176832
H45	H	1.239670	-0.394171	0.105485
H46	H	1.076326	-0.342737	0.034389
H47	H	1.011141	-0.405582	0.105774
H48	H	1.076511	-0.342832	0.177134
H49	H	1.502445	-0.288806	0.000120
C50	C	1.602120	-0.509467	0.000070
C51	C	1.685406	-0.570442	0.000049
C52	C	1.793061	-0.538699	0.000003
H53	H	1.610426	-0.478025	0.071420
H54	H	1.610350	-0.478022	-0.071318
H55	H	1.677179	-0.601875	0.071429
H56	H	1.677137	-0.601889	-0.071296
H57	H	1.801292	-0.507254	-0.071384
H58	H	1.801356	-0.507258	0.071355
H59	H	1.849584	-0.580065	-0.000022
C60	C	1.581152	-0.679534	-0.000145
C61	C	1.581429	-0.726872	-0.105450
C62	C	1.678944	-0.776600	-0.105732
H63	H	1.581619	-0.711813	0.071133
H64	H	1.646653	-0.648871	-0.000205
H65	H	1.515946	-0.757533	-0.105378
H66	H	1.580980	-0.694615	-0.176745
H67	H	1.744445	-0.745937	-0.105792
H68	H	1.679402	-0.808874	-0.034449
H69	H	1.679150	-0.808720	-0.177184
C70	C	1.153484	-0.642467	0.000309
C71	C	1.141733	-0.688777	0.105611
C72	C	1.034220	-0.720734	0.105879
H73	H	1.145217	-0.673980	-0.070970
H74	H	1.096786	-0.601212	0.000362
H75	H	1.198415	-0.730026	0.105547
H76	H	1.149978	-0.657282	0.176908
H77	H	0.977522	-0.679479	0.105932
H78	H	1.025963	-0.752243	0.034595
H79	H	1.026229	-0.752153	0.177331
C80	C	1.514609	-0.376125	-0.000084
C81	C	1.526331	-0.329778	-0.105351
C82	C	1.633788	-0.297737	-0.105542
H83	H	1.571384	-0.417315	-0.000138
H84	H	1.522766	-0.344623	0.071245
H85	H	1.518185	-0.361277	-0.176662
H86	H	1.469581	-0.288575	-0.105319
H87	H	1.641945	-0.266236	-0.034213
H88	H	1.690554	-0.338933	-0.105593
H89	H	1.641751	-0.266282	-0.176958
H90	H	1.130387	-0.256565	0.000064
H91	H	1.217723	-0.389660	0.000079
