data_functionalizedCrystal
_audit_creation_method	'MofGen! by Chris Wilmer'
_symmetry_space_group_name_H-M	'P1'
_symmetry_Int_Tables_number	1
_symmetry_cell_setting	triclinic
loop_
_symmetry_equiv_pos_as_xyz
  x,y,z
_cell_length_a	31.640172
_cell_length_b	15.698487
_cell_length_c	31.640172
_cell_angle_alpha	120.007076
_cell_angle_beta	120.000274
_cell_angle_gamma	90.004929
loop_
_atom_site_label
_atom_site_type_symbol
_atom_site_fract_x
_atom_site_fract_y
_atom_site_fract_z
Zr1	Zr	0.407169	-0.111843	-0.462616
O2	O	0.339677	-0.247908	-0.550805
O3	O	0.427861	-0.070110	-0.374431
O4	O	0.427858	-0.247852	-0.462611
O5	O	0.339680	0.070015	-0.462626
O6	O	0.497415	-0.247834	-0.462603
O7	O	0.339679	-0.070166	-0.462625
O8	O	0.497420	0.070115	-0.304864
O9	O	0.339675	-0.247933	-0.620365
O10	O	0.488593	-0.052324	-0.410694
O11	O	0.436684	0.052277	-0.410702
O12	O	0.436680	-0.156991	-0.514523
O13	O	0.384771	-0.052389	-0.514531
Zr14	Zr	0.518105	0.111759	-0.462604
Zr15	Zr	0.518104	-0.111814	-0.462602
Zr16	Zr	0.407169	0.111729	-0.462618
Zr17	Zr	0.407166	-0.111883	-0.573555
Zr18	Zr	0.518108	0.111799	-0.351664
O19	O	0.497413	0.070026	-0.550789
O20	O	0.497412	-0.247866	-0.550785
O21	O	0.339677	0.069984	-0.550809
O22	O	0.585597	0.247824	-0.374415
O23	O	0.585597	-0.070068	-0.374411
O24	O	0.427861	0.247781	-0.374435
O25	O	0.585594	-0.070100	-0.462594
O26	O	0.497416	0.247768	-0.462608
O27	O	0.427859	0.247750	-0.462617
O28	O	0.585594	0.070081	-0.462595
O29	O	0.427853	-0.247909	-0.620354
O30	O	0.497420	0.247825	-0.304866
O31	O	0.585599	0.247849	-0.304855
O32	O	0.585599	0.070138	-0.304853
O33	O	0.339675	-0.070222	-0.620367
O34	O	0.427854	-0.070199	-0.620356
O35	O	0.488593	0.156907	-0.410697
O36	O	0.540503	0.052305	-0.410689
O37	O	0.488590	-0.052362	-0.514518
O38	O	0.436681	0.052240	-0.514526
C39	C	0.323874	-0.000079	-0.462627
C40	C	0.276779	-0.000092	-0.462633
C41	C	0.462641	0.000008	-0.323841
C42	C	0.462642	0.000025	-0.276744
C43	C	0.462637	0.279613	-0.462613
C44	C	0.462638	0.374526	-0.462614
C45	C	0.011870	0.054614	-0.408407
C46	C	-0.165115	0.054635	-0.408396
O47	O	-0.164955	0.101138	-0.362303
N48	N	-0.214342	-0.000002	-0.462594
C49	C	-0.219323	-0.054642	-0.516797
O50	O	-0.265255	-0.101104	-0.562895
C51	C	-0.042338	-0.054656	-0.516807
C52	C	0.006889	-0.000024	-0.462606
C53	C	0.061095	0.109242	-0.354211
C54	C	0.105339	0.109231	-0.354214
C55	C	0.100357	0.054593	-0.408413
C56	C	0.051132	-0.000035	-0.462609
C57	C	-0.047319	-0.109289	-0.571010
C58	C	-0.003068	-0.109285	-0.571007
C59	C	0.046159	-0.054654	-0.516807
C60	C	0.090394	-0.054683	-0.516812
N61	N	0.139621	-0.000047	-0.462615
C62	C	0.144603	0.054592	-0.408415
C63	C	-0.312240	-0.054632	-0.516788
C64	C	-0.356486	-0.054630	-0.516786
C65	C	-0.302275	0.054648	-0.408385
C66	C	-0.258029	0.054639	-0.408388
C67	C	-0.263013	0.000004	-0.462591
C68	C	0.237515	0.054565	-0.408426
C69	C	0.281760	0.054546	-0.408434
C70	C	0.227545	-0.054727	-0.516834
C71	C	0.183304	-0.054713	-0.516827
C72	C	0.188292	-0.000059	-0.462618
O73	O	0.090273	-0.101152	-0.562881
O74	O	0.190539	0.101066	-0.362324
C75	C	-0.032373	0.054624	-0.408404
C76	C	-0.081598	-0.000003	-0.462600
C77	C	-0.086579	-0.054642	-0.516799
C78	C	-0.125844	-0.000002	-0.462598
C79	C	-0.120862	0.054636	-0.408398
C80	C	-0.071635	0.109273	-0.354201
C81	C	-0.027391	0.109263	-0.354204
C82	C	-0.135807	-0.109278	-0.570996
C83	C	-0.180048	-0.109264	-0.570989
C84	C	-0.175067	-0.054626	-0.516789
C85	C	0.601400	-0.000005	-0.462592
C86	C	0.648495	0.000008	-0.462586
C87	C	0.462636	-0.279697	-0.462607
C88	C	0.462636	-0.374610	-0.462605
C89	C	0.462638	0.548311	-0.462604
C90	C	0.462639	0.451607	-0.462607
C91	C	0.424310	-0.077305	-0.023075
C92	C	0.424304	-0.077332	0.153906
O93	O	0.391726	-0.143059	0.144196
N94	N	0.462624	-0.000080	0.214362
C95	C	0.500950	0.077180	0.230572
O96	O	0.533547	0.142881	0.286055
C97	C	0.500958	0.077202	0.053592
C98	C	0.462633	-0.000049	-0.006864
C99	C	0.385988	-0.154551	-0.083528
C100	C	0.385989	-0.154540	-0.127770
C101	C	0.424311	-0.077284	-0.111559
C102	C	0.462633	-0.000039	-0.051106
C103	C	0.539286	0.154457	0.069803
C104	C	0.539286	0.154453	0.025552
C105	C	0.500960	0.077202	-0.034904
C106	C	0.500956	0.077228	-0.079137
N107	N	0.462636	-0.000024	-0.139593
C108	C	0.424314	-0.077280	-0.155804
C109	C	0.500943	0.077165	0.323487
C110	C	0.500940	0.077161	0.367732
C111	C	0.424294	-0.077352	0.291062
C112	C	0.424295	-0.077343	0.246817
C113	C	0.462623	-0.000087	0.263031
C114	C	0.424317	-0.077251	-0.248712
C115	C	0.424320	-0.077231	-0.292955
C116	C	0.500967	0.077279	-0.216282
C117	C	0.500963	0.077262	-0.172043
C118	C	0.462636	-0.000012	-0.188263
O119	O	0.533520	0.142914	-0.069472
O120	O	0.391729	-0.142984	-0.211289
C121	C	0.424310	-0.077316	0.021167
C122	C	0.462632	-0.000071	0.081620
C123	C	0.500954	0.077185	0.097831
C124	C	0.462630	-0.000075	0.125865
C125	C	0.424307	-0.077331	0.109655
C126	C	0.385987	-0.154582	0.049199
C127	C	0.385988	-0.154572	0.004957
C128	C	0.539274	0.154437	0.158287
C129	C	0.539271	0.154421	0.202526
C130	C	0.500948	0.077165	0.186315
C131	C	0.462629	-0.000088	0.398620
C132	C	0.462618	-0.000095	0.351521
C133	C	0.601404	0.000045	-0.323824
C134	C	0.648500	0.000075	-0.276721
C135	C	0.462641	0.279663	-0.323844
C136	C	0.462643	0.374593	-0.276749
C137	C	0.601405	0.279700	-0.323827
C138	C	0.648501	0.374642	-0.276725
C139	C	0.323869	-0.279785	-0.601393
C140	C	0.276773	-0.374727	-0.648495
C141	C	0.323870	-0.000129	-0.601396
C142	C	0.276773	-0.000159	-0.648499
C143	C	0.462632	-0.279747	-0.601375
C144	C	0.462631	-0.374677	-0.648471
C145	C	0.643521	-0.054536	-0.254603
C146	C	0.687769	-0.054529	-0.210352
C147	C	0.736995	0.000095	-0.188215
C148	C	0.741974	0.054708	-0.210336
C149	C	0.697727	0.054694	-0.254590
C150	C	0.489740	0.473797	-0.254629
C151	C	0.489739	0.563002	-0.210384
C152	C	0.462644	0.553000	-0.188256
C153	C	0.435544	0.453785	-0.210380
C154	C	0.435542	0.364582	-0.254627
C155	C	0.697719	0.364627	-0.254602
C156	C	0.741975	0.453827	-0.210351
C157	C	0.737013	0.553041	-0.188221
C158	C	0.687790	0.563054	-0.210349
C159	C	0.643534	0.473855	-0.254602
C160	C	0.227555	-0.364712	-0.670624
C161	C	0.183298	-0.453911	-0.714888
C162	C	0.188261	-0.553125	-0.737020
C163	C	0.237484	-0.563138	-0.714889
C164	C	0.281739	-0.473939	-0.670629
C165	C	0.281753	0.054443	-0.670621
C166	C	0.237505	0.054411	-0.714885
C167	C	0.188278	-0.000216	-0.737024
C168	C	0.183300	-0.054825	-0.714900
C169	C	0.227547	-0.054799	-0.670640
C170	C	0.489731	-0.364641	-0.670585
C171	C	0.489740	-0.453829	-0.714831
C172	C	0.462645	-0.553051	-0.736965
C173	C	0.435544	-0.563085	-0.714846
C174	C	0.435539	-0.473898	-0.670598
H175	H	0.241585	0.099070	-0.364284
O176	O	0.406339	-0.670110	-0.738707
H177	H	0.387500	-0.662118	-0.715890
H178	H	0.413478	0.283808	-0.272631
O179	O	-0.317628	-0.113592	-0.575258
H180	H	-0.298768	-0.173950	-0.577846
O181	O	0.682445	0.670070	-0.186473
H182	H	0.640786	0.662061	-0.209290
O183	O	0.795060	0.443006	-0.186510
H184	H	0.825004	0.521693	-0.152033
O185	O	0.382986	-0.160564	-0.358163
H186	H	0.356344	-0.214293	-0.361999
H187	H	0.143214	-0.099301	-0.732932
O188	O	0.406332	0.443025	-0.186495
H189	H	0.364680	0.399712	-0.223632
O190	O	0.462653	0.649221	-0.140529
H191	H	0.439258	0.625608	-0.128857
H192	H	0.241569	0.098884	-0.732891
O193	O	0.130211	-0.443101	-0.738750
H194	H	0.108751	-0.481135	-0.730268
O195	O	0.462651	-0.649241	-0.784692
H196	H	0.422300	-0.696359	-0.825020
O197	O	0.334857	0.113474	-0.349973
H198	H	0.330884	0.151476	-0.312286
O199	O	0.158432	0.168162	-0.295755
H200	H	0.154454	0.206159	-0.258071
O201	O	0.130206	-0.113637	-0.575284
H202	H	0.134177	-0.151628	-0.612972
H203	H	0.354781	-0.217467	-0.096737
H204	H	0.701769	0.283850	-0.272613
O205	O	0.222174	-0.113682	-0.646775
H206	H	0.180509	-0.151659	-0.669604
O207	O	0.518965	0.484608	-0.278490
H208	H	0.548921	0.446620	-0.269985
O209	O	0.784749	0.649242	-0.140482
H210	H	0.784732	0.696334	-0.157459
O211	O	0.382977	-0.160587	-0.266208
H212	H	0.356330	-0.214286	-0.315680
H213	H	-0.087395	-0.153774	-0.615146
H214	H	0.393084	-0.140242	0.197593
H215	H	0.511809	0.643779	-0.192376
O216	O	0.580623	0.237786	0.043040
H217	H	0.607267	0.291501	0.092512
H218	H	0.511795	-0.283857	-0.652571
H219	H	0.603461	0.482024	-0.272609
O220	O	0.066474	0.168164	-0.295748
H221	H	0.108140	0.206135	-0.258069
H222	H	0.354784	-0.217454	-0.176993
O223	O	0.222196	-0.257707	-0.646761
H224	H	0.180533	-0.265746	-0.669596
O225	O	0.140527	-0.649330	-0.784765
H226	H	0.105470	-0.625687	-0.796430
O227	O	0.542303	0.160585	-0.198808
H228	H	0.523882	0.205107	-0.217136
H229	H	0.511808	-0.445639	-0.732835
H230	H	0.321813	-0.482106	-0.652612
O231	O	0.242834	-0.670150	-0.738758
H232	H	0.203789	-0.730483	-0.773247
O233	O	0.334845	0.113349	-0.646756
H234	H	0.330865	0.151291	-0.669589
H235	H	0.152254	-0.000229	-0.773063
O236	O	0.795070	0.113621	-0.186458
H237	H	0.799575	0.197563	-0.166295
O238	O	0.406300	-0.484727	-0.646755
H239	H	0.387457	-0.568709	-0.669589
H240	H	-0.298225	0.099130	-0.364254
O241	O	-0.204934	0.113563	-0.349930
H242	H	-0.200428	0.197508	-0.323943
O243	O	-0.409580	-0.113563	-0.575244
H244	H	-0.405604	-0.151545	-0.612930
O245	O	0.382964	-0.160692	0.273579
H246	H	0.389409	-0.147716	0.314505
O247	O	0.344657	-0.237921	0.031716
H248	H	0.351103	-0.224947	0.072642
O249	O	-0.008443	-0.168222	-0.629470
H250	H	-0.050108	-0.206213	-0.667154
H251	H	-0.139871	-0.153774	-0.615133
H252	H	0.701788	0.099171	-0.272593
H253	H	0.012688	0.153751	-0.310068
O254	O	0.222176	-0.113783	-0.575292
H255	H	0.261215	-0.104643	-0.566183
H256	H	0.532155	0.140080	0.336699
H257	H	-0.067585	0.153755	-0.310070
H258	H	-0.220130	-0.153762	-0.615129
O259	O	0.542277	0.160479	0.432936
H260	H	0.568928	0.214186	0.436768
H261	H	0.570495	0.217362	0.119023
H262	H	0.354779	-0.217476	-0.044267
O263	O	0.542297	0.160581	-0.106834
H264	H	0.568946	0.214301	-0.102997
H265	H	0.570482	0.217348	0.171496
O266	O	0.580614	0.237738	0.267733
H267	H	0.607265	0.291446	0.271566
H268	H	0.603442	-0.099031	-0.272627
H269	H	0.773020	0.000099	-0.152179
O270	O	0.682394	-0.113426	-0.186492
H271	H	0.640729	-0.151391	-0.209314
