data_functionalizedCrystal
_audit_creation_method	'MofGen! by Chris Wilmer'
_symmetry_space_group_name_H-M	'P1'
_symmetry_Int_Tables_number	1
_symmetry_cell_setting	triclinic
loop_
_symmetry_equiv_pos_as_xyz
  x,y,z
_cell_length_a	18.215407
_cell_length_b	16.625546
_cell_length_c	18.215399
_cell_angle_alpha	89.970405
_cell_angle_beta	89.980650
_cell_angle_gamma	90.022916
loop_
_atom_site_label
_atom_site_type_symbol
_atom_site_fract_x
_atom_site_fract_y
_atom_site_fract_z
Zn1	Zn	1.125081	-0.320997	-0.416110
Zn2	Zn	1.458414	0.012336	-0.082776
Zn3	Zn	1.791747	0.345670	0.250557
Zn4	Zn	1.124995	-0.455838	-0.293041
Zn5	Zn	1.458329	-0.122505	0.040293
Zn6	Zn	1.791662	0.210829	0.373626
Zn7	Zn	1.002014	-0.321024	-0.293057
Zn8	Zn	1.335348	0.012309	0.040276
Zn9	Zn	1.668681	0.345642	0.373610
Zn10	Zn	1.001984	-0.455792	-0.416066
Zn11	Zn	1.335318	-0.122459	-0.082732
Zn12	Zn	1.668651	0.210874	0.250601
O13	O	1.063519	-0.388413	-0.354568
O14	O	1.396852	-0.055080	-0.021235
O15	O	1.730185	0.278254	0.312098
O16	O	1.228054	-0.338892	-0.399796
O17	O	1.561387	-0.005558	-0.066463
O18	O	1.894720	0.327775	0.266871
O19	O	1.108659	-0.437985	-0.190059
O20	O	1.441992	-0.104652	0.143275
O21	O	1.775325	0.228681	0.476608
O22	O	1.018388	-0.208188	-0.309405
O23	O	1.351721	0.125145	0.023928
O24	O	1.685054	0.458478	0.357261
O25	O	1.227991	-0.437959	-0.309378
O26	O	1.561324	-0.104626	0.023956
O27	O	1.894658	0.228708	0.357289
O28	O	1.108804	-0.208168	-0.399812
O29	O	1.442137	0.125165	-0.066478
O30	O	1.775471	0.458499	0.266855
O31	O	1.018305	-0.338938	-0.190070
O32	O	1.351638	-0.005605	0.143263
O33	O	1.684972	0.327728	0.476596
O34	O	0.899026	-0.338894	-0.309363
O35	O	1.232360	-0.005560	0.023971
O36	O	1.565693	0.327773	0.357304
O37	O	1.018337	-0.437881	-0.519056
O38	O	1.351670	-0.104547	-0.185722
O39	O	1.685003	0.228786	0.147611
O40	O	0.899004	-0.437907	-0.399737
O41	O	1.232337	-0.104574	-0.066403
O42	O	1.565671	0.228759	0.266930
O43	O	1.108775	-0.338847	-0.519088
O44	O	1.442108	-0.005514	-0.185755
O45	O	1.775442	0.327819	0.147579
O46	O	1.108629	-0.568664	-0.309335
O47	O	1.441963	-0.235331	0.023998
O48	O	1.775296	0.098002	0.357332
O49	O	1.018254	-0.568631	-0.399721
O50	O	1.351587	-0.235297	-0.066387
O51	O	1.684921	0.098036	0.266946
C52	C	0.872313	-0.388399	-0.354547
C53	C	1.205646	-0.055066	-0.021214
C54	C	1.538979	0.278268	0.312120
C55	C	0.790514	-0.388413	-0.354556
C56	C	1.123847	-0.055079	-0.021222
C57	C	1.457180	0.278254	0.312111
C58	C	0.602327	-0.440050	-0.401554
C59	C	0.935661	-0.106717	-0.068221
C60	C	1.268994	0.226617	0.265113
C61	C	0.525469	-0.440053	-0.401563
C62	C	0.858802	-0.106719	-0.068230
C63	C	1.192135	0.226614	0.265103
C64	C	0.525462	-0.336790	-0.307598
C65	C	0.858795	-0.003457	0.025735
C66	C	1.192129	0.329876	0.359068
C67	C	0.602319	-0.336784	-0.307593
C68	C	0.935653	-0.003451	0.025740
C69	C	1.268986	0.329882	0.359073
C70	C	0.640750	-0.388419	-0.354570
C71	C	0.974083	-0.055085	-0.021237
C72	C	1.307417	0.278248	0.312096
C73	C	0.487034	-0.388427	-0.354584
C74	C	0.820367	-0.055094	-0.021251
C75	C	1.153701	0.278239	0.312082
C76	C	0.403700	-0.388430	-0.354594
C77	C	0.737034	-0.055096	-0.021261
C78	C	1.070367	0.278237	0.312073
C79	C	0.724089	-0.388416	-0.354562
C80	C	1.057422	-0.055082	-0.021228
C81	C	1.390756	0.278251	0.312105
C82	C	1.063449	-0.597904	-0.354537
C83	C	1.396782	-0.264570	-0.021204
C84	C	1.730116	0.068763	0.312129
C85	C	1.063487	-0.687525	-0.354549
C86	C	1.396820	-0.354192	-0.021215
C87	C	1.730153	-0.020858	0.312118
C88	C	1.063615	-1.015700	-0.354625
C89	C	1.396948	-0.682367	-0.021292
C90	C	1.730282	-0.349034	0.312041
C91	C	1.063577	-0.924392	-0.354606
C92	C	1.396910	-0.591059	-0.021273
C93	C	1.730244	-0.257725	0.312060
C94	C	1.063550	-0.851616	-0.354587
C95	C	1.396884	-0.518282	-0.021253
C96	C	1.730217	-0.184949	0.312080
C97	C	1.063513	-0.760301	-0.354568
C98	C	1.396847	-0.426968	-0.021235
C99	C	1.730180	-0.093635	0.312098
C100	C	1.255472	-0.388427	-0.354590
C101	C	1.588805	-0.055094	-0.021256
C102	C	1.922138	0.278239	0.312077
C103	C	1.337271	-0.388433	-0.354599
C104	C	1.670604	-0.055100	-0.021266
C105	C	2.003937	0.278233	0.312068
C106	C	1.063562	-0.388356	-0.546521
C107	C	1.396895	-0.055022	-0.213188
C108	C	1.730229	0.278311	0.120145
C109	C	1.063580	-0.388331	-0.628320
C110	C	1.396914	-0.054998	-0.294987
C111	C	1.730247	0.278335	0.038347
C112	C	1.063609	-0.178104	-0.354615
C113	C	1.396942	0.155229	-0.021282
C114	C	1.730275	0.488563	0.312051
C115	C	1.063647	-0.088483	-0.354635
C116	C	1.396980	0.244850	-0.021302
C117	C	1.730314	0.578184	0.312031
C118	C	1.110699	-0.336695	-0.893396
C119	C	1.444032	-0.003362	-0.560063
C120	C	1.777365	0.329972	-0.226729
C121	C	1.110690	-0.336717	-0.816537
C122	C	1.444023	-0.003384	-0.483204
C123	C	1.777357	0.329950	-0.149870
C124	C	1.016522	-0.439851	-0.816493
C125	C	1.349855	-0.106518	-0.483160
C126	C	1.683188	0.226816	-0.149826
C127	C	1.016535	-0.439833	-0.893351
C128	C	1.349868	-0.106499	-0.560017
C129	C	1.683201	0.226834	-0.226684
C130	C	1.063622	-0.388250	-0.931800
C131	C	1.396955	-0.054917	-0.598467
C132	C	1.730289	0.278417	-0.265133
C133	C	1.063601	-0.388290	-0.778084
C134	C	1.396934	-0.054957	-0.444750
C135	C	1.730267	0.278376	-0.111417
C136	C	1.063591	-0.388314	-0.694750
C137	C	1.396924	-0.054981	-0.361417
C138	C	1.730257	0.278352	-0.028083
C139	C	1.063633	-0.388227	-1.015139
C140	C	1.396966	-0.054894	-0.681806
C141	C	1.730300	0.278440	-0.348472
C142	C	1.063518	-0.388412	-0.163362
C143	C	1.396851	-0.055078	0.169971
C144	C	1.730185	0.278255	0.503305
C145	C	1.063642	-0.388209	-0.081563
C146	C	1.396976	-0.054876	0.251770
C147	C	1.730309	0.278458	0.585103
H148	H	0.633616	-0.482092	-0.439808
H149	H	0.966949	-0.148759	-0.106474
H150	H	1.300282	0.184575	0.226859
Br151	Br	0.473326	-0.510123	-0.465334
Br152	Br	0.806660	-0.176790	-0.132000
Br153	Br	1.139993	0.156544	0.201333
H154	H	1.149025	-0.294736	-0.785272
H155	H	1.482359	0.038597	-0.451939
H156	H	1.815692	0.371930	-0.118605
H157	H	0.978199	-0.481819	-0.924620
H158	H	1.311532	-0.148486	-0.591287
H159	H	1.644865	0.184847	-0.257953
H160	H	0.494162	-0.294753	-0.269350
H161	H	0.827496	0.038581	0.063983
H162	H	1.160829	0.371914	0.397316
Br163	Br	0.654469	-0.266700	-0.243832
Br164	Br	0.987803	0.066633	0.089501
Br165	Br	1.321136	0.399966	0.422835
Br166	Br	1.174600	-0.266688	-0.945575
Br167	Br	1.507933	0.066646	-0.612242
Br168	Br	1.841266	0.399979	-0.278909
Br169	Br	0.952616	-0.509848	-0.764307
Br170	Br	1.285950	-0.176514	-0.430974
Br171	Br	1.619283	0.156819	-0.097641
