data_functionalizedCrystal
_audit_creation_method	'MofGen! by Chris Wilmer'
_symmetry_space_group_name_H-M	'P1'
_symmetry_Int_Tables_number	1
_symmetry_cell_setting	triclinic
loop_
_symmetry_equiv_pos_as_xyz
  x,y,z
_cell_length_a	12.759401
_cell_length_b	12.759400
_cell_length_c	12.759393
_cell_angle_alpha	90.030490
_cell_angle_beta	90.019554
_cell_angle_gamma	90.014845
loop_
_atom_site_label
_atom_site_type_symbol
_atom_site_fract_x
_atom_site_fract_y
_atom_site_fract_z
Zn1	Zn	1.606266	-0.418211	0.593981
Zn2	Zn	2.106266	0.081789	1.093981
Zn3	Zn	1.606158	-0.593927	0.418301
Zn4	Zn	2.106158	-0.093927	0.918301
Zn5	Zn	1.430565	-0.418263	0.418321
Zn6	Zn	1.930565	0.081737	0.918321
Zn7	Zn	1.430557	-0.593849	0.593943
Zn8	Zn	1.930557	-0.093849	1.093943
O9	O	1.518387	-0.506062	0.506137
O10	O	2.018387	-0.006062	1.006137
O11	O	1.753273	-0.441531	0.570685
O12	O	2.253273	0.058469	1.070685
O13	O	1.582823	-0.570678	0.271283
O14	O	2.082823	-0.070678	0.771283
O15	O	1.453921	-0.271235	0.441647
O16	O	1.953921	0.228765	0.941647
O17	O	1.753193	-0.570628	0.441614
O18	O	2.253193	-0.070628	0.941614
O19	O	1.583008	-0.271197	0.570704
O20	O	2.083008	0.228803	1.070704
O21	O	1.453816	-0.441619	0.271297
O22	O	1.953816	0.058381	0.771297
O23	O	1.283543	-0.441544	0.441609
O24	O	1.783543	0.058456	0.941609
O25	O	1.453908	-0.570496	0.740969
O26	O	1.953908	-0.070496	1.240969
O27	O	1.283537	-0.570546	0.570638
O28	O	1.783537	-0.070546	1.070638
O29	O	1.583000	-0.441456	0.740997
O30	O	2.083000	0.058544	1.240997
O31	O	1.582815	-0.740937	0.441577
O32	O	2.082815	-0.240937	0.941577
O33	O	1.453802	-0.740880	0.570620
O34	O	1.953802	-0.240880	1.070620
C35	C	1.245419	-0.506043	0.506122
C36	C	1.745419	-0.006043	1.006122
C37	C	1.128643	-0.506060	0.506141
C38	C	1.628643	-0.006060	1.006141
C39	C	1.073805	-0.573339	0.573215
C40	C	1.573805	-0.073339	1.073215
C41	C	0.964081	-0.573352	0.573227
C42	C	1.464081	-0.073352	1.073227
C43	C	0.964042	-0.438805	0.439081
C44	C	1.464042	0.061195	0.939081
C45	C	1.073764	-0.438787	0.439075
C46	C	1.573764	0.061213	0.939075
C47	C	1.128684	-0.640612	0.640281
C48	C	1.628684	-0.140612	1.140281
C49	C	1.073846	-0.707898	0.707360
C50	C	1.573846	-0.207898	1.207360
C51	C	0.964122	-0.707911	0.707371
C52	C	1.464122	-0.207911	1.207371
C53	C	0.909236	-0.640639	0.640304
C54	C	1.409236	-0.140639	1.140304
C55	C	1.518324	-0.779030	0.506115
C56	C	2.018324	-0.279030	1.006115
C57	C	1.518394	-0.895806	0.506140
C58	C	2.018394	-0.395806	1.006140
C59	C	1.585645	-0.950663	0.439022
C60	C	2.085645	-0.450663	0.939022
C61	C	1.585710	-1.060387	0.439054
C62	C	2.085710	-0.560387	0.939054
C63	C	1.451262	-1.060388	0.573327
C64	C	1.951262	-0.560388	1.073327
C65	C	1.451204	-0.950666	0.573299
C66	C	1.951204	-0.450666	1.073299
C67	C	1.652835	-0.895804	0.371864
C68	C	2.152835	-0.395804	0.871864
C69	C	1.720091	-0.950660	0.304739
C70	C	2.220091	-0.450660	0.804739
C71	C	1.720156	-1.060384	0.304771
C72	C	2.220156	-0.560384	0.804771
C73	C	1.652964	-1.115252	0.371929
C74	C	2.152964	-0.615252	0.871929
C75	C	1.792420	-0.506082	0.506152
C76	C	2.292420	-0.006082	1.006152
C77	C	1.909196	-0.506091	0.506158
C78	C	2.409196	-0.006091	1.006158
C79	C	1.518465	-0.505961	0.780170
C80	C	2.018465	-0.005961	1.280170
C81	C	1.518499	-0.505918	0.896947
C82	C	2.018499	-0.005918	1.396947
C83	C	1.518478	-0.232029	0.506182
C84	C	2.018478	0.267971	1.006182
C85	C	1.518517	-0.115252	0.506201
C86	C	2.018517	0.384748	1.006201
C87	C	1.518369	-0.506087	0.233169
C88	C	2.018369	-0.006087	0.733169
C89	C	1.518539	-0.505834	0.116393
C90	C	2.018539	-0.005834	0.616393
C91	C	1.585722	-0.438716	0.951825
C92	C	2.085722	0.061284	1.451825
C93	C	1.585740	-0.438671	1.061549
C94	C	2.085740	0.061329	1.561549
C95	C	1.451308	-0.573039	1.061507
C96	C	1.951308	-0.073039	1.561507
C97	C	1.451285	-0.573078	0.951785
C98	C	1.951285	-0.073078	1.451785
H99	H	1.118542	-0.762662	0.761970
H100	H	1.618542	-0.262662	1.261970
H101	H	1.652787	-0.806461	0.371827
H102	H	2.152787	-0.306461	0.871827
F103	F	1.379782	-0.644515	1.119879
F104	F	1.879782	-0.144515	1.619879
F105	F	1.379728	-0.644603	0.893376
F106	F	1.879728	-0.144603	1.393376
H107	H	1.218027	-0.640611	0.640277
H108	H	1.718027	-0.140611	1.140277
H109	H	1.653031	-1.204596	0.371958
H110	H	2.153031	-0.704596	0.871958
H111	H	1.396442	-0.906001	0.627954
H112	H	1.896442	-0.406001	1.127954
F113	F	0.792456	-0.640649	0.640328
F114	F	1.292456	-0.140649	1.140328
F115	F	1.657254	-0.367236	0.893466
F116	F	2.157254	0.132764	1.393466
F117	F	0.905763	-0.779512	0.778769
F118	F	1.405763	-0.279512	1.278769
H119	H	0.919345	-0.384036	0.384477
H120	H	1.419345	0.115964	0.884477
F121	F	1.132129	-0.367181	0.367687
F122	F	1.632129	0.132819	0.867687
H123	H	1.774803	-0.905982	0.250068
H124	H	2.274803	-0.405982	0.750068
F125	F	1.791743	-1.118764	0.233342
F126	F	2.291743	-0.618764	0.733342
F127	F	1.657296	-0.367152	1.119950
F128	F	2.157296	0.132848	1.619950
H129	H	1.396557	-1.105069	0.628002
H130	H	1.896557	-0.605069	1.128002
