data_functionalizedCrystal
_audit_creation_method	'MofGen! by Chris Wilmer'
_symmetry_space_group_name_H-M	'P1'
_symmetry_Int_Tables_number	1
_symmetry_cell_setting	triclinic
loop_
_symmetry_equiv_pos_as_xyz
  x,y,z
_cell_length_a	13.032891
_cell_length_b	13.032721
_cell_length_c	11.169409
_cell_angle_alpha	82.853997
_cell_angle_beta	97.195481
_cell_angle_gamma	90.903621
loop_
_atom_site_label
_atom_site_type_symbol
_atom_site_fract_x
_atom_site_fract_y
_atom_site_fract_z
Zn1	Zn	1.520314	-0.609272	0.988811
Zn2	Zn	1.498342	-0.781265	0.809995
Zn3	Zn	1.348315	-0.587461	0.759911
Zn4	Zn	1.326463	-0.759322	0.982403
O5	O	1.423358	-0.684330	0.885280
O6	O	1.661314	-0.650398	0.988733
O7	O	1.478390	-0.755613	0.635402
O8	O	1.389471	-0.446450	0.771996
O9	O	1.645171	-0.776761	0.857357
O10	O	1.515839	-0.462474	0.940168
O11	O	1.368166	-0.613226	0.598606
O12	O	1.201502	-0.591948	0.765783
O13	O	1.352228	-0.739361	1.151202
O14	O	1.185447	-0.718213	0.929247
O15	O	1.494649	-0.629120	1.155910
O16	O	1.457201	-0.922259	0.851144
O17	O	1.330922	-0.906137	0.977812
C18	C	1.156159	-0.650333	0.841386
C19	C	1.041846	-0.635814	0.822640
C20	C	0.864806	-0.676907	0.875700
C21	C	0.982953	-0.691919	0.895074
C22	C	1.389334	-0.951514	0.919248
C23	C	1.374872	-1.065828	0.933835
C24	C	1.430961	-1.124743	0.877730
C25	C	1.416015	-1.242893	0.892805
C26	C	1.691601	-0.718460	0.929346
C27	C	1.805910	-0.733005	0.948125
C28	C	1.423452	-0.684226	1.198321
C29	C	1.423492	-0.684181	1.331721
C30	C	1.457544	-0.416106	0.851210
C31	C	1.472111	-0.301805	0.836692
C32	C	1.423334	-0.684367	0.573457
C33	C	1.423530	-0.684147	0.440054
H34	H	1.004808	-0.576664	0.746291
Cl35	Cl	0.807621	-0.585588	0.757829
H36	H	1.356931	-1.279920	0.952009
Cl37	Cl	1.040135	-0.783229	1.012965
H38	H	0.842956	-0.792140	1.024477
Cl39	Cl	1.522191	-1.067579	0.786343
H40	H	1.531203	-1.264780	0.777498
H41	H	1.315793	-1.102860	0.993036
