data_functionalizedCrystal
_audit_creation_method	'MofGen! by Chris Wilmer'
_symmetry_space_group_name_H-M	'P1'
_symmetry_Int_Tables_number	1
_symmetry_cell_setting	triclinic
loop_
_symmetry_equiv_pos_as_xyz
  x,y,z
_cell_length_a	14.908571
_cell_length_b	14.908178
_cell_length_c	14.908308
_cell_angle_alpha	89.778379
_cell_angle_beta	90.175053
_cell_angle_gamma	89.820760
loop_
_atom_site_label
_atom_site_type_symbol
_atom_site_fract_x
_atom_site_fract_y
_atom_site_fract_z
Zn1	Zn	1.319970	-0.467728	-0.559107
Zn2	Zn	1.320875	-0.609493	-0.400117
Zn3	Zn	1.179218	-0.450513	-0.401153
Zn4	Zn	1.161960	-0.608428	-0.541833
O5	O	1.245506	-0.534041	-0.475552
O6	O	1.445502	-0.494184	-0.544812
O7	O	1.309684	-0.581645	-0.274841
O8	O	1.204733	-0.327380	-0.429768
O9	O	1.446167	-0.598338	-0.428003
O10	O	1.308143	-0.340028	-0.545817
O11	O	1.205610	-0.464843	-0.275602
O12	O	1.051517	-0.463811	-0.413019
O13	O	1.175320	-0.596523	-0.669538
O14	O	1.038838	-0.579830	-0.516376
O15	O	1.291409	-0.493151	-0.682229
O16	O	1.292951	-0.734769	-0.411253
O17	O	1.176197	-0.733987	-0.515371
C18	C	1.012659	-0.519838	-0.462936
C19	C	0.913044	-0.513784	-0.457558
C20	C	0.712702	-0.623390	-0.554915
C21	C	0.619104	-0.617705	-0.549865
C22	C	0.632249	-0.496726	-0.442415
C23	C	0.725847	-0.502411	-0.447465
C24	C	0.766070	-0.565746	-0.503715
C25	C	0.859669	-0.571434	-0.508760
C26	C	0.872812	-0.450452	-0.401315
C27	C	0.779214	-0.444767	-0.396265
C28	C	1.232822	-0.766900	-0.461346
C29	C	1.227476	-0.866524	-0.455303
C30	C	1.325018	-1.066751	-0.564907
C31	C	1.319998	-1.160358	-0.559232
C32	C	1.212412	-1.147346	-0.438283
C33	C	1.217432	-1.053739	-0.443958
C34	C	1.273738	-1.013445	-0.507271
C35	C	1.278762	-0.919837	-0.512941
C36	C	1.171172	-0.906827	-0.391998
C37	C	1.166152	-1.000433	-0.386323
C38	C	1.479261	-0.548300	-0.488219
C39	C	1.578874	-0.554376	-0.493616
C40	C	1.231338	-0.546639	-0.709311
C41	C	1.225301	-0.552007	-0.808925
C42	C	1.258262	-0.300275	-0.489835
C43	C	1.263698	-0.200658	-0.495921
C44	C	1.334839	-0.454433	-1.009328
C45	C	1.329169	-0.459475	-1.102924
C46	C	1.208289	-0.567126	-1.089716
C47	C	1.213958	-0.562085	-0.996119
C48	C	1.277237	-0.505737	-0.955929
C49	C	1.282910	-0.500701	-0.862330
C50	C	1.162026	-0.608347	-0.849124
C51	C	1.156356	-0.613389	-0.942720
C52	C	1.259673	-0.521430	-0.242710
C53	C	1.265897	-0.515820	-0.143122
H54	H	0.599483	-0.445157	-0.396624
H55	H	1.115123	-0.650125	-0.805636
F56	F	1.140944	-0.627083	-1.132505
H57	H	1.334435	-0.454822	-0.829609
F58	F	0.736396	-0.377362	-0.336406
F59	F	0.929617	-0.389105	-0.346814
H60	H	1.129419	-0.863414	-0.345064
F61	F	0.562309	-0.679056	-0.604361
H62	H	1.386367	-0.408558	-0.976604
F63	F	1.338690	-0.876955	-0.580321
H64	H	1.370871	-1.033943	-0.616453
H65	H	1.361750	-1.203756	-0.606169
F66	F	1.390477	-0.404869	-1.159752
F67	F	1.152474	-1.190245	-0.370924
H68	H	1.104835	-0.659263	-0.975457
F69	F	0.902476	-0.638842	-0.568623
F70	F	1.106225	-1.043327	-0.318950
F71	F	0.755512	-0.690802	-0.614771
