data_functionalizedCrystal
_audit_creation_method	'MofGen! by Chris Wilmer'
_symmetry_space_group_name_H-M	'P1'
_symmetry_Int_Tables_number	1
_symmetry_cell_setting	triclinic
loop_
_symmetry_equiv_pos_as_xyz
  x,y,z
_cell_length_a	12.594517
_cell_length_b	12.594516
_cell_length_c	16.120297
_cell_angle_alpha	92.877768
_cell_angle_beta	92.884965
_cell_angle_gamma	90.016010
loop_
_atom_site_label
_atom_site_type_symbol
_atom_site_fract_x
_atom_site_fract_y
_atom_site_fract_z
Zn1	Zn	1.596748	-0.454279	-0.471271
Zn2	Zn	2.096748	0.045721	0.028729
Zn3	Zn	1.605666	-0.623247	-0.331872
Zn4	Zn	2.105666	-0.123247	0.168128
Zn5	Zn	1.427778	-0.445284	-0.331890
Zn6	Zn	1.927778	0.054716	0.168110
Zn7	Zn	1.418736	-0.632215	-0.471255
Zn8	Zn	1.918736	-0.132215	0.028745
O9	O	1.512232	-0.538756	-0.401572
O10	O	2.012232	-0.038756	0.098428
O11	O	1.746877	-0.476704	-0.452779
O12	O	2.246877	0.023296	0.047221
O13	O	1.589586	-0.592123	-0.215210
O14	O	2.089586	-0.092123	0.284790
O15	O	1.450245	-0.297533	-0.350393
O16	O	1.950245	0.202467	0.149607
O17	O	1.753429	-0.600845	-0.350363
O18	O	2.253429	-0.100845	0.149637
O19	O	1.574386	-0.304141	-0.452796
O20	O	2.074386	0.195859	0.047204
O21	O	1.458892	-0.461375	-0.215223
O22	O	1.958892	0.038625	0.284777
O23	O	1.277633	-0.470070	-0.350378
O24	O	1.777633	0.029930	0.149622
O25	O	1.434833	-0.616128	-0.587922
O26	O	1.934833	-0.116128	-0.087922
O27	O	1.270989	-0.607407	-0.452769
O28	O	1.770989	-0.107407	0.047231
O29	O	1.565618	-0.485400	-0.587933
O30	O	2.065618	0.014600	-0.087933
O31	O	1.580817	-0.773382	-0.350347
O32	O	2.080817	-0.273382	0.149653
O33	O	1.443480	-0.779970	-0.452752
O34	O	1.943480	-0.279970	0.047248
C35	C	1.235691	-0.538736	-0.401574
C36	C	1.735691	-0.038736	0.098426
C37	C	1.117384	-0.538754	-0.401595
C38	C	1.617384	-0.038754	0.098405
C39	C	0.973792	-0.613574	-0.457182
C40	C	1.473792	-0.113574	0.042818
C41	C	1.049489	-0.634546	-0.381095
C42	C	1.549489	-0.134546	0.118905
C43	C	1.043259	-0.517828	-0.477673
C44	C	1.543259	-0.017828	0.022327
C45	C	0.982301	-0.559807	-0.325443
C46	C	1.482301	-0.059807	0.174557
C47	C	0.976060	-0.443048	-0.422072
C48	C	1.476060	0.056952	0.077928
C49	C	1.051730	-0.463980	-0.345933
C50	C	1.551730	0.036020	0.154067
C51	C	1.512163	-0.815297	-0.401564
C52	C	2.012163	-0.315297	0.098436
C53	C	1.512229	-0.933604	-0.401588
C54	C	2.012229	-0.433604	0.098412
C55	C	1.437527	-1.006476	-0.457247
C56	C	1.937527	-0.506476	0.042753
C57	C	1.416520	-1.072408	-0.381176
C58	C	1.916520	-0.572408	0.118824
C59	C	1.533332	-1.078472	-0.477672
C60	C	2.033332	-0.578472	0.022328
C61	C	1.491173	-0.997974	-0.325477
C62	C	1.991173	-0.497974	0.174523
C63	C	1.608028	-1.004036	-0.422025
C64	C	2.108028	-0.504036	0.077975
C65	C	1.587061	-1.069932	-0.345901
C66	C	2.087061	-0.569932	0.154099
C67	C	1.789853	-0.538778	-0.401571
C68	C	2.289853	-0.038778	0.098429
C69	C	1.908159	-0.538787	-0.401570
C70	C	2.408159	-0.038787	0.098430
C71	C	1.498222	-0.552767	-0.619023
C72	C	1.998222	-0.052767	-0.119023
C73	C	1.492252	-0.558738	-0.711688
C74	C	1.992252	-0.058738	-0.211688
C75	C	1.512330	-0.261137	-0.401599
C76	C	2.012330	0.238863	0.098401
C77	C	1.512371	-0.142832	-0.401610
C78	C	2.012371	0.357168	0.098390
C79	C	1.481312	-0.569615	-0.881347
C80	C	1.981312	-0.069615	-0.381347
C81	C	1.543362	-0.507578	-0.922649
C82	C	2.043362	-0.007578	-0.422649
C83	C	1.537275	-0.513631	-1.017054
C84	C	2.037275	-0.013631	-0.517054
C85	C	1.487397	-0.563565	-0.786934
C86	C	1.987397	-0.063565	-0.286934
C87	C	1.526249	-0.524723	-0.184967
C88	C	2.026249	-0.024723	0.315033
C89	C	1.532426	-0.518452	-0.092303
C90	C	2.032426	-0.018452	0.407697
H91	H	0.939693	-0.676875	-0.504142
H92	H	1.439693	-0.176875	-0.004142
H93	H	0.943825	-0.362122	-0.439430
H94	H	1.443825	0.137878	0.060570
F95	F	1.467797	-0.952140	-0.241363
F96	F	1.967797	-0.452140	0.258637
F97	F	1.078473	-0.494674	-0.561781
F98	F	1.578473	0.005326	-0.061781
H99	H	1.374251	-0.978490	-0.504247
H100	H	1.874251	-0.478490	-0.004247
F101	F	1.405909	-0.644976	-0.927797
F102	F	1.905909	-0.144976	-0.427797
F103	F	1.091596	-0.740352	-0.358436
F104	F	1.591596	-0.240352	0.141564
F105	F	1.310709	-1.111715	-0.358587
F106	F	1.810709	-0.611715	0.141413
F107	F	1.713807	-0.964698	-0.444641
F108	F	2.213807	-0.464698	0.055359
F109	F	1.618791	-0.432234	-0.876199
F110	F	2.118791	0.067766	-0.376199
F111	F	1.556588	-1.124481	-0.561760
F112	F	2.056588	-0.624481	-0.061760
F113	F	0.947266	-0.583084	-0.241309
F114	F	1.447266	-0.083084	0.258691
H115	H	1.650298	-1.097714	-0.298788
H116	H	2.150298	-0.597714	0.201212
H117	H	1.085640	-0.400717	-0.298860
H118	H	1.585640	0.099283	0.201140
