data_functionalizedCrystal
_audit_creation_method	'MofGen! by Chris Wilmer'
_symmetry_space_group_name_H-M	'P1'
_symmetry_Int_Tables_number	1
_symmetry_cell_setting	triclinic
loop_
_symmetry_equiv_pos_as_xyz
  x,y,z
_cell_length_a	23.532407
_cell_length_b	23.532407
_cell_length_c	9.730223
_cell_angle_alpha	90.002492
_cell_angle_beta	89.994043
_cell_angle_gamma	82.848712
loop_
_atom_site_label
_atom_site_type_symbol
_atom_site_fract_x
_atom_site_fract_y
_atom_site_fract_z
O1	O	0.069133	0.755256	-0.114217
O2	O	0.569133	1.255256	0.385783
O3	O	0.079136	0.589393	-0.114241
O4	O	0.579136	1.089393	0.385759
O5	O	-0.008797	0.677326	-0.114203
O6	O	0.491203	1.177326	0.385797
O7	O	0.157066	0.667323	-0.114255
O8	O	0.657066	1.167323	0.385745
O9	O	-0.008795	0.677325	0.114377
O10	O	0.491205	1.177325	0.614377
O11	O	0.079138	0.589392	0.114339
O12	O	0.579138	1.089392	0.614339
O13	O	0.069135	0.755255	0.114363
O14	O	0.569135	1.255255	0.614363
Zn15	Zn	0.074137	0.672323	0.150643
Zn16	Zn	0.574137	1.172323	0.650643
Zn17	Zn	0.074134	0.672325	-0.150521
Zn18	Zn	0.574134	1.172325	0.349479
O19	O	0.157068	0.667322	0.114325
O20	O	0.657068	1.167322	0.614325
C21	C	0.078882	0.568176	0.000047
C22	C	0.578882	1.068176	0.500047
C23	C	0.078116	0.504959	0.000039
C24	C	0.578116	1.004959	0.500039
C25	C	-0.030012	0.677071	0.000091
C26	C	0.469988	1.177071	0.500091
C27	C	-0.093229	0.676305	0.000101
C28	C	0.406771	1.176305	0.500101
C29	C	0.022921	0.238792	0.000093
C30	C	0.522921	0.738792	0.500093
C31	C	0.023632	0.298192	0.000093
C32	C	0.523632	0.798192	0.500093
O33	O	-0.020153	0.334937	0.000154
O34	O	0.479847	0.834937	0.500154
N35	N	0.075909	0.320818	0.000067
N36	N	0.575909	0.820818	0.500067
C37	C	0.127477	0.284041	0.000056
C38	C	0.627477	0.784041	0.500056
O39	O	0.172007	0.308740	0.000035
O40	O	0.672007	0.808740	0.500035
C41	C	0.126765	0.224642	0.000066
C42	C	0.626765	0.724642	0.500066
C43	C	0.074485	0.202019	0.000078
C44	C	0.574485	0.702019	0.500078
C45	C	-0.029354	0.216169	0.000107
C46	C	0.470646	0.716169	0.500107
C47	C	-0.030066	0.156772	0.000105
C48	C	0.469934	0.656772	0.500105
C49	C	0.021499	0.119999	0.000089
C50	C	0.521499	0.619999	0.500089
C51	C	0.073774	0.142623	0.000076
C52	C	0.573774	0.642623	0.500076
C53	C	0.178333	0.187865	0.000065
C54	C	0.678333	0.687865	0.500065
C55	C	0.177616	0.128463	0.000077
C56	C	0.677616	0.628463	0.500077
C57	C	0.125336	0.105840	0.000088
C58	C	0.625336	0.605840	0.500088
C59	C	0.124627	0.046454	0.000059
C60	C	0.624627	0.546454	0.500059
N61	N	0.072351	0.023828	0.000085
N62	N	0.572351	0.523828	0.500085
C63	C	0.020787	0.060600	0.000100
C64	C	0.520787	0.560600	0.500100
C65	C	0.128968	0.408783	0.000036
C66	C	0.628968	0.908783	0.500036
C67	C	0.129681	0.468181	0.000016
C68	C	0.629681	0.968181	0.500016
C69	C	0.025836	0.482328	0.000056
C70	C	0.525836	0.982328	0.500056
C71	C	0.025124	0.422929	0.000066
C72	C	0.525124	0.922929	0.500066
C73	C	0.076692	0.386157	0.000062
C74	C	0.576692	0.886157	0.500062
C75	C	0.019297	-0.064136	0.000094
C76	C	0.519297	0.435864	0.500094
C77	C	0.018590	-0.123538	0.000087
C78	C	0.518590	0.376462	0.500087
C79	C	0.122435	-0.137680	0.000055
C80	C	0.622435	0.362320	0.500055
C81	C	0.123142	-0.078284	0.000055
C82	C	0.623142	0.421716	0.500055
C83	C	0.071568	-0.041512	0.000080
C84	C	0.571568	0.458488	0.500080
O85	O	0.168390	0.009675	0.000003
O86	O	0.668390	0.509675	0.500003
O87	O	-0.023737	0.035892	0.000138
O88	O	0.476263	0.535892	0.500138
C89	C	-0.492332	0.723538	0.000032
C90	C	0.007668	1.223538	0.500032
C91	C	-0.551733	0.722827	0.000022
C92	C	-0.051733	1.222827	0.500022
O93	O	-0.588477	0.766613	-0.000023
O94	O	-0.088477	1.266613	0.499977
N95	N	-0.574359	0.670551	0.000015
N96	N	-0.074359	1.170551	0.500015
C97	C	-0.537581	0.618982	0.000005
C98	C	-0.037581	1.118982	0.500005
O99	O	-0.562281	0.574452	-0.000002
O100	O	-0.062281	1.074452	0.499998
C101	C	-0.478182	0.619695	0.000006
C102	C	0.021818	1.119695	0.500006
C103	C	-0.455559	0.671974	0.000027
C104	C	0.044441	1.171974	0.500027
C105	C	-0.469709	0.775814	0.000051
C106	C	0.030291	1.275814	0.500051
C107	C	-0.410313	0.776525	0.000064
C108	C	0.089687	1.276525	0.500064
C109	C	-0.373540	0.724961	0.000059
C110	C	0.126460	1.224961	0.500059
C111	C	-0.396163	0.672685	0.000040
C112	C	0.103837	1.172685	0.500040
C113	C	-0.441406	0.568127	-0.000014
C114	C	0.058594	1.068127	0.499986
C115	C	-0.382003	0.568843	-0.000014
C116	C	0.117997	1.068843	0.499986
C117	C	-0.359381	0.621123	0.000006
C118	C	0.140619	1.121123	0.500006
C119	C	-0.299994	0.621832	0.000047
C120	C	0.200006	1.121832	0.500047
N121	N	-0.277368	0.674109	0.000053
N122	N	0.222632	1.174109	0.500053
C123	C	-0.314141	0.725673	0.000059
C124	C	0.185859	1.225673	0.500059
C125	C	-0.662324	0.617491	0.000002
C126	C	-0.162324	1.117491	0.500002
C127	C	-0.721722	0.616778	0.000011
C128	C	-0.221722	1.116778	0.500011
C129	C	-0.735869	0.720623	0.000025
C130	C	-0.235869	1.220623	0.500025
C131	C	-0.676470	0.721335	0.000025
C132	C	-0.176470	1.221335	0.500025
C133	C	-0.639698	0.669767	0.000008
C134	C	-0.139698	1.169767	0.500008
C135	C	-0.189404	0.727163	0.000088
C136	C	0.310596	1.227163	0.500088
C137	C	-0.130002	0.727869	0.000107
C138	C	0.369998	1.227869	0.500107
C139	C	-0.115860	0.624025	0.000086
C140	C	0.384140	1.124025	0.500086
C141	C	-0.175257	0.623318	0.000074
C142	C	0.324743	1.123318	0.500074
C143	C	-0.212028	0.674891	0.000071
C144	C	0.287972	1.174891	0.500071
O145	O	-0.263215	0.578069	0.000086
O146	O	0.236785	1.078069	0.500086
O147	O	-0.289433	0.770196	0.000049
O148	O	0.210567	1.270196	0.500049
C149	C	0.178283	0.667577	0.000029
C150	C	0.678283	1.167577	0.500029
C151	C	0.241500	0.668343	0.000009
C152	C	0.741500	1.168343	0.500009
C153	C	0.069389	0.776472	0.000073
C154	C	0.569389	1.276472	0.500073
C155	C	0.070155	0.839689	0.000072
C156	C	0.570155	1.339689	0.500072
N157	N	0.074139	0.672327	0.356179
N158	N	0.574139	1.172327	0.856179
N159	N	0.074128	0.672326	-0.356057
N160	N	0.574128	1.172326	0.143943
C161	C	0.035215	0.711273	0.428122
C162	C	0.535215	1.211273	0.928122
C163	C	0.035208	0.711272	0.572005
C164	C	0.535208	1.211272	1.072005
C165	C	0.113054	0.633375	0.571990
C166	C	0.613054	1.133375	1.071990
C167	C	0.113057	0.633374	0.428110
C168	C	0.613057	1.133374	0.928110
C169	C	-0.003704	0.750225	0.356192
C170	C	0.496296	1.250225	0.856192
C171	C	-0.042631	0.789176	0.428135
C172	C	0.457369	1.289176	0.928135
C173	C	-0.042638	0.789174	0.572018
C174	C	0.457362	1.289174	1.072018
C175	C	-0.003718	0.750223	0.643958
C176	C	0.496282	1.250223	1.143958
H177	H	-0.023984	-0.141954	0.000093
H178	H	0.476016	0.358046	0.500093
H179	H	-0.017447	0.404515	0.000076
H180	H	0.482553	0.904515	0.500076
H181	H	-0.072637	0.138359	0.000120
H182	H	0.427363	0.638359	0.500120
H183	H	0.165712	-0.059864	0.000044
H184	H	0.665712	0.440136	0.500044
H185	H	-0.765821	0.762610	0.000024
H186	H	-0.265821	1.262610	0.500024
H187	H	0.170964	0.378846	0.000023
H188	H	0.670964	0.878846	0.500023
H189	H	-0.074321	0.820886	0.369554
H190	H	0.425679	1.320886	0.869554
C191	C	-0.075403	0.567309	0.000071
C192	C	0.424597	1.067309	0.500071
H193	H	-0.036788	0.575224	0.000065
H194	H	0.463212	1.075224	0.500065
H195	H	-0.082230	0.545851	0.079770
H196	H	0.417770	1.045851	0.579770
H197	H	-0.082225	0.545864	-0.079662
H198	H	0.417775	1.045864	0.420338
C199	C	0.155870	0.590534	0.348961
C200	C	0.655870	1.090534	0.848961
H201	H	0.150293	0.596109	0.252970
H202	H	0.650293	1.096109	0.752970
H203	H	0.193851	0.596496	0.372529
H204	H	0.693851	1.096496	0.872529
H205	H	0.149869	0.552562	0.372539
H206	H	0.649869	1.052562	0.872539
H207	H	-0.003701	0.750231	0.239035
H208	H	0.496299	1.250231	0.739035
H209	H	-0.074337	0.820885	0.630592
H210	H	0.425663	1.320885	1.130592
C211	C	-0.030886	0.522784	0.000083
C212	C	0.469114	1.022784	0.500083
H213	H	-0.062125	0.500807	0.000087
H214	H	0.437875	1.000807	0.500087
H215	H	-0.032761	0.546252	0.079792
H216	H	0.467239	1.046252	0.579792
H217	H	-0.032765	0.546246	-0.079639
H218	H	0.467235	1.046246	0.420361
C219	C	-0.003726	0.750217	0.802226
C220	C	0.496274	1.250217	1.302226
H221	H	0.025026	0.721441	0.834763
H222	H	0.525026	1.221441	1.334763
H223	H	0.003882	0.786570	0.834786
H224	H	0.503882	1.286570	1.334786
H225	H	-0.040091	0.742627	0.834768
H226	H	0.459909	1.242627	1.334768
H227	H	0.144741	0.601663	0.630573
H228	H	0.644741	1.101663	1.130573
C229	C	-0.385435	0.834033	0.000061
C230	C	0.114565	1.334033	0.500061
H231	H	-0.415850	0.864637	0.000046
H232	H	0.084150	1.364637	0.500046
H233	H	-0.362561	0.836479	0.079768
H234	H	0.137439	1.336479	0.579768
H235	H	-0.362557	0.836468	-0.079664
H236	H	0.137443	1.336468	0.420336
H237	H	-0.022699	-0.034204	0.000114
H238	H	0.477301	0.465796	0.500114
C239	C	0.235841	0.212737	0.000072
C240	C	0.735841	0.712737	0.500072
H241	H	0.266443	0.182322	0.000086
H242	H	0.766443	0.682322	0.500086
H243	H	0.238289	0.235614	-0.079633
H244	H	0.738289	0.735614	0.420367
H245	H	0.238275	0.235613	0.079798
H246	H	0.738275	0.735613	0.579798
H247	H	0.219610	0.098525	0.000080
H248	H	0.719610	0.598525	0.500080
C249	C	0.179151	-0.178138	0.000049
C250	C	0.679151	0.321862	0.500049
H251	H	0.171235	-0.216752	0.000067
H252	H	0.671235	0.283248	0.500067
H253	H	0.200607	-0.171318	-0.079662
H254	H	0.700607	0.328682	0.420338
H255	H	0.200597	-0.171308	0.079770
H256	H	0.700597	0.328692	0.579770
H257	H	-0.071347	0.246104	0.000123
H258	H	0.428653	0.746104	0.500123
H259	H	-0.632386	0.575496	-0.000001
H260	H	-0.132386	1.075496	0.499999
H261	H	-0.111587	0.770443	0.000127
H262	H	0.388413	1.270443	0.500127
C263	C	-0.746600	0.559271	-0.000001
C264	C	-0.246600	1.059271	0.499999
H265	H	-0.716188	0.528666	-0.000012
H266	H	-0.216188	1.028666	0.499988
H267	H	-0.769484	0.556830	0.079702
H268	H	-0.269484	1.056830	0.579702
H269	H	-0.769469	0.556834	-0.079729
H270	H	-0.269469	1.056834	0.420271
C271	C	-0.510153	0.832538	0.000054
C272	C	-0.010153	1.332538	0.500054
H273	H	-0.548773	0.824637	0.000041
H274	H	-0.048773	1.324637	0.500041
H275	H	-0.503324	0.853986	0.079768
H276	H	-0.003324	1.353986	0.579768
H277	H	-0.503317	0.853986	-0.079664
H278	H	-0.003317	1.353986	0.420336
C279	C	0.187187	0.493063	-0.000019
C280	C	0.687187	0.993063	0.499981
H281	H	0.180231	0.533706	-0.000029
H282	H	0.680231	1.033706	0.499971
H283	H	0.208406	0.480420	0.079681
H284	H	0.708406	0.980420	0.579681
H285	H	0.208398	0.480417	-0.079751
H286	H	0.708398	0.980417	0.420249
C287	C	-0.229844	0.783892	0.000096
C288	C	0.270156	1.283892	0.500096
H289	H	-0.207856	0.815123	0.000122
H290	H	0.292144	1.315123	0.500122
H291	H	-0.253307	0.785781	-0.079615
H292	H	0.246693	1.285781	0.420385
H293	H	-0.253313	0.785773	0.079816
H294	H	0.246687	1.285773	0.579816
C295	C	-0.651590	0.778842	0.000035
C296	C	-0.151590	1.278842	0.500035
H297	H	-0.682003	0.809447	0.000031
H298	H	-0.182003	1.309447	0.500031
H299	H	-0.628715	0.781281	0.079742
H300	H	-0.128715	1.281281	0.579742
H301	H	-0.628712	0.781281	-0.079689
H302	H	-0.128712	1.281281	0.420311
C303	C	-0.466278	0.510618	-0.000048
C304	C	0.033722	1.010618	0.499952
H305	H	-0.435863	0.480016	-0.000069
H306	H	0.064137	0.980016	0.499931
H307	H	-0.489160	0.508171	0.079655
H308	H	0.010840	1.008171	0.579655
H309	H	-0.489147	0.508184	-0.079777
H310	H	0.010853	1.008184	0.420223
C311	C	-0.341557	0.512117	-0.000027
C312	C	0.158443	1.012117	0.499973
H313	H	-0.363541	0.480883	-0.000030
H314	H	0.136459	0.980883	0.499970
H315	H	-0.318084	0.510236	-0.079733
H316	H	0.181916	1.010236	0.420267
H317	H	-0.318098	0.510233	0.079699
H318	H	0.181902	1.010233	0.579699
H319	H	-0.193677	0.580747	0.000096
H320	H	0.306323	1.080747	0.500096
