data_functionalizedCrystal
_audit_creation_method	'MofGen! by Chris Wilmer'
_symmetry_space_group_name_H-M	'P1'
_symmetry_Int_Tables_number	1
_symmetry_cell_setting	triclinic
loop_
_symmetry_equiv_pos_as_xyz
  x,y,z
_cell_length_a	14.853567
_cell_length_b	15.538191
_cell_length_c	13.330367
_cell_angle_alpha	89.997411
_cell_angle_beta	89.995418
_cell_angle_gamma	65.453512
loop_
_atom_site_label
_atom_site_type_symbol
_atom_site_fract_x
_atom_site_fract_y
_atom_site_fract_z
O1	O	1.155993	0.122934	-0.083347
O2	O	0.888724	0.137579	-0.083363
O3	O	1.074385	-0.006805	-0.083356
O4	O	0.970332	0.267318	-0.083353
O5	O	1.074366	-0.006808	0.083491
O6	O	0.888705	0.137575	0.083484
O7	O	1.155974	0.122931	0.083501
Cu8	Cu	1.022338	0.130253	0.098727
Cu9	Cu	1.022360	0.130257	-0.098589
O10	O	0.970313	0.267314	0.083494
C11	C	0.855344	0.136913	0.000058
C12	C	0.755913	0.134925	0.000052
C13	C	0.374309	0.040753	0.000073
C14	C	0.296691	0.212284	0.000074
C15	C	0.390111	0.214153	0.000071
C16	C	0.475634	0.129321	0.000068
C17	C	0.467738	0.042620	0.000067
C18	C	0.398015	0.300853	0.000061
C19	C	0.491439	0.302726	0.000057
C20	C	0.576964	0.217893	0.000061
C21	C	0.569064	0.131188	0.000061
C22	C	0.654587	0.046356	0.000058
C23	C	0.646689	-0.040350	0.000066
C24	C	0.553264	-0.042213	0.000071
C25	C	0.670390	0.219757	0.000056
C26	C	0.748017	0.048223	0.000052
C27	C	1.085262	-0.041888	0.000065
C28	C	1.117689	-0.146419	0.000057
C29	C	0.795529	-0.434631	0.000058
C30	C	0.826023	-0.532857	0.000063
C31	C	0.997541	-0.555076	0.000073
C32	C	0.967062	-0.456850	0.000064
C33	C	0.866055	-0.396635	0.000058
C34	C	1.037588	-0.418853	0.000063
C35	C	1.007111	-0.320636	0.000059
C36	C	0.906108	-0.260415	0.000056
C37	C	0.835578	-0.298417	0.000054
C38	C	1.138594	-0.479070	0.000076
C39	C	1.209120	-0.441073	0.000075
C40	C	1.178644	-0.342854	0.000064
C41	C	1.077641	-0.282633	0.000061
C42	C	1.249174	-0.304852	0.000066
C43	C	1.218697	-0.206634	0.000062
C44	C	1.047164	-0.184416	0.000057
C45	C	1.189354	0.123596	0.000077
C46	C	1.288785	0.125584	0.000077
C47	C	0.959436	0.302397	0.000071
C48	C	0.927009	0.406929	0.000072
N49	N	1.022329	0.130250	0.237508
N50	N	1.022379	0.130252	-0.237371
C51	C	0.940155	0.194165	0.710128
C52	C	1.104592	0.066341	0.710102
C53	C	1.104583	0.066338	0.605084
C54	C	1.022359	0.130251	0.552583
C55	C	0.940145	0.194166	0.605100
C56	C	1.186800	0.002431	0.552559
C57	C	1.186794	0.002426	0.447534
C58	C	1.104567	0.066335	0.395031
C59	C	1.022349	0.130251	0.447555
C60	C	0.940125	0.194164	0.395054
C61	C	0.857903	0.258077	0.447576
C62	C	0.857917	0.258074	0.552597
C63	C	1.104552	0.066337	0.290009
C64	C	0.940114	0.194165	0.290026
H65	H	0.546823	-0.112805	0.000101
H66	H	0.676817	0.290352	0.000051
F67	F	0.750951	-0.573291	0.000069
F68	F	1.192100	-0.001670	0.765977
H69	H	0.328377	0.369919	0.000054
H70	H	0.790976	0.310110	0.595367
H71	H	0.367873	-0.029842	0.000084
F72	F	0.499836	0.395005	0.000050
F73	F	1.171029	-0.583603	0.000086
H74	H	0.817649	-0.020858	0.000053
H75	H	1.291360	-0.490113	0.000084
H76	H	0.964914	-0.135385	0.000045
F77	F	1.356669	-0.368948	0.000089
F78	F	1.274308	-0.065580	0.608433
F79	F	0.205671	0.302562	0.000066
H80	H	0.881296	-0.180440	0.000059
F81	F	1.293758	-0.166193	0.000076
F82	F	0.728074	-0.234326	0.000038
H83	H	0.713279	-0.385600	0.000046
F84	F	1.105037	-0.619170	0.000086
F85	F	0.852596	0.262186	0.234158
F86	F	0.852650	0.262179	0.766023
F87	F	0.770401	0.326100	0.391689
H88	H	1.253743	-0.049615	0.404777
F89	F	1.192057	-0.001674	0.234118
H90	H	0.716334	-0.109420	0.000056
