data_functionalizedCrystal
_audit_creation_method	'MofGen! by Chris Wilmer'
_symmetry_space_group_name_H-M	'P1'
_symmetry_Int_Tables_number	1
_symmetry_cell_setting	triclinic
loop_
_symmetry_equiv_pos_as_xyz
  x,y,z
_cell_length_a	14.044191
_cell_length_b	14.044190
_cell_length_c	15.186229
_cell_angle_alpha	89.991383
_cell_angle_beta	89.999039
_cell_angle_gamma	93.191777
loop_
_atom_site_label
_atom_site_type_symbol
_atom_site_fract_x
_atom_site_fract_y
_atom_site_fract_z
O1	O	1.277177	0.230199	-0.073204
O2	O	1.000504	0.221887	-0.073215
O3	O	1.134684	0.087707	-0.073192
O4	O	1.142997	0.364379	-0.073227
O5	O	1.134674	0.087704	0.073265
O6	O	1.000494	0.221884	0.073242
O7	O	1.277167	0.230196	0.073253
Zn8	Zn	1.138829	0.226040	0.096501
Zn9	Zn	1.138842	0.226043	-0.096463
O10	O	1.142987	0.364376	0.073231
C11	C	0.964877	0.218249	0.000013
C12	C	0.858734	0.207401	0.000010
C13	C	1.131043	0.052083	0.000039
C14	C	1.120195	-0.054060	0.000046
C15	C	0.613277	0.264502	0.000011
C16	C	0.664400	0.187585	0.000019
C17	C	0.772537	0.198614	0.000014
C18	C	0.505130	0.253475	0.000017
C19	C	1.177296	-0.299517	0.000014
C20	C	1.100379	-0.248394	0.000017
C21	C	1.111408	-0.140257	0.000033
C22	C	1.166269	-0.407664	-0.000003
C23	C	1.312794	0.233834	0.000023
C24	C	1.418937	0.244682	0.000021
C25	C	1.146628	0.400000	-0.000002
C26	C	1.157476	0.506143	-0.000015
N27	N	1.138827	0.226037	0.228194
N28	N	1.138851	0.226039	-0.228155
C29	C	1.198266	0.166646	0.453926
C30	C	1.198269	0.166644	0.546116
C31	C	1.079405	0.285433	0.546105
C32	C	1.079398	0.285429	0.453917
C33	C	1.138834	0.226037	0.407830
C34	C	1.138844	0.226039	0.592208
C35	C	1.138846	0.226037	0.692164
C36	C	1.138830	0.226037	0.307868
H37	H	0.626955	0.113453	-0.000034
Cl38	Cl	0.671086	0.378951	-0.000014
H39	H	1.026247	-0.285839	0.000009
Cl40	Cl	1.291745	-0.241708	0.000032
Cl41	Cl	1.272981	0.091978	0.395992
H42	H	1.246662	0.118281	0.583645
H43	H	1.031016	0.333790	0.583639
Cl44	Cl	1.004674	0.360094	0.395962
