data_functionalizedCrystal
_audit_creation_method	'MofGen! by Chris Wilmer'
_symmetry_space_group_name_H-M	'P1'
_symmetry_Int_Tables_number	1
_symmetry_cell_setting	triclinic
loop_
_symmetry_equiv_pos_as_xyz
  x,y,z
_cell_length_a	19.805407
_cell_length_b	17.638166
_cell_length_c	19.805399
_cell_angle_alpha	78.819502
_cell_angle_beta	90.020409
_cell_angle_gamma	101.246790
loop_
_atom_site_label
_atom_site_type_symbol
_atom_site_fract_x
_atom_site_fract_y
_atom_site_fract_z
Zn1	Zn	0.980230	-0.314681	0.437185
Zn2	Zn	0.957249	-0.446873	0.346870
Zn3	Zn	0.867041	-0.314707	0.324012
Zn4	Zn	0.844118	-0.446835	0.460009
O5	O	0.912159	-0.380774	0.392019
O6	O	1.071898	-0.332221	0.425219
O7	O	0.945257	-0.429367	0.249126
O8	O	0.901266	-0.204085	0.319907
O9	O	1.055013	-0.429342	0.358865
O10	O	0.984426	-0.204066	0.403054
O11	O	0.878982	-0.332266	0.232333
O12	O	0.769284	-0.332230	0.342039
O13	O	0.862199	-0.429278	0.551693
O14	O	0.752443	-0.429303	0.441954
O15	O	0.962200	-0.332185	0.534925
O16	O	0.923031	-0.557486	0.380996
O17	O	0.839914	-0.557459	0.464119
C18	C	0.736305	-0.380766	0.391993
C19	C	0.661070	-0.380781	0.392002
C20	C	0.876510	-0.586155	0.427529
C21	C	0.861321	-0.674018	0.442743
C22	C	0.208059	-0.330298	0.426678
C23	C	0.278748	-0.330299	0.426674
C24	C	0.305308	-0.380786	0.392043
C25	C	0.261174	-0.431280	0.357421
C26	C	0.190487	-0.431282	0.357430
C27	C	0.546249	-0.431274	0.357384
C28	C	0.616942	-0.431267	0.357376
C29	C	0.634509	-0.330291	0.426628
C30	C	0.563822	-0.330293	0.426637
C31	C	0.519694	-0.380790	0.392018
C32	C	0.443046	-0.380789	0.392024
C33	C	0.381955	-0.380784	0.392032
C34	C	0.796601	-0.797871	0.507429
C35	C	0.810879	-0.715310	0.493128
C36	C	0.897502	-0.715276	0.406636
C37	C	0.883229	-0.797838	0.420928
C38	C	0.832779	-0.839129	0.471325
C39	C	0.919406	-0.839096	0.384824
C40	C	0.905137	-0.921651	0.399116
C41	C	0.854690	-0.962948	0.449513
C42	C	0.818509	-0.921684	0.485618
C43	C	0.969860	-0.797804	0.334430
C44	C	1.006037	-0.839062	0.298326
C45	C	0.991765	-0.921619	0.312615
C46	C	0.941318	-0.962915	0.363011
C47	C	1.027946	-0.962883	0.276510
C48	C	1.013676	-1.045438	0.290802
C49	C	0.927049	-1.045470	0.377304
C50	C	1.088701	-0.380783	0.392046
C51	C	1.163932	-0.380787	0.392057
C52	C	0.912206	-0.380724	0.568553
C53	C	0.912226	-0.380703	0.643782
C54	C	0.947967	-0.174591	0.356385
C55	C	0.963226	-0.086729	0.341200
C56	C	0.912162	-0.380767	0.216162
C57	C	0.912312	-0.380565	0.140895
C58	C	0.964298	-0.330144	0.670395
C59	C	0.964309	-0.330121	0.741080
C60	C	0.912250	-0.380662	0.785150
C61	C	0.860173	-0.431223	0.758532
C62	C	0.860160	-0.431241	0.687848
C63	C	0.860224	-0.431149	1.043593
C64	C	0.860242	-0.431129	1.114282
C65	C	0.964373	-0.330029	1.096824
C66	C	0.964360	-0.330048	1.026140
C67	C	0.912281	-0.380605	0.999528
C68	C	0.912269	-0.380629	0.922884
C69	C	0.912264	-0.380643	0.861794
H70	H	0.186441	-0.289181	0.454874
H71	H	0.981478	-0.730583	0.322796
Cl72	Cl	0.863611	-1.097385	0.440649
H73	H	0.755523	-0.831492	0.548471
H74	H	0.817826	-0.472328	1.021936
Cl75	Cl	0.836479	-1.066732	0.467211
Cl76	Cl	0.755072	-0.973599	0.548963
H77	H	0.781415	-0.681722	0.522534
Cl78	Cl	0.960925	-0.663360	0.343284
H79	H	1.006776	-0.288860	1.118500
Cl80	Cl	1.069460	-0.787147	0.234973
Cl81	Cl	1.091374	-0.910965	0.213163
H82	H	0.282805	-0.472391	0.329227
Cl83	Cl	0.794791	-0.494670	1.169685
Cl84	Cl	1.059158	-1.097309	0.245415
H85	H	0.817784	-0.472371	0.794420
Cl86	Cl	1.029798	-0.266593	0.774539
Cl87	Cl	0.794694	-0.494801	0.654391
H88	H	0.314673	-0.289189	0.454869
H89	H	1.006692	-0.288991	0.634517
H90	H	1.006753	-0.288895	0.990261
H91	H	0.542202	-0.289179	0.454834
H92	H	0.638564	-0.472383	0.329174
Cl93	Cl	0.689988	-0.266812	0.470154
Cl94	Cl	0.135011	-0.494763	0.313910
Cl95	Cl	0.490787	-0.494733	0.313838
