data_functionalizedCrystal
_audit_creation_method	'MofGen! by Chris Wilmer'
_symmetry_space_group_name_H-M	'P1'
_symmetry_Int_Tables_number	1
_symmetry_cell_setting	triclinic
loop_
_symmetry_equiv_pos_as_xyz
  x,y,z
_cell_length_a	16.992694
_cell_length_b	16.109301
_cell_length_c	15.186229
_cell_angle_alpha	90.005167
_cell_angle_beta	90.002273
_cell_angle_gamma	92.935148
loop_
_atom_site_label
_atom_site_type_symbol
_atom_site_fract_x
_atom_site_fract_y
_atom_site_fract_z
O1	O	1.040345	-0.176288	-0.073123
O2	O	1.373678	0.157045	0.260210
O3	O	1.707012	0.490379	0.593544
O4	O	0.812060	-0.174354	-0.073149
O5	O	1.145394	0.158979	0.260184
O6	O	1.478727	0.492313	0.593518
O7	O	0.932474	-0.054708	-0.073126
O8	O	1.265807	0.278625	0.260207
O9	O	1.599141	0.611958	0.593540
O10	O	0.919931	-0.295934	-0.073146
O11	O	1.253265	0.037400	0.260188
O12	O	1.586598	0.370733	0.593521
O13	O	0.932466	-0.054706	0.073331
O14	O	1.265799	0.278627	0.406664
O15	O	1.599132	0.611961	0.739998
O16	O	0.812052	-0.174352	0.073308
O17	O	1.145386	0.158982	0.406642
O18	O	1.478719	0.492315	0.739975
O19	O	1.040337	-0.176286	0.073334
O20	O	1.373670	0.157048	0.406667
O21	O	1.707004	0.490381	0.740001
Zn22	Zn	0.926193	-0.175318	0.096574
Zn23	Zn	1.259527	0.158015	0.429908
Zn24	Zn	1.592860	0.491348	0.763241
Zn25	Zn	0.926204	-0.175321	-0.096389
Zn26	Zn	1.259537	0.158012	0.236944
Zn27	Zn	1.592871	0.491345	0.570277
O28	O	0.919923	-0.295931	0.073312
O29	O	1.253257	0.037402	0.406645
O30	O	1.586590	0.370735	0.739978
C31	C	0.782844	-0.171865	0.000076
C32	C	1.116178	0.161469	0.333410
C33	C	1.449511	0.494802	0.666743
C34	C	0.695802	-0.164441	0.000067
C35	C	1.029135	0.168892	0.333400
C36	C	1.362469	0.502225	0.666734
N37	N	0.926192	-0.175316	0.228267
N38	N	1.259525	0.158017	0.561600
N39	N	1.592859	0.491351	0.894934
C40	C	0.931962	-0.023699	0.000103
C41	C	1.265295	0.309635	0.333436
C42	C	1.598628	0.642968	0.666769
C43	C	0.930439	0.068698	0.000104
C44	C	1.263772	0.402032	0.333437
C45	C	1.597105	0.735365	0.666770
C46	C	0.645543	-0.236067	0.000062
C47	C	0.978877	0.097266	0.333395
C48	C	1.312210	0.430599	0.666728
C49	C	0.563758	-0.229087	0.000074
C50	C	0.897092	0.104246	0.333408
C51	C	1.230425	0.437579	0.666741
C52	C	0.532234	-0.150481	0.000086
C53	C	0.865567	0.182853	0.333419
C54	C	1.198901	0.516186	0.666753
C55	C	0.582499	-0.078849	0.000094
C56	C	0.915833	0.254484	0.333427
C57	C	1.249166	0.587818	0.666760
C58	C	0.664282	-0.085830	0.000087
C59	C	0.997616	0.247503	0.333421
C60	C	1.330949	0.580837	0.666754
C61	C	0.288644	-0.121548	0.000112
C62	C	0.621977	0.211786	0.333445
C63	C	0.955310	0.545119	0.666778
C64	C	0.206854	-0.114572	0.000116
C65	C	0.540187	0.218761	0.333449
C66	C	0.873521	0.552094	0.666782
C67	C	0.188119	-0.264811	0.000098
C68	C	0.521452	0.068522	0.333431
C69	C	0.854785	0.401855	0.666765
C70	C	0.269904	-0.271785	0.000086
C71	C	0.603238	0.061548	0.333420
C72	C	0.936571	0.394881	0.666753
C73	C	0.320163	-0.200154	0.000099
C74	C	0.653496	0.133180	0.333432
C75	C	0.986829	0.466513	0.666765
N76	N	0.448637	-0.143344	0.000096
N77	N	0.781970	0.189989	0.333430
N78	N	1.115304	0.523323	0.666763
N79	N	0.403758	-0.207291	0.000095
N80	N	0.737091	0.126042	0.333428
N81	N	1.070425	0.459376	0.666761
C82	C	1.069553	-0.178775	0.000107
C83	C	1.402886	0.154558	0.333440
C84	C	1.736220	0.487892	0.666773
C85	C	1.156595	-0.186198	0.000111
C86	C	1.489929	0.147135	0.333444
C87	C	1.823262	0.480468	0.666777
C88	C	0.920435	-0.326941	0.000081
C89	C	1.253769	0.006392	0.333414
C90	C	1.587102	0.339726	0.666747
C91	C	0.921959	-0.419338	0.000074
C92	C	1.255292	-0.086005	0.333407
C93	C	1.588625	0.247329	0.666740
C94	C	0.998348	0.286439	0.000097
C95	C	1.331681	0.619773	0.333431
C96	C	1.665015	0.953106	0.666764
C97	C	0.996911	0.373256	0.000090
C98	C	1.330244	0.706589	0.333423
C99	C	1.663577	1.039922	0.666757
C100	C	0.854044	0.362915	0.000077
C101	C	1.187377	0.696248	0.333411
C102	C	1.520711	1.029581	0.666744
C103	C	0.855482	0.276100	0.000078
C104	C	1.188815	0.609433	0.333412
C105	C	1.522149	0.942767	0.666745
C106	C	0.927636	0.237865	0.000093
C107	C	1.260970	0.571198	0.333426
C108	C	1.594303	0.904531	0.666760
C109	C	0.924761	0.411496	0.000084
C110	C	1.258094	0.744829	0.333418
C111	C	1.591428	1.078162	0.666751
C112	C	0.923202	0.505626	0.000076
C113	C	1.256535	0.838959	0.333410
C114	C	1.589869	1.172292	0.666743
C115	C	0.929196	0.143729	0.000099
C116	C	1.262529	0.477062	0.333433
C117	C	1.595862	0.810395	0.666766
N118	N	0.926212	-0.175317	-0.228082
N119	N	1.259545	0.158016	0.105251
N120	N	1.592878	0.491349	0.438585
C121	C	0.979529	-0.122357	0.454000
C122	C	1.312862	0.210976	0.787333
C123	C	1.646196	0.544309	1.120667
C124	C	0.979532	-0.122355	0.546190
C125	C	1.312865	0.210978	0.879523
C126	C	1.646198	0.544311	1.212856
C127	C	0.872869	-0.228279	0.546179
C128	C	1.206202	0.105055	0.879512
C129	C	1.539535	0.438388	1.212845
C130	C	0.872863	-0.228275	0.453991
C131	C	1.206196	0.105058	0.787324
C132	C	1.539530	0.438391	1.120657
C133	C	0.926198	-0.175316	0.407904
C134	C	1.259531	0.158017	0.741237
C135	C	1.592864	0.491351	1.074570
C136	C	0.926206	-0.175317	0.592281
C137	C	1.259539	0.158016	0.925615
C138	C	1.592872	0.491349	1.258948
C139	C	0.926208	-0.175316	0.692237
C140	C	1.259541	0.158018	1.025571
C141	C	1.592875	0.491351	1.358904
C142	C	0.926195	-0.175316	0.307941
C143	C	1.259528	0.158017	0.641275
C144	C	1.592861	0.491350	0.974608
H145	H	0.671204	-0.300077	0.000052
H146	H	1.004537	0.033256	0.333385
H147	H	1.337870	0.366589	0.666718
C148	C	0.774678	0.404982	0.000078
C149	C	1.108012	0.738315	0.333412
C150	C	1.441345	1.071649	0.666745
N151	N	0.714898	0.436666	0.000086
N152	N	1.048232	0.769999	0.333419
N153	N	1.381565	1.103333	0.666753
H154	H	0.797897	0.236549	0.000072
H155	H	1.131230	0.569882	0.333405
H156	H	1.464563	0.903215	0.666739
H157	H	0.829430	-0.271401	0.416457
H158	H	1.162764	0.061932	0.749790
H159	H	1.496097	0.395266	1.083123
H160	H	0.181191	-0.050558	0.000124
H161	H	0.514524	0.282775	0.333457
H162	H	0.847857	0.616109	0.666791
C163	C	0.343917	-0.042750	0.000120
C164	C	0.677251	0.290583	0.333453
C165	C	1.010584	0.623917	0.666786
N166	N	0.385552	0.016604	0.000124
N167	N	0.718886	0.349938	0.333458
N168	N	1.052219	0.683271	0.666791
C169	C	0.508477	-0.307882	0.000085
C170	C	0.841810	0.025451	0.333418
C171	C	1.175143	0.358784	0.666751
N172	N	0.466839	-0.367235	0.000099
N173	N	0.800172	-0.033901	0.333432
N174	N	1.133505	0.299432	0.666765
H175	H	1.057101	0.255311	0.000107
H176	H	1.390434	0.588644	0.333441
H177	H	1.723767	0.921978	0.666774
C178	C	0.304575	-0.358259	0.000088
C179	C	0.637908	-0.024925	0.333421
C180	C	0.971241	0.308408	0.666754
N181	N	0.330688	-0.423392	0.000091
N182	N	0.664021	-0.090059	0.333424
N183	N	0.997354	0.243275	0.666757
C184	C	1.038194	-0.064089	0.596891
C185	C	1.371528	0.269244	0.930225
C186	C	1.704861	0.602577	1.263558
N187	N	1.082379	-0.020197	0.635079
N188	N	1.415712	0.313136	0.968413
N189	N	1.749045	0.646469	1.301746
C190	C	0.547819	0.007620	0.000108
C191	C	0.881153	0.340953	0.333441
C192	C	1.214486	0.674286	0.666775
N193	N	0.521700	0.072750	0.000115
N194	N	0.855033	0.406083	0.333449
N195	N	1.188366	0.739416	0.666782
H196	H	0.147190	-0.323129	0.000090
H197	H	0.480524	0.010204	0.333423
H198	H	0.813857	0.343537	0.666756
C199	C	0.814202	-0.286529	0.596883
C200	C	1.147536	0.046804	0.930216
C201	C	1.480869	0.380138	1.263550
N202	N	0.770013	-0.330404	0.635073
N203	N	1.103346	0.002929	0.968406
N204	N	1.436680	0.336262	1.301739
H205	H	0.705203	-0.027504	0.000091
H206	H	1.038536	0.305829	0.333424
H207	H	1.371870	0.639163	0.666758
H208	H	1.022956	-0.079233	0.416478
H209	H	1.356290	0.254100	0.749811
H210	H	1.689623	0.587433	1.083145
C211	C	1.074699	0.426684	0.000103
C212	C	1.408032	0.760017	0.333436
C213	C	1.741366	1.093351	0.666769
N214	N	1.133293	0.466926	0.000114
N215	N	1.466626	0.800259	0.333448
N216	N	1.799960	1.133593	0.666781
