data_functionalizedCrystal
_audit_creation_method	'MofGen! by Chris Wilmer'
_symmetry_space_group_name_H-M	'P1'
_symmetry_Int_Tables_number	1
_symmetry_cell_setting	triclinic
loop_
_symmetry_equiv_pos_as_xyz
  x,y,z
_cell_length_a	10.723023
_cell_length_b	10.654541
_cell_length_c	9.198806
_cell_angle_alpha	90.002941
_cell_angle_beta	90.003222
_cell_angle_gamma	84.475738
loop_
_atom_site_label
_atom_site_type_symbol
_atom_site_fract_x
_atom_site_fract_y
_atom_site_fract_z
O1	O	1.657213	0.176142	0.120877
O2	O	1.294062	0.193004	0.120883
O3	O	1.483989	0.001832	0.120871
O4	O	1.467286	0.367314	0.120889
O5	O	1.483974	0.001832	-0.120914
O6	O	1.294048	0.193004	-0.120902
O7	O	1.657198	0.176142	-0.120908
Cu8	Cu	1.475622	0.184573	-0.142982
Cu9	Cu	1.475639	0.184573	0.142957
O10	O	1.467272	0.367314	-0.120896
C11	C	1.247555	0.191777	-0.000009
C12	C	1.109001	0.188106	-0.000007
C13	C	1.482756	-0.044966	-0.000021
C14	C	1.479089	-0.184409	-0.000018
C15	C	1.047221	0.186470	-0.125257
C16	C	0.904017	0.182676	-0.125258
C17	C	1.706197	-0.212414	-0.000040
C18	C	1.818023	-0.291926	-0.000054
C19	C	1.814569	-0.422943	-0.000050
C20	C	1.699278	-0.474451	-0.000027
C21	C	1.587452	-0.394939	-0.000013
C22	C	1.590917	-0.263920	-0.000022
C23	C	1.360346	-0.366934	0.000020
C24	C	1.363797	-0.235916	0.000005
C25	C	1.245054	-0.418442	0.000043
C26	C	1.133225	-0.338930	0.000046
C27	C	1.136684	-0.207905	0.000040
C28	C	1.251971	-0.156405	0.000019
C29	C	1.703705	0.177369	-0.000013
C30	C	1.842260	0.181040	-0.000006
C31	C	1.468505	0.414112	-0.000001
C32	C	1.472172	0.553555	0.000006
N33	N	1.475619	0.184571	-0.344096
C34	C	1.402860	0.111744	-0.416330
C35	C	1.402876	0.111739	-0.583742
N36	N	1.475651	0.184565	0.344071
H37	H	0.850888	0.181275	-0.232490
H38	H	0.895380	0.182455	0.107232
H39	H	1.537951	0.246914	-0.593819
N40	N	1.320335	0.029145	-0.334088
H41	H	1.271782	-0.019458	-0.405293
H42	H	1.259977	0.083547	-0.270944
H43	H	1.055875	0.186696	0.107225
H44	H	1.709020	-0.105734	-0.000064
H45	H	1.537917	0.246925	-0.406194
H46	H	1.340588	0.049386	-0.645861
N47	N	1.942369	-0.236373	-0.000098
H48	H	1.927595	-0.141310	-0.000111
H49	H	1.991322	-0.265403	-0.089746
N50	N	1.008885	-0.394476	0.000061
H51	H	0.959850	-0.365544	0.089691
H52	H	1.023766	-0.489529	0.000014
N53	N	1.117576	0.188329	-0.267308
H54	H	1.209904	0.190776	-0.247172
H55	H	1.085437	0.265451	-0.324889
N56	N	1.695549	-0.615761	0.000000
H57	H	1.783883	-0.658315	-0.000004
H58	H	1.650067	-0.641728	-0.089625
H59	H	1.905628	-0.487682	-0.000050
N60	N	1.241322	-0.559751	0.000056
H61	H	1.329655	-0.602308	0.000038
H62	H	1.195833	-0.585706	-0.089570
N63	N	1.255700	-0.015095	0.000005
H64	H	1.345702	0.005465	-0.000009
H65	H	1.211906	0.021873	0.089647
H66	H	1.045621	-0.143173	0.000058
