data_functionalizedCrystal
_audit_creation_method	'MofGen! by Chris Wilmer'
_symmetry_space_group_name_H-M	'P1'
_symmetry_Int_Tables_number	1
_symmetry_cell_setting	triclinic
loop_
_symmetry_equiv_pos_as_xyz
  x,y,z
_cell_length_a	15.995350
_cell_length_b	23.532407
_cell_length_c	15.072220
_cell_angle_alpha	89.994175
_cell_angle_beta	89.991149
_cell_angle_gamma	83.170526
loop_
_atom_site_label
_atom_site_type_symbol
_atom_site_fract_x
_atom_site_fract_y
_atom_site_fract_z
O1	O	1.110385	0.073404	-0.073717
O2	O	0.866535	0.082469	-0.073736
O3	O	0.995813	-0.004967	-0.073710
O4	O	0.981107	0.160840	-0.073743
O5	O	0.995781	-0.004962	0.073856
O6	O	0.866503	0.082474	0.073829
O7	O	1.110354	0.073409	0.073848
Zn8	Zn	0.988423	0.077942	0.097268
Zn9	Zn	0.988465	0.077935	-0.097155
O10	O	0.981075	0.160845	0.073822
C11	C	0.835327	0.082096	0.000044
C12	C	0.742386	0.080973	0.000038
C13	C	0.995423	-0.026182	0.000075
C14	C	0.994297	-0.089404	0.000082
C15	C	0.404672	0.076938	0.000057
C16	C	0.452624	0.014668	0.000399
C17	C	0.549305	0.015792	0.000060
C18	C	0.572216	0.078939	0.000048
C19	C	0.530892	0.109650	-0.084222
C20	C	0.434269	0.108086	-0.084286
C21	C	0.433883	0.109378	0.083523
C22	C	0.530828	0.109363	0.084631
C23	C	0.666904	0.080074	0.000040
C24	C	0.309984	0.075805	0.000059
C25	C	1.063739	-0.488239	0.000039
C26	C	1.062693	-0.547644	0.000032
O27	O	1.127067	-0.584141	0.000004
N28	N	0.985837	-0.570566	0.000027
C29	C	0.910022	-0.534080	0.000019
O30	O	0.844554	-0.559031	0.000013
C31	C	0.911069	-0.474677	0.000019
C32	C	0.987930	-0.451758	0.000034
C33	C	1.140594	-0.465320	0.000052
C34	C	1.141640	-0.405920	0.000061
C35	C	1.065830	-0.369439	0.000056
C36	C	0.988975	-0.392358	0.000042
C37	C	0.835255	-0.438192	0.000005
C38	C	0.836308	-0.378785	0.000005
C39	C	0.913169	-0.355867	0.000020
C40	C	0.914212	-0.296477	0.000046
N41	N	0.991068	-0.273555	0.000051
C42	C	1.066877	-0.310036	0.000056
C43	C	0.907829	-0.658831	0.000016
C44	C	0.906781	-0.718233	0.000022
C45	C	1.059453	-0.731793	0.000034
C46	C	1.060500	-0.672389	0.000034
C47	C	0.984685	-0.635909	0.000022
C48	C	1.069067	-0.185291	0.000075
C49	C	1.070106	-0.125885	0.000087
C50	C	0.917435	-0.112330	0.000071
C51	C	0.916396	-0.171731	0.000063
C52	C	0.992219	-0.208210	0.000062
O53	O	0.849872	-0.259945	0.000070
O54	O	1.132335	-0.285076	0.000051
C55	C	1.141561	0.073781	0.000066
C56	C	1.234502	0.074905	0.000067
C57	C	0.981465	0.182060	0.000035
C58	C	0.982591	0.245281	0.000023
N59	N	0.988401	0.077946	0.229957
N60	N	0.988494	0.077927	-0.229844
C61	C	0.988463	0.077933	0.589158
C62	C	0.919059	0.124562	0.551537
C63	C	0.919216	0.124732	0.448711
C64	C	0.988431	0.077940	0.410954
C65	C	1.075688	0.090918	0.448249
C66	C	1.075299	0.091250	0.551107
C67	C	0.971391	0.018188	0.551269
C68	C	0.969383	0.018587	0.448405
C69	C	0.988419	0.077942	0.310241
C70	C	0.988482	0.077932	0.689872
H71	H	0.577922	-0.008349	0.060468
C72	C	0.887317	0.001340	0.586345
N73	N	0.823987	-0.011343	0.612764
C74	C	0.549457	0.172325	-0.088473
N75	N	0.563443	0.219531	-0.091674
H76	H	1.204228	-0.387266	0.000069
C77	C	1.154663	-0.100679	0.000100
N78	N	1.218349	-0.081696	0.000108
H79	H	1.123087	-0.653734	0.000045
H80	H	0.853973	0.116956	0.576295
H81	H	0.772666	-0.456841	-0.000012
C82	C	0.427855	-0.018957	0.082040
N83	N	0.409192	-0.044284	0.143534
H84	H	1.091182	0.133993	0.422473
C85	C	1.223998	-0.505442	0.000067
N86	N	1.286823	-0.535657	0.000088
C87	C	0.567934	0.079060	0.168853
N88	N	0.595880	0.056230	0.232289
H89	H	0.433249	-0.010110	-0.059692
C90	C	0.551080	0.171572	0.091506
N91	N	0.566339	0.218428	0.096683
H92	H	0.930067	0.169068	0.424089
H93	H	1.130810	-0.214986	0.000071
H94	H	1.121181	-0.761507	0.000034
H95	H	0.854341	0.116999	0.423497
C96	C	0.882669	0.005281	0.415482
N97	N	0.817355	-0.004739	0.390681
C98	C	0.569475	0.080826	-0.168938
N99	N	0.598534	0.059111	-0.232744
C100	C	0.406360	0.081875	0.169815
N101	N	0.385631	0.061152	0.234805
H102	H	0.577378	-0.008516	-0.060444
H103	H	0.853809	-0.190392	0.000076
H104	H	1.016688	-0.017738	0.422708
C105	C	1.095709	0.150117	0.583497
N106	N	1.111075	0.194459	0.607889
C107	C	0.822229	-0.743436	0.000017
N108	N	0.758540	-0.762416	0.000008
C109	C	0.390456	0.171401	0.084284
N110	N	0.357742	0.218115	0.084851
C111	C	0.409804	0.077819	-0.169371
N112	N	0.391382	0.055018	-0.233457
C113	C	0.824421	-0.618706	0.000014
N114	N	0.761599	-0.588488	0.000012
C115	C	0.933510	0.184121	0.586431
N116	N	0.944397	0.228981	0.612715
H117	H	0.855713	-0.082617	0.000070
C118	C	0.390188	0.169847	-0.089483
N119	N	0.356990	0.216364	-0.093406
C120	C	0.752904	-0.338660	-0.000005
N121	N	0.690083	-0.308438	-0.000010
C122	C	1.147148	0.047129	0.584728
N123	N	1.201273	0.013904	0.610048
C124	C	1.147101	0.046260	0.415206
N125	N	1.200889	0.012623	0.390315
C126	C	1.039770	-0.028690	0.584143
N127	N	1.091274	-0.063994	0.608909
