data_functionalizedCrystal
_audit_creation_method	'MofGen! by Chris Wilmer'
_symmetry_space_group_name_H-M	'P1'
_symmetry_Int_Tables_number	1
_symmetry_cell_setting	triclinic
loop_
_symmetry_equiv_pos_as_xyz
  x,y,z
_cell_length_a	10.685980
_cell_length_b	16.959453
_cell_length_c	10.686551
_cell_angle_alpha	94.408900
_cell_angle_beta	98.408259
_cell_angle_gamma	94.386467
loop_
_atom_site_label
_atom_site_type_symbol
_atom_site_fract_x
_atom_site_fract_y
_atom_site_fract_z
Zn1	Zn	1.995762	-0.177169	0.866685
Zn2	Zn	1.979318	-0.320365	0.654406
Zn3	Zn	1.767185	-0.199169	0.638147
Zn4	Zn	1.783441	-0.320288	0.850316
O5	O	1.881427	-0.254248	0.752389
O6	O	2.171215	-0.186989	0.852180
O7	O	1.937493	-0.313527	0.474616
O8	O	1.797585	-0.085633	0.668509
O9	O	2.159134	-0.292195	0.696220
O10	O	1.965519	-0.069470	0.836415
O11	O	1.781640	-0.224485	0.462671
O12	O	1.591707	-0.224410	0.652637
O13	O	1.825291	-0.292064	1.030121
O14	O	1.603650	-0.313396	0.808517
O15	O	1.981282	-0.186915	1.042147
O16	O	1.953256	-0.430971	0.680348
O17	O	1.809346	-0.430915	0.824283
C18	C	1.551620	-0.271283	0.727037
C19	C	1.410529	-0.278588	0.716222
C20	C	1.881317	-0.459622	0.752334
C21	C	1.881390	-0.547473	0.752362
C22	C	1.968986	-0.910458	0.839978
C23	C	1.794237	-0.927406	0.665015
C24	C	1.794187	-0.844864	0.664982
C25	C	1.881537	-0.795115	0.752450
C26	C	1.968936	-0.827908	0.839951
C27	C	1.706781	-0.812065	0.577491
C28	C	1.706728	-0.729518	0.577456
C29	C	1.794085	-0.679767	0.664919
C30	C	1.881488	-0.712565	0.752422
C31	C	1.968838	-0.662816	0.839890
C32	C	2.056249	-0.695613	0.927389
C33	C	2.056293	-0.778158	0.927414
C34	C	1.794040	-0.597222	0.664894
C35	C	1.968789	-0.580267	0.839863
C36	C	2.212521	-0.237146	0.777840
C37	C	2.353614	-0.229859	0.788686
C38	C	1.906934	-0.237027	1.083480
C39	C	1.917804	-0.229688	1.224571
C40	C	1.881573	-0.048068	0.752474
C41	C	1.881636	0.039793	0.752510
C42	C	1.856091	-0.271341	0.422591
C43	C	1.845467	-0.278444	0.281519
H44	H	1.412824	-0.182547	0.858997
H45	H	1.723115	-0.967916	0.593807
H46	H	1.351312	-0.325899	0.645898
O47	O	2.053691	-0.532057	0.924957
C48	C	2.227076	-0.523958	1.098451
C49	C	2.130978	-0.578646	1.002172
H50	H	2.289606	-0.561604	1.160887
H51	H	2.173895	-0.484906	1.160375
H52	H	2.288931	-0.484871	1.045298
H53	H	2.069099	-0.617783	1.055222
H54	H	2.184238	-0.617645	0.940251
H55	H	1.635555	-0.702821	0.506209
H56	H	2.127457	-0.804868	0.998652
O57	O	1.761499	-0.334909	1.211054
C58	C	1.542436	-0.386515	1.153579
C59	C	1.637393	-0.322531	1.233477
H60	H	1.442073	-0.376520	1.171659
H61	H	1.566568	-0.447781	1.181284
H62	H	1.548369	-0.382582	1.048561
H63	H	1.631511	-0.326391	1.338515
H64	H	1.613231	-0.261292	1.205665
H65	H	2.127364	-0.655097	0.998612
O66	O	2.001438	-0.173108	1.295214
C67	C	2.030007	-0.057825	1.446454
C68	C	1.935156	-0.121843	1.366499
H69	H	1.976458	-0.016371	1.504129
H70	H	2.082697	-0.022238	1.380941
H71	H	2.101108	-0.087512	1.513554
H72	H	1.863977	-0.092221	1.299392
H73	H	1.882560	-0.157425	1.432088
O74	O	2.053769	-0.942442	0.924922
C75	C	2.131360	-1.062090	1.002459
C76	C	2.035255	-1.025974	0.906211
H77	H	2.116443	-1.129630	0.987347
H78	H	2.116859	-1.041737	1.103099
H79	H	2.231999	-1.041631	0.988127
H80	H	1.934578	-1.046416	0.920426
H81	H	2.049867	-1.046324	0.805606
H82	H	1.722866	-0.570523	0.593659
O83	O	1.622065	-0.860502	0.492575
C84	C	1.544675	-0.995183	0.415111
C85	C	1.640702	-0.940415	0.511339
H86	H	1.559692	-1.059804	0.430266
H87	H	1.559161	-0.983191	0.314464
H88	H	1.444008	-0.983093	0.429423
H89	H	1.741407	-0.952473	0.497144
H90	H	1.626104	-0.952418	0.611951
