data_functionalizedCrystal
_audit_creation_method	'MofGen! by Chris Wilmer'
_symmetry_space_group_name_H-M	'P1'
_symmetry_Int_Tables_number	1
_symmetry_cell_setting	triclinic
loop_
_symmetry_equiv_pos_as_xyz
  x,y,z
_cell_length_a	17.019282
_cell_length_b	27.731996
_cell_length_c	15.500227
_cell_angle_alpha	92.797931
_cell_angle_beta	91.034464
_cell_angle_gamma	83.006485
loop_
_atom_site_label
_atom_site_type_symbol
_atom_site_fract_x
_atom_site_fract_y
_atom_site_fract_z
O1	O	1.045605	0.061735	0.005972
O2	O	0.816718	0.069063	-0.011090
O3	O	0.938291	-0.004955	-0.002009
O4	O	0.924032	0.135753	-0.003109
O5	O	0.930913	-0.000481	0.141328
O6	O	0.809341	0.073537	0.132248
O7	O	1.038228	0.066209	0.149309
Cu8	Cu	0.923111	0.070282	0.153866
Cu9	Cu	0.931835	0.064991	-0.015647
O10	O	0.916655	0.140227	0.140228
C11	C	0.783756	0.070935	0.058397
C12	C	0.696531	0.069842	0.051896
C13	C	0.651536	0.071766	0.126977
C14	C	0.569580	0.070731	0.120871
C15	C	0.532621	0.067775	0.039683
C16	C	0.577622	0.065850	-0.035404
C17	C	0.659577	0.066881	-0.029297
C18	C	0.285371	0.064536	0.017336
C19	C	0.203410	0.063506	0.011235
C20	C	0.195374	0.068386	0.167510
C21	C	0.277331	0.069420	0.173610
C22	C	0.322325	0.067492	0.098523
C23	C	0.448849	0.066719	0.033440
C24	C	0.406097	0.068545	0.104767
C25	C	0.934309	-0.020727	0.069641
C26	C	0.933426	-0.074388	0.069584
C27	C	0.931898	-0.409579	-0.009005
C28	C	0.928549	-0.611258	-0.009270
O29	O	0.931502	-0.639406	-0.075755
N30	N	0.924111	-0.634039	0.068831
C31	C	0.920506	-0.606397	0.147004
O32	O	0.916647	-0.630401	0.213428
C33	C	0.923850	-0.404718	0.147268
C34	C	0.928296	-0.381940	0.069162
C35	C	0.936343	-0.386801	-0.087105
C36	C	0.937184	-0.336385	-0.087038
C37	C	0.933582	-0.308746	-0.008871
C38	C	0.929137	-0.331524	0.069229
C39	C	0.920239	-0.377076	0.225439
C40	C	0.921073	-0.326653	0.225498
C41	C	0.925519	-0.303875	0.147392
C42	C	0.926376	-0.253469	0.147464
N43	N	0.930814	-0.230688	0.069362
C44	C	0.934416	-0.258326	-0.008805
C45	C	0.918752	-0.712282	0.146860
C46	C	0.917917	-0.762701	0.146795
C47	C	0.925959	-0.767559	-0.009480
C48	C	0.926799	-0.717139	-0.009413
C49	C	0.923189	-0.689501	0.068759
C50	C	0.936184	-0.152448	-0.008658
C51	C	0.937029	-0.102027	-0.008583
C52	C	0.928983	-0.097173	0.147691
C53	C	0.928143	-0.147590	0.147617
C54	C	0.931741	-0.175226	0.069436
O55	O	0.923417	-0.225290	0.213913
O56	O	0.938258	-0.234312	-0.075220
C57	C	0.931057	-0.459996	-0.009073
C58	C	0.926612	-0.482773	0.069027
C59	C	0.923010	-0.455135	0.147194
C60	C	0.925778	-0.533193	0.068961
C61	C	0.929380	-0.560832	-0.009206
C62	C	0.933818	-0.538051	-0.087307
C63	C	0.934659	-0.487634	-0.087240
C64	C	0.918572	-0.477916	0.225296
C65	C	0.917732	-0.528333	0.225222
C66	C	0.921334	-0.555971	0.147055
C67	C	1.071190	0.064337	0.079820
C68	C	1.158415	0.065430	0.086316
C69	C	0.920637	0.155999	0.068576
C70	C	0.921520	0.209660	0.068628
N71	N	0.916980	0.074003	0.273093
N72	N	0.937972	0.061266	-0.134874
C73	C	0.968512	0.042650	0.322219
C74	C	0.963883	0.045469	0.412446
C75	C	0.907725	0.079643	0.453546
C76	C	0.856188	0.110996	0.404413
C77	C	0.860814	0.108175	0.314188
C78	C	0.891060	0.089798	0.725768
C79	C	0.886440	0.092618	0.816000
C80	C	0.994135	0.027090	0.824027
C81	C	0.998759	0.024274	0.733799
C82	C	0.947219	0.055625	0.684675
C83	C	0.902994	0.082525	0.545773
C84	C	0.951947	0.052740	0.592449
H85	H	0.547524	0.063440	-0.101509
Cl86	Cl	0.912344	-0.791331	0.244991
Cl87	Cl	0.924454	-0.062418	0.245953
Cl88	Cl	0.716143	0.064460	-0.123689
H89	H	0.321997	0.062964	-0.043805
H90	H	0.436193	0.070949	0.170870
Cl91	Cl	0.942766	-0.307757	-0.185235
Cl92	Cl	0.513016	0.073158	0.215264
H93	H	0.857270	0.110351	0.579243
H94	H	0.418747	0.064313	-0.032664
Cl95	Cl	0.815835	0.135584	0.867662
H96	H	1.044487	-0.003553	0.700338
H97	H	0.849095	0.115327	0.685778
H98	H	0.930418	-0.698597	-0.073014
Cl99	Cl	0.914210	-0.677543	0.245144
H100	H	0.158731	0.069955	0.228641
H101	H	0.810458	0.138819	0.437882
H102	H	0.924530	-0.166137	0.211218
Cl103	Cl	0.940247	-0.459007	-0.185436
H104	H	0.936755	-0.560563	-0.150954
H105	H	0.914118	-0.546874	0.288831
H106	H	0.307418	0.071825	0.239721
Cl107	Cl	0.942620	-0.073396	-0.106781
Cl108	Cl	0.697991	0.075484	0.229047
Cl109	Cl	0.914037	-0.443177	0.323573
H110	H	0.818850	0.133705	0.274190
H111	H	0.939110	-0.174943	-0.072321
H112	H	0.916620	-0.395613	0.289042
Cl113	Cl	1.039119	-0.000311	0.270561
H114	H	0.173320	0.061101	-0.054882
Cl115	Cl	1.028667	0.006054	0.474206
Cl116	Cl	0.940874	-0.421538	-0.185386
Cl117	Cl	0.930483	-0.802314	-0.107747
H118	H	0.918122	-0.304151	0.289156
Cl119	Cl	1.022541	0.009779	0.540780
H120	H	1.036096	0.001564	0.864032
