data_functionalizedCrystal
_audit_creation_method	'MofGen! by Chris Wilmer'
_symmetry_space_group_name_H-M	'P1'
_symmetry_Int_Tables_number	1
_symmetry_cell_setting	triclinic
loop_
_symmetry_equiv_pos_as_xyz
  x,y,z
_cell_length_a	12.759401
_cell_length_b	14.908520
_cell_length_c	12.759393
_cell_angle_alpha	86.737527
_cell_angle_beta	90.018496
_cell_angle_gamma	93.320696
loop_
_atom_site_label
_atom_site_type_symbol
_atom_site_fract_x
_atom_site_fract_y
_atom_site_fract_z
Zn1	Zn	1.582067	-0.359100	0.618083
Zn2	Zn	2.082067	0.140900	1.118083
Zn3	Zn	1.571798	-0.509987	0.452530
Zn4	Zn	2.071798	-0.009987	0.952530
Zn5	Zn	1.406366	-0.359147	0.442425
Zn6	Zn	1.906366	0.140853	0.942425
Zn7	Zn	1.396199	-0.509917	0.628166
Zn8	Zn	1.896199	-0.009917	1.128166
O9	O	1.489108	-0.434538	0.535301
O10	O	1.989108	0.065462	1.035301
O11	O	1.727726	-0.379125	0.596130
O12	O	2.227726	0.120875	1.096130
O13	O	1.549811	-0.490026	0.304171
O14	O	2.049811	0.009974	0.804171
O15	O	1.438226	-0.232897	0.457278
O16	O	1.938226	0.267103	0.957278
O17	O	1.720181	-0.489981	0.474499
O18	O	2.220181	0.010019	0.974499
O19	O	1.567313	-0.232862	0.586332
O20	O	2.067313	0.267138	1.086332
O21	O	1.428268	-0.379205	0.296748
O22	O	1.928268	0.120795	0.796748
O23	O	1.257997	-0.379138	0.467055
O24	O	1.757997	0.120862	0.967055
O25	O	1.420898	-0.489862	0.773847
O26	O	1.920898	0.010138	1.273847
O27	O	1.250528	-0.489908	0.603519
O28	O	1.750528	0.010092	1.103519
O29	O	1.557454	-0.379058	0.766438
O30	O	2.057454	0.120942	1.266438
O31	O	1.539952	-0.636222	0.484277
O32	O	2.039952	-0.136222	0.984277
O33	O	1.410940	-0.636171	0.613317
O34	O	1.910940	-0.136171	1.113317
C35	C	1.216142	-0.434521	0.535286
C36	C	1.716142	0.065479	1.035286
C37	C	1.099364	-0.434536	0.535305
C38	C	1.599364	0.065464	1.035305
C39	C	1.040634	-0.492306	0.606257
C40	C	1.540634	0.007694	1.106257
C41	C	0.930909	-0.492318	0.606269
C42	C	1.430909	0.007682	1.106269
C43	C	0.938654	-0.376786	0.464369
C44	C	1.438654	0.123214	0.964369
C45	C	1.048377	-0.376771	0.464363
C46	C	1.548377	0.123229	0.964363
C47	C	1.036161	-0.559010	0.688179
C48	C	1.536161	-0.059010	1.188179
C49	C	0.926436	-0.559022	0.688191
C50	C	1.426436	-0.059022	1.188191
C51	C	1.473257	-0.668930	0.551010
C52	C	1.973257	-0.168930	1.051010
C53	C	1.466573	-0.769204	0.557766
C54	C	1.966573	-0.269204	1.057766
C55	C	1.588489	-0.957621	0.436200
C56	C	2.088489	-0.457621	0.936200
C57	C	1.582212	-1.051837	0.442544
C58	C	2.082212	-0.551837	0.942544
C59	C	1.447746	-1.051854	0.576803
C60	C	1.947746	-0.551854	1.076803
C61	C	1.454024	-0.957638	0.570459
C62	C	1.954024	-0.457638	1.070459
C63	C	1.524397	-0.910524	0.500154
C64	C	2.024397	-0.410524	1.000154
C65	C	1.530668	-0.816307	0.493805
C66	C	2.030668	-0.316307	0.993805
C67	C	1.396208	-0.816325	0.628069
C68	C	1.896208	-0.316325	1.128069
C69	C	1.389931	-0.910541	0.634413
C70	C	1.889931	-0.410541	1.134413
C71	C	1.763140	-0.434555	0.535317
C72	C	2.263140	0.065445	1.035317
C73	C	1.879916	-0.434563	0.535324
C74	C	2.379916	0.065437	1.035324
C75	C	1.489187	-0.434447	0.809328
C76	C	1.989187	0.065553	1.309328
C77	C	1.489221	-0.434408	0.926102
C78	C	1.989221	0.065592	1.426102
C79	C	1.505049	-0.199231	0.519553
C80	C	2.005049	0.300769	1.019553
C81	C	1.511842	-0.098957	0.512842
C82	C	2.011842	0.401043	1.012842
C83	C	1.489093	-0.434563	0.262335
C84	C	1.989093	0.065437	0.762335
C85	C	1.489280	-0.434348	0.145545
C86	C	1.989280	0.065652	0.645545
C87	C	1.560336	-0.376707	0.977108
C88	C	2.060336	0.123293	1.477108
C89	C	1.560363	-0.376674	1.086830
C90	C	2.060363	0.123326	1.586830
C91	C	1.418158	-0.492052	1.094531
C92	C	1.918158	0.007948	1.594531
C93	C	1.418126	-0.492079	0.984811
C94	C	1.918126	0.007921	1.484811
C95	C	1.642440	-0.310097	0.972663
C96	C	2.142440	0.189903	1.472663
C97	C	1.642467	-0.310064	1.082385
C98	C	2.142467	0.189936	1.582385
H99	H	1.096192	-0.329723	0.406594
H100	H	1.596192	0.170277	0.906594
H101	H	1.390459	-1.090230	0.634049
H102	H	1.890459	-0.590230	1.134049
F103	F	1.610138	-0.223337	1.121073
F104	F	2.110138	0.276663	1.621073
H105	H	1.360273	-0.539004	1.142345
H106	H	1.860273	-0.039004	1.642345
F107	F	1.620138	-0.218779	0.927636
F108	F	2.120138	0.281221	1.427636
H109	H	0.894118	-0.534082	0.763869
H110	H	1.394118	-0.034082	1.263869
F111	F	1.741235	-0.342830	0.930367
F112	F	2.241235	0.157170	1.430367
F113	F	0.884381	-0.315311	0.388872
F114	F	1.384381	0.184689	0.888872
F115	F	1.076768	-0.534658	0.792947
F116	F	1.576768	-0.034658	1.292947
H117	H	1.065707	-0.625345	0.663346
H118	H	1.565707	-0.125345	1.163346
H119	H	1.722578	-0.328777	1.113419
H120	H	2.222578	0.171223	1.613419
H121	H	1.332638	-0.948914	0.691656
H122	H	1.832638	-0.448914	1.191656
F123	F	1.605560	-0.766166	0.418977
F124	F	2.105560	-0.266166	0.918977
F125	F	1.663370	-0.907477	0.361364
F126	F	2.163370	-0.407477	0.861364
F127	F	0.881337	-0.650316	0.665624
F128	F	1.381337	-0.150316	1.165624
H129	H	1.634405	-1.090179	0.390468
H130	H	2.134405	-0.590179	0.890468
F131	F	1.327980	-0.766195	0.696126
F132	F	1.827980	-0.266195	1.196126
F133	F	1.342423	-0.553480	0.930530
F134	F	1.842423	-0.053480	1.430530
