data_functionalizedCrystal
_audit_creation_method	'MofGen! by Chris Wilmer'
_symmetry_space_group_name_H-M	'P1'
_symmetry_Int_Tables_number	1
_symmetry_cell_setting	triclinic
loop_
_symmetry_equiv_pos_as_xyz
  x,y,z
_cell_length_a	17.077404
_cell_length_b	15.299816
_cell_length_c	17.077396
_cell_angle_alpha	99.656369
_cell_angle_beta	89.981638
_cell_angle_gamma	80.348648
loop_
_atom_site_label
_atom_site_type_symbol
_atom_site_fract_x
_atom_site_fract_y
_atom_site_fract_z
Zn1	Zn	1.254125	-0.359112	-0.497959
Zn2	Zn	1.754125	0.140888	0.002041
Zn3	Zn	1.276742	-0.509943	-0.389432
Zn4	Zn	1.776742	-0.009943	0.110568
Zn5	Zn	1.122861	-0.359138	-0.366713
Zn6	Zn	1.622861	0.140862	0.133287
Zn7	Zn	1.145526	-0.509884	-0.520649
Zn8	Zn	1.645526	-0.009884	-0.020649
O9	O	1.199813	-0.434519	-0.443688
O10	O	1.699813	0.065481	0.056312
O11	O	1.366974	-0.379134	-0.483574
O12	O	1.866974	0.120866	0.016426
O13	O	1.256309	-0.489974	-0.276576
O14	O	1.756309	0.010026	0.223424
O15	O	1.121322	-0.232923	-0.365119
O16	O	1.621322	0.267077	0.134881
O17	O	1.383591	-0.489949	-0.403840
O18	O	1.883591	0.010051	0.096160
O19	O	1.217762	-0.232904	-0.461545
O20	O	1.717762	0.267096	0.038455
O21	O	1.143253	-0.379178	-0.259885
O22	O	1.643253	0.120822	0.240115
O23	O	1.016018	-0.379121	-0.387121
O24	O	1.516018	0.120879	0.112879
O25	O	1.159952	-0.489848	-0.627481
O26	O	1.659952	0.010152	-0.127481
O27	O	1.032670	-0.489873	-0.500217
O28	O	1.532670	0.010127	-0.000217
O29	O	1.239739	-0.379077	-0.610810
O30	O	1.739739	0.120923	-0.110810
O31	O	1.278287	-0.636147	-0.425842
O32	O	1.778287	-0.136147	0.074158
O33	O	1.181883	-0.636103	-0.522247
O34	O	1.681883	-0.136103	-0.022247
C35	C	0.995862	-0.434494	-0.443667
C36	C	1.495862	0.065506	0.056333
C37	C	0.908613	-0.434505	-0.443679
C38	C	1.408613	0.065495	0.056321
C39	C	0.858987	-0.376906	-0.485289
C40	C	1.358987	0.123094	0.014711
C41	C	0.777008	-0.376912	-0.485293
C42	C	1.277008	0.123088	0.014707
C43	C	0.744657	-0.434521	-0.443692
C44	C	1.244657	0.065479	0.056308
C45	C	0.794289	-0.492123	-0.402078
C46	C	1.294289	0.007877	0.097922
C47	C	0.876266	-0.492112	-0.402069
C48	C	1.376266	0.007888	0.097931
C49	C	0.623422	-0.492143	-0.402100
C50	C	1.123422	0.007857	0.097900
C51	C	0.541439	-0.492156	-0.402110
C52	C	1.041439	0.007844	0.097890
C53	C	0.524163	-0.376943	-0.485325
C54	C	1.024163	0.123057	0.014675
C55	C	0.606141	-0.376932	-0.485316
C56	C	1.106141	0.123068	0.014684
C57	C	0.655768	-0.434535	-0.443702
C58	C	1.155768	0.065465	0.056298
C59	C	1.235020	-0.668850	-0.478989
C60	C	1.735020	-0.168850	0.021011
C61	C	1.250153	-0.769097	-0.494117
C62	C	1.750153	-0.269097	0.005883
C63	C	1.092168	-1.052017	-0.335832
C64	C	1.592168	-0.552017	0.164168
C65	C	1.077945	-0.957829	-0.321620
C66	C	1.577945	-0.457829	0.178380
C67	C	1.120996	-0.910642	-0.364743
C68	C	1.620996	-0.410642	0.135257
C69	C	1.178272	-0.957651	-0.422080
C70	C	1.678272	-0.457651	0.077920
C71	C	1.192491	-1.051848	-0.436298
C72	C	1.692491	-0.551848	0.063702
C73	C	1.221320	-0.910473	-0.465209
C74	C	1.721320	-0.410473	0.034791
C75	C	1.278595	-0.957482	-0.522546
C76	C	1.778595	-0.457482	-0.022546
C77	C	1.292813	-1.051669	-0.536761
C78	C	1.792813	-0.551669	-0.036761
C79	C	1.249762	-1.098857	-0.493638
C80	C	1.749762	-0.598857	0.006362
C81	C	1.207100	-0.816276	-0.450991
C82	C	1.707100	-0.316276	0.049009
C83	C	1.307424	-0.816107	-0.551457
C84	C	1.807424	-0.316107	-0.051457
C85	C	1.321646	-0.910294	-0.565669
C86	C	1.821646	-0.410294	-0.065669
C87	C	1.404562	-0.434546	-0.443710
C88	C	1.904562	0.065454	0.056290
C89	C	1.491813	-0.434557	-0.443720
C90	C	1.991813	0.065443	0.056280
C91	C	1.199851	-0.434453	-0.648422
C92	C	1.699851	0.065547	-0.148422
C93	C	1.199867	-0.434425	-0.735668
C94	C	1.699867	0.065575	-0.235668
C95	C	1.164491	-0.199274	-0.408266
C96	C	1.664491	0.300726	0.091734
C97	C	1.149438	-0.099026	-0.393172
C98	C	1.649438	0.400974	0.106828
C99	C	1.241413	-0.376741	-0.767978
C100	C	1.741413	0.123259	-0.267978
C101	C	1.241418	-0.376711	-0.849954
C102	C	1.741418	0.123289	-0.349954
C103	C	1.199881	-0.434370	-0.899619
C104	C	1.699881	0.065630	-0.399619
C105	C	1.158329	-0.492056	-0.867304
C106	C	1.658329	0.007944	-0.367304
C107	C	1.158320	-0.492081	-0.785328
C108	C	1.658320	0.007919	-0.285328
C109	C	1.158353	-0.492002	-1.038166
C110	C	1.658353	0.007998	-0.538166
C111	C	1.158363	-0.491978	-1.120147
C112	C	1.658363	0.008022	-0.620147
C113	C	1.241451	-0.376632	-1.102792
C114	C	1.741451	0.123368	-0.602792
C115	C	1.241442	-0.376657	-1.020816
C116	C	1.741442	0.123343	-0.520816
C117	C	1.199891	-0.434344	-0.988506
C118	C	1.699891	0.065656	-0.488506
C119	C	1.199811	-0.434520	-0.239740
C120	C	1.699811	0.065480	0.260260
C121	C	1.199909	-0.434295	-0.152457
C122	C	1.699909	0.065705	0.347543
H123	H	0.483753	-0.330039	-0.519206
H124	H	0.983753	0.169961	-0.019206
H125	H	1.124506	-0.538999	-0.907747
H126	H	1.624506	-0.038999	-0.407747
C127	C	0.894570	-0.313538	-0.531052
C128	C	1.394570	0.186462	-0.031052
H129	H	0.950502	-0.321785	-0.525095
H130	H	1.450502	0.178215	-0.025095
H131	H	0.872018	-0.252924	-0.510522
H132	H	1.372018	0.247076	-0.010522
H133	H	0.883152	-0.326824	-0.585779
H134	H	1.383152	0.173176	-0.085779
C135	C	0.505849	-0.555514	-0.356342
C136	C	1.005849	-0.055514	0.143658
H137	H	0.449920	-0.547274	-0.362315
H138	H	0.949920	-0.047274	0.137685
H139	H	0.517262	-0.542227	-0.301618
H140	H	1.017262	-0.042227	0.198382
H141	H	0.528400	-0.616134	-0.376870
H142	H	1.028400	-0.116134	0.123130
H143	H	0.663826	-0.539047	-0.368211
H144	H	1.163826	-0.039047	0.131789
C145	C	1.355810	-1.103378	-0.599834
C146	C	1.855810	-0.603378	-0.099834
H147	H	1.379418	-1.061788	-0.623476
H148	H	1.879418	-0.561788	-0.123476
H149	H	1.331311	-1.140124	-0.639555
H150	H	1.831311	-0.640124	-0.139555
H151	H	1.395576	-1.140112	-0.575374
H152	H	1.895576	-0.640112	-0.075374
C153	C	1.354782	-0.764215	-0.598899
C154	C	1.854782	-0.264215	-0.098899
H155	H	1.390920	-0.805701	-0.635092
H156	H	1.890920	-0.305701	-0.135092
H157	H	1.383453	-0.727460	-0.563358
H158	H	1.883453	-0.227460	-0.063358
H159	H	1.319180	-0.727474	-0.627531
H160	H	1.819180	-0.227474	-0.127531
C161	C	1.105358	-0.807038	-0.349104
C162	C	1.605358	-0.307038	0.150896
H163	H	1.065087	-0.785799	-0.308775
H164	H	1.565087	-0.285799	0.191225
H165	H	1.088540	-0.785696	-0.396526
H166	H	1.588540	-0.285696	0.103474
H167	H	1.152804	-0.785699	-0.332344
H168	H	1.652804	-0.285699	0.167656
C169	C	0.758709	-0.555495	-0.356317
C170	C	1.258709	-0.055495	0.143683
H171	H	0.800007	-0.589791	-0.331529
H172	H	1.300007	-0.089791	0.168471
H173	H	0.732658	-0.594840	-0.392218
H174	H	1.232658	-0.094840	0.107782
H175	H	0.721520	-0.520943	-0.316959
H176	H	1.221520	-0.020943	0.183041
C177	C	0.930856	-0.555478	-0.356306
C178	C	1.430856	-0.055478	0.143694
H179	H	0.899851	-0.589797	-0.331538
H180	H	1.399851	-0.089797	0.168462
H181	H	0.957630	-0.520927	-0.316944
H182	H	1.457630	-0.020927	0.183056
H183	H	0.968760	-0.594817	-0.392209
H184	H	1.468760	-0.094817	0.107791
H185	H	1.160466	-0.778009	-0.404307
H186	H	1.660466	-0.278009	0.095693
H187	H	1.031311	-0.919558	-0.274937
H188	H	1.531311	-0.419558	0.225063
H189	H	0.736605	-0.330011	-0.519178
H190	H	1.236605	0.169989	-0.019178
H191	H	1.368280	-0.948583	-0.612354
H192	H	1.868280	-0.448583	-0.112354
H193	H	1.261341	-1.175552	-0.505203
H194	H	1.761341	-0.675552	-0.005203
H195	H	1.057118	-1.090445	-0.300731
H196	H	1.557118	-0.590445	0.199269
C197	C	1.287154	-0.313173	-1.138324
C198	C	1.787154	0.186827	-0.638324
H199	H	1.311899	-0.278846	-1.097006
H200	H	1.811899	0.221154	-0.597006
H201	H	1.251232	-0.273858	-1.164380
H202	H	1.751232	0.226142	-0.664380
H203	H	1.326543	-0.347676	-1.175505
H204	H	1.826543	0.152324	-0.675505
H205	H	0.632479	-0.330026	-0.519197
H206	H	1.132479	0.169974	-0.019197
H207	H	1.124504	-0.538963	-1.011860
H208	H	1.624504	-0.038963	-0.511860
H209	H	1.275241	-0.329791	-0.727546
H210	H	1.775241	0.170209	-0.227546
H211	H	1.275251	-0.329742	-0.876257
H212	H	1.775251	0.170258	-0.376257
H213	H	1.124480	-0.539043	-0.759022
H214	H	1.624480	-0.039043	-0.259022
H215	H	1.275270	-0.329711	-0.980381
H216	H	1.775270	0.170289	-0.480381
C217	C	1.112668	-0.555396	-1.174776
C218	C	1.612668	-0.055396	-0.674776
H219	H	1.087912	-0.589747	-1.143793
H220	H	1.587912	-0.089747	-0.643793
H221	H	1.148598	-0.594689	-1.212677
H222	H	1.648598	-0.094689	-0.712677
H223	H	1.073290	-0.520868	-1.201552
H224	H	1.573290	-0.020868	-0.701552
