data_functionalizedCrystal
_audit_creation_method	'MofGen! by Chris Wilmer'
_symmetry_space_group_name_H-M	'P1'
_symmetry_Int_Tables_number	1
_symmetry_cell_setting	triclinic
loop_
_symmetry_equiv_pos_as_xyz
  x,y,z
_cell_length_a	13.032721
_cell_length_b	13.033293
_cell_length_c	13.032268
_cell_angle_alpha	89.079182
_cell_angle_beta	103.289627
_cell_angle_gamma	105.184121
loop_
_atom_site_label
_atom_site_type_symbol
_atom_site_fract_x
_atom_site_fract_y
_atom_site_fract_z
Zn1	Zn	-0.335776	1.451143	-0.818087
Zn2	Zn	-0.490873	1.451029	-0.663022
Zn3	Zn	-0.330076	1.301807	-0.623641
Zn4	Zn	-0.535864	1.250940	-0.817967
O5	O	-0.423147	1.363730	-0.730679
O6	O	-0.339906	1.597364	-0.814049
O7	O	-0.448329	1.452475	-0.511577
O8	O	-0.179801	1.342952	-0.633004
O9	O	-0.453855	1.597280	-0.700123
O10	O	-0.183988	1.452669	-0.775863
O11	O	-0.330192	1.342842	-0.482644
O12	O	-0.373818	1.148823	-0.632888
O13	O	-0.530536	1.256257	-0.964204
O14	O	-0.525009	1.111451	-0.775658
O15	O	-0.383532	1.403346	-0.964292
O16	O	-0.647872	1.403151	-0.700006
O17	O	-0.680927	1.256146	-0.813844
C18	C	-0.453678	1.092220	-0.699987
C19	C	-0.466769	0.976059	-0.686885
C20	C	-0.416342	0.924284	-0.737521
C21	C	-0.429871	0.804226	-0.723980
C22	C	-0.703561	1.324141	-0.761211
C23	C	-0.823517	1.307296	-0.774319
C24	C	-0.860609	1.372570	-0.723892
C25	C	-0.984590	1.355161	-0.737438
C26	C	-0.141639	1.403498	-0.700054
C27	C	-0.021676	1.420444	-0.687004
C28	C	-0.462688	1.324140	-1.003222
C29	C	-0.479538	1.307269	-1.119363
C30	C	-0.392498	1.636300	-0.761492
C31	C	-0.379436	1.752453	-0.774623
C32	C	-0.414316	1.372524	-1.171186
C33	C	-0.431730	1.355089	-1.291224
C34	C	-0.383675	1.403237	-0.459196
C35	C	-0.366498	1.420353	-0.343045
H36	H	-0.519955	0.931504	-0.633506
N37	N	-0.942171	1.511552	-0.616533
H38	H	-0.952754	1.503502	-0.542159
H39	H	-0.955665	1.581073	-0.643469
H40	H	-0.363149	0.968840	-0.790892
H41	H	-0.883549	1.238528	-0.827524
N42	N	-0.323291	1.463648	-1.112260
H43	H	-0.323766	1.463197	-1.034864
H44	H	-0.334472	1.533149	-1.141563
N45	N	-0.570570	1.216159	-1.178304
H46	H	-0.622333	1.245026	-1.233832
H47	H	-0.611624	1.175032	-1.127163
N48	N	-0.500321	0.745227	-0.653260
H49	H	-0.499997	0.667826	-0.653608
H50	H	-0.577642	0.751030	-0.679926
H51	H	-1.044618	1.286388	-0.790647
N52	N	-0.781104	1.463677	-0.653428
H53	H	-0.703806	1.463202	-0.653742
H54	H	-0.791780	1.455573	-0.579091
N55	N	-0.275455	1.511467	-1.284117
H56	H	-0.234323	1.552620	-1.335195
H57	H	-0.223766	1.482519	-1.228593
H58	H	-0.326238	0.797005	-0.827997
H59	H	-0.500459	1.286303	-1.335719
