data_functionalizedCrystal
_audit_creation_method	'MofGen! by Chris Wilmer'
_symmetry_space_group_name_H-M	'P1'
_symmetry_Int_Tables_number	1
_symmetry_cell_setting	triclinic
loop_
_symmetry_equiv_pos_as_xyz
  x,y,z
_cell_length_a	8.497374
_cell_length_b	8.497374
_cell_length_c	12.759395
_cell_angle_alpha	90.000093
_cell_angle_beta	89.999062
_cell_angle_gamma	90.005237
loop_
_atom_site_label
_atom_site_type_symbol
_atom_site_fract_x
_atom_site_fract_y
_atom_site_fract_z
Zn1	Zn	0.628336	0.892038	1.606168
Zn2	Zn	0.892082	0.628303	1.606159
Zn3	Zn	0.628309	0.628272	1.430525
Zn4	Zn	0.892067	0.892042	1.430500
O5	O	0.760198	0.760164	1.518338
O6	O	0.663340	0.857064	1.753187
O7	O	0.857086	0.407537	1.582868
O8	O	0.407550	0.663247	1.453838
O9	O	0.857113	0.663299	1.753181
O10	O	0.407570	0.857034	1.582882
O11	O	0.663293	0.407514	1.453830
O12	O	0.663279	0.663251	1.283501
O13	O	0.857088	1.112804	1.453795
O14	O	0.857062	0.857042	1.283482
O15	O	0.663326	1.112801	1.582858
O16	O	1.112842	0.663304	1.582844
O17	O	1.112831	0.857072	1.453787
C18	C	0.760167	0.760144	1.245370
C19	C	0.760192	0.760174	1.128594
C20	C	1.170078	0.760187	1.518325
C21	C	1.348722	0.760161	1.518353
C22	C	0.760201	1.171644	1.518330
C23	C	0.760218	1.350288	1.518332
C24	C	0.558742	0.962267	1.128581
C25	C	0.458037	1.063326	1.073713
C26	C	0.458065	1.063346	0.963992
C27	C	0.558806	0.962292	0.909135
C28	C	0.659511	0.861233	0.964002
C29	C	0.659476	0.861227	1.073726
C30	C	0.860950	0.659134	0.964015
C31	C	0.860933	0.659120	1.073737
C32	C	0.961691	0.558080	0.909158
C33	C	1.062407	0.457026	0.964026
C34	C	1.062376	0.457012	1.073754
C35	C	0.961638	0.558061	1.128604
C36	C	0.760231	0.760184	1.792371
C37	C	0.760245	0.760193	1.909148
H38	H	0.558702	0.962254	1.217922
H39	H	1.144416	0.374750	0.919353
N40	N	0.961701	0.558095	0.790817
H41	H	0.990890	0.666271	0.764395
H42	H	1.040778	0.478675	0.764471
H43	H	1.144378	0.374712	1.118420
N44	N	0.961637	0.558075	1.246946
H45	H	0.882547	0.637432	1.273367
H46	H	0.932501	0.449853	1.273301
H47	H	0.376013	1.145599	1.118390
H48	H	0.376052	1.145627	0.919319
H49	H	0.558807	0.962304	0.819794
