data_functionalizedCrystal
_audit_creation_method	'MofGen! by Chris Wilmer'
_symmetry_space_group_name_H-M	'P1'
_symmetry_Int_Tables_number	1
_symmetry_cell_setting	triclinic
loop_
_symmetry_equiv_pos_as_xyz
  x,y,z
_cell_length_a	14.853567
_cell_length_b	14.853567
_cell_length_c	13.930277
_cell_angle_alpha	90.000757
_cell_angle_beta	89.995755
_cell_angle_gamma	96.365070
loop_
_atom_site_label
_atom_site_type_symbol
_atom_site_fract_x
_atom_site_fract_y
_atom_site_fract_z
O1	O	1.196368	-0.117704	-0.079756
O2	O	1.696368	0.382296	0.420244
O3	O	0.933909	-0.131725	-0.079772
O4	O	1.433909	0.368275	0.420228
O5	O	1.072149	0.006516	-0.079767
O6	O	1.572149	0.506516	0.420233
O7	O	1.058128	-0.255944	-0.079762
O8	O	1.558128	0.244056	0.420238
O9	O	1.072130	0.006519	0.079895
O10	O	1.572130	0.506519	0.579895
O11	O	0.933890	-0.131722	0.079890
O12	O	1.433890	0.368278	0.579890
O13	O	1.196349	-0.117701	0.079905
O14	O	1.696349	0.382299	0.579905
Zn15	Zn	1.065116	-0.124711	0.105247
Zn16	Zn	1.565116	0.375289	0.605247
Zn17	Zn	1.065142	-0.124715	-0.105114
Zn18	Zn	1.565142	0.375285	0.394886
O19	O	1.058109	-0.255941	0.079900
O20	O	1.558109	0.244059	0.579900
C21	C	0.900311	-0.131088	0.000057
C22	C	1.400311	0.368912	0.500057
C23	C	0.800227	-0.129184	0.000051
C24	C	1.300227	0.370816	0.500051
C25	C	1.071504	0.040106	0.000061
C26	C	1.571504	0.540106	0.500061
C27	C	1.069601	0.140189	0.000053
C28	C	1.569601	0.640189	0.500053
C29	C	0.387693	-0.039019	0.000070
C30	C	0.887693	0.460981	0.500070
C31	C	0.366412	-0.203251	0.000073
C32	C	0.866412	0.296749	0.500073
C33	C	0.460446	-0.205042	0.000070
C34	C	0.960446	0.294958	0.500070
C35	C	0.518108	-0.123819	0.000066
C36	C	1.018108	0.376181	0.500066
C37	C	0.481736	-0.040806	0.000065
C38	C	0.981736	0.459194	0.500065
C39	C	0.496825	-0.288053	0.000061
C40	C	0.996825	0.211947	0.500061
C41	C	0.590864	-0.289846	0.000057
C42	C	1.090864	0.210154	0.500057
C43	C	0.648528	-0.208623	0.000060
C44	C	1.148528	0.291377	0.500060
C45	C	0.612150	-0.125607	0.000060
C46	C	1.112150	0.374393	0.500060
C47	C	0.669812	-0.044384	0.000056
C48	C	1.169812	0.455616	0.500056
C49	C	0.633437	0.038633	0.000063
C50	C	1.133437	0.538633	0.500063
C51	C	0.539399	0.040417	0.000067
C52	C	1.039399	0.540417	0.500067
C53	C	0.742565	-0.210407	0.000055
C54	C	1.242565	0.289593	0.500055
C55	C	0.763855	-0.046172	0.000050
C56	C	1.263855	0.453828	0.500050
C57	C	1.229947	-0.118337	0.000075
C58	C	1.729947	0.381663	0.500075
C59	C	1.330031	-0.120241	0.000075
C60	C	1.830031	0.379759	0.500075
C61	C	1.058754	-0.289531	0.000070
C62	C	1.558754	0.210469	0.500070
C63	C	1.060657	-0.389615	0.000072
C64	C	1.560657	0.110385	0.500072
N65	N	1.065106	-0.124708	0.248814
N66	N	1.565106	0.375292	0.748814
C67	C	0.979435	0.552723	0.000066
C68	C	1.479435	1.052723	0.500066
C69	C	1.143668	0.574004	0.000076
C70	C	1.643668	1.074004	0.500076
C71	C	1.145458	0.479971	0.000070
C72	C	1.645458	0.979971	0.500070
C73	C	1.064235	0.422309	0.000064
C74	C	1.564235	0.922309	0.500064
C75	C	0.981223	0.458680	0.000063
C76	C	1.481223	0.958680	0.500063
C77	C	1.228469	0.443591	0.000080
C78	C	1.728469	0.943591	0.500080
C79	C	1.230262	0.349552	0.000076
C80	C	1.730262	0.849552	0.500076
C81	C	1.149039	0.291889	0.000063
C82	C	1.649039	0.791889	0.500063
C83	C	1.066023	0.328266	0.000061
C84	C	1.566023	0.828266	0.500061
C85	C	0.984800	0.270604	0.000055
C86	C	1.484800	0.770604	0.500055
C87	C	0.901783	0.306979	0.000047
C88	C	1.401783	0.806979	0.500047
C89	C	0.899999	0.401017	0.000050
C90	C	1.399999	0.901017	0.500050
C91	C	1.150823	0.197851	0.000059
C92	C	1.650823	0.697851	0.500059
C93	C	0.986588	0.176561	0.000052
C94	C	1.486588	0.676561	0.500052
N95	N	1.065160	-0.124711	-0.248680
N96	N	1.565160	0.375289	0.251320
C97	C	1.003926	-0.185904	0.701081
C98	C	1.503926	0.314096	1.201081
C99	C	1.126382	-0.063519	0.701055
C100	C	1.626382	0.436481	1.201055
C101	C	1.126371	-0.063516	0.600559
C102	C	1.626371	0.436484	1.100559
C103	C	1.065138	-0.124709	0.550319
C104	C	1.565138	0.375291	1.050319
C105	C	1.003916	-0.185904	0.600576
C106	C	1.503916	0.314096	1.100576
C107	C	1.187598	-0.002328	0.550295
C108	C	1.687598	0.497672	1.050295
C109	C	1.187591	-0.002323	0.449793
C110	C	1.687591	0.497677	0.949793
C111	C	1.126353	-0.063512	0.399552
C112	C	1.626353	0.436488	0.899552
C113	C	1.065127	-0.124710	0.449814
C114	C	1.565127	0.375290	0.949814
C115	C	1.003894	-0.185902	0.399575
C116	C	1.503894	0.314098	0.899575
C117	C	0.942664	-0.247096	0.449835
C118	C	1.442664	0.252904	0.949835
C119	C	0.942677	-0.247094	0.550334
C120	C	1.442677	0.252906	1.050334
C121	C	1.126339	-0.063515	0.299053
C122	C	1.626339	0.436485	0.799053
C123	C	1.003883	-0.185903	0.299070
C124	C	1.503883	0.314097	0.799070
H125	H	0.810798	0.019971	0.000050
H126	H	1.310798	0.519971	0.500050
O127	O	0.810468	0.440255	0.000047
O128	O	1.310468	0.940255	0.500047
H129	H	0.754287	0.384364	0.000033
H130	H	1.254287	0.884364	0.500033
O131	O	1.316065	0.505786	0.000099
O132	O	1.816065	1.005786	0.500099
H133	H	1.355804	0.492842	-0.064966
H134	H	1.855804	0.992842	0.435034
H135	H	1.218414	0.168238	0.000072
H136	H	1.718414	0.668238	0.500072
H137	H	0.911844	0.582344	0.000055
H138	H	1.411844	1.082344	0.500055
H139	H	0.835652	0.260019	0.000048
H140	H	1.335652	0.760019	0.500048
O141	O	1.253642	0.063669	0.604476
O142	O	1.753642	0.563669	1.104476
H143	H	1.243354	0.053395	0.682803
H144	H	1.743354	0.553395	1.182803
H145	H	1.297860	0.319944	0.000082
H146	H	1.797860	0.819944	0.500082
O147	O	0.500163	0.129949	0.000074
O148	O	1.000163	0.629949	0.500074
H149	H	0.523322	0.168987	-0.064998
H150	H	1.023322	0.668987	0.435002
O151	O	0.630085	-0.379386	0.000064
O152	O	1.130085	0.120614	0.500064
H153	H	0.672418	-0.384143	-0.065014
H154	H	1.172418	0.115857	0.434986
H155	H	0.920445	0.129618	0.000043
H156	H	1.420445	0.629618	0.500043
O157	O	0.348470	0.050520	0.000079
O158	O	0.848470	0.550520	0.500079
H159	H	0.273392	0.038124	0.000081
H160	H	0.773392	0.538124	0.500081
H161	H	0.680397	0.104764	0.000053
H162	H	1.180397	0.604764	0.500053
H163	H	0.319459	-0.269379	0.000068
H164	H	0.819459	0.230621	0.500068
O165	O	0.876649	-0.313102	0.604540
O166	O	1.376649	0.186898	1.104540
H167	H	0.886955	-0.302828	0.682863
H168	H	1.386955	0.197172	1.182863
H169	H	0.449870	-0.354180	0.000054
H170	H	0.949870	0.145820	0.500054
H171	H	1.176240	-0.013702	0.741963
H172	H	1.676240	0.486298	1.241963
H173	H	0.954071	-0.235724	0.742005
H174	H	1.454071	0.264276	1.242005
H175	H	1.237447	0.047505	0.408877
H176	H	1.737447	0.547505	0.908877
O177	O	0.781804	-0.299934	0.000054
O178	O	1.281804	0.200066	0.500054
H179	H	0.725909	-0.356112	0.000061
H180	H	1.225909	0.143888	0.500061
H181	H	1.176196	-0.013696	0.258136
H182	H	1.676196	0.486304	0.758136
H183	H	1.209795	0.620958	0.000088
H184	H	1.709795	1.120958	0.500088
H185	H	0.954016	-0.235731	0.258171
H186	H	1.454016	0.264269	0.758171
H187	H	0.892811	-0.296924	0.408919
H188	H	1.392811	0.203076	0.908919
