data_functionalizedCrystal
_audit_creation_method	'MofGen! by Chris Wilmer'
_symmetry_space_group_name_H-M	'P1'
_symmetry_Int_Tables_number	1
_symmetry_cell_setting	triclinic
loop_
_symmetry_equiv_pos_as_xyz
  x,y,z
_cell_length_a	17.699083
_cell_length_b	19.288865
_cell_length_c	18.366186
_cell_angle_alpha	90.011479
_cell_angle_beta	90.003018
_cell_angle_gamma	83.209632
loop_
_atom_site_label
_atom_site_type_symbol
_atom_site_fract_x
_atom_site_fract_y
_atom_site_fract_z
O1	O	-1.003957	-0.087837	-0.060456
O2	O	-0.670624	0.245496	0.272877
O3	O	-0.337291	0.578830	0.606211
O4	O	-0.783563	-0.099265	-0.060481
O5	O	-0.450229	0.234068	0.272852
O6	O	-0.116896	0.567402	0.606186
O7	O	-0.900128	0.007572	-0.060453
O8	O	-0.566795	0.340905	0.272880
O9	O	-0.233462	0.674238	0.606213
O10	O	-0.887392	-0.194674	-0.060484
O11	O	-0.554058	0.138660	0.272850
O12	O	-0.220725	0.471993	0.606183
O13	O	-0.900109	0.007577	0.060646
O14	O	-0.566775	0.340910	0.393979
O15	O	-0.233442	0.674244	0.727313
O16	O	-0.783543	-0.099260	0.060618
O17	O	-0.450210	0.234074	0.393952
O18	O	-0.116876	0.567407	0.727285
O19	O	-1.003937	-0.087832	0.060643
O20	O	-0.670604	0.245502	0.393977
O21	O	-0.337271	0.578835	0.727310
Zn22	Zn	-0.893737	-0.093545	0.079858
Zn23	Zn	-0.560404	0.239788	0.413191
Zn24	Zn	-0.227070	0.573122	0.746525
Zn25	Zn	-0.893763	-0.093552	-0.079696
Zn26	Zn	-0.560430	0.239782	0.253638
Zn27	Zn	-0.227096	0.573115	0.586971
O28	O	-0.887372	-0.194668	0.060616
O29	O	-0.554039	0.138665	0.393949
O30	O	-0.220705	0.471998	0.727282
C31	C	-0.755356	-0.098853	0.000066
C32	C	-0.422023	0.234481	0.333399
C33	C	-0.088690	0.567814	0.666732
C34	C	-0.671340	-0.097624	0.000057
C35	C	-0.338007	0.235709	0.333390
C36	C	-0.004673	0.569042	0.666724
C37	C	-0.899709	0.033451	0.000098
C38	C	-0.566375	0.366785	0.333432
C39	C	-0.233042	0.700118	0.666765
C40	C	-0.898478	0.110556	0.000105
C41	C	-0.565145	0.443890	0.333438
C42	C	-0.231812	0.777223	0.666771
C43	C	-1.032144	-0.088244	0.000095
C44	C	-0.698810	0.245089	0.333428
C45	C	-0.365477	0.578423	0.666762
C46	C	-1.116160	-0.089472	0.000099
C47	C	-0.782827	0.243861	0.333432
C48	C	-0.449493	0.577194	0.666766
C49	C	-0.622631	-0.160335	0.000048
C50	C	-0.289298	0.172998	0.333381
C51	C	0.044036	0.506331	0.666714
C52	C	-0.543689	-0.159177	0.000057
C53	C	-0.210356	0.174157	0.333391
C54	C	0.122977	0.507490	0.666724
C55	C	-0.513458	-0.095307	0.000071
C56	C	-0.180125	0.238027	0.333404
C57	C	0.153208	0.571360	0.666738
C58	C	-0.562174	-0.032591	0.000082
C59	C	-0.228840	0.300742	0.333416
C60	C	0.104493	0.634076	0.666749
C61	C	-0.641114	-0.033750	0.000078
C62	C	-0.307780	0.299583	0.333411
C63	C	0.025553	0.632916	0.666745
C64	C	-0.243817	-0.027915	0.000101
C65	C	0.089516	0.305418	0.333434
C66	C	0.422850	0.638752	0.666768
C67	C	-0.164871	-0.026761	0.000103
C68	C	0.168463	0.306573	0.333436
C69	C	0.501796	0.639906	0.666770
C70	C	-0.146393	-0.153342	0.000080
C71	C	0.186941	0.179992	0.333414
C72	C	0.520274	0.513325	0.666747
C73	C	-0.225333	-0.154501	0.000076
C74	C	0.108000	0.178833	0.333409
C75	C	0.441334	0.512166	0.666743
C76	C	-0.274041	-0.091785	0.000091
C77	C	0.059292	0.241548	0.333425
C78	C	0.392625	0.574881	0.666758
C79	C	-0.359639	-0.093042	0.000082
C80	C	-0.026305	0.240291	0.333415
C81	C	0.307028	0.573624	0.666749
C82	C	-0.427862	-0.094049	0.000075
C83	C	-0.094529	0.239284	0.333408
C84	C	0.238804	0.572617	0.666741
C85	C	-0.887792	-0.220548	0.000062
C86	C	-0.554458	0.112785	0.333396
C87	C	-0.221125	0.446119	0.666729
C88	C	-0.889022	-0.297653	0.000051
C89	C	-0.555688	0.035680	0.333385
C90	C	-0.222355	0.369014	0.666718
N91	N	-0.893725	-0.093540	0.188749
N92	N	-0.560392	0.239794	0.522083
N93	N	-0.227058	0.573127	0.855416
C94	C	-0.966874	0.155172	0.000116
C95	C	-0.633540	0.488505	0.333449
C96	C	-0.300207	0.821838	0.666783
C97	C	-0.965718	0.227620	0.000104
C98	C	-0.632385	0.560954	0.333438
C99	C	-0.299051	0.894287	0.666771
C100	C	-0.896163	0.255450	0.000096
C101	C	-0.562830	0.588783	0.333429
C102	C	-0.229496	0.922117	0.666763
C103	C	-0.827759	0.210825	0.000081
C104	C	-0.494425	0.544158	0.333414
C105	C	-0.161092	0.877492	0.666747
C106	C	-0.828916	0.138378	0.000085
C107	C	-0.495583	0.471711	0.333418
C108	C	-0.162250	0.805045	0.666752
C109	C	-0.841478	0.363804	0.042508
C110	C	-0.508144	0.697137	0.375842
C111	C	-0.174811	1.030471	0.709175
C112	C	-0.840323	0.436250	0.042509
C113	C	-0.506989	0.769583	0.375842
C114	C	-0.173656	1.102917	0.709175
C115	C	-0.892589	0.478900	0.000079
C116	C	-0.559256	0.812233	0.333413
C117	C	-0.225923	1.145567	0.666746
C118	C	-0.946024	0.449097	-0.042341
C119	C	-0.612690	0.782430	0.290993
C120	C	-0.279357	1.115763	0.624326
C121	C	-0.947181	0.376650	-0.042336
C122	C	-0.613848	0.709983	0.290997
C123	C	-0.280515	1.043317	0.624330
C124	C	-0.894900	0.334006	0.000091
C125	C	-0.561567	0.667339	0.333424
C126	C	-0.228233	1.000672	0.666758
C127	C	-0.959736	0.602073	0.000077
C128	C	-0.626403	0.935406	0.333410
C129	C	-0.293070	1.268739	0.666744
C130	C	-0.958578	0.674522	0.000061
C131	C	-0.625244	1.007855	0.333394
C132	C	-0.291911	1.341189	0.666728
C133	C	-0.820616	0.657725	0.000044
C134	C	-0.487283	0.991059	0.333378
C135	C	-0.153949	1.324392	0.666711
C136	C	-0.821777	0.585277	0.000053
C137	C	-0.488443	0.918611	0.333387
C138	C	-0.155110	1.251944	0.666720
C139	C	-0.891339	0.557456	0.000073
C140	C	-0.558006	0.890789	0.333406
C141	C	-0.224672	1.224122	0.666740
N142	N	-0.893781	-0.093551	-0.188587
N143	N	-0.560448	0.239782	0.144747
N144	N	-0.227115	0.573115	0.478080
C145	C	-0.945357	-0.046256	0.226862
C146	C	-0.612024	0.287078	0.560195
C147	C	-0.278690	0.620411	0.893528
C148	C	-0.945362	-0.046253	0.303090
C149	C	-0.612028	0.287081	0.636423
C150	C	-0.278695	0.620414	0.969756
C151	C	-0.893742	-0.093545	0.341202
C152	C	-0.560408	0.239788	0.674535
C153	C	-0.227075	0.573121	1.007869
C154	C	-0.842100	-0.140833	0.303080
C155	C	-0.508767	0.192500	0.636413
C156	C	-0.175433	0.525834	0.969747
C157	C	-0.842092	-0.140830	0.226854
C158	C	-0.508758	0.192503	0.560187
C159	C	-0.175425	0.525836	0.893520
C160	C	-0.883610	-0.156821	0.461952
C161	C	-0.550277	0.176512	0.795285
C162	C	-0.216943	0.509845	1.128619
C163	C	-0.883624	-0.156825	0.538177
C164	C	-0.550290	0.176508	0.871510
C165	C	-0.216957	0.509842	1.204844
C166	C	-0.893763	-0.093554	0.576309
C167	C	-0.560430	0.239779	0.909643
C168	C	-0.227096	0.573112	1.242976
C169	C	-0.903905	-0.030277	0.538207
C170	C	-0.570572	0.303057	0.871541
C171	C	-0.237239	0.636390	1.204874
C172	C	-0.903897	-0.030274	0.461981
C173	C	-0.570564	0.303059	0.795314
C174	C	-0.237230	0.636393	1.128648
C175	C	-0.893745	-0.093554	0.423857
C176	C	-0.560411	0.239780	0.757190
C177	C	-0.227078	0.573113	1.090523
C178	C	-0.945403	-0.046263	0.697077
C179	C	-0.612070	0.287071	1.030410
C180	C	-0.278737	0.620404	1.363744
C181	C	-0.945403	-0.046259	0.773306
C182	C	-0.612069	0.287075	1.106640
C183	C	-0.278736	0.620408	1.439973
C184	C	-0.842145	-0.140845	0.773295
C185	C	-0.508811	0.192488	1.106629
C186	C	-0.175478	0.525821	1.439962
C187	C	-0.842141	-0.140843	0.697067
C188	C	-0.508808	0.192490	1.030401
C189	C	-0.175475	0.525823	1.363734
C190	C	-0.893775	-0.093553	0.658963
C191	C	-0.560441	0.239780	0.992296
C192	C	-0.227108	0.573114	1.325630
H193	H	-0.647238	-0.212346	0.000036
H194	H	-0.313905	0.120988	0.333369
H195	H	0.019428	0.454321	0.666703
Br196	Br	-0.772080	-0.205022	0.825013
Br197	Br	-0.438747	0.128311	1.158346
Br198	Br	-0.105413	0.461645	1.491679
Br199	Br	-1.015474	0.017919	0.645362
Br200	Br	-0.682140	0.351252	0.978695
Br201	Br	-0.348807	0.684585	1.312028
H202	H	-0.800101	-0.179349	0.666034
H203	H	-0.466767	0.153984	0.999367
H204	H	-0.133434	0.487317	1.332701
Br205	Br	-0.869868	-0.242700	0.589879
Br206	Br	-0.536535	0.090633	0.923212
Br207	Br	-0.203201	0.423967	1.256546
Br208	Br	-1.015474	0.017923	0.825035
Br209	Br	-0.682140	0.351257	1.158368
Br210	Br	-0.348807	0.684590	1.491702
H211	H	-0.140260	0.025253	0.000115
H212	H	0.193073	0.358586	0.333448
H213	H	0.526406	0.691920	0.666782
H214	H	-0.773219	0.102051	0.000076
H215	H	-0.439885	0.435385	0.333409
H216	H	-0.106552	0.768718	0.666743
Br217	Br	-0.869924	-0.242699	0.410209
Br218	Br	-0.536590	0.090634	0.743542
Br219	Br	-0.203257	0.423968	1.076875
H220	H	-0.800069	-0.179339	0.334115
H221	H	-0.466735	0.153995	0.667448
H222	H	-0.133402	0.487328	1.000782
Br223	Br	-0.266357	-0.241184	0.000051
Br224	Br	0.066977	0.092149	0.333384
Br225	Br	0.400310	0.425482	0.666717
H226	H	-0.800046	-0.179335	0.195822
H227	H	-0.466712	0.153998	0.529155
H228	H	-0.133379	0.487331	0.862488
H229	H	-0.987398	-0.007747	0.195839
H230	H	-0.654065	0.325586	0.529173
H231	H	-0.320731	0.658919	0.862506
Br232	Br	-0.080284	-0.238457	0.000061
Br233	Br	0.253049	0.094876	0.333394
Br234	Br	0.586383	0.428209	0.666727
Br235	Br	-0.733362	0.248592	0.000060
Br236	Br	-0.400028	0.581925	0.333393
Br237	Br	-0.066695	0.915258	0.666727
H238	H	-0.766082	0.548950	0.000048
H239	H	-0.432748	0.882284	0.333381
H240	H	-0.099415	1.215617	0.666715
H241	H	-0.283467	0.023152	0.000114
H242	H	0.049867	0.356485	0.333447
H243	H	0.383200	0.689819	0.666781
H244	H	-0.987408	-0.007747	0.334127
H245	H	-0.654075	0.325587	0.667460
H246	H	-0.320741	0.658920	1.000793
H247	H	-1.016378	0.579419	0.000090
H248	H	-0.683044	0.912753	0.333423
H249	H	-0.349711	1.246086	0.666756
Br250	Br	-0.477586	-0.244288	0.000042
Br251	Br	-0.144253	0.089045	0.333376
Br252	Br	0.189081	0.422378	0.666709
H253	H	-0.537553	0.019413	0.000104
H254	H	-0.204220	0.352746	0.333437
H255	H	0.129113	0.686080	0.666770
Br256	Br	-0.917653	0.055598	0.410273
Br257	Br	-0.584320	0.388931	0.743606
Br258	Br	-0.250986	0.722264	1.076940
H259	H	-0.680773	0.017316	0.000085
H260	H	-0.347439	0.350649	0.333418
H261	H	-0.014106	0.683982	0.666752
H262	H	-1.023517	0.132524	0.000130
H263	H	-0.690183	0.465858	0.333463
H264	H	-0.356850	0.799191	0.666796
Br265	Br	-0.917676	0.055597	0.589948
Br266	Br	-0.584343	0.388931	0.923282
Br267	Br	-0.251010	0.722264	1.256615
Br268	Br	-1.019692	0.336203	-0.099906
Br269	Br	-0.686358	0.669537	0.233427
Br270	Br	-0.353025	1.002870	0.566760
Br271	Br	-1.058547	0.288181	0.000117
Br272	Br	-0.725213	0.621515	0.333450
Br273	Br	-0.391880	0.954848	0.666783
Br274	Br	-0.726218	0.695486	0.000026
Br275	Br	-0.392885	1.028819	0.333359
Br276	Br	-0.059551	1.362153	0.666692
Br277	Br	-0.767811	0.476690	0.100082
Br278	Br	-0.434478	0.810024	0.433416
Br279	Br	-0.101144	1.143357	0.766749
Br280	Br	-1.016963	0.506970	-0.099927
Br281	Br	-0.683630	0.840303	0.233407
Br282	Br	-0.350296	1.173637	0.566740
H283	H	-1.014276	0.710848	0.000066
H284	H	-0.680942	1.044181	0.333399
H285	H	-0.347609	1.377515	0.666733
H286	H	-0.798914	0.329083	0.077063
H287	H	-0.465581	0.662417	0.410397
H288	H	-0.132247	0.995750	0.743730
