data_functionalizedCrystal
_audit_creation_method	'MofGen! by Chris Wilmer'
_symmetry_space_group_name_H-M	'P1'
_symmetry_Int_Tables_number	1
_symmetry_cell_setting	triclinic
loop_
_symmetry_equiv_pos_as_xyz
  x,y,z
_cell_length_a	10.723024
_cell_length_b	14.750779
_cell_length_c	10.723023
_cell_angle_alpha	102.763774
_cell_angle_beta	84.467709
_cell_angle_gamma	77.235498
loop_
_atom_site_label
_atom_site_type_symbol
_atom_site_fract_x
_atom_site_fract_y
_atom_site_fract_z
O1	O	1.630334	0.079817	0.201867
O2	O	1.267180	0.079820	0.218622
O3	O	1.457135	0.079815	0.028667
O4	O	1.440378	0.079823	0.391822
O5	O	1.510833	-0.079837	-0.025025
O6	O	1.320878	-0.079831	0.164930
O7	O	1.684032	-0.079834	0.148175
Zn8	Zn	1.510981	-0.105181	0.148028
Zn9	Zn	1.440231	0.105167	0.218769
O10	O	1.494076	-0.079829	0.338130
C11	C	1.247529	-0.000005	0.190557
C12	C	1.108975	-0.000004	0.186909
N13	N	1.559274	-0.248738	0.099748
C14	C	1.033991	-0.000001	0.293198
C15	C	0.890787	0.000000	0.289431
C16	C	1.257069	-0.600548	0.401823
C17	C	1.290919	-0.701048	0.368000
C18	C	1.459160	-0.701015	0.199858
C19	C	1.425320	-0.600513	0.233663
C20	C	1.324274	-0.550287	0.334647
C21	C	1.492525	-0.550253	0.166487
C22	C	1.458691	-0.449759	0.200294
C23	C	1.357652	-0.399526	0.301277
C24	C	1.290440	-0.449794	0.368454
C25	C	1.593576	-0.600481	0.065509
C26	C	1.660781	-0.550220	-0.001667
C27	C	1.626942	-0.449725	0.032134
C28	C	1.525903	-0.399492	0.133117
C29	C	1.694154	-0.399458	-0.035044
C30	C	1.660320	-0.298964	-0.001237
C31	C	1.492069	-0.298999	0.166924
C32	C	1.703682	-0.000007	0.176241
C33	C	1.842234	-0.000002	0.179891
C34	C	1.482765	-0.000010	-0.044678
C35	C	1.479117	-0.000007	-0.183232
N36	N	1.391947	0.248724	0.267040
C37	C	1.449673	0.082699	-0.217183
C38	C	1.445902	0.082704	-0.360384
C39	C	1.468446	-0.000002	0.411476
C40	C	1.472092	0.000001	0.550032
H41	H	1.075814	-0.000004	0.386983
Cl42	Cl	1.044420	-0.000014	0.042100
Cl43	Cl	0.791310	0.000012	0.429925
Cl44	Cl	1.821191	-0.462608	-0.161978
Cl45	Cl	1.415092	0.192020	-0.098391
H46	H	1.420694	0.153511	-0.389689
Cl47	Cl	1.365024	-0.235854	0.293866
H48	H	0.906658	0.000002	0.088896
H49	H	1.330110	-0.317698	0.328805
Cl50	Cl	1.206420	-0.764225	0.452469
Cl51	Cl	1.744813	-0.235778	-0.085686
H52	H	1.743057	-0.591126	-0.083887
Cl53	Cl	1.511033	-0.109330	-0.404745
H54	H	1.208150	-0.408898	0.450677
Cl55	Cl	1.513717	-0.109328	-0.302025
H56	H	1.174779	-0.559652	0.484046
H57	H	1.541436	-0.741921	0.117638
Cl58	Cl	1.636111	-0.726817	0.023019
