data_functionalizedCrystal
_audit_creation_method	'MofGen! by Chris Wilmer'
_symmetry_space_group_name_H-M	'P1'
_symmetry_Int_Tables_number	1
_symmetry_cell_setting	triclinic
loop_
_symmetry_equiv_pos_as_xyz
  x,y,z
_cell_length_a	12.827893
_cell_length_b	16.625545
_cell_length_c	16.625539
_cell_angle_alpha	90.026243
_cell_angle_beta	90.015091
_cell_angle_gamma	90.025719
loop_
_atom_site_label
_atom_site_type_symbol
_atom_site_fract_x
_atom_site_fract_y
_atom_site_fract_z
Zn1	Zn	1.597553	-0.321012	0.455868
Zn2	Zn	1.847553	-0.071012	0.705868
Zn3	Zn	2.097553	0.178988	0.955868
Zn4	Zn	2.347553	0.428988	1.205868
Zn5	Zn	1.597428	-0.455850	0.321036
Zn6	Zn	1.847428	-0.205850	0.571036
Zn7	Zn	2.097428	0.044150	0.821036
Zn8	Zn	2.347428	0.294150	1.071036
Zn9	Zn	1.422807	-0.321036	0.321053
Zn10	Zn	1.672807	-0.071036	0.571053
Zn11	Zn	1.922807	0.178964	0.821053
Zn12	Zn	2.172807	0.428964	1.071053
Zn13	Zn	1.422748	-0.455806	0.455830
Zn14	Zn	1.672748	-0.205806	0.705830
Zn15	Zn	1.922748	0.044194	0.955830
Zn16	Zn	2.172748	0.294194	1.205830
O17	O	1.510134	-0.388426	0.388447
O18	O	1.760134	-0.138426	0.638447
O19	O	2.010134	0.111574	0.888447
O20	O	2.260134	0.361574	1.138447
O21	O	1.743772	-0.338907	0.437991
O22	O	1.993772	-0.088907	0.687991
O23	O	2.243772	0.161093	0.937991
O24	O	2.493772	0.411093	1.187991
O25	O	1.574237	-0.437995	0.208206
O26	O	1.824237	-0.187995	0.458206
O27	O	2.074237	0.062005	0.708206
O28	O	2.324237	0.312005	0.958206
O29	O	1.446064	-0.208200	0.338960
O30	O	1.696064	0.041800	0.588960
O31	O	1.946064	0.291800	0.838960
O32	O	2.196064	0.541800	1.088960
O33	O	1.743681	-0.437972	0.338930
O34	O	1.993681	-0.187972	0.588930
O35	O	2.243681	0.062028	0.838930
O36	O	2.493681	0.312028	1.088930
O37	O	1.574449	-0.208182	0.438008
O38	O	1.824449	0.041818	0.688008
O39	O	2.074449	0.291818	0.938008
O40	O	2.324449	0.541818	1.188008
O41	O	1.445943	-0.338948	0.208219
O42	O	1.695943	-0.088948	0.458219
O43	O	1.945943	0.161052	0.708219
O44	O	2.195943	0.411052	0.958219
O45	O	1.276563	-0.338905	0.338923
O46	O	1.526563	-0.088905	0.588923
O47	O	1.776563	0.161095	0.838923
O48	O	2.026563	0.411095	1.088923
O49	O	1.445964	-0.437897	0.568668
O50	O	1.695964	-0.187897	0.818668
O51	O	1.945964	0.062103	1.068668
O52	O	2.195964	0.312103	1.318668
O53	O	1.276520	-0.437920	0.437943
O54	O	1.526520	-0.187920	0.687943
O55	O	1.776520	0.062080	0.937943
O56	O	2.026520	0.312080	1.187943
O57	O	1.574392	-0.338864	0.568696
O58	O	1.824392	-0.088864	0.818696
O59	O	2.074392	0.161136	1.068696
O60	O	2.324392	0.411136	1.318696
O61	O	1.574180	-0.568677	0.338893
O62	O	1.824180	-0.318677	0.588893
O63	O	2.074180	-0.068677	0.838893
O64	O	2.324180	0.181323	1.088893
O65	O	1.445844	-0.568645	0.437926
O66	O	1.695844	-0.318645	0.687926
O67	O	1.945844	-0.068645	0.937926
O68	O	2.195844	0.181355	1.187926
C69	C	1.238624	-0.388411	0.388432
C70	C	1.488624	-0.138411	0.638432
C71	C	1.738624	0.111589	0.888432
C72	C	1.988624	0.361589	1.138432
C73	C	1.122471	-0.388424	0.388444
C74	C	1.372471	-0.138424	0.638444
C75	C	1.622471	0.111576	0.888444
C76	C	1.872471	0.361576	1.138444
C77	C	1.070731	-0.339490	0.437539
C78	C	1.320731	-0.089490	0.687539
C79	C	1.570731	0.160510	0.937539
C80	C	1.820731	0.410510	1.187539
C81	C	0.950681	-0.339503	0.437553
C82	C	1.200681	-0.089503	0.687553
C83	C	1.450681	0.160497	0.937553
C84	C	1.700681	0.410497	1.187553
C85	C	1.510021	-0.597917	0.388422
C86	C	1.760021	-0.347917	0.638422
C87	C	2.010021	-0.097917	0.888422
C88	C	2.260021	0.152083	1.138422
C89	C	1.510068	-0.687538	0.388438
C90	C	1.760068	-0.437538	0.638438
C91	C	2.010068	-0.187538	0.888438
C92	C	2.260068	0.062462	1.138438
C93	C	1.510108	-0.760320	0.388454
C94	C	1.760108	-0.510320	0.638454
C95	C	2.010108	-0.260320	0.888454
C96	C	2.260108	-0.010320	1.138454
C97	C	1.510169	-0.851629	0.388471
C98	C	1.760169	-0.601629	0.638471
C99	C	2.010169	-0.351629	0.888471
C100	C	2.260169	-0.101629	1.138471
C101	C	1.510223	-0.924405	0.388482
C102	C	1.760223	-0.674405	0.638482
C103	C	2.010223	-0.424405	0.888482
C104	C	2.260223	-0.174405	1.138482
C105	C	1.510283	-1.015720	0.388498
C106	C	1.760283	-0.765720	0.638498
C107	C	2.010283	-0.515720	0.888498
C108	C	2.260283	-0.265720	1.138498
C109	C	1.782704	-0.388441	0.388463
C110	C	2.032704	-0.138441	0.638463
C111	C	2.282704	0.111559	0.888463
C112	C	2.532704	0.361559	1.138463
C113	C	1.898857	-0.388448	0.388470
C114	C	2.148857	-0.138448	0.638470
C115	C	2.398857	0.111552	0.888470
C116	C	2.648857	0.361552	1.138470
C117	C	1.510185	-0.388373	0.598756
C118	C	1.760185	-0.138373	0.848756
C119	C	2.010185	0.111627	1.098756
C120	C	2.260185	0.361627	1.348756
C121	C	1.510207	-0.388350	0.688377
C122	C	1.760207	-0.138350	0.938377
C123	C	2.010207	0.111650	1.188377
C124	C	2.260207	0.361650	1.438377
C125	C	1.510277	-0.178117	0.388490
C126	C	1.760277	0.071883	0.638490
C127	C	2.010277	0.321883	0.888490
C128	C	2.260277	0.571883	1.138490
C129	C	1.510337	-0.088496	0.388508
C130	C	1.760337	0.161504	0.638508
C131	C	2.010337	0.411504	0.888508
C132	C	2.260337	0.661504	1.138508
C133	C	1.510143	-0.388421	0.178956
C134	C	1.760143	-0.138421	0.428956
C135	C	2.010143	0.111579	0.678956
C136	C	2.260143	0.361579	0.928956
C137	C	1.510324	-0.388216	0.089335
C138	C	1.760324	-0.138216	0.339335
C139	C	2.010324	0.111784	0.589335
C140	C	2.260324	0.361784	0.839335
C141	C	1.510224	-0.388332	0.761160
C142	C	1.760224	-0.138332	1.011160
C143	C	2.010224	0.111668	1.261160
C144	C	2.260224	0.361668	1.511160
C145	C	1.510249	-0.388302	0.852468
C146	C	1.760249	-0.138302	1.102468
C147	C	2.010249	0.111698	1.352468
C148	C	2.260249	0.361698	1.602468
C149	C	1.510273	-0.388274	0.925245
C150	C	1.760273	-0.138274	1.175245
C151	C	2.010273	0.111726	1.425245
C152	C	2.260273	0.361726	1.675245
C153	C	1.510299	-0.388245	1.016559
C154	C	1.760299	-0.138245	1.266559
C155	C	2.010299	0.111755	1.516559
C156	C	2.260299	0.361755	1.766559
H157	H	1.077891	-0.430326	0.346421
H158	H	1.327891	-0.180326	0.596421
H159	H	1.577891	0.069674	0.846421
H160	H	1.827891	0.319674	1.096421
H161	H	1.115312	-0.297584	0.479557
H162	H	1.365312	-0.047584	0.729557
H163	H	1.615312	0.202416	0.979557
H164	H	1.865312	0.452416	1.229557
H165	H	0.906186	-0.297611	0.479587
H166	H	1.156186	-0.047611	0.729587
H167	H	1.406186	0.202389	0.979587
H168	H	1.656186	0.452389	1.229587
F169	F	0.957005	-0.443215	0.333531
F170	F	1.207005	-0.193215	0.583531
F171	F	1.457005	0.056785	0.833531
F172	F	1.707005	0.306785	1.083531
