data_functionalizedCrystal
_audit_creation_method	'MofGen! by Chris Wilmer'
_symmetry_space_group_name_H-M	'P1'
_symmetry_Int_Tables_number	1
_symmetry_cell_setting	triclinic
loop_
_symmetry_equiv_pos_as_xyz
  x,y,z
_cell_length_a	10.868271
_cell_length_b	17.699083
_cell_length_c	17.699083
_cell_angle_alpha	83.283015
_cell_angle_beta	90.006025
_cell_angle_gamma	89.998288
loop_
_atom_site_label
_atom_site_type_symbol
_atom_site_fract_x
_atom_site_fract_y
_atom_site_fract_z
O1	O	-0.102152	-1.004076	-0.095712
O2	O	-0.102193	-0.783697	-0.108164
O3	O	-0.102161	-0.900113	0.008251
O4	O	-0.102185	-0.887660	-0.212127
O5	O	0.102484	-0.900103	0.008256
O6	O	0.102452	-0.783688	-0.108160
O7	O	0.102492	-1.004066	-0.095707
Zn8	Zn	0.134964	-0.893875	-0.101933
Zn9	Zn	-0.134664	-0.893888	-0.101939
O10	O	0.102460	-0.887651	-0.212123
C11	C	0.000124	-0.755495	-0.107716
C12	C	0.000109	-0.671477	-0.106377
N13	N	0.318978	-0.893872	-0.101928
N14	N	-0.318678	-0.893897	-0.101937
C15	C	0.569984	-0.893884	-0.101937
C16	C	0.430306	-0.893875	-0.101934
C17	C	0.000162	-0.899662	0.036451
C18	C	0.000162	-0.898323	0.120469
C19	C	0.000173	-1.032268	-0.096156
C20	C	0.000180	-1.116286	-0.097494
C21	C	0.000102	-0.622856	-0.174710
C22	C	0.000118	-0.543913	-0.173448
C23	C	0.000133	-0.513592	-0.103852
C24	C	0.000143	-0.562219	-0.035513
C25	C	0.000136	-0.641161	-0.036776
C26	C	0.000174	-0.243856	-0.030418
C27	C	0.000178	-0.164908	-0.029160
C28	C	0.000156	-0.146608	-0.167090
C29	C	0.000149	-0.225550	-0.168353
C30	C	0.000166	-0.274170	-0.100015
C31	C	0.000151	-0.359769	-0.101384
C32	C	0.000139	-0.427995	-0.102481
C33	C	0.000135	-0.888102	-0.240322
C34	C	0.000127	-0.889440	-0.324340
C35	C	0.000176	-0.966656	0.169090
C36	C	0.000165	-0.965394	0.248033
C37	C	0.000149	-0.895798	0.278354
C38	C	0.000131	-0.827459	0.229727
C39	C	0.000133	-0.828722	0.150785
C40	C	0.000120	-0.822364	0.548090
C41	C	0.000121	-0.821106	0.627038
C42	C	0.000152	-0.959036	0.645338
C43	C	0.000154	-0.960299	0.566396
C44	C	0.000130	-0.891961	0.517776
C45	C	0.000140	-0.893330	0.432177
C46	C	0.000148	-0.894427	0.363951
H47	H	0.000111	-0.504328	-0.229092
O48	O	0.000169	-0.759918	0.259304
C49	C	0.000143	-0.773455	0.339406
H50	H	0.038898	-0.832551	0.358056
H51	H	0.059549	-0.728926	0.363565
H52	H	-0.098035	-0.769832	0.361369
H53	H	0.000110	-0.764429	0.651721
O54	O	0.000378	-1.025442	0.692538
C55	C	0.106362	-1.067708	0.678811
H56	H	0.180434	-1.027696	0.651763
H57	H	0.141939	-1.098161	0.734880
H58	H	0.082414	-1.111442	0.638690
H59	H	0.000173	-0.537526	0.021154
O60	O	-0.000031	-0.254909	-0.236008
C61	C	-0.106037	-0.230057	-0.277648
H62	H	-0.141364	-0.175343	-0.257118
H63	H	-0.082208	-0.218980	-0.340696
H64	H	-0.180257	-0.275751	-0.268803
O65	O	0.000363	-0.135364	0.038403
C66	C	0.106367	-0.090265	0.043261
H67	H	0.141687	-0.070498	-0.016431
H68	H	0.082538	-0.038623	0.073334
H69	H	0.180592	-0.125204	0.076809
O70	O	0.000242	-1.031843	0.295155
C71	C	0.000238	-1.093541	0.251465
H72	H	0.038977	-1.074217	0.192513
H73	H	0.059668	-1.141404	0.280679
H74	H	-0.097932	-1.114892	0.245877
H75	H	0.000141	-0.680748	0.018868
H76	H	0.000149	-0.107012	-0.222734
H77	H	0.000121	-0.773078	0.111198
H78	H	0.000189	-0.283434	0.025228
O79	O	0.000028	-1.034216	0.139549
C80	C	-0.105973	-1.039085	0.094442
H81	H	-0.141317	-0.979397	0.074666
H82	H	-0.082131	-1.069162	0.042806
H83	H	-0.180186	-1.072634	0.129377
H84	H	0.000174	-1.016971	0.541714
O85	O	-0.000054	-0.755931	0.500946
C86	C	-0.106061	-0.713679	0.514654
H87	H	-0.141396	-0.732381	0.574569
H88	H	-0.082230	-0.650544	0.508993
H89	H	-0.180275	-0.723944	0.471486
O90	O	0.000141	-0.652181	-0.242384
C91	C	0.000109	-0.592334	-0.302425
H92	H	0.038861	-0.538748	-0.281304
H93	H	0.059515	-0.608744	-0.351024
H94	H	-0.098071	-0.581118	-0.323499
