data_functionalizedCrystal
_audit_creation_method	'MofGen! by Chris Wilmer'
_symmetry_space_group_name_H-M	'P1'
_symmetry_Int_Tables_number	1
_symmetry_cell_setting	triclinic
loop_
_symmetry_equiv_pos_as_xyz
  x,y,z
_cell_length_a	12.784890
_cell_length_b	15.944493
_cell_length_c	11.295483
_cell_angle_alpha	94.100278
_cell_angle_beta	86.328828
_cell_angle_gamma	78.290801
loop_
_atom_site_label
_atom_site_type_symbol
_atom_site_fract_x
_atom_site_fract_y
_atom_site_fract_z
O1	O	1.417475	-0.000922	-0.098988
O2	O	1.917475	0.499078	0.401012
O3	O	1.108013	0.035052	-0.098993
O4	O	1.608013	0.535052	0.401007
O5	O	1.271228	-0.105834	-0.099001
O6	O	1.771228	0.394166	0.400999
O7	O	1.254261	0.139964	-0.098981
O8	O	1.754261	0.639964	0.401019
O9	O	1.256892	-0.093477	0.099051
O10	O	1.756892	0.406523	0.599051
O11	O	1.093678	0.047409	0.099058
O12	O	1.593678	0.547409	0.599058
O13	O	1.403140	0.011434	0.099063
O14	O	1.903140	0.511434	0.599063
Cu15	Cu	1.247100	0.030550	0.117144
Cu16	Cu	1.747100	0.530550	0.617144
Cu17	Cu	1.264053	0.015937	-0.117075
Cu18	Cu	1.764053	0.515937	0.382925
O19	O	1.239925	0.152321	0.099070
O20	O	1.739925	0.652321	0.599070
C21	C	1.061246	0.043571	0.000031
C22	C	1.561246	0.543571	0.500031
C23	C	0.943250	0.050532	0.000028
C24	C	1.443250	0.550532	0.500028
C25	C	0.764257	0.137784	0.000034
C26	C	1.264257	0.637784	0.500034
C27	C	0.875123	0.131248	0.000033
C28	C	1.375123	0.631248	0.500033
C29	C	0.900505	-0.023653	0.000021
C30	C	1.400505	0.476347	0.500021
C31	C	0.789639	-0.017118	0.000021
C32	C	1.289639	0.482882	0.500021
C33	C	0.721518	0.063604	0.000030
C34	C	1.221518	0.563604	0.500030
C35	C	0.610649	0.070140	0.000039
C36	C	1.110649	0.570140	0.500039
C37	C	0.636033	-0.084762	0.000017
C38	C	1.136033	0.415238	0.500017
C39	C	0.746900	-0.091298	0.000017
C40	C	1.246900	0.408702	0.500017
C41	C	1.263367	-0.130900	0.000020
C42	C	1.763367	0.369100	0.500020
C43	C	1.261289	-0.223997	0.000005
C44	C	1.761289	0.276003	0.500005
C45	C	1.357359	-0.466778	0.000029
C46	C	1.857359	0.033222	0.500029
C47	C	1.312619	-0.519652	-0.097621
C48	C	1.812619	-0.019652	0.402379
C49	C	1.257436	-0.394436	0.000019
C50	C	1.757436	0.105564	0.500019
C51	C	1.298463	-0.507443	0.097642
C52	C	1.798463	-0.007443	0.597642
C53	C	1.253721	-0.559073	0.000039
C54	C	1.753721	-0.059073	0.500039
C55	C	1.212729	-0.446089	-0.097711
C56	C	1.712729	0.053911	0.402289
C57	C	1.198581	-0.433872	0.097640
C58	C	1.698581	0.066128	0.597640
C59	C	1.153769	-0.486710	-0.000034
C60	C	1.653769	0.013290	0.499966
C61	C	1.259579	-0.299593	0.000007
C62	C	1.759579	0.200407	0.500007
C63	C	1.251571	-0.653913	0.000042
C64	C	1.751571	-0.153913	0.500042
C65	C	1.449908	0.002916	0.000036
C66	C	1.949908	0.502916	0.500036
C67	C	1.567903	-0.004046	0.000031
C68	C	2.067903	0.495954	0.500031
C69	C	1.247786	0.177386	0.000047
C70	C	1.747786	0.677386	0.500047
C71	C	1.249865	0.270484	0.000054
C72	C	1.749865	0.770484	0.500054
N73	N	1.235184	0.040827	0.281881
N74	N	1.735184	0.540827	0.781881
N75	N	1.275978	0.005652	-0.281811
N76	N	1.775978	0.505652	0.218189
C77	C	1.361759	-0.068376	0.531165
C78	C	1.861759	0.431624	1.031165
C79	C	1.352761	-0.060604	0.655829
C80	C	1.852761	0.439396	1.155829
C81	C	1.208186	0.064139	0.655875
C82	C	1.708186	0.564139	1.155875
C83	C	1.217184	0.056367	0.531211
C84	C	1.717184	0.556367	1.031211
C85	C	1.293973	-0.009892	0.468861
C86	C	1.793973	0.490108	0.968861
C87	C	1.302976	-0.017660	0.344194
C88	C	1.802976	0.482340	0.844194
C89	C	1.158396	0.107079	0.344243
C90	C	1.658396	0.607079	0.844243
C91	C	1.149399	0.114851	0.468907
C92	C	1.649399	0.614851	0.968907
H93	H	0.909916	0.191654	0.000039
H94	H	1.409916	0.691654	0.500039
H95	H	1.103204	0.154703	0.293500
H96	H	1.603204	0.654703	0.793500
N97	N	0.541078	0.152598	0.000058
N98	N	1.041078	0.652598	0.500058
N99	N	0.579257	0.218823	0.000062
N100	N	1.079257	0.718823	0.500062
H101	H	0.530125	0.277062	0.000074
H102	H	1.030125	0.777062	0.500074
N103	N	0.694681	0.220242	0.000064
N104	N	1.194681	0.720242	0.500064
N105	N	0.732854	0.286470	0.000082
N106	N	1.232854	0.786470	0.500082
H107	H	0.683718	0.344709	0.000106
H108	H	1.183718	0.844709	0.500106
N109	N	0.970114	-0.106097	-0.000013
N110	N	1.470114	0.393903	0.499987
N111	N	1.069099	-0.111917	-0.000030
N112	N	1.569099	0.388083	0.499970
H113	H	1.118264	-0.170143	-0.000058
H114	H	1.618264	0.329857	0.499942
N115	N	1.070951	0.182518	0.532605
N116	N	1.570951	0.682518	1.032605
N117	N	0.999957	0.164992	0.602175
N118	N	1.499957	0.664992	1.102175
H119	H	0.944552	0.212783	0.647162
H120	H	1.444552	0.712783	1.147162
N121	N	1.138197	-0.387221	0.201217
N122	N	1.638197	0.112779	0.701217
N123	N	1.164954	-0.404795	0.302538
N124	N	1.664954	0.095205	0.802538
H125	H	1.122315	-0.371848	0.375700
H126	H	1.622315	0.128152	0.875700
H127	H	0.802378	-0.157019	0.000006
H128	H	1.302378	0.342981	0.500006
N129	N	1.381395	-0.085341	0.280483
N130	N	1.881395	0.414659	0.780483
N131	N	1.389419	-0.092275	0.169177
N132	N	1.889419	0.407725	0.669177
H133	H	1.444802	-0.140078	0.124181
H134	H	1.944802	0.359922	0.624181
H135	H	1.424291	-0.122322	0.480398
H136	H	1.924291	0.377678	0.980398
H137	H	1.443437	-0.457446	-0.000068
H138	H	1.943437	0.042554	0.499932
H139	H	0.601231	-0.145171	-0.000081
H140	H	1.101231	0.354829	0.499919
H141	H	1.360794	-0.556833	-0.180176
H142	H	1.860794	-0.056833	0.319824
H143	H	1.407957	-0.108229	0.706554
H144	H	1.907957	0.391771	1.206554
H145	H	1.176536	-0.419343	-0.180355
H146	H	1.676536	0.080657	0.319645
N147	N	1.129748	0.131802	0.719595
N148	N	1.629748	0.631802	1.219595
N149	N	1.121722	0.138723	0.830901
N150	N	1.621722	0.638723	1.330901
H151	H	1.066324	0.186510	0.875906
H152	H	1.566324	0.686510	1.375906
H153	H	1.067635	-0.495883	-0.000089
H154	H	1.567635	0.004117	0.499911
N155	N	1.343939	-0.541144	0.201197
N156	N	1.843939	-0.041144	0.701197
N157	N	1.439019	-0.539158	0.218568
N158	N	1.939019	-0.039158	0.718568
H159	H	1.471146	-0.562958	0.291698
H160	H	1.971146	-0.062958	0.791698
