data_functionalizedCrystal
_audit_creation_method	'MofGen! by Chris Wilmer'
_symmetry_space_group_name_H-M	'P1'
_symmetry_Int_Tables_number	1
_symmetry_cell_setting	triclinic
loop_
_symmetry_equiv_pos_as_xyz
  x,y,z
_cell_length_a	8.559649
_cell_length_b	9.065218
_cell_length_c	8.140239
_cell_angle_alpha	90.001686
_cell_angle_beta	90.002379
_cell_angle_gamma	77.397275
loop_
_atom_site_label
_atom_site_type_symbol
_atom_site_fract_x
_atom_site_fract_y
_atom_site_fract_z
O1	O	-2.119401	0.049968	-0.136587
O2	O	-1.619401	0.549968	0.363413
O3	O	-1.655298	-0.026097	-0.136594
O4	O	-1.155298	0.473903	0.363406
O5	O	-1.896942	0.227784	-0.136587
O6	O	-1.396942	0.727784	0.363413
O7	O	-1.877757	-0.203912	-0.136594
O8	O	-1.377757	0.296088	0.363406
O9	O	-1.896929	0.227785	0.136640
O10	O	-1.396929	0.727785	0.636640
O11	O	-1.655284	-0.026096	0.136633
O12	O	-1.155284	0.473904	0.636633
O13	O	-2.119387	0.049969	0.136640
O14	O	-1.619387	0.549969	0.636640
Zn15	Zn	-1.887334	0.011937	0.180017
Zn16	Zn	-1.387334	0.511937	0.680017
Zn17	Zn	-1.887352	0.011936	-0.179971
Zn18	Zn	-1.387352	0.511936	0.320029
O19	O	-1.877743	-0.203911	0.136633
O20	O	-1.377743	0.296089	0.636633
C21	C	-1.895092	0.282539	0.000024
C22	C	-1.395092	0.782539	0.500024
C23	C	-1.889578	0.445689	0.000016
C24	C	-1.389578	0.945689	0.500016
C25	C	-1.595845	-0.031861	0.000018
C26	C	-1.095845	0.468139	0.500018
C27	C	-1.418713	-0.049020	0.000016
C28	C	-0.918713	0.450980	0.500016
C29	C	-2.178841	0.055733	0.000023
C30	C	-1.678841	0.555733	0.500023
C31	C	-2.355972	0.072892	0.000015
C32	C	-1.855972	0.572892	0.500015
C33	C	-1.879594	-0.258667	0.000018
C34	C	-1.379594	0.241333	0.500018
C35	C	-1.885107	-0.421817	0.000015
C36	C	-1.385107	0.078183	0.500015
N37	N	-1.887333	0.011940	0.425700
N38	N	-1.387333	0.511940	0.925700
N39	N	-1.887365	0.011946	-0.425654
N40	N	-1.387365	0.511946	0.074346
H41	H	-1.336908	-0.166528	0.000005
H42	H	-0.836908	0.333472	0.500005
H43	H	-1.437769	0.190393	0.000009
H44	H	-0.937769	0.690393	0.500009
