data_functionalizedCrystal
_audit_creation_method	'MofGen! by Chris Wilmer'
_symmetry_space_group_name_H-M	'P1'
_symmetry_Int_Tables_number	1
_symmetry_cell_setting	triclinic
loop_
_symmetry_equiv_pos_as_xyz
  x,y,z
_cell_length_a	8.559649
_cell_length_b	8.559649
_cell_length_c	13.448316
_cell_angle_alpha	89.994831
_cell_angle_beta	89.993295
_cell_angle_gamma	69.778664
loop_
_atom_site_label
_atom_site_type_symbol
_atom_site_fract_x
_atom_site_fract_y
_atom_site_fract_z
O1	O	2.126886	-0.055032	-0.082676
O2	O	1.651401	0.028749	-0.082680
O3	O	1.931034	-0.250884	-0.082677
O4	O	1.847253	0.224601	-0.082680
O5	O	1.931005	-0.250895	0.082707
O6	O	1.651372	0.028738	0.082704
O7	O	2.126856	-0.055043	0.082708
Cu8	Cu	1.889111	-0.013154	0.097806
Cu9	Cu	1.889146	-0.013140	-0.097779
O10	O	1.847223	0.224590	0.082704
C11	C	1.591077	0.035093	0.000011
C12	C	1.411378	0.053992	0.000010
C13	C	1.937369	-0.311198	0.000013
C14	C	1.956268	-0.490898	0.000008
C15	C	2.187180	-0.061387	0.000014
C16	C	2.366879	-0.080286	0.000009
C17	C	1.840889	0.284904	0.000012
C18	C	1.821990	0.464604	0.000011
N19	N	1.889099	-0.013166	0.235371
N20	N	1.889173	-0.013143	-0.235343
C21	C	2.012949	-0.136946	0.287413
C22	C	2.012959	-0.136949	0.391516
C23	C	1.889125	-0.013163	0.443575
C24	C	1.765262	0.110624	0.391526
C25	C	1.765247	0.110619	0.287425
C26	C	1.765306	0.110630	0.608506
C27	C	1.765323	0.110638	0.712615
C28	C	2.013019	-0.136938	0.712597
C29	C	2.013003	-0.136943	0.608496
C30	C	1.889142	-0.013154	0.556454
H31	H	1.311990	0.183420	0.000004
O32	O	1.498502	-0.251729	0.000020
H33	H	1.623724	-0.240170	0.000031
O34	O	1.650546	-0.403776	0.000011
H35	H	1.635371	-0.325081	-0.067403
O36	O	2.146572	-0.270440	0.447638
H37	H	2.141464	-0.394396	0.427662
H38	H	2.085696	-0.590286	0.000017
H39	H	2.113795	-0.237741	0.245033
O40	O	2.146558	-0.270455	0.552339
H41	H	2.232678	-0.356544	0.606014
O42	O	2.146608	-0.270470	0.768719
H43	H	2.125807	-0.249689	0.849853
O44	O	1.631735	0.244116	0.768772
H45	H	1.545580	0.330171	0.715097
O46	O	1.631724	0.244148	0.552369
H47	H	1.545627	0.330240	0.606056
O48	O	1.631703	0.244153	0.447669
H49	H	1.561260	0.185506	0.495125
H50	H	1.664394	0.211411	0.245053
