data_functionalizedCrystal
_audit_creation_method	'MofGen! by Chris Wilmer'
_symmetry_space_group_name_H-M	'P1'
_symmetry_Int_Tables_number	1
_symmetry_cell_setting	triclinic
loop_
_symmetry_equiv_pos_as_xyz
  x,y,z
_cell_length_a	6.817900
_cell_length_b	19.551900
_cell_length_c	10.992410
_cell_angle_alpha	94.485555
_cell_angle_beta	108.764651
_cell_angle_gamma	101.664829
loop_
_atom_site_label
_atom_site_type_symbol
_atom_site_fract_x
_atom_site_fract_y
_atom_site_fract_z
V1	V	-4.078430	-0.096675	-0.401197
O2	O	-4.074097	0.004646	-0.392938
O3	O	-4.020805	-0.191691	-0.399051
O4	O	-4.056573	-0.095188	-0.575900
O5	O	-4.038082	-0.092525	-0.214865
V6	V	-4.559813	-0.084556	-0.378838
O7	O	-4.344380	-0.123260	-0.450244
O8	O	-4.744060	-0.057972	-0.329790
O9	O	-4.394232	0.010459	-0.380984
O10	O	-4.681543	-0.185877	-0.387096
O11	O	-4.717558	-0.088706	-0.565170
O12	O	-4.358464	-0.086043	-0.204134
C13	C	-3.862702	-0.214854	-0.392876
C14	C	-3.897051	-0.292530	-0.392286
C15	C	-4.327776	-0.855885	-0.395692
C16	C	-4.295517	-0.782899	-0.396238
C17	C	-4.096050	-0.742739	-0.388871
C18	C	-3.928817	-0.775568	-0.380925
C19	C	-3.961074	-0.848551	-0.380366
C20	C	-3.939977	-0.630694	-0.459509
C21	C	-3.907732	-0.557712	-0.460076
C22	C	-3.996546	-0.517633	-0.390588
C23	C	-4.117653	-0.550547	-0.320552
C24	C	-4.149911	-0.623530	-0.319993
C25	C	-4.061051	-0.663600	-0.389475
C26	C	-4.128789	-0.405673	-0.399117
C27	C	-4.096518	-0.332685	-0.399655
C28	C	-3.729819	-0.325356	-0.384354
C29	C	-3.762089	-0.398342	-0.383804
C30	C	-3.961581	-0.438496	-0.391192
C31	C	-3.908327	-0.091754	-0.618463
C32	C	-3.971679	-0.091167	-0.761288
C33	C	-3.840784	-0.085817	-0.956378
C34	C	-3.774900	-0.086717	-0.807900
C35	C	-4.144169	-0.160062	-0.838823
C36	C	-4.208708	-0.159453	-0.987385
C37	C	-4.135902	-0.026047	-0.948520
C38	C	-4.065314	-0.025720	-0.799505
C39	C	-4.215675	0.033618	-0.387155
C40	C	-4.160566	0.111294	-0.387754
C41	C	-4.170050	-0.089480	-0.161565
C42	C	-4.085937	-0.090063	-0.018739
H43	H	-4.291224	-0.438368	-0.405126
H44	H	-3.567408	-0.292658	-0.378352
H45	H	-3.766407	-0.742865	-0.374925
H46	H	-4.052371	0.026271	-0.968552
H47	H	-3.824907	-0.875273	-0.373906
N48	N	-4.267369	-0.299174	-0.407780
N49	N	-4.436420	-0.317473	-0.503830
H50	H	-4.557095	-0.293808	-0.509573
N51	N	-4.434231	-0.166952	-1.040928
N52	N	-4.517082	-0.122164	-1.002295
H53	H	-4.676355	-0.127464	-1.040109
H54	H	-4.248513	-0.650325	-0.262964
H55	H	-4.175187	-0.207925	-1.033958
H56	H	-3.625929	-0.425065	-0.377345
N57	N	-3.783991	-0.524096	-0.531591
N58	N	-3.618731	-0.476460	-0.473961
H59	H	-3.531330	-0.452720	-0.524467
H60	H	-4.292417	-0.165806	-0.810055
H61	H	-4.080404	-0.208653	-0.813521
H62	H	-3.940943	0.025245	-0.746829
N63	N	-4.243943	-0.024703	-0.758687
N64	N	-4.305430	-0.072413	-0.700513
H65	H	-4.431598	-0.071700	-0.671686
N66	N	-4.359271	-0.029193	-0.999784
N67	N	-4.481337	-0.078318	-1.087642
H68	H	-4.639091	-0.080545	-1.123857
H69	H	-3.644799	-0.037179	-0.754250
N70	N	-3.681471	-0.145213	-0.777102
N71	N	-3.493664	-0.134743	-0.700657
H72	H	-3.427678	-0.176059	-0.678906
H73	H	-4.490212	-0.888574	-0.401703
H74	H	-3.742061	-0.035938	-0.974896
H75	H	-3.798805	-0.131814	-1.004658
H76	H	-3.867616	-0.663319	-0.516083
H77	H	-4.431679	-0.756170	-0.402694
H78	H	-4.189976	-0.517916	-0.263967
