data_functionalizedCrystal
_audit_creation_method	'MofGen! by Chris Wilmer'
_symmetry_space_group_name_H-M	'P1'
_symmetry_Int_Tables_number	1
_symmetry_cell_setting	triclinic
loop_
_symmetry_equiv_pos_as_xyz
  x,y,z
_cell_length_a	12.759401
_cell_length_b	10.686285
_cell_length_c	12.759393
_cell_angle_alpha	94.397013
_cell_angle_beta	90.020938
_cell_angle_gamma	85.633237
loop_
_atom_site_label
_atom_site_type_symbol
_atom_site_fract_x
_atom_site_fract_y
_atom_site_fract_z
Zn1	Zn	1.638400	-0.502237	0.562006
Zn2	Zn	1.651794	-0.713276	0.372873
Zn3	Zn	1.462703	-0.502304	0.386337
Zn4	Zn	1.476188	-0.713187	0.548516
O5	O	1.557272	-0.607751	0.467433
O6	O	1.787199	-0.530240	0.536928
O7	O	1.626673	-0.685355	0.227634
O8	O	1.474761	-0.325719	0.420919
O9	O	1.797039	-0.685290	0.397973
O10	O	1.603845	-0.325669	0.549983
O11	O	1.487749	-0.530355	0.237525
O12	O	1.317471	-0.530269	0.407839
O13	O	1.497744	-0.685139	0.697331
O14	O	1.327378	-0.685204	0.526992
O15	O	1.616921	-0.530155	0.707241
O16	O	1.639748	-0.889840	0.384893
O17	O	1.510731	-0.889775	0.513937
C18	C	1.284303	-0.607735	0.467413
C19	C	1.167528	-0.607759	0.467427
C20	C	1.117860	-0.688557	0.529357
C21	C	1.008136	-0.688562	0.529377
C22	C	0.997758	-0.526968	0.405531
C23	C	1.107479	-0.526957	0.405516
C24	C	1.578185	-0.935592	0.446513
C25	C	1.587228	-1.075844	0.437599
C26	C	1.831306	-0.607767	0.467453
C27	C	1.948083	-0.607774	0.467462
C28	C	1.557342	-0.607630	0.741474
C29	C	1.557373	-0.607578	0.858254
C30	C	1.536305	-0.278630	0.488457
C31	C	1.527370	-0.138378	0.497417
C32	C	1.557256	-0.607780	0.194464
C33	C	1.557406	-0.607477	0.077707
C34	C	1.619432	-0.526865	0.918279
C35	C	1.619446	-0.526810	1.028007
C36	C	1.495340	-0.688194	1.017674
C37	C	1.495320	-0.688241	0.907949
H38	H	0.948853	-0.461184	0.355123
C39	C	1.346849	-1.097698	0.550998
C40	C	1.448854	-1.065814	0.575771
H41	H	1.298378	-1.052888	0.599369
H42	H	1.342833	-1.185580	0.555084
H43	H	1.330154	-1.076227	0.481742
H44	H	1.465552	-1.087294	0.645025
H45	H	1.452873	-0.977913	0.571694
H46	H	1.147919	-0.461154	0.355087
H47	H	1.645389	-1.129609	0.379554
H48	H	1.669956	-0.461180	0.877821
H49	H	0.967702	-0.754353	0.579808
H50	H	1.669980	-0.461083	1.076875
H51	H	1.444776	-0.753966	0.859075
C52	C	1.491575	-0.857875	1.130218
C53	C	1.427143	-0.776866	1.072301
H54	H	1.449472	-0.912624	1.163934
H55	H	1.528529	-0.809798	1.181667
H56	H	1.540412	-0.906158	1.084323
H57	H	1.378311	-0.728576	1.118197
H58	H	1.390172	-0.824947	1.020846
C59	C	1.117093	-0.848271	0.651787
C60	C	1.183866	-0.777358	0.597421
H61	H	1.157842	-0.903085	0.693815
H62	H	1.077355	-0.896477	0.602878
H63	H	1.070809	-0.793338	0.695554
H64	H	1.230145	-0.832291	0.553648
H65	H	1.223622	-0.729149	0.646337
