data_functionalizedCrystal
_audit_creation_method	'MofGen! by Chris Wilmer'
_symmetry_space_group_name_H-M	'P1'
_symmetry_Int_Tables_number	1
_symmetry_cell_setting	triclinic
loop_
_symmetry_equiv_pos_as_xyz
  x,y,z
_cell_length_a	14.853558
_cell_length_b	13.330367
_cell_length_c	14.853559
_cell_angle_alpha	90.002448
_cell_angle_beta	83.631294
_cell_angle_gamma	90.007028
loop_
_atom_site_label
_atom_site_type_symbol
_atom_site_fract_x
_atom_site_fract_y
_atom_site_fract_z
O1	O	1.196370	0.083406	0.117664
O2	O	0.933909	0.083410	0.131694
O3	O	1.072155	0.083407	-0.006551
O4	O	1.058125	0.083409	0.255910
O5	O	1.072135	-0.083440	-0.006554
O6	O	0.933889	-0.083437	0.131691
O7	O	1.196350	-0.083441	0.117661
Cu8	Cu	1.065118	-0.098673	0.124676
Cu9	Cu	1.065142	0.098643	0.124680
O10	O	1.058105	-0.083438	0.255907
C11	C	0.900310	-0.000013	0.131059
C12	C	0.800226	-0.000011	0.129158
N13	N	1.065108	-0.237455	0.124673
C14	C	0.753217	0.090941	0.128269
C15	C	0.753194	-0.090962	0.128254
C16	C	0.659160	-0.090964	0.126464
C17	C	0.612151	-0.000011	0.125574
C18	C	0.659175	0.090942	0.126475
C19	C	0.612130	-0.181916	0.125554
C20	C	0.518091	-0.181921	0.123762
C21	C	0.471079	-0.090968	0.122879
C22	C	0.518109	-0.000010	0.123781
C23	C	0.471100	0.090942	0.122891
C24	C	0.518127	0.181900	0.123800
C25	C	0.612163	0.181896	0.125592
C26	C	0.377042	-0.090963	0.121087
C27	C	0.377058	0.090943	0.121098
C28	C	1.003924	-0.710076	0.185871
C29	C	1.126384	-0.710047	0.063481
C30	C	1.126373	-0.605029	0.063479
C31	C	1.065139	-0.552529	0.124674
C32	C	1.003914	-0.605048	0.185872
C33	C	1.187603	-0.552502	0.002288
C34	C	1.187596	-0.447477	0.002284
C35	C	1.126356	-0.394976	0.063475
C36	C	1.065128	-0.447501	0.124675
C37	C	1.003893	-0.395002	0.185870
C38	C	0.942660	-0.447525	0.247066
C39	C	0.942674	-0.552547	0.247063
C40	C	1.126343	-0.289954	0.063478
C41	C	1.003883	-0.289974	0.185871
C42	C	1.229949	-0.000016	0.118297
C43	C	1.330033	-0.000011	0.120197
C44	C	1.071510	-0.000015	-0.040142
C45	C	1.069609	-0.000009	-0.140226
N46	N	1.065159	0.237424	0.124676
C47	C	1.061557	0.090940	-0.563399
C48	C	1.061535	-0.090963	-0.563397
C49	C	1.063328	-0.090964	-0.469364
C50	C	1.064234	-0.000012	-0.422343
C51	C	1.063347	0.090942	-0.469356
C52	C	1.064206	-0.181916	-0.422342
C53	C	1.065998	-0.181921	-0.328303
C54	C	1.066911	-0.090967	-0.281282
C55	C	1.066025	-0.000010	-0.328301
C56	C	1.066932	0.090943	-0.281281
C57	C	1.066052	0.181901	-0.328299
C58	C	1.064260	0.181895	-0.422335
C59	C	1.068703	-0.090961	-0.187246
C60	C	1.068722	0.090945	-0.187239
C61	C	1.058749	-0.000014	0.289497
C62	C	1.060650	-0.000013	0.389581
H63	H	0.338789	0.165008	0.120379
C64	C	1.193738	-0.767800	-0.003829
N65	N	1.244471	-0.811304	-0.054532
H66	H	0.892806	-0.404768	0.296895
H67	H	1.237463	-0.595250	-0.047531
H68	H	1.060844	0.164996	-0.601685
H69	H	1.237454	-0.404719	-0.047546
C70	C	0.875319	-0.610330	0.314368
N71	N	0.824587	-0.653857	0.365061
C72	C	0.936565	-0.767852	0.253177
N73	N	0.885828	-0.811370	0.303871
C74	C	1.063194	-0.281957	-0.474068
N75	N	1.062429	-0.357311	-0.513032
C76	C	1.066972	-0.281976	-0.276593
N77	N	1.067709	-0.357338	-0.237644
C78	C	0.466405	0.281945	0.122818
N79	N	0.427444	0.357296	0.122078
C80	C	0.804901	-0.191004	0.129280
N81	N	0.843848	-0.266359	0.130074
H82	H	1.176202	-0.247194	0.013657
C83	C	1.069720	0.191002	-0.135524
N84	N	1.070470	0.266366	-0.096573
C85	C	0.936541	-0.232233	0.253214
N86	N	0.885828	-0.188743	0.303948
C87	C	0.663836	-0.281956	0.126605
N88	N	0.702781	-0.357310	0.127426
H89	H	1.066783	0.255954	-0.290002
C90	C	1.069670	-0.191009	-0.135530
N91	N	1.070402	-0.266371	-0.096579
C92	C	1.060527	-0.191005	-0.615121
N93	N	1.059768	-0.266361	-0.654083
C94	C	0.663902	0.281941	0.126580
N95	N	0.702876	0.357294	0.127318
H96	H	0.791511	0.164997	0.129012
H97	H	0.479809	-0.255985	0.123022
C98	C	0.325317	-0.191011	0.120086
N99	N	0.286358	-0.266373	0.119334
C100	C	1.063283	0.281940	-0.474061
N101	N	1.062542	0.357293	-0.513024
