data_functionalizedCrystal
_audit_creation_method	'MofGen! by Chris Wilmer'
_symmetry_space_group_name_H-M	'P1'
_symmetry_Int_Tables_number	1
_symmetry_cell_setting	triclinic
loop_
_symmetry_equiv_pos_as_xyz
  x,y,z
_cell_length_a	16.959454
_cell_length_b	14.908571
_cell_length_c	16.959455
_cell_angle_alpha	86.699438
_cell_angle_beta	90.009639
_cell_angle_gamma	93.283579
loop_
_atom_site_label
_atom_site_type_symbol
_atom_site_fract_x
_atom_site_fract_y
_atom_site_fract_z
Zn1	Zn	-0.384651	-1.379109	0.516554
Zn2	Zn	-0.516800	-1.379038	0.384380
Zn3	Zn	-0.377004	-1.228275	0.376777
Zn4	Zn	-0.509149	-1.228217	0.508904
O5	O	-0.446901	-1.303660	0.446654
O6	O	-0.408584	-1.505344	0.505404
O7	O	-0.498258	-1.359034	0.272760
O8	O	-0.267410	-1.248337	0.395338
O9	O	-0.505673	-1.505292	0.408297
O10	O	-0.273028	-1.359155	0.498032
O11	O	-0.395550	-1.248269	0.267174
O12	O	-0.388130	-1.102023	0.387920
O13	O	-0.492632	-1.248239	0.620530
O14	O	-0.485217	-1.101981	0.484994
O15	O	-0.401164	-1.359098	0.626150
O16	O	-0.626394	-1.358978	0.400879
O17	O	-0.620772	-1.248170	0.492367
C18	C	-0.435014	-1.069269	0.434802
C19	C	-0.429948	-0.968995	0.429751
C20	C	-0.652263	-1.303584	0.446637
C21	C	-0.740123	-1.303635	0.446660
C22	C	-0.446898	-1.303670	0.652823
C23	C	-0.446896	-1.303674	0.740679
C24	C	-1.108706	-1.246046	0.494290
C25	C	-1.114505	-1.361525	0.399111
C26	C	-1.031958	-1.361494	0.399102
C27	C	-0.987781	-1.303736	0.446687
C28	C	-1.026151	-1.246011	0.494281
C29	C	-0.993581	-1.419212	0.351503
C30	C	-0.911028	-1.419182	0.351491
C31	C	-0.866850	-1.361428	0.399081
C32	C	-0.905225	-1.303701	0.446678
C33	C	-0.861048	-1.245944	0.494263
C34	C	-0.899422	-1.188221	0.541864
C35	C	-0.981973	-1.188258	0.541871
C36	C	-0.784300	-1.361392	0.399075
C37	C	-0.778493	-1.245909	0.494254
C38	C	-0.240738	-1.303760	0.446690
C39	C	-0.152883	-1.303803	0.446705
C40	C	-0.458835	-1.538967	0.458552
C41	C	-0.463921	-1.639240	0.463623
C42	C	-0.521680	-0.780574	0.521206
C43	C	-0.516923	-0.686358	0.516462
C44	C	-0.415671	-0.686345	0.415525
C45	C	-0.420429	-0.780561	0.420268
C46	C	-0.473436	-0.827672	0.473110
C47	C	-0.478197	-0.921890	0.477849
C48	C	-0.376942	-0.921875	0.376916
C49	C	-0.372184	-0.827659	0.372172
C50	C	-0.500370	-1.361348	0.784864
C51	C	-0.393425	-1.245999	0.779048
C52	C	-0.393425	-1.245998	0.861594
C53	C	-0.446898	-1.303671	0.905779
C54	C	-0.500373	-1.361346	0.867417
C55	C	-0.339957	-1.188318	0.899962
C56	C	-0.339955	-1.188313	0.982512
C57	C	-0.393425	-1.245992	1.026698
C58	C	-0.446901	-1.303670	0.988332
C59	C	-0.500375	-1.361343	1.032516
C60	C	-0.553847	-1.419026	0.994152
C61	C	-0.553843	-1.419025	0.911603
C62	C	-0.393430	-1.245993	1.109247
C63	C	-0.500378	-1.361341	1.115070
C64	C	-0.446917	-1.303650	1.241287
C65	C	-0.446903	-1.303666	1.153431
H66	H	-0.863444	-1.141190	0.580605
O67	O	-1.145854	-1.189947	0.540601
C68	C	-1.131376	-1.075368	0.634974
C69	C	-1.089207	-1.138867	0.582578
H70	H	-1.085596	-1.034040	0.668913
H71	H	-1.172056	-1.116725	0.678484
H72	H	-1.167704	-1.028283	0.596265
H73	H	-1.052838	-1.185966	0.621223
H74	H	-1.048575	-1.097454	0.539062
O75	O	-0.341602	-1.189872	1.146545
C76	C	-0.324806	-1.068114	1.233626
C77	C	-0.383591	-1.131603	1.191418
H78	H	-0.358731	-1.021001	1.269928
H79	H	-0.286600	-1.026824	1.187899
H80	H	-0.285558	-1.109568	1.274342
H81	H	-0.422891	-1.090220	1.150704
H82	H	-0.421742	-1.172897	1.237187
H83	H	-0.543904	-1.408314	0.753624
H84	H	-0.556207	-0.648014	0.555628
O85	O	-1.157349	-1.417736	0.352932
C86	C	-1.190387	-1.571222	0.322452
C87	C	-1.141795	-1.507671	0.374794
H88	H	-1.177842	-1.643949	0.340119
H89	H	-1.173376	-1.555499	0.257894
H90	H	-1.255968	-1.561260	0.330628
H91	H	-1.076203	-1.517597	0.366686
H92	H	-1.158872	-1.523409	0.439331
O93	O	-0.320761	-0.781752	0.320866
C94	C	-0.268515	-0.636602	0.268865
C95	C	-0.326800	-0.688476	0.326991
H96	H	-0.273366	-0.561180	0.273809
H97	H	-0.283233	-0.655031	0.206015
H98	H	-0.205749	-0.655204	0.283779
H99	H	-0.389587	-0.669903	0.312150
H100	H	-0.312015	-0.670043	0.389824
O101	O	-0.529702	-0.967517	0.529246
C102	C	-0.629654	-0.957581	0.628834
C103	C	-0.571348	-0.905801	0.570671
H104	H	-0.663352	-0.907706	0.662330
H105	H	-0.595688	-1.001687	0.672496
H106	H	-0.673128	-1.001695	0.594688
H107	H	-0.527861	-0.861638	0.604750
H108	H	-0.605366	-0.861752	0.527009
H109	H	-0.742529	-1.198879	0.533007
H110	H	-0.349894	-1.199039	0.743069
O111	O	-0.573189	-0.826204	0.572598
C112	C	-0.673155	-0.816277	0.672173
C113	C	-0.614843	-0.764492	0.614019
H114	H	-0.706860	-0.766406	0.705666
H115	H	-0.639193	-0.860382	0.715839
H116	H	-0.716622	-0.860392	0.638021
H117	H	-0.571362	-0.720328	0.648105
H118	H	-0.648857	-0.720443	0.570354
H119	H	-0.597388	-1.465980	1.030137
O120	O	-0.364278	-0.640518	0.364139
C121	C	-0.348058	-0.534008	0.252161
C122	C	-0.406358	-0.585876	0.310276
H123	H	-0.382055	-0.489803	0.208609
H124	H	-0.314384	-0.583794	0.218535
H125	H	-0.304561	-0.489979	0.286358
H126	H	-0.449903	-0.629906	0.276140
H127	H	-0.439974	-0.536041	0.343902
O128	O	-1.019220	-1.132283	0.588220
C129	C	-1.042225	-1.088344	0.720417
C130	C	-1.000006	-1.151805	0.668025
H131	H	-1.026693	-1.104093	0.784948
H132	H	-1.108823	-1.098294	0.712313
H133	H	-1.022369	-1.015611	0.702765
H134	H	-1.019797	-1.224563	0.685644
H135	H	-0.933415	-1.141777	0.676136
O136	O	-0.746980	-1.417325	0.352750
C137	C	-0.654375	-1.429508	0.246684
C138	C	-0.696599	-1.366056	0.299082
H139	H	-0.613620	-1.388083	0.203292
H140	H	-0.700091	-1.470775	0.212612
H141	H	-0.618113	-1.476653	0.285403
H142	H	-0.732859	-1.318857	0.260421
H143	H	-0.650843	-1.324852	0.333160
O144	O	-0.329958	-0.967530	0.330228
C145	C	-0.196906	-0.996421	0.293564
C146	C	-0.250018	-0.944645	0.346471
H147	H	-0.132264	-0.977952	0.306689
H148	H	-0.209690	-0.977853	0.228858
H149	H	-0.209454	-1.071847	0.306015
H150	H	-0.237501	-0.869206	0.334089
H151	H	-0.237224	-0.963288	0.411160
H152	H	-0.543920	-1.408310	1.151039
H153	H	-0.597378	-1.465986	0.880359
O154	O	-0.288127	-1.132254	0.856950
C155	C	-0.271331	-1.010438	0.757606
C156	C	-0.330117	-1.073888	0.806258
H157	H	-0.305258	-0.963221	0.716622
H158	H	-0.232110	-1.051830	0.721012
H159	H	-0.233098	-0.969249	0.799216
H160	H	-0.368403	-1.115091	0.764706
H161	H	-0.369284	-1.032445	0.842862
O162	O	-1.036446	-1.475401	0.305322
C163	C	-1.069547	-1.628863	0.274809
C164	C	-1.020917	-1.565351	0.327154
H165	H	-1.057022	-1.701601	0.292452
H166	H	-1.052552	-1.613126	0.210249
H167	H	-1.135120	-1.618875	0.283009
H168	H	-0.955332	-1.575303	0.319022
H169	H	-1.037978	-1.581103	0.391694
O170	O	-0.873841	-1.475213	0.305147
C171	C	-0.850776	-1.519088	0.172941
C172	C	-0.892951	-1.455587	0.225332
H173	H	-0.866197	-1.503230	0.108399
H174	H	-0.870663	-1.591839	0.190492
H175	H	-0.784191	-1.509164	0.181151
H176	H	-0.959542	-1.465431	0.217149
H177	H	-0.872999	-1.382859	0.207769
H178	H	-0.296414	-1.141345	1.013742
