data_functionalizedCrystal
_audit_creation_method	'MofGen! by Chris Wilmer'
_symmetry_space_group_name_H-M	'P1'
_symmetry_Int_Tables_number	1
_symmetry_cell_setting	triclinic
loop_
_symmetry_equiv_pos_as_xyz
  x,y,z
_cell_length_a	27.440280
_cell_length_b	23.196402
_cell_length_c	23.196401
_cell_angle_alpha	60.008822
_cell_angle_beta	90.017084
_cell_angle_gamma	59.998982
loop_
_atom_site_label
_atom_site_type_symbol
_atom_site_fract_x
_atom_site_fract_y
_atom_site_fract_z
Zr1	Zr	0.469501	0.630934	-0.075558
O2	O	0.391666	0.751211	-0.167616
O3	O	0.493359	0.510665	-0.047341
O4	O	0.493338	0.630932	-0.167606
O5	O	0.391707	0.630943	0.047521
O6	O	0.573541	0.630921	-0.167594
O7	O	0.391687	0.630944	-0.047351
O8	O	0.573579	0.415785	0.047539
O9	O	0.391668	0.846079	-0.167612
O10	O	0.563392	0.560122	-0.035293
O11	O	0.503551	0.560129	0.035499
O12	O	0.503526	0.701728	-0.106097
O13	O	0.443686	0.701735	-0.035305
Zr14	Zr	0.597446	0.630914	0.075770
Zr15	Zr	0.597415	0.630916	-0.075539
Zr16	Zr	0.469531	0.630932	0.075751
Zr17	Zr	0.469504	0.782236	-0.075551
Zr18	Zr	0.597442	0.479611	0.075764
O19	O	0.573587	0.751183	0.047553
O20	O	0.573543	0.751186	-0.167589
O21	O	0.391709	0.751208	0.047526
O22	O	0.675280	0.510636	0.167828
O23	O	0.675237	0.510640	-0.047314
O24	O	0.493403	0.510662	0.167801
O25	O	0.675240	0.630905	-0.047309
O26	O	0.573608	0.630916	0.167818
O27	O	0.493406	0.630927	0.167806
O28	O	0.675259	0.630903	0.047563
O29	O	0.493343	0.846065	-0.167597
O30	O	0.573603	0.415783	0.167809
O31	O	0.675278	0.415769	0.167824
O32	O	0.675254	0.415771	0.047554
O33	O	0.391692	0.846077	-0.047341
O34	O	0.493367	0.846063	-0.047326
O35	O	0.563420	0.560120	0.106310
O36	O	0.623260	0.560112	0.035517
O37	O	0.563395	0.701719	-0.035287
O38	O	0.503555	0.701726	0.035505
C39	C	0.533469	0.441668	0.000098
C40	C	0.533467	0.377436	0.000095
C41	C	0.564699	0.347262	-0.036860
C42	C	0.564705	0.286901	-0.036855
C43	C	0.533467	0.256728	0.000097
C44	C	0.502234	0.286906	0.037061
C45	C	0.502234	0.347260	0.037060
C46	C	0.481133	0.194706	-0.005185
C47	C	0.481131	0.134356	-0.005189
C48	C	0.533468	0.070573	0.000104
C49	C	0.585806	0.067154	0.005388
C50	C	0.585806	0.127508	0.005387
C51	C	0.533464	0.191283	0.000103
C52	C	0.564709	-0.025053	-0.036847
C53	C	0.564716	-0.085418	-0.036836
C54	C	0.502240	-0.085406	0.037075
C55	C	0.502238	-0.025047	0.037069
C56	C	0.533471	0.005129	0.000104
C57	C	0.373472	0.630946	0.000082
C58	C	0.319169	0.630954	0.000074
C59	C	0.013721	0.556993	0.037085
C60	C	-0.037298	0.556989	0.037091
O61	O	-0.037110	0.494125	0.068545
N62	N	-0.094064	0.630905	0.000131
C63	C	-0.099811	0.704831	-0.036831
O64	O	-0.152779	0.767702	-0.068267
C65	C	-0.048793	0.704834	-0.036833
C66	C	0.007973	0.630913	0.000123
C67	C	0.070483	0.483078	0.074039
C68	C	0.121498	0.483083	0.074031
C69	C	0.115750	0.557003	0.037070
C70	C	0.058987	0.630918	0.000116
C71	C	-0.054540	0.778759	-0.073791
C72	C	-0.003516	0.778756	-0.073789
C73	C	0.053249	0.704835	-0.036833
C74	C	0.104254	0.704843	-0.036853
N75	N	0.161020	0.630926	0.000107
C76	C	0.166768	0.557007	0.037068
C77	C	-0.206949	0.704817	-0.036824
C78	C	-0.257966	0.704814	-0.036827
C79	C	-0.195450	0.556972	0.037097
C80	C	-0.144432	0.556976	0.037095
C81	C	-0.150183	0.630901	0.000136
C82	C	0.273901	0.557022	0.037049
C83	C	0.324917	0.557034	0.037036
C84	C	0.262397	0.704875	-0.036884
C85	C	0.211384	0.704864	-0.036875
C86	C	0.217140	0.630931	0.000097
O87	O	0.104112	0.767674	-0.068289
O88	O	0.219738	0.494146	0.068506
C89	C	0.693474	0.630902	0.000130
C90	C	0.747777	0.630894	0.000138
C91	C	0.533435	0.630927	-0.189158
C92	C	0.533422	0.630928	-0.253393
C93	C	0.533478	0.820180	0.000114
C94	C	0.533479	0.884412	0.000117
C95	C	0.502176	0.704842	-0.320525
C96	C	0.502191	0.704844	-0.380880
C97	C	0.533444	0.630926	-0.374099
C98	C	0.564697	0.557001	-0.306955
C99	C	0.564686	0.557002	-0.246602
C100	C	0.529005	0.574298	-0.441419
C101	C	0.529011	0.574300	-0.501773
C102	C	0.533482	0.630920	-0.560247
C103	C	0.537933	0.687550	-0.558367
C104	C	0.537922	0.687551	-0.498013
C105	C	0.533460	0.630916	-0.439538
C106	C	0.502251	0.704841	-0.692826
C107	C	0.502270	0.704839	-0.753181
C108	C	0.564772	0.556994	-0.679253
C109	C	0.564757	0.556998	-0.618900
C110	C	0.533493	0.630924	-0.625691
C111	C	0.533511	0.630921	0.189371
C112	C	0.533524	0.630920	0.253605
C113	C	0.693470	0.441645	0.000122
C114	C	0.747771	0.377406	0.000127
C115	C	0.533507	0.441665	0.189362
C116	C	0.533519	0.377432	0.253594
C117	C	0.693508	0.441642	0.189386
C118	C	0.747823	0.377402	0.253626
C119	C	0.373438	0.820205	-0.189174
C120	C	0.319124	0.884446	-0.253414
C121	C	0.373476	0.820202	0.000091
C122	C	0.319175	0.884442	0.000085
C123	C	0.533439	0.820183	-0.189150
C124	C	0.533428	0.884416	-0.253382
C125	C	0.742021	0.347243	-0.036839
C126	C	0.793038	0.286892	-0.036848
C127	C	0.849805	0.256700	0.000113
C128	C	0.855554	0.286869	0.037080
C129	C	0.804538	0.347223	0.037085
C130	C	0.564775	0.347263	0.320727
C131	C	0.564783	0.286917	0.381085
C132	C	0.533539	0.256739	0.374310
C133	C	0.502279	0.286914	0.307170
C134	C	0.502267	0.347262	0.246813
C135	C	0.804571	0.347230	0.246841
C136	C	0.855610	0.286878	0.307195
C137	C	0.849899	0.256695	0.374334
C138	C	0.793146	0.286872	0.381118
C139	C	0.742108	0.347228	0.320764
C140	C	0.262376	0.914625	-0.246628
C141	C	0.211337	0.974996	-0.306983
C142	C	0.217047	1.005182	-0.374122
C143	C	0.273801	0.975001	-0.380906
C144	C	0.324839	0.914635	-0.320552
C145	C	0.324925	0.914611	0.037045
C146	C	0.273908	0.974979	0.037038
C147	C	0.217141	1.005172	0.000074
C148	C	0.211392	0.975001	-0.036890
C149	C	0.262409	0.914638	-0.036887
C150	C	0.564678	0.914576	-0.246584
C151	C	0.564679	0.974921	-0.306931
C152	C	0.533426	1.005110	-0.374075
C153	C	0.502174	0.974944	-0.380872
C154	C	0.502177	0.914596	-0.320526
H155	H	0.628422	0.124719	0.009690
H156	H	0.476828	0.765031	-0.807844
F157	F	0.542660	0.747819	-0.496013
F158	F	0.468995	0.007069	0.076401
F159	F	0.786907	0.254793	-0.076193
F160	F	0.597940	1.007018	-0.299682
H161	H	0.891341	0.207555	0.000104
F162	F	0.597942	0.379372	-0.076200
H163	H	0.628426	0.015214	0.009707
H164	H	0.476728	0.999533	-0.435549
H165	H	0.165130	0.999559	-0.301446
H166	H	0.533553	0.207599	0.423462
H167	H	-0.190778	0.496783	0.067190
H168	H	0.476745	0.765036	-0.435549
H169	H	0.809228	0.371774	0.067191
H170	H	0.476726	0.890046	-0.326071
H171	H	0.371044	0.890064	-0.326085
H172	H	0.590143	-0.000485	-0.066943
H173	H	0.476840	0.262333	0.301664
F174	F	0.279869	1.007135	-0.452366
F175	F	0.256285	0.882507	-0.175180
F176	F	0.469001	0.379360	0.175367
F177	F	0.810661	0.379347	0.175392
F178	F	0.150969	0.783539	-0.076220
H179	H	0.590139	0.262328	-0.066949
H180	H	0.476805	-0.109973	0.067162
F181	F	0.385331	0.478354	0.076370
H182	H	0.175484	1.054336	-0.423260
H183	H	0.590145	0.496817	-0.301437
H184	H	0.438513	0.137149	-0.009495
F185	F	0.597958	-0.117530	-0.076173
F186	F	0.598034	0.379368	0.327954
F187	F	0.385336	0.882489	0.076388
H188	H	0.165166	0.999594	-0.066985
F189	F	0.280040	1.007076	0.076384
F190	F	0.181908	0.404406	0.113370
F191	F	0.916005	0.254769	0.299960
H192	H	0.438507	0.246648	-0.009510
F193	F	0.280035	0.478335	0.076398
F194	F	0.256290	0.783542	-0.076211
H195	H	-0.100753	0.838953	-0.103884
H196	H	0.175605	1.054324	0.000077
H197	H	0.590220	0.496809	-0.673730
H198	H	-0.304184	0.765008	-0.066930
F199	F	0.598058	0.254812	0.452533
F200	F	0.468993	0.254788	0.076392
H201	H	0.695803	0.371825	-0.066946
H202	H	0.891463	0.207549	0.423472
H203	H	0.476800	0.371828	0.067154
F204	F	0.597941	0.478328	-0.175150
F205	F	0.076613	0.404396	0.113384
F206	F	0.256280	0.882532	-0.076222
H207	H	0.590129	0.890005	-0.191917
F208	F	0.533427	1.069341	-0.438295
F209	F	-0.084022	0.478300	0.076430
H210	H	0.788505	0.262288	0.435791
H211	H	0.476721	0.765038	-0.326061
H212	H	-0.211640	0.765020	-0.066924
F213	F	0.681714	0.379328	0.327997
H214	H	-0.008205	0.838956	-0.103877
H215	H	0.541571	0.733658	-0.605979
H216	H	0.476794	0.765035	-0.698356
H217	H	0.525384	0.528191	-0.503299
F218	F	0.598004	0.478327	-0.547449
H219	H	0.901780	0.262278	0.067173
F220	F	0.524285	0.513998	-0.379172
