data_functionalizedCrystal
_audit_creation_method	'MofGen! by Chris Wilmer'
_symmetry_space_group_name_H-M	'P1'
_symmetry_Int_Tables_number	1
_symmetry_cell_setting	triclinic
loop_
_symmetry_equiv_pos_as_xyz
  x,y,z
_cell_length_a	14.853567
_cell_length_b	19.288865
_cell_length_c	17.766277
_cell_angle_alpha	90.011603
_cell_angle_beta	90.006387
_cell_angle_gamma	83.385589
loop_
_atom_site_label
_atom_site_type_symbol
_atom_site_fract_x
_atom_site_fract_y
_atom_site_fract_z
O1	O	-1.195855	-0.090685	-0.062551
O2	O	-0.695855	0.409315	0.437449
O3	O	-0.933334	-0.101488	-0.062565
O4	O	-0.433334	0.398512	0.437435
O5	O	-1.072180	0.005018	-0.062543
O6	O	-0.572180	0.505018	0.437457
O7	O	-1.057009	-0.197191	-0.062574
O8	O	-0.557009	0.302809	0.437426
O9	O	-1.072156	0.005024	0.062646
O10	O	-0.572156	0.505024	0.562646
O11	O	-0.933310	-0.101482	0.062623
O12	O	-0.433310	0.398518	0.562623
O13	O	-1.195831	-0.090680	0.062637
O14	O	-0.695831	0.409320	0.562637
Cu15	Cu	-1.064568	-0.096080	0.074061
Cu16	Cu	-0.564568	0.403920	0.574061
Cu17	Cu	-1.064597	-0.096087	-0.073989
Cu18	Cu	-0.564597	0.403913	0.426011
O19	O	-1.056985	-0.197186	0.062615
O20	O	-0.556985	0.302814	0.562615
C21	C	-1.071680	0.030899	0.000053
C22	C	-0.571680	0.530899	0.500053
C23	C	-1.070215	0.108008	0.000060
C24	C	-0.570215	0.608008	0.500060
C25	C	-0.899736	-0.100996	0.000027
C26	C	-0.399736	0.399004	0.500027
C27	C	-0.799661	-0.099529	0.000023
C28	C	-0.299661	0.400471	0.500023
C29	C	-1.229429	-0.091172	0.000043
C30	C	-0.729429	0.408828	0.500043
C31	C	-1.329504	-0.092639	0.000043
C32	C	-0.829504	0.407361	0.500043
C33	C	-0.387522	-0.030061	0.000050
C34	C	0.112478	0.469939	0.500050
C35	C	-0.365522	-0.156593	0.000030
C36	C	0.134478	0.343407	0.500030
C37	C	-0.459547	-0.157972	0.000028
C38	C	0.040453	0.342028	0.500028
C39	C	-0.517565	-0.095395	0.000035
C40	C	-0.017565	0.404605	0.500035
C41	C	-0.481557	-0.031439	0.000045
C42	C	0.018443	0.468561	0.500045
C43	C	-0.495563	-0.221927	0.000010
C44	C	0.004437	0.278073	0.500010
C45	C	-0.589594	-0.223309	0.000006
C46	C	-0.089594	0.276691	0.500006
C47	C	-0.647614	-0.160731	0.000019
C48	C	-0.147614	0.339269	0.500019
C49	C	-0.611600	-0.096772	0.000030
C50	C	-0.111600	0.403228	0.500030
C51	C	-0.669618	-0.034195	0.000038
C52	C	-0.169618	0.465805	0.500038
C53	C	-0.633606	0.029764	0.000054
C54	C	-0.133606	0.529764	0.500054
C55	C	-0.539577	0.031139	0.000058
C56	C	-0.039577	0.531139	0.500058
C57	C	-0.741643	-0.162106	0.000015
C58	C	-0.241643	0.337894	0.500015
C59	C	-0.763653	-0.035572	0.000033
C60	C	-0.263653	0.464428	0.500033
C61	C	-1.057485	-0.223067	0.000017
C62	C	-0.557485	0.276933	0.500017
C63	C	-1.058951	-0.300175	0.000005
C64	C	-0.558951	0.199825	0.500005
N65	N	-1.064555	-0.096076	0.178191
N66	N	-0.564555	0.403924	0.678191
C67	C	-1.151683	0.152429	0.000068
C68	C	-0.651683	0.652429	0.500068
C69	C	-1.150307	0.224881	0.000056
C70	C	-0.650307	0.724881	0.500056
C71	C	-1.067457	0.252908	0.000051
C72	C	-0.567457	0.752908	0.500051
C73	C	-0.985977	0.208477	0.000039
C74	C	-0.485977	0.708477	0.500039
C75	C	-0.987356	0.136027	0.000043
C76	C	-0.487356	0.636027	0.500043
C77	C	-1.002318	0.361417	0.043899
C78	C	-0.502318	0.861417	0.543899
C79	C	-1.000943	0.433866	0.043899
C80	C	-0.500943	0.933866	0.543899
C81	C	-1.063200	0.476368	0.000034
C82	C	-0.563200	0.976368	0.500034
C83	C	-1.126848	0.446413	-0.043821
C84	C	-0.626848	0.946413	0.456179
C85	C	-1.128227	0.373963	-0.043817
C86	C	-0.628227	0.873963	0.456183
C87	C	-1.065952	0.331467	0.000046
C88	C	-0.565952	0.831467	0.500046
C89	C	-1.143181	0.599350	0.000028
C90	C	-0.643181	1.099350	0.500028
C91	C	-1.141801	0.671803	0.000011
C92	C	-0.641801	1.171803	0.500011
C93	C	-0.977470	0.655397	0.000002
C94	C	-0.477470	1.155397	0.500002
C95	C	-0.978852	0.582946	0.000011
C96	C	-0.478852	1.082946	0.500011
C97	C	-1.061710	0.554927	0.000028
C98	C	-0.561710	1.054927	0.500028
N99	N	-1.064618	-0.096086	-0.178119
N100	N	-0.564618	0.403914	0.321881
C101	C	-1.126055	-0.048938	0.217588
C102	C	-0.626055	0.451062	0.717588
C103	C	-1.126061	-0.048935	0.296390
C104	C	-0.626061	0.451065	0.796390
C105	C	-1.064574	-0.096081	0.335792
C106	C	-0.564574	0.403919	0.835792
C107	C	-1.003061	-0.143222	0.296386
C108	C	-0.503061	0.356778	0.796386
C109	C	-1.003052	-0.143220	0.217585
C110	C	-0.503052	0.356780	0.717585
C111	C	-1.052504	-0.159328	0.460620
C112	C	-0.552504	0.340672	0.960620
C113	C	-1.052520	-0.159332	0.539419
C114	C	-0.552520	0.340668	1.039419
C115	C	-1.064598	-0.096090	0.578838
C116	C	-0.564598	0.403910	1.078838
C117	C	-1.076679	-0.032841	0.539449
C118	C	-0.576679	0.467159	1.039449
C119	C	-1.076669	-0.032838	0.460649
C120	C	-0.576669	0.467162	0.960649
C121	C	-1.064577	-0.096089	0.421238
C122	C	-0.564577	0.403911	0.921238
C123	C	-1.126108	-0.048944	0.703681
C124	C	-0.626108	0.451056	1.203681
C125	C	-1.126107	-0.048940	0.782484
C126	C	-0.626107	0.451060	1.282484
C127	C	-1.003111	-0.143234	0.782478
C128	C	-0.503111	0.356766	1.282478
C129	C	-1.003108	-0.143232	0.703677
C130	C	-0.503108	0.356768	1.203677
C131	C	-1.064611	-0.096088	0.664283
C132	C	-0.564611	0.403912	1.164283
H133	H	-0.680856	0.080715	0.000055
H134	H	-0.180856	0.580715	0.500055
O135	O	-0.935170	0.315577	0.091216
O136	O	-0.435170	0.815577	0.591216
H137	H	-0.890693	0.348577	0.121720
H138	H	-0.390693	0.848577	0.621720
H139	H	-0.949113	0.458249	0.079604
H140	H	-0.449113	0.958249	0.579604
H141	H	-1.208146	0.707971	0.000014
H142	H	-0.708146	1.207971	0.500014
H143	H	-1.210650	0.576536	0.000038
H144	H	-0.710650	1.076536	0.500038
H145	H	-1.176132	-0.010549	0.185516
H146	H	-0.676132	0.489451	0.685516
O147	O	-0.500738	0.100120	0.000072
O148	O	-0.000738	0.600120	0.500072
H149	H	-0.425607	0.090563	0.000065
H150	H	0.074393	0.590563	0.500065
O151	O	-0.896615	0.238699	0.000042
O152	O	-0.396615	0.738699	0.500042
H153	H	-0.909342	0.296542	0.000051
H154	H	-0.409342	0.796542	0.500051
H155	H	-0.910012	0.678216	-0.000006
H156	H	-0.410012	1.178216	0.499994
H157	H	-0.358197	0.022013	0.000066
H158	H	0.141803	0.522013	0.500066
H159	H	-1.086503	0.018661	0.428581
H160	H	-0.586503	0.518661	0.928581
H161	H	-0.953044	-0.181619	0.814559
H162	H	-0.453044	0.318381	1.314559
H163	H	-0.921013	0.099858	0.000037
H164	H	-0.421013	0.599858	0.500037
O165	O	-0.302953	-0.224086	0.000030
O166	O	0.197047	0.275914	0.500030
H167	H	-0.231518	-0.212383	0.000041
H168	H	0.268482	0.287617	0.500041
H169	H	-1.176144	-0.010548	0.328473
H170	H	-0.676144	0.489452	0.828473
H171	H	-0.618906	-0.275389	-0.000007
H172	H	-0.118906	0.224611	0.499993
H173	H	-1.086513	0.018657	0.571543
H174	H	-0.586513	0.518657	1.071543
O175	O	-0.826230	0.031922	0.000046
O176	O	-0.326230	0.531922	0.500046
H177	H	-0.813466	0.062523	-0.050973
H178	H	-0.313466	0.562523	0.449027
O179	O	-0.432992	-0.289419	0.000011
O180	O	0.067008	0.210581	0.500011
H181	H	-0.361559	-0.277715	0.000031
H182	H	0.138441	0.222285	0.500031
O183	O	-0.780490	-0.231081	0.000003
O184	O	-0.280490	0.268919	0.500003
H185	H	-0.724349	-0.274363	0.000001
H186	H	-0.224349	0.225637	0.500001
H187	H	-1.042654	-0.210831	0.428531
H188	H	-0.542654	0.289169	0.928531
O189	O	-1.192439	0.001905	0.824984
O190	O	-0.692439	0.501905	1.324984
H191	H	-1.236122	-0.027404	0.860877
H192	H	-0.736122	0.472596	1.360877
O193	O	-1.241047	0.122206	0.000065
O194	O	-0.741047	0.622206	0.500065
H195	H	-1.297467	0.165272	0.000058
H196	H	-0.797467	0.665272	0.500058
O197	O	-1.238178	0.272806	0.000075
O198	O	-0.738178	0.772806	0.500075
H199	H	-1.296025	0.241151	0.000093
H200	H	-0.796025	0.741151	0.500093
H201	H	-1.176184	-0.010555	0.671605
H202	H	-0.676184	0.489445	1.171605
O203	O	-0.936785	-0.194082	0.661176
O204	O	-0.436785	0.305918	1.161176
H205	H	-0.894034	-0.226870	0.701811
H206	H	-0.394034	0.273130	1.201811
O207	O	-0.890982	0.535027	0.000021
O208	O	-0.390982	1.035027	0.500021
H209	H	-0.833138	0.566685	0.000025
H210	H	-0.333138	1.066685	0.500025
O211	O	-1.196856	0.341649	-0.091125
O212	O	-0.696856	0.841649	0.408875
H213	H	-1.239913	0.383369	-0.121636
H214	H	-0.739913	0.883369	0.378364
O215	O	-1.194000	0.492241	-0.091143
O216	O	-0.694000	0.992241	0.408857
H217	H	-1.182343	0.547652	-0.083789
H218	H	-0.682343	1.047652	0.416211
H219	H	-0.952996	-0.181609	0.328471
H220	H	-0.452996	0.318391	0.828471
H221	H	-1.042689	-0.210832	0.571483
H222	H	-0.542689	0.289168	1.071483
O223	O	-0.936723	-0.194068	0.175085
O224	O	-0.436723	0.305932	0.675085
H225	H	-0.893969	-0.226855	0.215719
H226	H	-0.393969	0.273145	0.715719
