data_functionalizedCrystal
_audit_creation_method	'MofGen! by Chris Wilmer'
_symmetry_space_group_name_H-M	'P1'
_symmetry_Int_Tables_number	1
_symmetry_cell_setting	triclinic
loop_
_symmetry_equiv_pos_as_xyz
  x,y,z
_cell_length_a	12.594517
_cell_length_b	12.594516
_cell_length_c	16.120297
_cell_angle_alpha	87.123207
_cell_angle_beta	87.112004
_cell_angle_gamma	90.014059
loop_
_atom_site_label
_atom_site_type_symbol
_atom_site_fract_x
_atom_site_fract_y
_atom_site_fract_z
Zn1	Zn	1.596736	-0.454388	0.471204
Zn2	Zn	1.605648	-0.623357	0.331803
Zn3	Zn	1.427766	-0.445382	0.331829
Zn4	Zn	1.418716	-0.632311	0.471193
O5	O	1.512216	-0.538860	0.401507
O6	O	1.746864	-0.476824	0.452706
O7	O	1.589568	-0.592232	0.215142
O8	O	1.450238	-0.297632	0.350334
O9	O	1.753412	-0.600965	0.350288
O10	O	1.574379	-0.304249	0.452732
O11	O	1.458879	-0.461474	0.215162
O12	O	1.277619	-0.470157	0.350323
O13	O	1.434814	-0.616226	0.587859
O14	O	1.270970	-0.607493	0.452713
O15	O	1.565604	-0.485507	0.587867
O16	O	1.580793	-0.773490	0.350277
O17	O	1.443456	-0.780068	0.452687
C18	C	1.235675	-0.538820	0.401520
C19	C	1.117368	-0.538830	0.401545
C20	C	1.044536	-0.613660	0.457127
C21	C	0.972403	-0.517944	0.477630
C22	C	0.978703	-0.634625	0.381024
C23	C	1.046791	-0.443065	0.422088
C24	C	1.053098	-0.559810	0.325446
C25	C	0.980999	-0.464025	0.345920
C26	C	1.512137	-0.815400	0.401496
C27	C	1.512199	-0.933707	0.401519
C28	C	1.437561	-1.077339	0.457191
C29	C	1.533272	-1.007760	0.477633
C30	C	1.416495	-1.001716	0.381114
C31	C	1.608131	-1.074918	0.422031
C32	C	1.491291	-1.068878	0.325477
C33	C	1.587071	-0.999330	0.345890
C34	C	1.789838	-0.538900	0.401495
C35	C	1.908144	-0.538917	0.401490
C36	C	1.498206	-0.552870	0.618958
C37	C	1.492235	-0.558840	0.711623
C38	C	1.512324	-0.261241	0.401537
C39	C	1.512370	-0.142936	0.401550
C40	C	1.526234	-0.524827	0.184902
C41	C	1.532411	-0.518557	0.092238
C42	C	1.481295	-0.569717	0.881283
C43	C	1.543348	-0.507684	0.922584
C44	C	1.537261	-0.513736	1.016988
C45	C	1.487381	-0.563666	0.786870
H46	H	0.937121	-0.500228	0.541962
H47	H	1.650331	-0.965392	0.298822
H48	H	1.689158	-1.106906	0.439376
H49	H	1.601043	-0.450030	0.887042
Br50	Br	1.332358	-1.134239	0.535695
H51	H	1.423604	-0.627366	0.916822
Br52	Br	1.461637	-1.113936	0.218302
Br53	Br	1.091229	-0.718951	0.535565
H54	H	0.953181	-0.400712	0.298893
Br55	Br	1.096483	-0.308065	0.451100
Br56	Br	1.111902	-0.589362	0.218233
H57	H	1.551035	-0.980754	0.541953
Br58	Br	1.281479	-0.948186	0.352328
Br59	Br	0.928771	-0.769588	0.352132
