data_functionalizedCrystal
_audit_creation_method	'MofGen! by Chris Wilmer'
_symmetry_space_group_name_H-M	'P1'
_symmetry_Int_Tables_number	1
_symmetry_cell_setting	triclinic
loop_
_symmetry_equiv_pos_as_xyz
  x,y,z
_cell_length_a	13.596369
_cell_length_b	16.109301
_cell_length_c	16.109301
_cell_angle_alpha	83.461481
_cell_angle_beta	90.007411
_cell_angle_gamma	90.002607
loop_
_atom_site_label
_atom_site_type_symbol
_atom_site_fract_x
_atom_site_fract_y
_atom_site_fract_z
O1	O	-0.081732	-1.103133	-0.106869
O2	O	0.418268	-0.603133	0.393131
O3	O	-0.081748	-0.861071	-0.120168
O4	O	0.418252	-0.361071	0.379832
O5	O	-0.081730	-0.988751	0.007513
O6	O	0.418270	-0.488751	0.507513
O7	O	-0.081751	-0.975452	-0.234549
O8	O	0.418249	-0.475452	0.265451
O9	O	0.081853	-0.988739	0.007520
O10	O	0.581853	-0.488739	0.507520
O11	O	0.081835	-0.861058	-0.120161
O12	O	0.581835	-0.361058	0.379839
O13	O	0.081851	-1.103120	-0.106862
O14	O	0.581851	-0.603120	0.393138
Zn15	Zn	0.107815	-0.982087	-0.113510
Zn16	Zn	0.607815	-0.482087	0.386490
Zn17	Zn	-0.107713	-0.982104	-0.113519
Zn18	Zn	0.392287	-0.482104	0.386481
O19	O	0.081832	-0.975439	-0.234542
O20	O	0.581832	-0.475439	0.265458
C21	C	0.000041	-0.830090	-0.119626
C22	C	0.500041	-0.330090	0.380374
C23	C	0.000035	-0.737794	-0.118011
C24	C	0.500035	-0.237794	0.381989
N25	N	0.254907	-0.982082	-0.113504
N26	N	0.754907	-0.482082	0.386496
N27	N	-0.254805	-0.982116	-0.113519
N28	N	0.245195	-0.482116	0.386481
C29	C	0.656198	-0.982103	-0.113520
C30	C	1.156198	-0.482103	0.386480
C31	C	0.544546	-0.982094	-0.113518
C32	C	1.044546	-0.482094	0.386482
C33	C	0.455556	-0.982093	-0.113513
C34	C	0.955556	-0.482093	0.386487
C35	C	0.343897	-0.982083	-0.113510
C36	C	0.843897	-0.482083	0.386490
C37	C	0.000062	-0.988206	0.038491
C38	C	0.500062	-0.488206	0.538491
C39	C	0.000063	-0.986591	0.130786
C40	C	0.500063	-0.486591	0.630786
C41	C	0.000059	-1.134101	-0.107404
C42	C	0.500059	-0.634101	0.392596
C43	C	0.000058	-1.226397	-0.109019
C44	C	0.500058	-0.726397	0.390981
C45	C	0.000041	-0.515522	-0.190018
C46	C	0.500041	-0.015522	0.309982
C47	C	0.000047	-0.428801	-0.188494
C48	C	0.500047	0.071199	0.311506
C49	C	0.000056	-0.448676	-0.037006
C50	C	0.500056	0.051324	0.462994
C51	C	0.000057	-0.535394	-0.038530
C52	C	0.500057	-0.035394	0.461470
C53	C	0.000044	-0.568815	-0.115039
C54	C	0.500044	-0.068815	0.384961
C55	C	0.000050	-0.395376	-0.111990
C56	C	0.500050	0.104624	0.388010
C57	C	0.000057	-0.301350	-0.110337
C58	C	0.500057	0.198650	0.389663
C59	C	0.000039	-0.662847	-0.116693
C60	C	0.500039	-0.162847	0.383307
C61	C	0.000038	-0.975984	-0.265521
C62	C	0.500038	-0.475984	0.234479
C63	C	0.000030	-0.977600	-0.357816
C64	C	0.500030	-0.477600	0.142184
C65	C	0.000052	-1.058599	0.353059
C66	C	0.500052	-0.558599	0.853059
C67	C	0.000044	-1.057075	0.439779
C68	C	0.500044	-0.557075	0.939779
C69	C	0.000038	-0.905586	0.419905
C70	C	0.500038	-0.405586	0.919905
C71	C	0.000039	-0.907111	0.333186
C72	C	0.500039	-0.407111	0.833186
C73	C	0.000051	-0.983620	0.299766
C74	C	0.500051	-0.483620	0.799766
C75	C	0.000042	-0.980571	0.473205
C76	C	0.500042	-0.480571	0.973205
C77	C	0.000033	-0.978918	0.567231
C78	C	0.500033	-0.478918	1.067231
C79	C	0.000058	-0.985273	0.205734
C80	C	0.500058	-0.485273	0.705734
H81	H	0.000046	-0.385413	-0.249550
H82	H	0.500046	0.114587	0.250450
H83	H	0.000062	-0.578788	0.022530
H84	H	0.500062	-0.078788	0.522530
C85	C	0.000057	-0.411910	0.047147
C86	C	0.500057	0.088090	0.547147
H87	H	0.000046	-0.352630	0.037318
H88	H	0.500046	0.147370	0.537318
H89	H	0.057102	-0.430201	0.078026
H90	H	0.557102	0.069799	0.578026
H91	H	-0.056995	-0.430209	0.078010
H92	H	0.443005	0.069791	0.578010
H93	H	0.000030	-0.843295	0.447127
H94	H	0.500030	-0.343295	0.947127
H95	H	0.000060	-1.120897	0.325851
H96	H	0.500060	-0.620897	0.825851
C97	C	0.000052	-1.139552	0.498398
C98	C	0.500052	-0.639552	0.998398
H99	H	0.000066	-1.185333	0.466071
H100	H	0.500066	-0.685333	0.966071
H101	H	-0.056994	-1.142114	0.532634
H102	H	0.443006	-0.642114	1.032634
H103	H	0.057103	-1.142100	0.532646
H104	H	0.557103	-0.642100	1.032646
C105	C	0.000041	-0.824630	0.274560
C106	C	0.500041	-0.324630	0.774560
H107	H	0.000048	-0.778846	0.306882
H108	H	0.500048	-0.278846	0.806882
H109	H	-0.057003	-0.822080	0.240311
H110	H	0.442997	-0.322080	0.740311
H111	H	0.057094	-0.822077	0.240326
H112	H	0.557094	-0.322077	0.740326
C113	C	0.000034	-0.552286	-0.274172
C114	C	0.500034	-0.052286	0.225828
H115	H	0.000026	-0.611566	-0.264344
H116	H	0.500026	-0.111566	0.235656
H117	H	0.057078	-0.533990	-0.305040
H118	H	0.557078	-0.033990	0.194960
H119	H	-0.057019	-0.533992	-0.305045
H120	H	0.442981	-0.033992	0.194955
