data_functionalizedCrystal
_audit_creation_method	'MofGen! by Chris Wilmer'
_symmetry_space_group_name_H-M	'P1'
_symmetry_Int_Tables_number	1
_symmetry_cell_setting	triclinic
loop_
_symmetry_equiv_pos_as_xyz
  x,y,z
_cell_length_a	10.967874
_cell_length_b	14.853567
_cell_length_c	10.065875
_cell_angle_alpha	98.805381
_cell_angle_beta	69.229500
_cell_angle_gamma	84.184732
loop_
_atom_site_label
_atom_site_type_symbol
_atom_site_fract_x
_atom_site_fract_y
_atom_site_fract_z
O1	O	1.739912	0.065941	-0.522684
O2	O	1.362366	0.088323	-0.433892
O3	O	1.561224	-0.054322	-0.480665
O4	O	1.541053	0.208585	-0.475912
O5	O	1.523305	-0.027016	-0.244757
O6	O	1.324446	0.115629	-0.197985
O7	O	1.701992	0.093247	-0.286777
Zn8	Zn	1.507199	0.108774	-0.204926
Zn9	Zn	1.557159	0.072796	-0.515744
O10	O	1.503134	0.235892	-0.240005
C11	C	1.295089	0.102410	-0.304576
C12	C	1.151119	0.103695	-0.270717
C13	C	1.106577	0.090122	-0.377829
C14	C	0.957777	0.091449	-0.342837
C15	C	1.541351	-0.074238	-0.362500
C16	C	1.538614	-0.174262	-0.361868
C17	C	1.408907	-0.583921	-0.331337
C18	C	1.645155	-0.610433	-0.386899
C19	C	1.647731	-0.516457	-0.387513
C20	C	1.530894	-0.456208	-0.360036
C21	C	1.411480	-0.489935	-0.331946
C22	C	1.767141	-0.482722	-0.415588
C23	C	1.769722	-0.388740	-0.416201
C24	C	1.652885	-0.328491	-0.388735
C25	C	1.533466	-0.362223	-0.360645
C26	C	1.416628	-0.301974	-0.333169
C27	C	1.297210	-0.335706	-0.305089
C28	C	1.294642	-0.429686	-0.304480
C29	C	1.655452	-0.234511	-0.389344
C30	C	1.419200	-0.207989	-0.333778
C31	C	1.769269	0.079159	-0.416097
C32	C	1.913240	0.077874	-0.449965
N33	N	1.473111	0.133326	0.007197
C34	C	1.523007	0.255807	-0.358173
C35	C	1.525745	0.355830	-0.358814
N36	N	1.591257	0.048236	-0.727869
C37	C	1.545291	0.081333	0.057999
C38	C	1.519066	0.100237	0.221335
H39	H	1.324056	-0.158940	-0.311409
C40	C	1.187244	-0.576204	-0.162532
C41	C	1.277643	-0.620989	-0.300474
H42	H	1.106205	-0.599085	-0.143487
H43	H	1.222130	-0.587541	-0.091594
H44	H	1.172075	-0.511610	-0.158976
H45	H	1.292820	-0.685582	-0.304027
H46	H	1.242751	-0.609659	-0.371431
C47	C	1.196271	-0.179864	-0.281352
C48	C	1.168784	-0.269474	-0.274890
H49	H	1.116989	-0.138976	-0.262717
H50	H	1.231993	-0.160397	-0.210598
H51	H	1.258459	-0.179446	-0.375135
H52	H	1.106603	-0.269894	-0.181103
H53	H	1.133042	-0.288946	-0.345647
C54	C	1.627960	-0.081708	-0.005812
C55	C	1.654930	0.002363	-0.046551
H56	H	1.695647	-0.130457	-0.070374
H57	H	1.624752	-0.079386	0.090215
H58	H	1.545195	-0.092305	-0.009674
H59	H	1.737690	0.012963	-0.042679
H60	H	1.658152	0.000041	-0.142603
C61	C	1.075050	0.137026	-0.631386
C62	C	1.010455	0.060859	-0.608746
H63	H	1.135071	0.126518	-0.729408
H64	H	1.011631	0.190844	-0.611404
H65	H	1.122275	0.145361	-0.568715
H66	H	0.963222	0.052528	-0.671410
H67	H	1.073883	0.007026	-0.628744
H68	H	1.752679	-0.207050	-0.412197
H69	H	1.672468	-0.010278	0.194709
C70	C	0.731973	0.106475	-0.180126
C71	C	0.860561	0.108457	-0.184057
H72	H	0.671960	0.116968	-0.082103
H73	H	0.708575	0.153302	-0.225476
H74	H	0.728177	0.047802	-0.230114
H75	H	0.864360	0.167133	-0.134078
H76	H	0.883966	0.061627	-0.138687
H77	H	1.178602	0.077524	-0.495437
C78	C	1.287447	0.163577	0.320122
C79	C	1.409423	0.179223	0.325846
H80	H	1.219760	0.212336	0.384651
H81	H	1.290694	0.161243	0.224079
H82	H	1.269156	0.106545	0.347778
H83	H	1.427718	0.236252	0.298180
H84	H	1.406178	0.181567	0.421910
H85	H	1.866960	-0.361285	-0.439068
C86	C	1.111977	-0.450078	-0.378211
C87	C	1.163388	-0.466769	-0.273611
H88	H	1.030953	-0.472981	-0.359155
H89	H	1.096779	-0.385492	-0.374633
H90	H	1.173329	-0.480456	-0.471785
H91	H	1.102041	-0.436385	-0.180038
H92	H	1.178580	-0.531367	-0.277175
H93	H	1.391896	0.191831	0.084626
C94	C	1.123536	0.133009	-0.019594
C95	C	1.053900	0.120711	-0.111944
H96	H	1.063515	0.143519	0.078427
H97	H	1.186940	0.079181	-0.039581
H98	H	1.167363	0.184677	-0.034984
H99	H	1.010081	0.069038	-0.096561
H100	H	0.990473	0.174544	-0.091949
C101	C	1.746102	-0.766267	-0.410627
C102	C	1.773578	-0.676656	-0.417097
H103	H	1.825392	-0.807153	-0.429281
H104	H	1.683933	-0.766689	-0.316852
H105	H	1.710366	-0.785739	-0.481382
H106	H	1.809305	-0.657181	-0.346335
H107	H	1.835769	-0.676231	-0.510886
H108	H	1.862262	-0.531781	-0.437944
