data_functionalizedCrystal
_audit_creation_method	'MofGen! by Chris Wilmer'
_symmetry_space_group_name_H-M	'P1'
_symmetry_Int_Tables_number	1
_symmetry_cell_setting	triclinic
loop_
_symmetry_equiv_pos_as_xyz
  x,y,z
_cell_length_a	16.120530
_cell_length_b	19.120786
_cell_length_c	16.120297
_cell_angle_alpha	90.306305
_cell_angle_beta	90.128140
_cell_angle_gamma	89.436752
loop_
_atom_site_label
_atom_site_type_symbol
_atom_site_fract_x
_atom_site_fract_y
_atom_site_fract_z
Zn1	Zn	1.230439	-0.354318	-0.515736
Zn2	Zn	1.730439	0.145682	-0.015736
Zn3	Zn	1.232048	-0.465652	-0.370762
Zn4	Zn	1.732048	0.034348	0.129238
Zn5	Zn	1.098996	-0.342500	-0.370282
Zn6	Zn	1.598996	0.157500	0.129718
Zn7	Zn	1.086035	-0.465008	-0.502765
Zn8	Zn	1.586035	0.034992	-0.002765
O9	O	1.161880	-0.406870	-0.439886
O10	O	1.661880	0.093130	0.060114
O11	O	1.346768	-0.374302	-0.502134
O12	O	1.846768	0.125698	-0.002134
O13	O	1.220496	-0.444639	-0.254581
O14	O	1.720496	0.055361	0.245419
O15	O	1.121184	-0.246204	-0.394804
O16	O	1.621184	0.253796	0.105196
O17	O	1.347950	-0.456099	-0.395622
O18	O	1.847950	0.043901	0.104378
O19	O	1.217754	-0.254887	-0.501668
O20	O	1.717754	0.245113	-0.001668
O21	O	1.122744	-0.354160	-0.254229
O22	O	1.622744	0.145840	0.245771
O23	O	0.981161	-0.353536	-0.382227
O24	O	1.481161	0.146464	0.117773
O25	O	1.099093	-0.455001	-0.620603
O26	O	1.599093	0.044999	-0.120603
O27	O	0.971638	-0.443542	-0.479562
O28	O	1.471638	0.056458	0.020438
O29	O	1.205186	-0.373678	-0.630132
O30	O	1.705186	0.126322	-0.130132
O31	O	1.207928	-0.563430	-0.383045
O32	O	1.707928	-0.063430	0.116955
O33	O	1.100653	-0.562957	-0.480027
O34	O	1.600653	-0.062957	0.019973
C35	C	0.946292	-0.397187	-0.429435
C36	C	1.446292	0.102813	0.070565
C37	C	0.854061	-0.393062	-0.424983
C38	C	1.354061	0.106938	0.075017
C39	C	0.685193	-0.385516	-0.416863
C40	C	1.185193	0.114484	0.083137
C41	C	0.639400	-0.428278	-0.462967
C42	C	1.139400	0.071722	0.037033
C43	C	0.545437	-0.424079	-0.458449
C44	C	1.045437	0.075921	0.041551
C45	C	0.779166	-0.389714	-0.421380
C46	C	1.279166	0.110286	0.078620
C47	C	1.153080	-0.588570	-0.430200
C48	C	1.653080	-0.088570	0.069800
C49	C	1.149390	-0.666307	-0.426087
C50	C	1.649390	-0.166307	0.073913
C51	C	1.197893	-0.707288	-0.479835
C52	C	1.697893	-0.207288	0.020165
C53	C	1.194422	-0.780330	-0.475973
C54	C	1.694422	-0.280330	0.024027
C55	C	1.142452	-0.812390	-0.418357
C56	C	1.642452	-0.312390	0.081643
C57	C	1.093943	-0.771403	-0.364607
C58	C	1.593943	-0.271403	0.135393
C59	C	1.097410	-0.698363	-0.368475
C60	C	1.597410	-0.198363	0.131525
C61	C	1.129467	-1.032702	-0.403899
C62	C	1.629467	-0.532702	0.096101
C63	C	1.126006	-1.105748	-0.400034
C64	C	1.626006	-0.605748	0.099966
C65	C	1.226484	-1.114670	-0.511400
C66	C	1.726484	-0.614670	-0.011400
C67	C	1.229950	-1.041628	-0.515259
C68	C	1.729950	-0.541628	-0.015259
C69	C	1.181438	-1.000648	-0.461512
C70	C	1.681438	-0.500648	0.038488
C71	C	1.138905	-0.887050	-0.414406
C72	C	1.638905	-0.387050	0.085594
C73	C	1.184981	-0.925989	-0.465468
C74	C	1.684981	-0.425989	0.034532
C75	C	1.378309	-0.416591	-0.450378
C76	C	1.878309	0.083409	0.049622
C77	C	1.470538	-0.420733	-0.454849
C78	C	1.970538	0.079267	0.045151
C79	C	1.150514	-0.415586	-0.656317
C80	C	1.650514	0.084414	-0.156317
C81	C	1.145671	-0.419300	-0.748547
C82	C	1.645671	0.080700	-0.248547
C83	C	1.170735	-0.224461	-0.449629
C84	C	1.670735	0.275539	0.050371
C85	C	1.174509	-0.146729	-0.453781
C86	C	1.674509	0.353271	0.046219
C87	C	1.136799	-0.426065	-0.917412
C88	C	1.636799	0.073935	-0.417412
C89	C	1.187134	-0.387472	-0.963231
C90	C	1.687134	0.112528	-0.463231
C91	C	1.182197	-0.391236	-1.057193
C92	C	1.682197	0.108764	-0.557193
C93	C	1.141734	-0.422302	-0.823441
C94	C	1.641734	0.077698	-0.323441
C95	C	1.173251	-0.398139	-0.224302
C96	C	1.673251	0.101861	0.275698
C97	C	1.178264	-0.394235	-0.132091
C98	C	1.678264	0.105765	0.367909
H99	H	0.670765	-0.468040	-0.505833
H100	H	1.170765	0.031960	-0.005833
H101	H	1.090002	-0.461929	-0.948752
H102	H	1.590002	0.038071	-0.448752
Br103	Br	0.632920	-0.319244	-0.345423
Br104	Br	1.132920	0.180756	0.154577
H105	H	1.227292	-0.899884	-0.512382
H106	H	1.727292	-0.399884	-0.012382
Br107	Br	1.068368	-0.930566	-0.336223
Br108	Br	1.568368	-0.430566	0.163777
Br109	Br	1.260237	-0.835945	-0.548933
Br110	Br	1.760237	-0.335945	-0.048933
Br111	Br	1.268435	-0.663786	-0.558025
Br112	Br	1.768435	-0.163786	-0.058025
Br113	Br	1.292316	-1.170289	-0.584341
Br114	Br	1.792316	-0.670289	-0.084341
Br115	Br	1.055475	-1.149257	-0.321831
Br116	Br	1.555475	-0.649257	0.178169
Br117	Br	1.300485	-0.998124	-0.593453
Br118	Br	1.800485	-0.498124	-0.093453
Br119	Br	1.023399	-0.814912	-0.286425
Br120	Br	1.523399	-0.314912	0.213575
Br121	Br	1.265158	-0.327708	-0.910998
Br122	Br	1.765158	0.172292	-0.410998
Br123	Br	1.031577	-0.642744	-0.295532
Br124	Br	1.531577	-0.142744	0.204468
H125	H	1.089968	-0.999342	-0.360134
H126	H	1.589968	-0.499342	0.139866
