data_functionalizedCrystal
_audit_creation_method	'MofGen! by Chris Wilmer'
_symmetry_space_group_name_H-M	'P1'
_symmetry_Int_Tables_number	1
_symmetry_cell_setting	triclinic
loop_
_symmetry_equiv_pos_as_xyz
  x,y,z
_cell_length_a	16.959455
_cell_length_b	21.295411
_cell_length_c	16.959453
_cell_angle_alpha	90.017517
_cell_angle_beta	89.983065
_cell_angle_gamma	89.976585
loop_
_atom_site_label
_atom_site_type_symbol
_atom_site_fract_x
_atom_site_fract_y
_atom_site_fract_z
Zn1	Zn	1.208455	-0.355910	0.314836
Zn2	Zn	1.208357	-0.250643	0.446997
Zn3	Zn	1.076263	-0.250657	0.314830
Zn4	Zn	1.076248	-0.355877	0.446969
O5	O	1.142331	-0.303272	0.380908
O6	O	1.319053	-0.341954	0.332382
O7	O	1.190799	-0.162556	0.429474
O8	O	1.093845	-0.264639	0.204220
O9	O	1.318981	-0.264615	0.429480
O10	O	1.190967	-0.341968	0.204224
O11	O	1.093750	-0.162566	0.332371
O12	O	0.965650	-0.264607	0.332344
O13	O	1.093821	-0.443971	0.429433
O14	O	0.965639	-0.341911	0.429426
O15	O	1.190953	-0.443995	0.332355
O16	O	1.190785	-0.264583	0.557604
O17	O	1.093726	-0.341898	0.557584
C18	C	0.936965	-0.303258	0.380882
C19	C	0.849108	-0.303266	0.380890
C20	C	0.477613	-0.263104	0.330316
C21	C	0.477651	-0.343476	0.431565
C22	C	0.560197	-0.343472	0.431554
C23	C	0.601455	-0.303283	0.380924
C24	C	0.560167	-0.263097	0.330305
C25	C	0.601491	-0.383653	0.482178
C26	C	0.684042	-0.383650	0.482169
C27	C	0.725302	-0.343463	0.431534
C28	C	0.684008	-0.303277	0.380912
C29	C	0.725266	-0.263087	0.330282
C30	C	0.683975	-0.222903	0.279656
C31	C	0.601426	-0.222910	0.279670
C32	C	0.807850	-0.343456	0.431520
C33	C	0.807820	-0.263081	0.330271
C34	C	1.142396	-0.467462	0.380891
C35	C	1.142424	-0.537430	0.380884
C36	C	1.192999	-0.570311	0.330334
C37	C	1.192998	-0.636053	0.330299
C38	C	1.142430	-0.668913	0.380830
C39	C	1.091846	-0.636025	0.431384
C40	C	1.091843	-0.570283	0.431411
N41	N	1.136345	-0.772132	0.449976
N42	N	1.136352	-0.834584	0.449948
C43	C	1.142435	-0.866988	0.380750
N44	N	1.148526	-0.834581	0.311579
N45	N	1.148523	-0.772124	0.311608
C46	C	1.142428	-0.740198	0.380806
C47	C	1.193011	-0.971154	0.330158
C48	C	1.193005	-1.036898	0.330122
C49	C	1.091858	-1.036868	0.431214
C50	C	1.091860	-0.971125	0.431242
C51	C	1.142441	-0.938272	0.380715
C52	C	1.348499	-0.303287	0.380935
C53	C	1.436356	-0.303293	0.380946
C54	C	1.142265	-0.303249	0.586274
C55	C	1.142309	-0.303260	0.674131
C56	C	1.142311	-0.139720	0.380868
C57	C	1.142436	-0.069753	0.380652
C58	C	1.142418	-0.303309	0.174740
C59	C	1.142456	-0.303325	0.086883
C60	C	1.192967	-0.343613	1.045550
C61	C	1.091916	-0.263024	1.045662
C62	C	1.091886	-0.263010	0.963117
C63	C	1.142397	-0.303298	0.921784
C64	C	1.192937	-0.343601	0.962997
C65	C	1.041342	-0.222712	0.921897
C66	C	1.041310	-0.222697	0.839346
C67	C	1.091825	-0.262982	0.798012
C68	C	1.142368	-0.303286	0.839230
C69	C	1.192878	-0.343575	0.797897
C70	C	1.243426	-0.383876	0.839114
C71	C	1.243452	-0.383887	0.921663
C72	C	1.091798	-0.262972	0.715464
C73	C	1.192849	-0.343563	0.715344
H74	H	1.234185	-0.543566	0.289189
H75	H	0.717655	-0.416371	0.523392
C76	C	1.036826	-0.219328	0.670670
C77	C	0.986118	-0.254932	0.623303
C78	C	0.935458	-0.214748	0.582037
H79	H	1.066975	-0.191903	0.638401
H80	H	1.006698	-0.195348	0.707083
H81	H	1.016243	-0.278901	0.586895
H82	H	0.955952	-0.282356	0.655553
H83	H	0.905330	-0.190768	0.618449
H84	H	0.965613	-0.187325	0.549772
H85	H	0.901042	-0.238900	0.549899
H86	H	1.234123	-0.376424	1.079113
C87	C	1.247999	-0.671649	0.275386
C88	C	1.292307	-0.628806	0.231156
C89	C	1.342990	-0.661571	0.180571
H90	H	1.217871	-0.697289	0.240860
H91	H	1.282466	-0.697290	0.305606
H92	H	1.257845	-0.603176	0.200938
H93	H	1.322452	-0.603165	0.265661
H94	H	1.377457	-0.687213	0.210791
H95	H	1.312855	-0.687211	0.146050
H96	H	1.373064	-0.632508	0.150560
H97	H	1.050672	-0.662783	0.472524
H98	H	0.567893	-0.416369	0.523404
H99	H	0.444054	-0.376193	0.472791
H100	H	1.050789	-0.230226	1.079321
C101	C	0.852713	-0.219408	0.275428
C102	C	0.900083	-0.179002	0.320102
C103	C	0.941457	-0.138768	0.269609
H104	H	0.816389	-0.195418	0.245262
H105	H	0.884985	-0.243516	0.241042
H106	H	0.867814	-0.154895	0.354474
H107	H	0.936422	-0.202974	0.350266
H108	H	0.973729	-0.162877	0.235223
H109	H	0.905127	-0.114783	0.239446
H110	H	0.973608	-0.111352	0.299912
C111	C	1.036908	-0.534694	0.486391
C112	C	0.992633	-0.577539	0.530652
C113	C	0.942028	-0.544776	0.581318
H114	H	1.002411	-0.509032	0.456252
H115	H	1.067116	-0.509075	0.520889
H116	H	0.962427	-0.603147	0.496159
H117	H	1.027109	-0.603203	0.560806
H118	H	0.972237	-0.519157	0.615815
H119	H	0.907537	-0.519114	0.551172
H120	H	0.911988	-0.573840	0.611359
C121	C	0.852823	-0.387010	0.486450
C122	C	0.933947	-0.378394	0.475616
C123	C	0.975400	-0.418502	0.526214
H124	H	0.839417	-0.429348	0.475018
H125	H	0.839328	-0.377712	0.539560
H126	H	0.947437	-0.387696	0.422519
H127	H	0.947376	-0.336064	0.487055
H128	H	0.961904	-0.409204	0.579324
H129	H	0.961987	-0.460838	0.514777
H130	H	1.030446	-0.412657	0.518875
H131	H	1.233984	-0.376369	0.681696
C132	C	0.986596	-0.178993	0.966914
C133	C	0.997463	-0.187614	1.048028
C134	C	0.947054	-0.147340	1.089526
H135	H	0.933442	-0.188122	0.953518
H136	H	0.998197	-0.136692	0.953445
H137	H	0.985856	-0.229906	1.061491
H138	H	1.050607	-0.178481	1.061447
H139	H	0.958655	-0.105039	1.076057
H140	H	0.893903	-0.156472	1.076123
H141	H	0.954425	-0.153180	1.144565
C142	C	1.036867	-1.072422	0.486106
C143	C	0.992563	-1.029551	0.530373
C144	C	0.941886	-1.062284	0.580939
H145	H	1.067000	-1.098081	0.520609
H146	H	1.002398	-1.098042	0.455870
H147	H	1.027028	-1.003942	0.560607
H148	H	0.962414	-1.003891	0.495891
H149	H	0.907417	-1.087903	0.550703
H150	H	0.972026	-1.087942	0.615437
H151	H	0.911815	-1.033201	0.610975
C152	C	0.728876	-0.179232	0.224817
C153	C	0.776245	-0.138830	0.269499
C154	C	0.817631	-0.098599	0.219012
H155	H	0.692559	-0.155240	0.194647
H156	H	0.761150	-0.203343	0.190436
H157	H	0.743974	-0.114722	0.303866
H158	H	0.812577	-0.162805	0.299667
H159	H	0.849905	-0.122710	0.184630
H160	H	0.781308	-0.074611	0.188844
H161	H	0.849781	-0.071186	0.249320
C162	C	1.247947	-0.935593	0.275208
C163	C	1.292219	-0.978463	0.230908
C164	C	1.342826	-0.945730	0.180273
H165	H	1.282446	-0.909958	0.305371
H166	H	1.217741	-0.909950	0.240735
H167	H	1.322423	-1.004096	0.265377
H168	H	1.257741	-1.004100	0.200729
H169	H	1.312619	-0.920087	0.145799
H170	H	1.377319	-0.920096	0.210442
H171	H	1.372865	-0.974812	0.150204
H172	H	1.000153	-0.189881	0.805793
C173	C	1.247782	-1.072629	0.275129
C174	C	1.203047	-1.110338	0.224425
C175	C	1.253479	-1.143255	0.173745
H176	H	1.282225	-1.098341	0.305263
H177	H	1.277887	-1.043662	0.244998
H178	H	1.172956	-1.139301	0.254552
H179	H	1.168606	-1.084641	0.194274
H180	H	1.283584	-1.114288	0.143614
H181	H	1.287920	-1.168964	0.203885
H182	H	1.223134	-1.168840	0.139331
H183	H	1.050682	-0.944354	0.472411
C184	C	1.298234	-0.427549	0.794091
C185	C	1.287394	-0.418901	0.712978
C186	C	1.337874	-0.459114	0.671476
H187	H	1.286698	-0.469864	0.807506
H188	H	1.351372	-0.418370	0.807537
H189	H	1.234268	-0.428085	0.699538
H190	H	1.298935	-0.376594	0.699540
H191	H	1.391012	-0.449935	0.684922
H192	H	1.326334	-0.501427	0.684897
H193	H	1.330532	-0.453248	0.616437
H194	H	1.284605	-0.416699	0.955229
H195	H	0.443990	-0.230388	0.289095
C196	C	0.556452	-0.179313	0.224789
C197	C	0.475330	-0.187912	0.235651
C198	C	0.433873	-0.147758	0.185114
H199	H	0.569901	-0.188566	0.171665
H200	H	0.569903	-0.136984	0.236276
H201	H	0.461885	-0.230231	0.224158
H202	H	0.461858	-0.178654	0.288764
H203	H	0.447323	-0.105429	0.196602
H204	H	0.447327	-0.157014	0.131994
H205	H	0.378827	-0.153582	0.192482
