data_functionalizedCrystal
_audit_creation_method	'MofGen! by Chris Wilmer'
_symmetry_space_group_name_H-M	'P1'
_symmetry_Int_Tables_number	1
_symmetry_cell_setting	triclinic
loop_
_symmetry_equiv_pos_as_xyz
  x,y,z
_cell_length_a	6.817900
_cell_length_b	11.102210
_cell_length_c	27.924317
_cell_angle_alpha	95.521576
_cell_angle_beta	98.979858
_cell_angle_gamma	108.604261
loop_
_atom_site_label
_atom_site_type_symbol
_atom_site_fract_x
_atom_site_fract_y
_atom_site_fract_z
V1	V	-4.003377	-0.177801	-0.151278
O2	O	-3.964477	0.006525	-0.148400
O3	O	-3.980886	-0.350607	-0.150243
O4	O	-3.932993	-0.175952	-0.217257
O5	O	-4.012702	-0.169339	-0.080922
V6	V	-4.486497	-0.155649	-0.142863
O7	O	-4.265521	-0.226393	-0.169738
O8	O	-4.674550	-0.107056	-0.124404
O9	O	-4.285782	0.017158	-0.143899
O10	O	-4.642793	-0.339974	-0.145742
O11	O	-4.594569	-0.164110	-0.213220
O12	O	-4.333675	-0.157498	-0.076885
C13	C	-3.832900	-0.392706	-0.147856
C14	C	-3.895651	-0.533983	-0.147449
C15	C	-3.955713	-0.714393	-0.102450
C16	C	-3.896732	-0.581645	-0.102827
C17	C	-3.953535	-0.619075	-0.191697
C18	C	-4.012500	-0.751820	-0.191319
C19	C	-3.771807	-0.169914	-0.233338
C20	C	-3.795715	-0.169546	-0.287276
C21	C	-4.021009	-0.283014	-0.679357
C22	C	-3.931489	-0.284599	-0.476654
O23	O	-3.966791	-0.383856	-0.456343
N24	N	-3.865080	-0.168320	-0.444369
C25	C	-3.821036	-0.051636	-0.462764
O26	O	-3.762476	0.047231	-0.430653
C27	C	-3.910541	-0.050052	-0.665466
C28	C	-3.976973	-0.166340	-0.697748
C29	C	-4.087434	-0.399292	-0.711639
C30	C	-4.109822	-0.398895	-0.762312
C31	C	-4.065786	-0.282220	-0.780703
C32	C	-3.999361	-0.165943	-0.748421
C33	C	-3.866482	0.066630	-0.683859
C34	C	-3.888859	0.067016	-0.734539
C35	C	-3.955291	-0.049271	-0.766821
C36	C	-3.977714	-0.048871	-0.817486
N37	N	-4.044123	-0.165150	-0.849770
C38	C	-4.088159	-0.281825	-0.831378
C39	C	-3.774052	-0.052476	-0.356342
C40	C	-3.751679	-0.052871	-0.305667
C41	C	-3.862131	-0.285834	-0.319561
C42	C	-3.884518	-0.285438	-0.370237
C43	C	-3.840461	-0.168755	-0.388627
C44	C	-4.135175	-0.280983	-0.937795
C45	C	-4.157569	-0.280576	-0.988472
C46	C	-4.047106	-0.047613	-0.974574
C47	C	-4.024723	-0.048020	-0.923901
C48	C	-4.068757	-0.164715	-0.905514
O49	O	-3.942428	0.050335	-0.837830
O50	O	-4.146671	-0.380675	-0.863497
C51	C	-3.998620	-0.283411	-0.628684
C52	C	-3.932195	-0.167133	-0.596403
C53	C	-3.888159	-0.050459	-0.614794
C54	C	-3.909822	-0.167529	-0.545727
C55	C	-3.953858	-0.284204	-0.527336
C56	C	-4.020267	-0.400482	-0.559620
C57	C	-4.042656	-0.400085	-0.610293
C58	C	-3.821750	0.065820	-0.582510
C59	C	-3.799368	0.065413	-0.531837
C60	C	-3.843404	-0.051261	-0.513446
C61	C	-4.097110	0.059250	-0.146284
C62	C	-4.013597	0.200525	-0.146695
C63	C	-4.158203	-0.163539	-0.060801
C64	C	-4.113533	-0.163901	-0.006863
H65	H	-3.952638	-0.580258	-0.228029
H66	H	-4.096747	-0.494779	-0.636574
H67	H	-4.059628	-0.821098	-0.227351
O68	O	-3.687062	0.060208	-0.274378
C69	C	-3.653046	0.163262	-0.301485
H70	H	-3.621896	0.131597	-0.338781
H71	H	-3.798846	0.193512	-0.306927
C72	C	-3.499275	0.316634	-0.227556
C73	C	-3.460998	0.277746	-0.273362
H74	H	-3.380817	0.387256	-0.210209
H75	H	-3.522199	0.247205	-0.209294
H76	H	-3.620780	0.341834	-0.232098
H77	H	-3.339511	0.252531	-0.268821
H78	H	-3.438049	0.347173	-0.291624
O79	O	-3.904668	-0.399242	-0.301742
C80	C	-3.770501	-0.463914	-0.315976
H81	H	-3.713352	-0.428503	-0.350014
H82	H	-3.628977	-0.443712	-0.284842
C83	C	-3.962508	-0.653177	-0.285797
C84	C	-3.892332	-0.609692	-0.327605
H85	H	-4.037653	-0.743100	-0.292968
H86	H	-4.052895	-0.609605	-0.276205
H87	H	-3.844556	-0.636330	-0.259856
H88	H	-4.010283	-0.626525	-0.353543
H89	H	-3.801967	-0.653271	-0.337201
O90	O	-3.846078	0.180477	-0.752321
C91	C	-3.782603	0.283019	-0.712957
H92	H	-3.846129	0.246369	-0.679732
H93	H	-3.602841	0.324399	-0.703249
C94	C	-3.792262	0.433654	-0.768760
C95	C	-3.870300	0.388642	-0.727954
H96	H	-3.846348	0.498811	-0.778012
H97	H	-3.835019	0.364571	-0.795281
H98	H	-3.642463	0.468129	-0.760665
H99	H	-4.020093	0.354153	-0.736052
H100	H	-3.827571	0.457721	-0.701435
O101	O	-4.222031	-0.393655	-1.019761
C102	C	-4.256137	-0.496717	-0.992658
H103	H	-4.160686	-0.460633	-0.953637
H104	H	-4.431136	-0.538180	-0.991586
C105	C	-4.303172	-0.646349	-1.065136
C106	C	-4.185923	-0.602032	-1.017211
H107	H	-4.259870	-0.711316	-1.080282
H108	H	-4.280202	-0.576916	-1.083396
H109	H	-4.448996	-0.680893	-1.064236
H110	H	-4.040106	-0.567476	-1.018111
H111	H	-4.208866	-0.671463	-0.998951
H112	H	-3.956596	-0.753188	-0.066114
O113	O	-3.960104	0.065056	-0.892607
C114	C	-3.926106	0.168117	-0.919710
H115	H	-3.894972	0.136462	-0.957009
H116	H	-4.071909	0.198366	-0.925145
C117	C	-3.772311	0.321476	-0.845778
C118	C	-3.734053	0.282599	-0.891588
H119	H	-3.653851	0.392097	-0.828431
H120	H	-3.795223	0.252043	-0.827518
H121	H	-3.893819	0.346674	-0.850314
H122	H	-3.612565	0.257387	-0.887051
H123	H	-3.711117	0.352031	-0.909847
H124	H	-4.171028	-0.376006	-0.922830
H125	H	-3.849598	-0.512375	-0.066798
O126	O	-4.174257	-0.511969	-0.793598
C127	C	-4.208353	-0.615020	-0.766489
H128	H	-4.112919	-0.578921	-0.727468
H129	H	-4.383354	-0.656494	-0.765422
C130	C	-4.255330	-0.764666	-0.838959
C131	C	-4.138101	-0.720330	-0.791033
H132	H	-4.212006	-0.829629	-0.854099
H133	H	-4.232367	-0.695239	-0.857223
H134	H	-4.401156	-0.799218	-0.838063
H135	H	-3.992283	-0.685765	-0.791931
H136	H	-4.161039	-0.789754	-0.772770
O137	O	-4.130430	-0.512568	-0.693725
C138	C	-4.294001	-0.525843	-0.667202
H139	H	-4.300413	-0.426789	-0.654359
H140	H	-4.451128	-0.587390	-0.691818
C141	C	-4.243887	-0.712667	-0.638101
C142	C	-4.251750	-0.591007	-0.622323
H143	H	-4.217833	-0.752869	-0.610418
H144	H	-4.133691	-0.703728	-0.655971
H145	H	-4.374830	-0.763941	-0.658614
H146	H	-4.120800	-0.539731	-0.601815
H147	H	-4.361923	-0.599940	-0.604448
H148	H	-3.938604	-0.380129	-0.396518
H149	H	-4.056128	-0.495483	-0.544638
O150	O	-3.734726	0.178503	-0.500548
C151	C	-3.700713	0.281557	-0.527655
H152	H	-3.669589	0.249887	-0.564953
H153	H	-3.846504	0.311816	-0.533091
C154	C	-3.546889	0.434928	-0.453727
C155	C	-3.508644	0.396034	-0.499536
H156	H	-3.428419	0.505546	-0.436382
H157	H	-3.569811	0.365499	-0.435464
H158	H	-3.668387	0.460135	-0.458264
H159	H	-3.387165	0.370812	-0.494999
H160	H	-3.485697	0.465461	-0.517797
H161	H	-3.738165	0.042547	-0.371309
H162	H	-3.812391	0.161324	-0.657583
H163	H	-4.011265	0.047380	-0.989557
H164	H	-3.785877	0.160833	-0.597478
