data_functionalizedCrystal
_audit_creation_method	'MofGen! by Chris Wilmer'
_symmetry_space_group_name_H-M	'P1'
_symmetry_Int_Tables_number	1
_symmetry_cell_setting	triclinic
loop_
_symmetry_equiv_pos_as_xyz
  x,y,z
_cell_length_a	19.902436
_cell_length_b	23.196402
_cell_length_c	23.196402
_cell_angle_alpha	60.000138
_cell_angle_beta	90.000983
_cell_angle_gamma	59.997492
loop_
_atom_site_label
_atom_site_type_symbol
_atom_site_fract_x
_atom_site_fract_y
_atom_site_fract_z
Zr1	Zr	0.647339	0.630935	-0.075583
O2	O	0.540049	0.751215	-0.167638
O3	O	0.680227	0.510666	-0.047367
O4	O	0.680228	0.630936	-0.167634
O5	O	0.540049	0.630941	0.047501
O6	O	0.790807	0.630925	-0.167626
O7	O	0.540048	0.630945	-0.047372
O8	O	0.790804	0.415783	0.047509
O9	O	0.540052	0.846083	-0.167634
O10	O	0.776780	0.560122	-0.035323
O11	O	0.694257	0.560128	0.035474
O12	O	0.694259	0.701730	-0.106125
O13	O	0.611737	0.701736	-0.035328
Zr14	Zr	0.823702	0.630911	0.075740
Zr15	Zr	0.823700	0.630918	-0.075571
Zr16	Zr	0.647342	0.630929	0.075728
Zr17	Zr	0.647344	0.782238	-0.075577
Zr18	Zr	0.823698	0.479609	0.075733
O19	O	0.790815	0.751181	0.047524
O20	O	0.790811	0.751190	-0.167621
O21	O	0.540053	0.751206	0.047506
O22	O	0.930993	0.510631	0.167795
O23	O	0.930989	0.510640	-0.047349
O24	O	0.680231	0.510657	0.167778
O25	O	0.930992	0.630906	-0.047344
O26	O	0.790813	0.630911	0.167790
O27	O	0.680235	0.630922	0.167783
O28	O	0.930994	0.630902	0.047528
O29	O	0.680235	0.846069	-0.167625
O30	O	0.790806	0.415778	0.167781
O31	O	0.930989	0.415764	0.167791
O32	O	0.930987	0.415769	0.047519
O33	O	0.540055	0.846078	-0.047362
O34	O	0.680238	0.846064	-0.047353
O35	O	0.776782	0.560116	0.106282
O36	O	0.859305	0.560111	0.035485
O37	O	0.776784	0.701719	-0.035317
O38	O	0.694262	0.701725	0.035480
C39	C	0.735515	0.441667	0.000070
C40	C	0.735513	0.377435	0.000067
C41	C	0.778583	0.347262	-0.036890
C42	C	0.778591	0.286901	-0.036885
C43	C	0.735513	0.256727	0.000069
C44	C	0.692441	0.286904	0.037035
C45	C	0.692441	0.347258	0.037034
C46	C	0.663358	0.194705	-0.005210
C47	C	0.663356	0.134356	-0.005214
C48	C	0.735514	0.070572	0.000076
C49	C	0.807673	0.067153	0.005357
C50	C	0.807673	0.127507	0.005356
C51	C	0.735508	0.191283	0.000075
C52	C	0.778596	-0.025052	-0.036877
C53	C	0.778607	-0.085418	-0.036866
C54	C	0.692448	-0.085407	0.037049
C55	C	0.692446	-0.025049	0.037043
C56	C	0.735518	0.005128	0.000076
C57	C	0.514921	0.630946	0.000063
C58	C	0.440051	0.630953	0.000058
C59	C	0.168049	0.630913	0.000085
C60	C	0.144484	0.720242	-0.044364
C61	C	0.222322	0.720298	-0.044611
C62	C	0.302992	0.630934	0.000072
C63	C	0.300579	0.586573	-0.032501
C64	C	0.222352	0.587144	-0.032829
C65	C	0.223341	0.585305	0.077127
C66	C	0.300262	0.586984	0.077008
C67	C	0.379259	0.630940	0.000064
C68	C	0.091784	0.630904	0.000090
C69	C	0.956121	0.630901	0.000094
C70	C	1.030991	0.630894	0.000099
C71	C	0.735517	0.630931	-0.189188
C72	C	0.735516	0.630934	-0.253424
C73	C	0.735527	0.820180	0.000086
C74	C	0.735529	0.884412	0.000089
C75	C	0.692459	0.704830	-0.753207
C76	C	0.692452	0.704835	-0.692855
C77	C	0.735527	0.630918	-0.625715
C78	C	0.778596	0.556991	-0.618929
C79	C	0.778595	0.556988	-0.679282
C80	C	0.807682	0.574286	-0.501779
C81	C	0.807685	0.574291	-0.441429
C82	C	0.735529	0.630923	-0.439566
C83	C	0.663370	0.687562	-0.498067
C84	C	0.663369	0.687560	-0.558419
C85	C	0.735533	0.630912	-0.560268
C86	C	0.692451	0.704850	-0.380915
C87	C	0.692442	0.704852	-0.320560
C88	C	0.778593	0.557005	-0.246635
C89	C	0.778595	0.557006	-0.306990
C90	C	0.735525	0.630931	-0.374128
C91	C	0.735524	0.630916	0.189345
C92	C	0.735526	0.630913	0.253581
C93	C	0.956115	0.441645	0.000086
C94	C	1.030982	0.377405	0.000088
C95	C	0.735518	0.441659	0.189337
C96	C	0.735517	0.377425	0.253570
C97	C	0.956118	0.441637	0.189352
C98	C	1.030987	0.377395	0.253590
C99	C	0.514924	0.820210	-0.189196
C100	C	0.440055	0.884452	-0.253434
C101	C	0.514927	0.820202	0.000071
C102	C	0.440059	0.884441	0.000069
C103	C	0.735524	0.820188	-0.189180
C104	C	0.735524	0.884422	-0.253413
C105	C	1.023064	0.347244	-0.036878
C106	C	1.093403	0.286892	-0.036890
C107	C	1.171660	0.256700	0.000069
C108	C	1.179577	0.286867	0.037036
C109	C	1.109239	0.347222	0.037044
C110	C	0.778594	0.347254	0.320702
C111	C	0.778590	0.286907	0.381061
C112	C	0.735514	0.256728	0.374287
C113	C	0.692432	0.286905	0.307148
C114	C	0.692431	0.347255	0.246790
C115	C	1.109229	0.347223	0.246802
C116	C	1.179583	0.286870	0.307155
C117	C	1.171693	0.256684	0.374295
C118	C	1.093442	0.286862	0.381082
C119	C	1.023090	0.347219	0.320730
C120	C	0.361812	0.914631	-0.246645
C121	C	0.291459	0.975003	-0.306998
C122	C	0.299349	1.005192	-0.374138
C123	C	0.377600	0.975010	-0.380925
C124	C	0.447952	0.914643	-0.320573
C125	C	0.447978	0.914609	0.037029
C126	C	0.377639	0.974977	0.037024
C127	C	0.299382	1.005172	0.000063
C128	C	0.291465	0.975002	-0.036902
C129	C	0.361803	0.914639	-0.036901
C130	C	0.778609	0.914582	-0.246616
C131	C	0.778626	0.974929	-0.306964
C132	C	0.735553	1.005119	-0.374108
C133	C	0.692467	0.974954	-0.380903
C134	C	0.692455	0.914604	-0.320556
H135	H	0.866428	0.124718	0.009658
H136	H	1.228928	0.207555	0.000058
Cl137	Cl	0.210897	1.081082	-0.450003
H138	H	0.357391	0.520866	-0.001683
Cl139	Cl	1.260145	0.180804	0.450160
H140	H	1.115698	0.371771	0.067150
H141	H	0.242114	1.054324	0.000068
H142	H	0.813672	0.371819	0.326231
H143	H	0.384014	0.999598	-0.435598
H144	H	0.813671	-0.000484	-0.066975
Cl145	Cl	0.832767	0.876639	-0.162214
Cl146	Cl	0.832733	0.385193	-0.083361
H147	H	0.735521	0.207588	0.423439
H148	H	0.813666	0.496807	-0.564259
H149	H	0.604598	0.137149	-0.009518
Cl150	Cl	0.735573	1.080992	-0.449966
H151	H	0.511658	0.890072	-0.326109
Cl152	Cl	0.638284	0.248956	0.298644
Cl153	Cl	0.924731	0.385136	0.329276
H154	H	0.657356	0.371813	0.192131
H155	H	0.511693	0.890029	0.067132
H156	H	0.813711	0.999483	-0.301417
H157	H	1.243304	0.262275	0.067127
H158	H	1.086941	0.262337	-0.066993
H159	H	1.243292	0.262305	0.301616
Cl160	Cl	1.083537	0.248905	0.465492
Cl161	Cl	0.638291	-0.123334	0.083505
H162	H	0.657387	0.765026	-0.807870
Cl163	Cl	0.898396	0.503084	-0.367890
H164	H	0.227738	0.999596	-0.066995
H165	H	0.657367	0.890054	-0.326100
H166	H	0.657366	0.371826	0.067130
H167	H	0.657398	0.999544	-0.435579
H168	H	0.355372	0.890055	-0.191982
Cl169	Cl	0.832758	0.248980	0.465455
Cl170	Cl	1.119170	0.385163	0.162404
H171	H	0.227750	0.999567	-0.301458
H172	H	0.813665	0.262329	-0.066981
Cl173	Cl	0.254104	0.483704	0.128497
H174	H	0.355344	0.890078	-0.066996
H175	H	0.384101	0.999532	0.067127
Cl176	Cl	0.638292	0.248966	0.083498
H177	H	0.866434	0.015213	0.009674
H178	H	0.813685	-0.109989	-0.066958
H179	H	0.604590	0.246648	-0.009533
Cl180	Cl	0.638295	0.012888	0.083505
Cl181	Cl	0.832739	0.464080	-0.162235
H182	H	0.221045	0.755280	-0.022932
H183	H	0.105319	0.755302	-0.022628
Cl184	Cl	0.082867	0.774113	-0.131580
H185	H	0.185809	0.618672	-0.089521
Cl186	Cl	0.219580	0.774376	-0.132353
H187	H	0.241698	0.521605	-0.002548
Cl188	Cl	0.924692	0.385191	-0.083350
H189	H	0.302130	0.617385	-0.088653
H190	H	0.187030	0.613889	0.104335
H191	H	0.299886	0.619329	0.101341
H192	H	0.657379	0.765029	-0.698382
Cl193	Cl	0.388958	0.486312	0.132441
H194	H	0.604614	0.733677	-0.496554
Cl195	Cl	0.638305	0.797782	-0.465319
Cl196	Cl	0.638276	0.797786	-0.329097
Cl197	Cl	0.832743	0.464075	-0.298456
Cl198	Cl	0.572658	0.758755	-0.631957
H199	H	0.866443	0.528162	-0.503284
Cl200	Cl	0.832741	0.464055	-0.670746
