data_functionalizedCrystal
_audit_creation_method	'MofGen! by Chris Wilmer'
_symmetry_space_group_name_H-M	'P1'
_symmetry_Int_Tables_number	1
_symmetry_cell_setting	triclinic
loop_
_symmetry_equiv_pos_as_xyz
  x,y,z
_cell_length_a	25.639239
_cell_length_b	16.959455
_cell_length_c	16.959447
_cell_angle_alpha	89.985678
_cell_angle_beta	90.033631
_cell_angle_gamma	89.963769
loop_
_atom_site_label
_atom_site_type_symbol
_atom_site_fract_x
_atom_site_fract_y
_atom_site_fract_z
Zn1	Zn	-0.208183	-1.208278	0.446890
Zn2	Zn	-0.295624	-1.208156	0.314704
Zn3	Zn	-0.208199	-1.076107	0.314728
Zn4	Zn	-0.295585	-1.076027	0.446843
O5	O	-0.251898	-1.142142	0.380791
O6	O	-0.219792	-1.318873	0.429366
O7	O	-0.284050	-1.190622	0.204096
O8	O	-0.135032	-1.093724	0.332289
O9	O	-0.284034	-1.318783	0.332249
O10	O	-0.135020	-1.190830	0.429389
O11	O	-0.219820	-1.093606	0.204114
O12	O	-0.219782	-0.965485	0.332243
O13	O	-0.283967	-1.093588	0.557460
O14	O	-0.283983	-0.965427	0.429308
O15	O	-0.219754	-1.190753	0.557495
O16	O	-0.368784	-1.190545	0.332203
O17	O	-0.368755	-1.093470	0.429285
C18	C	-0.251880	-0.936776	0.380773
C19	C	-0.251886	-0.848919	0.380784
C20	C	-0.387740	-1.142007	0.380753
C21	C	-0.445854	-1.142022	0.380763
C22	C	-0.251854	-1.142175	0.586960
C23	C	-0.251836	-1.142189	0.674816
C24	C	-0.697045	-1.091586	0.431326
C25	C	-0.642441	-1.091556	0.431317
O26	O	-0.614202	-1.048544	0.474280
N27	N	-0.615128	-1.142121	0.380805
C28	C	-0.642423	-1.192724	0.330304
O29	O	-0.614177	-1.235731	0.287340
C30	C	-0.697026	-1.192757	0.330318
C31	C	-0.724336	-1.142183	0.380828
C32	C	-0.724355	-1.041017	0.481832
C33	C	-0.778956	-1.041045	0.481840
C34	C	-0.806246	-1.091643	0.431342
C35	C	-0.778936	-1.142211	0.380836
C36	C	-0.724319	-1.243363	0.279822
C37	C	-0.778926	-1.243392	0.279841
C38	C	-0.806236	-1.192818	0.330350
C39	C	-0.860827	-1.192837	0.330345
N40	N	-0.888140	-1.142272	0.380857
C41	C	-0.860850	-1.091675	0.431355
C42	C	-0.527752	-1.192652	0.330280
C43	C	-0.473150	-1.192616	0.330262
C44	C	-0.473172	-1.091450	0.431275
C45	C	-0.527775	-1.091482	0.431289
C46	C	-0.555065	-1.142088	0.380792
C47	C	-0.975515	-1.091738	0.431368
C48	C	-1.030120	-1.091769	0.431369
C49	C	-1.030093	-1.192938	0.330359
C50	C	-0.975493	-1.192905	0.330354
C51	C	-0.948205	-1.142302	0.380865
O52	O	-0.889101	-1.235830	0.287406
O53	O	-0.889102	-1.048683	0.474320
C54	C	-0.115525	-1.142299	0.380847
C55	C	-0.057411	-1.142366	0.380871
C56	C	-0.251915	-1.348310	0.380810
C57	C	-0.251923	-1.436167	0.380818
C58	C	-0.218441	-0.477450	0.330356
C59	C	-0.285398	-0.477438	0.431272
C60	C	-0.285390	-0.559983	0.431268
C61	C	-0.251908	-0.601266	0.380805
C62	C	-0.218433	-0.560003	0.330348
C63	C	-0.318868	-0.601253	0.481719
C64	C	-0.318863	-0.683804	0.481715
C65	C	-0.285377	-0.725088	0.431256
C66	C	-0.251901	-0.683820	0.380797
C67	C	-0.218418	-0.725103	0.330335
C68	C	-0.184939	-0.683836	0.279879
C69	C	-0.184948	-0.601288	0.279888
C70	C	-0.285368	-0.807636	0.431247
C71	C	-0.218411	-0.807656	0.330327
C72	C	-0.251903	-1.142155	0.175425
C73	C	-0.251774	-1.142294	0.087569
C74	C	-0.285214	-1.091694	1.046276
C75	C	-0.218348	-1.192873	1.046308
C76	C	-0.218359	-1.192852	0.963762
C77	C	-0.251799	-1.142252	0.922469
C78	C	-0.285227	-1.091673	0.963723
C79	C	-0.184935	-1.243435	0.922502
C80	C	-0.184945	-1.243416	0.839951
C81	C	-0.218382	-1.192812	0.798657
C82	C	-0.251812	-1.142231	0.839916
C83	C	-0.285251	-1.091631	0.798623
C84	C	-0.318679	-1.041046	0.839880
C85	C	-0.318665	-1.041069	0.922429
C86	C	-0.218396	-1.192789	0.716109
C87	C	-0.285265	-1.091611	0.716070
H88	H	-1.052353	-1.050584	0.472502
H89	H	-0.346132	-0.567634	0.522797
C90	C	-0.322193	-0.853026	0.486744
N91	N	-0.349931	-0.887212	0.528550
C92	C	-0.321978	-1.036047	1.091659
N93	N	-0.349669	-0.994132	1.125842
H94	H	-0.191182	-1.233977	0.682521
H95	H	-0.157680	-0.717459	0.238789
H96	H	-0.953303	-1.050534	0.472499
C97	C	-0.322228	-0.432024	0.486776
N98	N	-0.349968	-0.397815	0.528585
H99	H	-0.801187	-0.999862	0.522969
H100	H	-0.191126	-1.234073	1.079933
H101	H	-0.157691	-0.567681	0.238809
H102	H	-0.702091	-1.284545	0.238693
C103	C	-0.557766	-1.248316	0.274715
N104	N	-0.580369	-1.290240	0.232863
C105	C	-0.322051	-1.035944	0.670655
N106	N	-0.349758	-0.994016	0.636448
H107	H	-0.191181	-0.443847	0.289278
C108	C	-0.355689	-0.729189	0.537220
N109	N	-0.383425	-0.763375	0.579028
C110	C	-0.355461	-0.985388	0.794448
N111	N	-0.383164	-0.943467	0.760225
H112	H	-0.157713	-1.284635	0.956129
C113	C	-0.557811	-1.035853	0.486858
N114	N	-0.580431	-0.993952	0.528717
C115	C	-0.694344	-0.985366	0.537404
N116	N	-0.671744	-0.943448	0.579267
H117	H	-0.450942	-1.050252	0.472395
C118	C	-0.355428	-0.985426	0.967817
N119	N	-0.383118	-0.943515	1.002008
H120	H	-0.157726	-1.284606	0.806367
H121	H	-1.052323	-1.234130	0.289242
C122	C	-0.443115	-1.248238	0.274684
N123	N	-0.420495	-1.290136	0.232822
H124	H	-0.801143	-1.284604	0.238722
H125	H	-0.191142	-0.841263	0.289238
C126	C	-0.945451	-1.248541	0.274795
N127	N	-0.922827	-1.290456	0.232955
