data_functionalizedCrystal
_audit_creation_method	'MofGen! by Chris Wilmer'
_symmetry_space_group_name_H-M	'P1'
_symmetry_Int_Tables_number	1
_symmetry_cell_setting	triclinic
loop_
_symmetry_equiv_pos_as_xyz
  x,y,z
_cell_length_a	27.732048
_cell_length_b	11.792241
_cell_length_c	10.268362
_cell_angle_alpha	90.000374
_cell_angle_beta	89.989776
_cell_angle_gamma	96.581964
loop_
_atom_site_label
_atom_site_type_symbol
_atom_site_fract_x
_atom_site_fract_y
_atom_site_fract_z
O1	O	0.066248	-1.504790	-0.108189
O2	O	0.073076	-1.174230	-0.108221
O3	O	-0.000675	-1.349776	-0.108179
O4	O	0.139999	-1.329243	-0.108231
O5	O	-0.000678	-1.349761	0.108421
O6	O	0.073073	-1.174215	0.108379
O7	O	0.066245	-1.504775	0.108411
Cu8	Cu	0.069659	-1.339493	0.128173
Cu9	Cu	0.069662	-1.339511	-0.127983
O10	O	0.139996	-1.329228	0.108370
C11	C	0.072645	-1.131945	0.000075
C12	C	0.071362	-1.005973	0.000064
C13	C	-0.018686	-1.349338	0.000124
C14	C	-0.072348	-1.348040	0.000135
N15	N	0.069656	-1.339489	0.308339
C16	C	-0.410609	-1.443606	0.000077
C17	C	-0.612297	-1.438790	0.000059
O18	O	-0.643045	-1.526178	0.000010
N19	N	-0.632024	-1.334698	0.000050
C20	C	-0.601327	-1.231803	0.000037
O21	O	-0.622734	-1.143157	0.000016
C22	C	-0.399640	-1.236620	0.000046
C23	C	-0.379915	-1.340718	0.000069
C24	C	-0.390884	-1.547695	0.000098
C25	C	-0.340465	-1.548898	0.000110
C26	C	-0.309771	-1.446011	0.000101
C27	C	-0.329496	-1.341921	0.000080
C28	C	-0.368943	-1.133726	0.000024
C29	C	-0.318519	-1.134940	0.000023
C30	C	-0.298794	-1.239038	0.000045
C31	C	-0.248384	-1.240237	0.000083
N32	N	-0.228656	-1.344328	0.000092
C33	C	-0.259350	-1.447215	0.000101
C34	C	-0.707215	-1.229282	0.000035
C35	C	-0.757637	-1.228077	0.000035
C36	C	-0.768603	-1.435065	0.000054
C37	C	-0.718181	-1.436268	0.000063
C38	C	-0.687488	-1.333374	0.000044
C39	C	-0.153466	-1.449733	0.000127
C40	C	-0.103042	-1.450927	0.000144
C41	C	-0.092080	-1.243941	0.000118
C42	C	-0.142500	-1.242746	0.000108
C43	C	-0.173192	-1.345652	0.000108
O44	O	-0.217607	-1.152896	0.000117
O45	O	-0.237933	-1.535849	0.000093
C46	C	-0.461028	-1.442403	0.000066
C47	C	-0.480753	-1.338313	0.000045
C48	C	-0.450060	-1.235426	0.000036
C49	C	-0.531175	-1.337108	0.000045
C50	C	-0.561868	-1.439996	0.000054
C51	C	-0.542141	-1.544087	0.000063
C52	C	-0.491722	-1.545290	0.000074
C53	C	-0.469787	-1.131334	0.000027
C54	C	-0.520207	-1.130140	0.000017
C55	C	-0.550900	-1.233027	0.000026
C56	C	0.158007	-1.329667	0.000063
C57	C	0.211669	-1.330965	0.000044
C58	C	0.066676	-1.547059	0.000112
C59	C	0.067959	-1.673032	0.000114
C60	C	0.069001	-0.775336	0.000103
C61	C	0.070313	-0.903679	0.000082
N62	N	0.069661	-1.339525	-0.308148
C63	C	0.069661	-1.339506	0.574009
C64	C	0.069660	-1.339493	0.426171
H65	H	-0.086985	-1.535700	0.000165
N66	N	-0.573499	-1.649185	0.000043
N67	N	-0.571537	-1.718615	-0.091259
H68	H	-0.593686	-1.792836	-0.091281
H69	H	-0.158560	-1.157981	0.000126
H70	H	-0.415870	-1.631483	0.000100
N71	N	-0.060715	-1.138859	0.000120
N72	N	-0.015698	-1.139961	0.000126
H73	H	0.006455	-1.065747	0.000121
N74	N	-0.698043	-1.542611	0.000092
N75	N	-0.725459	-1.634461	0.000110
H76	H	-0.711240	-1.709572	0.000130
N77	N	-0.184820	-1.554837	0.000124
N78	N	-0.214172	-1.577280	-0.091177
H79	H	-0.236316	-1.651508	-0.091172
H80	H	-0.324410	-1.633666	0.000122
N81	N	-0.799953	-1.540175	0.000068
N82	N	-0.798005	-1.609611	0.091368
H83	H	-0.820147	-1.683842	0.091371
N84	N	-0.777774	-1.121733	0.000043
N85	N	-0.750357	-1.029883	0.000036
H86	H	-0.764577	-0.954773	0.000037
H87	H	-0.384994	-1.048958	-0.000001
H88	H	-0.444801	-1.047549	0.000017
N89	N	-0.287174	-1.029821	-0.000012
N90	N	-0.304797	-0.936893	-0.000039
H91	H	-0.282661	-0.862653	-0.000065
N92	N	-0.675873	-1.124160	0.000015
N93	N	-0.693500	-1.031237	0.000010
H94	H	-0.671367	-0.956992	0.000001
N95	N	-0.471585	-1.651635	0.000102
N96	N	-0.499004	-1.743482	0.000111
H97	H	-0.484786	-1.818595	0.000130
H98	H	-0.536261	-1.045364	0.000010
