data_functionalizedCrystal
_audit_creation_method	'MofGen! by Chris Wilmer'
_symmetry_space_group_name_H-M	'P1'
_symmetry_Int_Tables_number	1
_symmetry_cell_setting	triclinic
loop_
_symmetry_equiv_pos_as_xyz
  x,y,z
_cell_length_a	10.654545
_cell_length_b	17.699092
_cell_length_c	9.130313
_cell_angle_alpha	89.997169
_cell_angle_beta	89.996934
_cell_angle_gamma	83.884723
loop_
_atom_site_label
_atom_site_type_symbol
_atom_site_fract_x
_atom_site_fract_y
_atom_site_fract_z
O1	O	1.665987	0.106286	-0.121779
O2	O	1.300331	0.116417	-0.121784
O3	O	1.493485	0.001228	-0.121778
O4	O	1.472834	0.221475	-0.121785
O5	O	1.493472	0.001225	0.121821
O6	O	1.300318	0.116414	0.121815
O7	O	1.665974	0.106283	0.121820
Cu8	Cu	1.483145	0.111348	0.144060
Cu9	Cu	1.483161	0.111352	-0.144024
O10	O	1.472821	0.221471	0.121814
C11	C	1.253540	0.115672	0.000014
C12	C	1.114135	0.113449	0.000012
C13	C	1.048642	0.112400	0.132799
C14	C	0.917659	0.110299	0.132799
C15	C	0.917674	0.110297	-0.132786
C16	C	1.048655	0.112394	-0.132785
C17	C	1.492736	-0.026975	0.000019
C18	C	1.490511	-0.111007	0.000012
C19	C	1.489476	-0.150479	-0.132775
C20	C	1.487377	-0.229435	-0.132777
C21	C	1.486323	-0.268919	0.000010
C22	C	1.487354	-0.229441	0.132808
C23	C	1.489444	-0.150485	0.132808
C24	C	1.478925	-0.547859	0.132810
C25	C	1.476839	-0.626820	0.132800
C26	C	1.476858	-0.626809	-0.132775
C27	C	1.478948	-0.547854	-0.132775
C28	C	1.479973	-0.508382	0.000022
C29	C	1.482246	-0.422769	0.000022
C30	C	1.484058	-0.354531	0.000012
C31	C	1.712766	0.107027	0.000018
C32	C	1.852171	0.109251	0.000011
C33	C	1.473569	0.249675	0.000013
C34	C	1.475794	0.333707	0.000011
N35	N	1.483143	0.111345	0.346682
N36	N	1.483172	0.111349	-0.346647
C37	C	1.568700	0.060361	0.423337
C38	C	1.568712	0.060361	0.576674
C39	C	1.397606	0.162336	0.576688
C40	C	1.397589	0.162331	0.423354
H41	H	0.864340	0.109445	0.240927
O42	O	1.651876	0.010940	0.651297
C43	C	1.729247	0.051910	0.739944
H44	H	1.679047	0.110854	0.762917
H45	H	1.749223	0.020431	0.847768
H46	H	1.822031	0.057575	0.680831
H47	H	1.101982	0.113245	-0.240922
O48	O	1.486501	-0.267720	0.261894
C49	C	1.595740	-0.256441	0.342661
H50	H	1.633502	-0.201780	0.304900
H51	H	1.571354	-0.251941	0.464140
H52	H	1.670697	-0.306479	0.324257
O53	O	0.854175	0.109386	-0.261869
C54	C	0.871736	0.175342	-0.342633
H55	H	0.962030	0.198673	-0.304877
H56	H	0.879462	0.160702	-0.464114
H57	H	0.787919	0.219982	-0.324219
O58	O	1.314461	0.211761	0.651335
C59	C	1.237110	0.170795	0.740032
H60	H	1.287311	0.111851	0.763002
H61	H	1.217162	0.202277	0.847856
H62	H	1.144309	0.165132	0.680965
H63	H	1.101951	0.113260	0.240930
H64	H	1.327913	0.203849	0.360938
H65	H	1.486539	-0.261570	-0.240906
H66	H	1.490341	-0.118338	-0.240906
H67	H	1.479812	-0.515711	-0.240904
H68	H	1.476017	-0.658956	-0.240905
H69	H	1.475977	-0.658965	0.240937
H70	H	1.479785	-0.515733	0.240941
H71	H	1.490270	-0.118347	0.240937
O72	O	1.651843	0.010757	0.349084
C73	C	1.727379	-0.034230	0.449630
H74	H	1.675907	-0.035369	0.558943
H75	H	1.746718	-0.094568	0.405339
H76	H	1.820589	-0.009133	0.465913
