data_functionalizedCrystal
_audit_creation_method	'MofGen! by Chris Wilmer'
_symmetry_space_group_name_H-M	'P1'
_symmetry_Int_Tables_number	1
_symmetry_cell_setting	triclinic
loop_
_symmetry_equiv_pos_as_xyz
  x,y,z
_cell_length_a	17.077404
_cell_length_b	25.639239
_cell_length_c	17.077396
_cell_angle_alpha	89.968926
_cell_angle_beta	89.980499
_cell_angle_gamma	90.038911
loop_
_atom_site_label
_atom_site_type_symbol
_atom_site_fract_x
_atom_site_fract_y
_atom_site_fract_z
Zn1	Zn	1.199968	-0.208148	-0.443829
Zn2	Zn	1.199839	-0.295585	-0.312557
Zn3	Zn	1.068700	-0.208166	-0.312576
Zn4	Zn	1.068632	-0.295554	-0.443780
O5	O	1.134285	-0.251863	-0.378185
O6	O	1.309798	-0.219752	-0.426427
O7	O	1.182418	-0.284010	-0.202712
O8	O	1.086196	-0.134998	-0.330016
O9	O	1.309703	-0.283992	-0.329982
O10	O	1.182638	-0.134985	-0.426446
O11	O	1.086071	-0.219783	-0.202727
O12	O	0.958844	-0.219753	-0.329969
O13	O	1.086080	-0.283939	-0.553634
O14	O	0.958794	-0.283957	-0.426364
O15	O	1.182572	-0.219722	-0.553669
O16	O	1.182352	-0.368746	-0.329935
O17	O	1.085954	-0.368724	-0.426345
C18	C	0.930337	-0.251854	-0.378164
C19	C	0.843087	-0.251862	-0.378173
C20	C	0.802092	-0.285344	-0.428285
C21	C	0.720111	-0.285345	-0.428298
C22	C	0.679128	-0.251867	-0.378194
C23	C	0.720129	-0.218382	-0.328079
C24	C	0.802108	-0.218378	-0.328071
C25	C	0.549259	-0.218392	-0.328098
C26	C	0.467275	-0.218396	-0.328105
C27	C	0.467262	-0.285358	-0.428325
C28	C	0.549241	-0.285355	-0.428317
C29	C	0.590237	-0.251871	-0.378201
C30	C	1.134153	-0.387706	-0.378150
C31	C	1.134168	-0.445820	-0.378160
C32	C	1.184610	-0.806182	-0.328071
C33	C	1.184641	-0.860787	-0.328081
O34	O	1.227391	-0.889023	-0.285454
N35	N	1.134423	-0.888102	-0.378237
C36	C	1.084177	-0.860811	-0.428392
O37	O	1.041467	-0.889059	-0.471056
C38	C	1.084151	-0.806208	-0.428385
C39	C	1.134367	-0.778895	-0.378220
C40	C	1.234822	-0.778869	-0.277910
C41	C	1.234790	-0.724269	-0.277899
C42	C	1.184547	-0.696981	-0.328048
C43	C	1.134335	-0.724294	-0.378209
C44	C	1.033910	-0.778917	-0.478543
C45	C	1.033889	-0.724310	-0.478532
C46	C	1.084104	-0.696997	-0.428367
C47	C	1.084060	-0.642406	-0.428346
N48	N	1.134278	-0.615090	-0.378190
C49	C	1.184521	-0.642378	-0.328041
C50	C	1.084236	-0.975482	-0.428404
C51	C	1.084258	-1.030084	-0.428408
C52	C	1.184722	-1.030056	-0.328098
C53	C	1.184696	-0.975452	-0.328091
C54	C	1.134454	-0.948166	-0.378248
C55	C	1.184450	-0.527713	-0.328020
C56	C	1.184412	-0.473107	-0.328011
C57	C	1.083951	-0.473140	-0.428324
C58	C	1.083986	-0.527741	-0.428331
C59	C	1.134242	-0.555026	-0.378176
O60	O	1.041334	-0.614135	-0.470954
O61	O	1.227232	-0.614123	-0.285392
C62	C	1.339029	-0.251873	-0.378208
C63	C	1.426279	-0.251877	-0.378217
C64	C	1.134333	-0.251825	-0.582930
C65	C	1.134353	-0.251808	-0.670180
C66	C	1.134439	-0.115490	-0.378239
C67	C	1.134505	-0.057376	-0.378261
C68	C	1.184598	-0.218368	-0.711190
C69	C	1.184608	-0.218350	-0.793170
C70	C	1.134375	-0.251777	-0.834139
C71	C	1.084124	-0.285219	-0.793123
C72	C	1.084111	-0.285233	-0.711144
C73	C	1.084156	-0.285187	-0.963994
C74	C	1.084169	-0.285174	-1.045978
C75	C	1.184652	-0.218304	-1.046019
C76	C	1.184639	-0.218319	-0.964040
C77	C	1.134389	-0.251762	-0.923030
C78	C	1.134283	-0.251864	-0.174238
C79	C	1.134415	-0.251733	-0.086988
H80	H	1.225303	-0.450871	-0.287158
H81	H	0.993016	-0.801146	-0.519390
H82	H	1.225524	-0.191121	-0.826557
N83	N	1.029917	-0.321305	-0.666918
H84	H	1.061781	-0.345543	-0.632898
H85	H	0.993567	-0.300024	-0.632954
H86	H	0.992977	-0.702096	-0.519379
H87	H	1.225375	-0.549922	-0.287182
N88	N	0.423049	-0.321475	-0.482378
H89	H	0.437275	-0.358819	-0.470072
H90	H	0.364912	-0.316351	-0.474756
H91	H	0.582636	-0.191121	-0.287296
H92	H	1.043099	-0.549980	-0.469182
N93	N	1.029936	-0.321260	-0.837320
H94	H	1.061808	-0.345486	-0.871333
H95	H	0.998104	-0.342412	-0.798857
N96	N	0.846288	-0.321457	-0.482324
H97	H	0.832054	-0.313385	-0.538434
H98	H	0.904428	-0.316361	-0.474648
N99	N	0.675893	-0.321464	-0.482336
H100	H	0.714296	-0.342677	-0.514068
H101	H	0.641848	-0.345630	-0.450307
H102	H	0.835486	-0.191112	-0.287269
N103	N	1.029957	-0.321203	-1.090167
H104	H	1.037586	-0.316114	-1.148322
H105	H	1.042095	-0.358555	-1.075840
N106	N	1.029965	-0.321259	-0.919756
H107	H	0.993606	-0.300017	-0.885744
H108	H	0.998198	-0.342428	-0.958194
N109	N	1.030030	-0.946051	-0.482490
H110	H	1.061890	-0.923358	-0.518900
H111	H	0.998233	-0.971676	-0.514208
H112	H	1.225566	-0.191073	-1.079414
N113	N	0.423068	-0.182289	-0.274066
H114	H	0.461477	-0.161073	-0.242321
H115	H	0.389089	-0.158125	-0.306093
H116	H	1.043040	-0.450914	-0.469153
N117	N	1.238783	-0.182318	-0.667004
H118	H	1.270614	-0.161131	-0.705427
H119	H	1.206854	-0.158126	-0.632994
N120	N	0.675925	-0.182283	-0.274026
H121	H	0.641937	-0.158082	-0.305984
H122	H	0.641931	-0.203551	-0.237612
H123	H	1.275682	-0.702034	-0.237052
H124	H	0.582607	-0.312619	-0.469112
H125	H	1.225547	-0.191103	-0.930685
H126	H	1.275740	-0.801081	-0.237072
H127	H	1.225586	-0.953217	-0.287242
N128	N	1.238915	-1.059492	-0.274006
H129	H	1.231310	-1.098227	-0.281628
H130	H	1.294966	-1.049907	-0.286274
H131	H	1.043360	-1.052318	-0.469250
