data_functionalizedCrystal
_audit_creation_method	'MofGen! by Chris Wilmer'
_symmetry_space_group_name_H-M	'P1'
_symmetry_Int_Tables_number	1
_symmetry_cell_setting	triclinic
loop_
_symmetry_equiv_pos_as_xyz
  x,y,z
_cell_length_a	17.052862
_cell_length_b	14.560438
_cell_length_c	14.560438
_cell_angle_alpha	60.000905
_cell_angle_beta	90.000708
_cell_angle_gamma	50.259047
loop_
_atom_site_label
_atom_site_type_symbol
_atom_site_fract_x
_atom_site_fract_y
_atom_site_fract_z
Zr1	Zr	0.914394	0.682251	0.040999
O2	O	0.762831	0.927397	-0.132416
O3	O	0.960856	0.474237	0.094158
O4	O	0.960851	0.665842	-0.097444
O5	O	0.762840	0.735787	0.210327
O6	O	1.117053	0.610661	-0.069854
O7	O	0.762836	0.735791	0.059186
O8	O	1.117061	0.267914	0.272886
O9	O	0.762831	1.078535	-0.132413
O10	O	1.097243	0.504863	0.137422
O11	O	0.980675	0.546041	0.229627
O12	O	0.980669	0.771632	0.004041
O13	O	0.864100	0.812810	0.096247
Zr14	Zr	1.163524	0.594238	0.326054
Zr15	Zr	1.163518	0.594244	0.085001
Zr16	Zr	0.914400	0.682245	0.282052
Zr17	Zr	0.914394	0.923299	0.041004
Zr18	Zr	1.163524	0.353190	0.326050
O19	O	1.117063	0.802253	0.272896
O20	O	1.117054	0.802262	-0.069851
O21	O	0.762840	0.927388	0.210331
O22	O	1.315087	0.349093	0.499470
O23	O	1.315078	0.349101	0.156723
O24	O	0.960865	0.474228	0.436904
O25	O	1.315079	0.540702	0.156727
O26	O	1.117067	0.610647	0.464498
O27	O	0.960865	0.665828	0.436908
O28	O	1.315083	0.540698	0.307868
O29	O	0.960852	1.008581	-0.097437
O30	O	1.117066	0.267909	0.464491
O31	O	1.315087	0.197955	0.499467
O32	O	1.315082	0.197960	0.307861
O33	O	0.762837	1.078530	0.059192
O34	O	0.960857	1.008576	0.094168
O35	O	1.097249	0.504857	0.363012
O36	O	1.213818	0.463679	0.270807
O37	O	1.097244	0.730448	0.137426
O38	O	0.980675	0.771626	0.229632
C39	C	1.038959	0.336731	0.183521
C40	C	1.038958	0.234400	0.183519
C41	C	1.099804	0.164830	0.135388
C42	C	1.099808	0.068669	0.135400
C43	C	0.978113	0.111664	0.231672
C44	C	0.978116	0.207814	0.231668
C45	C	0.727343	0.748328	0.128487
C46	C	0.621583	0.785690	0.109807
C47	C	0.566872	0.333990	0.335646
C48	C	0.666241	0.298882	0.353192
C49	C	0.655082	0.420580	0.292348
C50	C	0.544543	0.577394	0.213953
C51	C	0.445165	0.612505	0.196398
C52	C	0.533375	0.699096	0.153100
C53	C	0.422836	0.855909	0.074706
C54	C	0.323469	0.891014	0.057154
C55	C	0.334628	0.769315	0.117999
C56	C	0.632753	0.663984	0.170656
C57	C	0.511046	0.942500	0.031408
C58	C	0.411677	0.977608	0.013861
C59	C	1.350575	0.528161	0.238567
C60	C	1.456335	0.490800	0.257247
C61	C	1.038951	0.638253	-0.117994
C62	C	1.038949	0.638255	-0.220327
C63	C	1.038960	0.939758	0.183533
C64	C	1.038960	1.042089	0.183535
C65	C	0.978099	0.777503	-0.338027
C66	C	0.978113	0.777492	-0.434173
C67	C	1.099827	0.498974	-0.294907
C68	C	1.099819	0.498985	-0.198762
C69	C	1.038967	0.638237	0.485048
C70	C	1.038970	0.638234	0.587381
C71	C	1.350575	0.226647	0.238561
C72	C	1.456334	0.086955	0.257239
C73	C	1.038967	0.336723	0.485042
C74	C	1.038969	0.234390	0.587373
C75	C	1.350583	0.226639	0.540082
C76	C	1.456345	0.086944	0.661093
C77	C	0.727336	1.049850	-0.173028
C78	C	0.621573	1.189545	-0.294039
C79	C	0.727344	1.049842	0.128493
C80	C	0.621584	1.189534	0.109815
C81	C	1.038952	0.939766	-0.117988
C82	C	1.038949	1.042100	-0.220320
C83	C	1.445149	0.042851	0.196375
C84	C	1.544512	-0.088388	0.213900
C85	C	1.655059	-0.175528	0.292297
C86	C	1.666241	-0.131414	0.353163
C87	C	1.566880	-0.000170	0.335630
C88	C	1.566870	-0.000156	0.669793
C89	C	1.666254	-0.131404	0.783489
C90	C	1.655111	-0.175556	0.888483
C91	C	1.544574	-0.088442	0.879779
C92	C	1.445192	0.042810	0.766085
C93	C	0.511048	1.276657	-0.302739
C94	C	0.411664	1.407935	-0.416435
C95	C	0.422807	1.452092	-0.521429
C96	C	0.533344	1.364972	-0.512725
C97	C	0.632726	1.233703	-0.399031
C98	C	0.632769	1.233648	0.170669
C99	C	0.533406	1.364914	0.153117
C100	C	0.422860	1.452057	0.074716
C101	C	0.411677	1.407939	0.013855
C102	C	0.511039	1.276682	0.031401
C103	C	1.099820	0.164814	0.705074
C104	C	1.099809	0.068674	0.801219
C105	C	0.978095	0.111691	0.661949
C106	C	0.978100	0.207838	0.565805
H107	H	0.722747	0.536305	0.234494
H108	H	0.928565	0.890881	-0.530006
Br109	Br	0.495838	1.216827	-0.051192
Br110	Br	0.288022	1.630190	0.050917
Br111	Br	1.789897	-0.353642	0.316079
H112	H	0.542404	1.400942	-0.598225
Br113	Br	1.182427	0.200847	0.734347
H114	H	1.355146	0.113799	0.132523
Br115	Br	1.182389	-0.025738	0.960956
H116	H	0.321670	1.478850	-0.423499
Br117	Br	0.199768	0.816956	0.094204
H118	H	1.149384	0.385586	-0.277363
H119	H	1.149347	0.186471	0.096184
Br120	Br	0.789942	0.372932	0.316162
Br121	Br	0.782784	1.115411	0.277073
H122	H	0.928542	0.264495	0.469960
H123	H	1.149356	0.012024	0.096209
H124	H	1.355201	0.113715	0.759017
Br125	Br	0.495893	1.216759	-0.160265
Br126	Br	0.895492	0.075648	0.632688
H127	H	0.928576	0.090006	0.270872
Br128	Br	1.529471	-0.148383	1.022284
Br129	Br	0.895547	0.302220	0.297009
H130	H	0.756236	0.171204	0.417008
H131	H	0.575943	0.234919	0.385172
H132	H	1.535384	-0.124285	0.164333
Br133	Br	0.173453	1.103832	-0.049251
Br134	Br	0.548610	1.424755	0.235727
H135	H	1.149376	0.385584	-0.102918
Br136	Br	1.816253	-0.249608	0.795272
H137	H	0.321665	1.105286	-0.049969
Br138	Br	0.287919	1.630250	-0.675721
Br139	Br	0.495890	1.107672	-0.051190
H140	H	0.321657	1.478911	-0.049979
Br141	Br	0.895498	0.966509	-0.367295
Br142	Br	1.816279	-0.249697	0.459559
H143	H	1.576003	0.035720	0.385202
H144	H	1.736044	-0.282434	0.981052
Br145	Br	1.582026	0.059739	0.527318
H146	H	0.722718	1.162776	-0.391961
