data_functionalizedCrystal
_audit_creation_method	'MofGen! by Chris Wilmer'
_symmetry_space_group_name_H-M	'P1'
_symmetry_Int_Tables_number	1
_symmetry_cell_setting	triclinic
loop_
_symmetry_equiv_pos_as_xyz
  x,y,z
_cell_length_a	21.395362
_cell_length_b	21.295417
_cell_length_c	21.295412
_cell_angle_alpha	89.969860
_cell_angle_beta	89.964183
_cell_angle_gamma	90.045579
loop_
_atom_site_label
_atom_site_type_symbol
_atom_site_fract_x
_atom_site_fract_y
_atom_site_fract_z
Zn1	Zn	0.957814	-0.250355	-0.356241
Zn2	Zn	1.207814	-0.000355	-0.106241
Zn3	Zn	1.457814	0.249645	0.143759
Zn4	Zn	1.707814	0.499645	0.393759
Zn5	Zn	0.957733	-0.355624	-0.250969
Zn6	Zn	1.207733	-0.105624	-0.000969
Zn7	Zn	1.457733	0.144376	0.249031
Zn8	Zn	1.707733	0.394376	0.499031
Zn9	Zn	0.853043	-0.250402	-0.250951
Zn10	Zn	1.103043	-0.000402	-0.000951
Zn11	Zn	1.353043	0.249598	0.249049
Zn12	Zn	1.603043	0.499598	0.499049
Zn13	Zn	0.853000	-0.355619	-0.356165
Zn14	Zn	1.103000	-0.105619	-0.106165
Zn15	Zn	1.353000	0.144381	0.143835
Zn16	Zn	1.603000	0.394381	0.393835
O17	O	0.905397	-0.303000	-0.303582
O18	O	1.155397	-0.053000	-0.053582
O19	O	1.405397	0.197000	0.196418
O20	O	1.655397	0.447000	0.446418
O21	O	1.045481	-0.264301	-0.342316
O22	O	1.295481	-0.014301	-0.092316
O23	O	1.545481	0.235699	0.157684
O24	O	1.795481	0.485699	0.407684
O25	O	0.943830	-0.341688	-0.162877
O26	O	1.193830	-0.091688	0.087123
O27	O	1.443830	0.158312	0.337123
O28	O	1.693830	0.408312	0.587123
O29	O	0.866994	-0.162306	-0.264943
O30	O	1.116994	0.087694	-0.014943
O31	O	1.366994	0.337694	0.235057
O32	O	1.616994	0.587694	0.485057
O33	O	1.045421	-0.341642	-0.264973
O34	O	1.295421	-0.091642	-0.014973
O35	O	1.545421	0.158358	0.235027
O36	O	1.795421	0.408358	0.485027
O37	O	0.943968	-0.162272	-0.342299
O38	O	1.193968	0.087728	-0.092299
O39	O	1.443968	0.337728	0.157701
O40	O	1.693968	0.587728	0.407701
O41	O	0.866915	-0.264382	-0.162864
O42	O	1.116915	-0.014382	0.087136
O43	O	1.366915	0.235618	0.337136
O44	O	1.616915	0.485618	0.587136
O45	O	0.765360	-0.264377	-0.264868
O46	O	1.015360	-0.014377	-0.014868
O47	O	1.265360	0.235623	0.235132
O48	O	1.515360	0.485623	0.485132
O49	O	0.866919	-0.341634	-0.444264
O50	O	1.116919	-0.091634	-0.194264
O51	O	1.366919	0.158366	0.055736
O52	O	1.616919	0.408366	0.305736
O53	O	0.765328	-0.341680	-0.342169
O54	O	1.015328	-0.091680	-0.092169
O55	O	1.265328	0.158320	0.157831
O56	O	1.515328	0.408320	0.407831
O57	O	0.943925	-0.264297	-0.444321
O58	O	1.193925	-0.014297	-0.194321
O59	O	1.443925	0.235703	0.055679
O60	O	1.693925	0.485703	0.305679
O61	O	0.943788	-0.443713	-0.264899
O62	O	1.193788	-0.193713	-0.014899
O63	O	1.443788	0.056287	0.235101
O64	O	1.693788	0.306287	0.485101
O65	O	0.866841	-0.443709	-0.342186
O66	O	1.116841	-0.193709	-0.092186
O67	O	1.366841	0.056291	0.157814
O68	O	1.616841	0.306291	0.407814
C69	C	0.742610	-0.303033	-0.303508
C70	C	0.992610	-0.053033	-0.053508
C71	C	1.242610	0.196967	0.196492
C72	C	1.492610	0.446967	0.446492
C73	C	0.672968	-0.303063	-0.303492
C74	C	0.922968	-0.053063	-0.053492
C75	C	1.172968	0.196937	0.196508
C76	C	1.422968	0.446937	0.446508
C77	C	0.640255	-0.343368	-0.343682
C78	C	0.890255	-0.093368	-0.093682
C79	C	1.140255	0.156632	0.156318
C80	C	1.390255	0.406632	0.406318
C81	C	0.574820	-0.343352	-0.343710
C82	C	0.824820	-0.093352	-0.093710
C83	C	1.074820	0.156648	0.156290
C84	C	1.324820	0.406648	0.406290
C85	C	0.542100	-0.303039	-0.303537
C86	C	0.792100	-0.053039	-0.053537
C87	C	1.042100	0.196961	0.196463
C88	C	1.292100	0.446961	0.446463
C89	C	0.574822	-0.262726	-0.263344
C90	C	0.824822	-0.012726	-0.013344
C91	C	1.074822	0.237274	0.236656
C92	C	1.324822	0.487274	0.486656
C93	C	0.640256	-0.262738	-0.263322
C94	C	0.890256	-0.012738	-0.013322
C95	C	1.140256	0.237262	0.236678
C96	C	1.390256	0.487262	0.486678
C97	C	0.438383	-0.297977	-0.246867
C98	C	0.688383	-0.047977	0.003133
C99	C	0.938383	0.202023	0.253133
C100	C	1.188383	0.452023	0.503133
C101	C	0.372950	-0.297969	-0.246889
C102	C	0.622950	-0.047969	0.003111
C103	C	0.872950	0.202031	0.253111
C104	C	1.122950	0.452031	0.503111
C105	C	0.340279	-0.302997	-0.303607
C106	C	0.590279	-0.052997	-0.053607
C107	C	0.840279	0.197003	0.196393
C108	C	1.090279	0.447003	0.446393
C109	C	0.373050	-0.308047	-0.360305
C110	C	0.623050	-0.058047	-0.110305
C111	C	0.873050	0.191953	0.139695
C112	C	1.123050	0.441953	0.389695
C113	C	0.438484	-0.308059	-0.360282
C114	C	0.688484	-0.058059	-0.110282
C115	C	0.938484	0.191941	0.139718
C116	C	1.188484	0.441941	0.389718
C117	C	0.471148	-0.303021	-0.303557
C118	C	0.721148	-0.053021	-0.053557
C119	C	0.971148	0.196979	0.196443
C120	C	1.221148	0.446979	0.446443
C121	C	0.236613	-0.343288	-0.343830
C122	C	0.486613	-0.093288	-0.093830
C123	C	0.736613	0.156712	0.156170
C124	C	0.986613	0.406712	0.406170
C125	C	0.171177	-0.343268	-0.343859
C126	C	0.421177	-0.093268	-0.093859
C127	C	0.671177	0.156732	0.156141
C128	C	0.921177	0.406732	0.406141
C129	C	0.171180	-0.262645	-0.263488
C130	C	0.421180	-0.012645	-0.013488
C131	C	0.671180	0.237355	0.236512
C132	C	0.921180	0.487355	0.486512
C133	C	0.236615	-0.262661	-0.263464
C134	C	0.486615	-0.012661	-0.013464
C135	C	0.736615	0.237339	0.236536
C136	C	0.986615	0.487339	0.486536
C137	C	0.269328	-0.302986	-0.303635
C138	C	0.519328	-0.052986	-0.053635
C139	C	0.769328	0.197014	0.196365
C140	C	1.019328	0.447014	0.446365
C141	C	0.905318	-0.466552	-0.303550
C142	C	1.155318	-0.216552	-0.053550
C143	C	1.405318	0.033448	0.196450
C144	C	1.655318	0.283448	0.446450
C145	C	0.905341	-0.536520	-0.303557
C146	C	1.155341	-0.286520	-0.053557
C147	C	1.405341	-0.036520	0.196443
C148	C	1.655341	0.213480	0.446443
C149	C	0.945398	-0.569311	-0.343865
C150	C	1.195398	-0.319311	-0.093865
C151	C	1.445398	-0.069311	0.156135
C152	C	1.695398	0.180689	0.406135
C153	C	0.945420	-0.635054	-0.343881
C154	C	1.195420	-0.385054	-0.093881
C155	C	1.445420	-0.135054	0.156119
C156	C	1.695420	0.114946	0.406119
C157	C	0.905391	-0.668002	-0.303577
C158	C	1.155391	-0.418002	-0.053577
C159	C	1.405391	-0.168002	0.196423
C160	C	1.655391	0.081998	0.446423
C161	C	0.865326	-0.635203	-0.263266
C162	C	1.115326	-0.385203	-0.013266
C163	C	1.365326	-0.135203	0.236734
C164	C	1.615326	0.114797	0.486734
C165	C	0.865301	-0.569462	-0.263256
C166	C	1.115301	-0.319462	-0.013256
C167	C	1.365301	-0.069462	0.236744
C168	C	1.615301	0.180538	0.486744
N169	N	0.900662	-0.771265	-0.248484
N170	N	1.150662	-0.521265	0.001516
N171	N	1.400662	-0.271265	0.251516
N172	N	1.650662	-0.021265	0.501516
N173	N	0.900690	-0.833717	-0.248495
N174	N	1.150690	-0.583717	0.001505
N175	N	1.400690	-0.333717	0.251505
N176	N	1.650690	-0.083717	0.501505
C177	C	0.905465	-0.866077	-0.303605
C178	C	1.155465	-0.616077	-0.053605
C179	C	1.405465	-0.366077	0.196395
C180	C	1.655465	-0.116077	0.446395
N181	N	0.910223	-0.833627	-0.358705
N182	N	1.160223	-0.583627	-0.108705
N183	N	1.410223	-0.333627	0.141295
N184	N	1.660223	-0.083627	0.391295
N185	N	0.910198	-0.771170	-0.358693
N186	N	1.160198	-0.521170	-0.108693
N187	N	1.410198	-0.271170	0.141307
N188	N	1.660198	-0.021170	0.391307
C189	C	0.905414	-0.739288	-0.303583
C190	C	1.155414	-0.489288	-0.053583
C191	C	1.405414	-0.239288	0.196417
C192	C	1.655414	0.010712	0.446417
C193	C	0.945548	-0.970154	-0.343934
C194	C	1.195548	-0.720154	-0.093934
C195	C	1.445548	-0.470154	0.156066
C196	C	1.695548	-0.220154	0.406066
C197	C	0.945566	-1.035898	-0.343950
C198	C	1.195566	-0.785898	-0.093950
C199	C	1.445566	-0.535898	0.156050
C200	C	1.695566	-0.285898	0.406050
C201	C	0.865475	-1.036046	-0.263330
C202	C	1.115475	-0.786046	-0.013330
C203	C	1.365475	-0.536046	0.236670
C204	C	1.615475	-0.286046	0.486670
C205	C	0.865454	-0.970303	-0.263319
C206	C	1.115454	-0.720303	-0.013319
C207	C	1.365454	-0.470303	0.236681
C208	C	1.615454	-0.220303	0.486681
C209	C	0.905494	-0.937361	-0.303620
C210	C	1.155494	-0.687361	-0.053620
C211	C	1.405494	-0.437361	0.196380
C212	C	1.655494	-0.187361	0.446380
C213	C	1.068821	-0.302967	-0.303655
C214	C	1.318821	-0.052967	-0.053655
C215	C	1.568821	0.197033	0.196345
C216	C	1.818821	0.447033	0.446345
C217	C	1.138462	-0.302953	-0.303687
C218	C	1.388462	-0.052953	-0.053687
C219	C	1.638462	0.197047	0.196313
C220	C	1.888462	0.447047	0.446313
C221	C	0.905426	-0.302959	-0.467772
C222	C	1.155426	-0.052959	-0.217772
C223	C	1.405426	0.197041	0.032228
C224	C	1.655426	0.447041	0.282228
C225	C	0.905439	-0.302942	-0.537740
C226	C	1.155439	-0.052942	-0.287740
C227	C	1.405439	0.197058	-0.037740
C228	C	1.655439	0.447058	0.212260
C229	C	0.905495	-0.138810	-0.303627
C230	C	1.155495	0.111190	-0.053627
C231	C	1.405495	0.361190	0.196373
C232	C	1.655495	0.611190	0.446373
C233	C	0.905536	-0.068842	-0.303647
C234	C	1.155536	0.181158	-0.053647
C235	C	1.405536	0.431158	0.196353
C236	C	1.655536	0.681158	0.446353
C237	C	0.945595	-0.262573	-1.037229
C238	C	1.195595	-0.012573	-0.787229
C239	C	1.445595	0.237427	-0.537229
C240	C	1.695595	0.487427	-0.287229
C241	C	0.945590	-0.262588	-0.971486
C242	C	1.195590	-0.012588	-0.721486
C243	C	1.445590	0.237412	-0.471486
C244	C	1.695590	0.487412	-0.221486
C245	C	0.905493	-0.302859	-0.938580
C246	C	1.155493	-0.052859	-0.688580
C247	C	1.405493	0.197141	-0.438580
C248	C	1.655493	0.447141	-0.188580
C249	C	0.865409	-0.343129	-0.971421
C250	C	1.115409	-0.093129	-0.721421
C251	C	1.365409	0.156871	-0.471421
C252	C	1.615409	0.406871	-0.221421
C253	C	0.865419	-0.343117	-1.037163
C254	C	1.115419	-0.093117	-0.787163
C255	C	1.365419	0.156883	-0.537163
C256	C	1.615419	0.406883	-0.287163
N257	N	0.850629	-0.307718	-0.835332
N258	N	1.100629	-0.057718	-0.585332
N259	N	1.350629	0.192282	-0.335332
N260	N	1.600629	0.442282	-0.085332
N261	N	0.850621	-0.307726	-0.772881
N262	N	1.100621	-0.057726	-0.522881
N263	N	1.350621	0.192274	-0.272881
N264	N	1.600621	0.442274	-0.022881
C265	C	0.905460	-0.302898	-0.740505
C266	C	1.155460	-0.052898	-0.490505
C267	C	1.405460	0.197102	-0.240505
C268	C	1.655460	0.447102	0.009495
N269	N	0.960309	-0.298051	-0.772939
N270	N	1.210309	-0.048051	-0.522939
N271	N	1.460309	0.201949	-0.272939
N272	N	1.710309	0.451949	-0.022939
N273	N	0.960316	-0.298040	-0.835397
N274	N	1.210316	-0.048040	-0.585397
N275	N	1.460316	0.201960	-0.335397
N276	N	1.710316	0.451960	-0.085397
C277	C	0.905477	-0.302877	-0.867294
C278	C	1.155477	-0.052877	-0.617294
C279	C	1.405477	0.197123	-0.367294
C280	C	1.655477	0.447123	-0.117294
C281	C	0.945539	-0.262650	-0.636386
C282	C	1.195539	-0.012650	-0.386386
C283	C	1.445539	0.237350	-0.136386
C284	C	1.695539	0.487350	0.113614
C285	C	0.945536	-0.262670	-0.570642
C286	C	1.195536	-0.012670	-0.320642
C287	C	1.445536	0.237330	-0.070642
C288	C	1.695536	0.487330	0.179358
C289	C	0.865348	-0.343208	-0.570578
C290	C	1.115348	-0.093208	-0.320578
C291	C	1.365348	0.156792	-0.070578
C292	C	1.615348	0.406792	0.179422
C293	C	0.865358	-0.343191	-0.636321
C294	C	1.115358	-0.093191	-0.386321
C295	C	1.365358	0.156809	-0.136321
C296	C	1.615358	0.406809	0.113679
C297	C	0.905452	-0.302909	-0.669221
C298	C	1.155452	-0.052909	-0.419221
C299	C	1.405452	0.197091	-0.169221
C300	C	1.655452	0.447091	0.080779
C301	C	0.905405	-0.302995	-0.140030
C302	C	1.155405	-0.052995	0.109970
C303	C	1.405405	0.197005	0.359970
C304	C	1.655405	0.447005	0.609970
C305	C	0.905514	-0.302835	-0.070062
C306	C	1.155514	-0.052835	0.179938
C307	C	1.405514	0.197165	0.429938
C308	C	1.655514	0.447165	0.679938
H309	H	0.144543	-0.376088	-0.376591
H310	H	0.394543	-0.126088	-0.126591
H311	H	0.644543	0.123912	0.123409
H312	H	0.894543	0.373912	0.373409
H313	H	0.978187	-0.229850	-0.663174
H314	H	1.228187	0.020150	-0.413174
H315	H	1.478187	0.270150	-0.163174
H316	H	1.728187	0.520150	0.086826
H317	H	0.832733	-0.662034	-0.230451
H318	H	1.082733	-0.412034	0.019549
H319	H	1.332733	-0.162034	0.269549
H320	H	1.582733	0.087966	0.519549
H321	H	0.978035	-0.661758	-0.376712
H322	H	1.228035	-0.411758	-0.126712
H323	H	1.478035	-0.161758	0.123288
H324	H	1.728035	0.088242	0.373288
H325	H	0.465162	-0.312168	-0.406448
H326	H	0.715162	-0.062168	-0.156448
H327	H	0.965162	0.187832	0.093552
H328	H	1.215162	0.437832	0.343552
H329	H	0.263250	-0.376119	-0.376543
H330	H	0.513250	-0.126119	-0.126543
H331	H	0.763250	0.123881	0.123457
H332	H	1.013250	0.373881	0.373457
H333	H	0.978179	-0.229885	-0.543910
H334	H	1.228179	0.020115	-0.293910
H335	H	1.478179	0.270115	-0.043910
H336	H	1.728179	0.520115	0.206090
H337	H	0.548177	-0.229901	-0.230636
H338	H	0.798177	0.020099	0.019364
H339	H	1.048177	0.270099	0.269364
H340	H	1.298177	0.520099	0.519364
H341	H	0.832716	-0.375975	-0.663054
H342	H	1.082716	-0.125975	-0.413054
H343	H	1.332716	0.124025	-0.163054
H344	H	1.582716	0.374025	0.086946
H345	H	0.977999	-0.542492	-0.376682
H346	H	1.227999	-0.292492	-0.126682
H347	H	1.477999	-0.042492	0.123318
H348	H	1.727999	0.207508	0.373318
H349	H	0.832879	-1.062872	-0.230517
H350	H	1.082879	-0.812872	0.019483
H351	H	1.332879	-0.562872	0.269483
H352	H	1.582879	-0.312872	0.519483
H353	H	0.832779	-0.375905	-1.063896
H354	H	1.082779	-0.125905	-0.813896
H355	H	1.332779	0.124095	-0.563896
H356	H	1.582779	0.374095	-0.313896
H357	H	0.978186	-1.062595	-0.376777
H358	H	1.228186	-0.812595	-0.126777
H359	H	1.478186	-0.562595	0.123223
H360	H	1.728186	-0.312595	0.373223
H361	H	0.978229	-0.229799	-0.944748
H362	H	1.228229	0.020201	-0.694748
H363	H	1.478229	0.270201	-0.444748
H364	H	1.728229	0.520201	-0.194748
H365	H	0.832680	-0.542762	-0.230431
H366	H	1.082680	-0.292762	0.019569
H367	H	1.332680	-0.042762	0.269569
H368	H	1.582680	0.207238	0.519569
H369	H	0.832703	-0.375999	-0.543787
H370	H	1.082703	-0.125999	-0.293787
H371	H	1.332703	0.124001	-0.043787
H372	H	1.582703	0.374001	0.206213
H373	H	0.978149	-0.943332	-0.376752
H374	H	1.228149	-0.693332	-0.126752
H375	H	1.478149	-0.443332	0.123248
H376	H	1.728149	-0.193332	0.373248
H377	H	0.666886	-0.376202	-0.376393
H378	H	0.916886	-0.126202	-0.126393
H379	H	1.166886	0.123798	0.123607
H380	H	1.416886	0.373798	0.373607
H381	H	0.832838	-0.943603	-0.230493
H382	H	1.082838	-0.693603	0.019507
H383	H	1.332838	-0.443603	0.269507
H384	H	1.582838	-0.193603	0.519507
H385	H	0.144541	-0.229818	-0.230781
H386	H	0.394541	0.020182	0.019219
H387	H	0.644541	0.270182	0.269219
H388	H	0.894541	0.520182	0.519219
H389	H	0.978246	-0.229775	-1.064011
H390	H	1.228246	0.020225	-0.814011
H391	H	1.478246	0.270225	-0.564011
H392	H	1.728246	0.520225	-0.314011
H393	H	0.548179	-0.376173	-0.376440
H394	H	0.798179	-0.126173	-0.126440
H395	H	1.048179	0.123827	0.123560
H396	H	1.298179	0.373827	0.373560
H397	H	0.346450	-0.312140	-0.406490
H398	H	0.596450	-0.062140	-0.156490
H399	H	0.846450	0.187860	0.093510
H400	H	1.096450	0.437860	0.343510
H401	H	0.832762	-0.375919	-0.944625
H402	H	1.082762	-0.125919	-0.694625
H403	H	1.332762	0.124081	-0.444625
H404	H	1.582762	0.374081	-0.194625
H405	H	0.666891	-0.229915	-0.230594
H406	H	0.916891	0.020085	0.019406
H407	H	1.166891	0.270085	0.269406
H408	H	1.416891	0.520085	0.519406
H409	H	0.346274	-0.293862	-0.200721
H410	H	0.596274	-0.043862	0.049279
H411	H	0.846274	0.206138	0.299279
H412	H	1.096274	0.456138	0.549279
H413	H	0.263251	-0.229844	-0.230734
H414	H	0.513251	0.020156	0.019266
H415	H	0.763251	0.270156	0.269266
H416	H	1.013251	0.520156	0.519266
H417	H	0.464979	-0.293880	-0.200678
H418	H	0.714979	-0.043880	0.049322
H419	H	0.964979	0.206120	0.299322
H420	H	1.214979	0.456120	0.549322
