data_functionalizedCrystal
_audit_creation_method	'MofGen! by Chris Wilmer'
_symmetry_space_group_name_H-M	'P1'
_symmetry_Int_Tables_number	1
_symmetry_cell_setting	triclinic
loop_
_symmetry_equiv_pos_as_xyz
  x,y,z
_cell_length_a	10.654544
_cell_length_b	16.992695
_cell_length_c	16.053802
_cell_angle_alpha	87.258926
_cell_angle_beta	87.392810
_cell_angle_gamma	92.423463
loop_
_atom_site_label
_atom_site_type_symbol
_atom_site_fract_x
_atom_site_fract_y
_atom_site_fract_z
O1	O	1.682335	-0.106914	-0.069451
O2	O	1.317764	-0.117412	-0.069449
O3	O	1.498588	0.001987	-0.069443
O4	O	1.501512	-0.226314	-0.069457
O5	O	1.488632	-0.004558	0.069415
O6	O	1.307808	-0.123957	0.069410
O7	O	1.672380	-0.113459	0.069407
Zn8	Zn	1.488513	-0.119747	0.091455
Zn9	Zn	1.501630	-0.111124	-0.091497
O10	O	1.491556	-0.232858	0.069402
C11	C	1.265921	-0.119914	-0.000019
C12	C	1.126279	-0.117608	-0.000018
C13	C	1.115400	-0.124752	0.151370
C14	C	1.044358	-0.127243	0.227062
C15	C	0.913152	-0.125075	0.227058
C16	C	0.852987	-0.120413	0.151355
C17	C	0.924029	-0.117922	0.075664
C18	C	1.055237	-0.120093	0.075675
C19	C	0.934908	-0.110772	-0.075722
C20	C	1.066113	-0.112946	-0.075721
C21	C	0.874742	-0.106110	-0.151426
C22	C	0.945784	-0.103625	-0.227119
C23	C	1.076997	-0.105794	-0.227112
C24	C	1.137155	-0.110455	-0.151412
C25	C	1.489850	0.027948	-0.000014
C26	C	1.478630	0.115053	-0.000014
C27	C	1.724222	-0.110957	-0.000024
C28	C	1.863865	-0.113263	-0.000031
C29	C	1.500294	-0.258819	-0.000029
C30	C	1.511514	-0.345924	-0.000034
N31	N	1.479570	-0.125632	0.216315
C32	C	1.586881	0.164705	-0.000014
C33	C	1.576332	0.246549	-0.000022
C34	C	1.457531	0.278740	-0.000024
C35	C	1.349273	0.229081	-0.000027
C36	C	1.359823	0.147239	-0.000025
C37	C	1.413805	0.522576	-0.000035
C38	C	1.403263	0.604424	-0.000035
C39	C	1.630324	0.621886	-0.000032
C40	C	1.640863	0.540041	-0.000025
C41	C	1.532605	0.490391	-0.000032
N42	N	1.446746	0.362397	-0.000029
N43	N	1.543392	0.406735	-0.000032
N44	N	1.510583	-0.105233	-0.216357
C45	C	1.556543	-0.074845	0.260012
C46	C	1.550299	-0.078969	0.347418
C47	C	1.467089	-0.133884	0.391127
C48	C	1.390108	-0.184672	0.347425
C49	C	1.396346	-0.180544	0.260020
C50	C	1.439839	-0.151894	0.652536
C51	C	1.433610	-0.156020	0.739947
C52	C	1.593801	-0.050315	0.739934
C53	C	1.600036	-0.046195	0.652528
C54	C	1.523051	-0.096981	0.608833
N55	N	1.460708	-0.138102	0.480471
N56	N	1.529426	-0.092758	0.519491
H57	H	1.134833	-0.103764	-0.288749
O58	O	1.646286	-0.015613	0.212869
H59	H	1.698750	0.019015	0.257942
O60	O	0.711474	-0.118060	0.151336
H61	H	0.668674	-0.172406	0.183995
H62	H	1.322350	-0.229382	0.383018
H63	H	1.252542	0.255298	-0.000033
H64	H	1.377157	-0.193247	0.616967
O65	O	1.676828	0.004457	0.787067
H66	H	1.735744	0.043330	0.741988
O67	O	1.278670	-0.112798	-0.151412
H68	H	1.316757	-0.061534	-0.118730
O69	O	1.693087	0.300106	-0.000023
H70	H	1.689640	0.335155	0.056567
O71	O	1.715018	0.129986	-0.000020
H72	H	1.788518	0.178266	-0.000032
O73	O	1.769000	0.505321	-0.000043
H74	H	1.842505	0.553599	-0.000057
H75	H	1.718462	0.662320	-0.000028
H76	H	1.333665	-0.221899	0.224443
O77	O	1.633343	-0.024208	0.394551
H78	H	1.692271	0.014659	0.349473
H79	H	1.222233	-0.126529	0.151381
O80	O	1.275123	0.639150	-0.000046
H81	H	1.201616	0.590876	-0.000060
H82	H	0.767908	-0.104339	-0.151423
H83	H	1.325653	0.482159	-0.000041
O84	O	1.689773	0.013040	0.605384
H85	H	1.742240	0.047669	0.650454
O86	O	1.343853	-0.215245	0.787100
H87	H	1.246094	-0.203877	0.770355
O88	O	1.109245	-0.132279	0.308712
H89	H	1.212415	-0.133378	0.296003
O90	O	0.836271	-0.127862	0.308600
H91	H	0.864431	-0.076660	0.345048
O92	O	0.880897	-0.098599	-0.308764
H93	H	0.777727	-0.097510	-0.296049
H94	H	1.271673	0.106813	-0.000025
