data_functionalizedCrystal
_audit_creation_method	'MofGen! by Chris Wilmer'
_symmetry_space_group_name_H-M	'P1'
_symmetry_Int_Tables_number	1
_symmetry_cell_setting	triclinic
loop_
_symmetry_equiv_pos_as_xyz
  x,y,z
_cell_length_a	19.077142
_cell_length_b	19.076919
_cell_length_c	19.076808
_cell_angle_alpha	89.878360
_cell_angle_beta	90.073311
_cell_angle_gamma	89.925643
loop_
_atom_site_label
_atom_site_type_symbol
_atom_site_fract_x
_atom_site_fract_y
_atom_site_fract_z
Zn1	Zn	-1.045197	-0.426273	-0.339436
Zn2	Zn	-1.045492	-0.304054	-0.452243
Zn3	Zn	-0.932777	-0.304455	-0.330036
Zn4	Zn	-0.923330	-0.416820	-0.451818
O5	O	-0.986699	-0.362901	-0.393383
O6	O	-1.143409	-0.413848	-0.358512
O7	O	-1.034617	-0.205933	-0.432276
O8	O	-0.951519	-0.324739	-0.233106
O9	O	-1.143626	-0.324055	-0.441391
O10	O	-1.034114	-0.414238	-0.240013
O11	O	-0.951806	-0.206228	-0.342491
O12	O	-0.833350	-0.315573	-0.342078
O13	O	-0.935419	-0.516248	-0.440667
O14	O	-0.826410	-0.398127	-0.431551
O15	O	-1.024954	-0.523193	-0.358100
O16	O	-1.025458	-0.314889	-0.550363
O17	O	-0.935706	-0.397737	-0.550051
C18	C	-0.804425	-0.355868	-0.385749
C19	C	-0.726446	-0.352875	-0.382501
C20	C	-0.979100	-0.545888	-0.400385
C21	C	-0.975862	-0.623866	-0.403368
C22	C	-0.979607	-0.355260	-0.575665
C23	C	-0.976636	-0.352017	-0.653649
C24	C	-0.686217	-0.394377	-0.427624
C25	C	-0.612947	-0.391569	-0.424562
C26	C	-0.579909	-0.347255	-0.376381
C27	C	-0.620144	-0.305751	-0.331254
C28	C	-0.693411	-0.308563	-0.334312
C29	C	-0.361167	-0.334246	-0.362229
C30	C	-0.287894	-0.331435	-0.359175
C31	C	-0.280703	-0.417255	-0.452483
C32	C	-0.353972	-0.420060	-0.455540
C33	C	-0.394200	-0.378559	-0.410410
N34	N	-0.505016	-0.344382	-0.373252
N35	N	-0.469092	-0.381436	-0.413536
C36	C	-0.169685	-0.369953	-0.401044
C37	C	-0.247664	-0.372937	-0.404298
C38	C	-1.020954	-0.664118	-0.361784
C39	C	-1.017903	-0.737386	-0.364584
C40	C	-0.969762	-0.770402	-0.408973
C41	C	-0.924665	-0.730146	-0.450559
C42	C	-0.927714	-0.656879	-0.447754
C43	C	-0.955644	-0.989140	-0.421966
C44	C	-0.952601	-1.062413	-0.424769
C45	C	-1.045837	-1.069649	-0.338793
C46	C	-1.048884	-0.996379	-0.335996
C47	C	-1.003785	-0.956129	-0.377579
N48	N	-0.966644	-0.845295	-0.411838
N49	N	-1.006900	-0.881238	-0.374710
C50	C	-0.994311	-0.180629	-0.386360
C51	C	-0.997693	-0.102664	-0.383185
C52	C	-1.018208	-0.397126	-0.693821
C53	C	-1.015414	-0.394080	-0.767096
C54	C	-0.971051	-0.345921	-0.800197
C55	C	-0.929475	-0.300810	-0.760019
C56	C	-0.932266	-0.303860	-0.686746
C57	C	-0.958093	-0.331802	-1.018960
C58	C	-0.955307	-0.328754	-1.092239
C59	C	-1.041246	-0.422025	-1.099311
C60	C	-1.044036	-0.425068	-1.026036
C61	C	-1.002457	-0.379960	-0.985865
N62	N	-0.968196	-0.342805	-0.875095
N63	N	-1.005309	-0.383080	-0.910968
C64	C	-0.993837	-0.370587	-0.210392
C65	C	-0.996879	-0.373863	-0.132411
H66	H	-0.713111	-0.430461	-0.466860
H67	H	-0.913397	-1.089292	-0.460918
N68	N	-0.909573	-0.948043	-0.464446
N69	N	-0.866597	-0.977533	-0.504077
H70	H	-0.834057	-0.948506	-0.534081
H71	H	-1.082554	-1.102428	-0.304938
N72	N	-0.387729	-0.465321	-0.504754
N73	N	-0.453147	-0.467820	-0.507482
H74	H	-0.476989	-0.499782	-0.542244
H75	H	-1.080159	-0.464282	-0.999088
N76	N	-1.083711	-0.468093	-1.140356
N77	N	-1.081217	-0.465365	-1.205777
H78	H	-1.111209	-0.497904	-1.234767
H79	H	-1.054336	-0.436339	-0.666876
N80	N	-0.239600	-0.459639	-0.498575
N81	N	-0.174183	-0.457123	-0.495842
H82	H	-0.145153	-0.487059	-0.528395
N83	N	-0.875489	-0.763880	-0.495892
N84	N	-0.872773	-0.829297	-0.498391
H85	H	-0.838042	-0.853121	-0.530409
H86	H	-0.898413	-0.267129	-0.654037
N87	N	-0.910020	-0.279539	-1.126065
N88	N	-0.917748	-0.215331	-1.115623
H89	H	-0.885777	-0.180568	-1.139518
H90	H	-0.260996	-0.295354	-0.319932
N91	N	-0.881644	-0.615771	-0.490232
N92	N	-0.838662	-0.645256	-0.529860
H93	H	-0.806120	-0.616225	-0.559859
N94	N	-1.098054	-0.962641	-0.290659
N95	N	-1.143492	-0.922445	-0.315654
H96	H	-1.178219	-0.898614	-0.283636
N97	N	-0.571865	-0.433972	-0.470655
N98	N	-0.601372	-0.473534	-0.513672
H99	H	-0.572358	-0.503485	-0.546226
H100	H	-0.393912	-0.300447	-0.325486
N101	N	-1.057878	-0.440167	-0.808120
N102	N	-1.097485	-0.483162	-0.778558
H103	H	-1.127476	-0.515716	-0.807531
H104	H	-0.924239	-0.295072	-0.986258
N105	N	-0.884174	-0.251616	-0.793847
N106	N	-0.909204	-0.206190	-0.834052
H107	H	-0.877214	-0.171444	-0.857946
N108	N	-0.586387	-0.260494	-0.282036
N109	N	-0.520969	-0.257988	-0.279312
H110	H	-0.497128	-0.226023	-0.244552
H111	H	-0.726166	-0.274772	-0.297565
N112	N	-1.063974	-0.778504	-0.322120
N113	N	-1.106012	-0.820079	-0.350246
H114	H	-1.138552	-0.849119	-0.320255
H115	H	-1.060157	-0.637242	-0.325640
