data_functionalizedCrystal
_audit_creation_method	'MofGen! by Chris Wilmer'
_symmetry_space_group_name_H-M	'P1'
_symmetry_Int_Tables_number	1
_symmetry_cell_setting	triclinic
loop_
_symmetry_equiv_pos_as_xyz
  x,y,z
_cell_length_a	11.792241
_cell_length_b	17.766277
_cell_length_c	19.288857
_cell_angle_alpha	90.008526
_cell_angle_beta	96.336738
_cell_angle_gamma	89.995500
loop_
_atom_site_label
_atom_site_type_symbol
_atom_site_fract_x
_atom_site_fract_y
_atom_site_fract_z
O1	O	-1.505468	0.062514	0.095201
O2	O	-1.174978	0.062534	0.105013
O3	O	-1.349777	0.062514	-0.000970
O4	O	-1.330669	0.062534	0.201183
O5	O	-1.349747	-0.062674	-0.000975
O6	O	-1.174947	-0.062654	0.105007
O7	O	-1.505438	-0.062675	0.095196
Cu8	Cu	-1.340190	-0.074095	0.100101
Cu9	Cu	-1.340226	0.073955	0.100107
O10	O	-1.330638	-0.062655	0.201178
C11	C	-1.132681	-0.000058	0.104393
C12	C	-1.006695	-0.000050	0.102549
N13	N	-1.340172	-0.178226	0.100096
C14	C	-1.417599	-0.217621	0.053190
C15	C	-1.417605	-0.296423	0.053187
C16	C	-1.340196	-0.335826	0.100101
C17	C	-1.262756	-0.296421	0.147010
C18	C	-1.262744	-0.217621	0.147008
C19	C	-1.325000	-0.460658	0.163303
C20	C	-1.325019	-0.539456	0.163307
C21	C	-1.340227	-0.578872	0.100110
C22	C	-1.355438	-0.539480	0.036907
C23	C	-1.355426	-0.460680	0.036904
C24	C	-1.340200	-0.421272	0.100109
C25	C	-1.417664	-0.703714	0.053197
C26	C	-1.417663	-0.782517	0.053193
C27	C	-1.262819	-0.782514	0.147022
C28	C	-1.262815	-0.703712	0.147020
C29	C	-1.340243	-0.664317	0.100109
C30	C	-0.776035	-0.000070	0.099157
C31	C	-0.904391	-0.000059	0.101041
C32	C	-0.547734	-0.000079	0.095815
C33	C	-0.673720	-0.000076	0.097659
C34	C	-1.349149	-0.000081	-0.026852
C35	C	-1.347307	-0.000083	-0.103967
N36	N	-1.340252	0.178085	0.100107
C37	C	-1.346465	0.068158	-0.140179
C38	C	-1.344718	0.068164	-0.212635
C39	C	-1.343838	-0.000075	-0.248878
C40	C	-1.344674	-0.068324	-0.212656
C41	C	-1.346409	-0.068328	-0.140200
C42	C	-1.407553	-0.052354	-0.368749
C43	C	-1.405825	-0.052347	-0.441204
C44	C	-1.338482	-0.000066	-0.472354
C45	C	-1.272881	0.052221	-0.431041
C46	C	-1.274616	0.052217	-0.358586
C47	C	-1.341956	-0.000079	-0.327443
C48	C	-1.335744	0.068185	-0.587131
C49	C	-1.333991	0.068188	-0.659588
C50	C	-1.333958	-0.068302	-0.659608
C51	C	-1.335700	-0.068303	-0.587152
C52	C	-1.336598	-0.000057	-0.550918
C53	C	-1.331267	-0.000058	0.227060
C54	C	-1.333108	-0.000051	0.304175
H55	H	-1.480657	-0.328505	0.014989
N56	N	-1.347363	0.137860	-0.103157
N57	N	-1.348909	0.137851	-0.038465
H58	H	-1.349543	0.187078	-0.012315
H59	H	-1.480708	-0.671637	0.014996
N60	N	-1.183728	-0.822751	0.194935
N61	N	-1.113401	-0.866731	0.172605
H62	H	-1.057535	-0.895151	0.206442
N63	N	-1.207588	0.105608	-0.316384
N64	N	-1.132445	0.083349	-0.270151
H65	H	-1.085101	0.121054	-0.240345
H66	H	-1.367821	-0.571571	-0.014554
H67	H	-1.480709	-0.814594	0.014993
H68	H	-1.199693	-0.185544	0.185204
N69	N	-1.183718	-0.663477	0.194939
N70	N	-1.114603	-0.698664	0.236822
H71	H	-1.058733	-0.670249	0.270665
N72	N	-1.496790	-0.177393	0.005327
N73	N	-1.565979	-0.212584	-0.036512
H74	H	-1.621945	-0.184172	-0.070295
H75	H	-1.459245	-0.094920	-0.474836
H76	H	-1.312640	-0.571524	0.214770
N77	N	-1.343786	-0.138036	-0.249663
N78	N	-1.344541	-0.198962	-0.217318
H79	H	-1.343909	-0.248199	-0.243453
N80	N	-1.183685	-0.336678	0.194924
N81	N	-1.183706	-0.407035	0.194920
H82	H	-1.127856	-0.435467	0.228758
H83	H	-1.344025	0.123735	-0.242125
N84	N	-1.204084	0.105632	-0.462845
N85	N	-1.221042	0.174555	-0.456028
H86	H	-1.172457	0.212276	-0.478494
N87	N	-1.370963	-0.420453	-0.027657
N88	N	-1.384544	-0.455646	-0.084081
H89	H	-1.395513	-0.427237	-0.129679
H90	H	-1.333232	-0.123863	-0.689115
N91	N	-1.336664	0.137899	-0.550125
N92	N	-1.335904	0.198826	-0.582470
H93	H	-1.336555	0.248063	-0.556337
H94	H	-1.333299	0.123760	-0.689070
H95	H	-1.336395	-0.123872	-0.557668
N96	N	-1.347264	-0.138044	-0.103217
N97	N	-1.346466	-0.198969	-0.135579
H98	H	-1.347071	-0.248208	-0.109459
N99	N	-1.309462	-0.420393	0.227858
N100	N	-1.226942	-0.376428	0.240161
H101	H	-1.215968	-0.347993	0.285752
H102	H	-1.462390	-0.094933	-0.343394
