data_functionalizedCrystal
_audit_creation_method	'MofGen! by Chris Wilmer'
_symmetry_space_group_name_H-M	'P1'
_symmetry_Int_Tables_number	1
_symmetry_cell_setting	triclinic
loop_
_symmetry_equiv_pos_as_xyz
  x,y,z
_cell_length_a	12.594517
_cell_length_b	12.759394
_cell_length_c	12.759387
_cell_angle_alpha	89.968340
_cell_angle_beta	90.023209
_cell_angle_gamma	89.985363
loop_
_atom_site_label
_atom_site_type_symbol
_atom_site_fract_x
_atom_site_fract_y
_atom_site_fract_z
Zn1	Zn	1.627296	0.418217	0.594074
Zn2	Zn	2.127296	0.918217	1.094074
Zn3	Zn	1.627184	0.593934	0.418392
Zn4	Zn	2.127184	1.093934	0.918392
Zn5	Zn	1.449294	0.418269	0.418403
Zn6	Zn	1.949294	0.918269	0.918403
Zn7	Zn	1.449286	0.593854	0.594023
Zn8	Zn	1.949286	1.093854	1.094023
O9	O	1.538265	0.506068	0.506223
O10	O	2.038265	1.006068	1.006223
O11	O	1.776227	0.441538	0.570787
O12	O	2.276227	0.941538	1.070787
O13	O	1.603544	0.570687	0.271373
O14	O	2.103544	1.070687	0.771373
O15	O	1.472956	0.271241	0.441732
O16	O	1.972956	0.771241	0.941732
O17	O	1.776145	0.570636	0.441714
O18	O	2.276145	1.070636	0.941714
O19	O	1.603733	0.271202	0.570797
O20	O	2.103733	0.771202	1.070797
O21	O	1.472848	0.441626	0.271380
O22	O	1.972848	0.941626	0.771380
O23	O	1.300347	0.441549	0.441682
O24	O	1.800347	0.941549	0.941682
O25	O	1.472942	0.570500	0.741051
O26	O	1.972942	1.070500	1.241051
O27	O	1.300341	0.570550	0.570710
O28	O	1.800341	1.070550	1.070710
O29	O	1.603725	0.441460	0.741089
O30	O	2.103725	0.941460	1.241089
O31	O	1.603536	0.740944	0.441664
O32	O	2.103536	1.240944	0.941664
O33	O	1.472834	0.740885	0.570699
O34	O	1.972834	1.240885	1.070699
C35	C	1.538201	0.779036	0.506198
C36	C	2.038201	1.279036	1.006198
C37	C	1.538271	0.895812	0.506222
C38	C	2.038271	1.395812	1.006222
C39	C	1.261724	0.506047	0.506192
C40	C	1.761724	1.006047	1.006192
C41	C	1.143418	0.506063	0.506204
C42	C	1.643418	1.006063	1.006204
C43	C	1.538345	0.505965	0.780257
C44	C	2.038345	1.005965	1.280257
C45	C	1.538380	0.505921	0.897034
C46	C	2.038380	1.005921	1.397034
C47	C	1.074138	0.435804	0.436160
C48	C	1.574138	0.935804	0.936160
C49	C	1.003328	0.531639	0.410316
C50	C	1.503328	1.031639	0.910316
C51	C	1.003429	0.410275	0.532065
C52	C	1.503429	0.910275	1.032065
C53	C	1.074167	0.601949	0.480310
C54	C	1.574167	1.101949	0.980310
C55	C	1.074274	0.480521	0.602104
C56	C	1.574274	0.980521	1.102104
C57	C	1.003497	0.576422	0.576297
C58	C	1.503497	1.076422	1.076297
C59	C	1.815886	0.506090	0.506255
C60	C	2.315886	1.006090	1.006255
C61	C	1.934191	0.506099	0.506268
C62	C	2.434191	1.006099	1.006268
C63	C	1.538358	0.232035	0.506272
C64	C	2.038358	0.732035	1.006272
C65	C	1.538398	0.115258	0.506292
C66	C	2.038398	0.615258	1.006292
C67	C	1.674473	0.895820	0.371958
C68	C	2.174473	1.395820	0.871958
C69	C	1.742601	0.950685	0.304839
C70	C	2.242601	1.450685	0.804839
C71	C	1.742664	1.060406	0.304867
C72	C	2.242664	1.560406	0.804867
C73	C	1.674592	1.115266	0.372025
C74	C	2.174592	1.615266	0.872025
C75	C	1.606464	1.060401	0.439144
C76	C	2.106464	1.560401	0.939144
C77	C	1.606407	0.950677	0.439106
C78	C	2.106407	1.450677	0.939106
C79	C	1.470269	1.060393	0.573412
C80	C	1.970269	1.560393	1.073412
C81	C	1.470200	0.950672	0.573380
C82	C	1.970200	1.450672	1.073380
C83	C	1.402198	1.115253	0.640569
C84	C	1.902198	1.615253	1.140569
C85	C	1.334062	1.060388	0.707685
C86	C	1.834062	1.560388	1.207685
C87	C	1.334002	0.950660	0.707653
C88	C	1.834002	1.450660	1.207653
C89	C	1.402071	0.895807	0.640499
C90	C	1.902071	1.395807	1.140499
C91	C	1.538246	0.506095	0.233256
C92	C	2.038246	1.006095	0.733256
C93	C	1.538418	0.505843	0.116480
C94	C	2.038418	1.005843	0.616480
C95	C	1.674573	0.371561	0.897093
C96	C	2.174573	0.871561	1.397093
C97	C	1.742685	0.304365	0.951983
C98	C	2.242685	0.804365	1.451983
C99	C	1.742711	0.304327	1.061705
C100	C	2.242711	0.804327	1.561705
C101	C	1.674616	0.371489	1.116539
C102	C	2.174616	0.871489	1.616539
C103	C	1.606504	0.438685	1.061648
C104	C	2.106504	0.938685	1.561648
C105	C	1.606488	0.438719	0.951924
C106	C	2.106488	0.938719	1.451924
C107	C	1.470306	0.573039	1.061589
C108	C	1.970306	1.073039	1.561589
C109	C	1.470284	0.573084	0.951867
C110	C	1.970284	1.073084	1.451867
C111	C	1.402211	0.640201	1.116423
C112	C	1.902211	1.140201	1.616423
C113	C	1.334103	0.707404	1.061533
C114	C	1.834103	1.207404	1.561533
C115	C	1.334080	0.707440	0.951804
C116	C	1.834080	1.207440	1.451804
C117	C	1.402172	0.640280	0.896977
C118	C	1.902172	1.140280	1.396977
H119	H	1.105155	0.376445	0.376853
H120	H	1.605155	0.876445	0.876853
H121	H	1.278528	0.905995	0.762314
H122	H	1.778528	1.405995	1.262314
H123	H	0.972674	0.635922	0.635558
H124	H	1.472674	1.135922	1.135558
H125	H	1.402022	0.806466	0.640460
H126	H	1.902022	1.306466	1.140460
H127	H	1.674569	0.371595	0.807752
H128	H	2.174569	0.871595	1.307752
H129	H	1.402258	1.204594	0.640592
H130	H	1.902258	1.704594	1.140592
H131	H	0.972167	0.553266	0.329243
H132	H	1.472167	1.053266	0.829243
H133	H	1.798125	0.249681	0.907325
H134	H	2.298125	0.749681	1.407325
H135	H	1.402165	0.640307	0.807636
H136	H	1.902165	1.140307	1.307636
H137	H	1.278649	1.105063	0.762364
H138	H	1.778649	1.605063	1.262364
H139	H	1.798167	0.249604	1.106396
H140	H	2.298167	0.749604	1.606396
H141	H	1.105461	0.458864	0.683153
H142	H	1.605461	0.958864	1.183153
H143	H	1.105109	0.682995	0.458374
H144	H	1.605109	1.182995	0.958374
H145	H	1.402233	0.640161	1.205764
H146	H	1.902233	1.140161	1.705764
H147	H	0.972301	0.329264	0.553876
H148	H	1.472301	0.829264	1.053876
H149	H	1.674634	0.371443	1.205880
H150	H	2.174634	0.871443	1.705880
H151	H	1.674415	0.806479	0.371915
H152	H	2.174415	1.306479	0.871915
H153	H	1.798027	0.906009	0.250162
H154	H	2.298027	1.406009	0.750162
H155	H	1.798145	1.105077	0.250218
H156	H	2.298145	1.605077	0.750218
H157	H	1.278659	0.762077	1.106187
H158	H	1.778659	1.262077	1.606187
H159	H	1.278604	0.762148	0.907119
H160	H	1.778604	1.262148	1.407119
H161	H	1.674659	1.204607	0.372051
H162	H	2.174659	1.704607	0.872051
