data_functionalizedCrystal
_audit_creation_method	'MofGen! by Chris Wilmer'
_symmetry_space_group_name_H-M	'P1'
_symmetry_Int_Tables_number	1
_symmetry_cell_setting	triclinic
loop_
_symmetry_equiv_pos_as_xyz
  x,y,z
_cell_length_a	10.654549
_cell_length_b	15.625429
_cell_length_c	9.130307
_cell_angle_alpha	71.919555
_cell_angle_beta	89.997449
_cell_angle_gamma	84.352976
loop_
_atom_site_label
_atom_site_type_symbol
_atom_site_fract_x
_atom_site_fract_y
_atom_site_fract_z
O1	O	1.666513	0.126643	-0.189087
O2	O	1.300909	0.138703	-0.195486
O3	O	1.493482	0.001498	-0.122619
O4	O	1.473941	0.263848	-0.261955
O5	O	1.493476	0.001497	0.120981
O6	O	1.300903	0.138701	0.048113
O7	O	1.666507	0.126642	0.054512
Cu8	Cu	1.483704	0.132671	0.073555
Cu9	Cu	1.483712	0.132673	-0.214530
O10	O	1.473935	0.263847	-0.018355
C11	C	1.254118	0.137816	-0.073215
C12	C	1.114702	0.135164	-0.071805
C13	C	1.492595	-0.032096	0.017020
C14	C	1.489946	-0.132192	0.070172
C15	C	0.823059	0.294251	-0.156339
C16	C	0.873728	0.377532	-0.200564
C17	C	1.004720	0.380027	-0.201870
C18	C	1.085048	0.299231	-0.158950
C19	C	1.034379	0.215950	-0.114725
C20	C	0.903383	0.213464	-0.113419
C21	C	1.064034	0.051882	-0.027579
C22	C	0.933042	0.049386	-0.026262
C23	C	1.144361	-0.028913	0.015341
C24	C	1.093693	-0.112196	0.059577
C25	C	0.962692	-0.114688	0.060883
C26	C	0.882373	-0.033896	0.017963
C27	C	1.481218	-0.461393	-0.418891
C28	C	1.478723	-0.555448	-0.368901
C29	C	1.478717	-0.555436	-0.103346
C30	C	1.481217	-0.461379	-0.153314
C31	C	1.482466	-0.414365	-0.311088
C32	C	1.482466	-0.414352	-0.045510
C33	C	1.484960	-0.320303	-0.095475
C34	C	1.486205	-0.273282	-0.253244
C35	C	1.484960	-0.320316	-0.361053
C36	C	1.481208	-0.461367	0.112263
C37	C	1.482457	-0.414339	0.220066
C38	C	1.484959	-0.320289	0.170102
C39	C	1.486204	-0.273268	0.012334
C40	C	1.486204	-0.273255	0.277912
C41	C	1.488698	-0.179206	0.227947
C42	C	1.488698	-0.179219	-0.037631
C43	C	1.713299	0.127529	-0.067762
C44	C	1.852714	0.130181	-0.069182
C45	C	1.474821	0.297440	-0.157997
C46	C	1.477470	0.397536	-0.211159
N47	N	1.483708	0.132670	0.276179
N48	N	1.483718	0.132668	-0.417149
C49	C	1.654301	0.011211	0.340675
C50	C	1.739605	-0.049516	0.449588
C51	C	1.739617	-0.049517	0.602921
C52	C	1.654314	0.011214	0.647343
C53	C	1.569010	0.071941	0.538430
C54	C	1.569009	0.071937	0.385095
C55	C	1.398414	0.193394	0.473938
C56	C	1.398405	0.193401	0.320601
C57	C	1.313110	0.254126	0.518359
C58	C	1.227810	0.314858	0.409443
C59	C	1.227802	0.314857	0.256101
C60	C	1.313101	0.254128	0.211688
H61	H	0.716397	0.292227	-0.155254
H62	H	1.489726	-0.140939	-0.166106
F63	F	1.313105	0.254124	0.048498
F64	F	1.478550	-0.561463	0.165437
H65	H	1.251021	-0.026876	0.014267
F66	F	1.313117	0.254121	0.681553
H67	H	0.808311	0.443313	-0.235513
F68	F	1.477388	-0.605495	-0.483653
F69	F	1.137027	0.379481	0.456732
H70	H	1.045973	0.447841	-0.237880
H71	H	1.191707	0.301270	-0.160034
H72	H	1.159105	-0.177973	0.094509
H73	H	0.921447	-0.182505	0.096889
F74	F	1.488862	-0.173186	-0.306421
F75	F	0.742957	-0.036540	0.019358
H76	H	1.485175	-0.311547	0.406372
F77	F	1.486306	-0.270277	-0.528975
F78	F	1.654310	0.011215	0.177481
F79	F	1.137000	0.379488	0.140199
H80	H	1.482246	-0.423112	-0.547367
H81	H	1.489688	-0.140913	0.315730
F82	F	1.830384	-0.114151	0.402305
H83	H	1.477695	-0.593727	0.025115
H84	H	1.481435	-0.452630	0.348527
H85	H	1.809075	-0.098969	0.691603
H86	H	1.654319	0.011203	0.772201
