data_functionalizedCrystal
_audit_creation_method	'MofGen! by Chris Wilmer'
_symmetry_space_group_name_H-M	'P1'
_symmetry_Int_Tables_number	1
_symmetry_cell_setting	triclinic
loop_
_symmetry_equiv_pos_as_xyz
  x,y,z
_cell_length_a	8.497365
_cell_length_b	12.759401
_cell_length_c	12.759399
_cell_angle_alpha	89.983359
_cell_angle_beta	90.051436
_cell_angle_gamma	89.967415
loop_
_atom_site_label
_atom_site_type_symbol
_atom_site_fract_x
_atom_site_fract_y
_atom_site_fract_z
Zn1	Zn	-0.891959	1.606384	0.417960
Zn2	Zn	-0.628161	1.606238	0.593738
Zn3	Zn	-0.628186	1.430647	0.418079
Zn4	Zn	-0.891893	1.430673	0.593602
O5	O	-0.760050	1.518486	0.505845
O6	O	-0.856983	1.753386	0.441285
O7	O	-0.407402	1.582874	0.570544
O8	O	-0.663214	1.454009	0.271042
O9	O	-0.663172	1.753279	0.570428
O10	O	-0.857007	1.583122	0.270955
O11	O	-0.407420	1.453868	0.441487
O12	O	-0.663150	1.283630	0.441355
O13	O	-1.112664	1.454054	0.570196
O14	O	-0.856894	1.283649	0.570311
O15	O	-1.112713	1.583148	0.441152
O16	O	-0.663108	1.582899	0.740741
O17	O	-0.856871	1.453912	0.740641
C18	C	-0.760018	1.245518	0.505832
C19	C	-0.760042	1.128742	0.505852
C20	C	-0.760014	1.518421	0.778812
C21	C	-0.760051	1.518490	0.895589
C22	C	-0.860766	1.073917	0.573101
C23	C	-0.860798	0.964193	0.573105
C24	C	-0.659367	0.964128	0.438607
C25	C	-0.659345	1.073850	0.438598
C26	C	-0.350170	1.518410	0.505959
C27	C	-0.171526	1.518560	0.505744
C28	C	-0.760082	1.792519	0.505858
C29	C	-0.760096	1.909296	0.505864
C30	C	-0.760120	1.518579	0.231811
C31	C	-0.760150	1.518619	0.115035
C32	C	-0.659274	1.585730	0.950468
C33	C	-0.659327	1.585797	1.060192
C34	C	-0.860939	1.451376	1.060148
C35	C	-0.860893	1.451314	0.950426
H36	H	-0.942820	0.919560	0.627865
O37	O	-0.959013	1.386044	0.897225
C38	C	-1.227286	1.335021	0.863429
C39	C	-1.116345	1.408979	0.923763
H40	H	-1.354514	1.353551	0.884847
H41	H	-1.199615	1.250303	0.885112
H42	H	-1.209852	1.346503	0.775595
H43	H	-1.133718	1.397590	1.011611
H44	H	-1.144044	1.493669	0.901993
O45	O	-0.561279	1.651145	1.113339
C46	C	-0.361364	1.784507	1.101796
C47	C	-0.472299	1.710532	1.041478
H48	H	-0.289418	1.832556	1.043722
H49	H	-0.278731	1.736368	1.153245
H50	H	-0.433909	1.839416	1.153087
H51	H	-0.399880	1.655609	0.990130
H52	H	-0.554936	1.758736	0.990095
H53	H	-0.943038	1.396682	1.104810
H54	H	-0.577381	0.919421	0.383853
O55	O	-0.561382	1.650889	0.897036
C56	C	-0.472025	1.710421	0.728025
C57	C	-0.582939	1.636552	0.788401
H58	H	-0.489439	1.698871	0.640184
H59	H	-0.344767	1.692010	0.749637
H60	H	-0.499837	1.795131	0.749569
H61	H	-0.555269	1.551818	0.766890
H62	H	-0.710164	1.655053	0.766784
O63	O	-0.561267	1.127066	0.373381
C64	C	-0.293053	1.160486	0.322184
C65	C	-0.403932	1.100173	0.396122
H66	H	-0.165827	1.138749	0.340528
H67	H	-0.310205	1.248348	0.333733
H68	H	-0.321065	1.138958	0.237491
H69	H	-0.375989	1.121614	0.480843
H70	H	-0.386761	1.012325	0.384482
O71	O	-0.958740	1.127078	0.638454
C72	C	-1.158480	1.115557	0.771894
C73	C	-1.047624	1.055227	0.697921
H74	H	-1.230348	1.057492	0.820008
H75	H	-1.241189	1.166946	0.723749
H76	H	-1.085877	1.166909	0.826743
H77	H	-1.120099	1.003817	0.643057
H78	H	-0.964910	1.003904	0.746130
