data_functionalizedCrystal
_audit_creation_method	'MofGen! by Chris Wilmer'
_symmetry_space_group_name_H-M	'P1'
_symmetry_Int_Tables_number	1
_symmetry_cell_setting	triclinic
loop_
_symmetry_equiv_pos_as_xyz
  x,y,z
_cell_length_a	14.971486
_cell_length_b	27.731996
_cell_length_c	14.048226
_cell_angle_alpha	89.987595
_cell_angle_beta	89.998499
_cell_angle_gamma	83.117759
loop_
_atom_site_label
_atom_site_type_symbol
_atom_site_fract_x
_atom_site_fract_y
_atom_site_fract_z
O1	O	1.185930	0.062992	-0.079064
O2	O	0.925408	0.070536	-0.079092
O3	O	1.063784	-0.003597	-0.079056
O4	O	1.047553	0.137125	-0.079099
O5	O	1.063768	-0.003601	0.079265
O6	O	0.925391	0.070531	0.079230
O7	O	1.185913	0.062988	0.079257
Zn8	Zn	1.055650	0.066759	0.104380
Zn9	Zn	1.055671	0.066765	-0.104215
O10	O	1.047537	0.137121	0.079222
C11	C	0.892080	0.070196	0.000066
C12	C	0.792800	0.069185	0.000056
C13	C	1.063443	-0.021608	0.000107
C14	C	1.062438	-0.075269	0.000117
C15	C	0.734871	0.112736	0.000044
C16	C	0.641587	0.111784	0.000059
C17	C	0.606233	0.067279	0.000079
C18	C	0.664169	0.023725	0.000093
C19	C	0.757452	0.024678	0.000086
C20	C	0.469739	0.021741	0.000107
C21	C	0.376450	0.020787	0.000113
C22	C	0.353874	0.108846	0.000080
C23	C	0.447157	0.109800	0.000073
C24	C	0.505086	0.066245	0.000086
C25	C	1.056129	-0.408012	-0.086231
C26	C	1.052315	-0.609688	-0.086248
O27	O	1.051791	-0.635759	-0.159644
N28	N	1.051833	-0.634910	0.000052
C29	C	1.052298	-0.609709	0.086362
O30	O	1.051790	-0.635788	0.159766
C31	C	1.056105	-0.408033	0.086379
C32	C	1.056597	-0.382815	0.000073
C33	C	1.056620	-0.382793	-0.172530
C34	C	1.057578	-0.332378	-0.172525
C35	C	1.058045	-0.307181	-0.086221
C36	C	1.057555	-0.332399	0.000078
C37	C	1.056563	-0.382833	0.172688
C38	C	1.057513	-0.332411	0.172684
C39	C	1.058005	-0.307193	0.086379
C40	C	1.058981	-0.256787	0.086387
N41	N	1.059463	-0.231565	0.000087
C42	C	1.058996	-0.256762	-0.086217
C43	C	1.050301	-0.715591	0.086348
C44	C	1.049350	-0.766010	0.086344
C45	C	1.049366	-0.765986	-0.086267
C46	C	1.050323	-0.715566	-0.086262
C47	C	1.050783	-0.690370	0.000048
C48	C	1.061009	-0.150886	-0.086200
C49	C	1.061971	-0.100466	-0.086187
C50	C	1.061950	-0.100495	0.086424
C51	C	1.060993	-0.150910	0.086411
C52	C	1.060519	-0.176104	0.000092
O53	O	1.059495	-0.230684	0.159745
O54	O	1.059483	-0.230673	-0.159609
C55	C	1.055171	-0.458428	-0.086236
C56	C	1.054680	-0.483646	0.000063
C57	C	1.055148	-0.458449	0.086366
C58	C	1.053730	-0.534065	0.000059
C59	C	1.053262	-0.559262	-0.086245
C60	C	1.053745	-0.534040	-0.172545
C61	C	1.054703	-0.483625	-0.172540
C62	C	1.054665	-0.483671	0.172666
C63	C	1.053708	-0.534087	0.172654
C64	C	1.053240	-0.559284	0.086350
C65	C	1.219241	0.063328	0.000098
C66	C	1.318522	0.064338	0.000101
C67	C	1.047879	0.155132	0.000056
C68	C	1.048883	0.208793	0.000040
N69	N	1.055642	0.066755	0.246741
N70	N	1.055687	0.066765	-0.246575
C71	C	1.116934	0.033942	0.296575
C72	C	1.116940	0.033942	0.396232
C73	C	1.055657	0.066757	0.446055
C74	C	0.994359	0.099571	0.396214
C75	C	0.994349	0.099569	0.296558
C76	C	0.994384	0.099574	0.603928
C77	C	0.994395	0.099578	0.703591
C78	C	1.116975	0.033948	0.703602
C79	C	1.116965	0.033946	0.603947
C80	C	1.055668	0.066760	0.554113
H81	H	0.763648	0.148977	0.000028
H82	H	0.516903	-0.013726	0.000119
C83	C	1.049423	-0.760957	0.256960
C84	C	1.048818	-0.793727	0.181214
H85	H	1.049085	-0.778068	0.315529
H86	H	1.101971	-0.744952	0.253376
H87	H	0.997613	-0.737632	0.253351
H88	H	1.100631	-0.817051	0.184819
H89	H	0.996264	-0.809741	0.184800
C90	C	1.129510	-0.596196	0.272831
C91	C	1.053153	-0.561806	0.267527
H92	H	1.129158	-0.613306	0.331401
H93	H	1.129094	-0.618417	0.221437
H94	H	1.182064	-0.580187	0.269267
H95	H	1.000599	-0.577816	0.271084
H96	H	1.053561	-0.539582	0.318935
H97	H	1.166885	0.007229	0.744183
C98	C	0.974443	-0.653522	0.186517
C99	C	1.050815	-0.687902	0.181231
H100	H	0.974763	-0.636433	0.245098
H101	H	0.974871	-0.631282	0.135138
H102	H	0.921899	-0.669537	0.182917
H103	H	1.103359	-0.671886	0.184825
H104	H	1.050395	-0.710145	0.232625
H105	H	0.594425	0.147247	0.000048
C106	C	1.137219	-0.031847	0.184589
C107	C	1.184276	-0.002152	0.241838
H108	H	1.178788	-0.054136	0.150803
H109	H	1.100224	-0.049242	0.223499
H110	H	1.100742	-0.012301	0.140627
H111	H	1.220748	-0.021698	0.285804
H112	H	1.221286	0.015244	0.202925
H113	H	1.055103	-0.463096	-0.242819
H114	H	0.944466	0.126294	0.563357
C115	C	0.415477	0.196747	0.000049
C116	C	0.486020	0.158719	0.000053
H117	H	0.439471	0.226948	0.000044
H118	H	0.379562	0.194548	-0.055155
H119	H	0.379563	0.194540	0.055265
H120	H	0.521930	0.160924	-0.055168
H121	H	0.521949	0.160920	0.055262
C122	C	0.200858	0.146491	0.000085
C123	C	0.290201	0.156723	0.000068
H124	H	0.161549	0.176047	0.000078
H125	H	0.190211	0.128246	-0.055110
H126	H	0.190221	0.128246	0.055311
H127	H	0.300840	0.174965	-0.055162
H128	H	0.300853	0.174976	0.055269
H129	H	0.347669	-0.015452	0.000130
C130	C	1.052279	-0.611321	-0.249178
C131	C	1.053226	-0.561743	-0.267413
H132	H	1.051949	-0.628424	-0.307742
H133	H	1.104296	-0.623243	-0.213720
H134	H	0.999939	-0.615920	-0.213715
H135	H	1.105570	-0.557144	-0.302869
H136	H	1.001203	-0.549818	-0.302885
C137	C	0.978647	-0.434081	-0.272712
C138	C	1.056109	-0.410484	-0.267407
H139	H	0.978336	-0.451171	-0.331293
H140	H	0.978227	-0.456322	-0.221333
H141	H	0.926843	-0.410752	-0.269124
H142	H	1.107913	-0.433814	-0.270988
H143	H	1.056538	-0.388242	-0.318801
C144	C	0.872504	0.109952	0.508308
C145	C	0.926996	0.135641	0.450981
H146	H	0.830923	0.132222	0.542122
H147	H	0.840615	0.089807	0.469447
H148	H	0.909021	0.090412	0.552245
H149	H	0.890480	0.155179	0.407039
H150	H	0.958888	0.155795	0.489845
H151	H	1.166848	0.007223	0.436806
H152	H	1.166870	0.007228	0.563382
H153	H	1.050722	-0.695037	-0.156540
C154	C	1.054573	-0.488771	0.343277
C155	C	1.055194	-0.455980	0.267540
H156	H	1.054911	-0.471677	0.401851
H157	H	1.002020	-0.504771	0.339684
H158	H	1.106378	-0.512099	0.339668
H159	H	1.003385	-0.432654	0.271146
H160	H	1.107752	-0.439972	0.271135
C161	C	1.057375	-0.337502	0.343305
C162	C	1.058011	-0.304715	0.267562
H163	H	1.057685	-0.320403	0.401876
H164	H	1.004830	-0.353508	0.339693
H165	H	1.109188	-0.360825	0.339720
H166	H	1.006194	-0.281394	0.271143
H167	H	1.110561	-0.288701	0.271175
H168	H	0.944491	0.126298	0.744151
H169	H	0.635377	-0.012511	0.000123
H170	H	0.804617	-0.010786	0.000095
C171	C	0.983008	-0.202237	0.186537
C172	C	1.060474	-0.178640	0.181272
H173	H	0.982691	-0.219357	0.245098
H174	H	0.931212	-0.178909	0.182963
H175	H	0.982594	-0.224456	0.135127
H176	H	1.060885	-0.156419	0.232678
H177	H	1.112283	-0.201972	0.184856
H178	H	0.944438	0.126287	0.255984
H179	H	1.062373	-0.079936	-0.156470
H180	H	1.057975	-0.311849	-0.242804
C181	C	1.061101	-0.145782	-0.256818
C182	C	1.060474	-0.178573	-0.181082
H183	H	1.060774	-0.162876	-0.315393
H184	H	1.009304	-0.122456	-0.253216
H185	H	1.113662	-0.129781	-0.253217
H186	H	1.007909	-0.194572	-0.184680
H187	H	1.112276	-0.201907	-0.184687
H188	H	1.048987	-0.786510	-0.156539
H189	H	1.056164	-0.403358	0.242968
H190	H	1.062335	-0.079970	0.156690
