data_functionalizedCrystal
_audit_creation_method	'MofGen! by Chris Wilmer'
_symmetry_space_group_name_H-M	'P1'
_symmetry_Int_Tables_number	1
_symmetry_cell_setting	triclinic
loop_
_symmetry_equiv_pos_as_xyz
  x,y,z
_cell_length_a	21.295419
_cell_length_b	21.295417
_cell_length_c	17.639306
_cell_angle_alpha	101.182150
_cell_angle_beta	78.772373
_cell_angle_gamma	90.045308
loop_
_atom_site_label
_atom_site_type_symbol
_atom_site_fract_x
_atom_site_fract_y
_atom_site_fract_z
Zn1	Zn	1.034217	-0.322293	-0.446872
Zn2	Zn	1.012864	-0.406289	-0.314692
Zn3	Zn	0.907689	-0.301069	-0.314717
Zn4	Zn	0.928901	-0.427547	-0.446818
O5	O	0.970918	-0.364299	-0.380775
O6	O	1.119476	-0.333421	-0.429350
O7	O	0.981098	-0.374553	-0.204093
O8	O	0.924532	-0.215800	-0.332280
O9	O	1.103788	-0.395133	-0.332238
O10	O	1.017492	-0.231393	-0.429374
O11	O	0.903826	-0.297248	-0.204111
O12	O	0.822411	-0.317860	-0.332228
O13	O	0.960686	-0.431363	-0.557428
O14	O	0.837996	-0.410783	-0.429282
O15	O	1.038061	-0.354034	-0.557467
O16	O	1.001667	-0.497193	-0.332186
O17	O	0.939980	-0.512811	-0.429258
C18	C	0.807363	-0.364326	-0.380753
C19	C	0.737396	-0.364356	-0.380762
C20	C	0.712733	-0.332301	-0.431406
C21	C	0.646991	-0.332284	-0.431409
C22	C	0.605916	-0.364335	-0.380776
C23	C	0.630585	-0.396391	-0.330122
C24	C	0.696325	-0.396402	-0.330115
N25	N	0.501647	-0.418419	-0.374599
N26	N	0.439197	-0.418409	-0.374611
C27	C	0.407844	-0.364306	-0.380794
N28	N	0.441302	-0.310215	-0.386980
N29	N	0.503758	-0.310227	-0.386973
C30	C	0.534631	-0.364328	-0.380778
C31	C	0.311897	-0.332230	-0.431444
C32	C	0.246152	-0.332211	-0.431442
C33	C	0.229748	-0.396325	-0.330159
C34	C	0.295490	-0.396337	-0.330157
C35	C	0.336561	-0.364291	-0.380804
C36	C	0.970828	-0.527844	-0.380731
C37	C	0.970852	-0.597813	-0.380739
C38	C	1.003016	-0.622535	-0.330245
C39	C	1.003049	-0.688281	-0.330263
C40	C	0.970904	-0.729300	-0.380766
C41	C	0.938738	-0.704572	-0.431270
C42	C	0.938712	-0.638828	-0.431256
N43	N	0.916805	-0.833549	-0.386784
N44	N	0.916830	-0.896001	-0.386792
C45	C	0.970982	-0.927382	-0.380811
N46	N	1.025105	-0.893948	-0.374806
N47	N	1.025078	-0.831489	-0.374794
C48	C	0.970929	-0.800589	-0.380787
C49	C	1.003184	-1.023392	-0.330334
C50	C	1.003218	-1.089140	-0.330357
C51	C	0.938902	-1.105429	-0.431360
C52	C	0.938874	-1.039684	-0.431341
C53	C	0.971013	-0.998668	-0.380824
C54	C	1.135112	-0.364273	-0.380797
C55	C	1.205081	-0.364262	-0.380807
C56	C	1.004121	-0.397437	-0.586927
C57	C	1.018271	-0.411558	-0.674777
C58	C	0.971028	-0.200119	-0.380836
C59	C	0.971074	-0.130155	-0.380862
C60	C	0.863670	-0.256787	-0.963776
C61	C	0.876980	-0.270069	-1.046324
C62	C	0.957435	-0.350558	-1.046286
C63	C	0.944134	-0.337280	-0.963736
C64	C	0.897251	-0.290395	-0.922487
C65	C	0.977714	-0.370888	-0.922447
C66	C	0.964412	-0.357614	-0.839904
C67	C	0.917529	-0.310731	-0.798650
C68	C	0.883948	-0.277120	-0.839944
C69	C	1.024594	-0.417777	-0.963697
C70	C	1.058175	-0.451385	-0.922408
C71	C	1.044876	-0.438107	-0.839863
C72	C	0.997993	-0.391225	-0.798609
C73	C	1.078457	-0.471719	-0.798569
C74	C	1.065154	-0.458444	-0.716026
C75	C	0.984691	-0.377950	-0.716066
C76	C	0.937879	-0.331245	-0.175424
C77	C	0.923852	-0.316947	-0.087575
H78	H	0.716404	-0.422505	-0.288873
H79	H	1.035425	-0.428582	-1.030908
O80	O	1.037872	-0.979156	-0.275874
H81	H	1.032449	-0.929286	-0.284346
H82	H	0.912679	-1.019553	-0.472454
O83	O	0.813105	-0.206215	-0.919275
H84	H	0.791985	-0.185074	-0.961852
O85	O	1.037753	-0.714944	-0.275801
H86	H	1.075479	-0.750530	-0.311225
H87	H	1.116624	-0.509898	-0.832165
H88	H	0.345338	-0.306131	-0.472679
O89	O	0.903184	-0.296410	-0.709620
H90	H	0.864941	-0.258164	-0.687876
O91	O	1.101375	-0.494685	-0.671483
H92	H	1.136216	-0.529511	-0.714033
O93	O	1.037910	-1.115809	-0.275892
H94	H	1.060247	-1.076240	-0.240759
O95	O	0.904233	-1.149663	-0.485836
H96	H	0.852640	-1.134915	-0.472224
O97	O	0.219547	-0.297634	-0.486065
H98	H	0.259153	-0.275358	-0.521283
O99	O	0.833386	-0.226543	-0.795450
H100	H	0.829784	-0.222957	-0.731117
O101	O	0.934125	-0.327376	-0.671574
H102	H	0.956267	-0.289299	-0.633989
O103	O	0.185453	-0.430889	-0.275538
H104	H	0.200191	-0.482473	-0.288969
O105	O	0.757030	-0.297725	-0.486015
H106	H	0.728830	-0.275424	-0.521225
O107	O	0.904005	-0.612156	-0.485704
H108	H	0.881652	-0.651721	-0.520821
H109	H	0.849634	-0.242696	-1.079939
H110	H	0.995605	-0.388735	-1.079881
H111	H	1.096345	-0.489562	-0.956003
O112	O	0.322098	-0.430914	-0.275536
H113	H	0.282493	-0.453201	-0.240330
H114	H	0.912567	-0.737975	-0.472391
O115	O	1.037692	-0.578302	-0.275771
H116	H	1.016952	-0.580986	-0.213729
O117	O	0.620379	-0.297715	-0.486040
H118	H	0.659984	-0.275438	-0.521260
H119	H	0.597137	-0.422487	-0.288896
