data_functionalizedCrystal
_audit_creation_method	'MofGen! by Chris Wilmer'
_symmetry_space_group_name_H-M	'P1'
_symmetry_Int_Tables_number	1
_symmetry_cell_setting	triclinic
loop_
_symmetry_equiv_pos_as_xyz
  x,y,z
_cell_length_a	17.699077
_cell_length_b	17.699083
_cell_length_c	16.776229
_cell_angle_alpha	89.999799
_cell_angle_beta	89.993415
_cell_angle_gamma	83.281795
loop_
_atom_site_label
_atom_site_type_symbol
_atom_site_fract_x
_atom_site_fract_y
_atom_site_fract_z
O1	O	1.004081	0.095691	-0.066266
O2	O	1.337415	0.429025	0.267067
O3	O	1.670748	0.762358	0.600400
O4	O	0.783702	0.108149	-0.066269
O5	O	1.117036	0.441482	0.267065
O6	O	1.450369	0.774815	0.600398
O7	O	0.900118	-0.008269	-0.066275
O8	O	1.233451	0.325064	0.267058
O9	O	1.566785	0.658397	0.600391
O10	O	0.887666	0.212109	-0.066260
O11	O	1.220999	0.545443	0.267074
O12	O	1.554332	0.878776	0.600407
O13	O	0.900103	-0.008276	0.066301
O14	O	1.233436	0.325057	0.399635
O15	O	1.566769	0.658390	0.732968
O16	O	0.783687	0.108142	0.066308
O17	O	1.117020	0.441475	0.399641
O18	O	1.450354	0.774808	0.732974
O19	O	1.004066	0.095684	0.066310
O20	O	1.337399	0.429018	0.399644
O21	O	1.670733	0.762351	0.732977
Zn22	Zn	0.893874	0.101912	0.087358
Zn23	Zn	1.227207	0.435245	0.420692
Zn24	Zn	1.560541	0.768578	0.754025
Zn25	Zn	0.893894	0.101921	-0.087317
Zn26	Zn	1.227228	0.435255	0.246016
Zn27	Zn	1.560561	0.768588	0.579350
O28	O	0.887650	0.212102	0.066317
O29	O	1.220984	0.545436	0.399650
O30	O	1.554317	0.878769	0.732983
C31	C	0.755498	0.107700	0.000019
C32	C	1.088831	0.441033	0.333352
C33	C	1.422164	0.774366	0.666686
C34	C	0.671479	0.106363	0.000018
C35	C	1.004813	0.439696	0.333351
C36	C	1.338146	0.773029	0.666684
C37	C	0.899664	-0.036470	0.000009
C38	C	1.232998	0.296864	0.333343
C39	C	1.566331	0.630197	0.666676
C40	C	0.898326	-0.120488	-0.000002
C41	C	1.231659	0.212845	0.333332
C42	C	1.564992	0.546179	0.666665
C43	C	0.632003	0.105729	0.072286
C44	C	0.965337	0.439062	0.405619
C45	C	1.298670	0.772396	0.738952
C46	C	0.553061	0.104461	0.072287
C47	C	0.886394	0.437794	0.405620
C48	C	1.219728	0.771127	0.738953
C49	C	0.513595	0.103832	0.000018
C50	C	0.846928	0.437165	0.333352
C51	C	1.180262	0.770498	0.666685
C52	C	0.553076	0.104463	-0.072256
C53	C	0.886410	0.437797	0.261078
C54	C	1.219743	0.771130	0.594411
C55	C	0.632018	0.105726	-0.072256
C56	C	0.965352	0.439059	0.261078
C57	C	1.298685	0.772393	0.594411
C58	C	0.234713	0.099370	-0.072258
C59	C	0.568047	0.432703	0.261076
C60	C	0.901380	0.766037	0.594409
C61	C	0.155766	0.098110	-0.072252
C62	C	0.489099	0.431443	0.261081
C63	C	0.822432	0.764776	0.594415
C64	C	0.155756	0.098105	0.072285
C65	C	0.489089	0.431438	0.405618
C66	C	0.822422	0.764771	0.738951
C67	C	0.234698	0.099367	0.072285
C68	C	0.568031	0.432701	0.405618
C69	C	0.901364	0.766034	0.738951
C70	C	0.274173	0.099995	0.000011
C71	C	0.607506	0.433328	0.333345
C72	C	0.940840	0.766662	0.666678
C73	C	0.359771	0.101369	0.000011
C74	C	0.693105	0.434702	0.333345
C75	C	1.026438	0.768035	0.666678
C76	C	0.427997	0.102464	0.000017
C77	C	0.761330	0.435797	0.333351
C78	C	1.094664	0.769130	0.666684
C79	C	1.032271	0.096133	0.000021
C80	C	1.365604	0.429467	0.333354
C81	C	1.698937	0.762800	0.666687
C82	C	1.116289	0.097470	0.000017
C83	C	1.449622	0.430804	0.333350
C84	C	1.782956	0.764137	0.666684
N85	N	0.893866	0.101905	0.206570
N86	N	1.227199	0.435238	0.539903
N87	N	1.560532	0.768572	0.873236
C88	C	0.888104	0.240303	0.000030
C89	C	1.221437	0.573636	0.333364
C90	C	1.554771	0.906969	0.666697
C91	C	0.889443	0.324321	0.000036
C92	C	1.222776	0.657654	0.333370
C93	C	1.556109	0.990988	0.666703
C94	C	0.821109	0.372943	0.000036
C95	C	1.154442	0.706277	0.333369
C96	C	1.487776	1.039610	0.666702
C97	C	0.822371	0.451887	0.000026
C98	C	1.155705	0.785220	0.333360
C99	C	1.489038	1.118553	0.666693
C100	C	0.891968	0.482206	0.000023
C101	C	1.225301	0.815539	0.333357
C102	C	1.558635	1.148873	0.666690
C103	C	0.960307	0.433577	0.000022
C104	C	1.293640	0.766911	0.333355
C105	C	1.626974	1.100244	0.666688
C106	C	0.959044	0.354636	0.000025
C107	C	1.292377	0.687969	0.333359
C108	C	1.625710	1.021302	0.666692
C109	C	0.965402	0.751940	0.000006
C110	C	1.298735	1.085274	0.333339
C111	C	1.632069	1.418607	0.666673
C112	C	0.966660	0.830888	0.000005
C113	C	1.299993	1.164221	0.333338
C114	C	1.633327	1.497555	0.666671
C115	C	0.828730	0.849191	0.000007
C116	C	1.162063	1.182525	0.333340
C117	C	1.495396	1.515858	0.666674
C118	C	0.827467	0.770250	0.000010
C119	C	1.160800	1.103583	0.333344
C120	C	1.494133	1.436916	0.666677
C121	C	0.895805	0.721628	0.000005
C122	C	1.229138	1.054961	0.333338
C123	C	1.562472	1.388294	0.666671
C124	C	0.894436	0.636029	0.000013
C125	C	1.227769	0.969362	0.333347
C126	C	1.561102	1.302695	0.666680
C127	C	0.893338	0.567804	0.000020
C128	C	1.226672	0.901137	0.333354
C129	C	1.560005	1.234470	0.666687
N130	N	0.893909	0.101922	-0.206528
N131	N	1.227242	0.435255	0.126805
N132	N	1.560575	0.768589	0.460139
C133	C	0.945430	0.050376	0.248284
C134	C	1.278764	0.383709	0.581617
C135	C	1.612097	0.717043	0.914950
C136	C	0.945434	0.050376	0.331736
C137	C	1.278768	0.383709	0.665069
C138	C	1.612101	0.717042	0.998403
C139	C	0.893877	0.101908	0.373473
C140	C	1.227210	0.435241	0.706806
C141	C	1.560544	0.768575	1.040139
C142	C	0.842307	0.153439	0.331753
C143	C	1.175640	0.486772	0.665086
C144	C	1.508974	0.820106	0.998419
C145	C	0.842300	0.153435	0.248302
C146	C	1.175633	0.486769	0.581635
C147	C	1.508966	0.820102	0.914968
C148	C	0.842334	0.153454	0.668300
C149	C	1.175668	0.486787	1.001633
C150	C	1.509001	0.820121	1.334966
C151	C	0.842347	0.153455	0.751756
C152	C	1.175680	0.486788	1.085090
C153	C	1.509014	0.820122	1.418423
C154	C	0.945469	0.050394	0.751734
C155	C	1.278802	0.383727	1.085067
C156	C	1.612136	0.717061	1.418401
C157	C	0.945462	0.050390	0.668283
C158	C	1.278795	0.383724	1.001617
C159	C	1.612128	0.717057	1.334950
C160	C	0.893889	0.101919	0.626570
C161	C	1.227223	0.435252	0.959904
C162	C	1.560556	0.768585	1.293237
C163	C	0.893885	0.101918	0.536082
C164	C	1.227218	0.435251	0.869415
C165	C	1.560551	0.768584	1.202749
C166	C	0.893885	0.101913	0.463959
C167	C	1.227218	0.435246	0.797293
C168	C	1.560552	0.768580	1.130626
H169	H	0.664130	0.106247	0.131135
H170	H	0.997464	0.439581	0.464469
H171	H	1.330797	0.772914	0.797802
H172	H	0.520925	0.103932	0.131135
H173	H	0.854258	0.437265	0.464468
H174	H	1.187592	0.770599	0.797801
H175	H	0.800344	0.195411	0.634344
H176	H	1.133677	0.528745	0.967677
H177	H	1.467010	0.862078	1.301010
H178	H	0.987460	0.008434	0.785705
H179	H	1.320793	0.341768	1.119039
H180	H	1.654127	0.675101	1.452372
H181	H	0.770794	0.745568	0.000017
H182	H	1.104127	1.078902	0.333350
H183	H	1.437461	1.412235	0.666684
O184	O	1.041728	0.863594	-0.000014
O185	O	1.375061	1.196928	0.333320
O186	O	1.708394	1.530261	0.666653
H187	H	1.089036	0.816523	-0.000028
H188	H	1.422370	1.149856	0.333305
H189	H	1.755703	1.483190	0.666638
O190	O	1.039112	0.699512	0.000009
O191	O	1.372445	1.032845	0.333343
O192	O	1.705779	1.366178	0.666676
H193	H	1.041853	0.663111	-0.054030
H194	H	1.375186	0.996444	0.279304
H195	H	1.708520	1.329778	0.612637
O196	O	1.001023	-0.005219	0.203266
O197	O	1.334357	0.328114	0.536599
O198	O	1.667690	0.661448	0.869933
H199	H	1.037751	0.026580	0.165232
H200	H	1.371085	0.359914	0.498565
H201	H	1.704418	0.693247	0.831898
H202	H	0.266826	0.099883	0.131133
H203	H	0.600160	0.433217	0.464466
H204	H	0.933493	0.766550	0.797800
O205	O	0.786702	0.209029	0.376762
O206	O	1.120035	0.542362	0.710096
O207	O	1.453369	0.875695	1.043429
H208	H	0.749984	0.177223	0.414802
H209	H	1.083318	0.510556	0.748135
H210	H	1.416651	0.843889	1.081469
O211	O	1.035375	0.466273	0.000018
O212	O	1.368709	0.799606	0.333352
O213	O	1.702042	1.132939	0.666685
H214	H	1.024775	0.529335	0.000024
H215	H	1.358108	0.862668	0.333357
H216	H	1.691442	1.196001	0.666691
H217	H	0.123635	0.097597	-0.131105
H218	H	0.456968	0.430930	0.202228
H219	H	0.790301	0.764263	0.535561
H220	H	0.266845	0.099879	-0.131107
H221	H	0.600178	0.433212	0.202226
H222	H	0.933511	0.766545	0.535560
H223	H	1.014688	0.315047	0.000023
H224	H	1.348021	0.648381	0.333356
H225	H	1.681355	0.981714	0.666689
O226	O	0.113135	0.097776	0.150241
O227	O	0.446468	0.431110	0.483574
O228	O	0.779802	0.764443	0.816907
H229	H	0.051595	0.096914	0.138104
H230	H	0.384928	0.430248	0.471438
H231	H	0.718262	0.763581	0.804771
O232	O	0.786748	0.209050	0.796777
O233	O	1.120082	0.542383	1.130111
O234	O	1.453415	0.875717	1.463444
H235	H	0.750885	0.244881	0.753753
H236	H	1.084219	0.578215	1.087086
H237	H	1.417552	0.911548	1.420419
H238	H	0.800310	0.195394	0.214339
H239	H	1.133643	0.528728	0.547672
H240	H	1.466976	0.862061	0.881006
H241	H	0.987422	0.008417	0.365699
H242	H	1.320755	0.341750	0.699033
H243	H	1.654088	0.675083	1.032366
H244	H	0.987447	0.008431	0.634304
H245	H	1.320780	0.341764	0.967637
H246	H	1.654114	0.675097	1.300971
O247	O	0.748665	0.504325	0.000040
O248	O	1.081998	0.837659	0.333373
O249	O	1.415332	1.170992	0.666707
H250	H	0.715348	0.493555	-0.053986
H251	H	1.048681	0.826888	0.279347
H252	H	1.382014	1.160221	0.612681
H253	H	0.520938	0.103946	-0.131098
H254	H	0.854271	0.437279	0.202236
H255	H	1.187604	0.770613	0.535569
H256	H	0.664158	0.106244	-0.131104
H257	H	0.997492	0.439577	0.202229
H258	H	1.330825	0.772910	0.535563
H259	H	0.764435	0.348264	0.000047
H260	H	1.097769	0.681597	0.333381
H261	H	1.431102	1.014931	0.666714
H262	H	0.773085	0.888789	0.000009
H263	H	1.106419	1.222122	0.333342
H264	H	1.439752	1.555456	0.666675
