data_functionalizedCrystal
_audit_creation_method	'MofGen! by Chris Wilmer'
_symmetry_space_group_name_H-M	'P1'
_symmetry_Int_Tables_number	1
_symmetry_cell_setting	triclinic
loop_
_symmetry_equiv_pos_as_xyz
  x,y,z
_cell_length_a	11.026607
_cell_length_b	17.699083
_cell_length_c	16.176319
_cell_angle_alpha	90.001389
_cell_angle_beta	89.996049
_cell_angle_gamma	84.065484
loop_
_atom_site_label
_atom_site_type_symbol
_atom_site_fract_x
_atom_site_fract_y
_atom_site_fract_z
O1	O	0.153399	-1.025155	-0.068626
O2	O	0.173357	-0.807518	-0.068652
O3	O	-0.013222	-0.898299	-0.068638
O4	O	0.339978	-0.934374	-0.068640
O5	O	-0.013234	-0.898282	0.068855
O6	O	0.173345	-0.807501	0.068841
O7	O	0.153387	-1.025137	0.068867
Cu8	Cu	0.163365	-0.916317	0.081408
Cu9	Cu	0.163379	-0.916338	-0.081193
O10	O	0.339966	-0.934357	0.068853
C11	C	0.172636	-0.779214	0.000091
C12	C	0.170490	-0.694902	0.000080
C13	C	-0.058419	-0.891635	0.000106
C14	C	-0.193075	-0.871796	0.000101
N15	N	0.163354	-0.916308	0.195773
C16	C	-0.267042	-0.926576	0.000107
C17	C	-0.406216	-0.906072	0.000101
C18	C	0.385163	-0.941021	0.000107
C19	C	0.519819	-0.960860	0.000106
C20	C	0.154108	-1.053441	0.000122
C21	C	0.156254	-1.137754	0.000127
C22	C	0.280008	-0.661328	0.000080
C23	C	0.277985	-0.582106	0.000091
C24	C	0.166443	-0.536460	0.000096
C25	C	0.056917	-0.570039	0.000099
C26	C	0.058941	-0.649259	0.000094
C27	C	0.048751	-0.250554	0.000119
C28	C	0.046735	-0.171329	0.000121
C29	C	0.267794	-0.183402	0.000116
C30	C	0.269819	-0.262621	0.000111
C31	C	0.160293	-0.296194	0.000118
C32	C	0.162488	-0.382094	0.000108
C33	C	0.164247	-0.450561	0.000100
N34	N	0.163380	-0.916352	-0.195559
C35	C	0.080771	-0.956526	0.239044
C36	C	0.080770	-0.956530	0.325591
C37	C	0.163358	-0.916320	0.368866
C38	C	0.245946	-0.876097	0.325590
C39	C	0.245940	-0.876089	0.239044
C40	C	0.245969	-0.876126	0.674618
C41	C	0.245970	-0.876138	0.761169
C42	C	0.080798	-0.956566	0.761165
C43	C	0.080792	-0.956559	0.674619
C44	C	0.163375	-0.916333	0.631350
C45	C	0.163374	-0.916328	0.537506
C46	C	0.163366	-0.916328	0.462709
H47	H	-0.227333	-0.988654	0.000119
O48	O	-0.458789	-0.823834	0.000096
H49	H	-0.559851	-0.820634	0.000102
H50	H	0.370838	-0.698488	0.000075
H51	H	-0.033903	-0.532868	0.000115
O52	O	0.334997	-0.832696	0.192374
H53	H	0.321104	-0.839433	0.124924
O54	O	-0.427611	-1.043099	0.000121
H55	H	-0.326549	-1.046300	0.000130
H56	H	0.356975	-0.156058	0.000115
O57	O	0.396106	-0.545891	0.000091
H58	H	0.474008	-0.590941	0.000077
H59	H	-0.232783	-0.809717	0.000088
O60	O	0.390123	-0.311856	0.000118
H61	H	0.465940	-0.275200	0.000131
H62	H	0.013523	-0.989277	0.360821
O63	O	-0.073576	-0.122092	0.000141
H64	H	-0.149397	-0.158745	0.000156
H65	H	-0.030240	-0.676594	0.000094
O66	O	-0.069374	-0.286761	0.000126
H67	H	-0.147272	-0.241709	0.000123
O68	O	-0.008312	-0.999892	0.192369
H69	H	-0.065746	-1.027851	0.237002
O70	O	-0.008291	-0.999923	0.627941
H71	H	-0.065728	-1.027883	0.672571
H72	H	0.013551	-0.989318	0.796403
H73	H	0.313226	-0.843392	0.796403
O74	O	0.335046	-0.832750	0.627953
H75	H	0.392483	-0.804801	0.672587
O76	O	0.335033	-0.832729	0.372258
H77	H	0.321175	-0.839498	0.439709
