data_functionalizedCrystal
_audit_creation_method	'MofGen! by Chris Wilmer'
_symmetry_space_group_name_H-M	'P1'
_symmetry_Int_Tables_number	1
_symmetry_cell_setting	triclinic
loop_
_symmetry_equiv_pos_as_xyz
  x,y,z
_cell_length_a	23.532407
_cell_length_b	11.792241
_cell_length_c	10.868271
_cell_angle_alpha	89.994719
_cell_angle_beta	90.001021
_cell_angle_gamma	83.521047
loop_
_atom_site_label
_atom_site_type_symbol
_atom_site_fract_x
_atom_site_fract_y
_atom_site_fract_z
O1	O	-0.756076	-0.137772	0.102169
O2	O	-0.422742	0.195562	0.435503
O3	O	-0.089409	0.528895	0.768836
O4	O	-0.590331	-0.157706	0.102205
O5	O	-0.256997	0.175627	0.435539
O6	O	0.076336	0.508961	0.768872
O7	O	-0.677225	0.017526	0.102178
O8	O	-0.343892	0.350860	0.435511
O9	O	-0.010559	0.684193	0.768845
O10	O	-0.669181	-0.313004	0.102197
O11	O	-0.335848	0.020329	0.435530
O12	O	-0.002514	0.353663	0.768864
O13	O	-0.677218	0.017533	-0.102467
O14	O	-0.343885	0.350866	0.230867
O15	O	-0.010552	0.684200	0.564200
O16	O	-0.590323	-0.157699	-0.102439
O17	O	-0.256990	0.175634	0.230894
O18	O	0.076343	0.508967	0.564227
O19	O	-0.756069	-0.137765	-0.102475
O20	O	-0.422735	0.195568	0.230858
O21	O	-0.089402	0.528902	0.564191
Zn22	Zn	-0.673195	-0.147731	-0.134949
Zn23	Zn	-0.339862	0.185602	0.198384
Zn24	Zn	-0.006528	0.518936	0.531718
Zn25	Zn	-0.673204	-0.147740	0.134679
Zn26	Zn	-0.339871	0.185594	0.468012
Zn27	Zn	-0.006538	0.518927	0.801346
O28	O	-0.669174	-0.312997	-0.102448
O29	O	-0.335840	0.020336	0.230886
O30	O	-0.002507	0.353669	0.564219
C31	C	-0.569108	-0.157195	-0.000112
C32	C	-0.235775	0.176138	0.333221
C33	C	0.097559	0.509472	0.666554
C34	C	-0.505882	-0.155669	-0.000099
C35	C	-0.172549	0.177665	0.333235
C36	C	0.160785	0.510998	0.666568
C37	C	-0.676716	0.059809	-0.000144
C38	C	-0.343383	0.393142	0.333189
C39	C	-0.010050	0.726476	0.666523
C40	C	-0.675204	0.185787	-0.000142
C41	C	-0.341871	0.519120	0.333191
C42	C	-0.008537	0.852454	0.666524
C43	C	-0.777291	-0.138276	-0.000155
C44	C	-0.443958	0.195057	0.333178
C45	C	-0.110625	0.528391	0.666512
C46	C	-0.840517	-0.139802	-0.000160
C47	C	-0.507184	0.193531	0.333173
C48	C	-0.173851	0.526865	0.666506
C49	C	-0.107337	-0.249795	-0.000149
C50	C	0.225997	0.083538	0.333184
C51	C	0.559330	0.416872	0.666518
C52	C	-0.047928	-0.248377	-0.000157
C53	C	0.285405	0.084956	0.333177
C54	C	0.618739	0.418290	0.666510
O55	O	-0.011701	-0.335633	-0.000196
O56	O	0.321633	-0.002300	0.333137
O57	O	0.654966	0.331034	0.666470
N58	N	-0.024684	-0.144202	-0.000161
N59	N	0.308649	0.189132	0.333173
N60	N	0.641982	0.522465	0.666506
C61	C	-0.060853	-0.041437	-0.000169
C62	C	0.272480	0.291896	0.333164
C63	C	0.605814	0.625230	0.666497
O64	O	-0.035627	0.047303	-0.000175
O65	O	0.297706	0.380636	0.333159
O66	O	0.631039	0.713969	0.666492
C67	C	-0.120260	-0.042856	-0.000171
C68	C	0.213073	0.290477	0.333163
C69	C	0.546406	0.623811	0.666496
C70	C	-0.143501	-0.147038	-0.000154
C71	C	0.189833	0.186295	0.333179
C72	C	0.523166	0.519628	0.666512
C73	C	-0.130577	-0.353969	-0.000134
C74	C	0.202756	-0.020635	0.333199
C75	C	0.536089	0.312698	0.666533
C76	C	-0.189982	-0.355386	-0.000124
C77	C	0.143352	-0.022053	0.333209
C78	C	0.476685	0.311281	0.666543
C79	C	-0.226146	-0.252630	-0.000129
C80	C	0.107188	0.080704	0.333204
C81	C	0.440521	0.414037	0.666537
C82	C	-0.202905	-0.148456	-0.000144
C83	C	0.130428	0.184878	0.333189
C84	C	0.463762	0.518211	0.666522
C85	C	-0.156428	0.059907	-0.000188
C86	C	0.176905	0.393241	0.333145
C87	C	0.510239	0.726574	0.666478
C88	C	-0.215839	0.058479	-0.000190
C89	C	0.117494	0.391813	0.333143
C90	C	0.450828	0.725146	0.666476
C91	C	-0.239079	-0.045703	-0.000174
C92	C	0.094254	0.287630	0.333159
C93	C	0.427588	0.620964	0.666493
C94	C	-0.298474	-0.047116	-0.000140
C95	C	0.034860	0.286217	0.333194
C96	C	0.368193	0.619550	0.666527
N97	N	-0.321717	-0.151292	-0.000136
N98	N	0.011616	0.182041	0.333198
N99	N	0.344950	0.515375	0.666531
C100	C	-0.285553	-0.254049	-0.000130
C101	C	0.047780	0.079285	0.333203
C102	C	0.381113	0.412618	0.666536
C103	C	0.063907	-0.038465	-0.000169
C104	C	0.397241	0.294868	0.333164
C105	C	0.730574	0.628202	0.666498
C106	C	0.123313	-0.037045	-0.000159
C107	C	0.456647	0.296288	0.333174
C108	C	0.789980	0.629622	0.666508
C109	C	0.136234	-0.243985	-0.000149
C110	C	0.469568	0.089348	0.333185
C111	C	0.802901	0.422681	0.666518
C112	C	0.076827	-0.245404	-0.000150
C113	C	0.410160	0.087929	0.333184
C114	C	0.743494	0.421262	0.666517
C115	C	0.040664	-0.142641	-0.000165
C116	C	0.373997	0.190693	0.333168
C117	C	0.707330	0.524026	0.666502
C118	C	-0.410308	-0.257017	-0.000109
C119	C	-0.076974	0.076316	0.333225
C120	C	0.256359	0.409650	0.666558
C121	C	-0.469718	-0.258425	-0.000094
C122	C	-0.136385	0.074908	0.333240
C123	C	0.196949	0.408241	0.666573
C124	C	-0.482634	-0.051485	-0.000111
C125	C	-0.149300	0.281848	0.333223
C126	C	0.184033	0.615181	0.666556
C127	C	-0.423229	-0.050077	-0.000119
C128	C	-0.089895	0.283257	0.333214
C129	C	0.243438	0.616590	0.666548
C130	C	-0.387066	-0.152852	-0.000122
C131	C	-0.053733	0.180482	0.333211
C132	C	0.279600	0.513815	0.666544
O133	O	-0.334736	0.040094	-0.000105
O134	O	-0.001403	0.373427	0.333228
O135	O	0.331931	0.706760	0.666562
O136	O	-0.310787	-0.342774	-0.000141
O137	O	0.022546	-0.009440	0.333192
O138	O	0.355880	0.323893	0.666525
C139	C	-0.669683	-0.355280	-0.000123
C140	C	-0.336349	-0.021946	0.333210
C141	C	-0.003016	0.311387	0.666543
C142	C	-0.671195	-0.481258	-0.000117
C143	C	-0.337862	-0.147924	0.333217
C144	C	-0.004529	0.185409	0.666550
N145	N	-0.673193	-0.147724	-0.318963
N146	N	-0.339859	0.185609	0.014370
N147	N	-0.006526	0.518942	0.347704
C148	C	-0.672423	0.416434	-0.000121
C149	C	-0.339090	0.749767	0.333212
C150	C	-0.005756	1.083100	0.666545
C151	C	-0.673968	0.288085	-0.000133
C152	C	-0.340635	0.621418	0.333201
C153	C	-0.007301	0.954752	0.666534
C154	C	-0.673201	-0.147737	-0.569969
C155	C	-0.339868	0.185596	-0.236636
C156	C	-0.006535	0.518929	0.096698
C157	C	-0.673195	-0.147733	-0.430292
C158	C	-0.339861	0.185600	-0.096958
C159	C	-0.006528	0.518933	0.236375
N160	N	-0.673211	-0.147737	0.318693
N161	N	-0.339878	0.185596	0.652027
N162	N	-0.006544	0.518929	0.985360
H163	H	-0.488636	-0.343267	-0.000079
H164	H	-0.155303	-0.009933	0.333254
H165	H	0.178030	0.323400	0.666587
H166	H	0.142230	0.047791	-0.000153
H167	H	0.475563	0.381124	0.333180
H168	H	0.808897	0.714457	0.666513
H169	H	0.034466	0.045223	-0.000171
H170	H	0.367799	0.378556	0.333163
H171	H	0.701132	0.711890	0.666496
N172	N	-0.398166	0.062296	-0.000139
N173	N	-0.064833	0.395630	0.333195
N174	N	0.268500	0.728963	0.666528
H175	H	-0.373814	0.067497	-0.076012
H176	H	-0.040481	0.400831	0.257321
H177	H	0.292852	0.734164	0.590654
H178	H	-0.373828	0.067443	0.075762
H179	H	-0.040495	0.400776	0.409095
H180	H	0.292839	0.734109	0.742428
H181	H	-0.380871	-0.340707	-0.000115
H182	H	-0.047537	-0.007373	0.333218
H183	H	0.285796	0.325960	0.666552
N184	N	0.175248	-0.354818	-0.000236
N185	N	0.508581	-0.021484	0.333097
N186	N	0.841914	0.311849	0.666430
H187	H	0.151514	-0.421036	-0.000257
H188	H	0.484848	-0.087702	0.333077
H189	H	0.818181	0.245631	0.666410
H190	H	0.200198	-0.358785	0.075600
H191	H	0.533531	-0.025452	0.408933
H192	H	0.866865	0.307882	0.742267
H193	H	-0.208898	-0.440222	-0.000110
H194	H	0.124435	-0.106889	0.333223
H195	H	0.457769	0.226445	0.666556
H196	H	-0.137517	0.144743	-0.000203
H197	H	0.195817	0.478077	0.333131
H198	H	0.529150	0.811410	0.666464
H199	H	-0.101138	-0.437650	-0.000134
H200	H	0.232196	-0.104317	0.333199
H201	H	0.565529	0.229016	0.666532
H202	H	0.057909	-0.330239	-0.000143
H203	H	0.391243	0.003095	0.333190
H204	H	0.724576	0.336428	0.666523
H205	H	-0.245281	0.142164	-0.000204
H206	H	0.088052	0.475497	0.333130
H207	H	0.421386	0.808831	0.666463
H208	H	-0.512089	0.032176	-0.000110
H209	H	-0.178756	0.365509	0.333223
H210	H	0.154578	0.698843	0.666557
