data_functionalizedCrystal
_audit_creation_method	'MofGen! by Chris Wilmer'
_symmetry_space_group_name_H-M	'P1'
_symmetry_Int_Tables_number	1
_symmetry_cell_setting	triclinic
loop_
_symmetry_equiv_pos_as_xyz
  x,y,z
_cell_length_a	10.685980
_cell_length_b	10.686285
_cell_length_c	12.759393
_cell_angle_alpha	94.397013
_cell_angle_beta	94.396603
_cell_angle_gamma	89.665709
loop_
_atom_site_label
_atom_site_type_symbol
_atom_site_fract_x
_atom_site_fract_y
_atom_site_fract_z
Zn1	Zn	1.956351	-0.352377	0.696632
Zn2	Zn	1.972344	-0.562191	0.508600
Zn3	Zn	1.746558	-0.368514	0.506526
Zn4	Zn	1.762659	-0.578165	0.669814
O5	O	1.859478	-0.465312	0.595393
O6	O	2.134025	-0.366770	0.683781
O7	O	1.942347	-0.536568	0.361297
O8	O	1.760956	-0.190826	0.542100
O9	O	2.145775	-0.520920	0.545635
O10	O	1.915090	-0.178970	0.681770
O11	O	1.776463	-0.394275	0.359773
O12	O	1.573141	-0.409764	0.516095
O13	O	1.788398	-0.548145	0.820400
O14	O	1.584971	-0.563793	0.636062
O15	O	1.930703	-0.382260	0.840103
O16	O	1.957960	-0.739857	0.519630
O17	O	1.803906	-0.751593	0.638073
C18	C	1.533537	-0.490264	0.572944
C19	C	1.394100	-0.500969	0.563363
C20	C	1.884450	-0.791240	0.576192
C21	C	1.895248	-0.930665	0.568020
C22	C	2.186692	-0.440263	0.617931
C23	C	2.326131	-0.429589	0.627535
C24	C	1.859563	-0.465184	0.869440
C25	C	1.859599	-0.465130	0.986223
C26	C	1.834443	-0.138108	0.614695
C27	C	1.823774	0.001326	0.622920
C28	C	1.859459	-0.465343	0.322423
C29	C	1.859639	-0.465025	0.205678
C30	C	1.933701	-0.378740	1.051347
C31	C	1.933718	-0.378684	1.161076
C32	C	1.785527	-0.551419	1.140545
C33	C	1.785504	-0.551468	1.030819
H34	H	1.345613	-0.570274	0.501083
H35	H	1.725152	-0.621817	0.977791
C36	C	1.391625	-0.335959	0.711665
N37	N	1.440963	-0.265437	0.775034
H38	H	1.964695	-0.979110	0.514755
H39	H	1.754322	-0.950236	0.676175
C40	C	2.015195	-0.283755	1.002296
N41	N	2.076574	-0.212205	0.965353
C42	C	2.015241	-0.283651	1.232709
N43	N	2.076647	-0.212068	1.286662
C44	C	1.704025	-0.646384	1.189612
N45	N	1.642636	-0.717913	1.226567
