data_functionalizedCrystal
_audit_creation_method	'MofGen! by Chris Wilmer'
_symmetry_space_group_name_H-M	'P1'
_symmetry_Int_Tables_number	1
_symmetry_cell_setting	triclinic
loop_
_symmetry_equiv_pos_as_xyz
  x,y,z
_cell_length_a	18.050589
_cell_length_b	18.050591
_cell_length_c	21.395355
_cell_angle_alpha	89.970606
_cell_angle_beta	89.987098
_cell_angle_gamma	90.024669
loop_
_atom_site_label
_atom_site_type_symbol
_atom_site_fract_x
_atom_site_fract_y
_atom_site_fract_z
Zn1	Zn	-0.295816	1.135363	-0.354367
Zn2	Zn	0.037517	1.468696	-0.021033
Zn3	Zn	0.370851	1.802030	0.312300
Zn4	Zn	-0.419988	1.135253	-0.249600
Zn5	Zn	-0.086654	1.468586	0.083734
Zn6	Zn	0.246679	1.801920	0.417067
Zn7	Zn	-0.295808	1.011161	-0.249595
Zn8	Zn	0.037525	1.344495	0.083739
Zn9	Zn	0.370858	1.677828	0.417072
Zn10	Zn	-0.419961	1.011130	-0.354331
Zn11	Zn	-0.086627	1.344464	-0.020998
Zn12	Zn	0.246706	1.677797	0.312336
O13	O	-0.357893	1.073227	-0.301973
O14	O	-0.024560	1.406560	0.031360
O15	O	0.308774	1.739894	0.364694
O16	O	-0.312302	1.239273	-0.340486
O17	O	0.021031	1.572606	-0.007153
O18	O	0.354365	1.905940	0.326180
O19	O	-0.403523	1.118759	-0.161921
O20	O	-0.070190	1.452092	0.171412
O21	O	0.263144	1.785426	0.504746
O22	O	-0.191885	1.027696	-0.263506
O23	O	0.141449	1.361030	0.069827
O24	O	0.474782	1.694363	0.403161
O25	O	-0.403530	1.239192	-0.263514
O26	O	-0.070197	1.572525	0.069819
O27	O	0.263136	1.905859	0.403152
O28	O	-0.191890	1.118947	-0.340481
O29	O	0.141443	1.452280	-0.007148
O30	O	0.474776	1.785613	0.326185
O31	O	-0.312289	1.027589	-0.161917
O32	O	0.021044	1.360923	0.171416
O33	O	0.354378	1.694256	0.504749
O34	O	-0.312263	0.907233	-0.263471
O35	O	0.021070	1.240566	0.069862
O36	O	0.354404	1.573899	0.403196
O37	O	-0.403485	1.027643	-0.442014
O38	O	-0.070151	1.360976	-0.108680
O39	O	0.263182	1.694310	0.224653
O40	O	-0.403477	0.907210	-0.340420
O41	O	-0.070144	1.240543	-0.007087
O42	O	0.263189	1.573877	0.326246
O43	O	-0.312276	1.118916	-0.442040
O44	O	0.021057	1.452250	-0.108707
O45	O	0.354391	1.785583	0.224627
O46	O	-0.523909	1.118729	-0.263479
O47	O	-0.190575	1.452062	0.069854
O48	O	0.142758	1.785395	0.403187
O49	O	-0.523889	1.027536	-0.340425
O50	O	-0.190556	1.360870	-0.007092
O51	O	0.142778	1.694203	0.326242
C52	C	-0.357867	0.880275	-0.301942
C53	C	-0.024534	1.213608	0.031392
C54	C	0.308800	1.546941	0.364725
C55	C	-0.357874	0.797729	-0.301943
C56	C	-0.024540	1.131062	0.031390
C57	C	0.308793	1.464396	0.364724
C58	C	-0.308220	0.548894	-0.260197
C59	C	0.025113	0.882228	0.073136
C60	C	0.358447	1.215561	0.406470
C61	C	-0.290145	0.598338	-0.317376
C62	C	0.043188	0.931671	0.015957
C63	C	0.376521	1.265004	0.349290
C64	C	-0.357912	0.500609	-0.301994
C65	C	-0.024578	0.833942	0.031339
C66	C	0.308755	1.167275	0.364672
C67	C	-0.375933	0.598247	-0.244793
C68	C	-0.042599	0.931580	0.088540
C69	C	0.290734	1.264914	0.421874
C70	C	-0.357891	0.646594	-0.301966
C71	C	-0.024558	0.979927	0.031367
C72	C	0.308776	1.313260	0.364701
C73	C	-0.339802	0.548965	-0.359204
C74	C	-0.006469	0.882298	-0.025871
C75	C	0.326865	1.215631	0.307462
C76	C	-0.425621	0.548870	-0.286582
C77	C	-0.092288	0.882203	0.046751
C78	C	0.241046	1.215536	0.380085
C79	C	-0.407572	0.598291	-0.343801
C80	C	-0.074238	0.931624	-0.010468
C81	C	0.259095	1.264957	0.322866
C82	C	-0.357922	0.416510	-0.302010
C83	C	-0.024588	0.749844	0.031324
C84	C	0.308745	1.083177	0.364657
C85	C	-0.357881	0.730690	-0.301957
C86	C	-0.024548	1.064024	0.031376
C87	C	0.308785	1.397357	0.364709
C88	C	-0.550845	1.073137	-0.301963
C89	C	-0.217512	1.406471	0.031371
C90	C	0.115821	1.739804	0.364704
C91	C	-0.633391	1.073167	-0.301979
C92	C	-0.300058	1.406500	0.031354
C93	C	0.033276	1.739834	0.364688
C94	C	-0.832858	1.023625	-0.343807
C95	C	-0.499525	1.356959	-0.010474
C96	C	-0.166191	1.690292	0.322859
C97	C	-0.882285	1.005516	-0.286633
C98	C	-0.548951	1.338849	0.046700
C99	C	-0.215618	1.672183	0.380034
C100	C	-0.784521	1.073240	-0.301987
C101	C	-0.451188	1.406573	0.031346
C102	C	-0.117855	1.739907	0.364679
C103	C	-0.882177	1.091386	-0.359168
C104	C	-0.548843	1.424719	-0.025835
C105	C	-0.215510	1.758052	0.307498
C106	C	-0.930506	1.073309	-0.302000
C107	C	-0.597173	1.406642	0.031333
C108	C	-0.263840	1.739976	0.364666
C109	C	-0.832861	1.055095	-0.244783
C110	C	-0.499527	1.388428	0.088551
C111	C	-0.166194	1.721762	0.421884
C112	C	-0.832748	1.140996	-0.317356
C113	C	-0.499415	1.474329	0.015977
C114	C	-0.166082	1.807663	0.349310
C115	C	-0.882153	1.122913	-0.260142
C116	C	-0.548819	1.456246	0.073191
C117	C	-0.215486	1.789579	0.406524
C118	C	-0.700423	1.073198	-0.301981
C119	C	-0.367090	1.406532	0.031353
C120	C	-0.033756	1.739865	0.364686
C121	C	-1.014603	1.073351	-0.302000
C122	C	-0.681270	1.406684	0.031333
C123	C	-0.347936	1.740017	0.364666
C124	C	-0.164188	1.073337	-0.301997
C125	C	0.169146	1.406671	0.031336
C126	C	0.502479	1.740004	0.364670
C127	C	-0.081642	1.073384	-0.302007
C128	C	0.251692	1.406718	0.031326
C129	C	0.585025	1.740051	0.364659
C130	C	-0.357878	1.073289	-0.465396
C131	C	-0.024545	1.406622	-0.132063
C132	C	0.308789	1.739955	0.201270
C133	C	-0.357872	1.073315	-0.535038
C134	C	-0.024538	1.406648	-0.201704
C135	C	0.308795	1.739982	0.131629
C136	C	-0.357920	1.266933	-0.302005
C137	C	-0.024587	1.600266	0.031329
C138	C	0.308747	1.933599	0.364662
C139	C	-0.357931	1.349478	-0.302018
C140	C	-0.024598	1.682812	0.031315
C141	C	0.308735	2.016145	0.364648
C142	C	-0.310377	1.120839	-0.567765
C143	C	0.022956	1.454172	-0.234432
C144	C	0.356289	1.787506	0.098901
C145	C	-0.310345	1.120838	-0.633201
C146	C	0.022988	1.454171	-0.299868
C147	C	0.356321	1.787505	0.033466
C148	C	-0.357821	1.073321	-0.665906
C149	C	-0.024488	1.406654	-0.332573
C150	C	0.308846	1.739987	0.000761
C151	C	-0.405319	1.025787	-0.633170
C152	C	-0.071986	1.359121	-0.299837
C153	C	0.261348	1.692454	0.033496
C154	C	-0.405344	1.025785	-0.567736
C155	C	-0.072011	1.359118	-0.234403
C156	C	0.261323	1.692451	0.098931
C157	C	-0.424690	1.067426	-0.769577
C158	C	-0.091356	1.400759	-0.436243
C159	C	0.241977	1.734092	-0.102910
C160	C	-0.424666	1.067434	-0.835010
C161	C	-0.091332	1.400767	-0.501676
C162	C	0.242001	1.734100	-0.168343
C163	C	-0.357743	1.073325	-0.867727
C164	C	-0.024409	1.406659	-0.534394
C165	C	0.308924	1.739992	-0.201060
C166	C	-0.290842	1.079224	-0.835003
C167	C	0.042492	1.412558	-0.501670
C168	C	0.375825	1.745891	-0.168336
C169	C	-0.290867	1.079221	-0.769569
C170	C	0.042467	1.412555	-0.436235
C171	C	0.375800	1.745888	-0.102902
C172	C	-0.357799	1.073318	-0.736858
C173	C	-0.024465	1.406652	-0.403525
C174	C	0.308868	1.739985	-0.070192
C175	C	-0.310210	1.120851	-0.971407
C176	C	0.023124	1.454184	-0.638074
C177	C	0.356457	1.787517	-0.304741
C178	C	-0.310176	1.120844	-1.036844
C179	C	0.023157	1.454178	-0.703511
C180	C	0.356490	1.787511	-0.370177
C181	C	-0.405157	1.025798	-1.036812
C182	C	-0.071823	1.359131	-0.703479
C183	C	0.261510	1.692465	-0.370145
C184	C	-0.405183	1.025800	-0.971377
C185	C	-0.071850	1.359134	-0.638043
C186	C	0.261484	1.692467	-0.304710
C187	C	-0.357711	1.073331	-0.938678
C188	C	-0.024377	1.406664	-0.605345
C189	C	0.308956	1.739997	-0.272012
C190	C	-0.357855	1.073208	-0.139185
C191	C	-0.024521	1.406542	0.194148
C192	C	0.308812	1.739875	0.527481
C193	C	-0.357652	1.073326	-0.069544
C194	C	-0.024318	1.406659	0.263789
C195	C	0.309015	1.739993	0.597122
H196	H	-0.391183	0.619897	-0.196430
H197	H	-0.057850	0.953231	0.136903
H198	H	0.275483	1.286564	0.470236
H199	H	-0.482873	0.527126	-0.273537
H200	H	-0.149540	0.860459	0.059796
H201	H	0.183793	1.193792	0.393129
H202	H	-0.811212	0.981606	-0.379123
H203	H	-0.477879	1.314939	-0.045790
H204	H	-0.144546	1.648273	0.287543
Br205	Br	-0.918547	0.910063	-0.264966
Br206	Br	-0.585214	1.243396	0.068367
Br207	Br	-0.251881	1.576730	0.401701
Br208	Br	-0.796911	1.029453	-0.164168
Br209	Br	-0.463578	1.362787	0.169165
Br210	Br	-0.130244	1.696120	0.502499
Br211	Br	-0.245782	1.185352	-0.927027
Br212	Br	0.087551	1.518685	-0.593694
Br213	Br	0.420884	1.852018	-0.260360
H214	H	-0.903661	1.164900	-0.224741
H215	H	-0.570328	1.498233	0.108592
H216	H	-0.236994	1.831566	0.441926
H217	H	-0.232874	0.620053	-0.330412
H218	H	0.100460	0.953386	0.002922
H219	H	0.433793	1.286719	0.336255
Br220	Br	-0.515459	1.059438	-0.879414
Br221	Br	-0.182126	1.392772	-0.546081
Br222	Br	0.151208	1.726105	-0.212747
Br223	Br	-0.245725	1.185359	-1.081262
Br224	Br	0.087608	1.518692	-0.747929
Br225	Br	0.420942	1.852025	-0.414595
Br226	Br	-0.477602	0.634212	-0.402758
Br227	Br	-0.144269	0.967545	-0.069425
Br228	Br	0.189065	1.300879	0.263909
Br229	Br	-0.314271	0.513039	-0.439836
Br230	Br	0.019062	0.846372	-0.106503
Br231	Br	0.352395	1.179705	0.226830
H232	H	-0.903839	1.106706	-0.407520
H233	H	-0.570505	1.440039	-0.074187
H234	H	-0.237172	1.773372	0.259146
H235	H	-0.810975	1.198250	-0.330371
H236	H	-0.477642	1.531583	0.002962
H237	H	-0.144309	1.864917	0.336296
H238	H	-0.479173	1.062429	-0.742944
H239	H	-0.145839	1.395763	-0.409611
H240	H	0.187494	1.729096	-0.076277
Br241	Br	-0.469580	0.961300	-1.081190
Br242	Br	-0.136247	1.294633	-0.747857
Br243	Br	0.197087	1.627966	-0.414524
Br244	Br	-0.245948	1.185341	-0.523392
Br245	Br	0.087385	1.518674	-0.190058
Br246	Br	0.420719	1.852008	0.143275
H247	H	-0.271666	1.159536	-0.659853
H248	H	0.061668	1.492869	-0.326520
H249	H	0.395001	1.826203	0.006814
Br250	Br	-0.469746	0.961294	-0.677554
Br251	Br	-0.136412	1.294627	-0.344220
Br252	Br	0.196921	1.627961	-0.010887
H253	H	-0.443863	0.987106	-0.944729
H254	H	-0.110529	1.320439	-0.611396
H255	H	0.222804	1.653772	-0.278063
H256	H	-0.444019	0.987081	-0.541089
H257	H	-0.110686	1.320415	-0.207756
H258	H	0.222648	1.653748	0.125577
Br259	Br	-0.200078	1.087223	-0.725159
Br260	Br	0.133256	1.420556	-0.391826
Br261	Br	0.466589	1.753890	-0.058493
H262	H	-0.266174	0.527208	-0.224906
H263	H	0.067159	0.860541	0.108427
H264	H	0.400492	1.193874	0.441761
Br265	Br	-0.200011	1.087227	-0.879396
Br266	Br	0.133323	1.420560	-0.546063
Br267	Br	0.466656	1.753893	-0.212729
