data_functionalizedCrystal
_audit_creation_method	'MofGen! by Chris Wilmer'
_symmetry_space_group_name_H-M	'P1'
_symmetry_Int_Tables_number	1
_symmetry_cell_setting	triclinic
loop_
_symmetry_equiv_pos_as_xyz
  x,y,z
_cell_length_a	13.262402
_cell_length_b	14.853559
_cell_length_c	11.804365
_cell_angle_alpha	101.849296
_cell_angle_beta	93.583660
_cell_angle_gamma	84.050679
loop_
_atom_site_label
_atom_site_type_symbol
_atom_site_fract_x
_atom_site_fract_y
_atom_site_fract_z
O1	O	1.322388	0.181727	0.329310
O2	O	1.036625	0.177985	0.236747
O3	O	1.187144	0.049101	0.285504
O4	O	1.171869	0.310611	0.280554
O5	O	1.147518	0.082994	0.470724
O6	O	0.996999	0.211878	0.421968
O7	O	1.282762	0.215621	0.514530
Cu8	Cu	1.136262	0.216844	0.485161
Cu9	Cu	1.183124	0.176761	0.266117
O10	O	1.132243	0.344505	0.465774
C11	C	0.980241	0.192023	0.317512
C12	C	0.871272	0.183345	0.282215
C13	C	0.841677	0.160791	0.164666
C14	C	0.739294	0.152647	0.131504
C15	C	0.666495	0.167049	0.215888
C16	C	0.696089	0.189597	0.333440
C17	C	0.798482	0.197749	0.366605
C18	C	0.623300	0.204007	0.417828
C19	C	0.652894	0.226555	0.535380
C20	C	0.755278	0.234705	0.568539
C21	C	0.828076	0.220303	0.484154
C22	C	0.520907	0.195855	0.384663
C23	C	0.477711	0.232813	0.586602
C24	C	0.580095	0.240957	0.619764
C25	C	1.166641	0.032415	0.377888
C26	C	1.164572	-0.067799	0.377212
C27	C	1.177393	-0.509995	0.273404
C28	C	1.134191	-0.473037	0.475338
C29	C	1.136143	-0.378883	0.475972
C30	C	1.158719	-0.350280	0.375319
C31	C	1.179343	-0.415832	0.274033
C32	C	1.115510	-0.313323	0.577252
C33	C	1.117461	-0.219162	0.577890
C34	C	1.140044	-0.190558	0.477238
C35	C	1.160670	-0.256117	0.375949
C36	C	1.183246	-0.227514	0.275296
C37	C	1.203878	-0.293071	0.174008
C38	C	1.201926	-0.387228	0.173382
C39	C	1.141996	-0.096401	0.477864
C40	C	1.185196	-0.133350	0.275926
C41	C	1.339146	0.201582	0.433763
C42	C	1.448117	0.210259	0.469053
C43	C	1.152747	0.361190	0.373387
C44	C	1.154817	0.461402	0.374056
N45	N	1.103309	0.245036	0.639227
N46	N	1.216085	0.148562	0.112053
C47	C	1.295218	0.080845	1.075340
C48	C	1.320146	0.059514	0.958753
C49	C	1.265938	0.105893	0.878866
C50	C	1.186800	0.173607	0.915577
C51	C	1.161874	0.194945	1.032177
C52	C	1.132595	0.219992	0.835703
C53	C	1.053456	0.287706	0.872414
C54	C	1.028535	0.309041	0.989003
C55	C	1.082742	0.262662	1.068890
C56	C	1.157520	0.198654	0.719103
C57	C	1.024177	0.312753	0.675941
C58	C	0.999249	0.334085	0.792528
H59	H	0.604206	0.259317	0.715477
C60	C	1.146798	-0.203823	0.030263
C61	C	1.228682	-0.261627	0.063365
H62	H	1.162112	-0.184406	-0.038039
H63	H	1.087962	-0.236542	0.015692
H64	H	1.134800	-0.151311	0.090683
H65	H	1.240675	-0.314143	0.002948
H66	H	1.287536	-0.228908	0.077931
C67	C	0.974404	0.458593	0.621441
C68	C	0.964585	0.363741	0.588140
H69	H	0.937624	0.490067	0.567228
H70	H	0.948234	0.480985	0.696123
H71	H	1.044016	0.469055	0.623536
H72	H	0.894973	0.353278	0.586053
H73	H	0.990751	0.341342	0.513438
C74	C	0.301585	0.236708	0.625438
C75	C	0.397701	0.248634	0.679369
H76	H	0.252189	0.246469	0.682705
H77	H	0.286267	0.279851	0.576127
H78	H	0.301111	0.175707	0.580919
H79	H	0.398177	0.309637	0.723881
H80	H	0.413023	0.205490	0.728700
C81	C	1.115934	-0.632520	0.128254
C82	C	1.200056	-0.582058	0.162074
H83	H	1.129922	-0.677008	0.059521
H84	H	1.102223	-0.663019	0.188111
H85	H	1.058609	-0.591753	0.114174
H86	H	1.257379	-0.622825	0.176162
H87	H	1.213780	-0.551557	0.102203
H88	H	1.062443	0.280027	1.163825
C89	C	1.128085	-0.044134	0.132160
C90	C	1.209980	-0.101928	0.165262
H91	H	1.143381	-0.024737	0.063838
H92	H	1.069248	-0.076853	0.117622
H93	H	1.116100	0.008391	0.192566
H94	H	1.221960	-0.154456	0.104859
H95	H	1.268834	-0.069209	0.179793
H96	H	1.218723	-0.440612	0.090918
H97	H	1.339351	0.043095	1.140391
H98	H	1.115804	-0.496332	0.557283
C99	C	1.093401	-0.441257	0.665958
C100	C	1.090730	-0.344767	0.687895
H101	H	1.078120	-0.460670	0.734274
H102	H	1.044750	-0.461026	0.605871
H103	H	1.159154	-0.467514	0.642868
H104	H	1.024975	-0.318510	0.710976
H105	H	1.139384	-0.324989	0.748001
C106	C	0.702295	0.270414	0.764818
C107	C	0.787809	0.259497	0.697752
H108	H	0.722381	0.285713	0.844588
H109	H	0.655848	0.318533	0.745282
H110	H	0.670673	0.214390	0.750079
H111	H	0.819427	0.315523	0.712484
H112	H	0.834273	0.211374	0.717296
H113	H	1.100664	-0.165792	0.660366
C114	C	1.099058	-0.069331	0.677389
C115	C	1.119300	-0.024342	0.589182
H116	H	1.085046	-0.024843	0.746116
H117	H	1.042012	-0.103575	0.654401
H118	H	1.156397	-0.110077	0.691484
H119	H	1.061957	0.016399	0.575081
H120	H	1.176351	0.009917	0.612174
H121	H	0.964103	0.364184	1.018895
H122	H	0.496821	0.177497	0.288951
C123	C	0.543348	0.135268	0.058442
C124	C	0.553951	0.158100	0.179439
H125	H	0.473866	0.129738	0.035939
H126	H	0.567074	0.182357	0.026266
H127	H	0.581900	0.078214	0.031064
H128	H	0.515405	0.215157	0.206816
H129	H	0.530212	0.111007	0.211627
H130	H	1.221955	0.143522	0.689224
H131	H	1.286238	0.088522	0.783936
H132	H	1.384581	0.004383	0.928867
C133	C	0.901845	0.417453	0.952099
C134	C	0.912267	0.408522	0.832892
H135	H	0.848150	0.463411	0.977017
H136	H	0.887024	0.360099	0.967724
H137	H	0.963290	0.434920	0.992402
H138	H	0.850824	0.391047	0.792589
H139	H	0.927082	0.465888	0.817258
H140	H	0.715205	0.134289	0.035793
H141	H	0.911449	0.226927	0.511149
C142	C	1.017812	0.156881	0.125858
C143	C	0.921696	0.144963	0.071921
H144	H	1.067212	0.147103	0.068594
H145	H	1.018294	0.217875	0.170365
H146	H	1.033119	0.113735	0.175180
H147	H	0.906386	0.188113	0.022604
H148	H	0.921212	0.083960	0.027394
