data_functionalizedCrystal
_audit_creation_method	'MofGen! by Chris Wilmer'
_symmetry_space_group_name_H-M	'P1'
_symmetry_Int_Tables_number	1
_symmetry_cell_setting	triclinic
loop_
_symmetry_equiv_pos_as_xyz
  x,y,z
_cell_length_a	25.639233
_cell_length_b	12.759401
_cell_length_c	12.759400
_cell_angle_alpha	89.987147
_cell_angle_beta	89.987429
_cell_angle_gamma	90.011220
loop_
_atom_site_label
_atom_site_type_symbol
_atom_site_fract_x
_atom_site_fract_y
_atom_site_fract_z
Zn1	Zn	-0.295612	-1.606170	-0.418444
Zn2	Zn	-0.208186	-1.606090	-0.594107
Zn3	Zn	-0.208193	-1.430497	-0.418437
Zn4	Zn	-0.295592	-1.430461	-0.594076
O5	O	-0.251896	-1.518304	-0.506266
O6	O	-0.284020	-1.753180	-0.441762
O7	O	-0.135022	-1.582779	-0.570814
O8	O	-0.219800	-1.453849	-0.271417
O9	O	-0.219788	-1.753121	-0.570821
O10	O	-0.284027	-1.582915	-0.271422
O11	O	-0.135027	-1.453772	-0.441750
O12	O	-0.219781	-1.283471	-0.441720
O13	O	-0.368760	-1.453787	-0.570769
O14	O	-0.283993	-1.283444	-0.570762
O15	O	-0.368775	-1.582880	-0.441732
O16	O	-0.219769	-1.582743	-0.741124
O17	O	-0.283987	-1.453709	-0.741101
C18	C	-0.251886	-1.245337	-0.506238
C19	C	-0.251895	-1.128560	-0.506251
C20	C	-0.285391	-1.073730	-0.439169
C21	C	-0.285394	-0.964006	-0.439176
C22	C	-0.218402	-0.963953	-0.573354
C23	C	-0.218397	-1.073675	-0.573342
C24	C	-0.388269	-1.518338	-0.506248
C25	C	-0.446383	-1.518353	-0.506240
C26	C	-0.806759	-1.585656	-0.438851
C27	C	-0.861364	-1.585669	-0.438822
O28	O	-0.889611	-1.642809	-0.381650
N29	N	-0.888666	-1.518468	-0.505994
C30	C	-0.861360	-1.451242	-0.573191
O31	O	-0.889597	-1.394083	-0.630322
C32	C	-0.806757	-1.451225	-0.573214
C33	C	-0.779458	-1.518438	-0.506046
C34	C	-0.779460	-1.652863	-0.371688
C35	C	-0.724859	-1.652851	-0.371718
C36	C	-0.697558	-1.585633	-0.438913
C37	C	-0.724857	-1.518426	-0.506076
C38	C	-0.779453	-1.383995	-0.640405
C39	C	-0.724846	-1.383982	-0.640422
C40	C	-0.697547	-1.451195	-0.573254
C41	C	-0.642955	-1.451196	-0.573301
N42	N	-0.615653	-1.518397	-0.506130
C43	C	-0.642955	-1.585615	-0.438936
C44	C	-0.976031	-1.451283	-0.573136
C45	C	-1.030633	-1.451305	-0.573120
C46	C	-1.030633	-1.585731	-0.438749
C47	C	-0.976029	-1.585713	-0.438772
C48	C	-0.948729	-1.518484	-0.505965
C49	C	-0.528290	-1.585586	-0.439006
C50	C	-0.473684	-1.585571	-0.439046
C51	C	-0.473690	-1.451142	-0.573412
C52	C	-0.528290	-1.451160	-0.573376
C53	C	-0.555589	-1.518386	-0.506165
O54	O	-0.614673	-1.394083	-0.630442
O55	O	-0.614712	-1.642755	-0.381804
C56	C	-0.116053	-1.518331	-0.506209
C57	C	-0.057940	-1.518520	-0.505921
C58	C	-0.251886	-1.518242	-0.779234
C59	C	-0.251900	-1.518312	-0.896010
C60	C	-0.251904	-0.792338	-0.506286
C61	C	-0.251902	-0.909114	-0.506270
C62	C	-0.285371	-1.585487	-0.950785
C63	C	-0.285385	-1.585546	-1.060509
C64	C	-0.218453	-1.451251	-1.060674
C65	C	-0.218442	-1.451188	-0.950952
C66	C	-0.251917	-1.518395	-0.232233
C67	C	-0.251925	-1.518434	-0.115456
H68	H	-0.451460	-1.640308	-0.384348
H69	H	-0.191130	-0.919251	-0.627978
C70	C	-0.322244	-0.903689	-0.365393
C71	C	-0.299666	-0.828256	-0.282842
C72	C	-0.336517	-0.767939	-0.209057
C73	C	-0.395947	-0.783054	-0.217822
C74	C	-0.418527	-0.858490	-0.300376
C75	C	-0.381676	-0.918808	-0.374161
H76	H	-0.255670	-0.817064	-0.276351
H77	H	-0.319801	-0.712096	-0.147945
H78	H	-0.423226	-0.738403	-0.163201
H79	H	-0.462523	-0.869682	-0.306867
H80	H	-0.398392	-0.974650	-0.435273
H81	H	-0.550518	-1.396440	-0.628080
H82	H	-0.312665	-1.118414	-0.384536
C83	C	-0.443646	-1.377219	-0.647330
C84	C	-0.406097	-1.294755	-0.601812
C85	C	-0.376050	-1.220834	-0.675729
C86	C	-0.383551	-1.229378	-0.795164
C87	C	-0.421102	-1.311846	-0.840688
C88	C	-0.451149	-1.385767	-0.766771
H89	H	-0.400543	-1.288427	-0.513394
H90	H	-0.348253	-1.159786	-0.642028
H91	H	-0.361308	-1.174658	-0.849881
H92	H	-0.426656	-1.318174	-0.929106
H93	H	-0.478947	-1.446815	-0.800471
H94	H	-0.191117	-1.118319	-0.627968
H95	H	-0.312616	-1.640142	-0.906054
H96	H	-0.312642	-1.640245	-1.105102
C97	C	-0.946003	-1.659642	-0.364880
C98	C	-0.908467	-1.742105	-0.410421
C99	C	-0.878444	-1.816035	-0.336523
C100	C	-0.885957	-1.807501	-0.217084
C101	C	-0.923496	-1.725035	-0.171537
C102	C	-0.953519	-1.651105	-0.245435
H103	H	-0.902903	-1.748424	-0.498842
H104	H	-0.850655	-1.877082	-0.370240
H105	H	-0.863733	-1.862229	-0.162381
H106	H	-0.929059	-1.718715	-0.083116
H107	H	-0.981307	-1.590058	-0.211717
C108	C	-0.181644	-1.377428	-1.121110
C109	C	-0.185854	-1.257977	-1.106120
C110	C	-0.149042	-1.184156	-1.166552
C111	C	-0.108019	-1.229786	-1.241973
C112	C	-0.103806	-1.349244	-1.256966
C113	C	-0.140619	-1.423065	-1.196534
H114	H	-0.216224	-1.224193	-1.050286
H115	H	-0.152160	-1.095725	-1.155453
H116	H	-0.080768	-1.175139	-1.286708
H117	H	-0.073437	-1.383028	-1.312800
H118	H	-0.137500	-1.511496	-1.207633
C119	C	-0.181620	-1.377290	-0.890691
C120	C	-0.144813	-1.303466	-0.951119
C121	C	-0.107996	-1.229569	-0.890858
C122	C	-0.107986	-1.229496	-0.770168
C123	C	-0.144795	-1.303324	-0.709733
C124	C	-0.181612	-1.377221	-0.769994
H125	H	-0.144819	-1.303517	-1.040467
H126	H	-0.080747	-1.174917	-0.935597
H127	H	-0.080732	-1.174793	-0.725559
H128	H	-0.144789	-1.303273	-0.620385
H129	H	-0.208861	-1.431873	-0.725255
H130	H	-0.550510	-1.640324	-0.384272
H131	H	-0.702637	-1.707581	-0.317021
C132	C	-1.060671	-1.659668	-0.364826
C133	C	-1.120733	-1.659673	-0.364801
C134	C	-1.150772	-1.733605	-0.290884
C135	C	-1.120750	-1.807534	-0.216991
C136	C	-1.060686	-1.807532	-0.217013
C137	C	-1.030646	-1.733599	-0.290931
H138	H	-1.142960	-1.604944	-0.419503
H139	H	-1.195236	-1.733606	-0.290868
H140	H	-1.142988	-1.862263	-0.162273
H141	H	-1.038459	-1.862260	-0.162311
H142	H	-0.986182	-1.733598	-0.290947
C143	C	-0.946004	-1.377333	-0.647065
C144	C	-0.908467	-1.294840	-0.601560
C145	C	-0.878444	-1.220888	-0.675486
C146	C	-0.885958	-1.229430	-0.794917
C147	C	-0.923497	-1.311927	-0.840429
C148	C	-0.953520	-1.385878	-0.766503
H149	H	-0.902903	-1.288514	-0.513144
H150	H	-0.850656	-1.159818	-0.641794
H151	H	-0.863734	-1.174686	-0.849642
H152	H	-0.929061	-1.318253	-0.928845
H153	H	-0.981308	-1.446948	-0.800195
C154	C	-0.694814	-1.310033	-0.714341
C155	C	-0.702318	-1.190602	-0.705750
C156	C	-0.672286	-1.116658	-0.779670
C157	C	-0.634752	-1.162145	-0.862181
C158	C	-0.627247	-1.281582	-0.870775
C159	C	-0.657278	-1.355526	-0.796855
H160	H	-0.730104	-1.156924	-0.644667
H161	H	-0.677842	-1.028242	-0.773307
H162	H	-0.612521	-1.107407	-0.916901
H163	H	-0.599460	-1.315260	-0.931858
H164	H	-0.651722	-1.443942	-0.803218
H165	H	-0.801683	-1.707601	-0.316964
H166	H	-1.052856	-1.396585	-0.627826
H167	H	-0.801670	-1.329262	-0.695101
