data_functionalizedCrystal
_audit_creation_method	'MofGen! by Chris Wilmer'
_symmetry_space_group_name_H-M	'P1'
_symmetry_Int_Tables_number	1
_symmetry_cell_setting	triclinic
loop_
_symmetry_equiv_pos_as_xyz
  x,y,z
_cell_length_a	12.645331
_cell_length_b	19.121063
_cell_length_c	12.645324
_cell_angle_alpha	92.401246
_cell_angle_beta	89.981704
_cell_angle_gamma	92.469212
loop_
_atom_site_label
_atom_site_type_symbol
_atom_site_fract_x
_atom_site_fract_y
_atom_site_fract_z
Zn1	Zn	1.602662	-0.279551	-0.617253
Zn2	Zn	1.594948	-0.397024	-0.447531
Zn3	Zn	1.425373	-0.279592	-0.440014
Zn4	Zn	1.417767	-0.396966	-0.624757
O5	O	1.510188	-0.338283	-0.532389
O6	O	1.749985	-0.295141	-0.594744
O7	O	1.572408	-0.381487	-0.298189
O8	O	1.455302	-0.181303	-0.457239
O9	O	1.744318	-0.381447	-0.470050
O10	O	1.585555	-0.181273	-0.587455
O11	O	1.447822	-0.295211	-0.292667
O12	O	1.276017	-0.295155	-0.464516
O13	O	1.442339	-0.381350	-0.772107
O14	O	1.270430	-0.381390	-0.600246
O15	O	1.578180	-0.295086	-0.766593
O16	O	1.565034	-0.495300	-0.477327
O17	O	1.434860	-0.495258	-0.607534
C18	C	1.234759	-0.338271	-0.532380
C19	C	1.116928	-0.338283	-0.532402
C20	C	1.068560	-0.392626	-0.617676
C21	C	0.945986	-0.392849	-0.617448
C22	C	0.947695	-0.358061	-0.421815
C23	C	1.070268	-0.358444	-0.422313
C24	C	1.076581	-0.264048	-0.556731
C25	C	0.953949	-0.264457	-0.559220
C26	C	1.498313	-0.520763	-0.544084
C27	C	1.493330	-0.598828	-0.549122
C28	C	1.558817	-0.635502	-0.483754
C29	C	1.554137	-0.708853	-0.488499
C30	C	1.483964	-0.745529	-0.558608
C31	C	1.418475	-0.708850	-0.623983
C32	C	1.423161	-0.635500	-0.619243
C33	C	1.466426	-0.966997	-0.576314
C34	C	1.461743	-1.040352	-0.581047
C35	C	1.597406	-1.040350	-0.445563
C36	C	1.602082	-0.966999	-0.440825
C37	C	1.536597	-0.930327	-0.506204
C38	C	1.479176	-0.820505	-0.563457
C39	C	1.541391	-0.855351	-0.501359
C40	C	1.786692	-0.338296	-0.532399
C41	C	1.904522	-0.338301	-0.532403
C42	C	1.510272	-0.338207	-0.808889
C43	C	1.510308	-0.338174	-0.926718
C44	C	1.522137	-0.155091	-0.520672
C45	C	1.527229	-0.077026	-0.515679
C46	C	1.596074	-0.284063	-1.090823
C47	C	1.595823	-0.283867	-0.968251
C48	C	1.399926	-0.318062	-0.969914
C49	C	1.400452	-0.317651	-1.092486
C50	C	1.534012	-0.412478	-1.098681
C51	C	1.536480	-0.412104	-0.976052
C52	C	1.510168	-0.338309	-0.256961
C53	C	1.510350	-0.338143	-0.139121
H54	H	1.108704	-0.245995	-0.635763
N55	N	0.904689	-0.461857	-0.597631
N56	N	0.847555	-0.471933	-0.518564
H57	H	0.818391	-0.520673	-0.504560
H58	H	1.677823	-0.296463	-0.938982
H59	H	1.369837	-0.605641	-0.672475
H60	H	1.334665	-0.355328	-1.124556
H61	H	0.926080	-0.221832	-0.501306
N62	N	1.399545	-0.929549	-0.643111
N63	N	1.406013	-0.937694	-0.741460
H64	H	1.358775	-0.911245	-0.788642
N65	N	0.914246	-0.309928	-0.340188
N66	N	0.858079	-0.260407	-0.362662
H67	H	0.834454	-0.226412	-0.305015
N68	N	1.116256	-0.213266	-0.478745
N69	N	1.174000	-0.231572	-0.405531
H70	H	1.202026	-0.195713	-0.350449
H71	H	1.361344	-0.738717	-0.681072
N72	N	1.613064	-0.817903	-0.429731
N73	N	1.671527	-0.850651	-0.371359
H74	H	1.722144	-0.824198	-0.320767
N75	N	1.630495	-0.598053	-0.412123
N76	N	1.688958	-0.630810	-0.353764
H77	H	1.739585	-0.604364	-0.303173
H78	H	1.650722	-1.070217	-0.392336
H79	H	1.580535	-0.228802	-0.935406
H80	H	1.422040	-0.850375	-0.620538
N81	N	0.909284	-0.377412	-0.720496
N82	N	0.849820	-0.420728	-0.771055
H83	H	0.823907	-0.409833	-0.843841
H84	H	0.913496	-0.411727	-0.400251
H85	H	1.334524	-0.356242	-0.943202
N86	N	1.101693	-0.426508	-0.395828
N87	N	1.033121	-0.473397	-0.377107
H88	H	1.055308	-0.521470	-0.358402
H89	H	1.678359	-0.296500	-1.121107
H90	H	1.607462	-0.738710	-0.435268
H91	H	1.404613	-1.070211	-0.638157
H92	H	0.925865	-0.249552	-0.640584
N93	N	1.374579	-0.249485	-1.123996
N94	N	1.356261	-0.202545	-1.055483
H95	H	1.337988	-0.154401	-1.077731
N96	N	1.673764	-0.929549	-0.369199
N97	N	1.732229	-0.962303	-0.310838
H98	H	1.782854	-0.935854	-0.260248
N99	N	1.110553	-0.310919	-0.340186
N100	N	1.048132	-0.277578	-0.282680
H101	H	1.076578	-0.244013	-0.224677
N102	N	1.373466	-0.250656	-0.927084
N103	N	1.435717	-0.217313	-0.864752
H104	H	1.417036	-0.169705	-0.834502
H105	H	1.581008	-0.229302	-1.118134
H106	H	1.612843	-0.430788	-1.130835
N107	N	1.638366	-0.431105	-0.940795
N108	N	1.655783	-0.436233	-0.844192
H109	H	1.727747	-0.449641	-0.819290
N110	N	1.463347	-0.465366	-0.941034
N111	N	1.390417	-0.449635	-0.878874
H112	H	1.338753	-0.487249	-0.854149
H113	H	1.471521	-0.452774	-1.130264
H114	H	1.098867	-0.380440	-0.700078
H115	H	1.095802	-0.447322	-0.602119
