data_functionalizedCrystal
_audit_creation_method	'MofGen! by Chris Wilmer'
_symmetry_space_group_name_H-M	'P1'
_symmetry_Int_Tables_number	1
_symmetry_cell_setting	triclinic
loop_
_symmetry_equiv_pos_as_xyz
  x,y,z
_cell_length_a	15.995350
_cell_length_b	14.044191
_cell_length_c	13.101039
_cell_angle_alpha	86.337551
_cell_angle_beta	86.633551
_cell_angle_gamma	91.657925
loop_
_atom_site_label
_atom_site_type_symbol
_atom_site_fract_x
_atom_site_fract_y
_atom_site_fract_z
O1	O	-0.197663	1.262919	-0.085147
O2	O	-0.190372	0.986950	-0.085161
O3	O	-0.072693	1.132478	-0.085158
O4	O	-0.315341	1.117390	-0.085150
O5	O	-0.081152	1.122037	0.085272
O6	O	-0.198830	0.976509	0.085269
O7	O	-0.206121	1.252477	0.085282
Zn8	Zn	-0.203819	1.112835	0.112335
Zn9	Zn	-0.192674	1.126592	-0.112213
O10	O	-0.323800	1.106949	0.085279
C11	C	-0.191411	0.946415	0.000052
C12	C	-0.181898	0.841189	0.000046
C13	C	-0.231977	0.590902	0.000058
C14	C	-0.164519	0.648531	0.000054
C15	C	-0.174191	0.755736	0.000050
C16	C	-0.222306	0.483687	0.000063
C17	C	-0.350812	1.112793	0.000065
C18	C	-0.443902	1.114663	0.000068
C19	C	-0.782151	1.121380	0.000053
C20	C	-0.742441	1.225046	-0.000323
C21	C	-0.645631	1.223151	0.000067
C22	C	-0.614342	1.118048	0.000060
C23	C	-0.656435	1.060966	0.097377
C24	C	-0.753269	1.063565	0.097453
C25	C	-0.743838	1.073297	-0.096357
C26	C	-0.646831	1.073400	-0.097638
C27	C	-0.519504	1.116160	0.000067
C28	C	-0.876989	1.123265	0.000052
C29	C	-0.045681	1.126634	0.000054
C30	C	0.047410	1.124765	0.000044
C31	C	-0.205081	1.293013	0.000067
C32	C	-0.214595	1.398239	0.000066
N33	N	-0.211425	1.103453	0.265583
N34	N	-0.185062	1.135982	-0.265462
C35	C	-0.221780	1.090689	0.474626
C36	C	-0.174709	1.148743	0.525503
C37	C	-0.180471	1.141641	0.641821
C38	C	-0.216019	1.097790	0.358297
H39	H	-0.099500	0.617361	-0.000020
Br40	Br	-0.340335	0.642861	0.000051
Br41	Br	-0.100712	1.240875	0.452505
H42	H	-0.616745	1.267614	-0.069690
H43	H	-0.760589	1.270742	-0.070122
H44	H	-0.768641	1.262076	0.069013
H45	H	-0.266404	1.035657	0.518421
H46	H	-0.624261	1.259321	0.069955
H47	H	-0.777970	1.096386	0.170205
Br48	Br	-0.797914	0.936292	0.104826
Br49	Br	-0.623582	0.931894	0.103406
Br50	Br	-0.619562	1.112751	0.218102
Br51	Br	-0.600017	1.142962	-0.217639
Br52	Br	-0.776193	1.137298	-0.219303
H53	H	-0.625446	0.997117	-0.103523
H54	H	-0.769844	0.996916	-0.097008
