data_functionalizedCrystal
_audit_creation_method	'MofGen! by Chris Wilmer'
_symmetry_space_group_name_H-M	'P1'
_symmetry_Int_Tables_number	1
_symmetry_cell_setting	triclinic
loop_
_symmetry_equiv_pos_as_xyz
  x,y,z
_cell_length_a	6.817900
_cell_length_b	7.190334
_cell_length_c	11.168129
_cell_angle_alpha	87.996170
_cell_angle_beta	71.491363
_cell_angle_gamma	60.611776
loop_
_atom_site_label
_atom_site_type_symbol
_atom_site_fract_x
_atom_site_fract_y
_atom_site_fract_z
V1	V	-4.248265	0.665019	0.172691
O2	O	-4.205210	0.652341	-0.010371
O3	O	-4.223611	0.660489	0.344410
O4	O	-4.284906	0.955048	0.169125
O5	O	-4.143490	0.355742	0.166127
V6	V	-4.717796	0.628025	0.150902
O7	O	-4.540214	0.746169	0.220486
O8	O	-4.876043	0.546875	0.103106
O9	O	-4.519243	0.632555	-0.020817
O10	O	-4.878248	0.640703	0.333963
O11	O	-4.939968	0.937302	0.157465
O12	O	-4.457948	0.337995	0.154468
C13	C	-4.071636	0.650003	0.386300
C14	C	-4.133333	0.648233	0.526676
C15	C	-4.334559	0.643035	-0.062700
C16	C	-4.252105	0.644819	-0.203076
C17	C	-4.065400	0.461822	0.572687
C18	C	-4.129164	0.459988	0.717773
C19	C	-4.149835	1.025740	0.162700
C20	C	-4.263327	1.267296	0.160886
H21	H	-3.960046	0.303587	0.504667
H22	H	-4.071096	0.300391	0.757404
H23	H	-4.310156	0.804423	0.757301
H24	H	-4.238705	0.806468	0.594697
