data_functionalizedCrystal
_audit_creation_method	'MofGen! by Chris Wilmer'
_symmetry_space_group_name_H-M	'P1'
_symmetry_Int_Tables_number	1
_symmetry_cell_setting	triclinic
loop_
_symmetry_equiv_pos_as_xyz
  x,y,z
_cell_length_a	14.971486
_cell_length_b	9.730223
_cell_length_c	10.654550
_cell_angle_alpha	89.995747
_cell_angle_beta	84.049530
_cell_angle_gamma	90.001667
loop_
_atom_site_label
_atom_site_type_symbol
_atom_site_fract_x
_atom_site_fract_y
_atom_site_fract_z
O1	O	1.187834	-0.114131	0.163656
O2	O	0.927540	-0.114169	0.183254
O3	O	1.063672	-0.114141	-0.009348
O4	O	1.051702	-0.114160	0.356259
O5	O	1.063663	0.114439	-0.009354
O6	O	0.927531	0.114411	0.183249
O7	O	1.187825	0.114449	0.163651
Zn8	Zn	1.057677	0.150722	0.173449
Zn9	Zn	1.057688	-0.150442	0.173456
O10	O	1.051694	0.114420	0.356253
C11	C	0.894206	0.000117	0.182375
C12	C	0.794895	0.000102	0.179749
N13	N	1.057675	0.356258	0.173444
N14	N	1.057697	-0.355978	0.173451
C15	C	0.738285	0.000099	0.292898
C16	C	0.644972	0.000119	0.290422
C17	C	0.608271	0.000134	0.174797
C18	C	0.664888	0.000142	0.061639
C19	C	0.758199	0.000131	0.064116
C20	C	0.470397	0.000161	0.056485
C21	C	0.377080	0.000169	0.054007
C22	C	0.357171	0.000149	0.282791
C23	C	0.450482	0.000138	0.285268
C24	C	0.507092	0.000144	0.172110
C25	C	1.221159	0.000160	0.164530
C26	C	1.320470	0.000165	0.167156
C27	C	1.062788	0.000149	-0.056139
C28	C	1.060159	0.000146	-0.195555
C29	C	1.117975	0.428197	0.088195
C30	C	1.117984	0.572080	0.088195
C31	C	0.997391	0.572073	0.258704
C32	C	0.997378	0.428193	0.258697
C33	C	1.140311	0.000157	-0.275900
C34	C	1.137835	0.000140	-0.406894
C35	C	0.975048	0.000107	-0.377185
C36	C	0.977525	0.000114	-0.246193
C37	C	1.052577	0.000128	0.403044
C38	C	1.055206	0.000122	0.542460
H39	H	0.768160	0.000086	0.387053
H40	H	0.516488	0.000168	-0.035661
C41	C	1.136265	0.266491	-0.082732
C42	C	1.184223	0.349158	-0.005581
H43	H	1.177158	0.217704	-0.140641
H44	H	1.098744	0.322660	-0.127924
H45	H	1.100378	0.203027	-0.031950
H46	H	1.220104	0.412629	-0.056363
H47	H	1.221759	0.292984	0.039614
H48	H	0.948299	0.630657	0.328117
C49	C	0.634666	0.000079	0.516809
C50	C	0.582747	0.000108	0.414799
H51	H	0.596249	0.000066	0.593597
H52	H	0.671480	0.079779	0.513019
H53	H	0.671471	-0.079643	0.513003
H54	H	0.545947	0.079837	0.418601
H55	H	0.545917	-0.079600	0.418591
H56	H	1.167084	0.630648	0.018777
H57	H	0.948271	0.369617	0.328117
C58	C	0.877835	-0.117416	-0.507263
C59	C	0.884221	0.000087	-0.432857
H60	H	0.821763	-0.117418	-0.541636
H61	H	0.882182	-0.197111	-0.456771
H62	H	0.925222	-0.117395	-0.573857
H63	H	0.836838	0.000060	-0.366257
H64	H	0.879865	0.079802	-0.483351
H65	H	0.912251	0.000101	-0.180772
H66	H	0.480361	0.000113	0.379420
C67	C	1.298989	0.000194	-0.423094
C68	C	1.225941	0.000162	-0.495210
H69	H	1.353383	0.000215	-0.477619
H70	H	1.296577	-0.079508	-0.371378
H71	H	1.296554	0.079914	-0.371391
H72	H	1.228373	-0.079564	-0.546907
H73	H	1.228355	0.079872	-0.546948
C74	C	1.237534	-0.117321	-0.145804
C75	C	1.231139	0.000176	-0.220231
H76	H	1.293607	-0.117306	-0.111434
H77	H	1.233191	-0.197020	-0.196281
H78	H	1.190148	-0.117308	-0.079208
H79	H	1.278521	0.000157	-0.286833
H80	H	1.235491	0.079895	-0.169751
H81	H	0.347201	0.000183	-0.040145
C82	C	0.571502	-0.117348	-0.073869
C83	C	0.624548	0.000155	-0.065461
H84	H	0.546605	-0.117345	-0.152341
H85	H	0.524436	-0.117339	-0.006844
H86	H	0.607497	-0.197051	-0.068145
H87	H	0.588553	0.079858	-0.071176
H88	H	0.671621	0.000158	-0.132504
C89	C	0.768511	0.000128	-0.162274
C90	C	0.820428	0.000123	-0.060261
H91	H	0.806930	0.000118	-0.239059
H92	H	0.731711	0.079839	-0.158486
H93	H	0.731694	-0.079584	-0.158469
H94	H	0.857241	0.079840	-0.064061
H95	H	0.857244	-0.079596	-0.064051
C96	C	0.205295	0.000168	0.380594
C97	C	0.294948	0.000145	0.407179
H98	H	0.166880	0.000166	0.457384
H99	H	0.194092	-0.079527	0.333190
H100	H	0.194108	0.079895	0.333194
H101	H	0.306136	-0.079588	0.454571
H102	H	0.306155	0.079849	0.454602
