data_functionalizedCrystal
_audit_creation_method	'MofGen! by Chris Wilmer'
_symmetry_space_group_name_H-M	'P1'
_symmetry_Int_Tables_number	1
_symmetry_cell_setting	triclinic
loop_
_symmetry_equiv_pos_as_xyz
  x,y,z
_cell_length_a	13.339070
_cell_length_b	9.065218
_cell_length_c	12.376897
_cell_angle_alpha	102.515468
_cell_angle_beta	98.995044
_cell_angle_gamma	100.322590
loop_
_atom_site_label
_atom_site_type_symbol
_atom_site_fract_x
_atom_site_fract_y
_atom_site_fract_z
O1	O	-1.331485	-0.709924	0.094022
O2	O	-1.036066	-0.612483	0.094018
O3	O	-1.189882	-0.448943	0.094018
O4	O	-1.177668	-0.873464	0.094022
O5	O	-1.225060	-0.513844	-0.093980
O6	O	-1.071244	-0.677384	-0.093980
O7	O	-1.366663	-0.774826	-0.093975
Zn8	Zn	-1.224539	-0.736409	-0.123826
Zn9	Zn	-1.178190	-0.650899	0.123869
O10	O	-1.212847	-0.938366	-0.093975
C11	C	-1.015815	-0.628474	0.000018
C12	C	-0.903064	-0.579411	0.000017
C13	C	-1.206297	-0.425949	0.000021
C14	C	-1.202786	-0.260736	0.000026
C15	C	-1.386913	-0.758834	0.000026
C16	C	-1.499663	-0.807894	0.000035
C17	C	-0.541762	-0.960895	0.000039
C18	C	-0.647696	-1.006995	0.000044
C19	C	-0.711543	-0.900103	0.000037
C20	C	-0.669446	-0.747102	0.000025
C21	C	-0.563500	-0.700994	0.000029
C22	C	-0.733281	-0.640203	0.000027
C23	C	-0.691183	-0.487202	0.000016
C24	C	-0.585247	-0.441102	0.000019
C25	C	-0.521400	-0.547994	0.000026
C26	C	-0.839227	-0.686311	0.000023
C27	C	-0.860964	-0.426410	0.000014
C28	C	-0.755030	-0.380310	0.000008
C29	C	-1.196431	-0.961359	0.000024
C30	C	-1.199940	-1.126570	0.000026
N31	N	-1.256178	-0.794770	-0.292871
C32	C	-1.073076	-0.457029	-0.647933
C33	C	-1.050915	-0.416171	-0.529602
C34	C	-1.102229	-0.510818	-0.470414
C35	C	-1.175707	-0.646328	-0.529567
C36	C	-1.197876	-0.687183	-0.647909
C37	C	-1.227029	-0.740972	-0.470390
C38	C	-1.300507	-0.876482	-0.529544
C39	C	-1.322672	-0.917331	-0.647875
C40	C	-1.271359	-0.822684	-0.707063
C41	C	-1.204860	-0.700117	-0.352048
C42	C	-1.329660	-0.930271	-0.352025
C43	C	-1.351821	-0.971129	-0.470355
N44	N	-1.146558	-0.592530	0.292914
H45	H	-0.873493	-0.810886	0.000028
H46	H	-0.991092	-0.305837	-0.481448
H47	H	-1.145033	-0.589786	-0.303897
H48	H	-0.681963	-1.131565	0.000062
H49	H	-1.371445	-1.007340	-0.303834
H50	H	-0.797799	-0.937647	0.000043
H51	H	-1.411648	-1.081463	-0.518535
H52	H	-0.489768	-1.047906	0.000054
H53	H	-1.031311	-0.379975	-0.696135
H54	H	-0.720737	-0.255731	0.000009
H55	H	-0.550973	-0.316515	0.000022
C56	C	-0.931186	-0.308823	0.000003
H57	H	-1.000311	-0.358198	-0.000010
H58	H	-0.906028	-0.225239	0.065560
H59	H	-0.930556	-0.270513	-0.065566
H60	H	-1.289394	-0.855948	-0.803418
H61	H	-0.435139	-0.510466	0.000021
C62	C	-1.077844	-0.465887	-0.340253
H63	H	-1.026727	-0.371636	-0.313500
H64	H	-1.139453	-0.452850	-0.313457
H65	H	-1.052282	-0.545452	-0.313499
C66	C	-1.403501	-1.066381	-0.712941
H67	H	-1.430881	-1.116906	-0.660747
H68	H	-1.458323	-1.040803	-0.759092
H69	H	-1.371152	-1.133404	-0.759114
