data_functionalizedCrystal
_audit_creation_method	'MofGen! by Chris Wilmer'
_symmetry_space_group_name_H-M	'P1'
_symmetry_Int_Tables_number	1
_symmetry_cell_setting	triclinic
loop_
_symmetry_equiv_pos_as_xyz
  x,y,z
_cell_length_a	19.805407
_cell_length_b	19.077068
_cell_length_c	19.805398
_cell_angle_alpha	92.268147
_cell_angle_beta	89.986879
_cell_angle_gamma	92.327086
loop_
_atom_site_label
_atom_site_type_symbol
_atom_site_fract_x
_atom_site_fract_y
_atom_site_fract_z
Zn1	Zn	1.023860	-0.280211	-0.393534
Zn2	Zn	1.357193	0.053123	-0.060200
Zn3	Zn	1.690527	0.386456	0.273133
Zn4	Zn	1.019237	-0.397912	-0.284888
Zn5	Zn	1.352571	-0.064579	0.048446
Zn6	Zn	1.685904	0.268755	0.381779
Zn7	Zn	0.910687	-0.280232	-0.280359
Zn8	Zn	1.244020	0.053101	0.052974
Zn9	Zn	1.577353	0.386434	0.386308
Zn10	Zn	0.906089	-0.397872	-0.398033
Zn11	Zn	1.239423	-0.064539	-0.064700
Zn12	Zn	1.572756	0.268794	0.268634
O13	O	0.964968	-0.339057	-0.339203
O14	O	1.298302	-0.005723	-0.005870
O15	O	1.631635	0.327610	0.327463
O16	O	1.117963	-0.295832	-0.379134
O17	O	1.451296	0.037502	-0.045800
O18	O	1.784630	0.370835	0.287533
O19	O	1.004827	-0.382327	-0.189571
O20	O	1.338160	-0.048994	0.143762
O21	O	1.671494	0.284340	0.477095
O22	O	0.929558	-0.181738	-0.291594
O23	O	1.262891	0.151595	0.041740
O24	O	1.596224	0.484928	0.375073
O25	O	1.114567	-0.382306	-0.299312
O26	O	1.447900	-0.048973	0.034021
O27	O	1.781233	0.284361	0.367355
O28	O	1.012706	-0.181722	-0.374742
O29	O	1.346039	0.151611	-0.041409
O30	O	1.679372	0.484944	0.291924
O31	O	0.925075	-0.295868	-0.186244
O32	O	1.258409	0.037465	0.147089
O33	O	1.591742	0.370798	0.480423
O34	O	0.815360	-0.295830	-0.295956
O35	O	1.148694	0.037503	0.037377
O36	O	1.482027	0.370837	0.370710
O37	O	0.921723	-0.382239	-0.492152
O38	O	1.255056	-0.048905	-0.158818
O39	O	1.588389	0.284428	0.174515
O40	O	0.811983	-0.382260	-0.382411
O41	O	1.145316	-0.048926	-0.049078
O42	O	1.478650	0.284407	0.284256
O43	O	1.008248	-0.295793	-0.488846
O44	O	1.341581	0.037540	-0.155513
O45	O	1.674915	0.370873	0.177821
O46	O	1.000370	-0.496398	-0.303675
O47	O	1.333703	-0.163064	0.029658
O48	O	1.667036	0.170269	0.362992
O49	O	0.917240	-0.496369	-0.386802
O50	O	1.250574	-0.163035	-0.053469
O51	O	1.583907	0.170298	0.279864
C52	C	0.789113	-0.339043	-0.339181
C53	C	1.122446	-0.005710	-0.005848
C54	C	1.455779	0.327623	0.327486
C55	C	0.713880	-0.339055	-0.339188
C56	C	1.047214	-0.005721	-0.005855
C57	C	1.380547	0.327612	0.327479
C58	C	0.676793	-0.384126	-0.384137
C59	C	1.010126	-0.050793	-0.050804
C60	C	1.343459	0.282540	0.282529
C61	C	0.606104	-0.384127	-0.384147
C62	C	0.939438	-0.050794	-0.050814
C63	C	1.272771	0.282539	0.282520
C64	C	0.572505	-0.339060	-0.339203
C65	C	0.905838	-0.005727	-0.005870
C66	C	1.239171	0.327607	0.327463
C67	C	0.609597	-0.293983	-0.294252
C68	C	0.942931	0.039350	0.039081
C69	C	1.276264	0.372683	0.372415
C70	C	0.680285	-0.293979	-0.294246
C71	C	1.013618	0.039354	0.039087
C72	C	1.346951	0.372688	0.372421
C73	C	0.324524	-0.293999	-0.294275
C74	C	0.657857	0.039334	0.039058
C75	C	0.991190	0.372668	0.372392
C76	C	0.253831	-0.294008	-0.294283
C77	C	0.587164	0.039325	0.039051
C78	C	0.920498	0.372659	0.372384
C79	C	0.250343	-0.384147	-0.384176
C80	C	0.583676	-0.050814	-0.050842
C81	C	0.917010	0.282519	0.282491
C82	C	0.321030	-0.384143	-0.384170
C83	C	0.654364	-0.050810	-0.050837
C84	C	0.987697	0.282524	0.282497
C85	C	0.358117	-0.339064	-0.339221
C86	C	0.691450	-0.005731	-0.005888
C87	C	1.024784	0.327603	0.327445
C88	C	0.434766	-0.339062	-0.339212
C89	C	0.768099	-0.005729	-0.005879
C90	C	1.101432	0.327604	0.327454
C91	C	0.495857	-0.339065	-0.339209
C92	C	0.829191	-0.005731	-0.005875
C93	C	1.162524	0.327602	0.327458
C94	C	0.957823	-0.521921	-0.346233
C95	C	1.291156	-0.188588	-0.012900
C96	C	1.624490	0.144746	0.320434
C97	C	0.954828	-0.600151	-0.349263
C98	C	1.288161	-0.266818	-0.015930
C99	C	1.621495	0.066516	0.317404
C100	C	0.996735	-0.636895	-0.307442
C101	C	1.330069	-0.303562	0.025891
C102	C	1.663402	0.029771	0.359224
C103	C	0.993923	-0.710401	-0.310296
C104	C	1.327256	-0.377067	0.023037
C105	C	1.660589	-0.043734	0.356370
C106	C	0.949198	-0.747160	-0.354968
C107	C	1.282532	-0.413827	-0.021634
C108	C	1.615865	-0.080494	0.311699
C109	C	0.907289	-0.710411	-0.396793
C110	C	1.240622	-0.377078	-0.063459
C111	C	1.573956	-0.043744	0.269874
C112	C	0.910106	-0.636907	-0.393942
C113	C	1.243439	-0.303573	-0.060608
C114	C	1.576772	0.029760	0.272725
C115	C	0.936132	-0.966995	-0.368134
C116	C	1.269466	-0.633662	-0.034801
C117	C	1.602799	-0.300328	0.298532
C118	C	0.933317	-1.040504	-0.370981
C119	C	1.266651	-0.707171	-0.037647
C120	C	1.599984	-0.373838	0.295686
C121	C	1.019952	-1.040489	-0.284485
C122	C	1.353285	-0.707156	0.048849
C123	C	1.686619	-0.373822	0.382182
C124	C	1.022762	-0.966983	-0.281635
C125	C	1.356095	-0.633650	0.051699
C126	C	1.689429	-0.300317	0.385032
C127	C	0.980855	-0.930240	-0.323462
C128	C	1.314189	-0.596907	0.009871
C129	C	1.647522	-0.263574	0.343204
N130	N	0.946320	-0.822295	-0.357884
N131	N	1.279654	-0.488961	-0.024551
N132	N	1.612987	-0.155628	0.308782
N133	N	0.983737	-0.855107	-0.320549
N134	N	1.317070	-0.521774	0.012785
N135	N	1.650404	-0.188441	0.346118
C136	C	1.141510	-0.339071	-0.339226
C137	C	1.474844	-0.005738	-0.005893
C138	C	1.808177	0.327596	0.327440
C139	C	1.216742	-0.339077	-0.339236
C140	C	1.550076	-0.005743	-0.005903
C141	C	1.883409	0.327590	0.327431
C142	C	0.964988	-0.339009	-0.515744
C143	C	1.298322	-0.005676	-0.182411
C144	C	1.631655	0.327657	0.150922
C145	C	0.964997	-0.338989	-0.590975
C146	C	1.298330	-0.005656	-0.257642
C147	C	1.631663	0.327678	0.075691
C148	C	0.972160	-0.155479	-0.332161
C149	C	1.305493	0.177855	0.001172
C150	C	1.638827	0.511188	0.334506
C151	C	0.975225	-0.077249	-0.329160
C152	C	1.308558	0.256085	0.004173
C153	C	1.641892	0.589418	0.337507
C154	C	1.006635	-0.383896	-1.054492
C155	C	1.339968	-0.050563	-0.721159
C156	C	1.673301	0.282771	-0.387826
C157	C	1.006615	-0.383915	-0.983805
C158	C	1.339948	-0.050582	-0.650471
C159	C	1.673282	0.282751	-0.317138
C160	C	0.965084	-0.338910	-0.946734
C161	C	1.298417	-0.005576	-0.613401
C162	C	1.631751	0.327757	-0.280068
C163	C	0.923564	-0.293887	-0.980355
C164	C	1.256898	0.039446	-0.647022
C165	C	1.590231	0.372780	-0.313689
C166	C	0.923581	-0.293872	-1.051042
C167	C	1.256914	0.039461	-0.717709
C168	C	1.590247	0.372795	-0.384375
C169	C	0.923497	-0.293947	-0.695284
C170	C	1.256830	0.039386	-0.361951
C171	C	1.590163	0.372719	-0.028618
C172	C	0.923485	-0.293964	-0.624593
C173	C	1.256818	0.039369	-0.291260
C174	C	1.590152	0.372702	0.042074
C175	C	1.006531	-0.383990	-0.628047
C176	C	1.339864	-0.050657	-0.294714
C177	C	1.673198	0.282676	0.038620
C178	C	1.006547	-0.383975	-0.698734
C179	C	1.339881	-0.050642	-0.365400
C180	C	1.673214	0.282691	-0.032067
C181	C	0.965026	-0.338956	-0.732349
C182	C	1.298359	-0.005622	-0.399015
C183	C	1.631692	0.327711	-0.065682
C184	C	0.965046	-0.338937	-0.808996
C185	C	1.298380	-0.005603	-0.475663
C186	C	1.631713	0.327730	-0.142330
C187	C	0.965066	-0.338925	-0.870088
C188	C	1.298400	-0.005591	-0.536754
C189	C	1.631733	0.327742	-0.203421
C190	C	0.964989	-0.339053	-0.163347
C191	C	1.298323	-0.005720	0.169986
C192	C	1.631656	0.327613	0.503319
C193	C	0.965120	-0.338875	-0.088109
C194	C	1.298453	-0.005542	0.245225
C195	C	1.631786	0.327791	0.578558
H196	H	0.575910	-0.420830	-0.420749
H197	H	0.909244	-0.087497	-0.087415
H198	H	1.242577	0.245837	0.245918
F199	F	0.865504	-0.597801	-0.438455
F200	F	1.198837	-0.264468	-0.105122
F201	F	1.532170	0.068866	0.228212
F202	F	0.879280	-0.246058	-0.731052
F203	F	1.212614	0.087275	-0.397719
F204	F	1.545947	0.420608	-0.064385
H205	H	1.054071	-1.070413	-0.250432
H206	H	1.387404	-0.737080	0.082901
H207	H	1.720738	-0.403746	0.416235
F208	F	0.363985	-0.246020	-0.246438
F209	F	0.697318	0.087313	0.086895
F210	F	1.030652	0.420647	0.420229
F211	F	0.210867	-0.432124	-0.432015
F212	F	0.544200	-0.098791	-0.098682
F213	F	0.877534	0.234542	0.234651
H214	H	1.059180	-0.937055	-0.245260
H215	H	1.392513	-0.603722	0.088074
H216	H	1.725847	-0.270389	0.421407
F217	F	0.573837	-0.246015	-0.246423
F218	F	0.907170	0.087319	0.086910
F219	F	1.240503	0.420652	0.420243
H220	H	1.040338	-0.420650	-0.600669
H221	H	1.373671	-0.087317	-0.267336
H222	H	1.707005	0.246017	0.065997
F223	F	1.050843	-0.431794	-1.093939
F224	F	1.384176	-0.098461	-0.760606
F225	F	1.717509	0.234873	-0.427273
H226	H	0.889746	-0.257246	-0.950167
H227	H	1.223079	0.076088	-0.616834
H228	H	1.556412	0.409421	-0.283501
F229	F	1.038529	-0.749504	-0.265787
F230	F	1.371862	-0.416170	0.067547
F231	F	1.705195	-0.082837	0.400880
F232	F	1.050752	-0.431875	-0.738183
F233	F	1.384085	-0.098542	-0.404850
F234	F	1.717419	0.234792	-0.071516
F235	F	0.218073	-0.246038	-0.246446
F236	F	0.551407	0.087295	0.086887
F237	F	0.884740	0.420629	0.420221
H238	H	0.710481	-0.257273	-0.257647
H239	H	1.043814	0.076060	0.075686
H240	H	1.377148	0.409393	0.409020
H241	H	1.033152	-0.606970	-0.271063
H242	H	1.366485	-0.273637	0.062270
H243	H	1.699818	0.059696	0.395603
F244	F	1.050802	-0.431831	-0.948031
F245	F	1.384135	-0.098498	-0.614698
F246	F	1.717469	0.234835	-0.281364
F247	F	0.885706	-1.079625	-0.418521
F248	F	1.219040	-0.746292	-0.085188
F249	F	1.552373	-0.412959	0.248146
F250	F	0.891530	-0.927900	-0.412651
F251	F	1.224864	-0.594566	-0.079317
F252	F	1.558197	-0.261233	0.254016
F253	F	0.859694	-0.749535	-0.444339
F254	F	1.193027	-0.416202	-0.111006
F255	F	1.526360	-0.082869	0.222327
F256	F	0.879279	-0.246061	-0.585141
F257	F	1.212612	0.087272	-0.251808
F258	F	1.545945	0.420605	0.081526
H259	H	0.889776	-0.257211	-1.078411
H260	H	1.223109	0.076123	-0.745078
H261	H	1.556442	0.409456	-0.411745
H262	H	0.348383	-0.420844	-0.420766
H263	H	0.681717	-0.087511	-0.087432
H264	H	1.015050	0.245823	0.245901
F265	F	0.712545	-0.432097	-0.431970
F266	F	1.045879	-0.098764	-0.098637
F267	F	1.379212	0.234569	0.234696
