data_functionalizedCrystal
_audit_creation_method	'MofGen! by Chris Wilmer'
_symmetry_space_group_name_H-M	'P1'
_symmetry_Int_Tables_number	1
_symmetry_cell_setting	triclinic
loop_
_symmetry_equiv_pos_as_xyz
  x,y,z
_cell_length_a	10.686220
_cell_length_b	16.625539
_cell_length_c	10.686285
_cell_angle_alpha	94.392139
_cell_angle_beta	89.654569
_cell_angle_gamma	94.350309
loop_
_atom_site_label
_atom_site_type_symbol
_atom_site_fract_x
_atom_site_fract_y
_atom_site_fract_z
Zn1	Zn	1.956165	-0.342920	0.352082
Zn2	Zn	1.972163	-0.197047	0.561874
Zn3	Zn	1.746396	-0.217581	0.368240
Zn4	Zn	1.762490	-0.341319	0.577904
O5	O	1.859304	-0.274716	0.465025
O6	O	2.133825	-0.315646	0.366441
O7	O	1.942175	-0.086937	0.536241
O8	O	1.760791	-0.243471	0.190553
O9	O	2.145579	-0.208473	0.520574
O10	O	1.914907	-0.335557	0.178682
O11	O	1.776305	-0.102024	0.393979
O12	O	1.572993	-0.241918	0.409522
O13	O	1.788221	-0.454364	0.547894
O14	O	1.584817	-0.332828	0.563562
O15	O	1.930513	-0.455540	0.381984
O16	O	1.957781	-0.206921	0.739544
O17	O	1.803735	-0.312917	0.751321
C18	C	1.533390	-0.289428	0.490036
C19	C	1.393965	-0.295739	0.500766
C20	C	1.859378	-0.485027	0.464925
C21	C	1.859410	-0.574648	0.464883
C22	C	1.859457	-0.902829	0.464738
C23	C	1.859440	-0.811519	0.464782
C24	C	1.859434	-0.738741	0.464811
C25	C	1.859416	-0.647426	0.464854
C26	C	2.186490	-0.259948	0.439917
C27	C	2.325917	-0.253654	0.429218
C28	C	1.884274	-0.257533	0.790946
C29	C	1.895072	-0.250204	0.930368
C30	C	1.859295	-0.065226	0.465028
C31	C	1.859479	0.024388	0.464699
C32	C	1.834270	-0.291983	0.137828
C33	C	1.823601	-0.299341	-0.001604
H34	H	1.345554	-0.336597	0.570241
H35	H	1.964515	-0.202519	0.978795
O36	O	1.390019	-0.199532	0.337191
H37	H	1.493141	-0.202909	0.342910
O38	O	1.731613	-0.362504	0.934272
H39	H	1.737296	-0.358551	0.831154
