data_functionalizedCrystal
_audit_creation_method	'MofGen! by Chris Wilmer'
_symmetry_space_group_name_H-M	'P1'
_symmetry_Int_Tables_number	1
_symmetry_cell_setting	triclinic
loop_
_symmetry_equiv_pos_as_xyz
  x,y,z
_cell_length_a	15.995350
_cell_length_b	16.109301
_cell_length_c	15.186229
_cell_angle_alpha	90.000638
_cell_angle_beta	89.998487
_cell_angle_gamma	96.523072
loop_
_atom_site_label
_atom_site_type_symbol
_atom_site_fract_x
_atom_site_fract_y
_atom_site_fract_z
O1	O	0.107624	-1.103160	-0.073168
O2	O	0.607624	-0.603160	0.426832
O3	O	0.121018	-0.861101	-0.073182
O4	O	0.621018	-0.361101	0.426818
O5	O	-0.007569	-0.988747	-0.073174
O6	O	0.492431	-0.488747	0.426826
O7	O	0.236210	-0.975514	-0.073176
O8	O	0.736210	-0.475514	0.426824
O9	O	-0.007570	-0.988739	0.073283
O10	O	0.492430	-0.488739	0.573283
O11	O	0.121016	-0.861093	0.073275
O12	O	0.621016	-0.361093	0.573275
O13	O	0.107622	-1.103151	0.073289
O14	O	0.607622	-0.603151	0.573289
Zn15	Zn	0.114319	-0.982121	0.096535
Zn16	Zn	0.614319	-0.482121	0.596535
Zn17	Zn	0.114321	-0.982132	-0.096428
Zn18	Zn	0.614321	-0.482132	0.403572
O19	O	0.236208	-0.975505	0.073281
O20	O	0.736208	-0.475505	0.573281
C21	C	0.120474	-0.830122	0.000045
C22	C	0.620474	-0.330122	0.500045
C23	C	0.118848	-0.737826	0.000040
C24	C	0.618848	-0.237826	0.500040
C25	C	-0.038764	-0.988196	0.000053
C26	C	0.461236	-0.488196	0.500053
C27	C	-0.131714	-0.986556	0.000048
C28	C	0.368286	-0.486556	0.500048
N29	N	0.114317	-0.982119	0.228228
N30	N	0.614317	-0.482119	0.728228
C31	C	-0.469460	-0.980665	0.000050
C32	C	0.030540	-0.480665	0.500050
C33	C	-0.422001	-0.889758	-0.000283
C34	C	0.077999	-0.389758	0.499717
C35	C	-0.325311	-0.891399	0.000047
C36	C	0.174689	-0.391399	0.500047
C37	C	-0.301900	-0.983587	0.000049
C38	C	0.198100	-0.483587	0.500049
C39	C	-0.342991	-1.028421	0.083684
C40	C	0.157009	-0.528421	0.583684
C41	C	-0.439626	-1.026137	0.083754
C42	C	0.060374	-0.526137	0.583754
C43	C	-0.439983	-1.028025	-0.082795
C44	C	0.060017	-0.528025	0.417205
C45	C	-0.343037	-1.028003	-0.083901
C46	C	0.156963	-0.528003	0.416099
C47	C	-0.207203	-0.985243	0.000051
C48	C	0.292797	-0.485243	0.500051
C49	C	-0.564157	-0.979012	0.000054
C50	C	-0.064157	-0.479012	0.500054
C51	C	0.267404	-0.976056	0.000052
C52	C	0.767404	-0.476056	0.500052
C53	C	0.360354	-0.977697	0.000051
C54	C	0.860354	-0.477697	0.500051
C55	C	0.108166	-1.134130	0.000060
C56	C	0.608166	-0.634130	0.500060
C57	C	0.109792	-1.226426	0.000059
C58	C	0.609792	-0.726426	0.500059
C59	C	0.191366	-0.515573	0.000049
C60	C	0.691366	-0.015573	0.500049
C61	C	0.189831	-0.428853	0.000055
C62	C	0.689831	0.071147	0.500055
C63	C	0.037268	-0.448686	0.000053
C64	C	0.537268	0.051314	0.500053
C65	C	0.038804	-0.535405	0.000053
C66	C	0.538804	-0.035405	0.500053
C67	C	0.115855	-0.568846	0.000047
C68	C	0.615855	-0.068846	0.500047
C69	C	0.112785	-0.395406	0.000052
C70	C	0.612785	0.104594	0.500052
C71	C	0.111120	-0.301380	0.000058
C72	C	0.611120	0.198620	0.500058
C73	C	0.117520	-0.662879	0.000043
C74	C	0.617520	-0.162879	0.500043
N75	N	0.114317	-0.982140	-0.228121
N76	N	0.614317	-0.482140	0.271879
C77	C	0.057398	-1.038660	0.453954
C78	C	0.557398	-0.538660	0.953954
C79	C	0.057396	-1.038662	0.546144
C80	C	0.557396	-0.538662	1.046144
C81	C	0.171238	-0.925593	0.546146
C82	C	0.671238	-0.425593	1.046146
C83	C	0.171236	-0.925587	0.453958
C84	C	0.671236	-0.425587	0.953958
C85	C	0.114316	-0.982125	0.407865
C86	C	0.614316	-0.482125	0.907865
C87	C	0.114317	-0.982134	0.592242
C88	C	0.614317	-0.482134	1.092242
C89	C	0.114315	-0.982136	0.692198
C90	C	0.614315	-0.482136	1.192198
C91	C	0.114317	-0.982122	0.307902
C92	C	0.614317	-0.482122	0.807902
H93	H	-0.440522	-0.853427	-0.060260
H94	H	0.059478	-0.353427	0.439740
C95	C	0.039261	-1.151808	0.649813
C96	C	0.539261	-0.651808	1.149813
C97	C	-0.005168	-1.100808	0.596809
C98	C	0.494832	-0.600808	1.096809
H99	H	0.000632	-1.190171	0.681094
H100	H	0.500632	-0.690171	1.181094
H101	H	0.074116	-1.181709	0.613847
H102	H	0.574116	-0.681709	1.113847
H103	H	0.073155	-1.118131	0.690457
H104	H	0.573155	-0.618131	1.190457
H105	H	-0.039059	-1.134484	0.556161
H106	H	0.460941	-0.634484	1.056161
H107	H	-0.040038	-1.070905	0.632778
H108	H	0.459962	-0.570905	1.132778
C109	C	-0.343212	-1.023854	-0.241946
C110	C	0.156788	-0.523854	0.258054
C111	C	-0.306168	-0.983822	-0.167432
C112	C	0.193832	-0.483822	0.332568
H113	H	-0.320447	-0.996574	-0.293513
H114	H	0.179553	-0.496574	0.206487
H115	H	-0.332027	-1.080510	-0.242468
H116	H	0.167973	-0.580510	0.257532
H117	H	-0.402284	-1.021614	-0.240398
H118	H	0.097716	-0.521614	0.259602
H119	H	-0.247096	-0.986067	-0.168978
H120	H	0.252904	-0.486067	0.331022
H121	H	-0.317346	-0.927152	-0.166911
H122	H	0.182654	-0.427152	0.333089
C123	C	0.285182	-0.907539	0.350272
C124	C	0.785182	-0.407539	0.850272
C125	C	0.233808	-0.863442	0.403288
C126	C	0.733808	-0.363442	0.903288
H127	H	0.323804	-0.869173	0.318988
H128	H	0.823804	-0.369173	0.818988
H129	H	0.315310	-0.942138	0.386232
H130	H	0.815310	-0.442138	0.886232
H131	H	0.251270	-0.941202	0.309632
H132	H	0.751270	-0.441202	0.809632
H133	H	0.267719	-0.829783	0.443933
H134	H	0.767719	-0.329783	0.943933
H135	H	0.203677	-0.828829	0.367326
H136	H	0.703677	-0.328829	0.867326
C137	C	-0.113379	-0.477001	0.000050
C138	C	0.386621	0.022999	0.500050
C139	C	-0.047425	-0.411925	0.000049
C140	C	0.452575	0.088075	0.500049
H141	H	-0.165665	-0.454306	0.000051
H142	H	0.334335	0.045694	0.500051
H143	H	-0.109603	-0.510412	-0.051017
H144	H	0.390397	-0.010412	0.448983
H145	H	-0.109605	-0.510410	0.051129
H146	H	0.390395	-0.010410	0.551129
H147	H	-0.051195	-0.378519	-0.051033
H148	H	0.448805	0.121481	0.448967
H149	H	-0.051203	-0.378500	0.051122
H150	H	0.448797	0.121500	0.551122
H151	H	0.217582	-0.879562	0.583685
H152	H	0.717582	-0.379562	1.083685
H153	H	-0.327694	-1.095231	-0.088949
H154	H	0.172306	-0.595231	0.411051
C155	C	0.342013	-0.487256	0.000063
C156	C	0.842013	0.012744	0.500063
C157	C	0.276060	-0.552333	0.000054
C158	C	0.776060	-0.052333	0.500054
H159	H	0.394299	-0.509950	0.000073
H160	H	0.894299	-0.009950	0.500073
H161	H	0.338246	-0.453847	-0.051008
H162	H	0.838246	0.046153	0.448992
H163	H	0.338228	-0.453843	0.051138
H164	H	0.838228	0.046157	0.551138
H165	H	0.279841	-0.585742	-0.051025
H166	H	0.779841	-0.085742	0.448975
H167	H	0.279829	-0.585755	0.051130
H168	H	0.779829	-0.085755	0.551130
H169	H	-0.296879	-0.856156	-0.059906
H170	H	0.203121	-0.356156	0.440094
C171	C	-0.511639	-0.920073	-0.147771
C172	C	-0.011639	-0.420073	0.352229
C173	C	-0.467689	-0.987905	-0.168373
C174	C	0.032311	-0.487905	0.331627
H175	H	-0.528738	-0.895296	-0.200600
H176	H	-0.028738	-0.395296	0.299400
H177	H	-0.559832	-0.938949	-0.113635
H178	H	-0.059832	-0.438949	0.386365
H179	H	-0.476146	-0.879963	-0.115116
H180	H	0.023854	-0.379963	0.384884
H181	H	-0.503185	-1.028018	-0.201023
H182	H	-0.003185	-0.528018	0.298977
H183	H	-0.419489	-0.969030	-0.202523
H184	H	0.080511	-0.469030	0.297477
C185	C	0.039199	-1.151768	0.350226
C186	C	0.539199	-0.651768	0.850226
C187	C	-0.005193	-1.100761	0.403265
C188	C	0.494807	-0.600761	0.903265
H189	H	0.000548	-1.190097	0.318932
H190	H	0.500548	-0.690097	0.818932
H191	H	0.073110	-1.118097	0.309602
H192	H	0.573110	-0.618097	0.809602
H193	H	0.074036	-1.181714	0.386178
H194	H	0.574036	-0.681714	0.886178
H195	H	-0.040025	-1.070810	0.367312
H196	H	0.459975	-0.570810	0.867312
H197	H	-0.039118	-1.134436	0.443893
H198	H	0.460882	-0.634436	0.943893
H199	H	0.251320	-0.385481	0.000058
H200	H	0.751320	0.114519	0.500058
H201	H	-0.022690	-0.578782	0.000054
H202	H	0.477310	-0.078782	0.500054
H203	H	-0.471762	-1.095050	-0.083356
H204	H	0.028238	-0.595050	0.416644
H205	H	-0.441586	-0.853581	0.059355
H206	H	0.058414	-0.353581	0.559355
H207	H	-0.297438	-0.855912	0.060099
H208	H	0.202562	-0.355912	0.560099
H209	H	-0.457919	-0.993437	0.146271
H210	H	0.042081	-0.493437	0.646271
C211	C	-0.368239	-0.955731	0.217395
C212	C	0.131761	-0.455731	0.717395
C213	C	-0.304679	-0.986376	0.167708
C214	C	0.195321	-0.486376	0.667708
H215	H	-0.344587	-0.929776	0.269268
H216	H	0.155413	-0.429776	0.769268
H217	H	-0.393956	-0.916026	0.183559
H218	H	0.106044	-0.416026	0.683559
H219	H	-0.409274	-1.000614	0.233066
H220	H	0.090726	-0.500614	0.733066
H221	H	-0.263648	-0.941492	0.152031
H222	H	0.236352	-0.441492	0.652031
H223	H	-0.278949	-1.026085	0.201550
H224	H	0.221051	-0.526085	0.701550
H225	H	-0.471892	-1.092880	0.087550
H226	H	0.028108	-0.592880	0.587550
H227	H	-0.328884	-1.096149	0.086795
H228	H	0.171116	-0.596149	0.586795
