data_functionalizedCrystal
_audit_creation_method	'MofGen! by Chris Wilmer'
_symmetry_space_group_name_H-M	'P1'
_symmetry_Int_Tables_number	1
_symmetry_cell_setting	triclinic
loop_
_symmetry_equiv_pos_as_xyz
  x,y,z
_cell_length_a	18.215407
_cell_length_b	21.395361
_cell_length_c	21.395355
_cell_angle_alpha	90.021511
_cell_angle_beta	90.024690
_cell_angle_gamma	90.031156
loop_
_atom_site_label
_atom_site_type_symbol
_atom_site_fract_x
_atom_site_fract_y
_atom_site_fract_z
Zn1	Zn	1.125077	-0.249504	0.354251
Zn2	Zn	1.625077	0.250496	0.854251
Zn3	Zn	1.124963	-0.354263	0.249468
Zn4	Zn	1.624963	0.145737	0.749468
Zn5	Zn	1.002000	-0.249505	0.249487
Zn6	Zn	1.502000	0.250495	0.749487
Zn7	Zn	1.001963	-0.354248	0.354208
Zn8	Zn	1.501963	0.145752	0.854208
O9	O	1.063501	-0.301880	0.301853
O10	O	1.563501	0.198120	0.801853
O11	O	1.228046	-0.263406	0.340361
O12	O	1.728046	0.236594	0.840361
O13	O	1.108619	-0.340374	0.161792
O14	O	1.608619	0.159626	0.661792
O15	O	1.018389	-0.161827	0.263410
O16	O	1.518389	0.338173	0.763410
O17	O	1.227962	-0.340373	0.263377
O18	O	1.727962	0.159627	0.763377
O19	O	1.108814	-0.161826	0.340380
O20	O	1.608814	0.338174	0.840380
O21	O	1.018278	-0.263408	0.161807
O22	O	1.518278	0.236592	0.661807
O23	O	0.899010	-0.263393	0.263369
O24	O	1.399010	0.236607	0.763369
O25	O	1.018327	-0.340347	0.441891
O26	O	1.518327	0.159653	0.941891
O27	O	0.898984	-0.340348	0.340306
O28	O	1.398984	0.159652	0.840306
O29	O	1.108779	-0.263391	0.441923
O30	O	1.608779	0.236609	0.941923
O31	O	1.108584	-0.441939	0.263336
O32	O	1.608584	0.058061	0.763336
O33	O	1.018216	-0.441928	0.340288
O34	O	1.518216	0.058072	0.840288
C35	C	1.063404	-0.464668	0.301818
C36	C	1.563404	0.035332	0.801818
C37	C	1.063429	-0.534309	0.301824
C38	C	1.563429	-0.034309	0.801824
C39	C	0.872295	-0.301869	0.301835
C40	C	1.372295	0.198131	0.801835
C41	C	0.790496	-0.301880	0.301842
C42	C	1.290496	0.198120	0.801842
C43	C	1.110525	-0.567007	0.261797
C44	C	1.610525	-0.067007	0.761797
C45	C	1.110560	-0.632442	0.261811
C46	C	1.610560	-0.132442	0.761811
C47	C	1.063485	-0.665177	0.301846
C48	C	1.563485	-0.165177	0.801846
C49	C	1.016386	-0.632471	0.341882
C50	C	1.516386	-0.132471	0.841882
C51	C	1.016358	-0.567037	0.341871
C52	C	1.516358	-0.067037	0.841871
C53	C	0.997221	-0.768893	0.306756
C54	C	1.497221	-0.268893	0.806756
C55	C	0.997248	-0.834326	0.306762
C56	C	1.497248	-0.334326	0.806762
C57	C	1.063570	-0.866998	0.301883
C58	C	1.563570	-0.366998	0.801883
C59	C	1.129869	-0.834229	0.296984
C60	C	1.629869	-0.334229	0.796984
C61	C	1.129841	-0.768795	0.296973
C62	C	1.629841	-0.268795	0.796973
C63	C	1.063510	-0.736129	0.301862
C64	C	1.563510	-0.236129	0.801862
C65	C	1.110707	-0.970649	0.261868
C66	C	1.610707	-0.470649	0.761868
C67	C	1.110743	-1.036085	0.261886
C68	C	1.610743	-0.536085	0.761886
C69	C	1.016562	-1.036113	0.341954
C70	C	1.516562	-0.536113	0.841954
C71	C	1.016533	-0.970677	0.341939
C72	C	1.516533	-0.470677	0.841939
C73	C	1.063605	-0.937949	0.301892
C74	C	1.563605	-0.437949	0.801892
C75	C	0.602307	-0.342013	0.341854
C76	C	1.102307	0.157987	0.841854
C77	C	0.525448	-0.342015	0.341861
C78	C	1.025448	0.157985	0.841861
C79	C	0.525446	-0.261758	0.261867
C80	C	1.025446	0.238242	0.761867
C81	C	0.602304	-0.261754	0.261862
C82	C	1.102304	0.238246	0.761862
C83	C	0.640732	-0.301885	0.301855
C84	C	1.140732	0.198115	0.801855
C85	C	0.487016	-0.301891	0.301867
C86	C	0.987016	0.198109	0.801867
C87	C	0.403682	-0.301893	0.301875
C88	C	0.903682	0.198107	0.801875
C89	C	0.724071	-0.301882	0.301848
C90	C	1.224071	0.198118	0.801848
C91	C	1.255454	-0.301891	0.301872
C92	C	1.755454	0.198109	0.801872
C93	C	1.337253	-0.301896	0.301880
C94	C	1.837253	0.198104	0.801880
C95	C	1.063562	-0.301867	0.465277
C96	C	1.563562	0.198133	0.965277
C97	C	1.063588	-0.301862	0.534918
C98	C	1.563588	0.198138	1.034918
C99	C	1.063618	-0.138457	0.301902
C100	C	1.563618	0.361543	0.801902
C101	C	1.063668	-0.068815	0.301923
C102	C	1.563668	0.431185	0.801923
C103	C	1.063482	-0.301847	0.139066
C104	C	1.563482	0.198153	0.639066
C105	C	1.063599	-0.301676	0.069425
C106	C	1.563599	0.198324	0.569425
C107	C	1.110684	-0.261790	0.567649
C108	C	1.610684	0.238210	1.067649
C109	C	1.110683	-0.261763	0.633084
C110	C	1.610683	0.238237	1.133084
C111	C	1.063594	-0.301819	0.665786
C112	C	1.563594	0.198181	1.165786
C113	C	1.016489	-0.341894	0.633048
C114	C	1.516489	0.158106	1.133048
C115	C	1.016486	-0.341916	0.567614
C116	C	1.516486	0.158084	1.067614
C117	C	1.057749	-0.358235	0.769449
C118	C	1.557749	0.141765	1.269449
C119	C	1.057757	-0.358214	0.834882
C120	C	1.557757	0.141786	1.334882
C121	C	1.063598	-0.301753	0.867607
C122	C	1.563598	0.198247	1.367607
C123	C	1.069447	-0.245310	0.834891
C124	C	1.569447	0.254690	1.334891
C125	C	1.069444	-0.245332	0.769457
C126	C	1.569444	0.254668	1.269457
C127	C	1.063591	-0.301800	0.736739
C128	C	1.563591	0.198200	1.236739
C129	C	1.110696	-0.261648	0.971290
C130	C	1.610696	0.238352	1.471290
C131	C	1.110690	-0.261620	1.036727
C132	C	1.610690	0.238380	1.536727
C133	C	1.016499	-0.341757	1.036690
C134	C	1.516499	0.158243	1.536690
C135	C	1.016501	-0.341780	0.971254
C136	C	1.516501	0.158220	1.471254
C137	C	1.063604	-0.301726	0.938559
C138	C	1.563604	0.198274	1.438559
H139	H	1.148855	-0.540362	0.229190
H140	H	1.648855	-0.040362	0.729190
H141	H	1.074204	-0.199334	0.861535
H142	H	1.574204	0.300666	1.361535
C143	C	0.964604	-0.668473	0.385921
C144	C	1.464604	-0.168473	0.885921
H145	H	0.936555	-0.639625	0.409764
H146	H	1.436555	-0.139625	0.909764
H147	H	0.932562	-0.694037	0.361935
H148	H	1.432562	-0.194037	0.861935
H149	H	0.992758	-0.693962	0.413248
H150	H	1.492758	-0.193962	0.913248
H151	H	1.149045	-0.229030	0.944668
H152	H	1.649045	0.270970	1.444668
H153	H	0.633590	-0.229072	0.229291
H154	H	1.133590	0.270928	0.729291
C155	C	1.051163	-0.420334	0.733457
C156	C	1.551163	0.079666	1.233457
H157	H	1.047643	-0.453941	0.762311
H158	H	1.547643	0.046059	1.262311
H159	H	1.008465	-0.419436	0.707968
H160	H	1.508465	0.080564	1.207968
H161	H	1.093282	-0.425935	0.707895
H162	H	1.593282	0.074065	1.207895
H163	H	0.943264	-0.861001	0.310745
H164	H	1.443264	-0.361001	0.810745
H165	H	0.978006	-0.540413	0.374467
H166	H	1.478006	-0.040413	0.874467
C167	C	1.162488	-0.217727	0.531687
C168	C	1.662488	0.282273	1.031687
H169	H	1.190533	-0.193854	0.560556
H170	H	1.690533	0.306146	1.060556
H171	H	1.194534	-0.241703	0.506169
H172	H	1.694534	0.258297	1.006169
H173	H	1.134351	-0.190430	0.506155
H174	H	1.634351	0.309570	1.006155
H175	H	1.148913	-0.659070	0.229215
H176	H	1.648913	-0.159070	0.729215
C177	C	1.162551	-1.072053	0.217853
C178	C	1.662551	-0.572053	0.717853
H179	H	1.190573	-1.043188	0.193999
H180	H	1.690573	-0.543188	0.693999
H181	H	1.194617	-1.097541	0.241846
H182	H	1.694617	-0.597541	0.741846
H183	H	1.134418	-1.097616	0.190536
H184	H	1.634418	-0.597616	0.690536
H185	H	0.633593	-0.374689	0.374420
H186	H	1.133593	0.125311	0.874420
H187	H	1.183822	-0.742116	0.292986
H188	H	1.683822	-0.242116	0.792986
H189	H	0.978146	-0.374507	0.659678
H190	H	1.478146	0.125493	1.159678
C191	C	0.483184	-0.386155	0.385861
C192	C	0.983184	0.113845	0.885861
H193	H	0.517080	-0.410055	0.409675
H194	H	1.017080	0.089945	0.909675
H195	H	0.453234	-0.362227	0.413207
H196	H	0.953234	0.137773	0.913207
H197	H	0.453170	-0.413424	0.361845
H198	H	0.953170	0.086576	0.861845
C199	C	0.483173	-0.217625	0.217872
C200	C	0.983173	0.282375	0.717872
H201	H	0.431896	-0.223379	0.223597
H202	H	0.931896	0.276621	0.723597
H203	H	0.495795	-0.175539	0.227113
H204	H	0.995795	0.324461	0.727113
H205	H	0.495742	-0.226741	0.175756
H206	H	0.995742	0.273259	0.675756
H207	H	1.149033	-0.229127	0.659738
H208	H	1.649033	0.270873	1.159738
H209	H	0.978131	-0.374547	0.540965
H210	H	1.478131	0.125453	1.040965
H211	H	1.074204	-0.199374	0.742823
H212	H	1.574204	0.300626	1.242823
H213	H	1.183875	-0.860829	0.293011
H214	H	1.683875	-0.360829	0.793011
C215	C	1.162498	-0.217539	1.072731
C216	C	1.662498	0.282461	1.572731
H217	H	1.190553	-0.193693	1.043884
H218	H	1.690553	0.306307	1.543884
H219	H	1.134372	-0.190225	1.098248
H220	H	1.634372	0.309775	1.598248
H221	H	1.194546	-0.241507	1.098267
H222	H	1.694546	0.258493	1.598267
H223	H	0.978150	-0.374366	1.063315
H224	H	1.478150	0.125634	1.563315
H225	H	0.978155	-0.374415	0.944605
H226	H	1.478155	0.125585	1.444605
C227	C	0.924264	-0.732957	0.312122
C228	C	1.424264	-0.232957	0.812122
H229	H	0.933742	-0.689294	0.311420
H230	H	1.433742	-0.189294	0.811420
H231	H	0.893333	-0.743723	0.278016
H232	H	1.393333	-0.243723	0.778016
H233	H	0.900714	-0.743677	0.350252
H234	H	1.400714	-0.243677	0.850252
H235	H	1.052999	-0.404173	0.861514
H236	H	1.552999	0.095827	1.361514
H237	H	1.149038	-0.944000	0.229262
H238	H	1.649038	-0.444000	0.729262
C239	C	0.964718	-0.934707	0.385962
C240	C	1.464718	-0.434707	0.885962
H241	H	0.936681	-0.963573	0.409804
H242	H	1.436681	-0.463573	0.909804
H243	H	0.992839	-0.909143	0.413280
H244	H	1.492839	-0.409143	0.913280
H245	H	0.932654	-0.909222	0.361958
H246	H	1.432654	-0.409222	0.861958
H247	H	0.978236	-1.062764	0.374554
H248	H	1.478236	-0.562764	0.874554
