data_functionalizedCrystal
_audit_creation_method	'MofGen! by Chris Wilmer'
_symmetry_space_group_name_H-M	'P1'
_symmetry_Int_Tables_number	1
_symmetry_cell_setting	triclinic
loop_
_symmetry_equiv_pos_as_xyz
  x,y,z
_cell_length_a	13.897449
_cell_length_b	12.594516
_cell_length_c	13.897441
_cell_angle_alpha	89.974595
_cell_angle_beta	89.981404
_cell_angle_gamma	90.017332
loop_
_atom_site_label
_atom_site_type_symbol
_atom_site_fract_x
_atom_site_fract_y
_atom_site_fract_z
Zn1	Zn	1.474693	-0.423682	-0.545409
Zn2	Zn	1.724693	-0.173682	-0.295409
Zn3	Zn	1.974693	0.076318	-0.045409
Zn4	Zn	2.224693	0.326318	0.204591
Zn5	Zn	1.474598	-0.601690	-0.384123
Zn6	Zn	1.724598	-0.351690	-0.134123
Zn7	Zn	1.974598	-0.101690	0.115877
Zn8	Zn	2.224598	0.148310	0.365877
Zn9	Zn	1.313388	-0.423730	-0.384128
Zn10	Zn	1.563388	-0.173730	-0.134128
Zn11	Zn	1.813388	0.076270	0.115872
Zn12	Zn	2.063388	0.326270	0.365872
Zn13	Zn	1.313369	-0.601623	-0.545375
Zn14	Zn	1.563369	-0.351623	-0.295375
Zn15	Zn	1.813369	-0.101623	-0.045375
Zn16	Zn	2.063369	0.148377	0.204625
O17	O	1.394012	-0.512681	-0.464759
O18	O	1.644012	-0.262681	-0.214759
O19	O	1.894012	-0.012681	0.035241
O20	O	2.144012	0.237319	0.285241
O21	O	1.609662	-0.447303	-0.524027
O22	O	1.859662	-0.197303	-0.274027
O23	O	2.109662	0.052697	-0.024027
O24	O	2.359662	0.302697	0.225973
O25	O	1.453181	-0.578131	-0.249142
O26	O	1.703181	-0.328131	0.000858
O27	O	1.953181	-0.078131	0.250858
O28	O	2.203181	0.171869	0.500858
O29	O	1.334834	-0.274778	-0.405539
O30	O	1.584834	-0.024778	-0.155539
O31	O	1.834834	0.225222	0.094461
O32	O	2.084834	0.475222	0.344461
O33	O	1.609592	-0.578085	-0.405530
O34	O	1.859592	-0.328085	-0.155530
O35	O	2.109592	-0.078085	0.094470
O36	O	2.359592	0.171915	0.344470
O37	O	1.453344	-0.274743	-0.524032
O38	O	1.703344	-0.024743	-0.274032
O39	O	1.953344	0.225257	-0.024032
O40	O	2.203344	0.475257	0.225968
O41	O	1.334742	-0.447384	-0.249145
O42	O	1.584742	-0.197384	0.000855
O43	O	1.834742	0.052616	0.250855
O44	O	2.084742	0.302616	0.500855
O45	O	1.178404	-0.447320	-0.405506
O46	O	1.428404	-0.197320	-0.155506
O47	O	1.678404	0.052680	0.094494
O48	O	1.928404	0.302680	0.344494
O49	O	1.334800	-0.577971	-0.680362
O50	O	1.584800	-0.327971	-0.430362
O51	O	1.834800	-0.077971	-0.180362
O52	O	2.084800	0.172029	0.069638
O53	O	1.178390	-0.578017	-0.523973
O54	O	1.428390	-0.328017	-0.273973
O55	O	1.678390	-0.078017	-0.023973
O56	O	1.928390	0.171983	0.226027
O57	O	1.453325	-0.447238	-0.680387
O58	O	1.703325	-0.197238	-0.430387
O59	O	1.953325	0.052762	-0.180387
O60	O	2.203325	0.302762	0.069613
O61	O	1.453162	-0.750627	-0.405497
O62	O	1.703162	-0.500627	-0.155497
O63	O	1.953162	-0.250627	0.094503
O64	O	2.203162	-0.000627	0.344503
O65	O	1.334708	-0.750578	-0.523968
O66	O	1.584708	-0.500578	-0.273968
O67	O	1.834708	-0.250578	-0.023968
O68	O	2.084708	-0.000578	0.226032
C69	C	1.143398	-0.512667	-0.464737
C70	C	1.393398	-0.262667	-0.214737
C71	C	1.643398	-0.012667	0.035263
C72	C	1.893398	0.237333	0.285263
C73	C	1.036184	-0.512686	-0.464750
C74	C	1.286184	-0.262686	-0.214750
C75	C	1.536184	-0.012686	0.035250
C76	C	1.786184	0.237314	0.285250
C77	C	1.393949	-0.789222	-0.464749
C78	C	1.643949	-0.539222	-0.214749
C79	C	1.893949	-0.289222	0.035251
C80	C	2.143949	-0.039222	0.285251
C81	C	1.394010	-0.907528	-0.464778
C82	C	1.644010	-0.657528	-0.214778
C83	C	1.894010	-0.407528	0.035222
C84	C	2.144010	-0.157528	0.285222
C85	C	0.839889	-0.512690	-0.464776
C86	C	1.089889	-0.262690	-0.214776
C87	C	1.339889	-0.012690	0.035224
C88	C	1.589889	0.237310	0.285224
C89	C	0.949121	-0.512685	-0.464759
C90	C	1.199121	-0.262685	-0.214759
C91	C	1.449121	-0.012685	0.035241
C92	C	1.699121	0.237315	0.285241
C93	C	1.329576	-0.976793	-0.529169
C94	C	1.579576	-0.726793	-0.279169
C95	C	1.829576	-0.476793	-0.029169
C96	C	2.079576	-0.226793	0.220831
C97	C	1.306076	-1.047657	-0.441152
C98	C	1.556076	-0.797657	-0.191152
C99	C	1.806076	-0.547657	0.058848
C100	C	2.056076	-0.297657	0.308848
C101	C	1.417598	-1.047462	-0.552810
C102	C	1.667598	-0.797462	-0.302810
C103	C	1.917598	-0.547462	-0.052810
C104	C	2.167598	-0.297462	0.197190
C105	C	1.370463	-0.976834	-0.376714
C106	C	1.620463	-0.726834	-0.126714
C107	C	1.870463	-0.476834	0.123286
C108	C	2.120463	-0.226834	0.373286
C109	C	1.482026	-0.976632	-0.488431
C110	C	1.732026	-0.726632	-0.238431
C111	C	1.982026	-0.476632	0.011569
C112	C	2.232026	-0.226632	0.261569
C113	C	1.458559	-1.047465	-0.400353
C114	C	1.708559	-0.797465	-0.150353
C115	C	1.958559	-0.547465	0.099647
C116	C	2.208559	-0.297465	0.349647
C117	C	1.645605	-0.512696	-0.464781
C118	C	1.895605	-0.262696	-0.214781
C119	C	2.145605	-0.012696	0.035219
C120	C	2.395605	0.237304	0.285219
C121	C	1.752819	-0.512703	-0.464791
C122	C	2.002819	-0.262703	-0.214791
C123	C	2.252819	-0.012703	0.035209
C124	C	2.502819	0.237297	0.285209
C125	C	1.394071	-0.512592	-0.716352
C126	C	1.644071	-0.262592	-0.466352
C127	C	1.894071	-0.012592	-0.216352
C128	C	2.144071	0.237408	0.033648
C129	C	1.394096	-0.512554	-0.823566
C130	C	1.644096	-0.262554	-0.573566
C131	C	1.894096	-0.012554	-0.323566
C132	C	2.144096	0.237446	-0.073566
C133	C	1.394102	-0.235060	-0.464789
C134	C	1.644102	0.014940	-0.214789
C135	C	1.894102	0.264940	0.035211
C136	C	2.144102	0.514940	0.285211
C137	C	1.394140	-0.116755	-0.464802
C138	C	1.644140	0.133245	-0.214802
C139	C	1.894140	0.383245	0.035198
C140	C	2.144140	0.633245	0.285198
C141	C	1.394116	-0.512524	-0.910636
C142	C	1.644116	-0.262524	-0.660636
C143	C	1.894116	-0.012524	-0.410636
C144	C	2.144116	0.237476	-0.160636
C145	C	1.394144	-0.512476	-1.019868
C146	C	1.644144	-0.262476	-0.769868
C147	C	1.894144	-0.012476	-0.519868
C148	C	2.144144	0.237524	-0.269868
C149	C	1.394009	-0.512693	-0.214145
C150	C	1.644009	-0.262693	0.035855
C151	C	1.894009	-0.012693	0.285855
C152	C	2.144009	0.237307	0.535855
C153	C	1.394170	-0.512432	-0.106931
C154	C	1.644170	-0.262432	0.143069
C155	C	1.894170	-0.012432	0.393069
C156	C	2.144170	0.237568	0.643069
H157	H	1.231703	-1.078878	-0.421166
H158	H	1.481703	-0.828878	-0.171166
H159	H	1.731703	-0.578878	0.078834
H160	H	1.981703	-0.328878	0.328834
C161	C	1.343781	-0.935440	-0.277510
C162	C	1.593781	-0.685440	-0.027510
C163	C	1.843781	-0.435440	0.222490
C164	C	2.093781	-0.185440	0.472490
C165	C	1.343960	-0.824277	-0.278672
C166	C	1.593960	-0.574277	-0.028672
C167	C	1.843960	-0.324277	0.221328
C168	C	2.093960	-0.074277	0.471328
C169	C	1.319369	-0.786107	-0.187310
C170	C	1.569369	-0.536107	0.062690
C171	C	1.819369	-0.286107	0.312690
C172	C	2.069369	-0.036107	0.562690
H173	H	1.389271	-0.960089	-0.231660
H174	H	1.639271	-0.710089	0.018340
H175	H	1.889271	-0.460089	0.268340
H176	H	2.139271	-0.210089	0.518340
H177	H	1.281474	-0.960291	-0.260605
H178	H	1.531474	-0.710291	-0.010605
H179	H	1.781474	-0.460291	0.239395
H180	H	2.031474	-0.210291	0.489395
H181	H	1.406258	-0.799436	-0.295565
H182	H	1.656258	-0.549436	-0.045565
H183	H	1.906258	-0.299436	0.204435
H184	H	2.156258	-0.049436	0.454435
H185	H	1.298468	-0.799600	-0.324503
H186	H	1.548468	-0.549600	-0.074503
H187	H	1.798468	-0.299600	0.175497
H188	H	2.048468	-0.049600	0.425497
H189	H	1.257061	-0.810958	-0.170405
H190	H	1.507061	-0.560958	0.079595
H191	H	1.757061	-0.310958	0.329595
H192	H	2.007061	-0.060958	0.579595
H193	H	1.364862	-0.810763	-0.141467
H194	H	1.614862	-0.560763	0.108533
H195	H	1.864862	-0.310763	0.358533
H196	H	2.114862	-0.060763	0.608533
H197	H	1.319478	-0.710680	-0.188089
H198	H	1.569478	-0.460680	0.061911
H199	H	1.819478	-0.210680	0.311911
H200	H	2.069478	0.039320	0.561911
H201	H	1.513104	-1.078301	-0.345847
H202	H	1.763104	-0.828301	-0.095847
H203	H	2.013104	-0.578301	0.154153
H204	H	2.263104	-0.328301	0.404153
H205	H	1.556382	-0.945415	-0.508459
H206	H	1.806382	-0.695415	-0.258459
H207	H	2.056382	-0.445415	-0.008459
H208	H	2.306382	-0.195415	0.241541
C209	C	1.444005	-1.088684	-0.652146
C210	C	1.694005	-0.838684	-0.402146
C211	C	1.944005	-0.588684	-0.152146
C212	C	2.194005	-0.338684	0.097854
C213	C	1.376251	-1.052852	-0.719248
C214	C	1.626251	-0.802852	-0.469248
C215	C	1.876251	-0.552852	-0.219248
C216	C	2.126251	-0.302852	0.030752
C217	C	1.400544	-1.090789	-0.810769
C218	C	1.650544	-0.840789	-0.560769
C219	C	1.900544	-0.590789	-0.310769
C220	C	2.150544	-0.340789	-0.060769
H221	H	1.444421	-1.164100	-0.651432
H222	H	1.694421	-0.914100	-0.401432
H223	H	1.944421	-0.664100	-0.151432
H224	H	2.194421	-0.414100	0.098568
H225	H	1.506027	-1.063289	-0.669434
H226	H	1.756027	-0.813289	-0.419434
H227	H	2.006027	-0.563289	-0.169434
H228	H	2.256027	-0.313289	0.080566
H229	H	1.314245	-1.078253	-0.701965
H230	H	1.564245	-0.828253	-0.451965
H231	H	1.814245	-0.578253	-0.201965
H232	H	2.064245	-0.328253	0.048035
H233	H	1.375825	-0.977441	-0.719992
H234	H	1.625825	-0.727441	-0.469992
H235	H	1.875825	-0.477441	-0.219992
H236	H	2.125825	-0.227441	0.030008
H237	H	1.462567	-1.065393	-0.828057
H238	H	1.712567	-0.815393	-0.578057
H239	H	1.962567	-0.565393	-0.328057
H240	H	2.212567	-0.315393	-0.078057
H241	H	1.400961	-1.166203	-0.810045
H242	H	1.650961	-0.916203	-0.560045
H243	H	1.900961	-0.666203	-0.310045
H244	H	2.150961	-0.416203	-0.060045
H245	H	1.354583	-1.066474	-0.856310
H246	H	1.604583	-0.816474	-0.606310
H247	H	1.854583	-0.566474	-0.356310
H248	H	2.104583	-0.316474	-0.106310
H249	H	1.274990	-0.945760	-0.583543
H250	H	1.524990	-0.695760	-0.333543
H251	H	1.774990	-0.445760	-0.083543
H252	H	2.024990	-0.195760	0.166457
