data_functionalizedCrystal
_audit_creation_method	'MofGen! by Chris Wilmer'
_symmetry_space_group_name_H-M	'P1'
_symmetry_Int_Tables_number	1
_symmetry_cell_setting	triclinic
loop_
_symmetry_equiv_pos_as_xyz
  x,y,z
_cell_length_a	42.795325
_cell_length_b	42.779590
_cell_length_c	42.774428
_cell_angle_alpha	89.991553
_cell_angle_beta	60.000618
_cell_angle_gamma	59.987809
loop_
_atom_site_label
_atom_site_type_symbol
_atom_site_fract_x
_atom_site_fract_y
_atom_site_fract_z
O1	O	0.223593	0.266460	-0.009306
O2	O	0.159617	0.220999	0.009251
O3	O	0.223600	0.220996	-0.054765
O4	O	0.159609	0.266462	0.054710
O5	O	0.275582	0.169000	-0.054762
O6	O	0.211599	0.169003	0.009254
O7	O	0.275575	0.214464	-0.009303
Zn8	Zn	0.251840	0.183478	-0.000024
Zn9	Zn	0.183351	0.251985	-0.000028
O10	O	0.211591	0.214467	0.054713
C11	C	0.384210	0.412666	-0.028206
C12	C	0.422084	0.393679	-0.028469
C13	C	0.384220	0.356055	-0.028200
C14	C	0.422095	0.337154	-0.028464
C15	C	0.440806	0.356055	-0.028202
C16	C	0.365585	0.393679	-0.028468
C17	C	0.282282	0.549183	-0.017967
C18	C	0.261442	0.587844	-0.015072
C19	C	0.279320	0.607237	-0.013619
C20	C	0.256721	0.649158	-0.010474
C21	C	0.318041	0.587968	-0.015065
C22	C	0.338880	0.549309	-0.017965
C23	C	0.320999	0.529917	-0.019416
C24	C	0.567024	0.321487	-0.017953
C25	C	0.602773	0.303668	-0.015054
C26	C	0.620711	0.266387	-0.013595
C27	C	0.659469	0.247066	-0.010447
C28	C	0.602900	0.246922	-0.015039
C29	C	0.567157	0.264737	-0.017944
C30	C	0.549219	0.302023	-0.019399
C31	C	0.282325	0.321487	-0.017945
C32	C	0.261493	0.303670	-0.015040
C33	C	0.279382	0.266387	-0.013583
C34	C	0.256795	0.247068	-0.010431
C35	C	0.318099	0.246924	-0.015027
C36	C	0.338928	0.264742	-0.017930
C37	C	0.321040	0.302024	-0.019393
C38	C	0.343598	0.487998	-0.022556
C39	C	0.361611	0.454585	-0.025062
C40	C	0.361634	0.336738	-0.025051
C41	C	0.343630	0.321340	-0.022541
C42	C	0.479563	0.336738	-0.025054
C43	C	0.510458	0.321339	-0.022545
C44	C	0.051004	0.022785	0.028115
C45	C	0.069626	0.041773	0.028382
C46	C	-0.005598	0.079400	0.028120
C47	C	0.013110	0.098302	0.028387
C48	C	0.050987	0.079399	0.028121
C49	C	0.013127	0.041774	0.028381
C50	C	0.095841	-0.113738	0.017853
C51	C	0.116559	-0.152400	0.014952
C52	C	0.155284	-0.171795	0.013495
C53	C	0.177755	-0.213717	0.010342
C54	C	0.173289	-0.152525	0.014944
C55	C	0.152568	-0.113864	0.017850
C56	C	0.113842	-0.094471	0.019305
C57	C	0.152876	0.113970	0.017876
C58	C	0.173703	0.131790	0.014980
C59	C	0.155813	0.169074	0.013528
C60	C	0.178394	0.188396	0.010382
C61	C	0.117091	0.188540	0.014976
C62	C	0.096261	0.170724	0.017878
C63	C	0.114160	0.133435	0.019326
C64	C	-0.131819	0.113973	0.017874
C65	C	-0.167567	0.131792	0.014973
C66	C	-0.185509	0.169077	0.013522
C67	C	-0.224268	0.188398	0.010374
C68	C	-0.167700	0.188541	0.014968
C69	C	-0.131951	0.170721	0.017868
C70	C	-0.114016	0.133437	0.019324
C71	C	0.091378	-0.052550	0.022453
C72	C	0.073471	-0.019135	0.024964
C73	C	-0.044357	0.098719	0.024974
C74	C	-0.075253	0.114119	0.022468
C75	C	0.073571	0.098718	0.024975
C76	C	0.091573	0.114117	0.022469
C77	C	0.050930	0.356307	0.361633
C78	C	0.013052	0.393932	0.380533
C79	C	0.050927	0.356307	0.305022
C80	C	0.013049	0.393931	0.324008
C81	C	-0.005667	0.412919	0.361631
C82	C	0.069560	0.337405	0.324010
C83	C	0.152852	0.264607	0.396206
C84	C	0.173689	0.246663	0.414025
C85	C	0.155805	0.266007	0.451307
C86	C	0.178400	0.246555	0.470627
C87	C	0.117081	0.303296	0.470771
C88	C	0.096244	0.321236	0.452953
C89	C	0.114131	0.301889	0.415669
C90	C	-0.131902	0.549438	0.453324
C91	C	-0.167655	0.588099	0.471267
C92	C	-0.185591	0.607495	0.451923
C93	C	-0.224352	0.649414	0.471371
C94	C	-0.167773	0.588224	0.414636
C95	C	-0.132026	0.549563	0.396697
C96	C	-0.114091	0.530173	0.416045
C97	C	0.152842	0.264606	0.168508
C98	C	0.173680	0.246663	0.129847
C99	C	0.155794	0.266007	0.110452
C100	C	0.178387	0.246555	0.068533
C101	C	0.117073	0.303294	0.129719
C102	C	0.096239	0.321235	0.168379
C103	C	0.114125	0.301886	0.187772
C104	C	0.091536	0.321346	0.396351
C105	C	0.073525	0.336854	0.380952
C106	C	0.073520	0.336853	0.263104
C107	C	0.091529	0.321345	0.229691
C108	C	-0.044428	0.454838	0.381083
C109	C	-0.075326	0.488252	0.396589
O110	O	0.763045	0.169007	0.009252
O111	O	0.672161	0.214464	-0.009313
O112	O	0.672153	0.214472	0.054706
O113	O	0.763054	0.169000	-0.054768
O114	O	0.672143	0.266467	0.054701
O115	O	0.672152	0.266460	-0.009318
O116	O	0.763035	0.221002	0.009246
Zn117	Zn	0.717592	0.251986	-0.000037
Zn118	Zn	0.717605	0.183480	-0.000030
O119	O	0.763044	0.220995	-0.054773
O120	O	0.211473	0.772460	0.009214
O121	O	0.275486	0.662982	-0.009340
O122	O	0.211484	0.726992	0.054674
O123	O	0.275476	0.708450	-0.054801
O124	O	0.159517	0.726990	0.054667
O125	O	0.223519	0.662980	-0.009347
O126	O	0.159506	0.772458	0.009207
Zn127	Zn	0.183262	0.717719	-0.000071
Zn128	Zn	0.251731	0.717721	-0.000062
O129	O	0.223509	0.708448	-0.054808
O130	O	-0.327947	0.772715	0.496920
O131	O	-0.237042	0.663237	0.451461
O132	O	-0.237054	0.727250	0.451457
O133	O	-0.327935	0.708701	0.496925
O134	O	-0.237052	0.727250	0.503452
O135	O	-0.237039	0.663237	0.503457
O136	O	-0.327944	0.772714	0.548915
Zn137	Zn	-0.282491	0.717975	0.534441
Zn138	Zn	-0.282495	0.717976	0.465935
O139	O	-0.327932	0.708701	0.548920
O140	O	0.223622	0.221004	0.548693
O141	O	0.159627	0.266466	0.503228
O142	O	0.223612	0.266465	0.503226
O143	O	0.159637	0.221004	0.548695
O144	O	0.275593	0.214468	0.451233
O145	O	0.211608	0.214469	0.451235
O146	O	0.275603	0.169007	0.496700
Zn147	Zn	0.251859	0.183482	0.465713
Zn148	Zn	0.183371	0.251990	0.534216
O149	O	0.211618	0.169007	0.496702
C150	C	0.384277	0.079157	0.694922
C151	C	0.422154	0.041532	0.675938
C152	C	0.384280	0.079158	0.638308
C153	C	0.422156	0.041533	0.619410
C154	C	0.440872	0.022544	0.638314
C155	C	0.365647	0.098059	0.675932
C156	C	0.282357	0.170859	0.831436
C157	C	0.261521	0.188803	0.870097
C158	C	0.279403	0.169458	0.889493
C159	C	0.256809	0.188910	0.931413
C160	C	0.318126	0.132168	0.870226
C161	C	0.338963	0.114229	0.831567
C162	C	0.321077	0.133576	0.812173
C163	C	0.567101	-0.113977	0.603756
C164	C	0.602852	-0.152639	0.585940
C165	C	0.620788	-0.172034	0.548658
C166	C	0.659547	-0.213954	0.529340
C167	C	0.602971	-0.152763	0.529191
C168	C	0.567226	-0.114102	0.547003
C169	C	0.549291	-0.094711	0.584290
C170	C	0.282369	0.170862	0.603729
C171	C	0.261531	0.188806	0.585909
C172	C	0.279417	0.169462	0.548626
C173	C	0.256825	0.188915	0.529303
C174	C	0.318136	0.132174	0.529165
C175	C	0.338970	0.114232	0.546986
C176	C	0.321085	0.133581	0.584268
C177	C	0.343671	0.114118	0.770254
C178	C	0.361682	0.098611	0.736841
C179	C	0.361688	0.098613	0.618988
C180	C	0.343680	0.114121	0.603587
C181	C	0.479631	-0.019375	0.618999
C182	C	0.510528	-0.052790	0.603603
C183	C	0.384158	0.412711	0.361606
C184	C	0.365530	0.393726	0.380508
C185	C	0.440761	0.356094	0.305002
C186	C	0.422046	0.337195	0.323990
C187	C	0.384166	0.356101	0.361611
C188	C	0.422038	0.393719	0.323985
C189	C	0.339336	0.549229	0.396160
C190	C	0.318621	0.587890	0.413973
C191	C	0.279892	0.607288	0.451253
C192	C	0.257425	0.649210	0.470567
C193	C	0.261881	0.588022	0.470719
C194	C	0.282600	0.549362	0.452907
C195	C	0.321329	0.529965	0.415626
C196	C	0.282256	0.321545	0.453308
C197	C	0.261424	0.303729	0.471252
C198	C	0.279311	0.266446	0.451913
C199	C	0.256724	0.247127	0.471364
C200	C	0.318037	0.246976	0.414629
C201	C	0.338872	0.264789	0.396687
C202	C	0.320975	0.302077	0.416031
C203	C	0.567000	0.321507	0.168491
C204	C	0.602752	0.303686	0.129832
C205	C	0.620691	0.266401	0.110442
C206	C	0.659455	0.247077	0.068524
C207	C	0.602876	0.246941	0.129711
C208	C	0.567124	0.264764	0.168369
C209	C	0.549190	0.302047	0.187757
C210	C	0.343789	0.488045	0.396313
C211	C	0.361694	0.454631	0.380919
C212	C	0.479524	0.336771	0.263086
C213	C	0.510424	0.321368	0.229675
C214	C	0.361576	0.336786	0.381065
C215	C	0.343569	0.321390	0.396573
C216	C	1.051029	0.079122	-0.361678
C217	C	1.069667	0.041496	-0.380575
C218	C	0.994436	0.079129	-0.305069
C219	C	1.013161	0.041502	-0.324051
C220	C	1.051041	0.022511	-0.361672
C221	C	1.013149	0.098028	-0.324057
C222	C	1.095809	0.170820	-0.396254
C223	C	1.116514	0.188762	-0.414074
C224	C	1.155243	0.169414	-0.451354
C225	C	1.177699	0.188864	-0.470674
C226	C	1.173264	0.132123	-0.470814
C227	C	1.152556	0.114185	-0.452997
C228	C	1.113827	0.133535	-0.415715
C229	C	1.152981	-0.114016	-0.453352
C230	C	1.173824	-0.152678	-0.471290
C231	C	1.155947	-0.172072	-0.451946
C232	C	1.178545	-0.213992	-0.471390
C233	C	1.117222	-0.152798	-0.414661
C234	C	1.096376	-0.114136	-0.396725
C235	C	1.114262	-0.094747	-0.416075
C236	C	0.868187	0.170844	-0.168563
C237	C	0.832435	0.188791	-0.129904
C238	C	0.814505	0.169449	-0.110508
C239	C	0.775742	0.188906	-0.068591
C240	C	0.832331	0.132160	-0.129772
C241	C	0.868083	0.114215	-0.168430
C242	C	0.886006	0.133562	-0.187824
C243	C	1.091378	0.114080	-0.396396
C244	C	1.073481	0.098574	-0.380997
C245	C	0.955673	0.098587	-0.263153
C246	C	0.924773	0.114098	-0.229741
C247	C	1.073642	-0.019410	-0.381120
C248	C	1.091658	-0.052825	-0.396622
C249	C	-0.005502	0.745848	0.361591
C250	C	0.013210	0.746112	0.380495
C251	C	0.051081	0.745853	0.304983
C252	C	0.069707	0.746117	0.323973
C253	C	0.051079	0.745850	0.361597
C254	C	0.013212	0.746115	0.323967
C255	C	-0.131700	0.735592	0.396147
C256	C	-0.167443	0.732691	0.413962
C257	C	-0.185374	0.731234	0.451245
C258	C	-0.224124	0.728082	0.470561
C259	C	-0.167562	0.732680	0.470713
C260	C	-0.131825	0.735585	0.452899
C261	C	-0.113894	0.737041	0.415615
C262	C	0.095872	0.735596	0.453304
C263	C	0.116577	0.732698	0.471251
C264	C	0.155296	0.731244	0.451911
C265	C	0.177752	0.728096	0.471364
C266	C	0.173305	0.732694	0.414624
C267	C	0.152597	0.735599	0.396680
C268	C	0.113878	0.737047	0.416024
C269	C	0.095884	0.735614	0.168464
C270	C	0.116595	0.732714	0.129803
C271	C	0.155313	0.731262	0.110412
C272	C	0.177773	0.728116	0.068492
C273	C	0.173321	0.732706	0.129683
C274	C	0.152610	0.735604	0.168343
C275	C	0.113888	0.737062	0.187732
C276	C	-0.075141	0.740188	0.396300
C277	C	-0.044252	0.742698	0.380905
C278	C	0.073537	0.742709	0.263065
C279	C	0.091436	0.740204	0.229652
C280	C	0.073532	0.742702	0.381053
C281	C	0.091429	0.740194	0.396563
O282	O	0.159694	0.772515	0.548616
O283	O	0.223701	0.663036	0.503166
O284	O	0.159714	0.727046	0.503149
O285	O	0.223680	0.708505	0.548634
O286	O	0.211694	0.727041	0.451155
O287	O	0.275681	0.663031	0.451173
O288	O	0.211673	0.772510	0.496623
Zn289	Zn	0.251930	0.717769	0.465643
Zn290	Zn	0.183444	0.717776	0.534146
O291	O	0.275660	0.708500	0.496641
C292	C	0.384161	0.689590	-0.361731
C293	C	0.422030	0.689328	-0.380628
C294	C	0.384158	0.689587	-0.305117
C295	C	0.422027	0.689325	-0.324101
C296	C	0.440741	0.689592	-0.361724
C297	C	0.365533	0.689322	-0.324107
C298	C	0.282267	0.699838	-0.396313
C299	C	0.261437	0.702736	-0.414134
C300	C	0.279318	0.704194	-0.451417
C301	C	0.256729	0.707344	-0.470740
C302	C	0.318033	0.702750	-0.470878
C303	C	0.338863	0.699847	-0.453059
C304	C	0.320979	0.698391	-0.415774
C305	C	0.566942	0.699852	-0.453412
C306	C	0.602686	0.702752	-0.471352
C307	C	0.620613	0.704208	-0.452006
C308	C	0.659364	0.707358	-0.471453
C309	C	0.602798	0.702759	-0.414719
C310	C	0.567062	0.699852	-0.396781
C311	C	0.549134	0.698401	-0.416132
C312	C	0.282255	0.699824	-0.168604
C313	C	0.261418	0.702724	-0.129943
C314	C	0.279297	0.704178	-0.110546
C315	C	0.256705	0.707324	-0.068626
C316	C	0.318008	0.702736	-0.129810
C317	C	0.338842	0.699838	-0.168470
C318	C	0.320964	0.698378	-0.187866
C319	C	0.343567	0.695246	-0.396453
C320	C	0.361573	0.692738	-0.381052
C321	C	0.361566	0.692731	-0.263199
C322	C	0.343558	0.695236	-0.229786
C323	C	0.479491	0.692742	-0.381174
C324	C	0.510380	0.695252	-0.396678
H325	H	0.229966	0.319522	-0.013862
H326	H	0.332698	0.116422	0.498807
C327	C	0.053671	0.192135	0.019472
H328	H	0.045998	0.216891	0.018190
H329	H	0.030369	0.194500	0.042751
H330	H	0.058375	0.178224	-0.001550
H331	H	0.267755	0.351845	-0.019133
C332	C	0.381551	0.073214	0.810375
H333	H	0.391400	0.065301	0.784573
H334	H	0.375763	0.056381	0.822606
H335	H	0.403769	0.072659	0.810868
H336	H	0.332589	0.703936	-0.501234
H337	H	0.229915	0.603530	-0.013893
C338	C	0.110797	0.021182	0.028956
H339	H	0.119250	0.037893	0.029082
H340	H	0.134340	-0.001056	0.006867
H341	H	0.104196	0.014014	0.051281
C342	C	0.324355	0.414321	0.422266
H343	H	0.315898	0.397613	0.430853
H344	H	0.300815	0.436560	0.423721
H345	H	0.330954	0.421487	0.437986
H346	H	0.064715	0.351594	0.468803
H347	H	0.102510	0.319045	0.113925
H348	H	0.552622	0.248916	0.184056
C349	C	0.622346	0.325093	0.108637
H350	H	0.606545	0.349848	0.125722
H351	H	0.620018	0.327460	0.087687
H352	H	0.652563	0.311178	0.099433
C353	C	-0.112178	0.528107	0.474606
H354	H	-0.088332	0.502324	0.458582
H355	H	-0.134285	0.528549	0.497321
H356	H	-0.101738	0.540285	0.481038
C357	C	0.053242	-0.092407	0.019458
H358	H	0.045485	-0.109419	0.018184
H359	H	0.057979	-0.083187	-0.001557
H360	H	0.029979	-0.071458	0.042743
H361	H	0.267683	0.351905	0.469061
H362	H	0.370453	0.248892	-0.019106
C363	C	0.337796	0.110890	0.891560
H364	H	0.363842	0.086115	0.874548
H365	H	0.316844	0.108572	0.912511
H366	H	0.344847	0.124852	0.900775
H367	H	0.370497	0.083871	0.531138
H368	H	0.437818	0.026288	0.588498
C369	C	0.172415	0.737198	0.189540
H370	H	0.198437	0.735922	0.172457
H371	H	0.179523	0.716180	0.198752
H372	H	0.151503	0.760481	0.210487
C373	C	0.443194	0.414309	0.303389
H374	H	0.426608	0.439485	0.320090
H375	H	0.443356	0.415605	0.281143
H376	H	0.472670	0.400540	0.296233
H377	H	0.332567	0.703917	-0.114016
C378	C	-0.187257	0.609292	0.512280
H379	H	-0.211121	0.635093	0.520196
H380	H	-0.165107	0.608801	0.512840
H381	H	-0.197648	0.597059	0.529112
C382	C	0.443212	0.295434	0.303403
H383	H	0.468498	0.286843	0.278230
H384	H	0.422440	0.293974	0.302098
H385	H	0.451762	0.279720	0.317180
H386	H	-0.182381	0.604015	0.398887
H387	H	0.335106	0.408925	-0.028891
H388	H	1.101843	0.219121	-0.398224
C389	C	0.215910	0.731110	0.108358
H390	H	0.223669	0.732382	0.125371
H391	H	0.211162	0.752128	0.099142
H392	H	0.239178	0.707827	0.087405
H393	H	-0.002564	0.129217	0.028817
C394	C	0.887688	0.073200	-0.189620
H395	H	0.911551	0.065282	-0.215420
H396	H	0.865537	0.072645	-0.189131
H397	H	0.898081	0.056368	-0.177385
C398	C	0.219282	0.609359	0.511723
H399	H	0.209519	0.635144	0.519543
H400	H	0.225017	0.597186	0.528608
H401	H	0.197022	0.608916	0.512312
H402	H	0.552399	0.351866	0.184275
H403	H	0.100179	0.746545	0.308731
H404	H	0.205217	0.216303	0.398175
H405	H	1.102663	-0.168587	-0.398912
H406	H	0.437817	0.026289	0.691185
H407	H	0.332664	0.216565	-0.013838
H408	H	0.552658	0.248886	-0.019121
C409	C	0.337706	0.609298	-0.013470
H410	H	0.363752	0.592285	-0.014750
H411	H	0.316752	0.630250	0.009810
H412	H	0.344757	0.618511	-0.034491
H413	H	0.370871	0.533439	0.365804
C414	C	0.812828	0.229807	-0.108714
H415	H	0.788971	0.237723	-0.082913
H416	H	0.802436	0.246637	-0.120949
H417	H	0.834981	0.230362	-0.109204
C418	C	0.622361	0.325078	-0.013462
H419	H	0.646221	0.309126	-0.011528
H420	H	0.600201	0.347797	0.008209
H421	H	0.632755	0.331515	-0.036091
C422	C	0.812607	0.110884	-0.108440
H423	H	0.788758	0.126912	-0.082660
H424	H	0.834713	0.088170	-0.108875
H425	H	0.802172	0.104451	-0.120625
C426	C	0.172505	0.072989	0.019558
H427	H	0.154543	0.065172	0.021514
H428	H	0.173501	0.072457	0.041256
H429	H	0.201564	0.056064	-0.003040
C430	C	0.443212	0.295419	-0.028959
H431	H	0.426619	0.286838	-0.029053
H432	H	0.443328	0.294021	-0.006850
H433	H	0.472701	0.279655	-0.051265
H434	H	0.229894	0.319584	0.501608
C435	C	0.218929	0.229816	0.891289
H436	H	0.209082	0.237731	0.917091
H437	H	0.196715	0.230369	0.890794
H438	H	0.224716	0.246651	0.879059
H439	H	0.552561	0.698669	-0.366423
H440	H	-0.117216	0.083614	0.019058
H441	H	1.204796	0.116374	-0.501168
H442	H	-0.117524	0.533876	0.366339
C443	C	-0.008026	0.021182	0.028955
H444	H	0.008560	-0.003994	0.029071
H445	H	-0.008188	0.019884	0.006872
H446	H	-0.037502	0.034952	0.051285
H447	H	0.333287	0.603574	0.398121
H448	H	0.101912	0.731516	0.501609
H449	H	-0.182065	0.115941	0.013794
H450	H	0.370385	0.698670	-0.468907
C451	C	0.443242	0.414269	-0.029051
H452	H	0.426656	0.439445	-0.029167
H453	H	0.472718	0.400496	-0.051376
H454	H	0.443399	0.415574	-0.006963
C455	C	0.172407	0.737191	0.355668
H456	H	0.198433	0.735908	0.346717
H457	H	0.151500	0.760471	0.355631
H458	H	0.179518	0.716170	0.339351
H459	H	0.102522	0.319042	0.501127
C460	C	0.547379	-0.092648	0.644765
H461	H	0.563112	-0.109659	0.653805
H462	H	0.517157	-0.083429	0.661036
H463	H	0.549708	-0.071697	0.644750
H464	H	1.064846	-0.098446	-0.366369
H465	H	0.101936	0.731529	0.114112
C466	C	-0.007952	0.746690	0.422257
H467	H	-0.033229	0.746804	0.430841
H468	H	-0.016507	0.769016	0.437971
H469	H	0.012826	0.724603	0.423719
C470	C	0.216269	0.205648	0.108657
H471	H	0.223934	0.196695	0.125745
H472	H	0.239576	0.205609	0.087709
H473	H	0.211567	0.189335	0.099449
H474	H	0.100039	0.306491	0.308770
C475	C	0.097409	0.229552	0.013381
H476	H	0.115359	0.237376	0.011444
H477	H	0.068363	0.246429	0.036004
H478	H	0.096369	0.230151	-0.008296
H479	H	-0.002615	0.409174	0.308762
C480	C	0.172519	0.243324	0.189839
H481	H	0.198567	0.218550	0.172827
H482	H	0.151569	0.241004	0.210791
H483	H	0.179568	0.257289	0.199053
H484	H	0.617185	0.703935	-0.501710
H485	H	0.229916	0.703911	-0.398286
C486	C	0.262616	0.527853	-0.019566
H487	H	0.280569	0.502070	-0.021494
H488	H	0.261577	0.528293	-0.041242
H489	H	0.233569	0.540033	0.003059
H490	H	0.552350	0.698668	-0.469171
H491	H	0.335165	0.128972	0.691177
C492	C	0.622694	-0.174093	0.488183
H493	H	0.606966	-0.157080	0.479140
H494	H	0.620366	-0.195043	0.488197
H495	H	0.652918	-0.183312	0.471910
H496	H	0.437689	0.688893	-0.308855
H497	H	0.064345	0.736779	0.469058
C498	C	1.172378	0.073170	-0.474401
H499	H	1.198411	0.064214	-0.499154
H500	H	1.151481	0.073131	-0.476773
H501	H	1.179481	0.056858	-0.460481
C502	C	0.262788	0.528172	0.474317
H503	H	0.236753	0.545262	0.499069
H504	H	0.283688	0.507225	0.476692
H505	H	0.255690	0.518963	0.460399
H506	H	0.617355	-0.168326	0.601793
H507	H	0.064711	0.351595	0.184064
H508	H	0.230003	0.219165	0.601759
H509	H	0.332605	0.216616	0.398884
H510	H	0.617508	0.216565	-0.013854
C511	C	0.381467	0.528116	-0.019553
H512	H	0.389129	0.545202	-0.018270
H513	H	0.404776	0.507167	-0.042831
H514	H	0.376765	0.518909	0.001470
C515	C	0.096753	-0.173593	0.013362
H516	H	0.070723	-0.156506	0.014644
H517	H	0.089656	-0.182806	0.034379
H518	H	0.117658	-0.194538	-0.009921
H519	H	0.204818	-0.168318	0.013760
C520	C	0.622518	0.704357	-0.393437
H521	H	0.646351	0.706298	-0.409458
H522	H	0.632964	0.681734	-0.387004
H523	H	0.600401	0.726035	-0.370722
C524	C	0.172372	-0.092670	0.019441
H525	H	0.198405	-0.109758	0.018154
H526	H	0.151468	-0.071725	0.042721
H527	H	0.179471	-0.083459	-0.001579
C528	C	0.547299	0.362495	-0.019560
H529	H	0.563029	0.371533	-0.018290
H530	H	0.517077	0.378769	0.001456
H531	H	0.549630	0.362480	-0.042845
C532	C	0.215892	0.731097	0.393349
H533	H	0.225649	0.729158	0.409374
H534	H	0.210146	0.753721	0.386917
H535	H	0.238161	0.709420	0.370634
C536	C	0.443185	0.688764	-0.422386
H537	H	0.426603	0.688653	-0.430974
H538	H	0.472665	0.666442	-0.438106
H539	H	0.443328	0.710856	-0.423835
C540	C	0.216300	0.110374	0.013376
H541	H	0.223977	0.085615	0.014649
H542	H	0.211609	0.124278	0.034390
H543	H	0.239597	0.108011	-0.009910
C544	C	-0.112366	0.192132	0.019463
H545	H	-0.128173	0.216891	0.018187
H546	H	-0.082149	0.178223	-0.001554
H547	H	-0.114701	0.194498	0.042746
C548	C	0.324367	0.688747	-0.303517
H549	H	0.315902	0.688631	-0.320223
H550	H	0.300829	0.710832	-0.281274
H551	H	0.330979	0.666418	-0.296357
H552	H	0.267801	0.186619	0.634086
H553	H	-0.182311	0.218902	0.013788
H554	H	0.167420	0.248850	0.365848
C555	C	1.053208	0.192105	-0.355249
H556	H	1.043458	0.176079	-0.347422
H557	H	1.030943	0.214817	-0.354658
H558	H	1.058944	0.198542	-0.338367
C559	C	-0.008109	0.414526	0.422292
H560	H	0.008477	0.397823	0.430879
H561	H	-0.037585	0.421690	0.438010
H562	H	-0.008267	0.436769	0.423747
C563	C	0.381464	0.243375	0.355678
H564	H	0.389134	0.218620	0.346727
H565	H	0.404767	0.241008	0.355645
H566	H	0.376762	0.257287	0.339359
H567	H	0.267791	0.186616	0.815648
C568	C	0.992001	0.020913	-0.303461
H569	H	0.966712	0.037621	-0.278290
H570	H	1.012772	-0.001330	-0.302151
H571	H	0.983456	0.013753	-0.317239
C572	C	0.547629	-0.092908	0.525591
H573	H	0.563427	-0.109994	0.500837
H574	H	0.549957	-0.071961	0.523222
H575	H	0.517412	-0.083698	0.539505
H576	H	0.370362	0.698663	-0.184153
H577	H	0.997481	0.128943	-0.308818
C578	C	-0.007945	0.746696	0.303372
H579	H	-0.033226	0.746813	0.320075
H580	H	0.012832	0.724614	0.281127
H581	H	-0.016503	0.769027	0.296215
C582	C	0.622608	0.205927	0.108385
H583	H	0.646454	0.198097	0.082603
H584	H	0.600503	0.205329	0.108823
H585	H	0.633047	0.189053	0.120570
C586	C	0.218838	0.704311	-0.108754
H587	H	0.211177	0.703024	-0.125844
H588	H	0.195525	0.727590	-0.087807
H589	H	0.223546	0.683289	-0.099545
H590	H	1.100146	0.026252	-0.411487
C591	C	0.887903	0.192124	-0.189895
H592	H	0.872171	0.216900	-0.172886
H593	H	0.885579	0.194439	-0.210850
H594	H	0.918126	0.178161	-0.199106
H595	H	1.167546	-0.098232	-0.469109
H596	H	0.267701	0.698626	-0.184397
C597	C	1.216420	-0.173877	-0.512297
H598	H	1.224087	-0.156793	-0.521249
H599	H	1.211733	-0.183094	-0.528619
H600	H	1.239724	-0.194820	-0.512320
H601	H	0.064356	0.736798	0.184249
C602	C	-0.111983	0.737198	0.355138
H603	H	-0.127713	0.735926	0.346098
H604	H	-0.081759	0.716182	0.338867
H605	H	-0.114321	0.760483	0.355153
H606	H	-0.181942	0.731513	0.398108
C607	C	-0.187284	0.731076	0.511720
H608	H	-0.211118	0.729136	0.519541
H609	H	-0.197732	0.753699	0.528600
H610	H	-0.165170	0.709398	0.512316
H611	H	-0.117325	0.736762	0.468752
H612	H	0.267701	0.698651	-0.365955
