data_functionalizedCrystal
_audit_creation_method	'MofGen! by Chris Wilmer'
_symmetry_space_group_name_H-M	'P1'
_symmetry_Int_Tables_number	1
_symmetry_cell_setting	triclinic
loop_
_symmetry_equiv_pos_as_xyz
  x,y,z
_cell_length_a	17.639617
_cell_length_b	16.120444
_cell_length_c	17.640968
_cell_angle_alpha	97.806502
_cell_angle_beta	109.666032
_cell_angle_gamma	104.620503
loop_
_atom_site_label
_atom_site_type_symbol
_atom_site_fract_x
_atom_site_fract_y
_atom_site_fract_z
Zn1	Zn	1.358807	0.110278	0.716845
Zn2	Zn	1.323832	-0.064503	0.585974
Zn3	Zn	1.190264	0.039621	0.553935
Zn4	Zn	1.213924	-0.064421	0.695853
O5	O	1.271706	0.005244	0.638152
O6	O	1.470699	0.116629	0.721679
O7	O	1.281574	-0.080294	0.467560
O8	O	1.217356	0.165683	0.570922
O9	O	1.445003	-0.011782	0.625528
O10	O	1.341184	0.217594	0.690612
O11	O	1.183442	-0.003795	0.444021
O12	O	1.076870	-0.003716	0.550567
O13	O	1.257682	-0.011643	0.812802
O14	O	1.094253	-0.080156	0.654834
O15	O	1.364127	0.116707	0.828224
O16	O	1.304517	-0.181181	0.605173
O17	O	1.223769	-0.181121	0.685901
C18	C	1.055346	-0.049595	0.596946
C19	C	0.962789	-0.073070	0.579338
C20	C	0.725308	0.183653	0.772118
C21	C	0.638332	0.161569	0.755557
C22	C	0.611572	0.027993	0.655278
C23	C	0.698547	0.050063	0.671833
C24	C	0.755409	0.127895	0.730254
C25	C	0.728648	-0.005694	0.629969
C26	C	0.815615	0.016377	0.646520
C27	C	0.872482	0.094206	0.704936
C28	C	0.842376	0.149966	0.746805
C29	C	0.671784	-0.083522	0.571545
C30	C	0.701885	-0.139280	0.529680
C31	C	0.788855	-0.117212	0.546236
C32	C	0.845721	-0.039383	0.604651
C33	C	0.818960	-0.172973	0.504367
C34	C	0.905928	-0.150901	0.520918
C35	C	0.932688	-0.017312	0.621203
C36	C	1.262941	-0.211396	0.646758
C37	C	1.259274	-0.304050	0.650481
C38	C	1.290974	-0.514944	0.619051
C39	C	1.252595	-0.473676	0.657290
C40	C	1.256312	-0.379287	0.653500
C41	C	1.287258	-0.609341	0.622840
C42	C	1.488912	0.060296	0.679519
C43	C	1.581472	0.083756	0.697147
C44	C	1.317445	0.060423	0.850942
C45	C	1.336936	0.083937	0.941621
C46	C	1.280532	0.222740	0.629535
C47	C	1.284293	0.315424	0.625863
C48	C	1.226196	-0.049648	0.426196
C49	C	1.206876	-0.072886	0.335539
C50	C	1.123972	-0.172855	1.199708
C51	C	1.142305	-0.150745	1.284917
C52	C	1.253136	-0.017105	1.300965
C53	C	1.234810	-0.039201	1.215755
C54	C	1.170228	-0.117078	1.165133
C55	C	1.281065	0.016576	1.181180
C56	C	1.262743	-0.005522	1.095978
C57	C	1.198165	-0.083396	1.045351
C58	C	1.151905	-0.139176	1.079931
C59	C	1.345651	0.094449	1.231804
C60	C	1.391907	0.150226	1.197229
C61	C	1.373581	0.128132	1.112025
C62	C	1.309003	0.050257	1.061398
C63	C	1.419841	0.183911	1.077445
C64	C	1.401519	0.161813	0.992243
C65	C	1.290681	0.028160	0.976196
H66	H	0.943295	0.112177	0.718408
O67	O	1.333560	-0.472650	0.576586
C68	C	1.416656	-0.481571	0.493591
C69	C	1.368482	-0.529575	0.541674
H70	H	1.444888	-0.527580	0.465336
H71	H	1.469850	-0.420013	0.537725
H72	H	1.370837	-0.461596	0.442062
H73	H	1.414235	-0.549609	0.593203
H74	H	1.315277	-0.591094	0.497486
H75	H	0.771609	0.247028	0.819693
O76	O	1.446528	0.215887	0.958640
C77	C	1.538690	0.230627	0.883363
C78	C	1.487762	0.169302	0.921395
H79	H	1.572026	0.192982	0.853227
H80	H	1.588046	0.290073	0.934158
H81	H	1.493643	0.254215	0.834497
H82	H	1.532743	0.145648	0.970252
H83	H	1.438396	0.109903	0.870554
H84	H	1.238072	-0.035240	0.934971
H85	H	0.978990	0.046064	0.668777
H86	H	1.183252	-0.101389	0.975975
H87	H	1.099297	-0.202576	1.038706
H88	H	1.104634	-0.196171	1.313063
O89	O	0.897500	0.225619	0.803562
C90	C	0.914886	0.355753	0.901344
C91	C	0.852364	0.270123	0.837075
H92	H	0.878421	0.391750	0.928469
H93	H	0.949309	0.400112	0.870009
H94	H	0.963232	0.338756	0.953178
H95	H	0.803968	0.287038	0.785223
H96	H	0.818004	0.225788	0.868470
H97	H	0.613829	0.206983	0.789648
O98	O	1.061247	-0.248569	1.150654
C99	C	0.953239	-0.378804	1.143717
C100	C	1.024249	-0.293093	1.199365
H101	H	0.923294	-0.414817	1.183074
H102	H	0.981115	-0.423103	1.112869
H103	H	0.902697	-0.361909	1.093991
H104	H	1.074816	-0.309907	1.249135
H105	H	0.996311	-0.248818	1.230151
H106	H	1.305721	0.046301	1.342193
O107	O	0.556318	-0.047678	0.598646
C108	C	0.451167	-0.188015	0.573279
C109	C	0.513719	-0.102366	0.637501
H110	H	0.416696	-0.232245	0.604664
H111	H	0.487584	-0.224144	0.546211
H112	H	0.402865	-0.171029	0.521394
H113	H	0.562035	-0.119274	0.689433
H114	H	0.477245	-0.066259	0.664503
O115	O	1.363450	0.115767	1.314577
C116	C	1.407943	0.072988	1.444099
C117	C	1.387792	0.048728	1.350368
H118	H	1.427645	0.018810	1.473067
H119	H	1.349140	0.079910	1.454319
H120	H	1.462023	0.138247	1.474314
H121	H	1.333738	-0.016539	1.320092
H122	H	1.446638	0.041865	1.340208
O123	O	1.209938	-0.516043	0.699671
C124	C	1.075680	-0.568736	0.713187
C125	C	1.123890	-0.520718	0.665139
H126	H	1.006099	-0.572548	0.685276
H127	H	1.104979	-0.530884	0.781084
H128	H	1.080267	-0.638389	0.708739
H129	H	1.119321	-0.451065	0.669521
H130	H	1.094579	-0.558637	0.597263
H131	H	1.444492	0.213631	1.238458
H132	H	0.600968	-0.101476	0.558052
O133	O	0.646537	-0.214869	0.472986
C134	C	0.500693	-0.308050	0.403005
C135	C	0.563281	-0.222428	0.467244
H136	H	0.433366	-0.314180	0.398329
H137	H	0.518083	-0.367308	0.423149
H138	H	0.504295	-0.306019	0.339930
H139	H	0.559712	-0.224373	0.530340
H140	H	0.545871	-0.163206	0.447030
O141	O	0.763610	-0.248558	0.447667
C142	C	0.617762	-0.341726	0.377678
C143	C	0.680355	-0.256111	0.441924
H144	H	0.550435	-0.347852	0.373001
H145	H	0.635146	-0.400990	0.397815
H146	H	0.621368	-0.339688	0.314605
H147	H	0.676782	-0.258062	0.505018
H148	H	0.662952	-0.196884	0.421717
O149	O	0.935291	-0.205051	0.480389
C150	C	1.026528	-0.295606	0.492406
C151	C	0.993358	-0.234284	0.538414
H152	H	1.073468	-0.319273	0.539298
H153	H	1.059681	-0.258000	0.456058
H154	H	0.970934	-0.354998	0.447788
H155	H	1.048905	-0.174881	0.583073
H156	H	0.960179	-0.271955	0.574707
H157	H	1.472429	0.247314	1.118675
