data_functionalizedCrystal
_audit_creation_method	'MofGen! by Chris Wilmer'
_symmetry_space_group_name_H-M	'P1'
_symmetry_Int_Tables_number	1
_symmetry_cell_setting	triclinic
loop_
_symmetry_equiv_pos_as_xyz
  x,y,z
_cell_length_a	19.188930
_cell_length_b	14.971496
_cell_length_c	14.048226
_cell_angle_alpha	89.992659
_cell_angle_beta	89.979657
_cell_angle_gamma	83.381452
loop_
_atom_site_label
_atom_site_type_symbol
_atom_site_fract_x
_atom_site_fract_y
_atom_site_fract_z
O1	O	0.926509	0.111670	-0.079469
O2	O	0.723247	0.126702	-0.079404
O3	O	0.830322	-0.011042	-0.079429
O4	O	0.819433	0.249414	-0.079443
O5	O	0.830309	-0.011050	0.078892
O6	O	0.723234	0.126694	0.078918
O7	O	0.926496	0.111662	0.078853
Zn8	Zn	0.824863	0.119177	0.104022
Zn9	Zn	0.824880	0.119187	-0.104573
O10	O	0.819421	0.249406	0.078878
C11	C	0.829828	-0.044368	-0.000268
C12	C	0.828365	-0.143657	-0.000268
C13	C	0.697228	0.126212	-0.000235
C14	C	0.619718	0.124750	-0.000210
C15	C	0.822074	-0.571323	-0.086591
C16	C	0.823452	-0.478031	-0.086588
C17	C	0.824130	-0.431396	-0.000283
C18	C	0.823436	-0.478058	0.086023
C19	C	0.822063	-0.571349	0.086018
C20	C	0.826297	-0.283610	0.086027
C21	C	0.827669	-0.190312	0.086032
C22	C	0.827686	-0.190292	-0.086579
C23	C	0.826313	-0.283583	-0.086584
C24	C	0.825618	-0.330239	-0.000277
C25	C	0.575057	0.205574	-0.000229
C26	C	0.502228	0.204201	-0.000239
C27	C	0.474065	0.122000	-0.000249
C28	C	0.518736	0.041165	-0.000225
C29	C	0.591563	0.042540	-0.000205
N30	N	0.365885	0.059170	-0.054168
N31	N	0.296703	0.057869	-0.054189
C32	C	0.254643	0.117852	-0.000307
N33	N	0.284378	0.179198	0.053584
N34	N	0.353567	0.180501	0.053601
C35	C	0.395098	0.120500	-0.000270
C36	C	0.131012	0.197193	-0.000336
C37	C	0.058183	0.195816	-0.000341
C38	C	0.074693	0.032778	-0.000336
C39	C	0.147520	0.034157	-0.000322
C40	C	0.175675	0.116366	-0.000327
C41	C	0.952515	0.112153	-0.000318
C42	C	1.030025	0.113614	-0.000350
C43	C	0.819915	0.282732	-0.000285
C44	C	0.821378	0.382021	-0.000292
N45	N	0.824856	0.119169	0.246383
N46	N	0.824892	0.119188	-0.246934
C47	C	0.872284	0.058201	0.296189
C48	C	0.872289	0.058200	0.395847
C49	C	0.824869	0.119173	0.445696
C50	C	0.777436	0.180144	0.395883
C51	C	0.777428	0.180140	0.296227
C52	C	0.777456	0.180151	0.603597
C53	C	0.777464	0.180156	0.703260
C54	C	0.872317	0.058211	0.703217
C55	C	0.872309	0.058207	0.603561
C56	C	0.824877	0.119179	0.553755
H57	H	0.821516	-0.609286	-0.156871
H58	H	0.597976	0.272516	-0.000234
C59	C	0.640092	-0.045188	0.000003
C60	C	0.682343	-0.049176	0.081475
C61	C	0.727051	-0.129984	0.081702
H62	H	0.668930	-0.048122	-0.055138
H63	H	0.612916	-0.094370	0.000049
H64	H	0.709517	-0.000008	0.081420
H65	H	0.653524	-0.046258	0.136628
H66	H	0.699875	-0.179165	0.081748
H67	H	0.755884	-0.132910	0.026558
H68	H	0.755719	-0.132704	0.136983
C69	C	0.725878	0.246208	0.549470
C70	C	0.683083	0.198696	0.492312
C71	C	0.635560	0.259519	0.442447
H72	H	0.750939	0.283384	0.510494
H73	H	0.697598	0.282511	0.593400
H74	H	0.711359	0.162409	0.448386
H75	H	0.658007	0.161523	0.531264
H76	H	0.607280	0.295822	0.486377
H77	H	0.660626	0.296692	0.403476
H78	H	0.606514	0.227292	0.403666
H79	H	0.910908	0.008555	0.436399
H80	H	0.823992	-0.440081	0.156294
H81	H	0.828247	-0.152300	-0.156853
H82	H	0.821496	-0.609335	0.156292
H83	H	0.051763	-0.034152	-0.000404
C84	C	0.161452	0.286536	-0.000282
C85	C	0.106746	0.357027	-0.000266
C86	C	0.134758	0.439343	-0.000202
H87	H	0.189528	0.290594	-0.055471
H88	H	0.189478	0.290505	0.054956
H89	H	0.078731	0.353061	-0.055498
H90	H	0.078666	0.352999	0.054920
H91	H	0.162785	0.443312	0.055036
H92	H	0.162834	0.443391	-0.055392
H93	H	0.097645	0.487181	-0.000182
H94	H	0.021819	0.261636	-0.000351
H95	H	0.738821	0.229786	0.436476
H96	H	0.824020	-0.440049	-0.156861
C97	C	0.453843	0.292054	-0.000318
C98	C	0.494088	0.364342	-0.000342
C99	C	0.449543	0.445284	-0.000431
H100	H	0.425049	0.295038	0.054865
H101	H	0.425127	0.294946	-0.055562
H102	H	0.522792	0.361452	0.054897
H103	H	0.522881	0.361388	-0.055521
H104	H	0.420827	0.448176	-0.055675
H105	H	0.420750	0.448259	0.054753
H106	H	0.476842	0.494341	-0.000456
H107	H	0.495801	-0.025764	-0.000246
H108	H	0.825758	-0.321551	-0.156860
C109	C	0.828412	-0.139840	0.179832
C110	C	0.827520	-0.200666	0.255415
C111	C	0.828199	-0.154202	0.341838
H112	H	0.788264	-0.096482	0.183543
H113	H	0.869636	-0.110430	0.183481
H114	H	0.786299	-0.230061	0.251768
H115	H	0.867664	-0.244025	0.251736
H116	H	0.869424	-0.124792	0.345487
H117	H	0.788051	-0.110846	0.345539
H118	H	0.827600	-0.195466	0.393131
C119	C	0.825432	-0.334364	0.179659
C120	C	0.764631	-0.377648	0.184701
C121	C	0.763812	-0.424421	0.270931
H122	H	0.825993	-0.293328	0.231142
H123	H	0.865558	-0.377784	0.183242
H124	H	0.724516	-0.334233	0.181128
H125	H	0.764057	-0.418698	0.133238
H126	H	0.803938	-0.467841	0.274514
H127	H	0.764375	-0.383379	0.322407
H128	H	0.722563	-0.453801	0.274360
C129	C	0.196131	-0.053502	-0.000270
C130	C	0.265937	-0.034704	-0.000229
C131	C	0.310737	-0.115436	-0.000166
H132	H	0.187699	-0.087280	-0.055468
H133	H	0.187608	-0.087233	0.054959
H134	H	0.274457	-0.000987	-0.055452
H135	H	0.274391	-0.000939	0.054966
H136	H	0.302213	-0.149168	0.055063
H137	H	0.302298	-0.149209	-0.055365
H138	H	0.358104	-0.102693	-0.000129
H139	H	0.738807	0.229785	0.255675
C140	C	0.923802	-0.008101	0.242244
C141	C	0.965325	-0.061510	0.307198
C142	C	1.012784	-0.122608	0.257542
H143	H	0.952956	0.023876	0.203340
H144	H	0.898671	-0.045307	0.203412
H145	H	0.990454	-0.024309	0.346013
H146	H	0.936191	-0.093506	0.346104
H147	H	0.987653	-0.159815	0.218710
H148	H	1.041933	-0.090625	0.218639
H149	H	1.040958	-0.158859	0.301605
H150	H	0.910926	0.008563	0.562974
H151	H	0.910938	0.008565	0.743776
C152	C	0.725890	0.246380	0.757212
C153	C	0.684328	0.299750	0.692267
C154	C	0.636800	0.360753	0.741933
H155	H	0.750946	0.283629	0.796073
H156	H	0.696774	0.214302	0.796088
H157	H	0.713440	0.331826	0.653407
H158	H	0.659257	0.262526	0.653404
H159	H	0.607685	0.328675	0.780809
H160	H	0.661862	0.397996	0.780792
H161	H	0.608591	0.396966	0.697875
