data_functionalizedCrystal
_audit_creation_method	'MofGen! by Chris Wilmer'
_symmetry_space_group_name_H-M	'P1'
_symmetry_Int_Tables_number	1
_symmetry_cell_setting	triclinic
loop_
_symmetry_equiv_pos_as_xyz
  x,y,z
_cell_length_a	12.594516
_cell_length_b	12.594517
_cell_length_c	19.077271
_cell_angle_alpha	92.305069
_cell_angle_beta	87.707717
_cell_angle_gamma	89.990306
loop_
_atom_site_label
_atom_site_type_symbol
_atom_site_fract_x
_atom_site_fract_y
_atom_site_fract_z
Zn1	Zn	-0.448267	-1.602950	0.397734
Zn2	Zn	-0.619064	-1.610036	0.280050
Zn3	Zn	-0.441082	-1.432147	0.280079
Zn4	Zn	-0.626184	-1.424936	0.397734
O5	O	-0.533649	-1.517518	0.338899
O6	O	-0.470951	-1.752837	0.382111
O7	O	-0.589469	-1.592422	0.181564
O8	O	-0.293090	-1.454857	0.295698
O9	O	-0.596435	-1.758043	0.295649
O10	O	-0.298369	-1.580345	0.382139
O11	O	-0.458706	-1.461728	0.181585
O12	O	-0.465609	-1.282244	0.295698
O13	O	-0.608569	-1.442567	0.496224
O14	O	-0.601602	-1.276947	0.382139
O15	O	-0.477854	-1.573353	0.496224
O16	O	-0.768954	-1.585430	0.295649
O17	O	-0.774184	-1.449438	0.382111
C18	C	-0.533600	-1.240975	0.338922
C19	C	-0.533605	-1.122668	0.338948
C20	C	-0.607703	-1.050570	0.385876
C21	C	-0.511715	-0.978703	0.403187
C22	C	-0.629664	-0.983736	0.321631
C23	C	-0.437568	-1.052358	0.356293
C24	C	-0.555580	-1.057399	0.274707
C25	C	-0.459524	-0.985566	0.291994
C26	C	-0.810190	-1.517448	0.338892
C27	C	-0.928497	-1.517515	0.338913
C28	C	-1.000631	-1.443544	0.385907
C29	C	-1.067558	-1.421536	0.321688
C30	C	-1.072369	-1.539618	0.403143
C31	C	-0.993863	-1.495458	0.274661
C32	C	-0.998671	-1.613582	0.356158
C33	C	-1.065563	-1.591615	0.291895
C34	C	-0.256030	-1.517615	0.338922
C35	C	-0.137725	-1.517657	0.338931
C36	C	-0.544807	-1.506365	0.522476
C37	C	-0.549562	-1.501613	0.600705
C38	C	-0.533691	-0.795139	0.338888
C39	C	-0.533685	-0.913443	0.338911
C40	C	-0.483742	-1.567470	0.637459
C41	C	-0.488206	-1.562992	0.710964
C42	C	-0.558495	-1.492661	0.747714
C43	C	-0.624317	-1.426797	0.710955
C44	C	-0.619847	-1.431270	0.637451
C45	C	-0.579155	-1.471975	0.967545
C46	C	-0.583622	-1.467508	1.041054
C47	C	-0.447509	-1.603702	1.041058
C48	C	-0.443050	-1.608174	0.967553
C49	C	-0.508868	-1.542306	0.930800
N50	N	-0.563061	-1.488084	0.822847
N51	N	-0.504295	-1.546878	0.855668
C52	C	-0.522558	-1.528617	1.156037
C53	C	-0.517802	-1.533365	1.077807
H54	H	-0.710866	-0.953552	0.307001
C55	C	-0.692203	-1.089264	0.439545
H56	H	-0.676437	-1.062218	0.485156
H57	H	-0.760267	-1.064730	0.427706
H58	H	-0.692015	-1.164727	0.438894
H59	H	-0.493155	-0.944266	0.457498
C60	C	-0.327847	-1.092937	0.376152
H61	H	-0.328500	-1.168371	0.376070
H62	H	-0.275212	-1.070176	0.343016
H63	H	-0.312153	-1.065310	0.421636
C64	C	-0.957710	-1.723215	0.375880
H65	H	-0.913928	-1.752750	0.338327
H66	H	-0.917620	-1.715566	0.416907
H67	H	-1.016320	-1.768972	0.384566
C68	C	-0.961971	-1.358904	0.439513
H69	H	-0.985528	-1.290736	0.427148
H70	H	-0.989982	-1.373885	0.485018
H71	H	-0.886543	-1.359863	0.439430
C72	C	-0.651557	-1.399532	0.927124
H73	H	-0.638826	-1.412256	0.878084
H74	H	-0.723806	-1.414352	0.939164
H75	H	-0.636693	-1.327287	0.939177
C76	C	-0.580687	-1.103961	0.201360
H77	H	-0.522733	-1.146539	0.183420
H78	H	-0.642931	-1.146345	0.204655
H79	H	-0.591874	-1.047717	0.170748
H80	H	-0.385816	-1.665448	0.937636
H81	H	-0.640862	-1.410233	1.070974
H82	H	-0.426508	-1.624745	0.607542
C83	C	-0.374836	-0.947132	0.238362
H84	H	-0.408146	-0.907732	0.203906
H85	H	-0.324996	-0.903212	0.261786
H86	H	-0.339129	-1.006749	0.216299
H87	H	-0.393922	-1.657327	1.070989
H88	H	-1.097875	-1.340360	0.307117
C89	C	-1.118778	-1.564803	0.476509
H90	H	-1.096601	-1.512129	0.509831
H91	H	-1.194157	-1.565318	0.475889
H92	H	-1.094183	-1.632493	0.489075
H93	H	-0.959636	-1.476726	0.220335
C94	C	-1.103951	-1.676202	0.238162
H95	H	-1.076843	-1.660375	0.192583
H96	H	-1.079293	-1.744212	0.250016
H97	H	-1.179410	-1.676186	0.238726
H98	H	-0.681544	-1.369528	0.740883
C99	C	-0.415809	-1.635440	0.751389
H100	H	-0.373319	-1.677977	0.718975
H101	H	-0.371164	-1.593002	0.780069
H102	H	-0.458287	-1.680057	0.780057
C103	C	-0.692275	-1.358854	0.597023
H104	H	-0.734791	-1.316340	0.629436
H105	H	-0.649828	-1.314231	0.568346
H106	H	-0.736911	-1.401326	0.568352
