data_functionalizedCrystal
_audit_creation_method	'MofGen! by Chris Wilmer'
_symmetry_space_group_name_H-M	'P1'
_symmetry_Int_Tables_number	1
_symmetry_cell_setting	triclinic
loop_
_symmetry_equiv_pos_as_xyz
  x,y,z
_cell_length_a	20.875444
_cell_length_b	19.851628
_cell_length_c	20.875643
_cell_angle_alpha	89.996022
_cell_angle_beta	115.726528
_cell_angle_gamma	61.739231
loop_
_atom_site_label
_atom_site_type_symbol
_atom_site_fract_x
_atom_site_fract_y
_atom_site_fract_z
Zr1	Zr	0.664009	0.687016	0.047743
O2	O	0.784751	0.589605	0.140473
O3	O	0.538477	0.712222	0.023770
O4	O	0.657090	0.723431	0.146885
O5	O	0.673267	0.574850	-0.084823
O6	O	0.657081	0.834290	0.146877
O7	O	0.666138	0.578396	0.017358
O8	O	0.444904	0.814240	-0.073354
O9	O	0.885444	0.594901	0.135408
O10	O	0.591878	0.811330	0.008159
O11	O	0.597205	0.725950	-0.068092
O12	O	0.736856	0.739147	0.076861
O13	O	0.742183	0.653767	0.000610
Zr14	Zr	0.675365	0.858168	-0.115237
Zr15	Zr	0.663995	0.863824	0.047730
Zr16	Zr	0.675379	0.681360	-0.115224
Zr17	Zr	0.824602	0.695462	0.039664
Zr18	Zr	0.514772	0.849722	-0.107158
O19	O	0.800897	0.832962	-0.091263
O20	O	0.784731	0.841004	0.140455
O21	O	0.800917	0.581564	-0.091245
O22	O	0.554623	0.955579	-0.207967
O23	O	0.538457	0.963620	0.023751
O24	O	0.554643	0.704180	-0.207949
O25	O	0.666107	0.970334	0.017330
O26	O	0.682285	0.821753	-0.214379
O27	O	0.682293	0.710894	-0.214370
O28	O	0.673236	0.966788	-0.084852
O29	O	0.885433	0.735440	0.135398
O30	O	0.453942	0.809744	-0.202891
O31	O	0.453931	0.950283	-0.202901
O32	O	0.444893	0.954779	-0.073364
O33	O	0.894481	0.590405	0.005871
O34	O	0.894470	0.730944	0.005860
O35	O	0.602518	0.806037	-0.144354
O36	O	0.597192	0.891417	-0.068104
O37	O	0.742170	0.819234	0.000598
O38	O	0.747496	0.733854	-0.075653
C39	C	0.468809	0.762027	-0.023641
C40	C	0.400633	0.758442	-0.020211
C41	C	0.022311	0.732222	0.004630
C42	C	0.086385	0.735590	0.001439
C43	C	0.066886	0.793483	-0.053662
C44	C	-0.016693	0.848006	-0.105580
C45	C	-0.080765	0.844633	-0.102391
C46	C	0.252983	0.809592	-0.068940
C47	C	0.317063	0.812962	-0.072124
C48	C	0.420137	0.700545	0.034894
C49	C	0.356059	0.697181	0.038081
C50	C	0.272486	0.751701	-0.013839
N51	N	0.132378	0.796929	-0.056925
N52	N	0.206996	0.748251	-0.010579
C53	C	0.669704	0.551432	-0.033731
C54	C	0.669710	0.476372	-0.033725
C55	C	0.748741	0.210773	0.003716
C56	C	0.712793	0.273591	-0.065922
C57	C	0.669679	0.206224	-0.033755
C58	C	0.705668	0.277122	0.035885
C59	C	0.669698	0.338954	-0.033738
C60	C	0.633733	0.268052	-0.103435
C61	C	0.626616	0.271575	-0.001577
C62	C	0.590611	0.334402	-0.071254
C63	C	0.669669	0.129760	-0.033765
C64	C	0.669702	0.415420	-0.033735
C65	C	0.870565	0.783157	-0.043852
C66	C	0.938741	0.786742	-0.047282
C67	C	0.655465	0.779666	0.170100
C68	C	0.650639	0.782067	0.239284
C69	C	0.669670	0.993752	-0.033763
C70	C	0.669664	1.068812	-0.033768
C71	C	0.724046	0.745518	0.307649
C72	C	0.719506	0.747784	0.372652
C73	C	0.641557	0.786596	0.369289
C74	C	0.568144	0.823150	0.300917
C75	C	0.572685	0.820888	0.235915
C76	C	0.619861	0.797405	0.559848
C77	C	0.615326	0.799662	0.624857
C78	C	0.766688	0.724298	0.696587
C79	C	0.771222	0.722036	0.631581
C80	C	0.697809	0.758593	0.563215
N81	N	0.636915	0.788911	0.435732
N82	N	0.702453	0.756282	0.496774
C83	C	0.683908	0.765517	0.762406
C84	C	0.688733	0.763113	0.693221
C85	C	0.468792	0.983187	-0.023657
C86	C	0.400610	1.054662	-0.020233
C87	C	0.483031	0.754953	-0.227488
C88	C	0.419682	0.748966	-0.293242
C89	C	0.483014	0.976113	-0.227504
C90	C	0.419659	1.045186	-0.293264
C91	C	0.856360	0.569071	0.160011
C92	C	0.919716	0.499998	0.225770
C93	C	0.870582	0.561996	-0.043836
C94	C	0.938764	0.490522	-0.047261
C95	C	0.856343	0.790231	0.159995
C96	C	0.919692	0.796218	0.225749
C97	C	0.365817	1.046422	0.021190
C98	C	0.301761	1.113574	0.024423
C99	C	0.272495	1.188964	-0.013773
C100	C	0.307294	1.197202	-0.055198
C101	C	0.371353	1.130051	-0.058425
C102	C	0.392706	0.787959	-0.363936
C103	C	0.333192	0.782331	-0.425726
C104	C	0.300650	0.737715	-0.416820
C105	C	0.327632	0.698717	-0.346118
C106	C	0.387149	0.704341	-0.284331
C107	C	0.387126	1.122198	-0.284343
C108	C	0.327605	1.187107	-0.346125
C109	C	0.300614	1.175002	-0.416827
C110	C	0.333153	1.097982	-0.425747
C111	C	0.392677	1.033075	-0.363966
C112	C	0.952256	0.422986	0.216849
C113	C	1.011796	0.358078	0.278630
C114	C	1.038791	0.370183	0.349332
C115	C	1.006248	0.447203	0.358252
C116	C	0.946713	0.512110	0.296471
C117	C	0.973563	0.498762	-0.088677
C118	C	1.037636	0.431612	-0.091893
C119	C	1.066904	0.356222	-0.053695
C120	C	1.032102	0.347984	-0.012273
C121	C	0.968034	0.415134	-0.009054
C122	C	0.952216	0.840841	0.216819
C123	C	1.011731	0.846481	0.278596
C124	C	1.038726	0.807493	0.349302
C125	C	1.006197	0.762869	0.358230
C126	C	0.946678	0.757233	0.296454
H127	H	-0.032565	0.895140	-0.150447
H128	H	0.920204	0.720893	0.303735
H129	H	0.834696	0.690434	0.634328
Br130	Br	0.254544	1.102375	0.080643
H131	H	0.038198	0.685083	0.049502
H132	H	0.154430	0.691202	0.043718
Br133	Br	-0.194185	0.918624	-0.172850
H134	H	0.283456	1.258594	-0.086295
H135	H	1.065962	0.438335	-0.125625
Br136	Br	1.153855	0.265097	-0.058071
H137	H	1.055942	0.286593	0.018826
H138	H	0.220332	1.243636	-0.011139
H139	H	0.419158	0.970370	-0.371239
Br140	Br	1.055869	0.907042	0.266462
Br141	Br	0.296514	1.081567	-0.521705
H142	H	0.409104	0.672590	-0.226770
H143	H	0.749213	0.275191	-0.093134
H144	H	0.252188	0.733142	-0.467137
H145	H	0.920218	0.574815	0.303744
Br146	Br	0.423748	1.138649	-0.188398
Br147	Br	0.860142	0.122448	0.056425
Br148	Br	0.418561	1.141247	-0.114652
H149	H	0.301118	1.249815	-0.338850
Br150	Br	1.055948	0.253560	0.266508
H151	H	0.590226	0.269945	0.025652
H152	H	0.419196	0.824290	-0.371202
Br153	Br	0.473057	0.870505	0.143132
Br154	Br	0.920810	0.403936	0.047156
H155	H	0.371945	0.650037	0.082949
Br156	Br	0.915594	0.893760	0.120869
Br157	Br	0.296587	0.835263	-0.521668
Br158	Br	0.915632	0.406535	0.120904
Br159	Br	0.533556	0.626555	0.105351
H160	H	1.087268	0.317325	0.399632
Br161	Br	0.283458	0.638169	-0.334044
H162	H	0.252146	1.227861	-0.467128
H163	H	0.736093	0.281688	0.094774
H164	H	0.301176	0.860106	-0.116998
H165	H	1.028234	0.457050	0.415825
Br166	Br	0.479127	0.422561	-0.124130
Br167	Br	0.139571	0.883582	-0.139405
Br168	Br	0.933859	0.601069	-0.140522
H169	H	0.603329	0.263556	-0.162354
Br170	Br	1.119504	0.815148	0.433134
H171	H	1.028186	0.731127	0.415807
H172	H	0.504677	0.854755	0.298184
H173	H	0.787520	0.713908	0.310395
H174	H	0.779282	0.718024	0.428315
H175	H	0.826457	0.694536	0.752256
H176	H	0.560083	0.827173	0.504190
Br177	Br	0.509532	0.852337	0.620290
H178	H	0.389644	0.985043	0.052303
