data_functionalizedCrystal
_audit_creation_method	'MofGen! by Chris Wilmer'
_symmetry_space_group_name_H-M	'P1'
_symmetry_Int_Tables_number	1
_symmetry_cell_setting	triclinic
loop_
_symmetry_equiv_pos_as_xyz
  x,y,z
_cell_length_a	12.759395
_cell_length_b	16.994748
_cell_length_c	12.759387
_cell_angle_alpha	90.016746
_cell_angle_beta	90.020509
_cell_angle_gamma	90.007440
loop_
_atom_site_label
_atom_site_type_symbol
_atom_site_fract_x
_atom_site_fract_y
_atom_site_fract_z
Zn1	Zn	1.606333	-0.313954	0.594108
Zn2	Zn	1.606251	-0.445880	0.418471
Zn3	Zn	1.430631	-0.313997	0.418445
Zn4	Zn	1.430650	-0.445824	0.594110
O5	O	1.518466	-0.379914	0.506283
O6	O	1.753343	-0.331460	0.570819
O7	O	1.582912	-0.428427	0.271447
O8	O	1.453965	-0.203610	0.441734
O9	O	1.753283	-0.428385	0.441780
O10	O	1.583052	-0.203579	0.570793
O11	O	1.453885	-0.331533	0.271427
O12	O	1.283613	-0.331479	0.441737
O13	O	1.453998	-0.428289	0.741131
O14	O	1.283627	-0.428331	0.570798
O15	O	1.583071	-0.331405	0.741129
O16	O	1.582930	-0.556253	0.441782
O17	O	1.453918	-0.556212	0.570824
C18	C	1.245499	-0.379904	0.506265
C19	C	1.128722	-0.379919	0.506283
C20	C	1.518430	-0.584853	0.506303
C21	C	1.518448	-0.674175	0.506288
Zn22	Zn	1.606315	-0.813964	0.418469
Zn23	Zn	1.606335	-0.945819	0.594097
Zn24	Zn	1.430699	-0.945884	0.418367
Zn25	Zn	1.430649	-0.813987	0.594041
O26	O	1.518499	-0.879914	0.506244
O27	O	1.753339	-0.831419	0.441832
O28	O	1.583066	-1.056209	0.570766
O29	O	1.454008	-0.928402	0.271359
O30	O	1.753353	-0.928292	0.570865
O31	O	1.583033	-0.831481	0.271434
O32	O	1.454027	-1.056256	0.441658
O33	O	1.283672	-0.928424	0.441605
O34	O	1.453922	-0.703603	0.570771
O35	O	1.283634	-0.831520	0.570672
O36	O	1.582983	-0.703586	0.441779
O37	O	1.583016	-0.928314	0.741111
O38	O	1.453940	-0.831457	0.741070
C39	C	1.128775	-0.480934	0.640456
C40	C	1.073941	-0.531448	0.707546
C41	C	0.964220	-0.531458	0.707559
C42	C	0.909330	-0.480946	0.640477
C43	C	0.964164	-0.430432	0.573387
C44	C	1.073888	-0.430430	0.573379
C45	C	0.964110	-0.329414	0.439220
C46	C	1.073832	-0.329407	0.439201
C47	C	0.909220	-0.278903	0.372138
C48	C	0.964055	-0.228392	0.305041
C49	C	1.073783	-0.228385	0.305031
C50	C	1.128666	-0.278893	0.372111
C51	C	1.792500	-0.379924	0.506302
C52	C	1.909276	-0.379928	0.506310
C53	C	1.518546	-0.379836	0.780317
C54	C	1.518579	-0.379803	0.897094
C55	C	1.518508	-0.174173	0.506258
C56	C	1.518530	-0.084851	0.506248
C57	C	1.518448	-0.379934	0.233316
C58	C	1.518617	-0.379744	0.116540
C59	C	1.652992	-0.278925	0.897112
C60	C	1.720214	-0.228474	0.951981
C61	C	1.720239	-0.228445	1.061703
C62	C	1.653034	-0.278871	1.116557
C63	C	1.585813	-0.329322	1.061688
C64	C	1.585797	-0.329347	0.951964
C65	C	1.451396	-0.430195	1.061670
C66	C	1.451374	-0.430229	0.951948
C67	C	1.384191	-0.480622	1.116525
C68	C	1.316974	-0.531078	1.061655
C69	C	1.316952	-0.531105	0.951926
C70	C	1.384153	-0.480681	0.897079
C71	C	1.245532	-0.879981	0.506122
C72	C	1.128755	-0.879990	0.506095
C73	C	1.518478	-0.879883	0.779211
C74	C	1.518499	-0.879893	0.895988
C75	C	1.792533	-0.879846	0.506366
C76	C	1.909310	-0.879817	0.506419
C77	C	1.518524	-0.879946	0.232210
C78	C	1.518535	-0.879960	0.115433
C79	C	1.128755	-0.779247	0.640710
C80	C	1.073894	-0.728883	0.708003
C81	C	0.964173	-0.728894	0.707970
C82	C	0.909309	-0.779272	0.640635
C83	C	0.964170	-0.829636	0.573342
C84	C	1.073894	-0.829621	0.573384
C85	C	0.964170	-0.930374	0.438724
C86	C	1.073892	-0.930369	0.438760
C87	C	0.909307	-0.980752	0.371389
C88	C	0.964168	-1.031121	0.304099
C89	C	1.073896	-1.031109	0.304135
C90	C	1.128753	-0.980732	0.371467
C91	C	1.653006	-0.980674	0.895977
C92	C	1.720265	-1.031069	0.950832
C93	C	1.720281	-1.031074	1.060554
C94	C	1.653034	-0.980677	1.115423
C95	C	1.585776	-0.930283	1.060568
C96	C	1.585764	-0.930285	0.950843
C97	C	1.451275	-0.829498	1.060578
C98	C	1.451252	-0.829496	0.950857
C99	C	1.384028	-0.779102	1.115447
C100	C	1.316763	-0.728710	1.060592
C101	C	1.316748	-0.728708	0.950864
C102	C	1.383993	-0.779102	0.896001
H103	H	1.218117	-0.480937	0.640445
F104	F	1.653067	-0.980676	1.232199
F105	F	1.652978	-0.980685	0.779201
H106	H	1.262255	-0.572127	1.106326
H107	H	1.775053	-1.072106	1.105217
H108	H	1.262201	-0.572180	0.907258
F109	F	1.791837	-1.084697	0.892430
H110	H	1.218094	-0.980713	0.371497
F111	F	0.905784	-0.675288	0.779585
H112	H	1.774970	-0.187358	1.106378
F113	F	0.792531	-0.980759	0.371351
F114	F	1.132366	-0.585208	0.778931
H115	H	1.653052	-0.278836	1.205899
H116	H	1.383981	-0.779110	0.806660
F117	F	1.384140	-0.480709	0.780303
F118	F	0.905860	-0.585216	0.778969
F119	F	1.245531	-0.779240	0.640761
F120	F	0.792445	-0.278910	0.372160
F121	F	1.132290	-0.675269	0.779661
F122	F	0.905774	-1.084726	0.232439
F123	F	0.792533	-0.779273	0.640593
F124	F	0.792554	-0.480950	0.640507
F125	F	1.132275	-1.084711	0.232507
F126	F	1.384052	-0.779105	1.232223
H127	H	1.262021	-0.687677	1.105275
F128	F	1.245166	-0.675065	0.892491
H129	H	1.118422	-0.187244	0.250405
H130	H	0.919354	-0.187266	0.250434
H131	H	1.384213	-0.480592	1.205866
H132	H	1.218007	-0.278895	0.372105
H133	H	1.774929	-0.187416	0.907307
F134	F	1.652984	-0.278961	0.780336
