data_functionalizedCrystal
_audit_creation_method	'MofGen! by Chris Wilmer'
_symmetry_space_group_name_H-M	'P1'
_symmetry_Int_Tables_number	1
_symmetry_cell_setting	triclinic
loop_
_symmetry_equiv_pos_as_xyz
  x,y,z
_cell_length_a	12.759401
_cell_length_b	25.639239
_cell_length_c	25.639234
_cell_angle_alpha	89.975095
_cell_angle_beta	89.982483
_cell_angle_gamma	90.039113
loop_
_atom_site_label
_atom_site_type_symbol
_atom_site_fract_x
_atom_site_fract_y
_atom_site_fract_z
Zn1	Zn	1.606069	-0.208177	-0.295577
Zn2	Zn	2.106069	0.291823	0.204423
Zn3	Zn	1.605893	-0.295605	-0.208142
Zn4	Zn	2.105893	0.204395	0.291858
Zn5	Zn	1.430374	-0.208186	-0.208159
Zn6	Zn	1.930374	0.291814	0.291841
Zn7	Zn	1.430286	-0.295584	-0.295549
Zn8	Zn	1.930286	0.204416	0.204451
O9	O	1.518155	-0.251888	-0.251857
O10	O	2.018155	0.248112	0.248143
O11	O	1.753066	-0.219779	-0.283983
O12	O	2.253066	0.280221	0.216017
O13	O	1.582573	-0.284021	-0.134979
O14	O	2.082573	0.215979	0.365021
O15	O	1.453791	-0.135019	-0.219775
O16	O	1.953791	0.364981	0.280225
O17	O	1.752937	-0.284012	-0.219744
O18	O	2.252937	0.215988	0.280256
O19	O	1.582873	-0.135013	-0.284000
O20	O	2.082873	0.364987	0.216000
O21	O	1.453620	-0.219795	-0.134992
O22	O	1.953620	0.280205	0.365008
O23	O	1.283341	-0.219774	-0.219748
O24	O	1.783341	0.280226	0.280252
O25	O	1.453640	-0.283976	-0.368718
O26	O	1.953640	0.216024	0.131282
O27	O	1.283277	-0.283985	-0.283953
O28	O	1.783277	0.216015	0.216047
O29	O	1.582787	-0.219759	-0.368739
O30	O	2.082787	0.280241	0.131261
O31	O	1.582488	-0.368767	-0.219717
O32	O	2.082488	0.131233	0.280283
O33	O	1.453470	-0.368752	-0.283936
O34	O	1.953470	0.131248	0.216064
C35	C	1.245188	-0.251879	-0.251849
C36	C	1.745188	0.248121	0.248151
C37	C	1.128411	-0.251888	-0.251859
C38	C	1.628411	0.248112	0.248141
C39	C	1.073617	-0.218502	-0.285359
C40	C	1.573617	0.281498	0.214641
C41	C	0.963893	-0.218507	-0.285363
C42	C	1.463893	0.281493	0.214637
C43	C	0.963767	-0.285288	-0.218364
C44	C	1.463767	0.214712	0.281636
C45	C	1.073489	-0.285280	-0.218358
C46	C	1.573489	0.214720	0.281642
C47	C	0.814024	-0.156883	-0.304164
C48	C	1.314024	0.343117	0.195836
C49	C	0.759226	-0.123502	-0.337673
C50	C	1.259226	0.376498	0.162327
C51	C	0.794888	-0.115543	-0.388702
C52	C	1.294888	0.384457	0.111298
C53	C	0.885345	-0.140973	-0.406233
C54	C	1.385345	0.359027	0.093767
C55	C	0.940137	-0.174358	-0.372727
C56	C	1.440137	0.325642	0.127273
C57	C	0.904478	-0.182307	-0.321690
C58	C	1.404478	0.317693	0.178310
C59	C	1.223360	-0.346905	-0.199562
C60	C	1.723360	0.153095	0.300438
C61	C	1.278154	-0.380293	-0.166058
C62	C	1.778154	0.119707	0.333942
C63	C	1.242495	-0.388257	-0.115028
C64	C	1.742495	0.111743	0.384972
C65	C	1.152034	-0.362837	-0.097499
C66	C	1.652034	0.137163	0.402501
C67	C	1.097240	-0.329448	-0.131003
C68	C	1.597240	0.170552	0.368997
C69	C	1.132907	-0.321483	-0.182032
C70	C	1.632907	0.178517	0.317968
C71	C	1.517979	-0.387730	-0.251833
C72	C	2.017979	0.112270	0.248167
C73	C	1.517999	-0.445844	-0.251840
C74	C	2.017999	0.054156	0.248160
C75	C	1.585510	-0.806203	-0.218475
C76	C	2.085510	-0.306203	0.281525
C77	C	1.585551	-0.860807	-0.218482
C78	C	2.085551	-0.360807	0.281518
O79	O	1.642768	-0.889040	-0.190088
O80	O	2.142768	-0.389040	0.309912
N81	N	1.518340	-0.888127	-0.251892
N82	N	2.018340	-0.388127	0.248108
C83	C	1.451092	-0.860839	-0.285300
C84	C	1.951092	-0.360839	0.214700
O85	O	1.393928	-0.889091	-0.313718
O86	O	1.893928	-0.389091	0.186282
C87	C	1.451057	-0.806236	-0.285295
C88	C	1.951057	-0.306236	0.214705
C89	C	1.518265	-0.778919	-0.251880
C90	C	2.018265	-0.278919	0.248120
C91	C	1.652713	-0.778886	-0.185063
C92	C	2.152713	-0.278886	0.314937
C93	C	1.652671	-0.724286	-0.185056
C94	C	2.152671	-0.224286	0.314944
C95	C	1.585426	-0.697002	-0.218460
C96	C	2.085426	-0.197002	0.281540
C97	C	1.518222	-0.724319	-0.251872
C98	C	2.018222	-0.224319	0.248128
C99	C	1.383815	-0.778949	-0.318705
C100	C	1.883815	-0.278949	0.181295
C101	C	1.383786	-0.724342	-0.318698
C102	C	1.883786	-0.224342	0.181302
C103	C	1.450994	-0.697026	-0.285283
C104	C	1.950994	-0.197026	0.214717
C105	C	1.450934	-0.642434	-0.285269
C106	C	1.950934	-0.142434	0.214731
N107	N	1.518145	-0.615115	-0.251860
N108	N	2.018145	-0.115115	0.248140
C109	C	1.585391	-0.642399	-0.218456
C110	C	2.085391	-0.142399	0.281544
C111	C	1.451171	-0.975510	-0.285308
C112	C	1.951171	-0.475510	0.214692
C113	C	1.451199	-1.030112	-0.285310
C114	C	1.951199	-0.530112	0.214690
C115	C	1.585660	-1.030076	-0.218494
C116	C	2.085660	-0.530076	0.281506
C117	C	1.585626	-0.975473	-0.218489
C118	C	2.085626	-0.475473	0.281511
C119	C	1.518382	-0.948190	-0.251899
C120	C	2.018382	-0.448190	0.248101
C121	C	1.585296	-0.527734	-0.218442
C122	C	2.085296	-0.027734	0.281558
C123	C	1.585245	-0.473128	-0.218436
C124	C	2.085245	0.026872	0.281564
C125	C	1.450788	-0.473169	-0.285254
C126	C	1.950788	0.026831	0.214746
C127	C	1.450835	-0.527769	-0.285259
C128	C	1.950835	-0.027769	0.214741
C129	C	1.518098	-0.555050	-0.251851
C130	C	2.018098	-0.055050	0.248149
O131	O	1.393750	-0.614167	-0.313650
O132	O	1.893750	-0.114167	0.186350
O133	O	1.642555	-0.614141	-0.190047
O134	O	2.142555	-0.114141	0.309953
C135	C	1.792189	-0.251897	-0.251865
C136	C	2.292189	0.248103	0.248135
C137	C	1.908965	-0.251901	-0.251868
C138	C	2.408965	0.248099	0.248132
C139	C	1.518224	-0.251864	-0.388230
C140	C	2.018224	0.248136	0.111770
C141	C	1.518253	-0.251854	-0.446344
C142	C	2.018253	0.248146	0.053656
C143	C	1.518361	-0.115515	-0.251892
C144	C	2.018361	0.384485	0.248108
C145	C	1.518449	-0.057401	-0.251907
C146	C	2.018449	0.442599	0.248093
C147	C	1.451137	-0.218349	-0.806719
C148	C	1.951137	0.281651	-0.306719
C149	C	1.451142	-0.218339	-0.861324
C150	C	1.951142	0.281661	-0.361324
O151	O	1.394025	-0.189910	-0.889571
O152	O	1.894025	0.310090	-0.389571
N153	N	1.518288	-0.251772	-0.888627
N154	N	2.018288	0.248228	-0.388627
C155	C	1.585424	-0.285220	-0.861322
C156	C	2.085424	0.214780	-0.361322
O157	O	1.642537	-0.313656	-0.889559
O158	O	2.142537	0.186344	-0.389559
C159	C	1.585413	-0.285231	-0.806719
C160	C	2.085413	0.214769	-0.306719
C161	C	1.518270	-0.251793	-0.779419
C162	C	2.018270	0.248207	-0.279419
C163	C	1.383999	-0.184914	-0.779419
C164	C	1.883999	0.315086	-0.279419
C165	C	1.383995	-0.184923	-0.724819
C166	C	1.883995	0.315077	-0.224819
C167	C	1.451129	-0.218367	-0.697518
C168	C	1.951129	0.281633	-0.197518
C169	C	1.518266	-0.251802	-0.724818
C170	C	2.018266	0.248198	-0.224818
C171	C	1.652543	-0.318681	-0.779416
C172	C	2.152543	0.181319	-0.279416
C173	C	1.652525	-0.318690	-0.724809
C174	C	2.152525	0.181310	-0.224809
C175	C	1.585383	-0.285252	-0.697509
C176	C	2.085383	0.214748	-0.197509
C177	C	1.585396	-0.285255	-0.642917
C178	C	2.085396	0.214745	-0.142917
N179	N	1.518251	-0.251822	-0.615615
N180	N	2.018251	0.248178	-0.115615
C181	C	1.451117	-0.218378	-0.642915
C182	C	1.951117	0.281622	-0.142915
C183	C	1.585443	-0.285193	-0.975993
C184	C	2.085443	0.214807	-0.475993
C185	C	1.585461	-0.285179	-1.030595
C186	C	2.085461	0.214821	-0.530595
C187	C	1.451177	-0.218299	-1.030593
C188	C	1.951177	0.281701	-0.530593
C189	C	1.451165	-0.218311	-0.975990
C190	C	1.951165	0.281689	-0.475990
C191	C	1.518297	-0.251761	-0.948690
C192	C	2.018297	0.248239	-0.448690
C193	C	1.451114	-0.218399	-0.528250
C194	C	1.951114	0.281601	-0.028250
C195	C	1.451119	-0.218410	-0.473644
C196	C	1.951119	0.281590	0.026356
C197	C	1.585399	-0.285291	-0.473652
C198	C	2.085399	0.214709	0.026348
C199	C	1.585398	-0.285279	-0.528252
C200	C	2.085398	0.214721	-0.028252
C201	C	1.518247	-0.251831	-0.555550
C202	C	2.018247	0.248169	-0.055550
O203	O	1.642482	-0.313671	-0.614635
O204	O	2.142482	0.186329	-0.114635
O205	O	1.394004	-0.189952	-0.614671
O206	O	1.894004	0.310048	-0.114671
C207	C	1.518148	-0.251874	-0.116014
C208	C	2.018148	0.248126	0.383986
C209	C	1.518322	-0.251737	-0.057901
C210	C	2.018322	0.248263	0.442099
H211	H	0.914367	-0.134494	-0.447788
H212	H	1.414367	0.365506	0.052212
H213	H	1.351823	-0.400985	-0.180332
H214	H	1.851823	0.099015	0.319668
O215	O	1.378700	-0.182314	-0.557683
O216	O	1.878700	0.317686	-0.057683
H217	H	1.425777	-0.155713	-0.582570
H218	H	1.925777	0.344287	-0.082570
O219	O	1.657800	-0.321362	-0.444197
O220	O	2.157800	0.178638	0.055803
H221	H	1.740276	-0.312397	-0.454681
H222	H	2.240276	0.187603	0.045319
H223	H	1.118332	-0.191310	-0.312636
H224	H	1.618332	0.308690	0.187364
O225	O	1.378330	-0.557230	-0.321294
O226	O	1.878330	-0.057230	0.178706
H227	H	1.324917	-0.582145	-0.297873
H228	H	1.824917	-0.082145	0.202127
H229	H	1.707479	-0.801095	-0.157861
H230	H	2.207479	-0.301095	0.342139
O231	O	1.261832	-0.338313	-0.254603
O232	O	1.761832	0.161687	0.245397
H233	H	1.208542	-0.310820	-0.274952
H234	H	1.708542	0.189180	0.225048
O235	O	0.904526	-0.321303	-0.182233
O236	O	1.404526	0.178697	0.317767
H237	H	0.925555	-0.362349	-0.191119
H238	H	1.425555	0.137651	0.308881
H239	H	1.640419	-1.052301	-0.191296
H240	H	2.140419	-0.552301	0.308704
H241	H	1.396462	-1.052349	-0.312515
H242	H	1.896462	-0.552349	0.187485
H243	H	1.639973	-0.450889	-0.191223
H244	H	2.139973	0.049111	0.308777
H245	H	1.329325	-0.157679	-0.801642
H246	H	1.829325	0.342321	-0.301642
O247	O	1.657815	-0.321342	-0.557703
O248	O	2.157815	0.178658	-0.057703
H249	H	1.704493	-0.344600	-0.529543
H250	H	2.204493	0.155400	-0.029543
H251	H	1.640070	-0.549939	-0.191239
H252	H	2.140070	-0.049939	0.308761
H253	H	1.396492	-0.191082	-0.953766
H254	H	1.896492	0.308918	-0.453766
H255	H	1.329082	-0.801181	-0.345913
H256	H	1.829082	-0.301181	0.154087
O257	O	1.378763	-0.182226	-1.060043
O258	O	1.878763	0.317774	-0.560043
H259	H	1.390051	-0.187841	-1.102598
H260	H	1.890051	0.312159	-0.602598
O261	O	1.657876	-0.321267	-0.946555
O262	O	2.157876	0.178733	-0.446555
H263	H	1.610823	-0.347880	-0.921669
H264	H	2.110823	0.152120	-0.421669
O265	O	1.725175	-0.694825	-0.149023
O266	O	2.225175	-0.194825	0.350977
H267	H	1.771945	-0.722978	-0.125805
H268	H	2.271945	-0.222978	0.374195
H269	H	1.023581	-0.308750	-0.116727
H270	H	1.523581	0.191250	0.383273
O271	O	0.735791	-0.079534	-0.424841
O272	O	1.235791	0.420466	0.075159
H273	H	0.708983	-0.101706	-0.459539
H274	H	1.208983	0.398294	0.040461
O275	O	0.775568	-0.165457	-0.249120
O276	O	1.275568	0.334543	0.250880
H277	H	0.757953	-0.207455	-0.243274
H278	H	1.257953	0.292545	0.256726
O279	O	1.378265	-0.443737	-0.321285
O280	O	1.878265	0.056263	0.178715
H281	H	1.389543	-0.401179	-0.315668
H282	H	1.889543	0.098821	0.184332
O283	O	0.661674	-0.096067	-0.318766
O284	O	1.161674	0.403933	0.181234
H285	H	0.646092	-0.107198	-0.277647
H286	H	1.146092	0.392802	0.222353
O287	O	1.378704	-0.182340	-0.444198
O288	O	1.878704	0.317660	0.055802
H289	H	1.332020	-0.159087	-0.472359
H290	H	1.832020	0.340913	0.027641
O291	O	1.113572	-0.371423	-0.042457
O292	O	1.613572	0.128577	0.457543
H293	H	1.041461	-0.348140	-0.035899
H294	H	1.541461	0.151860	0.464101
H295	H	1.707217	-0.345911	-0.801634
H296	H	2.207217	0.154089	-0.301634
H297	H	1.287099	-0.415459	-0.087756
H298	H	1.787099	0.084541	0.412244
O299	O	1.037701	-0.201783	-0.391625
O300	O	1.537701	0.298217	0.108375
H301	H	1.053299	-0.190640	-0.432739
H302	H	1.553299	0.309360	0.067261
O303	O	1.311582	-0.148855	-0.695376
O304	O	1.811582	0.351145	-0.195376
H305	H	1.264905	-0.125602	-0.723541
H306	H	1.764905	0.374398	-0.223541
H307	H	1.640353	-0.953235	-0.191280
H308	H	2.140353	-0.453235	0.308720
H309	H	1.329029	-0.702131	-0.345906
H310	H	1.829029	-0.202131	0.154094
H311	H	1.707200	-0.345926	-0.702584
H312	H	2.207200	0.154074	-0.202584
H313	H	1.640146	-0.312402	-1.052818
H314	H	2.140146	0.187598	-0.552818
H315	H	1.396404	-0.953299	-0.312512
H316	H	1.896404	-0.453299	0.187488
