data_functionalizedCrystal
_audit_creation_method	'MofGen! by Chris Wilmer'
_symmetry_space_group_name_H-M	'P1'
_symmetry_Int_Tables_number	1
_symmetry_cell_setting	triclinic
loop_
_symmetry_equiv_pos_as_xyz
  x,y,z
_cell_length_a	17.699083
_cell_length_b	7.540329
_cell_length_c	9.065215
_cell_angle_alpha	89.997358
_cell_angle_beta	84.148856
_cell_angle_gamma	90.003072
loop_
_atom_site_label
_atom_site_type_symbol
_atom_site_fract_x
_atom_site_fract_y
_atom_site_fract_z
O1	O	1.005528	-0.147230	0.186555
O2	O	0.785339	-0.147288	0.210827
O3	O	0.899986	-0.147250	-0.016086
O4	O	0.890881	-0.147267	0.413469
O5	O	0.899979	0.147715	-0.016089
O6	O	0.785332	0.147678	0.210825
O7	O	1.005521	0.147735	0.186553
Cu8	Cu	0.895426	0.174639	0.198688
Cu9	Cu	0.895434	-0.174191	0.198692
O10	O	0.890874	0.147698	0.413466
C11	C	0.757132	0.000188	0.209956
C12	C	0.673093	0.000166	0.207347
N13	N	0.895426	0.419987	0.198685
N14	N	0.895440	-0.419540	0.198683
C15	C	0.625510	0.000161	0.340541
C16	C	0.546548	0.000184	0.338080
C17	C	0.515170	0.000199	0.202425
C18	C	0.562759	0.000209	0.069221
C19	C	0.641720	0.000199	0.071683
C20	C	0.244318	0.000254	0.059290
C21	C	0.165351	0.000259	0.056838
C22	C	0.149146	0.000238	0.325687
C23	C	0.228107	0.000228	0.328149
C24	C	0.275689	0.000248	0.194946
C25	C	0.361309	0.000226	0.197615
C26	C	0.429551	0.000208	0.199754
C27	C	1.033728	0.000256	0.187424
C28	C	1.117767	0.000266	0.190033
C29	C	0.899108	0.000231	-0.071048
C30	C	0.896493	0.000224	-0.234814
C31	C	0.891752	0.000213	0.468428
C32	C	0.894367	0.000208	0.632194
H33	H	0.507808	0.000178	0.446540
H34	H	0.651052	0.000147	0.451007
C35	C	0.296012	0.000615	-0.085277
C36	C	0.341811	0.152384	-0.091747
C37	C	0.389439	0.152783	-0.224912
H38	H	0.327218	-0.102130	-0.090041
H39	H	0.266043	0.000711	-0.166463
H40	H	0.371778	0.152272	-0.010582
H41	H	0.310627	0.255153	-0.087008
H42	H	0.359470	0.152879	-0.306098
H43	H	0.420639	0.050032	-0.229665
H44	H	0.420514	0.255764	-0.229326
C45	C	0.131137	0.000197	-0.090304
C46	C	0.051802	0.000147	-0.063942
C47	C	0.020257	0.000063	-0.199444
H48	H	0.147323	0.103038	-0.145243
H49	H	0.147360	-0.102697	-0.145157
H50	H	0.035585	0.103031	-0.009113
H51	H	0.035595	-0.102686	-0.009026
H52	H	0.036481	-0.102831	-0.254297
H53	H	0.036449	0.102906	-0.254373
H54	H	-0.033574	0.000013	-0.181576
C55	C	0.528796	-0.000054	-0.078171
C56	C	0.552904	-0.151782	-0.158686
C57	C	0.521643	-0.152081	-0.294481
H58	H	0.474956	-0.000146	-0.060772
H59	H	0.545090	0.102755	-0.133084
H60	H	0.536605	-0.254565	-0.103785
H61	H	0.606740	-0.151722	-0.176125
H62	H	0.537937	-0.049271	-0.349394
H63	H	0.467804	-0.152168	-0.277067
H64	H	0.538001	-0.255017	-0.349133
C65	C	0.693475	-0.000079	-0.072815
C66	C	0.739289	-0.151811	-0.079239
C67	C	0.786982	-0.152107	-0.212322
H68	H	0.663576	-0.000163	-0.154084
H69	H	0.724663	0.102727	-0.077452
H70	H	0.708105	-0.254591	-0.074617
H71	H	0.769204	-0.151760	0.001999
H72	H	0.818169	-0.049301	-0.216959
H73	H	0.757076	-0.152186	-0.293580
H74	H	0.818076	-0.255047	-0.216692
H75	H	0.253651	0.000208	0.438613
H76	H	0.110395	0.000232	0.434147
