data_functionalizedCrystal
_audit_creation_method	'MofGen! by Chris Wilmer'
_symmetry_space_group_name_H-M	'P1'
_symmetry_Int_Tables_number	1
_symmetry_cell_setting	triclinic
loop_
_symmetry_equiv_pos_as_xyz
  x,y,z
_cell_length_a	25.639243
_cell_length_b	21.395361
_cell_length_c	21.395355
_cell_angle_alpha	90.021511
_cell_angle_beta	90.027109
_cell_angle_gamma	90.033432
loop_
_atom_site_label
_atom_site_type_symbol
_atom_site_fract_x
_atom_site_fract_y
_atom_site_fract_z
Zn1	Zn	0.799312	-0.249466	0.354291
Zn2	Zn	0.799230	-0.354225	0.249508
Zn3	Zn	0.711871	-0.249471	0.249523
Zn4	Zn	0.711845	-0.354214	0.354244
O5	O	0.755564	-0.301844	0.301892
O6	O	0.872466	-0.263365	0.340405
O7	O	0.787619	-0.340336	0.161832
O8	O	0.723515	-0.161792	0.263447
O9	O	0.872406	-0.340331	0.263421
O10	O	0.787757	-0.161788	0.340420
O11	O	0.723436	-0.263373	0.161843
O12	O	0.638702	-0.263363	0.263401
O13	O	0.723471	-0.340312	0.441928
O14	O	0.638683	-0.340317	0.340339
O15	O	0.787732	-0.263354	0.441963
O16	O	0.787594	-0.441902	0.263375
O17	O	0.723392	-0.441894	0.340324
C18	C	0.755495	-0.464632	0.301857
C19	C	0.755514	-0.534273	0.301863
C20	C	0.619722	-0.301840	0.301867
C21	C	0.561608	-0.301853	0.301871
C22	C	0.788973	-0.566969	0.261837
C23	C	0.788997	-0.632405	0.261851
C24	C	0.755553	-0.665141	0.301884
C25	C	0.722091	-0.632437	0.341918
C26	C	0.722072	-0.567003	0.341907
C27	C	0.708476	-0.768859	0.306792
C28	C	0.708495	-0.834292	0.306798
C29	C	0.755614	-0.866962	0.301921
C30	C	0.802716	-0.834191	0.297024
C31	C	0.802696	-0.768757	0.297014
C32	C	0.755571	-0.736094	0.301901
C33	C	0.789102	-0.970611	0.261908
C34	C	0.789128	-1.036048	0.261926
C35	C	0.722217	-1.036078	0.341991
C36	C	0.722196	-0.970643	0.341975
C37	C	0.755638	-0.937913	0.301931
C38	C	0.201270	-0.261830	0.342044
C39	C	0.146666	-0.261830	0.342048
O40	O	0.118451	-0.227790	0.376173
N41	N	0.119325	-0.301842	0.301909
C42	C	0.146592	-0.341853	0.261759
O43	O	0.118323	-0.375886	0.227618
C44	C	0.201195	-0.341850	0.261752
C45	C	0.228533	-0.301840	0.301898
C46	C	0.228608	-0.221823	0.382186
C47	C	0.283209	-0.221824	0.382183
C48	C	0.310471	-0.261833	0.342037
C49	C	0.283134	-0.301841	0.301895
C50	C	0.228461	-0.381857	0.221600
C51	C	0.283068	-0.381850	0.221596
C52	C	0.310406	-0.341840	0.261742
C53	C	0.364997	-0.341852	0.261746
N54	N	0.392337	-0.301839	0.301885
C55	C	0.365075	-0.261830	0.342031
C56	C	0.031921	-0.341856	0.261775
C57	C	-0.022681	-0.341862	0.261784
C58	C	-0.022603	-0.261838	0.342072
C59	C	0.032000	-0.261835	0.342066
C60	C	0.059262	-0.301843	0.301914
C61	C	0.479740	-0.261837	0.342021
C62	C	0.534345	-0.261844	0.342016
C63	C	0.534263	-0.341865	0.261726
C64	C	0.479662	-0.341861	0.261733
C65	C	0.452402	-0.301842	0.301883
O66	O	0.393246	-0.375873	0.227637
O67	O	0.393351	-0.227797	0.376160
C68	C	0.891937	-0.301849	0.301917
C69	C	0.950051	-0.301851	0.301928
C70	C	0.755608	-0.301831	0.465315
C71	C	0.755626	-0.301826	0.534956
C72	C	0.755648	-0.138421	0.301940
C73	C	0.755684	-0.068779	0.301961
C74	C	0.755551	-0.301811	0.139104
C75	C	0.755634	-0.301640	0.069463
C76	C	0.789086	-0.261752	0.567688
C77	C	0.789085	-0.261725	0.633124
C78	C	0.755630	-0.301783	0.665825
C79	C	0.722165	-0.341860	0.633084
C80	C	0.722163	-0.341881	0.567650
C81	C	0.751478	-0.358199	0.769487
C82	C	0.751484	-0.358178	0.834920
C83	C	0.755634	-0.301717	0.867645
C84	C	0.759789	-0.245274	0.834930
C85	C	0.759787	-0.245295	0.769496
C86	C	0.755629	-0.301764	0.736777
C87	C	0.789094	-0.261610	0.971330
C88	C	0.789090	-0.261582	1.036767
C89	C	0.722172	-0.341723	1.036726
C90	C	0.722174	-0.341745	0.971291
C91	C	0.755637	-0.301690	0.938597
H92	H	0.816205	-0.540323	0.229231
Cl93	Cl	0.765006	-0.174342	0.728370
H94	H	-0.044810	-0.229259	0.374759
Cl95	Cl	-0.057042	-0.392169	0.211319
H96	H	0.694930	-0.374382	0.944640
H97	H	0.816377	-1.062668	0.229333
H98	H	0.206417	-0.189239	0.414877
Cl99	Cl	0.649283	-0.875483	0.312952
Cl100	Cl	0.194107	-0.432147	0.171115
Cl101	Cl	0.765008	-0.174289	0.876063
H102	H	0.841084	-0.860789	0.293053
Cl103	Cl	0.649235	-0.727795	0.312923
H104	H	0.841047	-0.742076	0.293029
H105	H	0.816335	-0.943961	0.229303
Cl106	Cl	0.066188	-0.392161	0.211297
Cl107	Cl	0.317336	-0.432151	0.171118
H108	H	0.694913	-0.374513	0.541000
H109	H	0.816334	-0.229135	0.541073
H110	H	0.556470	-0.374441	0.229042
H111	H	0.816246	-0.659032	0.229257
Cl112	Cl	0.746265	-0.429135	0.876041
H113	H	0.694825	-0.540380	0.374502
Cl114	Cl	0.445293	-0.392178	0.211282
Cl115	Cl	0.831165	-0.211209	1.077917
H116	H	0.457551	-0.229248	0.374713
H117	H	0.816331	-0.229089	0.659780
H118	H	0.054255	-0.229254	0.374755
H119	H	0.747959	-0.404165	0.742847
Cl120	Cl	0.680176	-1.077226	0.392324
Cl121	Cl	0.568709	-0.211543	0.392491
H122	H	0.305462	-0.189243	0.414873
Cl123	Cl	0.680105	-0.392216	0.674193
Cl124	Cl	0.680128	-0.929536	0.392294
H125	H	0.694862	-0.659095	0.374515
Cl126	Cl	0.831159	-0.211253	0.930226
Cl127	Cl	0.680109	-0.392077	1.077829
