data_functionalizedCrystal
_audit_creation_method	'MofGen! by Chris Wilmer'
_symmetry_space_group_name_H-M	'P1'
_symmetry_Int_Tables_number	1
_symmetry_cell_setting	triclinic
loop_
_symmetry_equiv_pos_as_xyz
  x,y,z
_cell_length_a	12.827892
_cell_length_b	12.759401
_cell_length_c	12.759393
_cell_angle_alpha	90.020566
_cell_angle_beta	89.970218
_cell_angle_gamma	89.986400
loop_
_atom_site_label
_atom_site_type_symbol
_atom_site_fract_x
_atom_site_fract_y
_atom_site_fract_z
Zn1	Zn	-0.416032	-1.606261	-0.594015
Zn2	Zn	-0.590810	-1.606150	-0.418337
Zn3	Zn	-0.416078	-1.430560	-0.418351
Zn4	Zn	-0.590727	-1.430550	-0.593976
O5	O	-0.503412	-1.518380	-0.506170
O6	O	-0.439233	-1.753268	-0.570721
O7	O	-0.567685	-1.582816	-0.271318
O8	O	-0.269836	-1.453918	-0.441676
O9	O	-0.567641	-1.753186	-0.441652
O10	O	-0.269802	-1.583005	-0.570735
O11	O	-0.439310	-1.453810	-0.271328
O12	O	-0.439230	-1.283538	-0.441638
O13	O	-0.567499	-1.453900	-0.741002
O14	O	-0.567543	-1.283530	-0.570668
O15	O	-0.439152	-1.582995	-0.741031
O16	O	-0.737035	-1.582806	-0.441614
O17	O	-0.736974	-1.453793	-0.570654
C18	C	-0.503383	-1.245413	-0.506151
C19	C	-0.503396	-1.128636	-0.506167
C20	C	-0.436653	-1.073817	-0.573477
C21	C	-0.436659	-0.964093	-0.573482
C22	C	-0.570161	-0.964017	-0.438866
C23	C	-0.570149	-1.073739	-0.438856
C24	C	-0.774922	-1.518315	-0.506151
C25	C	-0.891075	-1.518383	-0.506178
C26	C	-1.062908	-1.454600	-0.570012
C27	C	-0.942858	-1.454528	-0.569985
C28	C	-0.230842	-1.518475	-0.506211
C29	C	-0.114688	-1.518515	-0.506229
C30	C	-0.503311	-1.518459	-0.780203
C31	C	-0.503269	-1.518492	-0.896980
C32	C	-0.503431	-0.792414	-0.506186
C33	C	-0.503415	-0.909190	-0.506182
C34	C	-0.436428	-1.585717	-0.951859
C35	C	-0.436383	-1.585735	-1.061583
C36	C	-0.570029	-1.451301	-1.061540
C37	C	-0.570068	-1.451278	-0.951818
C38	C	-0.503436	-1.518362	-0.233202
C39	C	-0.503185	-1.518533	-0.116426
H40	H	-0.624510	-0.919306	-0.384064
H41	H	-0.382295	-1.118512	-0.628283
H42	H	-0.624501	-1.118374	-0.384039
O43	O	-0.634904	-1.386008	-0.898339
C44	C	-0.694231	-1.326444	-0.729282
C45	C	-0.620742	-1.400397	-0.789716
H46	H	-0.682822	-1.338067	-0.641450
H47	H	-0.675860	-1.241715	-0.750765
H48	H	-0.778480	-1.344854	-0.750904
H49	H	-0.536469	-1.382082	-0.768127
H50	H	-0.639203	-1.485103	-0.768228
O51	O	-1.115995	-1.389492	-0.635335
C52	C	-1.149459	-1.338410	-0.813977
C53	C	-1.089295	-1.412226	-0.740116
H54	H	-1.127878	-1.356749	-0.898707
H55	H	-1.236825	-1.350095	-0.802478
H56	H	-1.128160	-1.253677	-0.795414
H57	H	-1.110506	-1.496988	-0.758634
H58	H	-1.001944	-1.400451	-0.751628
H59	H	-0.381952	-1.640474	-1.106260
O60	O	-0.371794	-0.911005	-0.638968
C61	C	-0.239337	-0.922668	-0.772448
C62	C	-0.312765	-0.982919	-0.698354
H63	H	-0.191577	-0.980784	-0.820464
H64	H	-0.287336	-0.871343	-0.827372
H65	H	-0.184683	-0.871259	-0.724296
H66	H	-0.367433	-1.034386	-0.746421
H67	H	-0.264701	-1.034178	-0.643426
H68	H	-0.898329	-1.399803	-0.624588
H69	H	-0.935598	-1.573103	-0.451566
O70	O	-1.061509	-1.583585	-0.440944
C71	C	-0.938194	-1.597608	-0.299239
C72	C	-0.998369	-1.523795	-0.373095
H73	H	-0.887113	-1.549298	-0.244379
H74	H	-0.995803	-1.645724	-0.251141
H75	H	-0.887059	-1.652463	-0.347580
H76	H	-1.049505	-1.468877	-0.324835
H77	H	-0.940702	-1.475753	-0.421196
H78	H	-0.382033	-1.640444	-0.907213
O79	O	-0.634885	-1.386116	-1.114974
C80	C	-0.694013	-1.326526	-1.283987
C81	C	-0.620525	-1.400417	-1.223608
H82	H	-0.682413	-1.338047	-1.371828
H83	H	-0.778310	-1.344940	-1.262480
H84	H	-0.675669	-1.241824	-1.262341
H85	H	-0.638775	-1.485144	-1.245221
H86	H	-0.536249	-1.381913	-1.245120
