data_functionalizedCrystal
_audit_creation_method	'MofGen! by Chris Wilmer'
_symmetry_space_group_name_H-M	'P1'
_symmetry_Int_Tables_number	1
_symmetry_cell_setting	triclinic
loop_
_symmetry_equiv_pos_as_xyz
  x,y,z
_cell_length_a	11.792254
_cell_length_b	10.868271
_cell_length_c	11.026607
_cell_angle_alpha	90.002960
_cell_angle_beta	83.607693
_cell_angle_gamma	89.994489
loop_
_atom_site_label
_atom_site_type_symbol
_atom_site_fract_x
_atom_site_fract_y
_atom_site_fract_z
O1	O	-1.539986	0.102354	0.166626
O2	O	-1.213052	0.102349	0.183775
O3	O	-1.349423	0.102346	-0.001632
O4	O	-1.403615	0.102356	0.352033
O5	O	-1.349407	-0.102298	-0.001639
O6	O	-1.213036	-0.102296	0.183768
O7	O	-1.539970	-0.102291	0.166619
Zn8	Zn	-1.376500	-0.134785	0.175192
Zn9	Zn	-1.376521	0.134843	0.175202
O10	O	-1.403599	-0.102288	0.352026
C11	C	-1.170538	0.000026	0.182691
C12	C	-1.043883	0.000024	0.179458
C13	C	-0.941025	0.000026	0.176831
C14	C	-0.811986	0.000024	0.173546
N15	N	-1.376494	-0.318799	0.175185
C16	C	-1.376515	-0.569805	0.175199
C17	C	-1.376500	-0.430128	0.175195
C18	C	-0.582483	0.000029	0.167703
C19	C	-0.709138	0.000022	0.170936
C20	C	-1.339417	0.000025	-0.046913
C21	C	-1.309614	0.000029	-0.181824
N22	N	-1.376534	0.318857	0.175200
C23	C	-1.391905	0.000032	-0.255084
C24	C	-1.361104	0.000036	-0.394523
C25	C	-1.413604	0.000035	0.397307
C26	C	-1.443407	0.000040	0.532218
H27	H	-1.485159	0.000026	-0.214575
C28	C	-1.235113	0.000037	-0.449228
C29	C	-1.188286	-0.106227	-0.532642
C30	C	-1.062297	-0.106227	-0.587349
C31	C	-0.983136	0.000038	-0.558642
C32	C	-1.029962	0.106310	-0.475225
C33	C	-1.155950	0.106309	-0.420518
H34	H	-1.246887	-0.184898	-0.553896
H35	H	-1.027634	-0.184897	-0.649101
H36	H	-0.889871	0.000038	-0.599140
H37	H	-0.971361	0.184980	-0.453970
H38	H	-1.190614	0.184980	-0.358766
H39	H	-1.536668	0.000134	-0.427279
H40	H	-1.216360	0.000036	-0.222334
