data_functionalizedCrystal
_audit_creation_method	'MofGen! by Chris Wilmer'
_symmetry_space_group_name_H-M	'P1'
_symmetry_Int_Tables_number	1
_symmetry_cell_setting	triclinic
loop_
_symmetry_equiv_pos_as_xyz
  x,y,z
_cell_length_a	21.395362
_cell_length_b	18.050589
_cell_length_c	21.395355
_cell_angle_alpha	89.987098
_cell_angle_beta	89.956060
_cell_angle_gamma	90.044101
loop_
_atom_site_label
_atom_site_type_symbol
_atom_site_fract_x
_atom_site_fract_y
_atom_site_fract_z
Zn1	Zn	0.957870	-0.295431	-0.354610
Zn2	Zn	0.957777	-0.419603	-0.249843
Zn3	Zn	0.853085	-0.295465	-0.249811
Zn4	Zn	0.853059	-0.419618	-0.354548
O5	O	0.905448	-0.357529	-0.302203
O6	O	1.045536	-0.311882	-0.340752
O7	O	0.943862	-0.403144	-0.162161
O8	O	0.867035	-0.191536	-0.263726
O9	O	1.045468	-0.403110	-0.263780
O10	O	0.944020	-0.191511	-0.340721
O11	O	0.866945	-0.311940	-0.162138
O12	O	0.765404	-0.311955	-0.263665
O13	O	0.866990	-0.403136	-0.442234
O14	O	0.765385	-0.403170	-0.340615
O15	O	0.943995	-0.311896	-0.442280
O16	O	0.943836	-0.523529	-0.263719
O17	O	0.866900	-0.523540	-0.340645
C18	C	0.742660	-0.357568	-0.302130
C19	C	0.673019	-0.357603	-0.302114
C20	C	0.640312	-0.405161	-0.342121
C21	C	0.574877	-0.405143	-0.342149
C22	C	0.542151	-0.357574	-0.302159
C23	C	0.574865	-0.310007	-0.262148
C24	C	0.640300	-0.310021	-0.262126
C25	C	0.438426	-0.351592	-0.245753
C26	C	0.372993	-0.351583	-0.245774
C27	C	0.340330	-0.357526	-0.302228
C28	C	0.373108	-0.363494	-0.358662
C29	C	0.438542	-0.363508	-0.358640
C30	C	0.471198	-0.357553	-0.302179
C31	C	0.236671	-0.405067	-0.342269
C32	C	0.171234	-0.405044	-0.342298
C33	C	0.171224	-0.309911	-0.262291
C34	C	0.236659	-0.309931	-0.262268
C35	C	0.269379	-0.357513	-0.302256
C36	C	0.905372	-0.550481	-0.302192
C37	C	0.905397	-0.633027	-0.302209
C38	C	0.863601	-0.832511	-0.344027
C39	C	0.848322	-0.881943	-0.286848
C40	C	0.905459	-0.784157	-0.302217
C41	C	0.920768	-0.881806	-0.359402
C42	C	0.905517	-0.930142	-0.302230
C43	C	0.890151	-0.832503	-0.245009
C44	C	0.962623	-0.832361	-0.317601
C45	C	0.947366	-0.881772	-0.260383
C46	C	0.905424	-0.700059	-0.302211
C47	C	0.905552	-1.014239	-0.302230
C48	C	1.068871	-0.357490	-0.302276
C49	C	1.138513	-0.357474	-0.302307
C50	C	0.905500	-0.357514	-0.465626
C51	C	0.905522	-0.357508	-0.535268
C52	C	0.905541	-0.163823	-0.302227
C53	C	0.905581	-0.081278	-0.302237
C54	C	0.945617	-0.309997	-0.568006
C55	C	0.945616	-0.309965	-0.633441
C56	C	0.905527	-0.357457	-0.666136
C57	C	0.865425	-0.404971	-0.633390
C58	C	0.865422	-0.404996	-0.567956
C59	C	0.900554	-0.424328	-0.769805
C60	C	0.900560	-0.424304	-0.835238
C61	C	0.905531	-0.357379	-0.867957
C62	C	0.910508	-0.290475	-0.835234
C63	C	0.910505	-0.290501	-0.769800
C64	C	0.905525	-0.357435	-0.737088
C65	C	0.945627	-0.309829	-0.971647
C66	C	0.945621	-0.309796	-1.037084
C67	C	0.865434	-0.404809	-1.037032
C68	C	0.865436	-0.404835	-0.971596
C69	C	0.905535	-0.357347	-0.938908
C70	C	0.905432	-0.357490	-0.139415
C71	C	0.905531	-0.357288	-0.069774
H72	H	0.263312	-0.443807	-0.374833
H73	H	0.978264	-0.271272	-0.660102
H74	H	0.465228	-0.368366	-0.404590
C75	C	0.915972	-0.216916	-0.733804
H76	H	0.915262	-0.226520	-0.690149
H77	H	0.881904	-0.185681	-0.744500
H78	H	0.954131	-0.193154	-0.744551
H79	H	0.832782	-0.443637	-0.660014
H80	H	0.465014	-0.346749	-0.199778
H81	H	0.548242	-0.443870	-0.374731
C82	C	0.821320	-0.457262	-0.531940
H83	H	0.827059	-0.450473	-0.488287
H84	H	0.830463	-0.507154	-0.542675
H85	H	0.779226	-0.446392	-0.542629
H86	H	0.933693	-0.903463	-0.407758
C87	C	0.538870	-0.257683	-0.218160
H88	H	0.495215	-0.264491	-0.223898
H89	H	0.549643	-0.207803	-0.227398
H90	H	0.549539	-0.268484	-0.176040
C91	C	0.989728	-0.257591	-0.935685
H92	H	0.983990	-0.264418	-0.892025
H93	H	0.980583	-0.207690	-0.946395
H94	H	1.031822	-0.268450	-0.946443
C95	C	0.989734	-0.257542	-1.073099
H96	H	0.983990	-0.264323	-1.116751
H97	H	1.031823	-0.268418	-1.062405
H98	H	0.980595	-0.207643	-1.062366
H99	H	0.666948	-0.443905	-0.374684
C100	C	0.989720	-0.257756	-0.532052
H101	H	1.013595	-0.229451	-0.560925
H102	H	1.017004	-0.286166	-0.506547
H103	H	0.965763	-0.225408	-0.506508
C104	C	0.915975	-0.216852	-0.871212
H105	H	0.918943	-0.177014	-0.842353
H106	H	0.880071	-0.210320	-0.896710
H107	H	0.952297	-0.217799	-0.896766
C108	C	0.337188	-0.370029	-0.420765
H109	H	0.293524	-0.369157	-0.412699
H110	H	0.347895	-0.415278	-0.440732
H111	H	0.347977	-0.329673	-0.447172
H112	H	0.828150	-0.810879	-0.379334
C113	C	0.135254	-0.457357	-0.386309
H114	H	0.091597	-0.450529	-0.380602
H115	H	0.145924	-0.507242	-0.377062
H116	H	0.146035	-0.446563	-0.428421
H117	H	0.144579	-0.271177	-0.229733
H118	H	0.832786	-0.443470	-1.063651
H119	H	0.800008	-0.903738	-0.273849
H120	H	0.896338	-0.478812	-0.743171
C121	C	0.272639	-0.257626	-0.218251
H122	H	0.243778	-0.229297	-0.194433
H123	H	0.298219	-0.225315	-0.242253
H124	H	0.298108	-0.286000	-0.190900
H125	H	0.832790	-0.443528	-0.944941
H126	H	0.666929	-0.271291	-0.229547
H127	H	1.010926	-0.810569	-0.330628
C128	C	0.895094	-0.497891	-0.871230
H129	H	0.895817	-0.488293	-0.914886
H130	H	0.856939	-0.521653	-0.860485
H131	H	0.929166	-0.529124	-0.860530
C132	C	0.336940	-0.345071	-0.183698
H133	H	0.293292	-0.345938	-0.191794
H134	H	0.347660	-0.299837	-0.163699
H135	H	0.347620	-0.385447	-0.157306
C136	C	0.995217	-0.910817	-0.212575
H137	H	0.984261	-0.893845	-0.171994
H138	H	1.035682	-0.893090	-0.223151
H139	H	0.995219	-0.963444	-0.213076
C140	C	0.872608	-0.803373	-0.179668
H141	H	0.872671	-0.750744	-0.180068
H142	H	0.902174	-0.820633	-0.149948
H143	H	0.832144	-0.820764	-0.168685
