data_functionalizedCrystal
_audit_creation_method	'MofGen! by Chris Wilmer'
_symmetry_space_group_name_H-M	'P1'
_symmetry_Int_Tables_number	1
_symmetry_cell_setting	triclinic
loop_
_symmetry_equiv_pos_as_xyz
  x,y,z
_cell_length_a	14.908571
_cell_length_b	18.101395
_cell_length_c	14.908308
_cell_angle_alpha	93.266316
_cell_angle_beta	90.175053
_cell_angle_gamma	86.727274
loop_
_atom_site_label
_atom_site_type_symbol
_atom_site_fract_x
_atom_site_fract_y
_atom_site_fract_z
Zn1	Zn	1.345208	-0.386468	-0.587575
Zn2	Zn	1.845208	0.113532	-0.087575
Zn3	Zn	1.353762	-0.503604	-0.437213
Zn4	Zn	1.853762	-0.003604	0.062787
Zn5	Zn	1.203527	-0.372244	-0.428573
Zn6	Zn	1.703527	0.127756	0.071427
Zn7	Zn	1.194790	-0.502724	-0.578865
Zn8	Zn	1.694790	-0.002724	-0.078865
O9	O	1.274322	-0.441260	-0.508057
O10	O	1.774322	0.058740	-0.008057
O11	O	1.472167	-0.408328	-0.574890
O12	O	1.972167	0.091672	-0.074890
O13	O	1.341069	-0.480594	-0.310243
O14	O	1.841069	0.019406	0.189757
O15	O	1.222397	-0.270503	-0.449694
O16	O	1.722397	0.229497	0.050306
O17	O	1.478452	-0.494387	-0.464420
O18	O	1.978452	0.005613	0.035580
O19	O	1.326490	-0.280953	-0.566512
O20	O	1.826490	0.219047	-0.066512
O21	O	1.230692	-0.384085	-0.303895
O22	O	1.730692	0.115915	0.196105
O23	O	1.076543	-0.383231	-0.441249
O24	O	1.576543	0.116769	0.058751
O25	O	1.207507	-0.492887	-0.705845
O26	O	1.707507	0.007113	-0.205845
O27	O	1.070124	-0.479094	-0.551667
O28	O	1.570124	0.020906	-0.051667
O29	O	1.318019	-0.407474	-0.712244
O30	O	1.818019	0.092526	-0.212244
O31	O	1.332598	-0.607115	-0.455974
O32	O	1.832598	-0.107115	0.044026
O33	O	1.215801	-0.606469	-0.560045
O34	O	1.715801	-0.106469	-0.060045
C35	C	1.040709	-0.429524	-0.494576
C36	C	1.540709	0.070476	0.005424
C37	C	0.940767	-0.424523	-0.488830
C38	C	1.440767	0.075477	0.011170
C39	C	0.746339	-0.515086	-0.592857
C40	C	1.246339	-0.015086	-0.092857
C41	C	0.652434	-0.510389	-0.587462
C42	C	1.152434	-0.010389	-0.087462
C43	C	0.659052	-0.410428	-0.472648
C44	C	1.159052	0.089572	0.027352
C45	C	0.752956	-0.415125	-0.478044
C46	C	1.252956	0.084875	0.021956
C47	C	0.796596	-0.467457	-0.538149
C48	C	1.296596	0.032543	-0.038149
C49	C	0.890503	-0.472157	-0.543540
C50	C	1.390503	0.027843	-0.043540
C51	C	0.897118	-0.372193	-0.428731
C52	C	1.397118	0.127807	0.071269
C53	C	0.803213	-0.367496	-0.423336
C54	C	1.303213	0.132504	0.076664
C55	C	1.274203	-0.633663	-0.508023
C56	C	1.774203	-0.133663	-0.008023
C57	C	1.274233	-0.715980	-0.508044
C58	C	1.774233	-0.215980	-0.008044
C59	C	1.274427	-1.015083	-0.508104
C60	C	1.774427	-0.515083	-0.008104
C61	C	1.201093	-0.983397	-0.573764
C62	C	1.701093	-0.483397	-0.073764
C63	C	1.200777	-0.897753	-0.573527
C64	C	1.700777	-0.397753	-0.073527
C65	C	1.274331	-0.866694	-0.508075
C66	C	1.774331	-0.366694	-0.008075
C67	C	1.254147	-0.892332	-0.411835
C68	C	1.754147	-0.392332	0.088165
C69	C	1.253677	-0.977973	-0.412227
C70	C	1.753677	-0.477973	0.087773
C71	C	1.368144	-0.989281	-0.537857
C72	C	1.868144	-0.489281	-0.037857
C73	C	1.367465	-0.903695	-0.539903
C74	C	1.867465	-0.403695	-0.039903
C75	C	1.274278	-0.782831	-0.508053
C76	C	1.774278	-0.282831	-0.008053
C77	C	1.274478	-1.098945	-0.508119
C78	C	1.774478	-0.598945	-0.008119
C79	C	1.508847	-0.453042	-0.521591
C80	C	2.008847	0.046958	-0.021591
C81	C	1.608787	-0.458063	-0.527358
C82	C	2.108787	0.041937	-0.027358
C83	C	1.260834	-0.451669	-0.742582
C84	C	1.760834	0.048331	-0.242582
C85	C	1.255087	-0.456105	-0.842522
C86	C	1.755087	0.043895	-0.342522
C87	C	1.274464	-0.248107	-0.508111
C88	C	1.774464	0.251893	-0.008111
C89	C	1.274525	-0.165797	-0.508134
C90	C	1.774525	0.334203	-0.008134
C91	C	1.359359	-0.375483	-1.036986
C92	C	1.859359	0.124517	-0.536986
C93	C	1.353962	-0.379648	-1.130890
C94	C	1.853962	0.120352	-0.630890
C95	C	1.238890	-0.468597	-1.124234
C96	C	1.738890	0.031403	-0.624234
C97	C	1.244288	-0.464432	-1.030330
C98	C	1.744288	0.035568	-0.530330
C99	C	1.304525	-0.417874	-0.986710
C100	C	1.804525	0.082126	-0.486710
C101	C	1.309927	-0.413713	-0.892805
C102	C	1.809927	0.086287	-0.392805
C103	C	1.194851	-0.502657	-0.886151
C104	C	1.694851	-0.002657	-0.386151
C105	C	1.189453	-0.506822	-0.980054
C106	C	1.689453	-0.006822	-0.480054
C107	C	1.287808	-0.430840	-0.274447
C108	C	1.787808	0.069160	0.225553
C109	C	1.293730	-0.426205	-0.174517
C110	C	1.793730	0.073795	0.325483
H111	H	0.611518	-0.549172	-0.632012
H112	H	1.111518	-0.049172	-0.132012
N113	N	0.793411	-0.571532	-0.657675
N114	N	1.293411	-0.071532	-0.157675
H115	H	0.829999	-0.545295	-0.701647
H116	H	1.329999	-0.045295	-0.201647
H117	H	0.834402	-0.606109	-0.623226
H118	H	1.334402	-0.106109	-0.123226
N119	N	1.173928	-0.518810	-1.171292
N120	N	1.673928	-0.018810	-0.671292
H121	H	1.140007	-0.545035	-1.125195
H122	H	1.640007	-0.045035	-0.625195
H123	H	1.130099	-0.488302	-1.207857
H124	H	1.630099	0.011698	-0.707857
H125	H	1.150203	-0.537177	-0.845206
H126	H	1.650203	-0.037177	-0.345206
N127	N	1.163149	-0.998698	-0.379695
N128	N	1.663149	-0.498698	0.120305
H129	H	1.171249	-1.027548	-0.323930
H130	H	1.671249	-0.527548	0.176070
H131	H	1.123969	-0.952193	-0.365284
H132	H	1.623969	-0.452193	0.134716
N133	N	1.393939	-1.023389	-0.629611
N134	N	1.893939	-0.523389	-0.129611
H135	H	1.345130	-1.055917	-0.652821
H136	H	1.845130	-0.555917	-0.152821
H137	H	1.401754	-0.982788	-0.672188
H138	H	1.901754	-0.482788	-0.172188
N139	N	1.374903	-0.363506	-0.845758
N140	N	1.874903	0.136494	-0.345758
H141	H	1.370010	-0.367304	-0.778641
H142	H	1.870010	0.132696	-0.278641
H143	H	1.438163	-0.378993	-0.865882
H144	H	1.938163	0.121007	-0.365882
H145	H	1.140408	-0.544727	-1.015582
H146	H	1.640408	-0.044727	-0.515582
H147	H	0.623503	-0.367818	-0.423719
H148	H	1.123503	0.132182	0.076281
N149	N	1.164618	-0.858213	-0.378852
N150	N	1.664618	-0.358213	0.121148
H151	H	1.173632	-0.826867	-0.321652
H152	H	1.673632	-0.326867	0.178348
H153	H	1.137055	-0.826178	-0.426152
H154	H	1.637055	-0.326178	0.073848
N155	N	0.756143	-0.311070	-0.358492
N156	N	1.256143	0.188930	0.141508
H157	H	0.689029	-0.315326	-0.363368
H158	H	1.189029	0.184674	0.136632
H159	H	0.776241	-0.320509	-0.295203
H160	H	1.276241	0.179491	0.204797
N161	N	1.216741	-1.015840	-0.668352
N162	N	1.716741	-0.515840	-0.168352
H163	H	1.162608	-1.043188	-0.689265
H164	H	1.662608	-0.543188	-0.189265
H165	H	1.226604	-0.974640	-0.709536
H166	H	1.726604	-0.474640	-0.209536
N167	N	1.216650	-0.875064	-0.667825
N168	N	1.716650	-0.375064	-0.167825
H169	H	1.216470	-0.819261	-0.667851
H170	H	1.716470	-0.319261	-0.167851
H171	H	1.276668	-0.897427	-0.690112
H172	H	1.776668	-0.397427	-0.190112
N173	N	1.321744	-1.005462	-0.344825
N174	N	1.821744	-0.505462	0.155175
H175	H	1.351920	-0.961944	-0.314987
H176	H	1.851920	-0.461944	0.185013
H177	H	1.290420	-1.032736	-0.297849
H178	H	1.790420	-0.532736	0.202151
N179	N	1.387767	-0.882131	-0.633755
N180	N	1.887767	-0.382131	-0.133755
H181	H	1.336856	-0.848533	-0.655572
H182	H	1.836856	-0.348533	-0.155572
H183	H	1.445342	-0.855290	-0.633197
H184	H	1.945342	-0.355290	-0.133197
N185	N	1.443093	-0.876167	-0.481760
N186	N	1.943093	-0.376167	0.018240
H187	H	1.417941	-0.839158	-0.433746
H188	H	1.917941	-0.339158	0.066254
H189	H	1.474833	-0.919372	-0.452583
H190	H	1.974833	-0.419372	0.047417
H191	H	0.938048	-0.333411	-0.384182
H192	H	1.438048	0.166589	0.115818
H193	H	1.131935	-1.000760	-0.553850
H194	H	1.631935	-0.500760	-0.053850
N195	N	1.440431	-1.016534	-0.474603
N196	N	1.940431	-0.516534	0.025397
H197	H	1.412661	-1.045453	-0.426904
H198	H	1.912661	-0.545453	0.073096
H199	H	1.486547	-1.049588	-0.509427
H200	H	1.986547	-0.549588	-0.009427
N201	N	1.108621	-0.865056	-0.546843
N202	N	1.608621	-0.365056	-0.046843
H203	H	1.068047	-0.906286	-0.535183
H204	H	1.568047	-0.406286	-0.035183
H205	H	1.113493	-0.831767	-0.490536
H206	H	1.613493	-0.331767	0.009464
H207	H	1.306121	-0.872037	-0.361340
H208	H	1.806121	-0.372037	0.138660
N209	N	0.937576	-0.528600	-0.608360
N210	N	1.437576	-0.028600	-0.108360
H211	H	0.891485	-0.558058	-0.642199
H212	H	1.391485	-0.058058	-0.142199
H213	H	0.974167	-0.502306	-0.652272
H214	H	1.474167	-0.002306	-0.152272
N215	N	1.424335	-0.325280	-0.989932
N216	N	1.924335	0.174720	-0.489932
H217	H	1.458258	-0.299059	-1.036032
H218	H	1.958258	0.200941	-0.536032
H219	H	1.390001	-0.287442	-0.948867
H220	H	1.890001	0.212558	-0.448867
N221	N	1.413096	-0.333921	-1.185118
N222	N	1.913096	0.166079	-0.685118
H223	H	1.452070	-0.303795	-1.143232
H224	H	1.952070	0.196205	-0.643232
H225	H	1.452450	-0.367876	-1.226475
H226	H	1.952450	0.132124	-0.726475
