data_functionalizedCrystal
_audit_creation_method	'MofGen! by Chris Wilmer'
_symmetry_space_group_name_H-M	'P1'
_symmetry_Int_Tables_number	1
_symmetry_cell_setting	triclinic
loop_
_symmetry_equiv_pos_as_xyz
  x,y,z
_cell_length_a	12.594517
_cell_length_b	17.640112
_cell_length_c	17.638773
_cell_angle_alpha	87.800676
_cell_angle_beta	78.805000
_cell_angle_gamma	78.769773
loop_
_atom_site_label
_atom_site_type_symbol
_atom_site_fract_x
_atom_site_fract_y
_atom_site_fract_z
Zn1	Zn	0.136825	1.247780	-0.195085
Zn2	Zn	0.287254	1.222062	-0.068114
Zn3	Zn	0.150860	1.095130	-0.093734
Zn4	Zn	0.356343	1.120796	-0.220697
O5	O	0.232821	1.171442	-0.144407
O6	O	0.121992	1.350633	-0.156801
O7	O	0.246121	1.183720	0.034760
O8	O	0.000047	1.115401	-0.107181
O9	O	0.232512	1.331738	-0.063516
O10	O	-0.010264	1.227552	-0.181643
O11	O	0.145912	1.090463	0.015937
O12	O	0.212905	0.992270	-0.132016
O13	O	0.350264	1.159145	-0.323572
O14	O	0.363873	1.011126	-0.225296
O15	O	0.188985	1.252439	-0.304755
O16	O	0.445370	1.208607	-0.088351
O17	O	0.496129	1.134207	-0.200454
C18	C	0.297410	0.974145	-0.184216
C19	C	0.325071	0.889744	-0.201264
C20	C	-0.044810	1.171482	-0.144413
C21	C	-0.163119	1.171500	-0.144415
C22	C	0.022665	0.563042	-0.014899
C23	C	0.048681	0.483736	-0.030929
C24	C	0.206035	0.503392	-0.127894
C25	C	0.180029	0.582701	-0.111875
C26	C	0.088344	0.612520	-0.055376
C27	C	0.245708	0.632179	-0.152351
C28	C	0.219708	0.711481	-0.136331
C29	C	0.128028	0.741305	-0.079833
C30	C	0.062343	0.691821	-0.039355
C31	C	0.337397	0.602359	-0.208846
C32	C	0.403076	0.651836	-0.249323
C33	C	0.377072	0.731140	-0.233306
C34	C	0.285393	0.760964	-0.176808
C35	C	0.442757	0.780624	-0.273784
C36	C	0.416756	0.859926	-0.257763
C37	C	0.259392	0.840266	-0.160788
C38	C	-0.237978	1.232494	-0.184920
C39	C	-0.329870	1.237047	-0.111890
C40	C	-0.282034	1.166972	-0.217444
C41	C	-0.253472	1.176081	-0.071342
C42	C	-0.205610	1.105984	-0.176949
C43	C	-0.297471	1.110501	-0.103877
C44	C	0.509368	1.171425	-0.144414
C45	C	0.627659	1.171493	-0.144429
C46	C	0.275766	1.211524	-0.342489
C47	C	0.294067	1.228604	-0.426900
C48	C	0.167980	1.369509	-0.104444
C49	C	0.140349	1.453914	-0.087414
C50	C	0.372028	1.301228	-0.536075
C51	C	0.354826	1.285172	-0.456760
C52	C	0.250480	1.188072	-0.476350
C53	C	0.267668	1.204122	-0.555669
C54	C	0.328444	1.260700	-0.585525
C55	C	0.224085	1.163594	-0.605118
C56	C	0.241277	1.179640	-0.684430
C57	C	0.302053	1.236214	-0.714293
C58	C	0.345637	1.276746	-0.664837
C59	C	0.163316	1.107012	-0.575261
C60	C	0.119732	1.066484	-0.624711
C61	C	0.136918	1.082534	-0.704024
C62	C	0.197694	1.139108	-0.733886
C63	C	0.093334	1.042001	-0.753480
C64	C	0.110527	1.058048	-0.832791
C65	C	0.214886	1.155154	-0.813198
C66	C	0.189951	1.131559	0.052913
C67	C	0.171303	1.114626	0.137353
H68	H	0.106863	0.805877	-0.066788
N69	N	-0.203158	1.300844	-0.230206
H70	H	-0.249117	1.350298	-0.205535
H71	H	-0.122731	1.300019	-0.230279
H72	H	-0.323585	1.058907	-0.069580
N73	N	-0.236138	1.181250	0.010500
H74	H	-0.308723	1.183563	0.047555
H75	H	-0.181820	1.134261	0.022341
H76	H	-0.295288	1.163144	-0.279198
H77	H	-0.383570	1.292448	-0.084374
N78	N	0.411173	1.337779	-0.697046
H79	H	0.436171	1.361025	-0.653685
H80	H	0.477684	1.313520	-0.736189
H81	H	0.316050	1.249278	-0.778874
N82	N	0.063537	1.014335	-0.886139
H83	H	-0.019369	1.023345	-0.869971
H84	H	0.083746	1.033111	-0.940891
H85	H	-0.012329	0.716103	0.006640
N86	N	0.304914	0.471221	-0.188830
H87	H	0.295734	0.496017	-0.240319
H88	H	0.373791	0.482625	-0.174097
N89	N	0.054181	1.005463	-0.592511
H90	H	0.101820	0.963604	-0.566705
H91	H	-0.012373	1.029738	-0.553411
N92	N	0.541642	0.748451	-0.334715
H93	H	0.532472	0.773242	-0.386207
H94	H	0.610514	0.759856	-0.319976
H95	H	-0.004816	0.443454	0.002031
N96	N	0.280429	1.216180	-0.845416
H97	H	0.243145	1.267650	-0.820673
H98	H	0.357341	1.201519	-0.833994
H99	H	-0.151889	1.050603	-0.204480
H100	H	0.421507	1.347306	-0.560384
N101	N	0.401845	1.328888	-0.403427
H102	H	0.442953	1.367161	-0.434383
H103	H	0.339886	1.357383	-0.363429
N104	N	0.184935	1.127048	-0.444147
H105	H	0.180657	1.123031	-0.386400
H106	H	0.108051	1.141689	-0.455624
H107	H	0.149332	1.093942	-0.510681
N108	N	0.027792	0.980975	-0.721279
H109	H	0.075440	0.939120	-0.695476
H110	H	-0.038762	1.005245	-0.682176
N111	N	0.160495	0.872433	-0.099855
H112	H	0.169663	0.847639	-0.048363
H113	H	0.154046	0.930177	-0.095917
H114	H	-0.052008	0.587323	0.031096
H115	H	0.358564	0.537786	-0.221888
H116	H	0.477729	0.627547	-0.295322
N117	N	0.487594	0.913297	-0.301415
H118	H	0.549619	0.882375	-0.339638
H119	H	0.441183	0.953328	-0.329958
