data_functionalizedCrystal
_audit_creation_method	'MofGen! by Chris Wilmer'
_symmetry_space_group_name_H-M	'P1'
_symmetry_Int_Tables_number	1
_symmetry_cell_setting	triclinic
loop_
_symmetry_equiv_pos_as_xyz
  x,y,z
_cell_length_a	15.072220
_cell_length_b	16.992694
_cell_length_c	16.992695
_cell_angle_alpha	90.668223
_cell_angle_beta	90.003194
_cell_angle_gamma	89.999374
loop_
_atom_site_label
_atom_site_type_symbol
_atom_site_fract_x
_atom_site_fract_y
_atom_site_fract_z
O1	O	0.073672	-1.050853	-0.166907
O2	O	0.573672	-0.550853	0.333093
O3	O	0.073698	-0.822452	-0.165076
O4	O	0.573698	-0.322452	0.334924
O5	O	0.073678	-0.935737	-0.051792
O6	O	0.573678	-0.435737	0.448208
O7	O	0.073692	-0.937568	-0.280192
O8	O	0.573692	-0.437568	0.219808
O9	O	-0.073887	-0.935722	-0.051806
O10	O	0.426113	-0.435722	0.448194
O11	O	-0.073867	-0.822438	-0.165090
O12	O	0.426133	-0.322438	0.334910
O13	O	-0.073893	-1.050838	-0.166922
O14	O	0.426107	-0.550838	0.333078
Zn15	Zn	-0.097309	-0.936636	-0.166008
Zn16	Zn	0.402691	-0.436636	0.333992
Zn17	Zn	0.097114	-0.936655	-0.165989
Zn18	Zn	0.597114	-0.436655	0.334011
O19	O	-0.073873	-0.937554	-0.280206
O20	O	0.426127	-0.437554	0.219794
C21	C	-0.000081	-0.793085	-0.162727
C22	C	0.499919	-0.293085	0.337273
C23	C	-0.000071	-0.705600	-0.155699
C24	C	0.499929	-0.205600	0.344301
C25	C	-0.000104	-0.933374	-0.022439
C26	C	0.499896	-0.433374	0.477561
C27	C	-0.000103	-0.926345	0.065046
C28	C	0.499897	-0.426345	0.565046
N29	N	-0.229998	-0.936628	-0.166021
N30	N	0.270002	-0.436628	0.333979
C31	C	-0.410995	-0.936642	-0.166004
C32	C	0.089005	-0.436642	0.333996
C33	C	-0.448653	-0.876014	-0.226596
C34	C	0.051347	-0.376014	0.273404
C35	C	-0.551479	-0.875781	-0.226405
C36	C	-0.051479	-0.375781	0.273595
C37	C	-0.589199	-0.936655	-0.165988
C38	C	-0.089199	-0.436655	0.334012
C39	C	-0.551860	-0.913897	-0.082649
C40	C	-0.051860	-0.413897	0.417351
C41	C	-0.449002	-0.913449	-0.083008
C42	C	0.050998	-0.413449	0.416992
C43	C	-0.448892	-1.020179	-0.188021
C44	C	0.051108	-0.520179	0.311979
C45	C	-0.551757	-1.019751	-0.189843
C46	C	-0.051757	-0.519751	0.310157
C47	C	-0.689913	-0.936663	-0.165974
C48	C	-0.189913	-0.436663	0.334026
C49	C	-0.310282	-0.936631	-0.166012
C50	C	0.189718	-0.436631	0.333988
N51	N	0.229803	-0.936668	-0.165971
N52	N	0.729803	-0.436668	0.334029
C53	C	-0.000112	-1.080205	-0.169270
C54	C	0.499888	-0.580205	0.330730
C55	C	-0.000116	-1.167690	-0.176299
C56	C	0.499884	-0.667690	0.323701
C57	C	-0.000068	-0.659610	-0.223517
C58	C	0.499932	-0.159610	0.276483
C59	C	-0.000080	-0.577409	-0.216908
C60	C	0.499920	-0.077409	0.283092
C61	C	-0.000090	-0.541201	-0.142480
C62	C	0.499910	-0.041201	0.357520
C63	C	-0.000096	-0.587198	-0.074657
C64	C	0.499904	-0.087198	0.425343
C65	C	-0.000090	-0.669397	-0.081267
C66	C	0.499910	-0.169397	0.418733
C67	C	-0.000116	-0.295886	-0.115086
C68	C	0.499884	0.204114	0.384914
C69	C	-0.000119	-0.213681	-0.108481
C70	C	0.499881	0.286319	0.391519
C71	C	-0.000105	-0.203898	-0.250732
C72	C	0.499895	0.296102	0.249268
C73	C	-0.000093	-0.286099	-0.257336
C74	C	0.499907	0.213901	0.242664
C75	C	-0.000104	-0.332089	-0.189512
C76	C	0.499896	0.167911	0.310488
N77	N	-0.000100	-0.457178	-0.135723
N78	N	0.499900	0.042822	0.364277
N79	N	-0.000100	-0.416110	-0.196270
N80	N	0.499900	0.083890	0.303730
C81	C	-0.000089	-0.939917	-0.309559
C82	C	0.499911	-0.439917	0.190441
C83	C	-0.000084	-0.946945	-0.397044
C84	C	0.499916	-0.446945	0.102956
C85	C	-0.000112	-0.994163	0.111037
C86	C	0.499888	-0.494163	0.611037
C87	C	-0.000102	-0.987554	0.193238
C88	C	0.499898	-0.487554	0.693238
C89	C	-0.000091	-0.913127	0.229446
C90	C	0.499909	-0.413127	0.729446
C91	C	-0.000080	-0.845303	0.183449
C92	C	0.499920	-0.345303	0.683449
C93	C	-0.000082	-0.851913	0.101250
C94	C	0.499918	-0.351913	0.601250
C95	C	-0.000076	-0.885732	0.474760
C96	C	0.499924	-0.385732	0.974760
C97	C	-0.000075	-0.879127	0.556966
C98	C	0.499925	-0.379127	1.056966
C99	C	-0.000097	-1.021379	0.566749
C100	C	0.499903	-0.521379	1.066749
C101	C	-0.000105	-1.027982	0.484547
C102	C	0.499895	-0.527982	0.984547
C103	C	-0.000089	-0.960159	0.438558
C104	C	0.499911	-0.460159	0.938558
N105	N	-0.000084	-0.906369	0.313468
N106	N	0.499916	-0.406369	0.813468
N107	N	-0.000089	-0.966917	0.354537
N108	N	0.499911	-0.466917	0.854537
H109	H	-0.576727	-0.890047	-0.288177
H110	H	-0.076727	-0.390047	0.211823
C111	C	-0.584734	-1.042938	-0.272695
C112	C	-0.084734	-0.542938	0.227305
H113	H	-0.621173	-1.002155	-0.292670
H114	H	-0.121173	-0.502155	0.207330
H115	H	-0.535310	-1.050699	-0.306592
H116	H	-0.035310	-0.550699	0.193408
H117	H	-0.618088	-1.090263	-0.269932
H118	H	-0.118088	-0.590263	0.230068
H119	H	-0.576096	-0.813895	-0.211766
H120	H	-0.076096	-0.313895	0.288234
C121	C	-0.000121	-0.346465	-0.040483
C122	C	0.499879	0.153535	0.459517
H123	H	-0.000119	-0.313125	0.004788
H124	H	0.499881	0.186875	0.504788
H125	H	-0.051579	-0.378735	-0.040107
H126	H	0.448421	0.121265	0.459893
H127	H	0.051346	-0.378732	-0.040097
H128	H	0.551346	0.121268	0.459903
C129	C	-0.000074	-0.811129	0.424182
C130	C	0.499926	-0.311129	0.924182
H131	H	-0.000079	-0.765859	0.457521
H132	H	0.499921	-0.265859	0.957521
H133	H	0.051383	-0.810748	0.391912
H134	H	0.551383	-0.310748	0.891912
H135	H	-0.051542	-0.810748	0.391914
H136	H	0.448458	-0.310748	0.891914
H137	H	-0.000080	-0.818516	0.586443
H138	H	0.499920	-0.318516	1.086443
H139	H	-0.000075	-0.796688	0.063804
H140	H	0.499925	-0.296688	0.563804
C141	C	-0.000079	-0.325926	-0.339204
C142	C	0.499921	0.174074	0.160796
H143	H	-0.000065	-0.381468	-0.333427
H144	H	0.499935	0.118532	0.166573
H145	H	-0.051533	-0.310450	-0.367357
H146	H	0.448467	0.189550	0.132643
H147	H	0.051392	-0.310440	-0.367332
H148	H	0.551392	0.189560	0.132668
H149	H	-0.000126	-0.184203	-0.047870
H150	H	0.499874	0.315797	0.452130
C151	C	-0.416596	-0.830947	-0.057946
C152	C	0.083404	-0.330947	0.442054
H153	H	-0.353574	-0.829945	-0.057945
H154	H	0.146426	-0.329945	0.442055
H155	H	-0.438386	-0.793124	-0.093854
H156	H	0.061614	-0.293124	0.406146
H157	H	-0.437830	-0.818876	-0.006570
H158	H	0.062170	-0.318876	0.493430
C159	C	-0.000105	-1.095979	0.617335
C160	C	0.499895	-0.595979	1.117335
H161	H	-0.000117	-1.141251	0.583997
H162	H	0.499883	-0.641251	1.083997
H163	H	0.051355	-1.096364	0.649606
H164	H	0.551355	-0.596364	1.149606
H165	H	-0.051570	-1.096354	0.649601
H166	H	0.448430	-0.596354	1.149601
H167	H	-0.000065	-0.784703	0.212936
H168	H	0.499935	-0.284703	0.712936
H169	H	-0.423927	-0.890113	-0.288565
H170	H	0.076073	-0.390113	0.211435
H171	H	-0.422817	-0.814476	-0.212136
H172	H	0.077183	-0.314476	0.287864
C173	C	-0.000105	-0.153308	-0.325330
C174	C	0.499895	0.346692	0.174670
H175	H	-0.000117	-0.099167	-0.310738
H176	H	0.499883	0.400833	0.189262
H177	H	0.051355	-0.164766	-0.355635
H178	H	0.551355	0.335234	0.144365
H179	H	-0.051570	-0.164774	-0.355638
H180	H	0.448430	0.335226	0.144362
C181	C	-0.000121	-1.062154	0.243824
C182	C	0.499879	-0.562154	0.743824
H183	H	-0.000141	-1.107427	0.210487
H184	H	0.499859	-0.607427	0.710487
H185	H	0.051338	-1.062546	0.276096
H186	H	0.551338	-0.562546	0.776096
H187	H	-0.051587	-1.062521	0.276090
H188	H	0.448413	-0.562521	0.776090
C189	C	-0.000106	-0.547374	0.007213
C190	C	0.499894	-0.047374	0.507213
H191	H	-0.000115	-0.586540	0.046657
H192	H	0.499885	-0.086540	0.546657
H193	H	0.051351	-0.515510	0.012755
H194	H	0.551351	-0.015510	0.512755
H195	H	-0.051574	-0.515514	0.012743
H196	H	0.448426	-0.015514	0.512743
C197	C	-0.000085	-0.719987	-0.006667
C198	C	0.499915	-0.219987	0.493333
H199	H	-0.000082	-0.686651	0.038606
H200	H	0.499918	-0.186651	0.538606
H201	H	-0.051540	-0.752261	-0.006292
H202	H	0.448460	-0.252261	0.493708
H203	H	0.051385	-0.752251	-0.006286
H204	H	0.551385	-0.252251	0.493714
H205	H	-0.000114	-1.088589	0.455073
H206	H	0.499886	-0.588589	0.955073
C207	C	-0.415341	-0.970486	-0.019882
C208	C	0.084659	-0.470486	0.480118
H209	H	-0.464531	-0.993824	0.005872
H210	H	0.035469	-0.493824	0.505872
H211	H	-0.380315	-1.010429	-0.044110
H212	H	0.119685	-0.510429	0.455890
H213	H	-0.380423	-0.942382	0.017549
H214	H	0.119577	-0.442382	0.517549
C215	C	-0.584866	-0.971692	-0.019954
C216	C	-0.084866	-0.471692	0.480046
H217	H	-0.621804	-1.010304	-0.044104
H218	H	-0.121804	-0.510304	0.455896
H219	H	-0.535472	-0.996681	0.003866
H220	H	-0.035472	-0.496681	0.503866
H221	H	-0.617703	-0.943742	0.019051
H222	H	-0.117703	-0.443742	0.519051
H223	H	-0.000126	-1.054770	0.081563
H224	H	0.499874	-0.554770	0.581563
H225	H	-0.422957	-1.040849	-0.247793
H226	H	0.077043	-0.540849	0.252207
H227	H	-0.577636	-0.853502	-0.063763
H228	H	-0.077636	-0.353502	0.436237
H229	H	-0.577433	-1.067361	-0.148989
H230	H	-0.077433	-0.567361	0.351011
C231	C	-0.415978	-1.081210	-0.128426
C232	C	0.084022	-0.581210	0.371574
H233	H	-0.379319	-1.055947	-0.090310
H234	H	0.120681	-0.555947	0.409690
H235	H	-0.465420	-1.104484	-0.103004
H236	H	0.034580	-0.604484	0.396996
H237	H	-0.382867	-1.120843	-0.155202
H238	H	0.117133	-0.620843	0.344798
H239	H	-0.000059	-0.689084	-0.284124
H240	H	0.499941	-0.189084	0.215876
H241	H	-0.000077	-0.539966	-0.272133
H242	H	0.499923	-0.039966	0.227867
