data_functionalizedCrystal
_audit_creation_method	'MofGen! by Chris Wilmer'
_symmetry_space_group_name_H-M	'P1'
_symmetry_Int_Tables_number	1
_symmetry_cell_setting	triclinic
loop_
_symmetry_equiv_pos_as_xyz
  x,y,z
_cell_length_a	14.519731
_cell_length_b	16.992695
_cell_length_c	15.455341
_cell_angle_alpha	87.182812
_cell_angle_beta	87.008428
_cell_angle_gamma	87.178538
loop_
_atom_site_label
_atom_site_type_symbol
_atom_site_fract_x
_atom_site_fract_y
_atom_site_fract_z
O1	O	-1.227401	-0.099806	-0.072133
O2	O	-0.959794	-0.111894	-0.072135
O3	O	-1.092525	0.008294	-0.072127
O4	O	-1.094670	-0.219994	-0.072141
O5	O	-1.100186	0.002160	0.072134
O6	O	-0.967455	-0.118028	0.072126
O7	O	-1.235061	-0.105940	0.072128
Cu8	Cu	-1.101957	-0.112544	0.085299
Cu9	Cu	-1.092898	-0.105290	-0.085306
O10	O	-1.102330	-0.226128	0.072120
C11	C	-1.093595	0.034444	0.000003
C12	C	-1.085360	0.121500	0.000003
C13	C	-0.929224	-0.114395	-0.000004
C14	C	-0.826722	-0.112697	-0.000005
C15	C	-1.265631	-0.103439	-0.000005
C16	C	-1.368133	-0.105136	-0.000010
C17	C	-0.743479	-0.111318	-0.000008
C18	C	-0.639047	-0.109595	-0.000008
C19	C	-0.555809	-0.108227	-0.000008
C20	C	-0.451370	-0.106504	-0.000010
C21	C	-1.101260	-0.252277	-0.000012
C22	C	-1.109495	-0.339333	-0.000018
N23	N	-1.108336	-0.117645	0.205294
C24	C	-1.164820	0.171624	0.000004
C25	C	-1.157076	0.253422	-0.000004
C26	C	-1.069872	0.285095	-0.000007
C27	C	-0.990406	0.234964	-0.000011
C28	C	-0.998151	0.153168	-0.000009
C29	C	-1.037774	0.528740	-0.000020
C30	C	-1.030036	0.610543	-0.000019
C31	C	-1.196706	0.628995	-0.000013
C32	C	-1.204443	0.547196	-0.000006
C33	C	-1.124977	0.497073	-0.000014
N34	N	-1.061954	0.368705	-0.000013
N35	N	-1.132895	0.413464	-0.000015
N36	N	-1.086527	-0.100182	-0.205301
C37	C	-1.143556	-0.145922	0.749296
C38	C	-1.138737	-0.142058	0.658489
C39	C	-1.076893	-0.092450	0.613087
C40	C	-1.019857	-0.046709	0.658496
C41	C	-1.024672	-0.050577	0.749302
C42	C	-1.056115	-0.075772	0.341509
C43	C	-1.051306	-0.071906	0.250697
C44	C	-1.170186	-0.167257	0.250696
C45	C	-1.174999	-0.171117	0.341503
C46	C	-1.117960	-0.125379	0.386905
N47	N	-1.071968	-0.088498	0.520267
N48	N	-1.122881	-0.129336	0.479722
H49	H	-1.235831	0.145843	0.000012
F50	F	-1.230884	-0.215933	0.202370
H51	H	-1.221780	0.294230	-0.000001
F52	F	-1.240820	-0.223919	0.389817
H53	H	-1.000940	-0.031509	0.213733
F54	F	-0.897596	0.268675	-0.000025
H55	H	-1.009672	-0.038526	0.378464
H56	H	-0.969498	-0.006320	0.621522
F57	F	-0.953198	0.475406	-0.000031
H58	H	-1.193920	-0.186315	0.786256
H59	H	-0.933446	0.112357	-0.000011
F60	F	-1.297256	0.513495	-0.000024
F61	F	-1.199413	-0.190762	0.610172
F62	F	-0.963971	-0.001896	0.797623
H63	H	-1.261402	0.669813	-0.000008
H64	H	-0.959021	0.636326	-0.000008
