data_functionalizedCrystal
_audit_creation_method	'MofGen! by Chris Wilmer'
_symmetry_space_group_name_H-M	'P1'
_symmetry_Int_Tables_number	1
_symmetry_cell_setting	triclinic
loop_
_symmetry_equiv_pos_as_xyz
  x,y,z
_cell_length_a	12.837942
_cell_length_b	12.837943
_cell_length_c	11.892095
_cell_angle_alpha	94.310562
_cell_angle_beta	85.697431
_cell_angle_gamma	94.828940
loop_
_atom_site_label
_atom_site_type_symbol
_atom_site_fract_x
_atom_site_fract_y
_atom_site_fract_z
O1	O	-0.266110	-1.408367	-0.093982
O2	O	-0.252667	-1.105234	-0.093989
O3	O	-0.107822	-1.250078	-0.093979
O4	O	-0.410955	-1.263522	-0.093992
O5	O	-0.119879	-1.237999	0.094028
O6	O	-0.264723	-1.093155	0.094018
O7	O	-0.278167	-1.396288	0.094025
Zn8	Zn	-0.273359	-1.242803	0.123871
Zn9	Zn	-0.257474	-1.258718	-0.123836
O10	O	-0.423011	-1.251443	0.094014
C11	C	-0.254153	-1.060125	0.000014
C12	C	-0.240609	-0.943710	0.000011
C13	C	-0.074781	-1.239497	0.000024
C14	C	0.041634	-1.225953	0.000022
C15	C	-0.276680	-1.441397	0.000020
C16	C	-0.290224	-1.557812	0.000015
C17	C	-0.456052	-1.262024	0.000009
C18	C	-0.572467	-1.275569	0.000004
C19	C	0.266509	-1.388784	0.000002
C20	C	0.375892	-1.376062	-0.000000
C21	C	0.369784	-1.187791	0.000007
C22	C	0.260402	-1.200512	0.000009
C23	C	0.208768	-1.301011	0.000008
C24	C	0.099383	-1.313731	0.000019
C25	C	0.093278	-1.125461	0.000018
C26	C	0.202660	-1.112740	0.000016
N27	N	-0.284200	-1.231950	0.292925
C28	C	-0.403439	-0.718835	0.000020
C29	C	-0.390717	-0.609453	0.000019
C30	C	-0.202446	-0.615561	0.000015
C31	C	-0.215167	-0.724943	0.000017
C32	C	-0.315667	-0.776577	0.000017
C33	C	-0.328387	-0.885961	0.000011
C34	C	-0.140117	-0.892066	0.000015
C35	C	-0.127395	-0.782684	0.000014
N36	N	-0.246626	-1.269579	-0.292889
C37	C	-0.171130	-1.345098	0.529580
C38	C	-0.178716	-1.337519	0.647922
C39	C	-0.306952	-1.209210	0.647951
C40	C	-0.299366	-1.216788	0.529610
C41	C	-0.231454	-1.284736	0.470428
C42	C	-0.223874	-1.292319	0.352085
C43	C	-0.352104	-1.164005	0.352116
C44	C	-0.359690	-1.156426	0.470458
H45	H	0.224468	-1.470613	0.000012
O46	O	-0.157945	-1.358252	0.294418
C47	C	-0.164137	-1.351957	0.177282
H48	H	-0.242471	-1.322155	0.161107
H49	H	-0.157394	-1.432944	0.132264
H50	H	-0.097556	-1.295684	0.143754
O51	O	0.419921	-1.090168	-0.000203
C52	C	0.397551	-1.042255	-0.097559
H53	H	0.373612	-1.105203	-0.165607
H54	H	0.470199	-0.993303	-0.130257
H55	H	0.330756	-0.989517	-0.075539
O56	O	-0.475958	-0.553304	0.000215
C57	C	-0.480460	-0.483574	0.097568
H58	H	-0.435238	-0.513896	0.165627
H59	H	-0.565667	-0.477533	0.130250
H60	H	-0.444118	-0.402911	0.075551
O61	O	0.431820	-1.461432	0.000046
C62	C	0.362788	-1.552860	0.000014
H63	H	0.281641	-1.532046	0.035611
H64	H	0.393030	-1.611518	0.054593
H65	H	0.357873	-1.588946	-0.090183
O66	O	-0.029705	-0.732685	0.000056
C67	C	0.045040	-0.807111	0.000018
H68	H	0.006097	-0.881901	0.035617
H69	H	0.111061	-0.774137	0.054591
H70	H	0.078401	-0.825478	-0.090182
O71	O	0.252788	-1.015112	-0.000183
C72	C	0.230417	-0.967191	-0.097533
H73	H	0.206492	-1.030133	-0.165592
H74	H	0.303061	-0.918224	-0.130217
H75	H	0.163613	-0.914465	-0.075510
H76	H	-0.120630	-0.573495	0.000108
O77	O	-0.105083	-1.411120	0.472260
C78	C	-0.053490	-1.462799	0.549848
H79	H	-0.053448	-1.414362	0.634216
H80	H	0.030716	-1.472709	0.515651
H81	H	-0.096017	-1.543115	0.562415
O82	O	-0.120006	-1.395998	0.705435
C83	C	-0.054264	-1.329171	0.773924
H84	H	-0.042014	-1.248722	0.738279
H85	H	0.024617	-1.363576	0.775261
H86	H	-0.092233	-1.321177	0.863613
H87	H	-0.362237	-1.153882	0.696151
H88	H	-0.485269	-0.760876	0.000019
H89	H	-0.068646	-0.939091	0.000005
H90	H	0.046252	-1.053990	0.000033
O91	O	-0.425533	-1.090275	0.527903
C92	C	-0.396391	-0.986819	0.498985
H93	H	-0.310443	-0.980111	0.466449
H94	H	-0.408200	-0.930486	0.576822
H95	H	-0.446963	-0.966203	0.430302
O96	O	0.049283	-1.411386	-0.000188
C97	C	0.084129	-1.471795	-0.097552
H98	H	0.116772	-1.417583	-0.165601
H99	H	0.015675	-1.524957	-0.130241
H100	H	0.148115	-1.521695	-0.075546
O101	O	-0.425930	-0.936289	-0.000039
C102	C	-0.418344	-1.045214	-0.000014
H103	H	-0.336901	-1.065066	-0.035610
H104	H	-0.479801	-1.088339	-0.054596
H105	H	-0.432195	-1.070318	0.090182
O106	O	-0.410763	-1.105522	0.294534
C107	C	-0.476546	-1.172358	0.226099
H108	H	-0.441842	-1.251288	0.208350
H109	H	-0.483448	-1.135632	0.142892
H110	H	-0.557539	-1.184199	0.271715
