data_functionalizedCrystal
_audit_creation_method	'MofGen! by Chris Wilmer'
_symmetry_space_group_name_H-M	'P1'
_symmetry_Int_Tables_number	1
_symmetry_cell_setting	triclinic
loop_
_symmetry_equiv_pos_as_xyz
  x,y,z
_cell_length_a	19.077115
_cell_length_b	14.908178
_cell_length_c	19.077314
_cell_angle_alpha	95.749125
_cell_angle_beta	90.107081
_cell_angle_gamma	90.879335
loop_
_atom_site_label
_atom_site_type_symbol
_atom_site_fract_x
_atom_site_fract_y
_atom_site_fract_z
Zn1	Zn	1.041439	-0.391200	0.422114
Zn2	Zn	1.039309	-0.548395	0.297252
Zn3	Zn	0.928633	-0.391698	0.299883
Zn4	Zn	0.917657	-0.536238	0.410576
O5	O	0.981759	-0.466883	0.357456
O6	O	1.139278	-0.416932	0.409278
O7	O	1.028330	-0.532905	0.199020
O8	O	0.949081	-0.265356	0.322027
O9	O	1.137713	-0.532422	0.317542
O10	O	1.031959	-0.264990	0.411829
O11	O	0.947016	-0.417781	0.200953
O12	O	0.829055	-0.405992	0.310839
O13	O	0.930374	-0.511702	0.510687
O14	O	0.820991	-0.512185	0.392165
O15	O	1.021317	-0.405144	0.519164
O16	O	1.017687	-0.673059	0.306355
O17	O	0.928310	-0.664127	0.389614
C18	C	0.799581	-0.457824	0.350536
C19	C	0.721643	-0.453969	0.347592
C20	C	0.283383	-0.426284	0.326481
C21	C	0.356614	-0.429911	0.329251
C22	C	0.389046	-0.487112	0.372901
C23	C	0.348243	-0.540683	0.413788
C24	C	0.275013	-0.537051	0.411021
C25	C	0.607610	-0.503908	0.385712
C26	C	0.680845	-0.507538	0.388474
C27	C	0.689211	-0.396765	0.303938
C28	C	0.615980	-0.393142	0.301172
C29	C	0.575183	-0.446709	0.342062
N30	N	0.463900	-0.490822	0.375732
N31	N	0.500331	-0.442994	0.339234
C32	C	0.971595	-0.701335	0.346463
C33	C	0.967309	-0.801637	0.341786
C34	C	1.045486	-0.989575	0.426603
C35	C	1.041462	-1.083817	0.422211
C36	C	0.955234	-1.084365	0.328615
C37	C	0.959258	-0.990123	0.333006
C38	C	1.004387	-0.942731	0.382002
C39	C	1.008414	-0.848487	0.386390
C40	C	0.922182	-0.849036	0.292797
C41	C	0.918158	-0.943279	0.288405
C42	C	1.164649	-0.475977	0.364403
C43	C	1.242586	-0.479853	0.367364
C44	C	0.974859	-0.457011	0.541201
C45	C	0.971918	-0.452804	0.619502
C46	C	0.991982	-0.231515	0.368508
C47	C	0.996339	-0.131215	0.373218
C48	C	0.988676	-0.476653	0.174431
C49	C	0.991764	-0.480612	0.096147
C50	C	1.012869	-0.510764	0.655285
C51	C	1.010106	-0.506800	0.728858
C52	C	0.966389	-0.444881	0.766646
C53	C	0.925437	-0.386915	0.730859
C54	C	0.928203	-0.390875	0.657288
C55	C	0.953578	-0.426606	0.986788
C56	C	0.950813	-0.422653	1.060364
C57	C	1.035484	-0.542537	1.058358
C58	C	1.038244	-0.546495	0.984785
C59	C	0.997294	-0.488526	0.949005
N60	N	0.963562	-0.440830	0.841849
N61	N	1.000125	-0.492574	0.873803
H62	H	0.256983	-0.379706	0.290936
H63	H	0.881414	-0.981878	0.248516
H64	H	0.889844	-0.336495	0.761633
H65	H	0.389829	-0.386294	0.295957
O66	O	0.584591	-0.337495	0.258759
C67	C	0.600619	-0.228043	0.175173
C68	C	0.636258	-0.291005	0.223190
H69	H	0.642375	-0.190454	0.146392
H70	H	0.567190	-0.177428	0.208463
H71	H	0.565899	-0.269691	0.135078
H72	H	0.671012	-0.249432	0.263293
H73	H	0.669644	-0.341623	0.189855
H74	H	0.574402	-0.547530	0.419005
O75	O	0.728946	-0.344758	0.264294
C76	C	0.845468	-0.301292	0.231059
C77	C	0.800553	-0.360228	0.276004
H78	H	0.903370	-0.313792	0.240500
H79	H	0.833808	-0.227154	0.246399
H80	H	0.832467	-0.319345	0.172959
H81	H	0.813528	-0.342254	0.334117
H82	H	0.812219	-0.434350	0.260605
H83	H	0.707248	-0.554118	0.424023
O84	O	0.379857	-0.596228	0.456129
C85	C	0.488961	-0.650883	0.497885
C86	C	0.453251	-0.587950	0.449894
H87	H	0.548305	-0.644198	0.492872
H88	H	0.471925	-0.723598	0.481463
H89	H	0.473081	-0.631396	0.554895
H90	H	0.469113	-0.607356	0.392871
H91	H	0.470288	-0.515251	0.466375
H92	H	1.068824	-0.589730	1.087499
O93	O	0.235484	-0.589173	0.450760
C94	C	0.234910	-0.699374	0.534943
C95	C	0.279759	-0.640416	0.489956
H96	H	0.270688	-0.740805	0.566656
H97	H	0.199804	-0.746594	0.499072
H98	H	0.201029	-0.654315	0.572445
H99	H	0.313682	-0.685405	0.452450
H100	H	0.314820	-0.593189	0.525870
O101	O	1.052166	-0.802478	0.434079
C102	C	1.082847	-0.768828	0.556578
C103	C	1.033242	-0.820964	0.502642
H104	H	1.067574	-0.783770	0.612021
H105	H	1.078660	-0.693409	0.552118
H106	H	1.139070	-0.790758	0.545513
H107	H	0.976998	-0.799110	0.513671
H108	H	1.037490	-0.896372	0.507114
O109	O	0.888385	-0.334704	0.622441
C110	C	0.797341	-0.322326	0.536373
C111	C	0.842398	-0.386046	0.575774
H112	H	0.760140	-0.363810	0.498645
H113	H	0.832843	-0.278612	0.505318
H114	H	0.765651	-0.277371	0.576032
H115	H	0.874095	-0.431058	0.536163
H116	H	0.806859	-0.429698	0.606841
H117	H	1.082237	-0.950988	0.466492
H118	H	1.074927	-1.121953	0.458534
H119	H	0.888718	-0.810886	0.256477
O120	O	0.911337	-1.130267	0.281010
C121	C	0.826259	-1.120880	0.188614
C122	C	0.875932	-1.068783	0.242504
H123	H	0.797632	-1.071194	0.157457
H124	H	0.786425	-1.161438	0.217446
H125	H	0.857989	-1.168592	0.151008
H126	H	0.844261	-1.021024	0.280125
H127	H	0.915767	-1.028285	0.213625
H128	H	0.920231	-0.379407	0.957664
H129	H	1.043453	-0.553997	0.757988
O130	O	1.080780	-0.606661	0.948190
C131	C	1.164454	-0.725171	0.953966
C132	C	1.116323	-0.657064	0.995497
H133	H	1.193192	-0.765953	0.992194
H134	H	1.204254	-0.687453	0.922882
H135	H	1.131505	-0.772572	0.916062
H136	H	1.149215	-0.609645	1.033437
H137	H	1.076520	-0.694840	1.026533
H138	H	1.048471	-0.561183	0.624523
H139	H	0.915214	-0.372223	1.091131
