data_functionalizedCrystal
_audit_creation_method	'MofGen! by Chris Wilmer'
_symmetry_space_group_name_H-M	'P1'
_symmetry_Int_Tables_number	1
_symmetry_cell_setting	triclinic
loop_
_symmetry_equiv_pos_as_xyz
  x,y,z
_cell_length_a	18.215407
_cell_length_b	13.897447
_cell_length_c	18.215399
_cell_angle_alpha	90.025056
_cell_angle_beta	90.017368
_cell_angle_gamma	90.016973
loop_
_atom_site_label
_atom_site_type_symbol
_atom_site_fract_x
_atom_site_fract_y
_atom_site_fract_z
Zn1	Zn	1.125099	-0.384091	0.416082
Zn2	Zn	1.625099	0.115909	0.916082
Zn3	Zn	1.125019	-0.545400	0.293022
Zn4	Zn	1.625019	-0.045400	0.793022
Zn5	Zn	1.002032	-0.384114	0.293035
Zn6	Zn	1.502032	0.115886	0.793035
Zn7	Zn	1.002009	-0.545338	0.416052
Zn8	Zn	1.502009	-0.045338	0.916052
O9	O	1.063540	-0.464736	0.354548
O10	O	1.563540	0.035264	0.854548
O11	O	1.228073	-0.405505	0.399765
O12	O	1.728073	0.094495	0.899765
O13	O	1.108681	-0.524041	0.190040
O14	O	1.608681	-0.024041	0.690040
O15	O	1.018400	-0.249129	0.309375
O16	O	1.518400	0.250871	0.809375
O17	O	1.228014	-0.524019	0.309354
O18	O	1.728014	-0.024019	0.809354
O19	O	1.108817	-0.249112	0.399778
O20	O	1.608817	0.250888	0.899778
O21	O	1.018322	-0.405544	0.190049
O22	O	1.518322	0.094456	0.690049
O23	O	0.899045	-0.405484	0.309346
O24	O	1.399045	0.094516	0.809346
O25	O	1.018361	-0.523913	0.519041
O26	O	1.518361	-0.023913	1.019041
O27	O	0.899028	-0.523935	0.399727
O28	O	1.399028	-0.023935	0.899727
O29	O	1.108795	-0.405445	0.519063
O30	O	1.608795	0.094555	1.019063
O31	O	1.108659	-0.680374	0.309325
O32	O	1.608659	-0.180374	0.809325
O33	O	1.018284	-0.680328	0.399714
O34	O	1.518284	-0.180328	0.899714
C35	C	0.872334	-0.464706	0.354535
C36	C	1.372334	0.035294	0.854535
C37	C	0.790535	-0.464717	0.354547
C38	C	1.290535	0.035283	0.854547
C39	C	0.602370	-0.403134	0.401699
C40	C	1.102370	0.096866	0.901699
C41	C	0.525512	-0.403142	0.401701
C42	C	1.025512	0.096858	0.901701
C43	C	0.525461	-0.526365	0.307410
C44	C	1.025461	-0.026365	0.807410
C45	C	0.602319	-0.526351	0.307404
C46	C	1.102319	-0.026351	0.807404
C47	C	0.640771	-0.464737	0.354553
C48	C	1.140771	0.035263	0.854553
C49	C	0.487055	-0.464759	0.354561
C50	C	0.987055	0.035241	0.854561
C51	C	0.403722	-0.464768	0.354563
C52	C	0.903722	0.035232	0.854563
C53	C	0.724110	-0.464726	0.354550
C54	C	1.224110	0.035274	0.854550
C55	C	1.063480	-0.715350	0.354531
C56	C	1.563480	-0.215350	0.854531
C57	C	1.063522	-0.822564	0.354548
C58	C	1.563522	-0.322564	0.854548
C59	C	1.063557	-0.909634	0.354565
C60	C	1.563557	-0.409634	0.854565
C61	C	1.063609	-1.018866	0.354584
C62	C	1.563609	-0.518866	0.854584
C63	C	1.255493	-0.464766	0.354561
C64	C	1.755493	0.035234	0.854561
C65	C	1.337292	-0.464779	0.354567
C66	C	1.837292	0.035221	0.854567
C67	C	1.063585	-0.464669	0.546501
C68	C	1.563585	0.035331	1.046501
C69	C	1.063604	-0.464641	0.628300
C70	C	1.563604	0.035359	1.128300
C71	C	1.063620	-0.213143	0.354581
C72	C	1.563620	0.286857	0.854581
C73	C	1.063654	-0.105929	0.354595
C74	C	1.563654	0.394071	0.854595
C75	C	1.063538	-0.464732	0.163342
C76	C	1.563538	0.035268	0.663342
C77	C	1.063661	-0.464489	0.081543
C78	C	1.563661	0.035511	0.581543
C79	C	1.110710	-0.402897	0.816507
C80	C	1.610710	0.097103	1.316507
C81	C	1.110718	-0.402869	0.893365
C82	C	1.610718	0.097131	1.393365
C83	C	1.016550	-0.526236	0.893331
C84	C	1.516550	-0.026236	1.393331
C85	C	1.016538	-0.526258	0.816474
C86	C	1.516538	-0.026258	1.316474
C87	C	1.063622	-0.464590	0.778063
C88	C	1.563622	0.035410	1.278063
C89	C	1.063643	-0.464540	0.931780
C90	C	1.563643	0.035460	1.431780
C91	C	1.063652	-0.464510	1.015113
C92	C	1.563652	0.035490	1.515113
C93	C	1.063612	-0.464619	0.694724
C94	C	1.563612	0.035381	1.194724
H95	H	0.633676	-0.352960	0.440088
H96	H	1.133676	0.147040	0.940088
Cl97	Cl	0.477240	-0.325693	0.460972
Cl98	Cl	0.977240	0.174307	0.960972
Cl99	Cl	1.169898	-0.325368	0.768222
Cl100	Cl	1.669898	0.174632	1.268222
H101	H	1.149061	-0.352630	0.924662
H102	H	1.649061	0.147370	1.424662
Cl103	Cl	0.957366	-0.603762	0.941624
Cl104	Cl	1.457366	-0.103762	1.441624
H105	H	0.494144	-0.576530	0.269024
H106	H	0.994144	-0.076530	0.769024
Cl107	Cl	0.650598	-0.603792	0.248123
Cl108	Cl	1.150598	-0.103792	0.748123
Cl109	Cl	0.957333	-0.603816	0.768142
Cl110	Cl	1.457333	-0.103816	1.268142
