data_functionalizedCrystal
_audit_creation_method	'MofGen! by Chris Wilmer'
_symmetry_space_group_name_H-M	'P1'
_symmetry_Int_Tables_number	1
_symmetry_cell_setting	triclinic
loop_
_symmetry_equiv_pos_as_xyz
  x,y,z
_cell_length_a	16.120484
_cell_length_b	11.169417
_cell_length_c	11.169409
_cell_angle_alpha	90.021683
_cell_angle_beta	92.860730
_cell_angle_gamma	87.075575
loop_
_atom_site_label
_atom_site_type_symbol
_atom_site_fract_x
_atom_site_fract_y
_atom_site_fract_z
Zn1	Zn	-0.331861	-1.810613	-0.702767
Zn2	Zn	0.001473	-1.477279	-0.369434
Zn3	Zn	0.334806	-1.143946	-0.036100
Zn4	Zn	-0.471304	-1.800271	-0.512238
Zn5	Zn	-0.137970	-1.466937	-0.178904
Zn6	Zn	0.195363	-1.133604	0.154429
Zn7	Zn	-0.331907	-1.609895	-0.502098
Zn8	Zn	0.001426	-1.276562	-0.168765
Zn9	Zn	0.334760	-0.943229	0.164568
Zn10	Zn	-0.471231	-1.599680	-0.712871
Zn11	Zn	-0.137898	-1.266347	-0.379537
Zn12	Zn	0.195436	-0.933013	-0.046204
O13	O	-0.401576	-1.705115	-0.607493
O14	O	-0.068242	-1.371781	-0.274160
O15	O	0.265091	-1.038448	0.059173
O16	O	-0.350369	-1.977190	-0.677508
O17	O	-0.017036	-1.643856	-0.344175
O18	O	0.316297	-1.310523	-0.010841
O19	O	-0.452862	-1.774964	-0.342946
O20	O	-0.119529	-1.441631	-0.009613
O21	O	0.213805	-1.108297	0.323720
O22	O	-0.215236	-1.645124	-0.520246
O23	O	0.118097	-1.311791	-0.186912
O24	O	0.451431	-0.978457	0.146421
O25	O	-0.452817	-1.969591	-0.537527
O26	O	-0.119484	-1.636258	-0.204193
O27	O	0.213849	-1.302925	0.129140
O28	O	-0.215202	-1.792590	-0.667676
O29	O	0.118131	-1.459257	-0.334343
O30	O	0.451465	-1.125924	-0.001009
O31	O	-0.350448	-1.635096	-0.335497
O32	O	-0.017115	-1.301762	-0.002164
O33	O	0.316219	-0.968429	0.331170
O34	O	-0.350377	-1.440591	-0.530043
O35	O	-0.017044	-1.107258	-0.196709
O36	O	0.316289	-0.773925	0.136624
O37	O	-0.452694	-1.627714	-0.879477
O38	O	-0.119360	-1.294380	-0.546143
O39	O	0.213973	-0.961047	-0.212810
O40	O	-0.452738	-1.433086	-0.684896
O41	O	-0.119405	-1.099753	-0.351563
O42	O	0.213928	-0.766420	-0.018230
O43	O	-0.350299	-1.782685	-0.872054
O44	O	-0.016966	-1.449352	-0.538720
O45	O	0.316368	-1.116018	-0.205387
O46	O	-0.587959	-1.765059	-0.547324
O47	O	-0.254625	-1.431725	-0.213991
O48	O	0.078708	-1.098392	0.119343
O49	O	-0.587905	-1.617686	-0.694728
O50	O	-0.254572	-1.284352	-0.361395
O51	O	0.078761	-0.951019	-0.028061
C52	C	-0.401556	-1.393291	-0.607466
C53	C	-0.068222	-1.059958	-0.274133
C54	C	0.265111	-0.726625	0.059200
C55	C	-0.401567	-1.259891	-0.607485
C56	C	-0.068234	-0.926557	-0.274151
C57	C	0.265100	-0.593224	0.059182
C58	C	-0.618182	-1.689174	-0.623249
C59	C	-0.284849	-1.355841	-0.289915
C60	C	0.048485	-1.022507	0.043418
C61	C	-0.710847	-1.682464	-0.630029
C62	C	-0.377514	-1.349131	-0.296696
C63	C	-0.044180	-1.015798	0.036638
C64	C	-0.880507	-1.670221	-0.642433
C65	C	-0.547174	-1.336888	-0.309100
C66	C	-0.213841	-1.003555	0.024234
C67	C	-0.921803	-1.740223	-0.572574
C68	C	-0.588470	-1.406890	-0.239240
C69	C	-0.255137	-1.073556	0.094093
C70	C	-1.016208	-1.733411	-0.579475
C71	C	-0.682875	-1.400078	-0.246142
C72	C	-0.349541	-1.066744	0.087191
C73	C	-0.786094	-1.677032	-0.635533
C74	C	-0.452761	-1.343698	-0.302200
C75	C	-0.119427	-1.010365	0.031134
C76	C	-0.184123	-1.721150	-0.591703
C77	C	0.149210	-1.387817	-0.258370
C78	C	0.482543	-1.054484	0.074964
C79	C	-0.091458	-1.727984	-0.584974
C80	C	0.241875	-1.394650	-0.251640
C81	C	0.575209	-1.061317	0.081693
C82	C	-0.401483	-1.705214	-0.920529
C83	C	-0.068150	-1.371880	-0.587196
C84	C	0.265184	-1.038547	-0.253863
C85	C	-0.401444	-1.705256	-1.053927
C86	C	-0.068110	-1.371922	-0.720593
C87	C	0.265223	-1.038589	-0.387260
C88	C	-0.401589	-1.018156	-0.607511
C89	C	-0.068256	-0.684823	-0.274178
C90	C	0.265077	-0.351489	0.059155
C91	C	-0.401577	-1.151557	-0.607493
C92	C	-0.068244	-0.818223	-0.274160
C93	C	0.265090	-0.484890	0.059173
C94	C	-0.401608	-1.705090	-0.295671
C95	C	-0.068274	-1.371756	0.037662
C96	C	0.265059	-1.038423	0.370996
C97	C	-0.401412	-1.705297	-0.162257
C98	C	-0.068079	-1.371964	0.171076
C99	C	0.265254	-1.038630	0.504409
H100	H	-0.886257	-1.805269	-0.507581
H101	H	-0.552924	-1.471935	-0.174248
H102	H	-0.219590	-1.138602	0.159085
H103	H	-0.916051	-1.605179	-0.707418
H104	H	-0.582718	-1.271846	-0.374085
H105	H	-0.249384	-0.938512	-0.040752
