data_functionalizedCrystal
_audit_creation_method	'MofGen! by Chris Wilmer'
_symmetry_space_group_name_H-M	'P1'
_symmetry_Int_Tables_number	1
_symmetry_cell_setting	triclinic
loop_
_symmetry_equiv_pos_as_xyz
  x,y,z
_cell_length_a	12.837943
_cell_length_b	15.021413
_cell_length_c	12.837942
_cell_angle_alpha	90.004978
_cell_angle_beta	85.171060
_cell_angle_gamma	90.007011
loop_
_atom_site_label
_atom_site_type_symbol
_atom_site_fract_x
_atom_site_fract_y
_atom_site_fract_z
O1	O	1.402340	0.074015	-0.272127
O2	O	1.735674	0.407349	0.061206
O3	O	2.069007	0.740682	0.394540
O4	O	1.099207	0.074021	-0.258684
O5	O	1.432540	0.407354	0.074650
O6	O	1.765873	0.740687	0.407983
O7	O	1.244052	0.074013	-0.113839
O8	O	1.577385	0.407346	0.219495
O9	O	1.910719	0.740679	0.552828
O10	O	1.257495	0.074023	-0.416972
O11	O	1.590828	0.407357	-0.083639
O12	O	1.924162	0.740690	0.249695
O13	O	1.244029	-0.074052	-0.113859
O14	O	1.577362	0.259282	0.219474
O15	O	1.910695	0.592615	0.552808
O16	O	1.099183	-0.074044	-0.258704
O17	O	1.432517	0.259290	0.074629
O18	O	1.765850	0.592623	0.407963
O19	O	1.402317	-0.074049	-0.272147
O20	O	1.735650	0.259284	0.061186
O21	O	2.068984	0.592618	0.394519
Zn22	Zn	1.250746	-0.097555	-0.265429
Zn23	Zn	1.584080	0.235779	0.067904
Zn24	Zn	1.917413	0.569112	0.401238
Zn25	Zn	1.250777	0.097526	-0.265402
Zn26	Zn	1.584111	0.430860	0.067931
Zn27	Zn	1.917444	0.764193	0.401265
O28	O	1.257472	-0.074041	-0.416993
O29	O	1.590805	0.259292	-0.083659
O30	O	1.924138	0.592626	0.249674
C31	C	1.060126	-0.000011	-0.254153
C32	C	1.393459	0.333323	0.079181
C33	C	1.726793	0.666656	0.412514
C34	C	0.943711	-0.000009	-0.240608
C35	C	1.277044	0.333324	0.092725
C36	C	1.610378	0.666658	0.426059
C37	C	0.718837	-0.000016	-0.403437
C38	C	1.052170	0.333317	-0.070104
C39	C	1.385503	0.666651	0.263229
C40	C	0.609454	-0.000015	-0.390716
C41	C	0.942788	0.333319	-0.057383
C42	C	1.276121	0.666652	0.275951
C43	C	0.615562	-0.000012	-0.202445
C44	C	0.948895	0.333321	0.130888
C45	C	1.282228	0.666655	0.464222
C46	C	0.724944	-0.000013	-0.215166
C47	C	1.058277	0.333320	0.118167
C48	C	1.391611	0.666654	0.451500
C49	C	0.776578	-0.000014	-0.315666
C50	C	1.109911	0.333320	0.017668
C51	C	1.443244	0.666653	0.351001
C52	C	0.885962	-0.000008	-0.328386
C53	C	1.219295	0.333325	0.004947
C54	C	1.552629	0.666658	0.338280
C55	C	0.892067	-0.000012	-0.140116
C56	C	1.225401	0.333321	0.193217
C57	C	1.558734	0.666655	0.526551
C58	C	0.782685	-0.000011	-0.127395
C59	C	1.116018	0.333322	0.205939
C60	C	1.449352	0.666656	0.539272
N61	N	1.250733	-0.230692	-0.265447
N62	N	1.584066	0.102641	0.067886
N63	N	1.917400	0.435974	0.401219
C64	C	1.183742	-0.470372	-0.332388
C65	C	1.517075	-0.137038	0.000946
C66	C	1.850409	0.196295	0.334279
C67	C	1.280341	-0.529707	-0.362050
C68	C	1.613675	-0.196374	-0.028716
C69	C	1.947008	0.136960	0.304617
C70	C	1.250757	-0.412299	-0.265424
C71	C	1.584091	-0.078966	0.067909
C72	C	1.917424	0.254368	0.401243
C73	C	1.154186	-0.529706	-0.235788
C74	C	1.487519	-0.196372	0.097545
C75	C	1.820853	0.136961	0.430878
C76	C	1.250772	-0.587723	-0.265403
C77	C	1.584106	-0.254390	0.067931
C78	C	1.917439	0.078943	0.401264
C79	C	1.347409	-0.470328	-0.295137
C80	C	1.680742	-0.136995	0.038196
C81	C	2.014076	0.196339	0.371529
C82	C	1.221187	-0.470321	-0.168829
C83	C	1.554521	-0.136988	0.164504
C84	C	1.887854	0.196345	0.497838
C85	C	1.317851	-0.529630	-0.198457
C86	C	1.651184	-0.196296	0.134876
C87	C	1.984518	0.137037	0.468210
C88	C	1.250747	-0.311242	-0.265439
C89	C	1.584081	0.022092	0.067895
C90	C	1.917414	0.355425	0.401228
C91	C	1.250793	-0.688778	-0.265388
C92	C	1.584126	-0.355445	0.067945
C93	C	1.917460	-0.022112	0.401278
C94	C	1.441398	-0.000015	-0.276679
C95	C	1.774731	0.333318	0.056655
C96	C	2.108064	0.666651	0.389988
C97	C	1.557813	-0.000011	-0.290223
C98	C	1.891146	0.333322	0.043110
C99	C	2.224479	0.666655	0.376444
N100	N	1.250798	0.230664	-0.265376
N101	N	1.584131	0.563997	0.067957
N102	N	1.917465	0.897331	0.401291
C103	C	1.239499	-0.000019	-0.074780
C104	C	1.572832	0.333314	0.258554
C105	C	1.906165	0.666648	0.591887
C106	C	1.225954	-0.000017	0.041635
C107	C	1.559288	0.333316	0.374969
C108	C	1.892621	0.666649	0.708302
C109	C	1.262025	-0.000007	-0.456052
C110	C	1.595358	0.333326	-0.122718
C111	C	1.928692	0.666659	0.210615
C112	C	1.275569	-0.000003	-0.572467
C113	C	1.608903	0.333330	-0.239133
C114	C	1.942236	0.666663	0.094200
C115	C	1.388784	-0.000001	0.266510
C116	C	1.722117	0.333332	0.599843
C117	C	2.055450	0.666665	0.933176
C118	C	1.376062	0.000000	0.375892
C119	C	1.709396	0.333334	0.709225
C120	C	2.042729	0.666667	1.042559
C121	C	1.187791	-0.000006	0.369785
C122	C	1.521125	0.333328	0.703118
C123	C	1.854458	0.666661	1.036451
C124	C	1.200513	-0.000007	0.260402
C125	C	1.533846	0.333326	0.593736
C126	C	1.867179	0.666659	0.927069
C127	C	1.301012	-0.000007	0.208769
C128	C	1.634345	0.333327	0.542102
C129	C	1.967679	0.666660	0.875435
C130	C	1.313732	-0.000015	0.099384
C131	C	1.647066	0.333319	0.432717
C132	C	1.980399	0.666652	0.766051
C133	C	1.125462	-0.000014	0.093279
C134	C	1.458796	0.333319	0.426612
C135	C	1.792129	0.666652	0.759946
C136	C	1.112741	-0.000013	0.202661
C137	C	1.446074	0.333321	0.535995
C138	C	1.779408	0.666654	0.869328
H139	H	0.573502	-0.000085	-0.120623
H140	H	0.906836	0.333248	0.212711
H141	H	1.240169	0.666582	0.546044
H142	H	0.562446	-0.000019	-0.462189
H143	H	0.895779	0.333314	-0.128856
H144	H	1.229112	0.666648	0.204477
H145	H	0.760878	-0.000015	-0.485268
H146	H	1.094211	0.333318	-0.151935
H147	H	1.427544	0.666652	0.181399
Br148	Br	1.495186	0.000013	0.454253
Br149	Br	1.828519	0.333347	0.787586
Br150	Br	2.161853	0.666680	1.120919
H151	H	1.127138	-0.444353	-0.389074
H152	H	1.460471	-0.111020	-0.055741
H153	H	1.793804	0.222314	0.277593
H154	H	0.740630	-0.000021	-0.045571
H155	H	1.073963	0.333313	0.287763
H156	H	1.407296	0.666646	0.621096
Br157	Br	0.976356	-0.000002	0.272745
Br158	Br	1.309689	0.333331	0.606078
Br159	Br	1.643022	0.666664	0.939412
H160	H	1.053992	-0.000026	0.046254
H161	H	1.387325	0.333308	0.379588
H162	H	1.720659	0.666641	0.712921
Br163	Br	0.970436	0.000010	-0.020989
Br164	Br	1.303769	0.333343	0.312344
Br165	Br	1.637102	0.666676	0.645677
H166	H	1.374599	-0.555485	-0.141822
H167	H	1.707932	-0.222152	0.191511
H168	H	2.041265	0.111181	0.524845
H169	H	1.105969	0.000003	0.411844
H170	H	1.439302	0.333337	0.745177
H171	H	1.772636	0.666670	1.078511
H172	H	0.928000	-0.000010	-0.410218
H173	H	1.261334	0.333323	-0.076884
H174	H	1.594667	0.666656	0.256449
H175	H	1.429111	-0.444356	-0.320291
H176	H	1.762445	-0.111022	0.013043
H177	H	2.095778	0.222311	0.346376
H178	H	1.395564	-0.000017	0.057346
H179	H	1.728897	0.333316	0.390679
H180	H	2.062231	0.666649	0.724012
H181	H	1.305365	-0.555792	-0.443730
H182	H	1.638699	-0.222458	-0.110396
H183	H	1.972032	0.110875	0.222937
Br184	Br	1.018058	-0.573183	-0.194026
Br185	Br	1.351391	-0.239850	0.139308
Br186	Br	1.684725	0.093484	0.472641
Br187	Br	1.179436	-0.426807	-0.032725
Br188	Br	1.512769	-0.093474	0.300608
Br189	Br	1.846102	0.239859	0.633942
H190	H	1.470614	-0.000009	0.224469
H191	H	1.803948	0.333324	0.557802
H192	H	2.137281	0.666657	0.891135
