data_functionalizedCrystal
_audit_creation_method	'MofGen! by Chris Wilmer'
_symmetry_space_group_name_H-M	'P1'
_symmetry_Int_Tables_number	1
_symmetry_cell_setting	triclinic
loop_
_symmetry_equiv_pos_as_xyz
  x,y,z
_cell_length_a	16.098538
_cell_length_b	16.109301
_cell_length_c	16.109301
_cell_angle_alpha	83.461481
_cell_angle_beta	92.731907
_cell_angle_gamma	87.262155
loop_
_atom_site_label
_atom_site_type_symbol
_atom_site_fract_x
_atom_site_fract_y
_atom_site_fract_z
O1	O	-0.069207	-1.099403	-0.110581
O2	O	-0.069220	-0.857341	-0.123881
O3	O	-0.069205	-0.985022	0.003801
O4	O	-0.069223	-0.971722	-0.238262
O5	O	0.069309	-0.992474	0.011237
O6	O	0.069293	-0.864792	-0.116444
O7	O	0.069307	-1.106855	-0.103144
Zn8	Zn	0.091292	-0.987007	-0.108614
Zn9	Zn	-0.091206	-0.977189	-0.118411
O10	O	0.069291	-0.979173	-0.230826
C11	C	0.000035	-0.830091	-0.119624
C12	C	0.000030	-0.737796	-0.118009
N13	N	-0.215756	-0.970489	-0.125092
C14	C	0.000052	-0.988209	0.038494
C15	C	0.000054	-0.986594	0.130789
C16	C	-0.259334	-1.024786	-0.071002
C17	C	-0.346524	-1.020098	-0.075674
C18	C	-0.390133	-0.961107	-0.134432
C19	C	-0.346549	-0.906808	-0.188527
C20	C	-0.259361	-0.911501	-0.183859
C21	C	-0.653385	-0.944107	-0.151353
C22	C	-0.740579	-0.939416	-0.156016
C23	C	-0.740548	-1.052707	-0.043163
C24	C	-0.653359	-1.057392	-0.038497
C25	C	-0.609782	-1.003095	-0.092595
C26	C	-0.479255	-0.956312	-0.139207
C27	C	-0.520662	-1.007896	-0.087824
N28	N	0.215842	-0.993713	-0.101926
C29	C	0.000050	-1.134104	-0.107401
C30	C	0.000049	-1.226399	-0.109016
C31	C	0.000034	-0.515524	-0.190016
C32	C	0.000040	-0.428804	-0.188492
C33	C	0.000047	-0.448678	-0.037003
C34	C	0.000048	-0.535397	-0.038528
C35	C	0.000037	-0.568817	-0.115037
C36	C	0.000042	-0.395378	-0.111988
C37	C	0.000048	-0.301352	-0.110335
C38	C	0.000033	-0.662849	-0.116691
C39	C	0.000032	-0.975986	-0.265519
C40	C	0.000026	-0.977601	-0.357815
C41	C	0.000044	-1.058601	0.353061
C42	C	0.000038	-1.057077	0.439781
C43	C	0.000032	-0.905588	0.419907
C44	C	0.000033	-0.907113	0.333188
C45	C	0.000044	-0.983622	0.299768
C46	C	0.000036	-0.980573	0.473207
C47	C	0.000028	-0.978919	0.567232
C48	C	0.000050	-0.985276	0.205736
H49	H	-0.223833	-1.072819	-0.023152
H50	H	-0.776037	-1.096914	0.000880
H51	H	0.000051	-1.120900	0.325854
Cl52	Cl	0.000020	-0.809410	0.461927
Cl53	Cl	0.000037	-0.361809	-0.282756
H54	H	0.000036	-1.118132	0.483170
H55	H	-0.514769	-0.908279	-0.187047
H56	H	0.000030	-0.846052	0.289794
H57	H	-0.776082	-0.891375	-0.203866
H58	H	-0.382005	-1.064311	-0.031631
H59	H	-0.223880	-0.867288	-0.227906
H60	H	-0.617912	-0.899895	-0.195401
Cl61	Cl	-0.598535	-1.131551	0.035372
Cl62	Cl	0.000058	-0.602400	0.055740
H63	H	-0.382061	-0.858779	-0.236373
H64	H	-0.485152	-1.055929	-0.039986
H65	H	0.000032	-0.542731	-0.252315
H66	H	0.000061	-0.421457	0.025289
