data_functionalizedCrystal
_audit_creation_method	'MofGen! by Chris Wilmer'
_symmetry_space_group_name_H-M	'P1'
_symmetry_Int_Tables_number	1
_symmetry_cell_setting	triclinic
loop_
_symmetry_equiv_pos_as_xyz
  x,y,z
_cell_length_a	14.044220
_cell_length_b	10.654550
_cell_length_c	9.130313
_cell_angle_alpha	89.995631
_cell_angle_beta	90.001436
_cell_angle_gamma	88.836904
loop_
_atom_site_label
_atom_site_type_symbol
_atom_site_fract_x
_atom_site_fract_y
_atom_site_fract_z
O1	O	1.259697	0.302986	-0.121643
O2	O	0.983656	0.292053	-0.121680
O3	O	1.128023	0.115418	-0.121651
O4	O	1.115330	0.479621	-0.121672
O5	O	1.128013	0.115411	0.121947
O6	O	0.983646	0.292046	0.121919
O7	O	1.259687	0.302979	0.121956
Cu8	Cu	1.121666	0.297512	0.144180
Cu9	Cu	1.121678	0.297520	-0.143904
O10	O	1.115320	0.479614	0.121927
C11	C	1.127086	0.068523	0.000147
C12	C	1.124298	-0.071201	0.000144
C13	C	0.948305	0.287263	0.000115
C14	C	0.842986	0.272988	0.000101
C15	C	1.209299	-0.142144	0.000155
C16	C	1.206673	-0.273429	0.000137
C17	C	1.034038	-0.262814	0.000103
C18	C	1.036665	-0.131532	0.000111
C19	C	0.650153	0.246889	0.000131
C20	C	0.593185	0.348137	0.000132
C21	C	0.485886	0.333615	0.000149
C22	C	0.757462	0.261409	0.000114
C23	C	1.295038	0.307769	0.000158
C24	C	1.400358	0.322044	0.000162
C25	C	1.116257	0.526509	0.000126
C26	C	1.119045	0.666233	0.000119
N27	N	1.121664	0.297507	0.346803
N28	N	1.121686	0.297516	-0.346527
C29	C	1.185612	0.219331	0.423467
C30	C	1.185621	0.219332	0.576804
C31	C	1.057732	0.375695	0.576798
C32	C	1.057719	0.375687	0.423464
H33	H	1.275890	-0.331186	0.000143
H34	H	0.618342	0.149310	0.000145
H35	H	1.005670	0.439350	0.639231
O36	O	0.948996	-0.321622	0.000150
C37	C	0.868438	-0.519164	0.000047
C38	C	0.964814	-0.452730	0.000023
H39	H	0.881194	-0.625175	-0.000087
H40	H	0.826370	-0.490835	0.102011
H41	H	0.826396	-0.490651	-0.101880
H42	H	1.006934	-0.481208	0.101881
H43	H	1.006810	-0.481060	-0.102009
O44	O	0.631286	0.464469	0.000015
C45	C	0.774527	0.585194	-0.000011
C46	C	0.731500	0.453382	0.000111
H47	H	0.855556	0.576275	0.000098
H48	H	0.749981	0.638435	-0.101999
H49	H	0.749889	0.638463	0.101892
H50	H	0.756118	0.400009	-0.101723
H51	H	0.756042	0.400237	0.102167
O52	O	0.995562	0.451750	0.349209
C53	C	0.868675	0.606786	0.365372
C54	C	0.939030	0.520739	0.449647
H55	H	0.822937	0.662567	0.446539
H56	H	0.909981	0.674266	0.293604
H57	H	0.820976	0.547151	0.293564
H58	H	0.986746	0.580274	0.521534
H59	H	0.897664	0.453254	0.521323
H60	H	1.237679	0.155670	0.361053
H61	H	1.237692	0.155673	0.639220
O62	O	0.954025	-0.062744	-0.000093
C63	C	0.807316	-0.013426	-0.126370
C64	C	0.900852	-0.091425	-0.126296
H65	H	0.764308	-0.036567	-0.228409
H66	H	0.764159	-0.036648	-0.024504
H67	H	0.824271	0.090759	-0.126294
H68	H	0.883983	-0.195632	-0.126423
H69	H	0.943982	-0.068098	-0.228153
O70	O	1.294504	-0.083737	0.000105
C71	C	1.465456	-0.108128	0.000201
C72	C	1.369026	-0.174429	0.000233
H73	H	1.525733	-0.181423	0.000336
H74	H	1.471069	-0.046960	-0.101766
H75	H	1.470951	-0.046902	0.102125
H76	H	1.363466	-0.235719	-0.101622
H77	H	1.363456	-0.235521	0.102268
