data_functionalizedCrystal
_audit_creation_method	'MofGen! by Chris Wilmer'
_symmetry_space_group_name_H-M	'P1'
_symmetry_Int_Tables_number	1
_symmetry_cell_setting	triclinic
loop_
_symmetry_equiv_pos_as_xyz
  x,y,z
_cell_length_a	12.759401
_cell_length_b	21.295416
_cell_length_c	21.295411
_cell_angle_alpha	90.019171
_cell_angle_beta	89.978649
_cell_angle_gamma	89.969508
loop_
_atom_site_label
_atom_site_type_symbol
_atom_site_fract_x
_atom_site_fract_y
_atom_site_fract_z
Zn1	Zn	1.606171	0.250678	-0.355868
Zn2	Zn	1.939504	0.584012	-0.022535
Zn3	Zn	2.272837	0.917345	0.310798
Zn4	Zn	1.606008	0.355930	-0.250598
Zn5	Zn	1.939342	0.689263	0.082735
Zn6	Zn	2.272675	1.022597	0.416068
Zn7	Zn	1.430464	0.250679	-0.250619
Zn8	Zn	1.763797	0.584012	0.082714
Zn9	Zn	2.097131	0.917346	0.416047
Zn10	Zn	1.430413	0.355914	-0.355836
Zn11	Zn	1.763747	0.689247	-0.022503
Zn12	Zn	2.097080	1.022580	0.310831
O13	O	1.518264	0.303300	-0.303230
O14	O	1.851597	0.636634	0.030103
O15	O	2.184931	0.969967	0.363436
O16	O	1.753170	0.264647	-0.341909
O17	O	2.086504	0.597980	-0.008575
O18	O	2.419837	0.931313	0.324758
O19	O	1.582675	0.341975	-0.162512
O20	O	1.916009	0.675309	0.170822
O21	O	2.249342	1.008642	0.504155
O22	O	1.453861	0.162590	-0.264603
O23	O	1.787194	0.495923	0.068730
O24	O	2.120528	0.829256	0.402064
O25	O	1.753051	0.341975	-0.264567
O26	O	2.086384	0.675308	0.068766
O27	O	2.419718	1.008641	0.402099
O28	O	1.582952	0.162589	-0.341929
O29	O	1.916285	0.495922	-0.008596
O30	O	2.249619	0.829256	0.324738
O31	O	1.453704	0.264648	-0.162527
O32	O	1.787037	0.597981	0.170806
O33	O	2.120370	0.931315	0.504140
O34	O	1.283436	0.264632	-0.264572
O35	O	1.616770	0.597965	0.068762
O36	O	1.950103	0.931299	0.402095
O37	O	1.453775	0.341947	-0.443930
O38	O	1.787108	0.675280	-0.110596
O39	O	2.120441	1.008614	0.222737
O40	O	1.283399	0.341948	-0.341874
O41	O	1.616732	0.675281	-0.008541
O42	O	1.950066	1.008614	0.324793
O43	O	1.582903	0.264631	-0.443953
O44	O	1.916236	0.597964	-0.110620
O45	O	2.249570	0.931298	0.222713
O46	O	1.582626	0.444017	-0.264536
O47	O	1.915960	0.777351	0.068797
O48	O	2.249293	1.110684	0.402131
O49	O	1.453617	0.444005	-0.341854
O50	O	1.786951	0.777339	-0.008520
O51	O	2.120284	1.110672	0.324813
C52	C	1.245297	0.303289	-0.303222
C53	C	1.578630	0.636622	0.030111
C54	C	1.911963	0.969955	0.363445
C55	C	1.128520	0.303299	-0.303233
C56	C	1.461854	0.636632	0.030100
C57	C	1.795187	0.969966	0.363434
C58	C	1.518127	0.466852	-0.303203
C59	C	1.851461	0.800185	0.030131
C60	C	2.184794	1.133519	0.363464
C61	C	1.518165	0.536820	-0.303212
C62	C	1.851498	0.870153	0.030122
C63	C	2.184831	1.203487	0.363455
C64	C	1.073666	0.343622	-0.343418
C65	C	1.407000	0.676955	-0.010084
C66	C	1.740333	1.010288	0.323249
C67	C	0.963942	0.343629	-0.343425
C68	C	1.297276	0.676963	-0.010091
C69	C	1.630609	1.010296	0.323242
C70	C	0.963936	0.262990	-0.263057
C71	C	1.297269	0.596324	0.070277
C72	C	1.630602	0.929657	0.403610
C73	C	1.073658	0.262980	-0.263054
C74	C	1.406991	0.596313	0.070280
C75	C	1.740324	0.929646	0.403613
C76	C	1.128529	0.383941	-0.383597
C77	C	1.461862	0.717274	-0.050264
C78	C	1.795195	1.050607	0.283069
C79	C	1.073675	0.424267	-0.423785
C80	C	1.407008	0.757600	-0.090452
C81	C	1.740341	1.090934	0.242882
C82	C	0.963951	0.424275	-0.423792
C83	C	1.297284	0.757608	-0.090458
C84	C	1.630617	1.090942	0.242875
C85	C	0.909081	0.383957	-0.383611
C86	C	1.242414	0.717290	-0.050278
C87	C	1.575747	1.050623	0.283056
C88	C	1.585400	0.569672	-0.262995
C89	C	1.918733	0.903005	0.070338
C90	C	2.252066	1.236339	0.403671
C91	C	1.585449	0.635414	-0.263012
C92	C	1.918783	0.968748	0.070321
C93	C	2.252116	1.302081	0.403654
C94	C	1.518245	0.668303	-0.303239
C95	C	1.851579	1.001636	0.030094
C96	C	2.184912	1.334969	0.363428
C97	C	1.451006	0.635443	-0.343464
C98	C	1.784339	0.968776	-0.010130
C99	C	2.117672	1.302109	0.323203
C100	C	1.450966	0.569701	-0.343450
C101	C	1.784299	0.903035	-0.010117
C102	C	2.117632	1.236368	0.323217
N103	N	1.426339	0.771569	-0.308040
N104	N	1.759672	1.104903	0.025294
N105	N	2.093006	1.438236	0.358627
N106	N	1.426380	0.834021	-0.308049
N107	N	1.759714	1.167354	0.025284
N108	N	2.093047	1.500687	0.358618
C109	C	1.518364	0.866377	-0.303284
C110	C	1.851697	1.199711	0.030050
C111	C	2.185031	1.533044	0.363383
N112	N	1.610307	0.833923	-0.298497
N113	N	1.943640	1.167256	0.034837
N114	N	2.276974	1.500590	0.368170
N115	N	1.610265	0.771466	-0.298484
N116	N	1.943598	1.104799	0.034849
N117	N	2.276931	1.438132	0.368183
C118	C	1.518282	0.739588	-0.303259
C119	C	1.851615	1.072921	0.030075
C120	C	2.184948	1.406255	0.363408
C121	C	1.585658	0.970515	-0.263083
C122	C	1.918992	1.303848	0.070250
C123	C	2.252325	1.637181	0.403583
C124	C	1.585710	1.036258	-0.263105
C125	C	1.919043	1.369592	0.070228
C126	C	2.252376	1.702925	0.403562
C127	C	1.451257	1.036285	-0.343553
C128	C	1.784590	1.369619	-0.010220
C129	C	2.117923	1.702952	0.323114
C130	C	1.451215	0.970543	-0.343535
C131	C	1.784548	1.303876	-0.010202
C132	C	2.117881	1.637209	0.323132
C133	C	1.518414	0.937661	-0.303297
C134	C	1.851747	1.270995	0.030037
C135	C	2.185081	1.604328	0.363370
C136	C	1.792297	0.303312	-0.303239
C137	C	2.125631	0.636646	0.030094
C138	C	2.458964	0.969979	0.363427
C139	C	1.909074	0.303318	-0.303243
C140	C	2.242407	0.636651	0.030090
C141	C	2.575741	0.969984	0.363423
C142	C	1.518351	0.303287	-0.467421
C143	C	1.851685	0.636620	-0.134087
C144	C	2.185018	0.969954	0.199246
C145	C	1.518389	0.303281	-0.537389
C146	C	1.851722	0.636615	-0.204056
C147	C	2.185055	0.969948	0.129278
C148	C	1.518432	1.139110	-0.303283
C149	C	1.851765	1.472443	0.030050
C150	C	2.185098	1.805777	0.363384
C151	C	1.518506	1.069142	-0.303333
C152	C	1.851839	1.402475	0.030000
C153	C	2.185173	1.735809	0.363334
C154	C	1.585623	0.263021	-0.570269
C155	C	1.918956	0.596354	-0.236936
C156	C	2.252289	0.929688	0.096398
C157	C	1.585621	0.262994	-0.636012
C158	C	1.918955	0.596327	-0.302678
C159	C	2.252288	0.929660	0.030655
C160	C	1.518397	0.303238	-0.668871
C161	C	1.851730	0.636571	-0.335538
C162	C	2.185063	0.969905	-0.002205
C163	C	1.451149	0.343501	-0.635983
C164	C	1.784483	0.676834	-0.302650
C165	C	2.117816	1.010168	0.030683
C166	C	1.451145	0.343523	-0.570242
C167	C	1.784479	0.676856	-0.236909
C168	C	2.117812	1.010189	0.096425
N169	N	1.510291	0.358306	-0.772089
N170	N	1.843624	0.691639	-0.438756
N171	N	2.176958	1.024972	-0.105423
N172	N	1.510301	0.358283	-0.834541
N173	N	1.843635	0.691617	-0.501208
N174	N	2.176968	1.024950	-0.167874
C175	C	1.518403	0.303174	-0.866946
C176	C	1.851737	0.636507	-0.533613
C177	C	2.185070	0.969841	-0.200280
N178	N	1.526516	0.248087	-0.834541
N179	N	1.859849	0.581420	-0.501208
N180	N	2.193182	0.914754	-0.167874
N181	N	1.526511	0.248110	-0.772084
N182	N	1.859844	0.581443	-0.438750
N183	N	2.193178	0.914777	-0.105417
C184	C	1.518393	0.303219	-0.740157
C185	C	1.851726	0.636552	-0.406824
C186	C	2.185060	0.969885	-0.073490
C187	C	1.585639	0.262881	-0.971112
C188	C	1.918973	0.596214	-0.637779
C189	C	2.252306	0.929548	-0.304445
C190	C	1.585631	0.262853	-1.036856
C191	C	1.918964	0.596186	-0.703522
C192	C	2.252297	0.929519	-0.370189
C193	C	1.451164	0.343366	-1.036826
C194	C	1.784498	0.676699	-0.703493
C195	C	2.117831	1.010032	-0.370160
C196	C	1.451168	0.343388	-0.971084
C197	C	1.784501	0.676722	-0.637751
C198	C	2.117834	1.010055	-0.304417
C199	C	1.518411	0.303147	-0.938231
C200	C	1.851744	0.636480	-0.604897
C201	C	2.185078	0.969813	-0.271564
C202	C	1.518238	0.303268	-0.139679
C203	C	1.851571	0.636601	0.193654
C204	C	2.184904	0.969935	0.526988
C205	C	1.518404	0.303096	-0.069711
C206	C	1.851738	0.636430	0.263622
C207	C	2.185071	0.969763	0.596956
H208	H	1.118357	0.457089	-0.456502
H209	H	1.451690	0.790422	-0.123169
H210	H	1.785024	1.123755	0.210164
O211	O	1.132825	0.219489	-0.219710
O212	O	1.466159	0.552822	0.113623
O213	O	1.799492	0.886156	0.446956
H214	H	1.218338	0.226251	-0.226465
H215	H	1.551672	0.559584	0.106869
H216	H	1.885005	0.892918	0.440202
H217	H	0.919252	0.230166	-0.230343
H218	H	1.252585	0.563499	0.102990
H219	H	1.585918	0.896832	0.436324
O220	O	1.378765	1.071750	-0.386938
O221	O	1.712098	1.405083	-0.053605
O222	O	2.045432	1.738417	0.279729
H223	H	1.425777	1.101663	-0.418993
H224	H	1.759111	1.434996	-0.085660
H225	H	2.092444	1.768330	0.247674
H226	H	1.640369	0.230206	-0.662788
H227	H	1.973702	0.563539	-0.329454
H228	H	2.307036	0.896872	0.003879
H229	H	0.819736	0.383961	-0.383625
H230	H	1.153069	0.717294	-0.050292
H231	H	1.486403	1.050628	0.283041
H232	H	1.217872	0.383940	-0.383595
H233	H	1.551205	0.717273	-0.050262
H234	H	1.884538	1.050606	0.283071
O235	O	1.378519	0.670909	-0.386853
O236	O	1.711853	1.004242	-0.053520
O237	O	2.045186	1.337576	0.279813
H238	H	1.296066	0.658333	-0.376015
H239	H	1.629399	0.991667	-0.042682
H240	H	1.962732	1.325000	0.290652
O241	O	1.658143	0.219614	-0.534838
O242	O	1.991477	0.552948	-0.201505
O243	O	2.324810	0.886281	0.131829
H244	H	1.646854	0.226395	-0.483599
H245	H	1.980187	0.559728	-0.150266
H246	H	2.313520	0.893062	0.183068
H247	H	1.396412	0.376266	-0.662742
H248	H	1.729745	0.709600	-0.329409
H249	H	2.063078	1.042933	0.003924
H250	H	1.396425	0.376176	-0.944313
H251	H	1.729758	0.709510	-0.610979
H252	H	2.063091	1.042843	-0.277646
H253	H	1.396461	0.943793	-0.376280
H254	H	1.729795	1.277126	-0.042947
H255	H	2.063128	1.610460	0.290386
O256	O	1.378603	0.386934	-0.534772
O257	O	1.711937	0.720267	-0.201439
O258	O	2.045270	1.053601	0.131895
H259	H	1.331847	0.414911	-0.568663
H260	H	1.665181	0.748244	-0.235330
H261	H	1.998514	1.081577	0.098003
O262	O	1.658153	0.219478	-0.935668
O263	O	1.991486	0.552811	-0.602335
O264	O	2.324819	0.886144	-0.269001
H265	H	1.640176	0.170066	-0.948274
H266	H	1.973510	0.503400	-0.614940
H267	H	2.306843	0.836733	-0.281607
O268	O	0.904781	0.467833	-0.467067
O269	O	1.238114	0.801166	-0.133733
O270	O	1.571447	1.134499	0.199600
H271	H	0.961367	0.495893	-0.494975
H272	H	1.294701	0.829226	-0.161642
H273	H	1.628034	1.162559	0.171691
H274	H	1.640120	0.542902	-0.230233
H275	H	1.973453	0.876235	0.103101
H276	H	2.306786	1.209569	0.436434
O277	O	1.658169	0.935047	-0.219705
O278	O	1.991502	1.268381	0.113628
O279	O	2.324836	1.601714	0.446962
H280	H	1.646844	0.883813	-0.226450
H281	H	1.980178	1.217147	0.106883
H282	H	2.313511	1.550480	0.440216
H283	H	1.640204	0.662168	-0.230263
H284	H	1.973537	0.995501	0.103070
H285	H	2.306870	1.328834	0.436404
O286	O	1.658153	0.219428	-1.072325
O287	O	1.991486	0.552761	-0.738991
O288	O	2.324819	0.886095	-0.405658
H289	H	1.704914	0.191456	-1.038432
H290	H	2.038248	0.524790	-0.705099
H291	H	2.371581	0.858123	-0.371765
O292	O	1.378426	0.534262	-0.386816
O293	O	1.711759	0.867595	-0.053483
O294	O	2.045093	1.200928	0.279851
H295	H	1.331693	0.568173	-0.414788
H296	H	1.665026	0.901506	-0.081455
H297	H	1.998360	1.234839	0.251878
H298	H	1.640467	1.063005	-0.230357
H299	H	1.973800	1.396339	0.102976
H300	H	2.307133	1.729672	0.436310
O301	O	1.378653	0.386774	-1.072257
O302	O	1.711987	0.720107	-0.738924
O303	O	2.045320	1.053440	-0.405591
H304	H	1.389953	0.379998	-1.123496
H305	H	1.723287	0.713331	-0.790163
H306	H	2.056620	1.046664	-0.456829
