data_functionalizedCrystal
_audit_creation_method	'MofGen! by Chris Wilmer'
_symmetry_space_group_name_H-M	'P1'
_symmetry_Int_Tables_number	1
_symmetry_cell_setting	triclinic
loop_
_symmetry_equiv_pos_as_xyz
  x,y,z
_cell_length_a	19.288864
_cell_length_b	13.262508
_cell_length_c	18.366186
_cell_angle_alpha	105.912108
_cell_angle_beta	89.977106
_cell_angle_gamma	83.814836
loop_
_atom_site_label
_atom_site_type_symbol
_atom_site_fract_x
_atom_site_fract_y
_atom_site_fract_z
O1	O	0.921999	0.130929	-0.034853
O2	O	1.421999	0.630929	0.465147
O3	O	0.719825	0.148591	-0.031305
O4	O	1.219825	0.648591	0.468695
O5	O	0.826002	-0.013051	-0.063340
O6	O	1.326002	0.486949	0.436660
O7	O	0.815822	0.292571	-0.002818
O8	O	1.315822	0.792571	0.497182
O9	O	0.825984	-0.013059	0.057758
O10	O	1.325984	0.486941	0.557758
O11	O	0.719807	0.148583	0.089793
O12	O	1.219807	0.648583	0.589793
O13	O	0.921981	0.130921	0.086245
O14	O	1.421981	0.630921	0.586245
Zn15	Zn	0.820891	0.139751	0.107246
Zn16	Zn	1.320891	0.639751	0.607246
Zn17	Zn	0.820915	0.139761	-0.052306
Zn18	Zn	1.320915	0.639761	0.447694
O19	O	0.815804	0.292563	0.118280
O20	O	1.315804	0.792563	0.618280
C21	C	0.693937	0.148019	0.029138
C22	C	1.193937	0.648019	0.529138
C23	C	0.616825	0.146313	0.028819
C24	C	1.116825	0.646313	0.528819
C25	C	0.572597	0.241157	0.047590
C26	C	1.072597	0.741157	0.547590
C27	C	0.500142	0.239554	0.047264
C28	C	1.000142	0.739554	0.547264
C29	C	0.471918	0.143102	0.028153
C30	C	0.971918	0.643102	0.528153
C31	C	0.516156	0.048245	0.009384
C32	C	1.016156	0.548245	0.509384
C33	C	0.588610	0.049851	0.009717
C34	C	1.088610	0.549851	0.509717
C35	C	0.363289	0.067282	-0.029313
C36	C	0.863289	0.567282	0.470687
C37	C	0.290836	0.065681	-0.029650
C38	C	0.790836	0.565681	0.470350
C39	C	0.248448	0.138146	0.027127
C40	C	0.748448	0.638146	0.527127
C41	C	0.278520	0.212231	0.084235
C42	C	0.778520	0.712231	0.584235
C43	C	0.350974	0.213836	0.084569
C44	C	0.850974	0.713836	0.584569
C45	C	0.393356	0.141350	0.027790
C46	C	0.893356	0.641350	0.527790
C47	C	0.125656	0.231259	0.045547
C48	C	0.625656	0.731259	0.545547
C49	C	0.053200	0.229652	0.045225
C50	C	0.553200	0.729652	0.545225
C51	C	0.069216	0.038341	0.007337
C52	C	0.569216	0.538341	0.507337
C53	C	0.141670	0.039950	0.007667
C54	C	0.641670	0.539950	0.507667
C55	C	0.169885	0.136412	0.026769
C56	C	0.669885	0.636412	0.526769
C57	C	0.825424	-0.052155	-0.010535
C58	C	1.325424	0.447845	0.489465
C59	C	0.823720	-0.168661	-0.033610
C60	C	1.323720	0.331339	0.466390
C61	C	0.818874	-0.497103	0.165396
C62	C	1.318874	0.002897	0.665396
C63	C	0.820469	-0.387638	0.187077
C64	C	1.320469	0.112362	0.687077
C65	C	0.821283	-0.332889	0.131907
C66	C	1.321283	0.167111	0.631907
C67	C	0.820499	-0.387614	0.055053
C68	C	1.320499	0.112386	0.555053
C69	C	0.818898	-0.497088	0.033370
C70	C	1.318898	0.002912	0.533370
C71	C	0.821307	-0.332874	-0.000119
C72	C	1.321307	0.167126	0.499881
C73	C	0.820524	-0.387599	-0.076973
C74	C	1.320524	0.112401	0.423027
C75	C	0.818923	-0.497063	-0.098652
C76	C	1.318923	0.002937	0.401348
C77	C	0.818110	-0.551812	-0.043483
C78	C	1.318110	-0.051812	0.456517
C79	C	0.822908	-0.223400	0.021564
C80	C	1.322908	0.276600	0.521564
C81	C	0.822932	-0.223386	-0.110462
C82	C	1.322932	0.276614	0.389538
C83	C	0.821337	-0.332850	-0.132143
C84	C	1.321337	0.167150	0.367857
C85	C	0.947869	0.131493	0.025801
C86	C	1.447869	0.631493	0.525801
C87	C	1.024981	0.133199	0.026115
C88	C	1.524981	0.633199	0.526115
C89	C	0.816382	0.331667	0.065474
C90	C	1.316382	0.831667	0.565474
C91	C	0.818086	0.448173	0.088544
C92	C	1.318086	0.948173	0.588544
N93	N	0.820880	0.139743	0.216136
N94	N	1.320880	0.639743	0.716136
N95	N	0.820932	0.139761	-0.161197
N96	N	1.320932	0.639761	0.338803
C97	C	0.867911	0.068203	0.240058
C98	C	1.367911	0.568203	0.740058
C99	C	0.867915	0.068198	0.316285
C100	C	1.367915	0.568198	0.816285
C101	C	0.820895	0.139752	0.368590
C102	C	1.320895	0.639752	0.868590
C103	C	0.773856	0.211297	0.344660
C104	C	1.273856	0.711297	0.844660
C105	C	0.773848	0.211293	0.268432
C106	C	1.273848	0.711293	0.768432
C107	C	0.812069	0.235382	0.508289
C108	C	1.312069	0.735382	1.008289
C109	C	0.812082	0.235387	0.584515
C110	C	1.312082	0.735387	1.084515
C111	C	0.820915	0.139765	0.603700
C112	C	1.320915	0.639765	1.103700
C113	C	0.829751	0.044132	0.546649
C114	C	1.329751	0.544132	1.046649
C115	C	0.829743	0.044128	0.470422
C116	C	1.329743	0.544128	0.970422
C117	C	0.820898	0.139764	0.451247
C118	C	1.320898	0.639764	0.951247
C119	C	0.867953	0.068214	0.710275
C120	C	1.367953	0.568214	1.210275
C121	C	0.867953	0.068208	0.786503
C122	C	1.367953	0.568208	1.286503
C123	C	0.773897	0.211316	0.814878
C124	C	1.273897	0.711316	1.314878
C125	C	0.773894	0.211313	0.738650
C126	C	1.273894	0.711313	1.238650
C127	C	0.820926	0.139763	0.686353
C128	C	1.320926	0.639763	1.186353
H129	H	0.464124	0.316790	0.062552
H130	H	0.964124	0.816790	0.562552
H131	H	0.906249	0.009945	0.805979
H132	H	1.406249	0.509945	1.305979
H133	H	0.822580	-0.243758	0.149565
H134	H	1.322580	0.256242	0.649565
H135	H	0.818279	-0.541616	-0.161232
H136	H	1.318279	-0.041616	0.338768
H137	H	0.836943	-0.033733	0.562265
H138	H	1.336943	0.466267	1.062265
Br139	Br	0.931779	-0.028892	0.639299
Br140	Br	1.431779	0.471108	1.139299
Br141	Br	0.824017	-0.149088	-0.185340
Br142	Br	1.324017	0.350912	0.314660
H143	H	0.375455	0.274155	0.131070
H144	H	0.875455	0.774155	0.631070
H145	H	0.804892	0.313257	0.630962
H146	H	1.304892	0.813257	1.130962
Br147	Br	0.648638	-0.078877	-0.015758
Br148	Br	1.148638	0.421123	0.484242
Br149	Br	0.610886	0.372069	0.073515
Br150	Br	1.110886	0.872069	0.573515
Br151	Br	0.815947	-0.700378	-0.072904
Br152	Br	1.315947	-0.200378	0.427096
H153	H	0.244009	0.271239	0.130469
H154	H	0.744009	0.771239	0.630469
H155	H	0.820698	-0.377423	-0.194719
H156	H	1.320698	0.122577	0.305281
Br157	Br	0.710066	0.308410	0.706180
Br158	Br	1.210066	0.808410	1.206180
H159	H	0.148630	0.309804	0.061112
H160	H	0.648630	0.809804	0.561112
Br161	Br	0.817753	-0.571405	0.240261
Br162	Br	1.317753	-0.071405	0.740261
H163	H	0.906205	0.009940	0.197479
H164	H	1.406205	0.509940	0.697479
H165	H	0.397796	0.008270	-0.075552
H166	H	0.897796	0.508270	0.424448
H167	H	0.823539	-0.178852	0.084140
H168	H	1.323539	0.321148	0.584140
Br169	Br	0.821517	-0.313372	0.291375
Br170	Br	1.321517	0.186628	0.791375
Br171	Br	0.710076	0.308414	0.885856
Br172	Br	1.210076	0.808414	1.385856
H173	H	0.804864	0.313254	0.492679
H174	H	1.304864	0.813254	0.992679
H175	H	0.906214	0.009939	0.335766
H176	H	1.406214	0.509939	0.835766
Br177	Br	0.841727	-0.085651	0.392998
Br178	Br	1.341727	0.414349	0.892998
Br179	Br	0.710037	0.308399	0.415641
Br180	Br	1.210037	0.808399	0.915641
Br181	Br	0.030920	-0.092562	-0.018588
Br182	Br	0.530920	0.407438	0.481412
Br183	Br	-0.006827	0.358382	0.070708
Br184	Br	0.493173	0.858382	0.570708
Br185	Br	0.201698	-0.088775	-0.017811
Br186	Br	0.701698	0.411225	0.482189
Br187	Br	0.710015	0.308389	0.235963
Br188	Br	1.210015	0.808389	0.735963
H189	H	0.266357	0.005361	-0.076153
H190	H	0.766357	0.505361	0.423847
H191	H	0.493172	-0.030287	-0.006187
H192	H	0.993172	0.469713	0.493813
