data_functionalizedCrystal
_audit_creation_method	'MofGen! by Chris Wilmer'
_symmetry_space_group_name_H-M	'P1'
_symmetry_Int_Tables_number	1
_symmetry_cell_setting	triclinic
loop_
_symmetry_equiv_pos_as_xyz
  x,y,z
_cell_length_a	10.654545
_cell_length_b	12.837942
_cell_length_c	9.730223
_cell_angle_alpha	89.996108
_cell_angle_beta	89.997167
_cell_angle_gamma	89.656010
loop_
_atom_site_label
_atom_site_type_symbol
_atom_site_fract_x
_atom_site_fract_y
_atom_site_fract_z
O1	O	1.683742	0.145700	-0.114275
O2	O	1.319778	0.159589	-0.114281
O3	O	1.493690	0.001684	-0.114270
O4	O	1.509830	0.303605	-0.114287
O5	O	1.493677	0.001679	0.114310
O6	O	1.319765	0.159584	0.114299
O7	O	1.683729	0.145696	0.114305
Zn8	Zn	1.501745	0.152639	0.150594
Zn9	Zn	1.501762	0.152645	-0.150570
O10	O	1.509818	0.303601	0.114293
C11	C	1.272863	0.158568	0.000008
C12	C	1.133086	0.155520	0.000006
C13	C	1.067418	0.154082	0.124606
C14	C	0.936084	0.151201	0.124606
C15	C	0.936098	0.151199	-0.124604
C16	C	1.067430	0.154073	-0.124603
C17	C	1.488230	-0.036978	0.000019
C18	C	1.471968	-0.152172	0.000017
C19	C	1.667472	-0.391727	-0.000009
C20	C	1.652198	-0.499963	-0.000012
C21	C	1.426147	-0.476880	-0.000001
C22	C	1.441421	-0.368645	0.000002
C23	C	1.562087	-0.326073	-0.000000
C24	C	1.577361	-0.217835	0.000012
C25	C	1.351310	-0.194755	0.000013
C26	C	1.336036	-0.302990	0.000010
C27	C	1.730645	0.146717	0.000012
C28	C	1.870421	0.149765	0.000005
C29	C	1.515277	0.342263	0.000001
C30	C	1.531539	0.457456	-0.000005
N31	N	1.501743	0.152635	0.356130
N32	N	1.501773	0.152641	-0.356107
C33	C	1.578783	0.082744	0.428061
C34	C	1.578796	0.082745	0.571944
C35	C	1.424724	0.222535	0.571952
C36	C	1.424706	0.222529	0.428072
H37	H	1.120872	0.155261	0.226071
O38	O	1.218802	-0.344302	-0.000231
C39	C	1.153761	-0.310801	-0.118589
H40	H	1.224089	-0.287790	-0.201336
H41	H	1.092450	-0.376743	-0.158326
H42	H	1.092152	-0.240783	-0.091813
H43	H	1.641509	0.025831	0.369489
O44	O	1.653752	0.014817	0.641604
C45	C	1.721712	-0.046889	0.547247
H46	H	1.728205	-0.004340	0.444678
H47	H	1.820202	-0.061944	0.588801
H48	H	1.671685	-0.124279	0.531962
H49	H	1.265498	-0.141286	0.000031
H50	H	1.327905	-0.511562	-0.000014
H51	H	0.882625	0.150022	-0.226057
H52	H	0.882623	0.150031	0.226068
O53	O	1.350021	0.290395	0.642053
C54	C	1.366535	0.275401	0.784471
H55	H	1.461829	0.237390	0.804108
H56	H	1.361956	0.353870	0.839138
H57	H	1.289174	0.222821	0.825329
H58	H	1.361965	0.279443	0.369502
H59	H	1.120899	0.155240	-0.226073
H60	H	1.675613	-0.183175	0.000016
H61	H	1.765724	-0.357065	0.000003
O62	O	1.754703	-0.563591	0.000044
C63	C	1.864475	-0.502801	0.000005
H64	H	1.842228	-0.422266	0.043284
H65	H	1.939111	-0.542149	0.066362
H66	H	1.900851	-0.494831	-0.109659
