data_functionalizedCrystal
_audit_creation_method	'MofGen! by Chris Wilmer'
_symmetry_space_group_name_H-M	'P1'
_symmetry_Int_Tables_number	1
_symmetry_cell_setting	triclinic
loop_
_symmetry_equiv_pos_as_xyz
  x,y,z
_cell_length_a	29.839135
_cell_length_b	25.639240
_cell_length_c	29.839126
_cell_angle_alpha	89.969504
_cell_angle_beta	89.976855
_cell_angle_gamma	90.035287
loop_
_atom_site_label
_atom_site_type_symbol
_atom_site_fract_x
_atom_site_fract_y
_atom_site_fract_z
Zn1	Zn	0.686781	-0.208156	-0.254027
Zn2	Zn	0.686714	-0.295581	-0.178889
Zn3	Zn	0.611653	-0.208166	-0.178906
Zn4	Zn	0.611623	-0.295566	-0.253986
O5	O	0.649193	-0.251867	-0.216452
O6	O	0.749639	-0.219755	-0.244071
O7	O	0.676742	-0.283996	-0.116024
O8	O	0.621660	-0.134999	-0.188895
O9	O	0.749590	-0.283986	-0.188867
O10	O	0.676856	-0.134992	-0.244087
O11	O	0.621595	-0.219772	-0.116036
O12	O	0.548782	-0.219757	-0.188855
O13	O	0.621607	-0.283960	-0.316859
O14	O	0.548759	-0.283969	-0.244016
O15	O	0.676826	-0.219740	-0.316889
O16	O	0.676712	-0.368744	-0.188827
O17	O	0.621543	-0.368733	-0.244000
C18	C	0.532470	-0.251863	-0.216433
C19	C	0.482536	-0.251874	-0.216435
C20	C	0.649129	-0.387710	-0.216417
C21	C	0.649143	-0.445824	-0.216417
C22	C	0.677947	-0.806144	-0.245242
C23	C	0.677961	-0.860749	-0.245251
O24	O	0.702375	-0.888949	-0.269724
N25	N	0.649255	-0.888106	-0.216495
C26	C	0.620531	-0.860856	-0.187732
O27	O	0.596116	-0.889140	-0.163274
C28	C	0.620516	-0.806253	-0.187725
C29	C	0.649227	-0.778898	-0.216480
C30	C	0.706655	-0.778790	-0.273995
C31	C	0.706643	-0.724189	-0.273985
C32	C	0.677922	-0.696943	-0.245223
C33	C	0.649214	-0.724298	-0.216470
C34	C	0.591790	-0.779004	-0.158964
C35	C	0.591777	-0.724397	-0.158960
C36	C	0.620488	-0.697043	-0.187715
C37	C	0.620480	-0.642451	-0.187698
N38	N	0.649186	-0.615094	-0.216454
C39	C	0.677907	-0.642340	-0.245216
C40	C	0.620565	-0.975527	-0.187748
C41	C	0.620582	-1.030129	-0.187752
C42	C	0.678011	-1.030018	-0.245272
C43	C	0.677996	-0.975414	-0.245266
C44	C	0.649270	-0.948169	-0.216504
C45	C	0.677878	-0.527675	-0.245193
C46	C	0.677864	-0.473070	-0.245179
C47	C	0.620433	-0.473186	-0.187661
C48	C	0.620449	-0.527786	-0.187673
C49	C	0.649173	-0.555030	-0.216442
O50	O	0.596077	-0.614216	-0.163239
O51	O	0.702314	-0.614050	-0.269674
C52	C	0.172915	-0.218472	-0.245239
C53	C	-0.014758	-0.218476	-0.245252
O54	O	-0.039004	-0.190065	-0.269720
N55	N	-0.038249	-0.251868	-0.216468
C56	C	-0.014819	-0.285258	-0.187678
O57	O	-0.039106	-0.313656	-0.163193
C58	C	0.172853	-0.285251	-0.187663
C59	C	0.196341	-0.251862	-0.216452
C60	C	0.196403	-0.185085	-0.274025
C61	C	0.243319	-0.185086	-0.274023
C62	C	0.266746	-0.218475	-0.245235
C63	C	0.243257	-0.251863	-0.216450
C64	C	0.196282	-0.318639	-0.158871
C65	C	0.243203	-0.318633	-0.158869
C66	C	0.266692	-0.285244	-0.187657
C67	C	0.313599	-0.285254	-0.187661
N68	N	0.337090	-0.251862	-0.216444
C69	C	0.313664	-0.218473	-0.245231
C70	C	-0.113350	-0.285260	-0.187688
C71	C	-0.160268	-0.285262	-0.187692
C72	C	-0.160204	-0.218479	-0.245266
C73	C	-0.113285	-0.218480	-0.245264
C74	C	-0.089859	-0.251868	-0.216472
C75	C	0.412189	-0.218479	-0.245226
C76	C	0.459109	-0.218485	-0.245223
C77	C	0.459040	-0.285266	-0.187648
C78	C	0.412125	-0.285262	-0.187652
C79	C	0.388701	-0.251864	-0.216443
O80	O	0.337874	-0.313645	-0.163201
O81	O	0.337958	-0.190071	-0.269706
C82	C	0.125999	-0.218471	-0.245241
C83	C	0.102511	-0.251859	-0.216455
C84	C	0.125937	-0.285248	-0.187668
C85	C	0.055593	-0.251861	-0.216459
C86	C	0.032166	-0.218472	-0.245247
C87	C	0.055657	-0.185080	-0.274030
C88	C	0.102573	-0.185082	-0.274028
C89	C	0.102446	-0.318639	-0.158884
C90	C	0.055531	-0.318636	-0.158889
C91	C	0.032104	-0.285246	-0.187676
C92	C	0.766371	-0.251871	-0.216472
C93	C	0.816305	-0.251873	-0.216480
C94	C	0.649220	-0.251847	-0.333630
C95	C	0.649232	-0.251838	-0.383565
C96	C	0.649269	-0.115494	-0.216497
C97	C	0.649301	-0.057380	-0.216516
C98	C	0.620526	-0.218345	-0.693218
C99	C	0.620539	-0.218308	-0.880891
O100	O	0.596110	-0.189883	-0.905163
N101	N	0.649254	-0.251740	-0.904350
C102	C	0.677965	-0.285186	-0.880888
O103	O	0.702385	-0.313625	-0.905148
C104	C	0.677950	-0.285225	-0.693216
C105	C	0.649236	-0.251787	-0.669759
C106	C	0.591815	-0.184910	-0.669760
C107	C	0.591814	-0.184917	-0.622845
C108	C	0.620524	-0.218360	-0.599387
C109	C	0.649235	-0.251794	-0.622844
C110	C	0.706658	-0.318673	-0.669755
C111	C	0.706651	-0.318680	-0.622834
C112	C	0.677938	-0.285242	-0.599377
C113	C	0.677944	-0.285244	-0.552470
N114	N	0.649230	-0.251812	-0.529010
C115	C	0.620520	-0.218370	-0.552469
C116	C	0.677972	-0.285163	-0.979419
C117	C	0.677976	-0.285153	-1.026337
C118	C	0.620549	-0.218275	-1.026336
C119	C	0.620548	-0.218283	-0.979417
C120	C	0.649257	-0.251731	-0.955960
C121	C	0.620520	-0.218387	-0.453943
C122	C	0.620522	-0.218396	-0.407023
C123	C	0.677947	-0.285275	-0.407028
C124	C	0.677946	-0.285265	-0.453944
C125	C	0.649229	-0.251819	-0.477400
O126	O	0.702357	-0.313658	-0.528168
O127	O	0.596096	-0.189943	-0.528201
C128	C	0.620528	-0.218337	-0.740133
C129	C	0.649239	-0.251772	-0.763590
C130	C	0.677949	-0.285214	-0.740132
C131	C	0.649243	-0.251762	-0.810508
C132	C	0.620533	-0.218320	-0.833966
C133	C	0.591819	-0.184888	-0.810507
C134	C	0.591817	-0.184895	-0.763591
C135	C	0.706663	-0.318646	-0.763591
C136	C	0.706663	-0.318636	-0.810507
C137	C	0.677952	-0.285193	-0.833965
C138	C	0.649191	-0.251849	-0.099730
C139	C	0.649266	-0.251710	-0.049795
H140	H	0.701245	-0.450799	-0.268595
C141	C	-0.087895	-0.321430	-0.156374
C142	C	-0.060967	-0.291785	-0.127614
C143	C	-0.037519	-0.325088	-0.098760
H144	H	-0.069560	-0.344249	-0.173468
H145	H	-0.108594	-0.341307	-0.139210
H146	H	-0.040271	-0.271917	-0.144777
H147	H	-0.079292	-0.268967	-0.110510
H148	H	-0.058218	-0.344965	-0.081595
H149	H	-0.019186	-0.347906	-0.115857
H150	H	-0.019248	-0.304979	-0.079240
H151	H	0.262274	-0.345822	-0.135422
H152	H	0.597074	-0.550060	-0.164255
C153	C	0.737738	-0.694429	-0.305236
C154	C	0.712277	-0.663078	-0.333996
C155	C	0.740907	-0.635655	-0.362790
H156	H	0.754851	-0.718424	-0.322408
H157	H	0.757314	-0.673090	-0.288085
H158	H	0.692709	-0.684415	-0.351146
H159	H	0.695164	-0.639074	-0.316837
H160	H	0.760482	-0.614316	-0.345639
H161	H	0.758018	-0.659654	-0.379959
H162	H	0.723636	-0.614377	-0.382305
H163	H	0.730041	-0.345881	-0.744496
H164	H	0.597136	-0.191152	-0.473035
C165	C	0.737762	-0.355003	-0.695277
C166	C	0.712313	-0.388501	-0.722204
C167	C	0.740953	-0.421969	-0.745726
H168	H	0.754870	-0.374970	-0.674635
H169	H	0.757343	-0.335012	-0.713616
H170	H	0.692740	-0.408489	-0.703866
H171	H	0.695206	-0.368547	-0.742854
H172	H	0.760534	-0.401979	-0.764066
H173	H	0.758059	-0.441933	-0.725081
H174	H	0.723690	-0.444698	-0.764002
H175	H	0.177334	-0.157892	-0.297467
H176	H	0.730043	-0.800968	-0.297419
C177	C	0.589268	-0.443504	-0.156484
C178	C	0.595395	-0.389831	-0.162644
C179	C	0.566686	-0.362470	-0.133939
H180	H	0.595829	-0.452403	-0.126287
H181	H	0.559072	-0.452447	-0.163038
H182	H	0.625584	-0.380891	-0.156087
H183	H	0.588830	-0.380915	-0.192835
H184	H	0.536490	-0.371414	-0.140493
H185	H	0.573250	-0.371374	-0.103743
H186	H	0.570837	-0.326050	-0.138117
C187	C	-0.087761	-0.182313	-0.276572
C188	C	-0.060833	-0.211960	-0.305324
C189	C	-0.037322	-0.178659	-0.334176
H190	H	-0.069420	-0.159490	-0.259477
H191	H	-0.108422	-0.162439	-0.293744
H192	H	-0.040175	-0.231825	-0.288155
H193	H	-0.079163	-0.234781	-0.322430
H194	H	-0.057983	-0.158786	-0.351348
H195	H	-0.018983	-0.155838	-0.317077
H196	H	-0.019052	-0.198770	-0.353691
C197	C	0.484529	-0.182173	-0.276497
C198	C	0.453967	-0.152922	-0.301697
C199	C	0.477366	-0.119462	-0.330506
H200	H	0.502831	-0.202146	-0.296078
H201	H	0.502827	-0.159335	-0.259359
H202	H	0.435677	-0.175757	-0.318834
H203	H	0.435664	-0.132938	-0.282128
H204	H	0.495664	-0.096624	-0.313368
H205	H	0.495667	-0.139439	-0.350084
H206	H	0.456633	-0.099608	-0.347605
H207	H	0.393123	-0.191282	-0.268668
C208	C	0.560559	-0.148681	-0.597406
C209	C	0.516107	-0.160077	-0.608798
C210	C	0.487299	-0.126711	-0.585372
H211	H	0.567094	-0.113532	-0.605092
H212	H	0.564633	-0.153475	-0.566098
H213	H	0.512034	-0.155279	-0.640099
H214	H	0.509558	-0.195220	-0.601111
H215	H	0.491373	-0.131505	-0.554064
H216	H	0.493838	-0.091564	-0.593060
H217	H	0.457135	-0.134442	-0.593095
H218	H	0.262439	-0.157896	-0.297465
H219	H	0.701374	-0.953146	-0.268681
C220	C	0.560584	-0.148685	-0.695246
C221	C	0.531761	-0.178276	-0.722154
C222	C	0.502980	-0.144919	-0.745629
H223	H	0.577727	-0.125886	-0.713597
H224	H	0.543460	-0.128789	-0.674562
H225	H	0.548883	-0.198163	-0.742836
H226	H	0.514608	-0.201073	-0.703814
H227	H	0.485856	-0.125022	-0.724945
H228	H	0.520127	-0.122121	-0.763977
H229	H	0.483418	-0.164991	-0.763885
C230	C	-0.185725	-0.182246	-0.276471
C231	C	-0.231840	-0.189390	-0.270301
C232	C	-0.255365	-0.156015	-0.299031
H233	H	-0.178082	-0.189908	-0.306663
H234	H	-0.178049	-0.147094	-0.269946
H235	H	-0.239512	-0.224533	-0.276829
H236	H	-0.239495	-0.181724	-0.240116
H237	H	-0.247690	-0.120863	-0.292507
H238	H	-0.247719	-0.163680	-0.329221
H239	H	-0.286657	-0.160854	-0.294846
H240	H	-0.179388	-0.312458	-0.164255
H241	H	0.597167	-0.191055	-0.960322
C242	C	0.709092	-0.557312	-0.276355
C243	C	0.737904	-0.588661	-0.250955
C244	C	0.766662	-0.615974	-0.279645
H245	H	0.726227	-0.533252	-0.293485
H246	H	0.691916	-0.578644	-0.295913
H247	H	0.755078	-0.567331	-0.231405
H248	H	0.720781	-0.612730	-0.233827
H249	H	0.749487	-0.637306	-0.299203
H250	H	0.783795	-0.591910	-0.296773
H251	H	0.786212	-0.637250	-0.262416
C252	C	0.170869	-0.354908	-0.127561
C253	C	0.201436	-0.384130	-0.102342
C254	C	0.178044	-0.417542	-0.073488
H255	H	0.152559	-0.377769	-0.144652
H256	H	0.152580	-0.334885	-0.107996
H257	H	0.219718	-0.404152	-0.121905
H258	H	0.219747	-0.361283	-0.085242
H259	H	0.159754	-0.397519	-0.053923
H260	H	0.159735	-0.440400	-0.090582
H261	H	0.198780	-0.437370	-0.056371
C262	C	0.386701	-0.321538	-0.156352
C263	C	0.417262	-0.350772	-0.131136
C264	C	0.393862	-0.384187	-0.102290
H265	H	0.368390	-0.344391	-0.173449
H266	H	0.368412	-0.301517	-0.136785
H267	H	0.435543	-0.370792	-0.150700
H268	H	0.435574	-0.327932	-0.114029
H269	H	0.375573	-0.364166	-0.082724
H270	H	0.375552	-0.407037	-0.119391
H271	H	0.414594	-0.404023	-0.085175
C272	C	0.127990	-0.148769	-0.305300
C273	C	0.097424	-0.119522	-0.330499
C274	C	0.120818	-0.086058	-0.359307
H275	H	0.146293	-0.168739	-0.324882
H276	H	0.146286	-0.125929	-0.288162
H277	H	0.079135	-0.142359	-0.347635
H278	H	0.079119	-0.099541	-0.310928
H279	H	0.139114	-0.063218	-0.342170
H280	H	0.139120	-0.106033	-0.378887
H281	H	0.100082	-0.066207	-0.376405
H282	H	0.701350	-0.312403	-0.960324
C283	C	0.589389	-0.182030	-1.051891
C284	C	0.595533	-0.189194	-1.097999
C285	C	0.566829	-0.155825	-1.121557
H286	H	0.595945	-0.146877	-1.044275
H287	H	0.559191	-0.189696	-1.044216
H288	H	0.625724	-0.181524	-1.105672
H289	H	0.588973	-0.224339	-1.105630
H290	H	0.536631	-0.163491	-1.113881
H291	H	0.573388	-0.120675	-1.113937
H292	H	0.570990	-0.160685	-1.152844
C293	C	0.589337	-1.059796	-0.156584
C294	C	0.544880	-1.046557	-0.166330
C295	C	0.516082	-1.073878	-0.137633
H296	H	0.595868	-1.050886	-0.126389
H297	H	0.593424	-1.096224	-0.160709
H298	H	0.540795	-1.010137	-0.162202
H299	H	0.538335	-1.055468	-0.196521
H300	H	0.520168	-1.110306	-0.141758
H301	H	0.522617	-1.064966	-0.107439
H302	H	0.485914	-1.064903	-0.144245
H303	H	0.568411	-0.801267	-0.135549
H304	H	0.478123	-0.312451	-0.164211
C305	C	0.560534	-0.694789	-0.127806
C306	C	0.531709	-0.663461	-0.153211
C307	C	0.502919	-0.636185	-0.124528
H308	H	0.577671	-0.673444	-0.108234
H309	H	0.543412	-0.718887	-0.110692
H310	H	0.548829	-0.639366	-0.170318
H311	H	0.514562	-0.684793	-0.172782
H312	H	0.485798	-0.660282	-0.107413
H313	H	0.520060	-0.614843	-0.104958
H314	H	0.483356	-0.614929	-0.141761
C315	C	0.030113	-0.354911	-0.127581
C316	C	0.060677	-0.384138	-0.102363
C317	C	0.037280	-0.417550	-0.073512
H318	H	0.011802	-0.377768	-0.144674
H319	H	0.011824	-0.334887	-0.108016
H320	H	0.078958	-0.404160	-0.121926
H321	H	0.078989	-0.361294	-0.085261
H322	H	0.018992	-0.397527	-0.053946
H323	H	0.018970	-0.440404	-0.090608
H324	H	0.058014	-0.437382	-0.056395
H325	H	0.701396	-1.052211	-0.268693
H326	H	0.036575	-0.157895	-0.297471
C327	C	0.589452	-0.945882	-0.156488
C328	C	0.614896	-0.914521	-0.127720
C329	C	0.586250	-0.887203	-0.098921
H330	H	0.572351	-0.969939	-0.139321
H331	H	0.569866	-0.924559	-0.173636
H332	H	0.634474	-0.935842	-0.110573
H333	H	0.631997	-0.890454	-0.144873
H334	H	0.566665	-0.865879	-0.116069
H335	H	0.569150	-0.911264	-0.081758
H336	H	0.603509	-0.865917	-0.079402
H337	H	0.121515	-0.345829	-0.135441
H338	H	0.730033	-0.345915	-0.603738
C339	C	0.709172	-0.321510	-1.051721
C340	C	0.734302	-0.350807	-1.021129
C341	C	0.763039	-0.384313	-1.044494
H342	H	0.728800	-0.301567	-1.070037
H343	H	0.691986	-0.344316	-1.070000
H344	H	0.751487	-0.328004	-1.002856
H345	H	0.714686	-0.370760	-1.002811
H346	H	0.745853	-0.407119	-1.062773
H347	H	0.782665	-0.364366	-1.062810
H348	H	0.780091	-0.404198	-1.023741
C349	C	0.589393	-0.182112	-0.381475
C350	C	0.595542	-0.189264	-0.335365
C351	C	0.566879	-0.155846	-0.311818
H352	H	0.559187	-0.189730	-0.389098
H353	H	0.595992	-0.146971	-0.389154
H354	H	0.588940	-0.224397	-0.327689
H355	H	0.625743	-0.181642	-0.327729
H356	H	0.573477	-0.120704	-0.319497
H357	H	0.536674	-0.163466	-0.319444
H358	H	0.571050	-0.160689	-0.280530
C359	C	0.709140	-0.321621	-0.479333
C360	C	0.734277	-0.350917	-0.448745
C361	C	0.763010	-0.384422	-0.472113
H362	H	0.728765	-0.301679	-0.497654
H363	H	0.691952	-0.344429	-0.497610
H364	H	0.751464	-0.328112	-0.430476
H365	H	0.714663	-0.370869	-0.430423
H366	H	0.745822	-0.407230	-0.490390
H367	H	0.782633	-0.364476	-0.490433
H368	H	0.780066	-0.404307	-0.451363
H369	H	0.701323	-0.312501	-0.387920
H370	H	0.568436	-0.157667	-0.744497
C371	C	0.560662	-0.148638	-0.836063
C372	C	0.566805	-0.155804	-0.882171
C373	C	0.538106	-0.122430	-0.905729
H374	H	0.567223	-0.113487	-0.828446
H375	H	0.530463	-0.156298	-0.828387
H376	H	0.596997	-0.148140	-0.889843
H377	H	0.560241	-0.190948	-0.889801
H378	H	0.507907	-0.130090	-0.898053
H379	H	0.544670	-0.087280	-0.898108
H380	H	0.542267	-0.127290	-0.937015
H381	H	0.730049	-0.345864	-0.829601
