data_functionalizedCrystal
_audit_creation_method	'MofGen! by Chris Wilmer'
_symmetry_space_group_name_H-M	'P1'
_symmetry_Int_Tables_number	1
_symmetry_cell_setting	triclinic
loop_
_symmetry_equiv_pos_as_xyz
  x,y,z
_cell_length_a	17.077404
_cell_length_b	21.295417
_cell_length_c	17.077396
_cell_angle_alpha	89.966808
_cell_angle_beta	89.980499
_cell_angle_gamma	90.030732
loop_
_atom_site_label
_atom_site_type_symbol
_atom_site_fract_x
_atom_site_fract_y
_atom_site_fract_z
Zn1	Zn	1.200013	-0.250605	-0.443817
Zn2	Zn	1.199903	-0.355878	-0.312540
Zn3	Zn	1.068745	-0.250628	-0.312565
Zn4	Zn	1.068695	-0.355841	-0.443764
O5	O	1.134339	-0.303238	-0.378171
O6	O	1.309845	-0.264577	-0.426415
O7	O	1.182479	-0.341942	-0.202697
O8	O	1.086225	-0.162535	-0.330008
O9	O	1.309764	-0.341920	-0.329966
O10	O	1.182667	-0.162519	-0.426439
O11	O	1.086118	-0.264614	-0.202715
O12	O	0.958891	-0.264578	-0.329957
O13	O	1.086140	-0.341857	-0.553618
O14	O	0.958855	-0.341878	-0.426348
O15	O	1.182619	-0.264540	-0.553657
O16	O	1.182431	-0.443963	-0.329915
O17	O	1.086033	-0.443935	-0.426324
C18	C	0.930391	-0.303227	-0.378150
C19	C	0.843141	-0.303237	-0.378159
C20	C	0.802153	-0.343548	-0.428270
C21	C	0.720172	-0.343549	-0.428282
C22	C	0.679182	-0.303242	-0.378180
C23	C	0.720176	-0.262927	-0.328067
C24	C	0.802155	-0.262923	-0.328059
C25	C	0.549306	-0.262940	-0.328086
C26	C	0.467322	-0.262944	-0.328093
C27	C	0.467323	-0.343566	-0.428309
C28	C	0.549302	-0.343562	-0.428301
C29	C	0.590291	-0.303247	-0.378187
C30	C	1.134236	-0.466790	-0.378128
C31	C	1.134264	-0.536758	-0.378136
C32	C	1.184503	-0.569618	-0.327987
C33	C	1.184539	-0.635360	-0.328004
C34	C	1.134323	-0.668240	-0.378163
C35	C	1.084081	-0.635372	-0.428321
C36	C	1.084051	-0.569631	-0.428308
N37	N	1.065655	-0.771506	-0.384140
N38	N	1.065685	-0.833958	-0.384148
C39	C	1.134411	-0.866315	-0.378208
N40	N	1.203107	-0.833862	-0.372244
N41	N	1.203076	-0.771405	-0.372231
C42	C	1.134351	-0.739526	-0.378183
C43	C	1.184694	-0.970461	-0.328075
C44	C	1.184732	-1.036204	-0.328098
C45	C	1.084267	-1.036215	-0.428411
C46	C	1.084236	-0.970473	-0.428392
C47	C	1.134449	-0.937599	-0.378220
C48	C	1.339083	-0.303250	-0.378194
C49	C	1.426333	-0.303255	-0.378203
C50	C	1.134386	-0.303192	-0.582916
C51	C	1.134407	-0.303172	-0.670166
C52	C	1.134464	-0.139048	-0.378232
C53	C	1.134517	-0.069080	-0.378258
C54	C	1.184645	-0.262910	-0.711177
C55	C	1.184654	-0.262889	-0.793158
C56	C	1.134429	-0.303134	-0.834125
C57	C	1.084185	-0.343397	-0.793108
C58	C	1.084172	-0.343415	-0.711129
C59	C	1.084217	-0.343360	-0.963978
C60	C	1.084231	-0.343343	-1.045963
C61	C	1.184699	-0.262834	-1.046007
C62	C	1.184686	-0.262851	-0.964028
C63	C	1.134443	-0.303116	-0.923016
C64	C	1.134337	-0.303239	-0.174224
C65	C	1.134469	-0.303081	-0.086974
H66	H	0.582674	-0.376386	-0.469094
H67	H	1.043255	-0.376194	-0.677738
O68	O	1.233516	-0.223904	-0.671349
C69	C	1.339453	-0.215452	-0.578776
C70	C	1.284172	-0.259701	-0.623845
H71	H	1.380411	-0.244375	-0.540346
H72	H	1.375417	-0.186680	-0.622137
H73	H	1.303412	-0.182532	-0.540439
H74	H	1.320152	-0.292659	-0.662183
H75	H	1.248205	-0.288428	-0.580442
H76	H	1.225565	-0.230105	-0.826546
O77	O	0.427429	-0.223738	-0.279551
C78	C	0.334988	-0.138689	-0.269261
C79	C	0.380095	-0.183074	-0.324313
H80	H	0.296720	-0.105792	-0.305429
H81	H	0.296508	-0.167486	-0.228145
H82	H	0.378394	-0.109900	-0.233446
H83	H	0.336746	-0.211872	-0.360179
H84	H	0.418587	-0.154240	-0.365377
H85	H	0.433946	-0.376389	-0.469116
O86	O	0.842062	-0.223855	-0.279341
C87	C	0.934546	-0.215276	-0.173343
C88	C	0.889414	-0.259594	-0.228477
H89	H	0.972828	-0.244154	-0.132195
H90	H	0.973014	-0.182407	-0.209414
H91	H	0.891156	-0.186454	-0.137569
H92	H	0.932748	-0.288457	-0.264264
H93	H	0.850935	-0.292422	-0.192362
O94	O	1.035399	-0.382542	-0.924259
C95	C	0.935752	-0.462396	-0.932861
C96	C	0.990996	-0.418057	-0.977940
H97	H	0.899826	-0.491112	-0.976243
H98	H	0.971742	-0.495358	-0.894506
H99	H	0.894750	-0.433506	-0.894453
H100	H	1.032010	-0.446896	-1.016391
H101	H	0.954958	-0.385093	-1.016246
O102	O	1.233500	-0.223700	-0.924352
C103	C	1.333185	-0.143870	-0.933043
C104	C	1.277932	-0.188167	-0.978073
H105	H	1.369134	-0.115140	-0.976456
H106	H	1.297201	-0.110920	-0.894690
H107	H	1.374165	-0.172794	-0.894637
H108	H	1.236941	-0.159294	-1.016522
H109	H	1.313965	-0.221119	-1.016376
H110	H	1.043384	-1.062985	-0.469255
H111	H	0.835521	-0.376372	-0.469066
O112	O	1.233433	-0.938591	-0.279237
C113	C	1.271570	-0.918499	-0.145739
C114	C	1.216339	-0.954640	-0.200960
H115	H	1.257759	-0.931451	-0.082440
H116	H	1.334879	-0.931378	-0.159520
H117	H	1.262926	-0.865870	-0.154381
H118	H	1.224914	-1.007277	-0.192349
H119	H	1.153051	-0.941709	-0.187166
O120	O	1.035410	-0.667378	-0.477083
C121	C	1.024825	-0.741520	-0.583098
C122	C	1.080031	-0.705325	-0.527908
H123	H	1.060880	-0.772198	-0.624215
H124	H	0.983826	-0.772390	-0.547071
H125	H	0.988893	-0.706726	-0.618905
H126	H	1.116014	-0.740073	-0.492090
H127	H	1.120979	-0.674445	-0.563980
O128	O	0.680478	-0.382774	-0.476975
C129	C	0.689131	-0.462729	-0.576387
C130	C	0.734181	-0.418345	-0.521270
H131	H	0.732531	-0.491490	-0.612226
H132	H	0.650740	-0.495646	-0.540302
H133	H	0.650761	-0.433871	-0.617476
H134	H	0.772594	-0.447151	-0.480170
H135	H	0.772523	-0.385425	-0.557403
O136	O	1.233441	-0.667227	-0.279322
C137	C	1.366984	-0.687330	-0.241347
C138	C	1.311698	-0.651189	-0.296517
H139	H	1.430267	-0.674386	-0.255240
H140	H	1.353284	-0.674442	-0.178024
H141	H	1.358325	-0.739959	-0.249968
H142	H	1.320327	-0.598552	-0.287965
H143	H	1.325412	-0.664129	-0.359819
H144	H	1.043324	-0.943716	-0.469225
O145	O	1.035546	-0.382493	-1.085800
C146	C	1.024911	-0.467419	-1.178378
C147	C	1.080139	-0.423137	-1.133295
H148	H	1.060942	-0.500282	-1.216801
H149	H	0.989001	-0.496243	-1.135027
H150	H	0.983893	-0.438479	-1.216725
H151	H	1.121205	-0.452029	-1.094947
H152	H	1.115994	-0.394311	-1.176688
H153	H	0.686795	-0.230106	-0.287276
O154	O	0.589002	-0.223762	-0.279326
C155	C	0.580354	-0.143785	-0.179943
C156	C	0.535301	-0.188124	-0.235114
H157	H	0.536956	-0.114950	-0.144194
H158	H	0.618673	-0.172619	-0.138778
H159	H	0.618796	-0.110929	-0.216058
H160	H	0.496817	-0.220988	-0.199062
H161	H	0.497031	-0.159251	-0.276281
H162	H	1.225390	-0.542854	-0.287136
H163	H	1.225607	-0.230048	-1.079403
H164	H	1.043140	-0.542876	-0.469146
H165	H	1.225648	-1.062958	-0.287263
H166	H	1.043288	-0.376163	-0.826470
