data_functionalizedCrystal
_audit_creation_method	'MofGen! by Chris Wilmer'
_symmetry_space_group_name_H-M	'P1'
_symmetry_Int_Tables_number	1
_symmetry_cell_setting	triclinic
loop_
_symmetry_equiv_pos_as_xyz
  x,y,z
_cell_length_a	16.704494
_cell_length_b	14.628931
_cell_length_c	14.628931
_cell_angle_alpha	59.999807
_cell_angle_beta	90.000475
_cell_angle_gamma	56.632323
loop_
_atom_site_label
_atom_site_type_symbol
_atom_site_fract_x
_atom_site_fract_y
_atom_site_fract_z
Zr1	Zr	0.815200	0.905008	-0.072169
O2	O	0.680082	1.111554	-0.226052
O3	O	0.856620	0.709446	-0.024995
O4	O	0.856620	0.900152	-0.215701
O5	O	0.680082	0.920848	0.115086
O6	O	0.995877	0.883826	-0.207537
O7	O	0.680082	0.920848	-0.035346
O8	O	0.995877	0.542688	0.133601
O9	O	0.680082	1.261986	-0.226052
O10	O	0.978211	0.773631	0.001216
O11	O	0.874286	0.785815	0.107389
O12	O	0.874286	1.010346	-0.117143
O13	O	0.770360	1.022530	-0.010970
Zr14	Zr	1.037298	0.878969	0.180774
Zr15	Zr	1.037298	0.878970	-0.059148
Zr16	Zr	0.815200	0.905007	0.167753
Zr17	Zr	0.815200	1.144929	-0.072169
Zr18	Zr	1.037298	0.639048	0.180775
O19	O	0.995878	1.074531	0.133601
O20	O	0.995877	1.074532	-0.207537
O21	O	0.680082	1.111553	0.115086
O22	O	1.172416	0.672422	0.334657
O23	O	1.172415	0.672423	-0.006481
O24	O	0.856621	0.709445	0.316143
O25	O	1.172416	0.863129	-0.006481
O26	O	0.995878	0.883825	0.324307
O27	O	0.856621	0.900151	0.316142
O28	O	1.172416	0.863128	0.143951
O29	O	0.856621	1.241290	-0.215702
O30	O	0.995877	0.542687	0.324307
O31	O	1.172416	0.521990	0.334657
O32	O	1.172415	0.521991	0.143951
O33	O	0.680082	1.261986	-0.035346
O34	O	0.856621	1.241289	-0.024996
O35	O	0.978212	0.773630	0.225748
O36	O	1.082137	0.761447	0.119575
O37	O	0.978212	0.998162	0.001216
O38	O	0.874286	1.010346	0.107389
C39	C	0.926248	0.591883	0.054303
C40	C	0.926248	0.490030	0.054303
C41	C	0.648438	0.924558	0.038015
C42	C	0.554151	0.935612	0.032487
C43	C	0.977802	0.438577	0.001634
C44	C	0.977803	0.333307	0.001633
C45	C	0.485483	0.709230	0.145694
C46	C	0.396896	0.719610	0.140503
C47	C	0.288387	0.966749	0.016922
C48	C	0.376975	0.956370	0.022113
C49	C	0.475522	0.827606	0.086500
C50	C	0.564111	0.817227	0.091683
C51	C	0.455601	1.064366	-0.031891
C52	C	0.367013	1.074745	-0.037082
C53	C	1.204060	0.859419	0.070590
C54	C	1.298346	0.848365	0.076118
C55	C	0.926248	0.891989	-0.245803
C56	C	0.926248	0.891990	-0.347656
C57	C	0.926249	1.192094	0.054302
C58	C	0.926249	1.293947	0.054302
C59	C	0.977802	0.774563	-0.334351
C60	C	0.977803	0.774560	-0.439621
C61	C	0.926249	0.891987	0.354408
C62	C	0.926249	0.891987	0.456261
C63	C	1.204059	0.559314	0.070591
C64	C	1.298346	0.446407	0.076119
C65	C	0.926249	0.591882	0.354409
C66	C	0.926249	0.490029	0.456262
C67	C	1.204060	0.559313	0.370696
C68	C	1.298346	0.446406	0.478077
C69	C	0.648438	1.224664	-0.262091
C70	C	0.554151	1.337571	-0.369472
C71	C	0.648438	1.224663	0.038015
C72	C	0.554152	1.337570	0.032487
C73	C	0.926249	1.192094	-0.245803
C74	C	0.926249	1.293948	-0.347657
C75	C	1.288376	0.399745	0.016922
C76	C	1.376959	0.293671	0.022094
C77	C	1.475512	0.234255	0.086468
C78	C	1.485480	0.280927	0.145666
C79	C	1.396898	0.387005	0.140488
C80	C	1.396882	0.387023	0.473084
C81	C	1.485482	0.280947	0.573971
C82	C	1.475546	0.234249	0.679851
C83	C	1.377000	0.293643	0.684841
C84	C	1.288401	0.399724	0.583955
C85	C	0.455616	1.396966	-0.364479
C86	C	0.367015	1.503071	-0.465366
C87	C	0.376952	1.549774	-0.571245
C88	C	0.475498	1.490374	-0.576236
C89	C	0.564096	1.384277	-0.475350
C90	C	0.564122	1.384242	0.091673
C91	C	0.475539	1.490342	0.086475
C92	C	0.376986	1.549762	0.022097
C93	C	0.367017	1.503085	-0.037096
C94	C	0.455600	1.396994	-0.031904
C95	C	0.977803	0.438575	0.560385
C96	C	0.977804	0.333305	0.665657
H97	H	1.021944	0.472453	-0.043452
Cl98	Cl	0.443097	1.338277	-0.231386
H99	H	0.286767	1.179581	-0.089499
Cl100	Cl	0.265560	1.683154	-0.698065
Cl101	Cl	1.586864	0.100896	0.092969
Cl102	Cl	1.364525	0.234920	0.817957
Cl103	Cl	0.858095	1.047212	-0.485563
H104	H	0.483576	1.528413	-0.662455
Cl105	Cl	1.586938	0.100886	0.806671
H106	H	1.565714	0.232598	0.569888
H107	H	0.882114	0.992525	-0.554963
Cl108	Cl	0.243142	1.577719	-0.459066
Cl109	Cl	1.045943	0.490890	0.577701
H110	H	1.208173	0.448061	0.588036
H111	H	1.208137	0.448120	-0.035512
H112	H	1.021944	0.674027	-0.428404
Cl113	Cl	0.488094	1.548993	0.160902
H114	H	0.286764	1.551481	-0.089511
Cl115	Cl	0.688007	1.309571	0.172608
Cl116	Cl	1.045945	0.265039	-0.067996
H117	H	1.368822	0.255685	-0.026113
H118	H	0.304864	1.636147	0.017880
Cl119	Cl	0.858108	0.437716	0.123931
Cl120	Cl	0.687966	1.309612	-0.481647
H121	H	1.565734	0.232535	0.198078
H122	H	1.405030	0.424983	0.188699
Cl123	Cl	1.409401	0.445713	0.339992
H124	H	0.447467	1.358997	-0.080098
H125	H	1.021935	0.674032	-0.245027
H126	H	1.021943	0.289077	0.754976
H127	H	0.882116	0.338158	0.563033
Cl128	Cl	0.858095	0.437731	0.438945
H129	H	0.882105	0.338172	0.099391
Cl130	Cl	0.409424	0.570788	0.214925
H131	H	0.644349	0.712381	0.144118
H132	H	0.208138	1.071582	-0.035483
Cl133	Cl	0.609371	0.547361	0.226620
H134	H	0.447496	1.160756	-0.080095
