data_functionalizedCrystal
_audit_creation_method	'MofGen! by Chris Wilmer'
_symmetry_space_group_name_H-M	'P1'
_symmetry_Int_Tables_number	1
_symmetry_cell_setting	triclinic
loop_
_symmetry_equiv_pos_as_xyz
  x,y,z
_cell_length_a	31.640172
_cell_length_b	17.052862
_cell_length_c	17.052862
_cell_angle_alpha	61.493325
_cell_angle_beta	90.004527
_cell_angle_gamma	70.263359
loop_
_atom_site_label
_atom_site_type_symbol
_atom_site_fract_x
_atom_site_fract_y
_atom_site_fract_z
Zr1	Zr	0.489848	0.816604	-0.200346
O2	O	0.443172	0.944506	-0.328485
O3	O	0.493880	0.665882	-0.146154
O4	O	0.516528	0.783681	-0.306961
O5	O	0.414348	0.860635	-0.057791
O6	O	0.586083	0.783670	-0.306944
O7	O	0.420524	0.826707	-0.167677
O8	O	0.545569	0.572948	-0.019289
O9	O	0.454862	1.071356	-0.345446
O10	O	0.559923	0.736319	-0.141044
O11	O	0.503407	0.761648	-0.059049
O12	O	0.530072	0.900341	-0.248379
O13	O	0.473556	0.925670	-0.166385
Zr14	Zr	0.590931	0.870697	-0.025063
Zr15	Zr	0.600780	0.816586	-0.200319
Zr16	Zr	0.479999	0.870715	-0.025090
Zr17	Zr	0.508492	1.018915	-0.227397
Zr18	Zr	0.572287	0.668386	0.001988
O19	O	0.586899	1.021419	-0.079255
O20	O	0.600903	0.944480	-0.328447
O21	O	0.429168	1.021445	-0.079293
O22	O	0.637607	0.742795	0.103076
O23	O	0.651611	0.665856	-0.146116
O24	O	0.479876	0.742821	0.103038
O25	O	0.666430	0.826666	-0.167618
O26	O	0.564251	0.903620	0.081552
O27	O	0.494696	0.903631	0.081535
O28	O	0.660255	0.860594	-0.057732
O29	O	0.543038	1.071342	-0.345425
O30	O	0.537741	0.615959	0.120016
O31	O	0.625917	0.615945	0.120037
O32	O	0.633745	0.572934	-0.019268
O33	O	0.447033	1.114367	-0.206141
O34	O	0.535209	1.114353	-0.206120
O35	O	0.550706	0.786959	0.022970
O36	O	0.607223	0.761631	-0.059024
O37	O	0.577372	0.925653	-0.166360
O38	O	0.520855	0.950981	-0.084365
C39	C	0.517068	0.590590	-0.078867
C40	C	0.509153	0.504704	-0.067383
C41	C	0.604846	0.209724	-0.206225
C42	C	0.612281	0.290421	-0.217021
C43	C	0.586500	0.343995	-0.179612
C44	C	0.553282	0.316865	-0.131406
C45	C	0.545843	0.236164	-0.120615
C46	C	0.527497	0.370436	-0.094003
C47	C	0.494278	0.343305	-0.045797
C48	C	0.486841	0.262612	-0.035007
C49	C	0.512622	0.209038	-0.072416
C50	C	0.534936	0.451137	-0.104794
C51	C	0.475933	0.477577	-0.019184
C52	C	0.468497	0.396880	-0.008388
C53	C	0.401631	0.843673	-0.112738
C54	C	0.354537	0.843681	-0.112749
C55	C	0.078105	0.758027	-0.056659
C56	C	-0.098883	0.758014	-0.056640
O57	O	-0.108518	0.685207	-0.008960
N58	N	-0.136594	0.843630	-0.112669
C59	C	-0.130058	0.929258	-0.168702
O60	O	-0.166195	1.002082	-0.216351
C61	C	0.046929	0.929272	-0.168715
C62	C	0.084640	0.843648	-0.112690
C63	C	0.115815	0.672410	-0.000636
C64	C	0.160059	0.672413	-0.000645
C65	C	0.166594	0.758034	-0.056676
C66	C	0.128884	0.843651	-0.112698
C67	C	0.053465	1.014900	-0.224743
C68	C	0.097716	1.014897	-0.224740
C69	C	0.135426	0.929273	-0.168714
C70	C	0.179663	0.929275	-0.168738
N71	N	0.217375	0.843658	-0.112709
C72	C	0.210840	0.758038	-0.056678
C73	C	-0.222977	0.929244	-0.168693
C74	C	-0.267224	0.929240	-0.168691
C75	C	-0.236046	0.757996	-0.056627
C76	C	-0.191798	0.757999	-0.056634
C77	C	-0.185265	0.843627	-0.112664
C78	C	0.303755	0.758051	-0.056702
C79	C	0.348002	0.758061	-0.056718
C80	C	0.316820	0.929305	-0.168778
C81	C	0.272577	0.929295	-0.168766
C82	C	0.266047	0.843661	-0.112720
O83	O	0.189333	1.002045	-0.216385
O84	O	0.246983	0.685229	-0.009022
C85	C	0.033861	0.758024	-0.056650
C86	C	-0.003849	0.843641	-0.112672
C87	C	0.002686	0.929262	-0.168703
C88	C	-0.048095	0.843638	-0.112670
C89	C	-0.054630	0.758017	-0.056639
C90	C	-0.016918	0.672401	-0.000610
C91	C	0.027326	0.672404	-0.000619
C92	C	-0.035026	1.014879	-0.224732
C93	C	-0.079269	1.014868	-0.224719
C94	C	-0.085803	0.929248	-0.168688
C95	C	0.679148	0.843628	-0.112671
C96	C	0.726242	0.843620	-0.112660
C97	C	0.552709	0.775966	-0.331923
C98	C	0.556890	0.752994	-0.406324
C99	C	0.563711	1.096711	-0.146542
C100	C	0.571626	1.182597	-0.158026
C101	C	0.506341	1.030721	-0.840165
C102	C	0.502410	1.052307	-0.770264
C103	C	0.516030	0.977481	-0.679276
C104	C	0.533581	0.881065	-0.658195
C105	C	0.537509	0.859476	-0.728103
C106	C	0.547198	0.806236	-0.567214
C107	C	0.564749	0.709820	-0.546133
C108	C	0.568677	0.688236	-0.616036
C109	C	0.555057	0.763062	-0.707023
C110	C	0.543270	0.827824	-0.497306
C111	C	0.574438	0.656580	-0.385244
C112	C	0.578369	0.634994	-0.455145
C113	C	0.528070	0.911335	0.106514
C114	C	0.523889	0.934307	0.180915
C115	C	0.655827	0.590567	-0.078834
C116	C	0.695005	0.504673	-0.067339
C117	C	0.504749	0.658275	0.140351
C118	C	0.492653	0.595360	0.226236
C119	C	0.643507	0.658252	0.140385
C120	C	0.678505	0.595329	0.226281
C121	C	0.437271	1.029049	-0.365794
C122	C	0.402274	1.091972	-0.451690
C123	C	0.424952	1.096734	-0.146575
C124	C	0.385773	1.182628	-0.158070
C125	C	0.576030	1.029026	-0.365760
C126	C	0.588126	1.091941	-0.451645
C127	C	0.688715	0.451122	-0.104761
C128	C	0.725525	0.370421	-0.093978
C129	C	0.768624	0.343269	-0.045766
C130	C	0.774915	0.396829	-0.008344
C131	C	0.738106	0.477532	-0.019133
C132	C	0.511662	0.579029	0.309389
C133	C	0.500295	0.519927	0.390092
C134	C	0.469921	0.477152	0.387641
C135	C	0.450910	0.493488	0.304478
C136	C	0.462275	0.552594	0.223777
C137	C	0.724446	0.552559	0.223818
C138	C	0.757335	0.493446	0.304519
C139	C	0.744282	0.477098	0.387681
C140	C	0.698337	0.519876	0.390141
C141	C	0.665449	0.578994	0.309441
C142	C	0.356334	1.134752	-0.449229
C143	C	0.323447	1.193890	-0.529932
C144	C	0.336500	1.210242	-0.613095
C145	C	0.382445	1.167459	-0.615555
C146	C	0.415332	1.108327	-0.534853
C147	C	0.392065	1.236185	-0.120657
C148	C	0.355258	1.316902	-0.131462
C149	C	0.312159	1.344056	-0.179676
C150	C	0.305868	1.290493	-0.217095
C151	C	0.342676	1.209782	-0.206295
C152	C	0.618501	1.134699	-0.449164
C153	C	0.629875	1.193805	-0.529854
C154	C	0.610872	1.210158	-0.613024
C155	C	0.580495	1.167393	-0.615502
C156	C	0.569124	1.108282	-0.534813
H157	H	0.592556	0.409702	-0.188405
N158	N	0.648111	0.319680	-0.268996
H159	H	0.633147	0.387391	-0.322910
H160	H	0.663308	0.273438	-0.290993
N161	N	0.642231	0.480394	-0.156760
H162	H	0.643839	0.434218	-0.178829
H163	H	0.632576	0.548120	-0.210629
N164	N	0.491647	1.111417	-0.938294
H165	H	0.496798	1.083109	-0.979376
H166	H	0.510214	1.152581	-0.950546
H167	H	0.427155	1.214086	-0.081391
N168	N	0.272459	1.431104	-0.191320
H169	H	0.279982	1.490542	-0.224632
H170	H	0.266616	1.420823	-0.129553
H171	H	0.720394	0.326821	-0.124453
N172	N	0.520804	0.502303	0.479784
H173	H	0.511904	0.565899	0.478090
H174	H	0.555250	0.470800	0.490760
H175	H	0.270772	1.312615	-0.256352
N176	N	0.536359	1.062175	-0.537504
H177	H	0.505868	1.114229	-0.576636
H178	H	0.532072	1.022237	-0.473745
N179	N	0.570762	0.480391	-0.156785
H180	H	0.601731	0.425748	-0.126092
H181	H	0.571524	0.539661	-0.157938
H182	H	0.360389	1.360502	-0.100986
N183	N	0.451013	0.233347	0.016985
H184	H	0.435811	0.279524	0.039051
H185	H	0.466014	0.165621	0.070855
H186	H	0.582964	0.609727	-0.598865
H187	H	0.286039	1.228715	-0.527912
N188	N	0.597299	0.531005	-0.432413
H189	H	0.597721	0.528689	-0.490505
H190	H	0.577360	0.497388	-0.395731
N191	N	0.623134	1.273929	-0.700050
H192	H	0.606486	1.277807	-0.753120
H193	H	0.657250	1.245785	-0.696227
N194	N	0.589128	0.575866	-0.287113
H195	H	0.583978	0.604171	-0.246028
H196	H	0.622679	0.534700	-0.274860
H197	H	0.565025	1.180717	-0.683231
N198	N	0.511794	1.000757	-0.603880
H199	H	0.498611	1.073190	-0.631040
H200	H	0.543039	0.972280	-0.565071
N201	N	0.632643	0.151956	-0.246585
H202	H	0.622887	0.096723	-0.232438
H203	H	0.666194	0.125460	-0.219639
H204	H	0.454939	0.521200	0.011275
H205	H	0.441450	0.374779	0.030861
N206	N	0.504604	0.121993	-0.060765
H207	H	0.525979	0.092171	-0.091774
H208	H	0.471854	0.142629	-0.088878
N209	N	0.301029	1.274013	-0.700137
H210	H	0.285905	1.340967	-0.709120
H211	H	0.277175	1.245836	-0.696352
H212	H	0.022767	1.084626	-0.270365
H213	H	0.103029	1.084631	-0.270356
N214	N	0.615896	0.625107	0.312101
H215	H	0.605307	0.697753	0.274173
H216	H	0.612655	0.605700	0.377056
N217	N	0.396520	1.185098	-0.705255
H218	H	0.368712	1.229046	-0.755998
H219	H	0.410766	1.121468	-0.703492
H220	H	0.633978	1.121396	-0.381451
H221	H	0.241872	0.999014	-0.214397
N222	N	0.441744	0.570261	0.134084
H223	H	0.420772	0.534209	0.144783
H224	H	0.467043	0.546701	0.105049
H225	H	0.378707	0.688332	-0.011092
N226	N	-0.215935	1.021602	-0.229142
H227	H	-0.200586	1.038149	-0.190484
H228	H	-0.246557	1.075767	-0.264623
N229	N	0.335886	1.152019	-0.246651
H230	H	0.302997	1.181474	-0.278829
H231	H	0.343385	1.083145	-0.196511
H232	H	0.322150	0.999015	-0.214400
N233	N	0.738533	0.570192	0.134129
H234	H	0.710732	0.614133	0.083370
H235	H	0.752789	0.506560	0.135897
H236	H	0.528978	0.906328	-0.514479
H237	H	0.488120	1.130809	-0.787434
H238	H	0.426179	0.458652	0.302496
N239	N	0.296715	0.665691	0.003746
H240	H	0.327322	0.611460	0.039229
H241	H	0.281348	0.649244	-0.034979
N242	N	0.464880	1.062165	-0.537505
H243	H	0.484228	1.084554	-0.512283
H244	H	0.468116	1.081508	-0.602451
N245	N	-0.119943	1.107224	-0.285149
H246	H	-0.116749	1.131953	-0.350817
H247	H	-0.121340	1.157292	-0.268390
H248	H	0.654608	1.228622	-0.527819
N249	N	0.806887	0.447312	0.301854
H250	H	0.810161	0.466634	0.236925
H251	H	0.817439	0.374679	0.339832
H252	H	0.460672	0.429026	0.453360
H253	H	0.190761	0.602688	0.044973
H254	H	0.810011	0.374710	0.030910
H255	H	0.058028	0.602680	0.045005
H256	H	-0.161096	0.688278	-0.011006
N257	N	0.108772	0.580055	0.059803
H258	H	0.139379	0.525827	0.095287
H259	H	0.093407	0.563608	0.021075
N260	N	0.744894	0.535289	0.021231
H261	H	0.724032	0.534550	0.066189
H262	H	0.737425	0.604147	-0.028917
H263	H	-0.241373	0.688279	-0.011009
N264	N	-0.307894	1.021588	-0.229129
H265	H	-0.297036	1.075825	-0.264620
H266	H	-0.329243	1.038031	-0.190399
N267	N	-0.023975	0.580054	0.059816
H268	H	-0.043951	0.588956	0.103480
H269	H	0.006643	0.525851	0.095253
N270	N	-0.027981	1.107229	-0.285176
H271	H	-0.058587	1.161458	-0.320666
H272	H	-0.007994	1.098241	-0.328791
N273	N	0.779757	0.413335	0.474719
H274	H	0.810840	0.388722	0.460531
H275	H	0.771680	0.356803	0.517283
N276	N	0.808321	0.256223	-0.034137
H277	H	0.800795	0.196789	-0.000826
H278	H	0.836565	0.247227	0.002058
N279	N	0.559301	0.739777	-0.782418
H280	H	0.548012	0.801811	-0.843253
H281	H	0.540311	0.700939	-0.777186
H282	H	0.687715	0.506557	0.457863
N283	N	0.544418	0.625169	0.312041
H284	H	0.571916	0.602754	0.286837
H285	H	0.554694	0.605839	0.376986
N286	N	0.342248	1.117120	-0.359538
H287	H	0.308154	1.153203	-0.370238
H288	H	0.358989	1.140685	-0.330538
