data_functionalizedCrystal
_audit_creation_method	'MofGen! by Chris Wilmer'
_symmetry_space_group_name_H-M	'P1'
_symmetry_Int_Tables_number	1
_symmetry_cell_setting	triclinic
loop_
_symmetry_equiv_pos_as_xyz
  x,y,z
_cell_length_a	14.908571
_cell_length_b	17.640280
_cell_length_c	14.908694
_cell_angle_alpha	81.377015
_cell_angle_beta	83.592472
_cell_angle_gamma	74.921313
loop_
_atom_site_label
_atom_site_type_symbol
_atom_site_fract_x
_atom_site_fract_y
_atom_site_fract_z
Zn1	Zn	1.504199	-0.416132	-0.500831
Zn2	Zn	2.004199	0.083868	-0.000831
Zn3	Zn	1.522460	-0.540223	-0.322426
Zn4	Zn	2.022460	-0.040223	0.177574
Zn5	Zn	1.340571	-0.399965	-0.344289
Zn6	Zn	1.840571	0.100035	0.155711
Zn7	Zn	1.379879	-0.540161	-0.465038
Zn8	Zn	1.879879	-0.040161	0.034962
O9	O	1.436777	-0.474120	-0.408146
O10	O	1.936777	0.025880	0.091854
O11	O	1.634771	-0.439384	-0.482995
O12	O	2.134771	0.060616	0.017005
O13	O	1.489524	-0.514877	-0.200130
O14	O	1.989524	-0.014877	0.299870
O15	O	1.338183	-0.291504	-0.389184
O16	O	1.838183	0.208496	0.110816
O17	O	1.648188	-0.530554	-0.351922
O18	O	2.148188	-0.030554	0.148078
O19	O	1.458400	-0.303382	-0.504195
O20	O	1.958400	0.196618	-0.004195
O21	O	1.355891	-0.411830	-0.216192
O22	O	1.855891	0.088170	0.283808
O23	O	1.217635	-0.411770	-0.354477
O24	O	1.717635	0.088230	0.145523
O25	O	1.405178	-0.530449	-0.594983
O26	O	1.905178	-0.030449	-0.094983
O27	O	1.246515	-0.514772	-0.443190
O28	O	1.746515	-0.014772	0.056810
O29	O	1.496515	-0.439325	-0.621280
O30	O	1.996515	0.060675	-0.121280
O31	O	1.527640	-0.650820	-0.317215
O32	O	2.027640	-0.150820	0.182785
O33	O	1.422886	-0.650775	-0.421991
O34	O	1.922886	-0.150775	0.078009
C35	C	1.198847	-0.461511	-0.397322
C36	C	1.698847	0.038489	0.102678
C37	C	1.097065	-0.456137	-0.392709
C38	C	1.597065	0.043863	0.107291
C39	C	0.935951	-0.553443	-0.476230
C40	C	1.435951	-0.053443	0.023770
C41	C	0.840319	-0.548396	-0.471898
C42	C	1.340319	-0.048396	0.028102
C43	C	0.810166	-0.440993	-0.379719
C44	C	1.310166	0.059007	0.120281
C45	C	0.905799	-0.446040	-0.384051
C46	C	1.405799	0.053960	0.115949
C47	C	0.968688	-0.502267	-0.432307
C48	C	1.468688	-0.002267	0.067693
C49	C	1.064323	-0.507317	-0.436633
C50	C	1.564323	-0.007317	0.063367
C51	C	1.034169	-0.399911	-0.344460
C52	C	1.534169	0.100089	0.155540
C53	C	0.938536	-0.394865	-0.340128
C54	C	1.438536	0.105135	0.159872
C55	C	1.481536	-0.679479	-0.363367
C56	C	1.981536	-0.179479	0.136633
C57	C	1.500770	-0.767338	-0.344244
C58	C	2.000770	-0.267338	0.155756
C59	C	1.291057	-1.056285	-0.553764
C60	C	1.791057	-0.556285	-0.053764
C61	C	1.309130	-1.138841	-0.535766
C62	C	1.809130	-0.638841	-0.035766
C63	C	1.418291	-1.138833	-0.426782
C64	C	1.918291	-0.638833	0.073218
C65	C	1.400231	-1.056275	-0.444773
C66	C	1.900231	-0.556275	0.055227
C67	C	1.336612	-1.015008	-0.508264
C68	C	1.836612	-0.515008	-0.008264
C69	C	1.445786	-1.014998	-0.399274
C70	C	1.945786	-0.514998	0.100726
C71	C	1.427723	-0.932448	-0.417261
C72	C	1.927723	-0.432448	0.082739
C73	C	1.364105	-0.891175	-0.480747
C74	C	1.864105	-0.391175	0.019253
C75	C	1.318549	-0.932458	-0.526251
C76	C	1.818549	-0.432458	-0.026251
C77	C	1.509399	-1.056267	-0.335778
C78	C	2.009399	-0.556267	0.164222
C79	C	1.554954	-1.014990	-0.290279
C80	C	2.054954	-0.514990	0.209721
C81	C	1.536896	-0.932438	-0.308270
C82	C	2.036896	-0.432438	0.191730
C83	C	1.473278	-0.891165	-0.371756
C84	C	1.973278	-0.391165	0.128244
C85	C	1.582452	-0.891156	-0.262766
C86	C	2.082452	-0.391156	0.237234
C87	C	1.564389	-0.808605	-0.280753
C88	C	2.064389	-0.308605	0.219247
C89	C	1.455215	-0.808615	-0.389743
C90	C	1.955215	-0.308615	0.110257
C91	C	1.675636	-0.486779	-0.419012
C92	C	2.175636	0.013221	0.080988
C93	C	1.777424	-0.492174	-0.423643
C94	C	2.277424	0.007826	0.076357
C95	C	1.453194	-0.486684	-0.641501
C96	C	1.953194	0.013316	-0.141501
C97	C	1.460190	-0.492037	-0.740943
C98	C	1.960190	0.007963	-0.240943
C99	C	1.391870	-0.267962	-0.453121
C100	C	1.891870	0.232038	0.046879
C101	C	1.372733	-0.180110	-0.472286
C102	C	1.872733	0.319890	0.027714
C103	C	1.334163	-0.394796	-0.944531
C104	C	1.834163	0.105204	-0.444531
C105	C	1.340733	-0.399823	-1.037966
C106	C	1.840733	0.100177	-0.537966
C107	C	1.479895	-0.507123	-1.021249
C108	C	1.979895	-0.007123	-0.521249
C109	C	1.473325	-0.502096	-0.927814
C110	C	1.973325	-0.002096	-0.427814
C111	C	1.400458	-0.445929	-0.889459
C112	C	1.900458	0.054071	-0.389459
C113	C	1.393892	-0.440898	-0.796023
C114	C	1.893892	0.059102	-0.296023
C115	C	1.533050	-0.548202	-0.779306
C116	C	2.033050	-0.048202	-0.279306
C117	C	1.539620	-0.553229	-0.872741
C118	C	2.039620	-0.053229	-0.372741
C119	C	1.420464	-0.461551	-0.175714
C120	C	1.920464	0.038449	0.324286
C121	C	1.413597	-0.455984	-0.076329
C122	C	1.913597	0.044016	0.423671
H123	H	0.813668	-0.590067	-0.507666
H124	H	1.313668	-0.090067	-0.007666
Cl125	Cl	1.616398	-0.612486	-0.710067
Cl126	Cl	2.116398	-0.112486	-0.210067
H127	H	1.060832	-0.358242	-0.308692
H128	H	1.560832	0.141758	0.191308
H129	H	0.758946	-0.395211	-0.340438
H130	H	1.258946	0.104789	0.159562
Cl131	Cl	1.257385	-0.335540	-1.107197
Cl132	Cl	1.757385	0.164460	-0.607197
Cl133	Cl	0.859467	-0.324180	-0.279471
Cl134	Cl	1.359467	0.175820	0.220529
H135	H	1.539210	-0.552861	-1.052491
H136	H	2.039210	-0.052861	-0.552491
H137	H	1.272040	-1.172447	-0.572833
H138	H	1.772040	-0.672447	-0.072833
H139	H	1.598944	-0.598961	-0.903982
H140	H	2.098944	-0.098961	-0.403982
Cl141	Cl	1.621649	-0.756709	-0.223544
Cl142	Cl	2.121649	-0.256709	0.276456
H143	H	1.403418	-0.775014	-0.441451
H144	H	1.903418	-0.275014	0.058549
Cl145	Cl	1.143383	-0.578004	-0.497294
Cl146	Cl	1.643383	-0.078004	0.002706
Cl147	Cl	1.015016	-0.624134	-0.536881
Cl148	Cl	1.515016	-0.124134	-0.036881
Cl149	Cl	1.211087	-1.004401	-0.633591
Cl150	Cl	1.711087	-0.504401	-0.133591
Cl151	Cl	1.341620	-0.787419	-0.503576
Cl152	Cl	1.841620	-0.287419	-0.003576
Cl153	Cl	1.242569	-0.324181	-0.896312
Cl154	Cl	1.742569	0.175819	-0.396312
Cl155	Cl	1.238578	-0.880574	-0.606079
Cl156	Cl	1.738578	-0.380574	-0.106079
H157	H	1.606750	-1.048601	-0.238582
H158	H	2.106750	-0.548601	0.261418
H159	H	1.470087	-1.172443	-0.375085
H160	H	1.970087	-0.672443	0.124915
Cl161	Cl	1.532142	-1.160049	-0.313201
Cl162	Cl	2.032142	-0.660049	0.186799
H163	H	1.634243	-0.924767	-0.211065
H164	H	2.134243	-0.424767	0.288935
H165	H	1.334563	-0.395162	-0.764797
H166	H	1.834563	0.104838	-0.264797
