data_functionalizedCrystal
_audit_creation_method	'MofGen! by Chris Wilmer'
_symmetry_space_group_name_H-M	'P1'
_symmetry_Int_Tables_number	1
_symmetry_cell_setting	triclinic
loop_
_symmetry_equiv_pos_as_xyz
  x,y,z
_cell_length_a	12.827893
_cell_length_b	14.908178
_cell_length_c	14.908308
_cell_angle_alpha	89.778379
_cell_angle_beta	93.279990
_cell_angle_gamma	93.313970
loop_
_atom_site_label
_atom_site_type_symbol
_atom_site_fract_x
_atom_site_fract_y
_atom_site_fract_z
Zn1	Zn	1.539134	-0.387317	-0.487678
Zn2	Zn	2.039134	0.112683	0.012322
Zn3	Zn	1.540188	-0.529027	-0.328638
Zn4	Zn	2.040188	-0.029027	0.171362
Zn5	Zn	1.375011	-0.378677	-0.337340
Zn6	Zn	1.875011	0.121323	0.162660
Zn7	Zn	1.354888	-0.537643	-0.478954
Zn8	Zn	1.854888	-0.037643	0.021046
O9	O	1.452305	-0.458166	-0.408153
O10	O	1.952305	0.041834	0.091847
O11	O	1.685508	-0.406126	-0.466590
O12	O	2.185508	0.093874	0.033410
O13	O	1.527140	-0.501861	-0.203968
O14	O	2.027140	-0.001861	0.296032
O15	O	1.404762	-0.253989	-0.364575
O16	O	1.904762	0.246011	0.135425
O17	O	1.686283	-0.510239	-0.349744
O18	O	2.186283	-0.010239	0.150256
O19	O	1.525343	-0.260337	-0.475027
O20	O	2.025343	0.239663	0.024973
O21	O	1.405785	-0.391399	-0.210361
O22	O	1.905785	0.108601	0.289639
O23	O	1.226107	-0.399754	-0.356117
O24	O	1.726107	0.100246	0.143883
O25	O	1.370466	-0.524924	-0.605936
O26	O	1.870466	-0.024924	-0.105936
O27	O	1.211323	-0.516546	-0.460160
O28	O	1.711323	-0.016546	0.039840
O29	O	1.505830	-0.414480	-0.612345
O30	O	2.005830	0.085520	-0.112345
O31	O	1.507628	-0.656004	-0.341286
O32	O	2.007628	-0.156004	0.158714
O33	O	1.371488	-0.662334	-0.451722
O34	O	1.871488	-0.162334	0.048278
C35	C	1.180798	-0.458148	-0.408137
C36	C	1.680798	0.041852	0.091863
C37	C	1.064643	-0.458163	-0.408150
C38	C	1.564643	0.041837	0.091850
C39	C	1.005571	-0.516036	-0.459544
C40	C	1.505571	-0.016036	0.040456
C41	C	0.885518	-0.516052	-0.459559
C42	C	1.385518	-0.016052	0.040441
C43	C	1.437516	-0.691797	-0.394633
C44	C	1.937516	-0.191797	0.105367
C45	C	1.431282	-0.791748	-0.388879
C46	C	1.931282	-0.291748	0.111121
C47	C	1.545019	-0.986032	-0.493204
C48	C	2.045019	-0.486032	0.006796
C49	C	1.539166	-1.079945	-0.487801
C50	C	2.039166	-0.579945	0.012199
C51	C	1.413717	-1.073487	-0.372675
C52	C	1.913717	-0.573487	0.127325
C53	C	1.419571	-0.979574	-0.378078
C54	C	1.919571	-0.479574	0.121922
C55	C	1.485225	-0.935851	-0.438344
C56	C	1.985225	-0.435851	0.061656
C57	C	1.491084	-0.841936	-0.443742
C58	C	1.991084	-0.341936	0.056258
C59	C	1.365630	-0.835480	-0.328620
C60	C	1.865630	-0.335480	0.171380
C61	C	1.359776	-0.929393	-0.323217
C62	C	1.859776	-0.429393	0.176783
C63	C	1.724873	-0.458185	-0.408169
C64	C	2.224873	0.041815	0.091831
C65	C	1.841025	-0.458193	-0.408176
C66	C	2.341025	0.041807	0.091824
C67	C	1.435786	-0.471627	-0.642678
C68	C	1.935786	0.028373	-0.142678
C69	C	1.428746	-0.477363	-0.742618
C70	C	1.928746	0.022637	-0.242618
C71	C	1.467180	-0.223623	-0.421745
C72	C	1.967180	0.276377	0.078255
C73	C	1.473518	-0.123675	-0.427537
C74	C	1.973518	0.376325	0.072463
C75	C	1.556471	-0.373116	-0.937094
C76	C	2.056471	0.126884	-0.437094
C77	C	1.549860	-0.378503	-1.030997
C78	C	2.049860	0.121497	-0.530997
C79	C	1.408909	-0.493518	-1.024330
C80	C	1.908909	0.006482	-0.524330
C81	C	1.415520	-0.488131	-0.930427
C82	C	1.915520	0.011869	-0.430427
C83	C	1.489305	-0.427930	-0.886812
C84	C	1.989305	0.072070	-0.386812
C85	C	1.495920	-0.422548	-0.792907
C86	C	1.995920	0.077452	-0.292907
C87	C	1.354964	-0.537558	-0.786242
C88	C	1.854964	-0.037558	-0.286242
C89	C	1.348354	-0.542945	-0.880145
C90	C	1.848354	-0.042945	-0.380145
C91	C	1.468825	-0.444692	-0.174544
C92	C	1.968825	0.055308	0.325456
C93	C	1.476083	-0.438703	-0.074618
C94	C	1.976083	0.061297	0.425382
H95	H	1.026338	-0.408625	-0.364164
H96	H	1.526338	0.091375	0.135836
H97	H	1.043875	-0.565567	-0.503538
H98	H	1.543875	-0.065567	-0.003538
H99	H	1.316944	-0.794611	-0.283946
H100	H	1.816944	-0.294611	0.216054
H101	H	1.544546	-0.806337	-0.492811
H102	H	2.044546	-0.306337	0.007189
H103	H	0.834745	-0.565602	-0.503557
H104	H	1.334745	-0.065602	-0.003557
C105	C	1.617242	-0.937934	-0.559494
C106	C	2.117242	-0.437934	-0.059494
N107	N	1.671640	-0.901708	-0.609426
N108	N	2.171640	-0.401708	-0.109426
C109	C	1.327728	-0.559712	-1.072324
C110	C	1.827728	-0.059712	-0.572324
N111	N	1.266575	-0.609565	-1.108475
N112	N	1.766575	-0.109565	-0.608475
H113	H	1.556000	-0.373530	-0.757397
H114	H	2.056000	0.126470	-0.257397
H115	H	1.616554	-0.324102	-0.901582
H116	H	2.116554	0.175898	-0.401582
C117	C	1.623752	-0.318207	-1.086304
C118	C	2.123752	0.181793	-0.586304
N119	N	1.679410	-0.272789	-1.127961
N120	N	2.179410	0.227211	-0.627961
C121	C	1.604950	-1.135141	-0.548147
C122	C	2.104950	-0.635141	-0.048147
N123	N	1.654503	-1.176715	-0.593602
N124	N	2.154503	-0.676715	-0.093602
H125	H	1.288279	-0.591957	-0.915669
H126	H	1.788279	-0.091957	-0.415669
C127	C	1.281077	-0.597857	-0.730924
C128	C	1.781077	-0.097857	-0.230924
N129	N	1.225428	-0.643275	-0.689258
N130	N	1.725428	-0.143275	-0.189258
H131	H	0.891792	-0.408647	-0.364170
H132	H	1.391792	0.091353	0.135830
H133	H	1.306320	-0.965006	-0.274153
H134	H	1.806320	-0.465006	0.225847
C135	C	1.341634	-1.121593	-0.306281
C136	C	1.841634	-0.621593	0.193719
N137	N	1.287391	-1.157826	-0.256233
N138	N	1.787391	-0.657826	0.243767
