data_functionalizedCrystal
_audit_creation_method	'MofGen! by Chris Wilmer'
_symmetry_space_group_name_H-M	'P1'
_symmetry_Int_Tables_number	1
_symmetry_cell_setting	triclinic
loop_
_symmetry_equiv_pos_as_xyz
  x,y,z
_cell_length_a	11.792241
_cell_length_b	10.723024
_cell_length_c	9.798715
_cell_angle_alpha	90.003391
_cell_angle_beta	89.996704
_cell_angle_gamma	95.669357
loop_
_atom_site_label
_atom_site_type_symbol
_atom_site_fract_x
_atom_site_fract_y
_atom_site_fract_z
O1	O	0.159192	-1.656766	-0.113483
O2	O	0.174430	-1.293573	-0.113488
O3	O	0.001660	-1.483983	-0.113475
O4	O	0.331962	-1.466356	-0.113495
O5	O	0.001659	-1.483969	0.113507
O6	O	0.174430	-1.293559	0.113495
O7	O	0.159192	-1.656752	0.113499
Zn8	Zn	0.166811	-1.475153	0.149535
Zn9	Zn	0.166811	-1.475172	-0.149523
O10	O	0.331962	-1.466342	0.113487
C11	C	0.173321	-1.247070	0.000003
C12	C	0.170003	-1.108524	0.000001
C13	C	-0.040634	-1.482869	0.000015
C14	C	-0.166655	-1.479555	0.000014
N15	N	0.166809	-1.475150	0.353635
C16	C	-0.397380	-1.473461	-0.000009
C17	C	-0.268988	-1.476847	0.000003
C18	C	0.374255	-1.467456	-0.000006
C19	C	0.500276	-1.470770	-0.000014
C20	C	0.160301	-1.703256	0.000006
C21	C	0.163619	-1.841801	-0.000002
C22	C	0.266676	-1.033286	-0.000005
C23	C	0.263249	-0.890091	-0.000007
N24	N	0.166803	-1.475186	-0.353623
C25	C	0.093948	-1.555098	0.421417
C26	C	0.093944	-1.555118	0.578580
H27	H	0.351978	-1.074882	-0.000002
H28	H	0.229190	-1.406739	0.588096
N29	N	0.372880	-0.804462	0.000042
H30	H	0.439839	-0.856369	0.000055
H31	H	0.376052	-0.749821	-0.084090
N32	N	0.053977	-0.927412	0.000005
H33	H	0.050726	-0.982057	-0.084136
H34	H	0.050792	-0.981965	0.084205
N35	N	0.057010	-1.053429	0.000006
H36	H	0.012368	-1.082222	-0.084133
H37	H	0.012459	-1.082228	0.084208
N38	N	0.011290	-1.645720	0.344182
H39	H	0.022997	-1.632846	0.242858
H40	H	0.024864	-1.734432	0.369048
N41	N	0.011318	-1.645799	0.655777
H42	H	0.023029	-1.632962	0.757105
H43	H	-0.069283	-1.630612	0.630882
N44	N	0.249430	-1.384492	0.430877
H45	H	0.299899	-1.432737	0.490153
H46	H	0.297977	-1.331155	0.363965
