data_functionalizedCrystal
_audit_creation_method	'MofGen! by Chris Wilmer'
_symmetry_space_group_name_H-M	'P1'
_symmetry_Int_Tables_number	1
_symmetry_cell_setting	triclinic
loop_
_symmetry_equiv_pos_as_xyz
  x,y,z
_cell_length_a	11.792254
_cell_length_b	15.995292
_cell_length_c	10.268362
_cell_angle_alpha	89.997908
_cell_angle_beta	89.995475
_cell_angle_gamma	83.833607
loop_
_atom_site_label
_atom_site_type_symbol
_atom_site_fract_x
_atom_site_fract_y
_atom_site_fract_z
O1	O	1.505910	0.114817	-0.108289
O2	O	2.005910	0.614817	0.391711
O3	O	1.175469	0.126634	-0.108291
O4	O	1.675469	0.626634	0.391709
O5	O	1.349757	-0.001124	-0.108292
O6	O	1.849757	0.498876	0.391708
O7	O	1.331622	0.242575	-0.108288
O8	O	1.831622	0.742575	0.391712
O9	O	1.349742	-0.001130	0.108309
O10	O	1.849742	0.498870	0.608309
O11	O	1.175454	0.126628	0.108310
O12	O	1.675454	0.626628	0.608310
O13	O	1.505895	0.114811	0.108311
O14	O	2.005895	0.614811	0.608311
Cu15	Cu	1.340673	0.120719	0.128088
Cu16	Cu	1.840673	0.620719	0.628088
Cu17	Cu	1.340691	0.120726	-0.128067
Cu18	Cu	1.840691	0.620726	0.371933
O19	O	1.331607	0.242569	0.108312
O20	O	1.831607	0.742569	0.608312
C21	C	1.133177	0.125887	0.000009
C22	C	1.633177	0.625887	0.500009
C23	C	1.007183	0.123658	0.000008
C24	C	1.507183	0.623658	0.500008
C25	C	0.904862	0.121848	0.000002
C26	C	1.404862	0.621848	0.500002
C27	C	0.776495	0.119585	0.000001
C28	C	1.276495	0.619585	0.500001
C29	C	1.349011	-0.032326	0.000005
C30	C	1.849011	0.467674	0.500005
C31	C	1.346798	-0.125289	-0.000005
C32	C	1.846798	0.374711	0.499995
C33	C	1.338664	-0.463065	0.000007
C34	C	1.838664	0.036935	0.500007
C35	C	1.464460	-0.439177	0.000492
C36	C	1.964460	0.060823	0.500492
C37	C	1.466851	-0.342491	-0.000001
C38	C	1.966851	0.157509	0.499999
C39	C	1.342700	-0.295490	0.000002
C40	C	1.842700	0.204510	0.500002
C41	C	1.279817	-0.324876	-0.123684
C42	C	1.779817	0.175124	0.376316
C43	C	1.278302	-0.421673	-0.123783
C44	C	1.778302	0.078327	0.376217
C45	C	1.275716	-0.421548	0.122533
C46	C	1.775716	0.078452	0.622533
C47	C	1.280378	-0.325034	0.124163
C48	C	1.780378	0.174966	0.624163
C49	C	1.344975	-0.200784	-0.000005
C50	C	1.844975	0.299216	0.499995
C51	C	1.336385	-0.557771	0.000006
C52	C	1.836385	-0.057771	0.500006
C53	C	1.548187	0.115559	0.000009
C54	C	2.048187	0.615559	0.500009
C55	C	1.674181	0.117787	0.000001
C56	C	2.174181	0.617787	0.500001
C57	C	1.332353	0.273771	0.000013
C58	C	1.832353	0.773771	0.500013
C59	C	1.334566	0.366734	0.000014
C60	C	1.834566	0.866734	0.500014
N61	N	1.340669	0.120714	0.308254
N62	N	1.840669	0.620714	0.808254
N63	N	1.340704	0.120724	-0.308233
N64	N	1.840704	0.620724	0.191767
C65	C	1.340685	0.120724	0.573924
C66	C	1.840685	0.620724	1.073924
C67	C	1.340672	0.120721	0.426086
C68	C	1.840672	0.620721	0.926086
H69	H	1.512941	-0.466955	0.089192
H70	H	2.012941	0.033045	0.589192
C71	C	1.533795	-0.317308	-0.119976
C72	C	2.033795	0.182692	0.380024
H73	H	1.535500	-0.258063	-0.120679
H74	H	2.035500	0.241937	0.379321
H75	H	1.497651	-0.334067	-0.196920
H76	H	1.997651	0.165933	0.303080
H77	H	1.609552	-0.344252	-0.116332
H78	H	2.109552	0.155748	0.383668
C79	C	1.533378	-0.316478	0.119768
C80	C	2.033378	0.183522	0.619768
H81	H	1.534927	-0.257217	0.119629
H82	H	2.034927	0.242783	0.619629
H83	H	1.609188	-0.343351	0.116709
H84	H	2.109188	0.156649	0.616709
H85	H	1.497045	-0.332812	0.196864
H86	H	1.997045	0.167188	0.696864
H87	H	1.315326	-0.449458	0.216286
H88	H	1.815326	0.050542	0.716286
H89	H	1.323497	-0.304613	-0.215732
H90	H	1.823497	0.195387	0.284268
H91	H	1.188458	-0.293426	-0.128280
H92	H	1.688458	0.206574	0.371720
C93	C	1.342220	-0.299668	0.247778
C94	C	1.842220	0.200332	0.747778
H95	H	1.405753	-0.271186	0.223835
H96	H	1.905753	0.228814	0.723835
H97	H	1.367869	-0.348617	0.296348
H98	H	1.867869	0.151383	0.796348
H99	H	1.291190	-0.263530	0.299402
H100	H	1.791190	0.236470	0.799402
H101	H	1.189760	-0.292480	0.131635
H102	H	1.689760	0.207520	0.631635
H103	H	1.183121	-0.435962	0.123368
H104	H	1.683121	0.064038	0.623368
C105	C	1.337095	-0.457628	-0.248717
C106	C	1.837095	0.042372	0.251283
H107	H	1.361690	-0.413056	-0.298926
H108	H	1.861690	0.086944	0.201074
H109	H	1.284767	-0.485878	-0.298128
H110	H	1.784767	0.014122	0.201872
H111	H	1.401104	-0.496118	-0.226181
H112	H	1.901104	0.003882	0.273819
H113	H	1.186068	-0.436645	-0.129385
H114	H	1.686068	0.063355	0.370615
C115	C	1.529609	-0.478065	-0.118665
C116	C	2.029609	0.021935	0.381335
H117	H	1.480478	-0.508793	-0.168711
H118	H	1.980478	-0.008793	0.331289
H119	H	1.593467	-0.514789	-0.090226
H120	H	2.093467	-0.014789	0.409774
H121	H	1.555057	-0.434597	-0.170589
H122	H	2.055057	0.065403	0.329411
