data_functionalizedCrystal
_audit_creation_method	'MofGen! by Chris Wilmer'
_symmetry_space_group_name_H-M	'P1'
_symmetry_Int_Tables_number	1
_symmetry_cell_setting	triclinic
loop_
_symmetry_equiv_pos_as_xyz
  x,y,z
_cell_length_a	11.026607
_cell_length_b	10.654550
_cell_length_c	9.730223
_cell_angle_alpha	90.004253
_cell_angle_beta	90.002620
_cell_angle_gamma	96.535473
loop_
_atom_site_label
_atom_site_type_symbol
_atom_site_fract_x
_atom_site_fract_y
_atom_site_fract_z
O1	O	-1.614596	-0.526878	-0.114298
O2	O	-1.260785	-0.466883	-0.114299
O3	O	-1.445825	-0.315907	-0.114289
O4	O	-1.429555	-0.677854	-0.114307
O5	O	-1.445813	-0.315899	0.114290
O6	O	-1.260773	-0.466875	0.114281
O7	O	-1.614584	-0.526871	0.114282
Zn8	Zn	-1.437676	-0.496871	0.150574
Zn9	Zn	-1.437692	-0.496882	-0.150590
O10	O	-1.429543	-0.677846	0.114273
C11	C	-1.215474	-0.455811	-0.000009
C12	C	-1.080483	-0.422816	-0.000009
C13	C	-1.444624	-0.268846	-0.000000
C14	C	-1.441050	-0.128627	-0.000002
C15	C	-1.659894	-0.537943	-0.000011
C16	C	-1.794885	-0.570937	-0.000020
C17	C	-1.007444	-0.513920	-0.000014
C18	C	-0.867923	-0.479820	-0.000014
C19	C	-1.430744	-0.724907	-0.000019
C20	C	-1.434318	-0.865126	-0.000026
N21	N	-1.437674	-0.496866	0.356110
C22	C	-1.549999	-0.072791	-0.000003
C23	C	-1.546633	0.058961	-0.000019
C24	C	-1.325361	0.079029	-0.000030
C25	C	-1.328728	-0.052720	-0.000023
N26	N	-1.437703	-0.496880	-0.356127
C27	C	-1.519638	-0.430056	0.428040
C28	C	-1.519650	-0.430059	0.571923
C29	C	-1.355731	-0.563692	0.571933
C30	C	-1.355714	-0.563681	0.428053
H31	H	-0.827168	-0.376572	-0.000045
H32	H	-1.586391	-0.375654	0.630485
H33	H	-1.048204	-0.617161	-0.000011
H34	H	-1.233911	0.140848	-0.000044
H35	H	-0.835638	-0.674186	-0.000015
H36	H	-1.240003	-0.098182	-0.000027
O37	O	-1.026500	-0.286058	0.000008
H38	H	-1.101226	-0.224509	0.000025
O39	O	-1.267346	-0.635773	0.649527
H40	H	-1.281136	-0.624571	0.761661
H41	H	-1.641459	-0.134591	0.000011
H42	H	-1.288963	-0.618084	0.369484
O43	O	-1.664141	0.119189	-0.000002
H44	H	-1.742806	0.044268	0.000027
O45	O	-1.608020	-0.357978	0.350437
H46	H	-1.665006	-0.311510	0.424634
