data_functionalizedCrystal
_audit_creation_method	'MofGen! by Chris Wilmer'
_symmetry_space_group_name_H-M	'P1'
_symmetry_Int_Tables_number	1
_symmetry_cell_setting	triclinic
loop_
_symmetry_equiv_pos_as_xyz
  x,y,z
_cell_length_a	14.971486
_cell_length_b	9.130307
_cell_length_c	14.971486
_cell_angle_alpha	90.003505
_cell_angle_beta	83.614129
_cell_angle_gamma	89.996563
loop_
_atom_site_label
_atom_site_type_symbol
_atom_site_fract_x
_atom_site_fract_y
_atom_site_fract_z
O1	O	1.186941	0.121632	0.116561
O2	O	0.926541	0.121672	0.130520
O3	O	1.063720	0.121640	-0.006659
O4	O	1.049762	0.121663	0.253741
O5	O	1.063716	-0.121959	-0.006661
O6	O	0.926536	-0.121927	0.130519
O7	O	1.186937	-0.121967	0.116560
Cu8	Cu	1.056736	-0.144190	0.123539
Cu9	Cu	1.056741	0.143894	0.123541
O10	O	1.049757	-0.121936	0.253739
C11	C	0.893214	-0.000123	0.129895
C12	C	0.793917	-0.000108	0.128024
N13	N	1.056739	-0.346813	0.123538
C14	C	0.736692	-0.000103	0.208614
C15	C	0.643392	-0.000125	0.206850
C16	C	0.607320	-0.000141	0.124497
C17	C	0.664552	-0.000151	0.043902
C18	C	0.757850	-0.000139	0.045666
C19	C	0.470090	-0.000171	0.040231
C20	C	0.376786	-0.000180	0.038466
C21	C	0.355632	-0.000157	0.201415
C22	C	0.448930	-0.000145	0.203179
C23	C	0.506156	-0.000152	0.122584
C24	C	1.178261	-0.346831	0.002100
C25	C	1.239027	-0.423506	-0.058616
C26	C	1.239036	-0.576840	-0.058617
C27	C	1.178270	-0.653501	0.002104
C28	C	1.117503	-0.576825	0.062820
C29	C	1.117503	-0.423488	0.062816
C30	C	0.995979	-0.576807	0.184251
C31	C	0.995973	-0.423474	0.184258
C32	C	0.935213	-0.653469	0.244972
C33	C	0.874449	-0.576793	0.305694
C34	C	0.874443	-0.423450	0.305692
C35	C	0.935206	-0.346798	0.244974
C36	C	1.220263	-0.000170	0.117185
C37	C	1.319561	-0.000175	0.119056
C38	C	1.063094	-0.000159	-0.039985
C39	C	1.061223	-0.000157	-0.139282
N40	N	1.056746	0.346517	0.123535
C41	C	1.141812	-0.000171	-0.196507
C42	C	1.140049	-0.000156	-0.289807
C43	C	1.057696	-0.000138	-0.325879
C44	C	0.977101	-0.000120	-0.268646
C45	C	0.978865	-0.000124	-0.175349
C46	C	0.973430	-0.000114	-0.463109
C47	C	0.971665	-0.000112	-0.556413
C48	C	1.134614	-0.000145	-0.577567
C49	C	1.136378	-0.000150	-0.484269
C50	C	1.055782	-0.000135	-0.427043
C51	C	1.050384	-0.000134	0.287065
C52	C	1.052254	-0.000126	0.386362
H53	H	0.766054	-0.000088	0.275675
H54	H	1.178267	-0.221978	0.002102
C55	C	0.243156	-0.000217	-0.036580
C56	C	0.337131	-0.000217	-0.052056
H57	H	0.218678	-0.000235	-0.092466
H58	H	0.223534	-0.085149	-0.003389
H59	H	0.223525	0.084748	-0.003400
H60	H	0.356763	-0.085189	-0.085230
H61	H	0.356762	0.084723	-0.085261
C62	C	0.855132	-0.251001	0.427395
C63	C	0.807646	-0.339170	0.372435
H64	H	0.813892	-0.198968	0.468595
H65	H	0.892384	-0.310818	0.459634
H66	H	0.891314	-0.183402	0.391228
H67	H	0.771469	-0.406776	0.408602
H68	H	0.770379	-0.279347	0.340194
H69	H	1.178274	-0.778353	0.002092
H70	H	0.935210	-0.221946	0.244971
C71	C	0.526190	0.125113	0.299392
C72	C	0.580491	-0.000103	0.295438
H73	H	0.487355	0.125120	0.354083
H74	H	0.563020	0.210049	0.296687
H75	H	0.491355	0.125076	0.250091
H76	H	0.615330	-0.000060	0.344735
H77	H	0.543656	-0.085061	0.298151
H78	H	0.478296	-0.000118	0.270239
C79	C	0.238430	0.125062	0.293965
C80	C	0.292733	-0.000152	0.290010
H81	H	0.199594	0.125065	0.348656
H82	H	0.275259	0.210000	0.291264
H83	H	0.203597	0.125026	0.244664
H84	H	0.327571	-0.000110	0.339308
H85	H	0.255900	-0.085111	0.292721
C86	C	0.812180	-0.000092	-0.451565
C87	C	0.884838	-0.000100	-0.400204
H88	H	0.757490	-0.000096	-0.412728
H89	H	0.814881	0.084852	-0.488388
H90	H	0.814887	-0.085045	-0.488402
H91	H	0.882134	0.084859	-0.363371
H92	H	0.882135	-0.085053	-0.363366
H93	H	0.910047	-0.000096	-0.298024
C94	C	1.360744	-0.749290	-0.077815
C95	C	1.305829	-0.661130	-0.125358
H96	H	1.401974	-0.801331	-0.119020
H97	H	1.392949	-0.689466	-0.040537
H98	H	1.324549	-0.816881	-0.041654
H99	H	1.342024	-0.593531	-0.161513
H100	H	1.273622	-0.720959	-0.162651
H101	H	1.208874	-0.000194	-0.167145
C102	C	0.481633	-0.000164	-0.121019
C103	C	0.532995	-0.000163	-0.048361
H104	H	0.520470	-0.000141	-0.175709
H105	H	0.444817	-0.085116	-0.118325
H106	H	0.444790	0.084782	-0.118305
H107	H	0.569834	-0.085114	-0.051072
H108	H	0.569827	0.084798	-0.051056
H109	H	0.913240	-0.000113	-0.128756
H110	H	0.635175	-0.000185	-0.023152
H111	H	1.205673	-0.000170	-0.336396
C112	C	0.769394	-0.000138	-0.115578
C113	C	0.820756	-0.000131	-0.042920
H114	H	0.808231	-0.000127	-0.170268
H115	H	0.732575	-0.085086	-0.112879
H116	H	0.732555	0.084811	-0.112869
H117	H	0.857591	-0.085087	-0.045626
H118	H	0.857591	0.084826	-0.045620
C119	C	1.293059	-0.188459	-0.112466
C120	C	1.305870	-0.339238	-0.125308
H121	H	1.334342	-0.136443	-0.153622
H122	H	1.233385	-0.163296	-0.122339
H123	H	1.302777	-0.163382	-0.052728
H124	H	1.296145	-0.364317	-0.185044
H125	H	1.365558	-0.364412	-0.115442
H126	H	1.203437	-0.000175	-0.454903
C127	C	0.850939	-0.873123	0.226772
C128	C	0.935220	-0.822015	0.244969
H129	H	0.850948	-0.977178	0.226767
H130	H	0.806062	-0.838436	0.271620
H131	H	0.838658	-0.838435	0.169577
H132	H	0.947499	-0.856695	0.302167
H133	H	0.980111	-0.856718	0.200118
H134	H	0.824973	-0.639220	0.355124
C135	C	1.272977	0.125052	-0.624300
C136	C	1.223212	-0.000153	-0.640461
H137	H	1.327673	0.125034	-0.663127
H138	H	1.239219	0.209995	-0.635245
H139	H	1.285801	0.125025	-0.563569
H140	H	1.210382	-0.000121	-0.701191
H141	H	1.256976	-0.085118	-0.629523
H142	H	0.904606	-0.000121	-0.585780
