data_functionalizedCrystal
_audit_creation_method	'MofGen! by Chris Wilmer'
_symmetry_space_group_name_H-M	'P1'
_symmetry_Int_Tables_number	1
_symmetry_cell_setting	triclinic
loop_
_symmetry_equiv_pos_as_xyz
  x,y,z
_cell_length_a	27.731993
_cell_length_b	26.809956
_cell_length_c	8.634740
_cell_angle_alpha	90.014353
_cell_angle_beta	91.595349
_cell_angle_gamma	90.008964
loop_
_atom_site_label
_atom_site_type_symbol
_atom_site_fract_x
_atom_site_fract_y
_atom_site_fract_z
O1	O	0.649902	0.041342	0.182900
O2	O	1.149902	0.541342	0.682900
O3	O	0.510472	0.041372	0.210855
O4	O	1.010472	0.541372	0.710855
O5	O	0.573587	0.041357	-0.027437
O6	O	1.073587	0.541357	0.472563
O7	O	0.586787	0.041356	0.421192
O8	O	1.086787	0.541356	0.921192
O9	O	0.573557	-0.041602	-0.027501
O10	O	1.073557	0.458398	0.472499
O11	O	0.510442	-0.041588	0.210790
O12	O	1.010442	0.458412	0.710790
O13	O	0.649872	-0.041618	0.182836
O14	O	1.149872	0.458382	0.682836
Zn15	Zn	0.580152	-0.054774	0.196803
Zn16	Zn	1.080152	0.445226	0.696803
Zn17	Zn	0.580191	0.054528	0.196888
Zn18	Zn	1.080191	0.554528	0.696888
O19	O	0.586757	-0.041603	0.421128
O20	O	1.086757	0.458397	0.921128
C21	C	0.492422	-0.000104	0.210249
C22	C	0.992422	0.499896	0.710249
C23	C	0.438681	-0.000093	0.208521
C24	C	0.938681	0.499907	0.708521
N25	N	0.580129	-0.129370	0.196744
N26	N	1.080129	0.370630	0.696744
C27	C	0.054924	0.045104	0.196031
C28	C	0.554924	0.545104	0.696031
C29	C	0.256904	0.045118	0.202618
C30	C	0.756904	0.545118	0.702618
O31	O	0.283029	0.083578	0.203437
O32	O	0.783029	0.583578	0.703437
N33	N	0.282148	-0.000102	0.203407
N34	N	0.782148	0.499898	0.703407
C35	C	0.256894	-0.045329	0.202539
C36	C	0.756894	0.454671	0.702539
O37	O	0.283001	-0.083791	0.203345
O38	O	0.783001	0.416209	0.703345
C39	C	0.054916	-0.045342	0.195942
C40	C	0.554916	0.454658	0.695942
C41	C	0.029674	-0.000119	0.195168
C42	C	0.529674	0.499881	0.695168
C43	C	0.029682	0.090324	0.195256
C44	C	0.529682	0.590324	0.695256
C45	C	-0.020810	0.090320	0.193618
C46	C	0.479190	0.590320	0.693618
C47	C	-0.046060	0.045097	0.192755
C48	C	0.453940	0.545097	0.692755
C49	C	-0.020818	-0.000123	0.193530
C50	C	0.479182	0.499877	0.693530
C51	C	0.029663	-0.090568	0.195063
C52	C	0.529663	0.409432	0.695063
C53	C	-0.020835	-0.090567	0.193409
C54	C	0.479165	0.409433	0.693409
C55	C	-0.046077	-0.045344	0.192636
C56	C	0.453923	0.454656	0.692636
C57	C	-0.096560	-0.045350	0.191029
C58	C	0.403440	0.454650	0.691029
N59	N	-0.121804	-0.000130	0.190240
N60	N	0.378196	0.499870	0.690240
C61	C	-0.096554	0.045094	0.191103
C62	C	0.403446	0.545094	0.691103
C63	C	0.362936	-0.045319	0.206006
C64	C	0.862936	0.454681	0.706006
C65	C	0.413431	-0.045316	0.207658
C66	C	0.913431	0.454684	0.707658
C67	C	0.413436	0.045131	0.207734
C68	C	0.913436	0.545131	0.707734
C69	C	0.362941	0.045127	0.206093
C70	C	0.862941	0.545127	0.706093
C71	C	0.337692	-0.000099	0.205217
C72	C	0.837692	0.499901	0.705217
C73	C	-0.202591	0.045082	0.187664
C74	C	0.297409	0.545082	0.687664
C75	C	-0.253087	0.045074	0.186033
C76	C	0.246913	0.545074	0.686033
C77	C	-0.253088	-0.045372	0.185949
C78	C	0.246912	0.454628	0.685949
C79	C	-0.202596	-0.045365	0.187589
C80	C	0.297404	0.454635	0.687589
C81	C	-0.177349	-0.000134	0.188441
C82	C	0.322651	0.499866	0.688441
O83	O	-0.122716	-0.083789	0.190191
O84	O	0.377284	0.416211	0.690191
O85	O	-0.122669	0.083550	0.190262
O86	O	0.377331	0.583550	0.690262
C87	C	0.105416	0.045108	0.197669
C88	C	0.605416	0.545108	0.697669
C89	C	0.130658	-0.000111	0.198444
C90	C	0.630658	0.499889	0.698444
C91	C	0.105408	-0.045334	0.197581
C92	C	0.605408	0.454666	0.697581
C93	C	0.181152	-0.000108	0.200097
C94	C	0.681152	0.499892	0.700097
C95	C	0.206402	0.045115	0.200960
C96	C	0.706402	0.545115	0.700960
C97	C	0.181158	0.090335	0.200170
C98	C	0.681158	0.590335	0.700170
C99	C	0.130666	0.090331	0.198532
C100	C	0.630666	0.590331	0.698532
C101	C	0.130652	-0.090554	0.198371
C102	C	0.630652	0.409446	0.698371
C103	C	0.181144	-0.090547	0.200010
C104	C	0.681144	0.409453	0.700010
C105	C	0.206394	-0.045324	0.200873
C106	C	0.706394	0.454676	0.700873
C107	C	0.546544	-0.526256	0.104057
C108	C	1.046544	-0.026256	0.604057
C109	C	0.546519	-0.317379	0.104014
C110	C	1.046519	0.182621	0.604014
O111	O	0.517925	-0.290381	0.025078
O112	O	1.017925	0.209619	0.525078
N113	N	0.580150	-0.291249	0.196768
N114	N	1.080150	0.208751	0.696768
C115	C	0.613791	-0.317341	0.289531
C116	C	1.113791	0.182659	0.789531
O117	O	0.642398	-0.290323	0.368411
O118	O	1.142398	0.209677	0.868411
C119	C	0.613818	-0.526218	0.289564
C120	C	1.113818	-0.026218	0.789564
C121	C	0.580182	-0.552345	0.196816
C122	C	1.080182	-0.052345	0.696816
C123	C	0.512912	-0.552384	0.011315
C124	C	1.012912	-0.052384	0.511315
C125	C	0.512917	-0.604600	0.011333
C126	C	1.012917	-0.104600	0.511333
C127	C	0.546554	-0.630689	0.104092
C128	C	1.046554	-0.130689	0.604092
C129	C	0.580187	-0.604562	0.196834
C130	C	1.080187	-0.104562	0.696834
C131	C	0.647460	-0.552310	0.382318
C132	C	1.147460	-0.052310	0.882318
C133	C	0.647465	-0.604532	0.382315
C134	C	1.147465	-0.104532	0.882315
C135	C	0.613829	-0.630660	0.289567
C136	C	1.113829	-0.130660	0.789567
C137	C	0.613829	-0.682867	0.289611
C138	C	1.113829	-0.182867	0.789611
N139	N	0.580199	-0.708997	0.196858
N140	N	1.080199	-0.208997	0.696858
C141	C	0.546561	-0.682908	0.104098
C142	C	1.046561	-0.182908	0.604098
C143	C	0.613774	-0.207678	0.289510
C144	C	1.113774	0.292322	0.789510
C145	C	0.613767	-0.155459	0.289504
C146	C	1.113767	0.344541	0.789504
C147	C	0.546496	-0.155500	0.103984
C148	C	1.046496	0.344500	0.603984
C149	C	0.546501	-0.207720	0.104000
C150	C	1.046501	0.292280	0.604000
C151	C	0.580143	-0.233808	0.196756
C152	C	1.080143	0.266192	0.696756
C153	C	0.546574	-0.792566	0.104144
C154	C	1.046574	-0.292566	0.604144
C155	C	0.546580	-0.844787	0.104175
C156	C	1.046580	-0.344787	0.604175
C157	C	0.613853	-0.844741	0.289687
C158	C	1.113853	-0.344741	0.789687
C159	C	0.613845	-0.792525	0.289663
C160	C	1.113845	-0.292525	0.789663
C161	C	0.580203	-0.766439	0.196879
C162	C	1.080203	-0.266439	0.696879
O163	O	0.642412	-0.709897	0.368494
O164	O	1.142412	-0.209897	0.868494
O165	O	0.517965	-0.709935	0.025204
O166	O	1.017965	-0.209935	0.525204
C167	C	0.546539	-0.474040	0.104039
C168	C	1.046539	0.025960	0.604039
C169	C	0.580172	-0.447913	0.196780
C170	C	1.080172	0.052087	0.696780
C171	C	0.613810	-0.474002	0.289540
C172	C	1.113810	0.025998	0.789540
C173	C	0.580165	-0.395694	0.196775
C174	C	1.080165	0.104306	0.696775
C175	C	0.546527	-0.369605	0.104015
C176	C	1.046527	0.130395	0.604015
C177	C	0.512897	-0.395735	0.011261
C178	C	1.012897	0.104265	0.511261
C179	C	0.512902	-0.447951	0.011279
C180	C	1.012902	0.052049	0.511279
C181	C	0.647440	-0.447872	0.382294
C182	C	1.147440	0.052128	0.882294
C183	C	0.647432	-0.395655	0.382270
C184	C	1.147432	0.104345	0.882270
C185	C	0.613794	-0.369566	0.289510
C186	C	1.113794	0.130434	0.789510
C187	C	0.667922	-0.000141	0.183442
C188	C	1.167922	0.499859	0.683442
C189	C	0.721663	-0.000149	0.185170
C190	C	1.221663	0.499851	0.685170
C191	C	0.570581	-0.000121	-0.084846
C192	C	1.070581	0.499879	0.415154
C193	C	0.561665	-0.000117	-0.255812
C194	C	1.061665	0.499883	0.244188
N195	N	0.580218	0.129124	0.196934
N196	N	1.080218	0.629124	0.696934
C197	C	0.589762	-0.000124	0.478537
C198	C	1.089762	0.499876	0.978537
C199	C	0.598678	-0.000125	0.649502
C200	C	1.098678	0.499875	1.149502
H201	H	-0.273636	0.081902	0.185408
H202	H	0.226364	0.581902	0.685408
H203	H	0.641171	-0.228914	0.365048
H204	H	1.141171	0.271086	0.865048
H205	H	0.674862	-0.625770	0.457848
H206	H	1.174862	-0.125770	0.957848
H207	H	0.050235	0.127152	0.195954
H208	H	0.550235	0.627152	0.695954
H209	H	0.637190	-0.000115	-0.300762
H210	H	1.137190	0.499885	0.199238
H211	H	0.050206	-0.127394	0.195688
H212	H	0.550206	0.372606	0.695688
H213	H	-0.182040	0.081914	0.188361
H214	H	0.317960	0.581914	0.688361
H215	H	-0.041357	0.127145	0.192981
H216	H	0.458643	0.627145	0.692981
H217	H	0.342392	0.081952	0.205463
H218	H	0.842392	0.581952	0.705463
H219	H	0.641238	-0.865992	0.365213
H220	H	1.141238	-0.365992	0.865213
H221	H	0.434003	0.081954	0.208441
H222	H	0.934003	0.581954	0.708441
H223	H	0.201725	0.127158	0.200882
H224	H	0.701725	0.627158	0.700882
H225	H	0.485519	-0.531148	-0.064229
H226	H	0.985519	-0.031148	0.435771
H227	H	0.523156	-0.000106	-0.305540
H228	H	1.023156	0.499894	0.194460
H229	H	0.519112	-0.228990	0.028476
H230	H	1.019112	0.271010	0.528476
H231	H	0.433978	-0.082141	0.208313
H232	H	0.933978	0.417859	0.708313
H233	H	0.342383	-0.082150	0.205288
H234	H	0.842383	0.417850	0.705288
H235	H	-0.041390	-0.127397	0.192710
H236	H	0.458610	0.372603	0.692710
H237	H	0.674833	-0.469108	0.457829
H238	H	1.174833	0.030892	0.957829
H239	H	-0.273656	-0.082192	0.185252
H240	H	0.226344	0.417808	0.685252
H241	H	-0.182043	-0.082189	0.188249
H242	H	0.317957	0.417811	0.688249
H243	H	0.201691	-0.127376	0.200653
H244	H	0.701691	0.372624	0.700653
H245	H	0.674851	-0.531046	0.457840
H246	H	1.174851	-0.031046	0.957840
H247	H	0.110098	-0.127381	0.197660
H248	H	0.610098	0.372619	0.697660
H249	H	0.110118	0.127157	0.197903
H250	H	0.610118	0.627157	0.697903
H251	H	0.519188	-0.866057	0.028648
H252	H	1.019188	-0.366057	0.528648
H253	H	0.519180	-0.771333	0.028590
H254	H	1.019180	-0.271333	0.528590
H255	H	0.485528	-0.625868	-0.064198
H256	H	0.985528	-0.125868	0.435802
H257	H	0.641151	-0.134191	0.365047
H258	H	1.141151	0.365809	0.865047
H259	H	0.519105	-0.134250	0.028460
H260	H	1.019105	0.365750	0.528460
H261	H	0.641228	-0.771251	0.365208
H262	H	1.141228	-0.271251	0.865208
H263	H	0.485512	-0.469220	-0.064246
H264	H	0.985512	0.030780	0.435754
H265	H	0.674822	-0.374387	0.457811
H266	H	1.174822	0.125613	0.957811
H267	H	0.485506	-0.374484	-0.064260
H268	H	0.985506	0.125516	0.435740
