data_functionalizedCrystal
_audit_creation_method	'MofGen! by Chris Wilmer'
_symmetry_space_group_name_H-M	'P1'
_symmetry_Int_Tables_number	1
_symmetry_cell_setting	triclinic
loop_
_symmetry_equiv_pos_as_xyz
  x,y,z
_cell_length_a	10.654559
_cell_length_b	10.654550
_cell_length_c	9.730223
_cell_angle_alpha	90.000073
_cell_angle_beta	90.001770
_cell_angle_gamma	95.513226
loop_
_atom_site_label
_atom_site_type_symbol
_atom_site_fract_x
_atom_site_fract_y
_atom_site_fract_z
O1	O	-0.176392	1.667840	-0.114283
O2	O	-0.193199	1.302362	-0.114288
O3	O	-0.002057	1.493498	-0.114274
O4	O	-0.367534	1.476704	-0.114296
O5	O	-0.002062	1.493496	0.114306
O6	O	-0.193203	1.302360	0.114292
O7	O	-0.176397	1.667838	0.114297
Zn8	Zn	-0.184801	1.485098	0.150587
Zn9	Zn	-0.184795	1.485101	-0.150577
O10	O	-0.367539	1.476701	0.114284
C11	C	-0.191967	1.255563	0.000002
C12	C	-0.188275	1.116119	0.000000
C13	C	0.044738	1.492261	0.000015
C14	C	0.184181	1.488565	0.000015
C15	C	-0.177629	1.714637	0.000005
C16	C	-0.181321	1.854080	-0.000003
C17	C	-0.414334	1.477938	-0.000009
C18	C	-0.553777	1.481635	-0.000017
C19	C	0.380701	1.483365	-0.124609
C20	C	0.249679	1.486835	-0.124594
C21	C	0.249713	1.486838	0.124616
C22	C	0.380733	1.483377	0.124600
C23	C	0.380680	1.483357	-0.268489
C24	C	0.249658	1.486827	-0.268474
N25	N	-0.184805	1.485105	0.356123
C26	C	-0.068780	1.933562	-0.000001
C27	C	-0.072256	2.064583	0.000005
C28	C	-0.300825	2.036627	0.000003
C29	C	-0.297347	1.905609	0.000007
C30	C	0.063183	1.949703	-0.000006
C31	C	0.059706	2.080724	0.000000
N32	N	-0.184781	1.485104	-0.356113
C33	C	-0.100196	1.569762	0.428055
C34	C	-0.100181	1.569759	0.571938
C35	C	-0.269394	1.400438	0.571945
C36	C	-0.269402	1.400436	0.428064
C37	C	-0.002506	1.667523	0.428052
C38	C	-0.002491	1.667519	0.571935
H39	H	0.434079	1.481987	0.226055
H40	H	0.220077	1.578424	-0.313119
H41	H	-0.338286	1.331491	0.369499
H42	H	0.426947	1.570150	-0.323740
H43	H	0.088732	1.637003	0.616556
H44	H	0.196375	1.488259	0.226075
H45	H	-0.388989	1.840898	0.000022
Br46	Br	0.429984	1.330697	-0.342900
H47	H	0.094026	1.646077	0.389004
H48	H	0.114795	1.920347	0.095652
Br49	Br	0.126153	2.156815	0.164501
Br50	Br	0.133215	1.890299	-0.164501
Br51	Br	0.142548	2.150326	-0.159444
Br52	Br	-0.038339	1.828376	0.637036
Br53	Br	-0.053510	1.819490	0.353657
H54	H	0.203371	1.400030	-0.323708
H55	H	-0.395290	2.078598	0.000012
Br56	Br	-0.384196	1.285531	0.669586
