data_functionalizedCrystal
_audit_creation_method	'MofGen! by Chris Wilmer'
_symmetry_space_group_name_H-M	'P1'
_symmetry_Int_Tables_number	1
_symmetry_cell_setting	triclinic
loop_
_symmetry_equiv_pos_as_xyz
  x,y,z
_cell_length_a	19.805405
_cell_length_b	19.805407
_cell_length_c	19.805399
_cell_angle_alpha	89.980427
_cell_angle_beta	89.970699
_cell_angle_gamma	90.026410
loop_
_atom_site_label
_atom_site_type_symbol
_atom_site_fract_x
_atom_site_fract_y
_atom_site_fract_z
Zn1	Zn	-0.269479	1.034736	-0.382712
Zn2	Zn	0.230521	1.534736	0.117288
Zn3	Zn	-0.382667	1.034651	-0.269520
Zn4	Zn	0.117333	1.534651	0.230480
Zn5	Zn	-0.269498	0.921550	-0.269536
Zn6	Zn	0.230502	1.421550	0.230464
Zn7	Zn	-0.382631	0.921514	-0.382667
Zn8	Zn	0.117369	1.421514	0.117333
O9	O	-0.326069	0.978113	-0.326109
O10	O	0.173931	1.478113	0.173891
O11	O	-0.284501	1.129441	-0.367708
O12	O	0.215499	1.629441	0.132292
O13	O	-0.367678	1.019627	-0.174805
O14	O	0.132322	1.519627	0.325195
O15	O	-0.174778	0.936616	-0.284575
O16	O	0.325222	1.436616	0.215425
O17	O	-0.367660	1.129378	-0.284547
O18	O	0.132340	1.629378	0.215453
O19	O	-0.174765	1.019772	-0.367724
O20	O	0.325235	1.519772	0.132276
O21	O	-0.284533	0.936533	-0.174817
O22	O	0.215467	1.436533	0.325183
O23	O	-0.284498	0.826829	-0.284531
O24	O	0.215502	1.326829	0.215469
O25	O	-0.367598	0.936553	-0.477389
O26	O	0.132402	1.436553	0.022611
O27	O	-0.367617	0.826802	-0.367648
O28	O	0.132383	1.326802	0.132352
O29	O	-0.284466	1.019737	-0.477422
O30	O	0.215534	1.519737	0.022578
O31	O	-0.477379	1.019592	-0.284503
O32	O	0.022621	1.519592	0.215497
O33	O	-0.477353	0.936471	-0.367632
O34	O	0.022647	1.436471	0.132368
C35	C	-0.326056	0.802257	-0.326087
C36	C	0.173944	1.302257	0.173913
C37	C	-0.326067	0.727025	-0.326093
C38	C	0.173933	1.227025	0.173907
C39	C	-0.369412	0.691684	-0.369302
C40	C	0.130588	1.191684	0.130698
C41	C	-0.369413	0.620996	-0.369312
C42	C	0.130587	1.120996	0.130688
C43	C	-0.326072	0.585649	-0.326109
C44	C	0.173928	1.085649	0.173891
C45	C	-0.282722	0.620994	-0.282898
C46	C	0.217278	1.120994	0.217102
C47	C	-0.282718	0.691681	-0.282892
C48	C	0.217282	1.191681	0.217108
C49	C	-0.282737	0.335921	-0.282920
C50	C	0.217263	0.835921	0.217080
C51	C	-0.282746	0.265229	-0.282928
C52	C	0.217254	0.765229	0.217072
C53	C	-0.369432	0.265235	-0.369340
C54	C	0.130568	0.765235	0.130660
C55	C	-0.369428	0.335922	-0.369334
C56	C	0.130572	0.835922	0.130666
C57	C	-0.326076	0.371262	-0.326126
C58	C	0.173924	0.871262	0.173874
C59	C	-0.326074	0.447910	-0.326117
C60	C	0.173926	0.947910	0.173883
C61	C	-0.326076	0.509002	-0.326114
C62	C	0.173924	1.009002	0.173886
C63	C	-0.501925	0.978036	-0.326076
C64	C	-0.001925	1.478036	0.173924
C65	C	-0.577157	0.978066	-0.326084
C66	C	-0.077157	1.478066	0.173916
C67	C	-0.612492	1.021389	-0.282845
C68	C	-0.112492	1.521389	0.217155
C69	C	-0.683181	1.021418	-0.282860
C70	C	-0.183181	1.521418	0.217140
C71	C	-0.718532	0.978119	-0.326111
C72	C	-0.218532	1.478119	0.173889
C73	C	-0.683192	0.934794	-0.369356
C74	C	-0.183192	1.434794	0.130644
C75	C	-0.612505	0.934769	-0.369344
C76	C	-0.112505	1.434769	0.130656
C77	C	-0.968265	0.934894	-0.369406
C78	C	-0.468265	1.434894	0.130594
C79	C	-1.038957	0.934921	-0.369413
C80	C	-0.538957	1.434921	0.130587
C81	C	-1.038941	1.021542	-0.282922
C82	C	-0.538941	1.521542	0.217078
C83	C	-0.968254	1.021517	-0.282910
C84	C	-0.468254	1.521517	0.217090
C85	C	-0.932920	0.978195	-0.326157
C86	C	-0.432920	1.478195	0.173843
C87	C	-0.856271	0.978166	-0.326141
C88	C	-0.356271	1.478166	0.173859
C89	C	-0.795179	0.978145	-0.326124
C90	C	-0.295179	1.478145	0.173876
C91	C	-0.149526	0.978207	-0.326156
C92	C	0.350474	1.478207	0.173844
C93	C	-0.074294	0.978248	-0.326177
C94	C	0.425706	1.478248	0.173823
C95	C	-0.326026	0.978151	-0.502651
C96	C	0.173974	1.478151	-0.002651
C97	C	-0.326008	0.978167	-0.577883
C98	C	0.173992	1.478167	-0.077883
C99	C	-0.326082	1.154655	-0.326131
C100	C	0.173918	1.654655	0.173869
C101	C	-0.326088	1.229887	-0.326140
C102	C	0.173912	1.729887	0.173860
C103	C	-0.282719	1.021481	-0.613246
C104	C	0.217281	1.521481	-0.113246
C105	C	-0.282699	1.021488	-0.683934
C106	C	0.217301	1.521488	-0.183934
C107	C	-0.325973	0.978184	-0.719259
C108	C	0.174027	1.478184	-0.219259
C109	C	-0.369264	0.934864	-0.683892
C110	C	0.130736	1.434864	-0.183892
C111	C	-0.369279	0.934854	-0.613204
C112	C	0.130721	1.434854	-0.113204
C113	C	-0.369201	0.934902	-0.968965
C114	C	0.130799	1.434902	-0.468965
C115	C	-0.369183	0.934917	-1.039657
C116	C	0.130817	1.434917	-0.539657
C117	C	-0.282620	1.021536	-1.039695
C118	C	0.217380	1.521536	-0.539695
C119	C	-0.282636	1.021527	-0.969008
C120	C	0.217364	1.521527	-0.469008
C121	C	-0.325924	0.978205	-0.933647
C122	C	0.174076	1.478205	-0.433647
C123	C	-0.325944	0.978197	-0.856998
C124	C	0.174056	1.478197	-0.356998
C125	C	-0.325957	0.978194	-0.795906
C126	C	0.174043	1.478194	-0.295906
C127	C	-0.326062	0.978114	-0.150253
C128	C	0.173938	1.478114	0.349747
C129	C	-0.325890	0.978229	-0.075021
C130	C	0.174110	1.478229	0.424979
H131	H	-0.404709	0.592225	-0.404496
H132	H	0.095291	1.092225	0.095504
H133	H	-0.404523	0.899576	-0.584413
H134	H	0.095477	1.399576	-0.084413
O135	O	-0.717635	0.892756	-0.411307
O136	O	-0.217635	1.392756	0.088693
C137	C	-0.787603	0.902076	-0.402058
C138	C	-0.287603	1.402076	0.097942
H139	H	-0.797274	0.924279	-0.349845
H140	H	-0.297274	1.424279	0.150155
H141	H	-0.814505	0.851383	-0.406604
H142	H	-0.314505	1.351383	0.093396
H143	H	-0.807608	0.938103	-0.442242
H144	H	-0.307608	1.438103	0.057758
H145	H	-0.404495	0.899602	-0.712659
H146	H	0.095505	1.399602	-0.212659
O147	O	-0.240618	1.063570	-0.579039
O148	O	0.259382	1.563570	-0.079039
C149	C	-0.202417	1.101813	-0.625413
C150	C	0.297583	1.601813	-0.125413
H151	H	-0.200062	1.074097	-0.675796
H152	H	0.299938	1.574097	-0.175796
H153	H	-0.149094	1.109059	-0.605007
H154	H	0.350906	1.609059	-0.105007
H155	H	-0.227205	1.153207	-0.632934
H156	H	0.272795	1.653207	-0.132934
O157	O	-0.240574	0.230997	-0.240940
O158	O	0.259426	0.730997	0.259060
C159	C	-0.202320	0.277345	-0.202791
C160	C	0.297680	0.777345	0.297209
H161	H	-0.200008	0.327746	-0.230513
H162	H	0.299992	0.827746	0.269487
H163	H	-0.148984	0.256934	-0.195676
H164	H	0.351016	0.756934	0.304324
H165	H	-0.227032	0.284831	-0.151337
H166	H	0.272968	0.784831	0.348663
O167	O	-0.240654	1.063561	-0.934589
O168	O	0.259346	1.563561	-0.434589
C169	C	-0.249933	1.054246	-0.864616
C170	C	0.250067	1.554246	-0.364616
H171	H	-0.302174	1.032064	-0.854940
H172	H	0.197826	1.532064	-0.354940
H173	H	-0.245333	1.104938	-0.837756
H174	H	0.254667	1.604938	-0.337756
H175	H	-0.209796	1.018205	-0.844570
H176	H	0.290204	1.518205	-0.344570
O177	O	-0.717484	1.063663	-0.241002
O178	O	-0.217484	1.563663	0.258998
C179	C	-0.758249	1.107360	-0.279664
C180	C	-0.258249	1.607360	0.220336
H181	H	-0.736906	1.111360	-0.332984
H182	H	-0.236906	1.611360	0.167016
H183	H	-0.758927	1.159512	-0.255334
H184	H	-0.258927	1.659512	0.244666
H185	H	-0.811875	1.086543	-0.281938
H186	H	-0.311875	1.586543	0.218062
H187	H	-0.404729	0.236454	-0.404524
H188	H	0.095271	0.736454	0.095476
O189	O	-0.933884	1.063481	-0.240823
O190	O	-0.433884	1.563481	0.259177
C191	C	-0.893044	1.024959	-0.197074
C192	C	-0.393044	1.524959	0.302926
H193	H	-0.914392	0.971661	-0.192845
H194	H	-0.414392	1.471661	0.307155
H195	H	-0.892256	1.049472	-0.145009
H196	H	-0.392256	1.549472	0.354991
H197	H	-0.839459	1.022596	-0.217992
H198	H	-0.339459	1.522596	0.282008
H199	H	-0.583735	0.899492	-0.404555
H200	H	-0.083735	1.399492	0.095445
O201	O	-0.240663	1.063494	-0.718390
O202	O	0.259337	1.563494	-0.218390
C203	C	-0.249931	1.054225	-0.788355
C204	C	0.250069	1.554225	-0.288355
H205	H	-0.272099	1.001982	-0.797990
H206	H	0.227901	1.501982	-0.297990
H207	H	-0.199222	1.058836	-0.815228
H208	H	0.300778	1.558836	-0.315228
H209	H	-0.285965	1.094359	-0.808421
H210	H	0.214035	1.594359	-0.308421
H211	H	-0.404459	0.899637	-0.940183
H212	H	0.095541	1.399637	-0.440183
O213	O	-0.240595	0.725909	-0.240851
O214	O	0.259405	1.225909	0.259149
C215	C	-0.202331	0.679555	-0.202730
C216	C	0.297669	1.179555	0.297270
H217	H	-0.230054	0.629154	-0.200341
H218	H	0.269946	1.129154	0.299659
H219	H	-0.195042	0.699959	-0.149413
H220	H	0.304958	1.199959	0.350587
H221	H	-0.150957	0.672070	-0.227608
H222	H	0.349043	1.172070	0.272392
O223	O	-0.240584	1.063551	-1.074151
O224	O	0.259416	1.563551	-0.574151
C225	C	-0.249855	1.054287	-1.144116
C226	C	0.250145	1.554287	-0.644116
H227	H	-0.272014	1.002041	-1.153755
H228	H	0.227986	1.502041	-0.653755
H229	H	-0.199148	1.058910	-1.170993
H230	H	0.300852	1.558910	-0.670993
H231	H	-0.285897	1.094417	-1.164176
H232	H	0.214103	1.594417	-0.664176
O233	O	-1.073330	0.892791	-0.411338
O234	O	-0.573330	1.392791	0.088662
C235	C	-1.114292	0.849120	-0.372772
C236	C	-0.614292	1.349120	0.127228
H237	H	-1.093025	0.844955	-0.319459
H238	H	-0.593025	1.344955	0.180541
H239	H	-1.115124	0.797020	-0.397211
H240	H	-0.615124	1.297020	0.102789
H241	H	-1.167847	0.870070	-0.370463
H242	H	-0.667847	1.370070	0.129537
O243	O	-0.240724	0.370315	-0.240911
O244	O	0.259276	0.870315	0.259089
C245	C	-0.279196	0.411157	-0.197107
C246	C	0.220804	0.911157	0.302893
H247	H	-0.330518	0.421746	-0.220885
H248	H	0.169482	0.921746	0.279115
H249	H	-0.251605	0.460867	-0.188077
H250	H	0.248395	0.960867	0.311923
H251	H	-0.286573	0.383887	-0.146939
H252	H	0.213427	0.883887	0.353061
O253	O	-0.411313	0.892878	-1.073897
O254	O	0.088687	1.392878	-0.573897
C255	C	-0.478780	0.907635	-1.056619
C256	C	0.021220	1.407635	-0.556619
H257	H	-0.480199	0.933642	-1.005299
H258	H	0.019801	1.433642	-0.505299
H259	H	-0.509122	0.858766	-1.054186
H260	H	-0.009122	1.358766	-0.554186
H261	H	-0.501574	0.942427	-1.096401
H262	H	-0.001574	1.442427	-0.596401
O263	O	-0.578081	1.063482	-0.240922
O264	O	-0.078081	1.563482	0.259078
C265	C	-0.537143	1.107173	-0.279491
C266	C	-0.037143	1.607173	0.220509
H267	H	-0.526535	1.083267	-0.330760
H268	H	-0.026535	1.583267	0.169240
H269	H	-0.487448	1.116244	-0.251919
H270	H	0.012552	1.616244	0.248081
H271	H	-0.564340	1.157337	-0.286981
H272	H	-0.064340	1.657337	0.213019
H273	H	-0.404707	0.720458	-0.404481
H274	H	0.095293	1.220458	0.095519
O275	O	-0.934025	0.892836	-0.411501
O276	O	-0.434025	1.392836	0.088499
C277	C	-0.951231	0.907598	-0.478979
C278	C	-0.451231	1.407598	0.021021
H279	H	-1.002529	0.933642	-0.480414
H280	H	-0.502529	1.433642	0.019586
H281	H	-0.953679	0.858727	-0.509276
H282	H	-0.453679	1.358727	-0.009276
H283	H	-0.911400	0.942359	-0.501811
H284	H	-0.411400	1.442359	-0.001811
O285	O	-1.073290	1.063715	-0.241019
O286	O	-0.573290	1.563715	0.258981
C287	C	-1.114119	1.107416	-0.279608
C288	C	-0.614119	1.607416	0.220392
H289	H	-1.092777	1.111542	-0.332918
H290	H	-0.592777	1.611542	0.167082
H291	H	-1.114880	1.159524	-0.255186
H292	H	-0.614880	1.659524	0.244814
H293	H	-1.167712	1.086519	-0.281923
H294	H	-0.667712	1.586519	0.218077
O295	O	-0.411551	0.370153	-0.411366
O296	O	0.088449	0.870153	0.088634
C297	C	-0.449821	0.323802	-0.449495
C298	C	0.050179	0.823802	0.050505
H299	H	-0.422105	0.273425	-0.451893
H300	H	0.077895	0.773425	0.048107
H301	H	-0.457107	0.344246	-0.502809
H302	H	0.042893	0.844246	-0.002809
H303	H	-0.501195	0.316254	-0.424617
H304	H	-0.001195	0.816254	0.075383
O305	O	-0.240715	0.586629	-0.240861
O306	O	0.259285	1.086629	0.259139
C307	C	-0.279192	0.545693	-0.197088
C308	C	0.220808	1.045693	0.302912
H309	H	-0.332493	0.566973	-0.192803
H310	H	0.167507	1.066973	0.307197
H311	H	-0.254640	0.544876	-0.145045
H312	H	0.245360	1.044876	0.354955
H313	H	-0.281557	0.492129	-0.218017
H314	H	0.218443	0.992129	0.281983
