data_functionalizedCrystal
_audit_creation_method	'MofGen! by Chris Wilmer'
_symmetry_space_group_name_H-M	'P1'
_symmetry_Int_Tables_number	1
_symmetry_cell_setting	triclinic
loop_
_symmetry_equiv_pos_as_xyz
  x,y,z
_cell_length_a	13.033293
_cell_length_b	12.759394
_cell_length_c	13.033109
_cell_angle_alpha	97.153824
_cell_angle_beta	74.800007
_cell_angle_gamma	97.184672
loop_
_atom_site_label
_atom_site_type_symbol
_atom_site_fract_x
_atom_site_fract_y
_atom_site_fract_z
Zn1	Zn	1.700300	-0.304416	-0.807184
Zn2	Zn	1.677637	-0.460336	-0.629559
Zn3	Zn	1.500104	-0.304435	-0.606987
Zn4	Zn	1.522639	-0.499823	-0.784533
O5	O	1.600170	-0.392252	-0.707066
O6	O	1.845944	-0.308565	-0.802548
O7	O	1.635172	-0.423138	-0.477924
O8	O	1.526713	-0.157409	-0.633576
O9	O	1.829294	-0.423119	-0.672048
O10	O	1.673796	-0.157394	-0.780660
O11	O	1.504739	-0.308598	-0.461340
O12	O	1.354443	-0.346887	-0.611612
O13	O	1.565121	-0.490419	-0.936179
O14	O	1.370999	-0.490438	-0.742055
O15	O	1.695648	-0.346854	-0.952820
O16	O	1.657023	-0.612598	-0.650084
O17	O	1.543146	-0.641609	-0.763943
C18	C	1.324178	-0.422950	-0.671927
C19	C	1.206110	-0.436111	-0.656920
C20	C	1.161723	-0.385410	-0.714898
C21	C	1.039694	-0.399011	-0.699389
C22	C	1.600103	-0.665224	-0.707032
C23	C	1.600176	-0.781996	-0.707065
C24	C	1.718871	-0.751733	-0.588619
C25	C	1.778247	-0.791461	-0.529412
C26	C	1.778313	-0.901179	-0.529448
C27	C	1.718999	-0.971173	-0.588701
C28	C	1.659622	-0.931445	-0.647909
C29	C	1.659560	-0.821723	-0.647863
C30	C	1.540935	-0.961707	-0.766360
C31	C	1.540861	-0.851990	-0.766318
C32	C	1.481620	-1.031702	-0.825613
C33	C	1.422236	-0.991974	-0.884815
C34	C	1.422172	-0.882249	-0.884775
C35	C	1.481485	-0.812262	-0.825526
C36	C	1.877240	-0.361435	-0.742342
C37	C	1.995310	-0.348303	-0.757375
C38	C	1.635426	-0.423039	-0.984118
C39	C	1.650450	-0.436159	-1.102181
C40	C	1.600269	-0.118214	-0.707127
C41	C	1.600311	-0.001435	-0.707153
C42	C	1.592613	-0.385336	-1.146612
C43	C	1.608139	-0.398894	-1.268636
C44	C	1.565112	-0.361503	-0.431099
C45	C	1.550294	-0.348064	-0.313063
H46	H	0.987358	-0.452489	-0.638263
F47	F	1.063710	-0.278391	-0.837262
F48	F	1.359124	-1.066470	-0.947877
F49	F	1.841513	-0.943461	-0.466440
F50	F	1.481295	-1.148472	-0.825254
F51	F	1.470518	-0.278089	-1.244712
H52	H	1.718807	-0.662394	-0.588568
H53	H	1.531597	-0.331792	-1.094312
H54	H	1.153771	-0.489585	-0.595799
F55	F	1.358980	-0.839977	-0.947799
F56	F	1.718675	-1.087943	-0.588340
F57	F	1.481693	-0.695489	-0.825750
H58	H	1.711461	-0.489709	-1.154480
F59	F	1.687887	-0.468898	-1.336985
H60	H	1.826543	-0.734462	-0.481171
H61	H	1.214062	-0.331929	-0.776013
