data_functionalizedCrystal
_audit_creation_method	'MofGen! by Chris Wilmer'
_symmetry_space_group_name_H-M	'P1'
_symmetry_Int_Tables_number	1
_symmetry_cell_setting	triclinic
loop_
_symmetry_equiv_pos_as_xyz
  x,y,z
_cell_length_a	13.262533
_cell_length_b	13.101039
_cell_length_c	14.044190
_cell_angle_alpha	93.663707
_cell_angle_beta	91.351948
_cell_angle_gamma	77.491930
loop_
_atom_site_label
_atom_site_type_symbol
_atom_site_fract_x
_atom_site_fract_y
_atom_site_fract_z
O1	O	1.385909	-0.301029	-0.146142
O2	O	1.885909	0.198971	0.353858
O3	O	1.086809	-0.217666	-0.154929
O4	O	1.586809	0.282334	0.345071
O5	O	1.231864	-0.258115	-0.012457
O6	O	1.731864	0.241885	0.487543
O7	O	1.240854	-0.260580	-0.288613
O8	O	1.740854	0.239420	0.211387
O9	O	1.221458	-0.425643	-0.022696
O10	O	1.721458	0.074357	0.477304
O11	O	1.076403	-0.385194	-0.165168
O12	O	1.576403	0.114806	0.334832
O13	O	1.375503	-0.468557	-0.156381
O14	O	1.875503	0.031443	0.343619
Zn15	Zn	1.224301	-0.453474	-0.162400
Zn16	Zn	1.724301	0.046526	0.337600
Zn17	Zn	1.238011	-0.232749	-0.148909
Zn18	Zn	1.738011	0.267251	0.351091
O19	O	1.230448	-0.428108	-0.298853
O20	O	1.730448	0.071892	0.201147
C21	C	1.043096	-0.290697	-0.158613
C22	C	1.543096	0.209303	0.341387
C23	C	0.928348	-0.258716	-0.154326
C24	C	1.428348	0.241284	0.345674
C25	C	0.582196	-0.533847	-0.164581
C26	C	1.082196	-0.033847	0.335419
C27	C	0.690007	-0.563899	-0.168614
C28	C	1.190007	-0.063899	0.331386
C29	C	0.749597	-0.487606	-0.165042
C30	C	1.249597	0.012394	0.334958
C31	C	0.701366	-0.381255	-0.157437
C32	C	1.201366	0.118745	0.342563
C33	C	0.593545	-0.351200	-0.153411
C34	C	1.093545	0.148800	0.346589
C35	C	0.760946	-0.304959	-0.153872
C36	C	1.260946	0.195041	0.346128
C37	C	0.712715	-0.198608	-0.146268
C38	C	1.212715	0.301392	0.353732
C39	C	0.604904	-0.168558	-0.142242
C40	C	1.104904	0.331442	0.357758
C41	C	0.545314	-0.244851	-0.145813
C42	C	1.045314	0.255149	0.354187
C43	C	0.868768	-0.335015	-0.157898
C44	C	1.368768	0.164985	0.342102
C45	C	0.880117	-0.152367	-0.146728
C46	C	1.380117	0.347633	0.353272
C47	C	0.772306	-0.122315	-0.142696
C48	C	1.272306	0.377685	0.357304
N49	N	1.214951	-0.604116	-0.171607
N50	N	1.714951	-0.104116	0.328393
C51	C	1.202232	-0.809611	-0.184142
C52	C	1.702232	-0.309611	0.315858
C53	C	1.260085	-0.876619	-0.127163
C54	C	1.760085	-0.376619	0.372837
C55	C	1.253007	-0.990964	-0.134138
C56	C	1.753007	-0.490964	0.365862
C57	C	1.209308	-0.695256	-0.177169
C58	C	1.709308	-0.195256	0.322831
C59	C	1.419216	-0.395524	-0.152696
C60	C	1.919216	0.104476	0.347304
C61	C	1.533965	-0.427498	-0.156983
C62	C	2.033965	0.072502	0.343017
C63	C	1.222730	-0.340786	0.017821
C64	C	1.722730	0.159214	0.517821
C65	C	1.211003	-0.337527	0.123293
C66	C	1.711003	0.162473	0.623293
N67	N	1.247368	-0.082109	-0.139695
N68	N	1.747368	0.417891	0.360305
C69	C	1.239582	-0.345435	-0.329130
C70	C	1.739582	0.154565	0.170870
C71	C	1.251310	-0.348688	-0.434602
C72	C	1.751310	0.151312	0.065398
C73	C	1.272735	-0.354692	0.372281
C74	C	1.772735	0.145308	0.872281
C75	C	1.189583	-0.331524	0.316404
C76	C	1.689583	0.168476	0.816404
C77	C	1.201504	-0.334864	0.208947
C78	C	1.701504	0.165136	0.708947
C79	C	1.260815	-0.351351	0.479748
C80	C	1.760815	0.148649	0.979748
H81	H	0.837381	-0.512081	-0.168326
H82	H	1.337381	-0.012081	0.331674
Cl83	Cl	1.065848	-0.297036	0.367138
Cl84	Cl	1.565848	0.202964	0.867138
Cl85	Cl	1.117564	-0.853623	-0.267542
Cl86	Cl	1.617564	-0.353623	0.232458
H87	H	0.733021	-0.035722	-0.136505
H88	H	1.233021	0.464278	0.363495
H89	H	0.908026	-0.421606	-0.164092
H90	H	1.408026	0.078394	0.335908
Cl91	Cl	0.750632	-0.697591	-0.178177
Cl92	Cl	1.250632	-0.197591	0.321823
H93	H	0.565638	-0.081960	-0.136060
H94	H	1.065638	0.418040	0.363940
Cl95	Cl	0.507278	-0.629745	-0.169083
Cl96	Cl	1.007278	-0.129745	0.330917
H97	H	1.352870	-0.377037	0.339419
H98	H	1.852870	0.122963	0.839419
H99	H	0.457525	-0.220388	-0.142521
H100	H	0.957525	0.279612	0.357479
H101	H	0.928635	-0.090243	-0.143823
H102	H	1.428635	0.409757	0.356177
H103	H	1.314930	-0.848111	-0.073145
H104	H	1.814930	-0.348111	0.426855
