data_functionalizedCrystal
_audit_creation_method	'MofGen! by Chris Wilmer'
_symmetry_space_group_name_H-M	'P1'
_symmetry_Int_Tables_number	1
_symmetry_cell_setting	triclinic
loop_
_symmetry_equiv_pos_as_xyz
  x,y,z
_cell_length_a	6.817900
_cell_length_b	8.749630
_cell_length_c	9.514088
_cell_angle_alpha	89.907095
_cell_angle_beta	118.843545
_cell_angle_gamma	105.181985
loop_
_atom_site_label
_atom_site_type_symbol
_atom_site_fract_x
_atom_site_fract_y
_atom_site_fract_z
V1	V	-4.224450	-0.221596	-0.498631
O2	O	-4.201118	0.007764	-0.491285
O3	O	-4.181426	-0.436614	-0.493158
O4	O	-4.259160	-0.219454	-0.717043
O5	O	-4.122845	-0.210900	-0.265850
V6	V	-4.696612	-0.194013	-0.471039
O7	O	-4.510629	-0.282103	-0.559156
O8	O	-4.860630	-0.133506	-0.410514
O9	O	-4.516429	0.021005	-0.476513
O10	O	-4.837341	-0.423373	-0.478386
O11	O	-4.915613	-0.204709	-0.703821
O12	O	-4.438695	-0.196155	-0.252628
C13	C	-4.025046	-0.488991	-0.484759
C14	C	-4.071709	-0.664779	-0.481739
C15	C	-4.124201	-0.211979	-0.770345
C16	C	-4.233900	-0.211650	-0.948884
C17	C	-4.336150	0.073374	-0.484907
C18	C	-4.268728	0.249160	-0.487937
C19	C	-4.236993	-0.203635	-0.199317
C20	C	-4.106532	-0.203956	-0.020776
H21	H	-4.401711	-0.690040	-0.495561
N22	N	-3.895537	-0.745307	-0.471646
H23	H	-3.954950	-0.863681	-0.470842
H24	H	-3.740918	-0.697053	-0.368795
H25	H	-4.426884	-0.217989	-1.023931
N26	N	-3.850927	-0.195581	-0.921398
H27	H	-3.806164	-0.197018	-0.803666
H28	H	-3.751464	-0.093481	-0.932434
