data_functionalizedCrystal
_audit_creation_method	'MofGen! by Chris Wilmer'
_symmetry_space_group_name_H-M	'P1'
_symmetry_Int_Tables_number	1
_symmetry_cell_setting	triclinic
loop_
_symmetry_equiv_pos_as_xyz
  x,y,z
_cell_length_a	11.169416
_cell_length_b	12.645331
_cell_length_c	11.169409
_cell_angle_alpha	89.975751
_cell_angle_beta	89.968693
_cell_angle_gamma	90.010363
loop_
_atom_site_label
_atom_site_type_symbol
_atom_site_fract_x
_atom_site_fract_y
_atom_site_fract_z
Zn1	Zn	-0.477704	1.620802	-0.678669
Zn2	Zn	0.022296	2.120802	-0.178669
Zn3	Zn	-0.678444	1.620702	-0.477989
Zn4	Zn	-0.178444	2.120702	0.022011
Zn5	Zn	-0.477774	1.443512	-0.477990
Zn6	Zn	0.022226	1.943512	0.022010
Zn7	Zn	-0.678344	1.443521	-0.678621
Zn8	Zn	-0.178344	1.943521	-0.178621
O9	O	-0.578067	1.532134	-0.578317
O10	O	-0.078067	2.032134	-0.078317
O11	O	-0.504345	1.769136	-0.652068
O12	O	-0.004345	2.269136	-0.152068
O13	O	-0.651896	1.597152	-0.310039
O14	O	-0.151896	2.097152	0.189961
O15	O	-0.309815	1.467067	-0.504631
O16	O	0.190185	1.967067	-0.004631
O17	O	-0.651828	1.769063	-0.504629
O18	O	-0.151828	2.269063	-0.004629
O19	O	-0.309763	1.597322	-0.652069
O20	O	0.190237	2.097322	-0.152069
O21	O	-0.504465	1.466971	-0.310040
O22	O	-0.004465	1.966971	0.189960
O23	O	-0.504368	1.295166	-0.504585
O24	O	-0.004368	1.795166	-0.004585
O25	O	-0.651657	1.467084	-0.846577
O26	O	-0.151657	1.967084	-0.346577
O27	O	-0.651726	1.295173	-0.651988
O28	O	-0.151726	1.795173	-0.151988
O29	O	-0.504248	1.597331	-0.846612
O30	O	-0.004248	2.097331	-0.346612
O31	O	-0.846380	1.597161	-0.504583
O32	O	-0.346380	2.097161	-0.004583
O33	O	-0.846307	1.466987	-0.651986
O34	O	-0.346307	1.966987	-0.151986
C35	C	-0.578045	1.256705	-0.578282
C36	C	-0.078045	1.756705	-0.078282
C37	C	-0.578064	1.138875	-0.578295
C38	C	-0.078064	1.638875	-0.078295
C39	C	-0.485217	1.093953	-0.485715
C40	C	0.014783	1.593953	0.014285
C41	C	-0.484874	0.971393	-0.486032
C42	C	0.015126	1.471393	0.013968
C43	C	-0.544319	0.971044	-0.704990
C44	C	-0.044319	1.471044	-0.204990
C45	C	-0.543625	1.093642	-0.704411
C46	C	-0.043625	1.593642	-0.204411
C47	C	-0.704934	1.093673	-0.545376
C48	C	-0.204934	1.593673	-0.045376
C49	C	-0.704272	0.971066	-0.542630
C50	C	-0.204272	1.471066	-0.042630
C51	C	-0.889891	1.532093	-0.578306
C52	C	-0.389891	2.032093	-0.078306
C53	C	-1.023291	1.532173	-0.578341
C54	C	-0.523291	2.032173	-0.078341
C55	C	-0.265024	1.532205	-0.578356
C56	C	0.234976	2.032205	-0.078356
C57	C	-0.131624	1.532234	-0.578372
C58	C	0.368376	2.032234	-0.078372
C59	C	-0.577934	1.532219	-0.891360
C60	C	-0.077934	2.032219	-0.391360
C61	C	-0.577877	1.532256	-1.024760
C62	C	-0.077877	2.032256	-0.524760
C63	C	-0.578089	1.808640	-0.578354
C64	C	-0.078089	2.308640	-0.078354
C65	C	-0.578099	1.926470	-0.578369
C66	C	-0.078099	2.426470	-0.078369
C67	C	-0.578112	1.532111	-0.266493
C68	C	-0.078112	2.032111	0.233507
C69	C	-0.577831	1.532280	-0.133093
C70	C	-0.077831	2.032280	0.366907
H71	H	-0.609887	0.941954	-0.775885
H72	H	-0.109887	1.441954	-0.275885
Cl73	Cl	-0.402752	0.923664	-0.748726
Cl74	Cl	0.097248	1.423664	-0.248726
Cl75	Cl	-0.517399	0.924849	-0.341097
Cl76	Cl	-0.017399	1.424849	0.158903
Cl77	Cl	-0.643532	1.139538	-0.814595
Cl78	Cl	-0.143532	1.639538	-0.314595
Cl79	Cl	-0.811736	1.138559	-0.649452
Cl80	Cl	-0.311736	1.638559	-0.149452
Cl81	Cl	-0.752547	1.141323	-0.405190
Cl82	Cl	-0.252547	1.641323	0.094810
Cl83	Cl	-0.339747	0.926118	-0.519790
Cl84	Cl	0.160253	1.426118	-0.019790
Cl85	Cl	-0.517343	1.139390	-0.340295
Cl86	Cl	-0.017343	1.639390	0.159705
Cl87	Cl	-0.816739	0.923900	-0.639138
Cl88	Cl	-0.316739	1.423900	-0.139138
H89	H	-0.391742	1.124769	-0.507290
H90	H	0.108258	1.624769	-0.007290
H91	H	-0.729752	0.941928	-0.449442
H92	H	-0.229752	1.441928	0.050558
H93	H	-0.450903	1.122250	-0.732238
H94	H	0.049097	1.622250	-0.232238
