data_functionalizedCrystal
_audit_creation_method	'MofGen! by Chris Wilmer'
_symmetry_space_group_name_H-M	'P1'
_symmetry_Int_Tables_number	1
_symmetry_cell_setting	triclinic
loop_
_symmetry_equiv_pos_as_xyz
  x,y,z
_cell_length_a	21.295417
_cell_length_b	12.759401
_cell_length_c	12.759393
_cell_angle_alpha	89.981504
_cell_angle_beta	89.960830
_cell_angle_gamma	90.030668
loop_
_atom_site_label
_atom_site_type_symbol
_atom_site_fract_x
_atom_site_fract_y
_atom_site_fract_z
Zn1	Zn	-0.250569	1.606140	-0.593926
Zn2	Zn	0.249431	2.106140	-0.093926
Zn3	Zn	-0.355853	1.605986	-0.418223
Zn4	Zn	0.144147	2.105986	0.081777
Zn5	Zn	-0.250602	1.430442	-0.418265
Zn6	Zn	0.249398	1.930442	0.081735
Zn7	Zn	-0.355805	1.430382	-0.593864
Zn8	Zn	0.144195	1.930382	-0.093864
O9	O	-0.303208	1.518237	-0.506069
O10	O	0.196792	2.018237	-0.006069
O11	O	-0.264542	1.753141	-0.570626
O12	O	0.235458	2.253141	-0.070626
O13	O	-0.341926	1.582660	-0.271207
O14	O	0.158074	2.082660	0.228793
O15	O	-0.162509	1.453838	-0.441611
O16	O	0.337491	1.953838	0.058389
O17	O	-0.341894	1.753027	-0.441538
O18	O	0.158106	2.253027	0.058462
O19	O	-0.162484	1.582923	-0.570668
O20	O	0.337516	2.082923	-0.070668
O21	O	-0.264598	1.453689	-0.271238
O22	O	0.235402	1.953689	0.228762
O23	O	-0.264551	1.283413	-0.441551
O24	O	0.235449	1.783413	0.058449
O25	O	-0.341811	1.453736	-0.740893
O26	O	0.158189	1.953736	-0.240893
O27	O	-0.341843	1.283369	-0.570562
O28	O	0.158157	1.783369	-0.070562
O29	O	-0.264495	1.582865	-0.740939
O30	O	0.235505	2.082865	-0.240939
O31	O	-0.443936	1.582602	-0.441478
O32	O	0.056064	2.082602	0.058522
O33	O	-0.443901	1.453587	-0.570521
O34	O	0.056099	1.953587	-0.070521
C35	C	-0.303196	1.245270	-0.506055
C36	C	0.196804	1.745270	-0.006055
C37	C	-0.303206	1.128493	-0.506074
C38	C	0.196794	1.628493	-0.006074
C39	C	-0.343516	1.073636	-0.573139
C40	C	0.156484	1.573636	-0.073139
C41	C	-0.343524	0.963912	-0.573151
C42	C	0.156476	1.463912	-0.073151
C43	C	-0.262910	0.963912	-0.439022
C44	C	0.237090	1.463912	0.060978
C45	C	-0.262899	1.073635	-0.439017
C46	C	0.237101	1.573635	0.060983
C47	C	-0.390061	1.073635	-0.650574
C48	C	0.109939	1.573635	-0.150574
C49	C	-0.390069	0.963911	-0.650585
C50	C	0.109931	1.463911	-0.150585
C51	C	-0.466759	1.518100	-0.506011
C52	C	0.033241	2.018100	-0.006011
C53	C	-0.536727	1.518137	-0.506021
C54	C	-0.036727	2.018137	-0.006021
C55	C	-0.569592	1.585375	-0.438898
C56	C	-0.069592	2.085375	0.061102
C57	C	-0.635334	1.585424	-0.438921
C58	C	-0.135334	2.085424	0.061079
C59	C	-0.668210	1.518217	-0.506058
C60	C	-0.168210	2.018217	-0.006058
C61	C	-0.635338	1.450974	-0.573195
C62	C	-0.135338	1.950974	-0.073195
C63	C	-0.569596	1.450934	-0.573177
C64	C	-0.069596	1.950934	-0.073177
N65	N	-0.771475	1.426309	-0.514062
N66	N	-0.271475	1.926309	-0.014062
N67	N	-0.833927	1.426350	-0.514073
N68	N	-0.333927	1.926350	-0.014073
C69	C	-0.866284	1.518334	-0.506118
C70	C	-0.366284	2.018334	-0.006118
N71	N	-0.833832	1.610278	-0.498130
N72	N	-0.333832	2.110278	0.001870
N73	N	-0.771375	1.610236	-0.498114
N74	N	-0.271375	2.110236	0.001886
C75	C	-0.739495	1.518253	-0.506085
C76	C	-0.239495	2.018253	-0.006085
C77	C	-0.970434	1.585631	-0.439016
C78	C	-0.470434	2.085631	0.060984
C79	C	-1.036178	1.585682	-0.439047
C80	C	-0.536178	2.085682	0.060953
C81	C	-1.036180	1.451223	-0.573315
C82	C	-0.536180	1.951223	-0.073315
C83	C	-0.970438	1.451181	-0.573289
C84	C	-0.470438	1.951181	-0.073289
C85	C	-0.937569	1.518384	-0.506134
C86	C	-0.437569	2.018384	-0.006134
C87	C	-0.139017	1.518404	-0.506151
C88	C	0.360983	2.018404	-0.006151
C89	C	-0.069049	1.518475	-0.506185
C90	C	0.430951	2.018475	-0.006185
C91	C	-0.303220	1.792271	-0.506084
C92	C	0.196780	2.292271	-0.006084
C93	C	-0.303225	1.909047	-0.506091
C94	C	0.196775	2.409047	-0.006091
C95	C	-0.303144	1.518311	-0.780103
C96	C	0.196856	2.018311	-0.280103
C97	C	-0.303117	1.518342	-0.896880
C98	C	0.196883	2.018342	-0.396880
C99	C	-0.262855	1.585589	-0.951767
C100	C	0.237145	2.085589	-0.451767
C101	C	-0.262832	1.585614	-1.061491
C102	C	0.237168	2.085614	-0.561491
C103	C	-0.343339	1.451143	-1.061431
C104	C	0.156661	1.951143	-0.561431
C105	C	-0.343358	1.451113	-0.951709
C106	C	0.156642	1.951113	-0.451709
C107	C	-0.216376	1.663228	-0.951803
C108	C	0.283624	2.163228	-0.451803
C109	C	-0.216353	1.663253	-1.061527
C110	C	0.283647	2.163253	-0.561527
C111	C	-0.303225	1.518225	-0.233102
C112	C	0.196775	2.018225	0.266898
C113	C	-0.303075	1.518397	-0.116326
C114	C	0.196925	2.018397	0.383674
H115	H	-0.436347	1.107628	-0.621279
H116	H	0.063653	1.607628	-0.121279
C117	C	-0.218550	1.133974	-0.365250
C118	C	0.281450	1.633974	0.134750
N119	N	-0.185143	1.179421	-0.309685
N120	N	0.314857	1.679421	0.190315
C121	C	-0.239969	1.767618	-0.905811
C122	C	0.260031	2.267618	-0.405811
N123	N	-0.257735	1.846247	-0.871170
N124	N	0.242265	2.346247	-0.371170
C125	C	-0.934286	1.377234	-0.647153
C126	C	-0.434286	1.877234	-0.147153
N127	N	-0.907056	1.321546	-0.702803
N128	N	-0.407056	1.821546	-0.202803
C129	C	-0.455913	0.923623	-0.620933
C130	C	0.044087	1.423623	-0.120933
N131	N	-0.505505	0.893279	-0.598597
N132	N	-0.005505	1.393279	-0.098597
C133	C	-0.153767	1.624001	-1.107543
C134	C	0.346233	2.124001	-0.607543
N135	N	-0.106625	1.594448	-1.142204
N136	N	0.393375	2.094448	-0.642204
H137	H	-0.230093	0.919233	-0.384428
H138	H	0.269907	1.419233	0.115572
C139	C	-0.387601	1.377194	-1.121753
C140	C	0.112399	1.877194	-0.621753
N141	N	-0.420941	1.321493	-1.167187
N142	N	0.079059	1.821493	-0.667187
C143	C	-0.366551	0.917987	-0.755082
C144	C	0.133449	1.417987	-0.255082
N145	N	-0.348833	0.883395	-0.833784
N146	N	0.151167	1.383395	-0.333784
C147	C	-0.150519	1.633842	-0.911613
C148	C	0.349481	2.133842	-0.411613
N149	N	-0.100918	1.611705	-0.881343
N150	N	0.399082	2.111705	-0.381343
H151	H	-0.229411	1.744618	-1.091302
H152	H	0.270589	2.244618	-0.591302
H153	H	-0.377059	1.103449	-0.731984
H154	H	0.122941	1.603449	-0.231984
H155	H	-0.662097	1.640181	-0.384261
H156	H	-0.162097	2.140181	0.115739
C157	C	-0.533439	1.659289	-0.365014
C158	C	-0.033439	2.159289	0.134986
N159	N	-0.506209	1.714957	-0.309359
N160	N	-0.006209	2.214957	0.190641
C161	C	-1.072329	1.659653	-0.365201
C162	C	-0.572329	2.159653	0.134799
N163	N	-1.099558	1.715367	-0.309576
N164	N	-0.599558	2.215367	0.190424
H165	H	-0.376142	1.396351	-0.907024
H166	H	0.123858	1.896351	-0.407024
C167	C	-0.671502	1.377042	-0.647041
C168	C	-0.171502	1.877042	-0.147041
N169	N	-0.698741	1.321355	-0.702666
N170	N	-0.198741	1.821355	-0.202666
H171	H	-0.542838	1.396180	-0.627838
H172	H	-0.042838	1.896180	-0.127838
H173	H	-1.062947	1.396506	-0.627983
H174	H	-0.562947	1.896506	-0.127983
C175	C	-0.934276	1.659571	-0.365161
C176	C	-0.434276	2.159571	0.134839
N177	N	-0.907043	1.715266	-0.309535
N178	N	-0.407043	2.215266	0.190465
