data_functionalizedCrystal
_audit_creation_method	'MofGen! by Chris Wilmer'
_symmetry_space_group_name_H-M	'P1'
_symmetry_Int_Tables_number	1
_symmetry_cell_setting	triclinic
loop_
_symmetry_equiv_pos_as_xyz
  x,y,z
_cell_length_a	12.827893
_cell_length_b	13.897447
_cell_length_c	13.897441
_cell_angle_alpha	90.026528
_cell_angle_beta	89.980094
_cell_angle_gamma	89.978644
loop_
_atom_site_label
_atom_site_type_symbol
_atom_site_fract_x
_atom_site_fract_y
_atom_site_fract_z
Zn1	Zn	1.597634	0.383980	-0.545387
Zn2	Zn	1.597508	0.545302	-0.384100
Zn3	Zn	1.422873	0.384023	-0.384108
Zn4	Zn	1.422843	0.545235	-0.545355
O5	O	1.510215	0.464635	-0.464737
O6	O	1.743853	0.405390	-0.524002
O7	O	1.574303	0.523953	-0.249119
O8	O	1.446121	0.249035	-0.405519
O9	O	1.743761	0.523912	-0.405505
O10	O	1.574517	0.249004	-0.524010
O11	O	1.445999	0.405463	-0.249125
O12	O	1.276633	0.405398	-0.405487
O13	O	1.446069	0.523799	-0.680341
O14	O	1.276611	0.523840	-0.523955
O15	O	1.574487	0.405325	-0.680365
O16	O	1.574273	0.680275	-0.405474
O17	O	1.445947	0.680226	-0.523947
C18	C	1.238705	0.464617	-0.464719
C19	C	1.122552	0.464633	-0.464734
C20	C	1.070812	0.406088	-0.523462
C21	C	0.950762	0.406103	-0.523478
C22	C	1.510122	0.715249	-0.464727
C23	C	1.510178	0.822463	-0.464755
C24	C	1.510226	0.909533	-0.464782
C25	C	1.510295	1.018765	-0.464812
C26	C	1.782785	0.464653	-0.464756
C27	C	1.898938	0.464661	-0.464765
C28	C	1.510289	0.464550	-0.716331
C29	C	1.510320	0.464513	-0.823545
C30	C	1.510329	1.213042	-0.464781
C31	C	1.510357	1.105828	-0.464831
C32	C	1.510349	0.464448	-1.019840
C33	C	1.510330	0.464487	-0.910607
C34	C	1.510201	0.464650	-0.214123
C35	C	1.510372	0.464415	-0.106910
H36	H	1.077971	0.514764	-0.414466
H37	H	0.943426	0.514791	-0.414489
H38	H	1.115393	0.355952	-0.573724
H39	H	0.906267	0.355984	-0.573760
