data_functionalizedCrystal
_audit_creation_method	'MofGen! by Chris Wilmer'
_symmetry_space_group_name_H-M	'P1'
_symmetry_Int_Tables_number	1
_symmetry_cell_setting	triclinic
loop_
_symmetry_equiv_pos_as_xyz
  x,y,z
_cell_length_a	19.288840
_cell_length_b	14.044220
_cell_length_c	18.366186
_cell_angle_alpha	90.002290
_cell_angle_beta	90.013590
_cell_angle_gamma	88.157446
loop_
_atom_site_label
_atom_site_type_symbol
_atom_site_fract_x
_atom_site_fract_y
_atom_site_fract_z
O1	O	0.928950	0.118094	0.060674
O2	O	0.727713	0.134066	0.060649
O3	O	0.825311	-0.011891	0.060654
O4	O	0.831352	0.264051	0.060669
O5	O	0.825297	-0.011886	-0.060445
O6	O	0.727699	0.134071	-0.060450
O7	O	0.928936	0.118099	-0.060425
Zn8	Zn	0.828315	0.126086	-0.079665
Zn9	Zn	0.828333	0.126079	0.079889
O10	O	0.831338	0.264057	-0.060430
C11	C	0.701796	0.133559	0.000096
C12	C	0.624594	0.132028	0.000087
C13	C	0.588350	0.131290	0.066100
C14	C	0.515810	0.129841	0.066109
C15	C	0.479517	0.129111	0.000101
C16	C	0.515769	0.129854	-0.065921
C17	C	0.588307	0.131313	-0.065928
C18	C	0.366469	0.071298	-0.050464
C19	C	0.293932	0.069833	-0.050454
C20	C	0.255785	0.124617	0.000119
C21	C	0.290183	0.180852	0.050695
C22	C	0.362721	0.182311	0.050688
C23	C	0.400861	0.127530	0.000101
C24	C	0.140885	0.122309	0.066147
C25	C	0.068343	0.120866	0.066153
C26	C	0.068304	0.120870	-0.065879
C27	C	0.140844	0.122323	-0.065883
C28	C	0.177130	0.123037	0.000132
C29	C	0.822659	-0.047191	0.000104
C30	C	0.814772	-0.152383	0.000102
C31	C	0.800351	-0.344981	0.000111
C32	C	0.856295	-0.402860	0.000120
C33	C	0.848271	-0.510028	0.000125
C34	C	0.808374	-0.237802	0.000106
C35	C	0.954852	0.118607	0.000129
C36	C	1.032055	0.120138	0.000144
N37	N	0.828308	0.126090	-0.188556
C38	C	0.833989	0.299357	0.000122
C39	C	0.841877	0.404548	0.000129
C40	C	0.874021	0.183382	-0.773097
C41	C	0.874014	0.183391	-0.696869
C42	C	0.828339	0.126069	-0.658767
C43	C	0.782655	0.068751	-0.696900
C44	C	0.782658	0.068751	-0.773126
C45	C	0.821123	0.040631	-0.538006
C46	C	0.821124	0.040630	-0.461781
C47	C	0.828325	0.126071	-0.423660
C48	C	0.835539	0.211516	-0.461772
C49	C	0.835543	0.211515	-0.537999
C50	C	0.828330	0.126063	-0.576112
C51	C	0.873996	0.183400	-0.302881
C52	C	0.873985	0.183411	-0.226652
C53	C	0.782629	0.068763	-0.226684
C54	C	0.782637	0.068761	-0.302912
C55	C	0.828324	0.126078	-0.341006
N56	N	0.828345	0.126068	0.188780
H57	H	0.486295	0.129241	0.119866
N58	N	0.843298	0.303697	-0.420689
H59	H	0.886098	0.298930	-0.389043
H60	H	0.801095	0.316069	-0.389126
N61	N	0.927720	-0.361891	0.000111
H62	H	0.963938	-0.415451	0.000114
H63	H	0.933487	-0.321363	0.044999
N64	N	0.843308	0.303668	-0.579105
H65	H	0.842215	0.290699	-0.633177
H66	H	0.888938	0.332384	-0.565771
N67	N	0.728928	-0.385941	0.000099
H68	H	0.723112	-0.426444	0.044989
H69	H	0.723157	-0.426404	-0.044824
H70	H	0.911222	0.230056	-0.804108
H71	H	0.911209	0.230067	-0.665823
H72	H	0.911195	0.230076	-0.333899
H73	H	0.390726	0.228102	0.091868
H74	H	0.911179	0.230089	-0.195614
H75	H	0.745435	0.022096	-0.195663
N76	N	0.733397	0.006917	-0.655807
H77	H	0.704461	-0.029393	-0.691528
H78	H	0.702009	0.048357	-0.624185
N79	N	0.733385	0.006923	-0.344037
H80	H	0.704452	-0.029396	-0.308335
H81	H	0.760806	-0.039509	-0.375650
H82	H	0.259125	0.225466	0.091875
H83	H	0.486214	0.129262	-0.119665
H84	H	0.265931	0.024038	-0.091633
N85	N	0.179933	0.123104	-0.137088
H86	H	0.212028	0.064978	-0.140037
H87	H	0.207987	0.182477	-0.139992
H88	H	0.617890	0.131872	0.119854
N89	N	0.733400	0.006918	-0.814249
H90	H	0.701968	0.048293	-0.845887
H91	H	0.704510	-0.029385	-0.778500
N92	N	0.813322	-0.051519	-0.420680
H93	H	0.814411	-0.038555	-0.366607
H94	H	0.852650	-0.097456	-0.433988
N95	N	0.180029	0.123084	0.137343
H96	H	0.146058	0.122405	0.179165
H97	H	0.208129	0.182419	0.140218
N98	N	0.029248	0.120072	0.137356
H99	H	0.063246	0.120743	0.179172
H100	H	0.001151	0.060735	0.140225
H101	H	0.815252	-0.028949	-0.569039
H102	H	0.038755	0.120282	-0.119624
H103	H	0.397523	0.026684	-0.091650
H104	H	0.617816	0.131915	-0.119686
