data_functionalizedCrystal
_audit_creation_method	'MofGen! by Chris Wilmer'
_symmetry_space_group_name_H-M	'P1'
_symmetry_Int_Tables_number	1
_symmetry_cell_setting	triclinic
loop_
_symmetry_equiv_pos_as_xyz
  x,y,z
_cell_length_a	19.288864
_cell_length_b	13.448316
_cell_length_c	14.971487
_cell_angle_alpha	90.005515
_cell_angle_beta	96.624676
_cell_angle_gamma	89.978852
loop_
_atom_site_label
_atom_site_type_symbol
_atom_site_fract_x
_atom_site_fract_y
_atom_site_fract_z
O1	O	0.921715	-0.083009	-0.111581
O2	O	0.719503	-0.082941	-0.126633
O3	O	0.826029	-0.082972	0.011122
O4	O	0.815190	-0.082978	-0.249336
O5	O	0.826014	0.082412	0.011130
O6	O	0.719489	0.082443	-0.126626
O7	O	0.921700	0.082375	-0.111574
Cu8	Cu	0.820593	0.097509	-0.119099
Cu9	Cu	0.820611	-0.098076	-0.119108
O10	O	0.815175	0.082406	-0.249329
C11	C	0.693618	-0.000240	-0.126145
C12	C	0.616510	-0.000214	-0.124691
N13	N	0.820586	0.235074	-0.119092
C14	C	0.825537	-0.000281	0.044448
C15	C	0.824084	-0.000283	0.143737
C16	C	0.572077	-0.000232	-0.205520
C17	C	0.499626	-0.000243	-0.204154
C18	C	0.471610	-0.000256	-0.121955
C19	C	0.516052	-0.000233	-0.041116
C20	C	0.588502	-0.000212	-0.042484
C21	C	0.363142	-0.058230	-0.057340
C22	C	0.290693	-0.058257	-0.055975
C23	C	0.248151	-0.000316	-0.117732
C24	C	0.278064	0.057638	-0.180868
C25	C	0.350514	0.057659	-0.182236
C26	C	0.393051	-0.000278	-0.120462
C27	C	0.125157	-0.000344	-0.197085
C28	C	0.052705	-0.000349	-0.195715
C29	C	0.069133	-0.000350	-0.032675
C30	C	0.141584	-0.000335	-0.034046
C31	C	0.169591	-0.000337	-0.116254
C32	C	0.947586	-0.000328	-0.112062
C33	C	1.024694	-0.000361	-0.113516
C34	C	0.867770	0.287100	-0.058120
C35	C	0.867774	0.391204	-0.058120
C36	C	0.820596	0.443278	-0.119097
C37	C	0.773407	0.391245	-0.180073
C38	C	0.773401	0.287143	-0.180068
C39	C	0.773425	0.608225	-0.180080
C40	C	0.773432	0.712333	-0.180087
C41	C	0.867798	0.712285	-0.058132
C42	C	0.867791	0.608184	-0.058127
C43	C	0.820603	0.556157	-0.119104
N44	N	0.820616	0.764360	-0.119114
C45	C	0.886665	-0.000305	0.201301
C46	C	0.885295	-0.000316	0.294593
C47	C	0.821344	-0.000299	0.330319
C48	C	0.758759	-0.000280	0.272748
C49	C	0.760129	-0.000276	0.179458
C50	C	0.755908	-0.000287	0.467195
C51	C	0.754537	-0.000289	0.560492
C52	C	0.881074	-0.000326	0.582330
C53	C	0.882444	-0.000322	0.489040
C54	C	0.819858	-0.000302	0.431475
C55	C	0.815667	-0.000292	0.717345
C56	C	0.817118	-0.000310	0.618056
H57	H	0.594876	-0.000235	-0.272459
Cl58	Cl	0.927086	0.221646	0.018539
Cl59	Cl	0.927120	0.777693	0.018522
H60	H	0.706689	-0.000273	0.301844
Cl61	Cl	0.681452	-0.000253	0.107092
H62	H	0.374867	0.104851	-0.233641
Cl63	Cl	0.714119	0.777791	-0.256746
Cl64	Cl	0.714100	0.542824	-0.256737
H65	H	0.906194	0.433563	-0.008470
Cl66	Cl	0.959754	-0.000357	0.654696
H67	H	0.938741	-0.000313	0.172220
H68	H	0.704944	-0.000273	0.420328
H69	H	0.243427	0.104819	-0.231156
H70	H	0.046324	-0.000422	0.034253
H71	H	0.463442	-0.000254	-0.269976
H72	H	0.936255	-0.000331	0.341458
Cl73	Cl	0.160370	-0.000337	-0.300429
Cl74	Cl	0.674141	-0.000266	0.605404
Cl75	Cl	0.197445	-0.000319	0.067573
Cl76	Cl	0.927104	0.542716	0.018525
H77	H	0.016528	-0.000357	-0.261539
H78	H	0.266343	-0.105451	-0.004569
H79	H	0.397775	-0.105417	-0.007048
H80	H	0.734979	0.244784	-0.229717
Cl81	Cl	0.714094	0.456708	-0.256728
H82	H	0.493237	-0.000258	0.025811
Cl83	Cl	0.962841	-0.000349	0.444128
H84	H	0.624680	-0.000199	0.023339
