data_functionalizedCrystal
_audit_creation_method	'MofGen! by Chris Wilmer'
_symmetry_space_group_name_H-M	'P1'
_symmetry_Int_Tables_number	1
_symmetry_cell_setting	triclinic
loop_
_symmetry_equiv_pos_as_xyz
  x,y,z
_cell_length_a	19.805407
_cell_length_b	12.594516
_cell_length_c	19.805399
_cell_angle_alpha	89.978854
_cell_angle_beta	90.019573
_cell_angle_gamma	89.973268
loop_
_atom_site_label
_atom_site_type_symbol
_atom_site_fract_x
_atom_site_fract_y
_atom_site_fract_z
Zn1	Zn	1.034734	0.423767	0.382750
Zn2	Zn	1.034648	0.601760	0.269574
Zn3	Zn	0.921549	0.423796	0.269575
Zn4	Zn	0.921512	0.601704	0.382721
O5	O	0.978111	0.512757	0.326155
O6	O	1.129439	0.447389	0.367749
O7	O	1.019625	0.578189	0.174858
O8	O	0.936615	0.274846	0.284600
O9	O	1.129376	0.578160	0.284599
O10	O	1.019771	0.274825	0.367749
O11	O	0.936531	0.447439	0.174858
O12	O	0.826827	0.447385	0.284572
O13	O	0.936551	0.578064	0.477442
O14	O	0.826800	0.578092	0.367700
O15	O	1.019735	0.447335	0.477463
O16	O	1.019589	0.750699	0.284571
O17	O	0.936468	0.750657	0.367700
C18	C	0.802255	0.512736	0.326133
C19	C	0.727023	0.512753	0.326140
C20	C	0.691682	0.580915	0.369355
C21	C	0.620994	0.580917	0.369364
C22	C	0.585647	0.512762	0.326155
C23	C	0.620993	0.444592	0.282938
C24	C	0.691680	0.444586	0.282933
C25	C	0.335919	0.444616	0.282961
C26	C	0.265227	0.444629	0.282968
C27	C	0.265233	0.580947	0.369392
C28	C	0.335920	0.580941	0.369387
C29	C	0.371260	0.512768	0.326173
C30	C	0.447908	0.512765	0.326164
C31	C	0.509000	0.512769	0.326160
C32	C	0.978034	0.789298	0.326147
C33	C	0.978063	0.907603	0.326167
C34	C	0.932840	0.976872	0.371348
C35	C	0.916343	1.047729	0.309586
C36	C	0.994596	1.047546	0.387939
C37	C	0.961533	0.976901	0.264372
C38	C	1.039815	0.976712	0.342766
C39	C	1.023341	1.047537	0.280961
C40	C	1.154653	0.512778	0.326177
C41	C	1.229885	0.512787	0.326187
C42	C	0.978177	1.235136	0.326177
C43	C	0.978129	1.116830	0.326183
C44	C	0.978149	0.512690	0.502698
C45	C	0.978165	0.512661	0.577930
C46	C	0.978112	0.512747	0.150299
C47	C	0.978227	0.512475	0.075067
C48	C	1.021480	0.444587	0.613286
C49	C	1.021487	0.444556	0.683975
C50	C	0.978182	0.512606	0.719305
C51	C	0.934862	0.580683	0.683944
C52	C	0.934852	0.580707	0.613257
C53	C	0.934900	0.580584	0.969018
C54	C	0.934915	0.580556	1.039710
C55	C	1.021535	0.444432	1.039735
C56	C	1.021525	0.444457	0.969048
C57	C	0.978203	0.512530	0.933693
C58	C	0.978195	0.512561	0.857044
C59	C	0.978193	0.512580	0.795953
H60	H	0.592222	0.636423	0.404553
O61	O	0.374018	0.371096	0.236339
H62	H	0.406246	0.316982	0.266678
H63	H	0.947515	0.945998	0.212124
O64	O	0.888123	0.654119	0.575123
H65	H	0.899698	0.737658	0.588676
H66	H	0.899648	0.635972	1.068474
O67	O	0.888143	0.653947	0.930888
H68	H	0.858025	0.701245	0.967334
O69	O	0.729796	0.654420	0.415970
H70	H	0.762026	0.606837	0.450450
O71	O	0.227096	0.371127	0.236357
H72	H	0.194907	0.317055	0.266711
H73	H	1.008554	1.078578	0.440172
O74	O	1.074039	1.088388	0.230308
H75	H	1.060184	1.059941	0.179111
O76	O	1.068209	0.371140	0.722112
H77	H	1.098327	0.323837	0.685668
H78	H	0.592208	0.389094	0.247759
O79	O	1.109010	0.935595	0.361304
H80	H	1.122623	0.963924	0.412592
O81	O	0.888148	0.654076	0.722046
H82	H	0.895435	0.642629	0.777140
H83	H	1.056746	0.389176	0.584525
H84	H	0.364696	0.636444	0.404570
O85	O	0.882112	0.935760	0.421887
H86	H	0.882873	0.847639	0.421770
H87	H	1.056807	0.389000	1.068530
O88	O	0.227119	0.654469	0.416013
H89	H	0.172027	0.643018	0.408767
H90	H	0.864152	1.078946	0.295560
O91	O	0.729803	0.371081	0.236315
H92	H	0.693350	0.323699	0.206263
O93	O	1.068233	0.371063	0.930939
H94	H	1.098350	0.323714	0.967401
