data_functionalizedCrystal
_audit_creation_method	'MofGen! by Chris Wilmer'
_symmetry_space_group_name_H-M	'P1'
_symmetry_Int_Tables_number	1
_symmetry_cell_setting	triclinic
loop_
_symmetry_equiv_pos_as_xyz
  x,y,z
_cell_length_a	14.908571
_cell_length_b	16.625545
_cell_length_c	14.908308
_cell_angle_alpha	86.733823
_cell_angle_beta	89.824947
_cell_angle_gamma	86.721711
loop_
_atom_site_label
_atom_site_type_symbol
_atom_site_fract_x
_atom_site_fract_y
_atom_site_fract_z
Zn1	Zn	1.345254	-0.420777	0.587574
Zn2	Zn	1.845254	0.079223	1.087574
Zn3	Zn	1.353821	-0.548312	0.437212
Zn4	Zn	1.853821	-0.048312	0.937212
Zn5	Zn	1.203571	-0.405290	0.428572
Zn6	Zn	1.703571	0.094710	0.928572
Zn7	Zn	1.194849	-0.547354	0.578863
Zn8	Zn	1.694849	-0.047354	1.078863
O9	O	1.274374	-0.480433	0.508055
O10	O	1.774374	0.019567	1.008055
O11	O	1.472216	-0.444577	0.574889
O12	O	1.972216	0.055423	1.074889
O13	O	1.341126	-0.523259	0.310241
O14	O	1.841126	-0.023259	0.810241
O15	O	1.222429	-0.294517	0.449694
O16	O	1.722429	0.205483	0.949694
O17	O	1.478510	-0.538276	0.464419
O18	O	1.978510	-0.038276	0.964419
O19	O	1.326523	-0.305895	0.566512
O20	O	1.826523	0.194105	1.066512
O21	O	1.230737	-0.418182	0.303894
O22	O	1.730737	0.081818	0.803894
O23	O	1.076588	-0.417253	0.441247
O24	O	1.576588	0.082747	0.941247
O25	O	1.207565	-0.536644	0.705843
O26	O	1.707565	-0.036644	1.205843
O27	O	1.070181	-0.521626	0.551666
O28	O	1.570181	-0.021626	1.051666
O29	O	1.318067	-0.443648	0.712243
O30	O	1.818067	0.056352	1.212243
O31	O	1.332669	-0.661012	0.455973
O32	O	1.832669	-0.161012	0.955973
O33	O	1.215873	-0.660308	0.560043
O34	O	1.715873	-0.160308	1.060043
C35	C	1.040760	-0.467656	0.494574
C36	C	1.540760	0.032344	0.994574
C37	C	0.940817	-0.462210	0.488829
C38	C	1.440817	0.037790	0.988829
C39	C	0.746400	-0.560813	0.592856
C40	C	1.246400	-0.060813	1.092856
C41	C	0.652495	-0.555699	0.587460
C42	C	1.152495	-0.055699	1.087460
C43	C	0.659100	-0.446864	0.472647
C44	C	1.159100	0.053136	0.972647
C45	C	0.753005	-0.451979	0.478042
C46	C	1.253005	0.048021	0.978042
C47	C	0.796652	-0.508956	0.538148
C48	C	1.296652	-0.008956	1.038148
C49	C	0.890559	-0.514073	0.543538
C50	C	1.390559	-0.014073	1.043538
C51	C	0.897162	-0.405235	0.428730
C52	C	1.397162	0.094765	0.928730
C53	C	0.803257	-0.400121	0.423335
C54	C	1.303257	0.099879	0.923335
C55	C	1.274278	-0.689917	0.508021
C56	C	1.774278	-0.189917	1.008021
C57	C	1.274317	-0.779542	0.508042
C58	C	1.774317	-0.279542	1.008042
C59	C	1.274351	-0.852327	0.508062
C60	C	1.774351	-0.352327	1.008062
C61	C	1.274402	-0.943639	0.508084
C62	C	1.774402	-0.443639	1.008084
C63	C	1.274448	-1.016419	0.508098
C64	C	1.774448	-0.516419	1.008098
C65	C	1.274499	-1.107737	0.508120
C66	C	1.774499	-0.607737	1.008120
C67	C	1.508900	-0.493261	0.521589
C68	C	2.008900	0.006739	1.021589
C69	C	1.608841	-0.498728	0.527357
C70	C	2.108841	0.001272	1.027357
C71	C	1.260888	-0.491767	0.742580
C72	C	1.760888	0.008233	1.242580
C73	C	1.255140	-0.496596	0.842521
C74	C	1.755140	0.003404	1.342521
C75	C	1.274494	-0.270133	0.508110
C76	C	1.774494	0.229867	1.008110
C77	C	1.274545	-0.180516	0.508134
C78	C	1.774545	0.319484	1.008134
C79	C	1.287859	-0.469089	0.274446
C80	C	1.787859	0.030911	0.774446
C81	C	1.293781	-0.464041	0.174516
C82	C	1.793781	0.035959	0.674516
C83	C	1.359404	-0.408817	1.036985
C84	C	1.859404	0.091183	1.536985
C85	C	1.354007	-0.413352	1.130889
C86	C	1.854007	0.086648	1.630889
C87	C	1.238945	-0.510197	1.124232
C88	C	1.738945	-0.010197	1.624232
C89	C	1.244342	-0.505662	1.030329
C90	C	1.744342	-0.005662	1.530329
C91	C	1.304575	-0.454971	0.986709
C92	C	1.804575	0.045029	1.486709
C93	C	1.309976	-0.450441	0.892804
C94	C	1.809976	0.049559	1.392804
C95	C	1.194910	-0.547281	0.886149
C96	C	1.694910	-0.047281	1.386149
C97	C	1.189513	-0.551816	0.980053
C98	C	1.689513	-0.051816	1.480053
H99	H	0.926094	-0.560468	0.592478
H100	H	1.426094	-0.060468	1.092478
C101	C	1.172673	-0.565931	1.172229
C102	C	1.672673	-0.065931	1.672229
N103	N	1.122750	-0.607905	1.208382
N104	N	1.622750	-0.107905	1.708382
H105	H	1.140472	-0.593085	1.015581
H106	H	1.640472	-0.093085	1.515581
C107	C	0.794413	-0.623491	0.658968
C108	C	1.294413	-0.123491	1.158968
N109	N	0.830575	-0.670700	0.708766
N110	N	1.330575	-0.170700	1.208766
H111	H	1.398652	-0.375766	1.171820
H112	H	1.898652	0.124234	1.671820
C113	C	1.376229	-0.394677	0.844824
C114	C	1.876229	0.105323	1.344824
N115	N	1.426129	-0.352672	0.808687
N116	N	1.926129	0.147328	1.308687
C117	C	0.611072	-0.384187	0.406545
C118	C	1.111072	0.115813	0.906545
N119	N	0.574896	-0.336977	0.356758
N120	N	1.074896	0.163023	0.856758
H121	H	1.150267	-0.584865	0.845204
H122	H	1.650267	-0.084865	1.345204
H123	H	0.611583	-0.597926	0.632011
H124	H	1.111583	-0.097926	1.132011
C125	C	1.425663	-0.353061	0.989002
C126	C	1.925663	0.146939	1.489002
N127	N	1.475570	-0.311064	0.952862
N128	N	1.975570	0.188936	1.452862
H129	H	0.767707	-0.353730	0.374401
H130	H	1.267707	0.146270	0.874401
H131	H	0.938087	-0.363010	0.384181
H132	H	1.438087	0.136990	0.884181
