data_functionalizedCrystal
_audit_creation_method	'MofGen! by Chris Wilmer'
_symmetry_space_group_name_H-M	'P1'
_symmetry_Int_Tables_number	1
_symmetry_cell_setting	triclinic
loop_
_symmetry_equiv_pos_as_xyz
  x,y,z
_cell_length_a	6.394989
_cell_length_b	10.654550
_cell_length_c	9.730223
_cell_angle_alpha	89.996251
_cell_angle_beta	90.001664
_cell_angle_gamma	85.491307
loop_
_atom_site_label
_atom_site_type_symbol
_atom_site_fract_x
_atom_site_fract_y
_atom_site_fract_z
O1	O	0.293432	1.670942	-0.114393
O2	O	0.321390	1.305759	-0.114370
O3	O	0.003422	1.493534	-0.114383
O4	O	0.611400	1.483167	-0.114380
O5	O	0.003430	1.493532	0.114197
O6	O	0.321398	1.305757	0.114210
O7	O	0.293440	1.670940	0.114187
Zn8	Zn	0.307420	1.488348	0.150490
Zn9	Zn	0.307410	1.488351	-0.150674
O10	O	0.611408	1.483165	0.114200
C11	C	0.319341	1.258939	-0.000077
C12	C	0.313199	1.119430	-0.000069
C13	C	0.500414	1.041927	-0.000088
C14	C	0.494630	0.910845	-0.000112
C15	C	0.114402	0.934782	-0.000103
C16	C	0.120188	1.065861	-0.000070
C17	C	0.719936	1.028107	-0.000099
C18	C	0.714152	0.897025	-0.000123
C19	C	0.689255	1.485216	-0.000096
C20	C	0.925581	1.491480	-0.000101
C21	C	0.295489	1.717760	-0.000109
C22	C	0.301631	1.857269	-0.000126
N23	N	0.307426	1.488355	0.356027
N24	N	0.307387	1.488353	-0.356210
C25	C	0.166678	1.571524	0.427947
C26	C	0.166653	1.571521	0.571830
C27	C	0.448142	1.405175	0.571860
C28	C	0.448156	1.405174	0.427979
C29	C	0.004169	1.667567	0.427931
C30	C	0.004143	1.667563	0.571814
H31	H	0.805794	1.058346	0.095567
O32	O	0.803205	1.071755	-0.117759
C33	C	0.898854	1.253137	-0.244135
C34	C	0.804472	1.203877	-0.110830
H35	H	0.899951	1.359960	-0.238565
H36	H	0.800358	1.226414	-0.335693
H37	H	1.066282	1.209481	-0.256797
H38	H	0.637061	1.247508	-0.098036
H39	H	0.903122	1.230585	-0.019340
H40	H	-0.042742	0.891149	-0.000125
H41	H	0.780498	0.852055	0.098562
H42	H	0.796862	0.856169	-0.095790
H43	H	0.562745	1.337440	0.369423
O44	O	0.584632	1.324204	0.641698
C45	C	0.703731	1.107729	0.685678
C46	C	0.549003	1.199290	0.606529
H47	H	0.675008	1.006718	0.657251
H48	H	0.679539	1.121903	0.800883
H49	H	0.871314	1.126798	0.657421
H50	H	0.381358	1.180277	0.634671
H51	H	0.573377	1.185096	0.491342
O52	O	-0.187484	1.639880	0.381559
C53	C	-0.536786	1.589600	0.441624
C54	C	-0.319833	1.620913	0.494326
H55	H	-0.643865	1.574283	0.532769
H56	H	-0.519215	1.500392	0.376594
H57	H	-0.607937	1.671041	0.376475
H58	H	-0.248561	1.539552	0.559532
H59	H	-0.337539	1.710162	0.559281
H60	H	0.055053	1.759289	0.383299
O61	O	-0.176900	1.629440	0.625234
C62	C	-0.479616	1.683264	0.767059
C63	C	-0.274628	1.726583	0.706663
H64	H	-0.558711	1.761791	0.832884
H65	H	-0.442868	1.595927	0.833108
H66	H	-0.589105	1.660027	0.679802
H67	H	-0.165042	1.749889	0.793832
H68	H	-0.311534	1.813878	0.640578
O69	O	0.046950	1.783205	0.618175
C70	C	0.124684	1.993960	0.558091
C71	C	0.076286	1.863053	0.505401
H72	H	0.148372	2.058561	0.466940
H73	H	0.273374	1.984918	0.623147
H74	H	-0.012026	2.035338	0.623210
H75	H	0.212866	1.821600	0.440225
H76	H	-0.072475	1.872175	0.440419
H77	H	-0.032261	1.128960	-0.000035
