data_functionalizedCrystal
_audit_creation_method	'MofGen! by Chris Wilmer'
_symmetry_space_group_name_H-M	'P1'
_symmetry_Int_Tables_number	1
_symmetry_cell_setting	triclinic
loop_
_symmetry_equiv_pos_as_xyz
  x,y,z
_cell_length_a	19.288813
_cell_length_b	19.288867
_cell_length_c	17.766277
_cell_angle_alpha	89.992126
_cell_angle_beta	90.016276
_cell_angle_gamma	96.873716
loop_
_atom_site_label
_atom_site_type_symbol
_atom_site_fract_x
_atom_site_fract_y
_atom_site_fract_z
O1	O	-0.086658	0.921336	-0.062584
O2	O	0.413342	1.421336	0.437416
O3	O	-0.098345	0.719074	-0.062594
O4	O	0.401655	1.219074	0.437406
O5	O	0.008631	0.826068	-0.062565
O6	O	0.508631	1.326068	0.437435
O7	O	-0.193634	0.814342	-0.062613
O8	O	0.306366	1.314342	0.437387
O9	O	0.008637	0.826049	0.062624
O10	O	0.508637	1.326049	0.562624
O11	O	-0.098340	0.719055	0.062595
O12	O	0.401660	1.219055	0.562595
O13	O	-0.086652	0.921318	0.062604
O14	O	0.413348	1.421318	0.562604
Cu15	Cu	-0.092495	0.820185	0.074030
Cu16	Cu	0.407505	1.320185	0.574030
Cu17	Cu	-0.092502	0.820207	-0.074020
Cu18	Cu	0.407498	1.320207	0.425980
O19	O	-0.193629	0.814323	0.062576
O20	O	0.306371	1.314323	0.562576
C21	C	-0.097966	0.693188	-0.000000
C22	C	0.402034	1.193188	0.500000
C23	C	-0.096836	0.616085	-0.000003
C24	C	0.403164	1.116085	0.499997
C25	C	-0.088703	0.060531	-0.068232
C26	C	0.411297	0.560531	0.431768
C27	C	-0.089760	0.132978	-0.068235
C28	C	0.410240	0.632978	0.431765
C29	C	-0.090289	0.169197	0.000005
C30	C	0.409711	0.669197	0.500005
C31	C	-0.089743	0.132964	0.068253
C32	C	0.410257	0.632964	0.568253
C33	C	-0.088679	0.060519	0.068254
C34	C	0.411321	0.560519	0.568254
C35	C	-0.132655	0.278508	0.052275
C36	C	0.367345	0.778508	0.552275
C37	C	-0.133724	0.350952	0.052271
C38	C	0.366276	0.850952	0.552271
C39	C	-0.093568	0.392642	0.000004
C40	C	0.406432	0.892642	0.500004
C41	C	-0.052353	0.361879	-0.052272
C42	C	0.447647	0.861879	0.447728
C43	C	-0.051289	0.289434	-0.052271
C44	C	0.448711	0.789434	0.447729
C45	C	-0.091443	0.247751	0.000011
C46	C	0.408557	0.747751	0.500011
C47	C	-0.095256	0.507422	-0.068243
C48	C	0.404744	1.007422	0.431757
C49	C	-0.096309	0.579871	-0.068243
C50	C	0.403691	1.079871	0.431757
C51	C	-0.096298	0.579855	0.068247
C52	C	0.403702	1.079855	0.568247
C53	C	-0.095239	0.507408	0.068245
C54	C	0.404761	1.007408	0.568245
C55	C	-0.094721	0.471195	-0.000002
C56	C	0.405279	0.971195	0.499998
C57	C	-0.219508	0.814704	-0.000025
C58	C	0.280492	1.314704	0.499975
C59	C	-0.296614	0.815819	-0.000043
C60	C	0.203386	1.315819	0.499957
C61	C	-0.332805	0.816350	0.068201
C62	C	0.167195	1.316350	0.568201
C63	C	-0.405251	0.817417	0.068214
C64	C	0.094749	1.317417	0.568214
C65	C	-0.441502	0.817966	-0.000021
C66	C	0.058498	1.317966	0.499979
C67	C	-0.405302	0.817431	-0.068274
C68	C	0.094698	1.317431	0.431726
C69	C	-0.332858	0.816358	-0.068285
C70	C	0.167142	1.316358	0.431715
C71	C	-0.550832	0.860360	-0.052281
C72	C	-0.050832	1.360360	0.447719
C73	C	-0.623274	0.861438	-0.052268
C74	C	-0.123274	1.361438	0.447732
C75	C	-0.664944	0.821275	0.000010
C76	C	-0.164944	1.321275	0.500010
C77	C	-0.634161	0.780043	0.052287
C78	C	-0.134161	1.280043	0.552287
C79	C	-0.561717	0.778969	0.052276
C80	C	-0.061717	1.278969	0.552276
C81	C	-0.520055	0.819130	-0.000017
C82	C	-0.020055	1.319130	0.499983
C83	C	-0.779690	0.822961	0.068273
C84	C	-0.279690	1.322961	0.568273
C85	C	-0.852138	0.824024	0.068283
C86	C	-0.352138	1.324024	0.568283
C87	C	-0.852186	0.824045	-0.068207
C88	C	-0.352186	1.324045	0.431793
C89	C	-0.779740	0.822976	-0.068215
C90	C	-0.279740	1.322976	0.431785
C91	C	-0.743496	0.822437	0.000027
C92	C	-0.243496	1.322437	0.500027
C93	C	0.034511	0.825687	0.000034
C94	C	0.534511	1.325687	0.500034
C95	C	0.111617	0.824572	0.000047
C96	C	0.611617	1.324572	0.500047
C97	C	-0.087031	0.947203	0.000009
C98	C	0.412969	1.447203	0.500009
C99	C	-0.088161	1.024307	0.000007
C100	C	0.411839	1.524307	0.500007
N101	N	-0.092490	0.820174	0.178161
N102	N	0.407510	1.320174	0.678161
N103	N	-0.092501	0.820223	-0.178150
N104	N	0.407499	1.320223	0.321850
C105	C	-0.045144	0.867566	0.217560
C106	C	0.454856	1.367566	0.717560
C107	C	-0.045141	0.867570	0.296362
C108	C	0.454859	1.367570	0.796362
C109	C	-0.092496	0.820189	0.335761
C110	C	0.407504	1.320189	0.835761
C111	C	-0.139846	0.772788	0.296352
C112	C	0.360154	1.272788	0.796352
C113	C	-0.139843	0.772780	0.217552
C114	C	0.360157	1.272780	0.717552
C115	C	-0.155785	0.810878	0.460584
C116	C	0.344215	1.310878	0.960584
C117	C	-0.155789	0.810891	0.539383
C118	C	0.344211	1.310891	1.039383
C119	C	-0.092504	0.820207	0.578808
C120	C	0.407496	1.320207	1.078808
C121	C	-0.029213	0.829527	0.539424
C122	C	0.470787	1.329527	1.039424
C123	C	-0.029211	0.829519	0.460624
C124	C	0.470789	1.329519	0.960624
C125	C	-0.092504	0.820191	0.421207
C126	C	0.407496	1.320191	0.921207
C127	C	-0.045151	0.867606	0.703653
C128	C	0.454849	1.367606	1.203653
C129	C	-0.045147	0.867606	0.782456
C130	C	0.454853	1.367606	1.282456
C131	C	-0.139857	0.772826	0.782445
C132	C	0.360143	1.272826	1.282445
C133	C	-0.139855	0.772824	0.703643
C134	C	0.360145	1.272824	1.203643
C135	C	-0.092503	0.820218	0.664252
C136	C	0.407497	1.320218	1.164252
H137	H	-0.167301	0.375991	0.094822
H138	H	0.332699	0.875991	0.594822
H139	H	-0.090206	0.162478	-0.123805
H140	H	0.409794	0.662478	0.376195
H141	H	-0.516910	0.893062	-0.094860
H142	H	-0.016910	1.393062	0.405140
H143	H	-0.536657	0.745397	0.094841
H144	H	-0.036657	1.245397	0.594841
F145	F	-0.443776	0.817987	0.140851
F146	F	0.056224	1.317987	0.640851
H147	H	-0.881702	0.824485	-0.123765
H148	H	-0.381702	1.324485	0.376235
H149	H	-0.750272	0.822548	-0.123787
H150	H	-0.250272	1.322548	0.376213
H151	H	-0.668087	0.747340	0.094858
H152	H	-0.168087	1.247340	0.594858
F153	F	-0.090303	0.171511	0.140878
F154	F	0.409697	0.671511	0.640878
F155	F	-0.088103	0.021965	0.140887
F156	F	0.411897	0.521965	0.640887
H157	H	-0.006588	0.906196	0.814536
H158	H	0.493412	1.406196	1.314536
F159	F	0.038144	0.839447	0.581376
F160	F	0.538144	1.339447	1.081376
F161	F	0.005254	0.918004	0.175639
F162	F	0.505254	1.418004	0.675639
H163	H	-0.750179	0.822517	0.123840
H164	H	-0.250179	1.322517	0.623840
F165	F	-0.223148	0.800977	0.581291
F166	F	0.276852	1.300977	1.081291
H167	H	-0.017729	0.264390	-0.094834
H168	H	0.482271	0.764390	0.405166
F169	F	-0.294236	0.815772	0.140830
F170	F	0.205764	1.315772	0.640830
F171	F	-0.890657	0.824578	0.140922
F172	F	-0.390657	1.324578	0.640922
H173	H	-0.648330	0.895015	-0.094831
H174	H	-0.148330	1.395015	0.405169
H175	H	-0.178402	0.734208	0.328435
H176	H	0.321598	1.234208	0.828435
H177	H	-0.178412	0.734245	0.814523
H178	H	0.321588	1.234245	1.314523
H179	H	-0.434822	0.817876	-0.123832
H180	H	0.065178	1.317876	0.376168
F181	F	0.038146	0.839432	0.418711
F182	F	0.538146	1.339432	0.918711
F183	F	0.005248	0.918044	0.661729
F184	F	0.505248	1.418044	1.161729
H185	H	-0.303392	0.815924	-0.123860
H186	H	0.196608	1.315924	0.376140
F187	F	0.005254	0.918014	0.338301
F188	F	0.505254	1.418014	0.838301
H189	H	-0.178412	0.734235	0.671562
H190	H	0.321588	1.234235	1.171562
H191	H	-0.207322	0.803279	0.428491
H192	H	0.292678	1.303279	0.928491
H193	H	-0.178398	0.734187	0.185472
H194	H	0.321602	1.234187	0.685472
F195	F	-0.009615	0.406242	-0.107906
F196	F	0.490385	0.906242	0.392094
F197	F	-0.094701	0.468880	-0.140876
F198	F	0.405299	0.968880	0.359124
H199	H	-0.096745	0.609365	-0.123814
H200	H	0.403255	1.109365	0.376186
F201	F	-0.096852	0.618397	0.140874
F202	F	0.403148	1.118397	0.640874
F203	F	-0.094671	0.468852	0.140875
F204	F	0.405329	0.968852	0.640875
F205	F	-0.088148	0.021996	-0.140867
F206	F	0.411852	0.521996	0.359133
H207	H	-0.165352	0.244570	0.094846
H208	H	0.334648	0.744570	0.594846
