data_functionalizedCrystal
_audit_creation_method	'MofGen! by Chris Wilmer'
_symmetry_space_group_name_H-M	'P1'
_symmetry_Int_Tables_number	1
_symmetry_cell_setting	triclinic
loop_
_symmetry_equiv_pos_as_xyz
  x,y,z
_cell_length_a	14.971486
_cell_length_b	8.559649
_cell_length_c	13.448316
_cell_angle_alpha	89.994831
_cell_angle_beta	89.998199
_cell_angle_gamma	76.696397
loop_
_atom_site_label
_atom_site_type_symbol
_atom_site_fract_x
_atom_site_fract_y
_atom_site_fract_z
O1	O	1.172521	0.208203	-0.082574
O2	O	0.910393	0.233136	-0.082601
O3	O	1.064550	-0.011888	-0.082584
O4	O	1.018363	0.453227	-0.082591
O5	O	1.064534	-0.011904	0.082800
O6	O	0.910377	0.233121	0.082783
O7	O	1.172504	0.208188	0.082810
Cu8	Cu	1.041439	0.220653	0.097897
Cu9	Cu	1.041458	0.220671	-0.097688
O10	O	1.018347	0.453212	0.082793
C11	C	0.877137	0.232013	0.000088
C12	C	0.778072	0.228672	0.000078
C13	C	0.710872	0.372617	0.000077
C14	C	0.617791	0.369468	0.000092
C15	C	0.591911	0.222372	0.000100
C16	C	0.659119	0.078416	0.000104
C17	C	0.752198	0.081566	0.000096
C18	C	0.465111	0.071859	0.000118
C19	C	0.372025	0.068707	0.000124
C20	C	0.330704	0.359760	0.000113
C21	C	0.423783	0.362910	0.000106
C22	C	0.490984	0.218954	0.000107
C23	C	1.068043	-0.071419	0.000106
C24	C	1.078461	-0.248779	0.000102
C25	C	1.205760	0.209310	0.000119
C26	C	1.304826	0.212652	0.000123
C27	C	1.014855	0.512743	0.000101
C28	C	1.004436	0.690103	0.000098
N29	N	1.041432	0.220639	0.235462
N30	N	1.041473	0.220672	-0.235252
C31	C	1.109709	0.112187	0.287509
C32	C	1.109715	0.112186	0.391613
C33	C	1.041447	0.220646	0.443666
C34	C	0.973163	0.329103	0.391611
C35	C	0.973154	0.329095	0.287510
C36	C	0.973187	0.329114	0.608591
C37	C	0.973196	0.329124	0.712700
C38	C	1.109747	0.112204	0.712694
C39	C	1.109739	0.112197	0.608593
C40	C	1.041456	0.220656	0.556545
H41	H	0.350958	-0.051071	0.000132
Br42	Br	1.197389	-0.387721	0.000132
Br43	Br	0.885514	-0.170962	0.000092
H44	H	0.519825	-0.045367	0.000121
Br45	Br	0.458905	0.562542	0.000079
H46	H	1.165310	0.023875	0.433989
H47	H	1.165304	0.023874	0.245134
H48	H	0.917605	0.417441	0.755077
H49	H	1.165331	0.023889	0.566211
Br50	Br	1.202419	-0.034981	0.783333
Br51	Br	0.880512	0.476305	0.537958
Br52	Br	0.880505	0.476291	0.462251
H53	H	0.731935	0.492399	0.000069
Br54	Br	0.526594	0.564830	0.000088
H55	H	0.638040	-0.041353	0.000125
Br56	Br	0.880484	0.476276	0.216873
H57	H	0.275983	0.476974	0.000116
H58	H	0.806913	-0.035649	0.000096
