data_functionalizedCrystal
_audit_creation_method	'MofGen! by Chris Wilmer'
_symmetry_space_group_name_H-M	'P1'
_symmetry_Int_Tables_number	1
_symmetry_cell_setting	triclinic
loop_
_symmetry_equiv_pos_as_xyz
  x,y,z
_cell_length_a	23.532407
_cell_length_b	11.792241
_cell_length_c	22.010155
_cell_angle_alpha	90.004139
_cell_angle_beta	89.996931
_cell_angle_gamma	83.521047
loop_
_atom_site_label
_atom_site_type_symbol
_atom_site_fract_x
_atom_site_fract_y
_atom_site_fract_z
O1	O	-0.756080	-0.137755	0.050450
O2	O	-0.590335	-0.157689	0.050467
O3	O	-0.677230	0.017543	0.050454
O4	O	-0.669185	-0.312987	0.050463
O5	O	-0.677214	0.017517	-0.050597
O6	O	-0.590319	-0.157716	-0.050583
O7	O	-0.756064	-0.137781	-0.050601
Cu8	Cu	-0.673190	-0.147751	-0.059819
Cu9	Cu	-0.673209	-0.147720	0.059685
O10	O	-0.669170	-0.313014	-0.050587
C11	C	-0.569108	-0.157195	-0.000055
C12	C	-0.505882	-0.155669	-0.000049
C13	C	-0.676716	0.059809	-0.000071
C14	C	-0.675204	0.185787	-0.000070
C15	C	-0.777291	-0.138276	-0.000076
C16	C	-0.840517	-0.139802	-0.000079
C17	C	-0.107337	-0.249795	-0.000074
C18	C	-0.047928	-0.248377	-0.000077
O19	O	-0.011701	-0.335633	-0.000097
N20	N	-0.024684	-0.144202	-0.000079
C21	C	-0.060853	-0.041437	-0.000084
O22	O	-0.035627	0.047303	-0.000086
C23	C	-0.120260	-0.042856	-0.000084
C24	C	-0.143501	-0.147038	-0.000076
C25	C	-0.130577	-0.353969	-0.000066
C26	C	-0.189982	-0.355386	-0.000061
C27	C	-0.226146	-0.252630	-0.000064
C28	C	-0.202905	-0.148456	-0.000071
C29	C	-0.156428	0.059907	-0.000093
C30	C	-0.215839	0.058479	-0.000094
C31	C	-0.239079	-0.045703	-0.000086
C32	C	-0.298474	-0.047116	-0.000069
N33	N	-0.321717	-0.151292	-0.000067
C34	C	-0.285553	-0.254049	-0.000064
C35	C	0.063907	-0.038465	-0.000083
C36	C	0.123314	-0.037045	-0.000079
C37	C	0.136234	-0.243985	-0.000073
C38	C	0.076827	-0.245404	-0.000074
C39	C	0.040664	-0.142641	-0.000082
C40	C	-0.410308	-0.257017	-0.000054
C41	C	-0.469718	-0.258425	-0.000046
C42	C	-0.482634	-0.051485	-0.000055
C43	C	-0.423228	-0.050077	-0.000059
C44	C	-0.387066	-0.152852	-0.000060
O45	O	-0.334736	0.040094	-0.000052
O46	O	-0.310787	-0.342774	-0.000070
C47	C	-0.669683	-0.355280	-0.000061
C48	C	-0.671195	-0.481258	-0.000058
N49	N	-0.673181	-0.147772	-0.143871
C50	C	-0.672423	0.416434	-0.000060
C51	C	-0.673968	0.288085	-0.000066
C52	C	-0.711688	-0.070138	-0.563656
C53	C	-0.711691	-0.070130	-0.627264
O54	O	-0.744408	-0.004138	-0.660161
N55	N	-0.673209	-0.147696	-0.659078
C56	C	-0.634717	-0.225267	-0.627281
O57	O	-0.601985	-0.291242	-0.660182
C58	C	-0.634712	-0.225269	-0.563675
C59	C	-0.673201	-0.147705	-0.531864
C60	C	-0.750173	0.007420	-0.531846
C61	C	-0.750171	0.007410	-0.468242
C62	C	-0.711684	-0.070157	-0.436450
C63	C	-0.673199	-0.147715	-0.468261
C64	C	-0.596219	-0.302834	-0.531879
C65	C	-0.596217	-0.302828	-0.468268
C66	C	-0.634705	-0.225265	-0.436458
C67	C	-0.634710	-0.225292	-0.372865
N68	N	-0.673192	-0.147726	-0.341051
C69	C	-0.711679	-0.070158	-0.372844
C70	C	-0.634730	-0.225257	-0.760859
C71	C	-0.634737	-0.225262	-0.824464
C72	C	-0.711710	-0.070123	-0.824443
C73	C	-0.711705	-0.070124	-0.760836
C74	C	-0.673212	-0.147691	-0.729045
C75	C	-0.711672	-0.070185	-0.239272
C76	C	-0.711668	-0.070205	-0.175663
C77	C	-0.634694	-0.225339	-0.175691
C78	C	-0.634699	-0.225324	-0.239294
C79	C	-0.673191	-0.147737	-0.271083
O80	O	-0.602008	-0.291248	-0.339928
O81	O	-0.744401	-0.004185	-0.339935
N82	N	-0.673222	-0.147690	0.143738
H83	H	-0.488636	-0.343267	-0.000039
H84	H	-0.781511	0.070572	-0.442346
C85	C	-0.522418	0.061541	-0.000054
H86	H	-0.500072	0.123795	-0.000054
H87	H	-0.545862	0.065273	-0.035291
H88	H	-0.545861	0.065291	0.035191
C89	C	-0.130877	0.174509	-0.000110
H90	H	-0.160931	0.235494	-0.000121
H91	H	-0.107970	0.179399	0.035124
H92	H	-0.107973	0.179349	-0.035357
H93	H	-0.743015	-0.007006	-0.265148
C94	C	-0.792516	0.092746	-0.566808
H95	H	-0.815435	0.138923	-0.538744
H96	H	-0.771898	0.139796	-0.591624
H97	H	-0.816352	0.052150	-0.591614
H98	H	-0.208898	-0.440222	-0.000054
H99	H	-0.603402	-0.288433	-0.850360
C100	C	-0.397663	0.064520	-0.000061
H101	H	-0.427712	0.125514	-0.000064
H102	H	-0.374754	0.069386	0.035173
H103	H	-0.374761	0.069366	-0.035309
H104	H	-0.380871	-0.340707	-0.000057
H105	H	0.142230	0.047791	-0.000076
H106	H	-0.101138	-0.437651	-0.000066
H107	H	-0.743046	-0.006965	-0.734940
C108	C	0.176022	-0.357017	-0.000076
H109	H	0.214730	-0.341243	-0.000083
H110	H	0.168945	-0.399762	0.035163
H111	H	0.168945	-0.399768	-0.035319
H112	H	-0.743013	-0.007043	-0.149765
H113	H	-0.245281	0.142164	-0.000101
H114	H	-0.564877	-0.365992	-0.557771
H115	H	-0.743048	-0.006961	-0.850340
H116	H	-0.564869	-0.365991	-0.442387
H117	H	0.034466	0.045223	-0.000084
C118	C	-0.592392	-0.310601	-0.725894
H119	H	-0.569481	-0.356798	-0.753955
H120	H	-0.568557	-0.270028	-0.701081
H121	H	-0.613024	-0.357647	-0.701084
C122	C	-0.592341	-0.310598	-0.274287
H123	H	-0.569411	-0.356778	-0.246240
H124	H	-0.612943	-0.357652	-0.299120
H125	H	-0.568519	-0.269946	-0.299079
C126	C	-0.592357	-0.310649	-0.140711
H127	H	-0.597866	-0.299528	-0.098274
H128	H	-0.598764	-0.386339	-0.151133
H129	H	-0.554314	-0.298686	-0.151138
H130	H	0.057909	-0.330239	-0.000071
