data_functionalizedCrystal
_audit_creation_method	'MofGen! by Chris Wilmer'
_symmetry_space_group_name_H-M	'P1'
_symmetry_Int_Tables_number	1
_symmetry_cell_setting	triclinic
loop_
_symmetry_equiv_pos_as_xyz
  x,y,z
_cell_length_a	16.120490
_cell_length_b	12.645330
_cell_length_c	16.120256
_cell_angle_alpha	92.877996
_cell_angle_beta	90.129807
_cell_angle_gamma	87.104938
loop_
_atom_site_label
_atom_site_type_symbol
_atom_site_fract_x
_atom_site_fract_y
_atom_site_fract_z
Zn1	Zn	1.247527	-0.537190	-0.534564
Zn2	Zn	1.254503	-0.705948	-0.395514
Zn3	Zn	1.115514	-0.519261	-0.388483
Zn4	Zn	1.108459	-0.704966	-0.527487
O5	O	1.181501	-0.616841	-0.461512
O6	O	1.364821	-0.567490	-0.522022
O7	O	1.241938	-0.674091	-0.278215
O8	O	1.133059	-0.373296	-0.407880
O9	O	1.369946	-0.691475	-0.419863
O10	O	1.230049	-0.386468	-0.515205
O11	O	1.139824	-0.536933	-0.273049
O12	O	0.998210	-0.535982	-0.401019
O13	O	1.121034	-0.689803	-0.644792
O14	O	0.993027	-0.672418	-0.503144
O15	O	1.223207	-0.566538	-0.649991
O16	O	1.235097	-0.854161	-0.413001
O17	O	1.127799	-0.853440	-0.509961
C18	C	0.965445	-0.602149	-0.450551
C19	C	0.873015	-0.595890	-0.445882
C20	C	0.660061	-0.649299	-0.485734
C21	C	0.703789	-0.584473	-0.437355
C22	C	0.797955	-0.590827	-0.442101
C23	C	0.565886	-0.642946	-0.480990
C24	C	1.181461	-0.892267	-0.461495
C25	C	1.181519	-1.010103	-0.461520
C26	C	1.249091	-1.055402	-0.400581
C27	C	1.248955	-1.177938	-0.400345
C28	C	1.095079	-1.170715	-0.433535
C29	C	1.095434	-1.048110	-0.433063
C30	C	1.199697	-1.062112	-0.550618
C31	C	1.201695	-1.184824	-0.550272
C32	C	1.398400	-0.631592	-0.472516
C33	C	1.490829	-0.637878	-0.477205
C34	C	1.170556	-0.630061	-0.678408
C35	C	1.165891	-0.635695	-0.770836
C36	C	1.181563	-0.340342	-0.461548
C37	C	1.181589	-0.222515	-0.461563
C38	C	1.205823	-0.587436	-0.983817
C39	C	1.157348	-0.645934	-0.940057
C40	C	1.162103	-0.640235	-0.845894
C41	C	1.201069	-0.593133	-1.077988
C42	C	1.192452	-0.603600	-0.245462
C43	C	1.197277	-0.597678	-0.153043
H44	H	0.693344	-0.709566	-0.530712
C45	C	0.658834	-0.503054	-0.376576
C46	C	0.597275	-0.418142	-0.409753
C47	C	0.552319	-0.336730	-0.348972
C48	C	0.568922	-0.340231	-0.255015
C49	C	0.630485	-0.425147	-0.221833
C50	C	0.675441	-0.506558	-0.282613
H51	H	0.584981	-0.415547	-0.479311
H52	H	0.506746	-0.273870	-0.373536
H53	H	0.535643	-0.279966	-0.210021
H54	H	0.642778	-0.427741	-0.152275
H55	H	0.721014	-0.569418	-0.258049
H56	H	1.112271	-0.700290	-0.973311
C57	C	1.266718	-0.514009	-0.938899
C58	C	1.271450	-0.508354	-0.843369
C59	C	1.332348	-0.434934	-0.798440
C60	C	1.388514	-0.367169	-0.849041
C61	C	1.383785	-0.372821	-0.944576
C62	C	1.322887	-0.446241	-0.989505
H63	H	1.229870	-0.558520	-0.805906
H64	H	1.335848	-0.430750	-0.727718
H65	H	1.433595	-0.312819	-0.815781
H66	H	1.425365	-0.322655	-0.982039
H67	H	1.319386	-0.450425	-1.060227
C68	C	1.336193	-1.022667	-0.424695
C69	C	1.347033	-0.954401	-0.500014
C70	C	1.434137	-0.921658	-0.524130
C71	C	1.510401	-0.957181	-0.472927
C72	C	1.499563	-1.025452	-0.397603
C73	C	1.412459	-1.058195	-0.373487
H74	H	1.290576	-0.928100	-0.537923
H75	H	1.442160	-0.871119	-0.579890
H76	H	1.574881	-0.932943	-0.490779
H77	H	1.556020	-1.051752	-0.359695
H78	H	1.404436	-1.108733	-0.317728
H79	H	1.155751	-1.215578	-0.598462
C80	C	1.233507	-1.007178	-0.312025
C81	C	1.159755	-0.926924	-0.294864
C82	C	1.144167	-0.878702	-0.206308
C83	C	1.202331	-0.910733	-0.134913
C84	C	1.276089	-0.990991	-0.152072
C85	C	1.291677	-1.039213	-0.240628
H86	H	1.116693	-0.903209	-0.347717
H87	H	1.089566	-0.819290	-0.193607
H88	H	1.190792	-0.875036	-0.069359
H89	H	1.319151	-1.014706	-0.099219
H90	H	1.346278	-1.098626	-0.253329
C91	C	1.233139	-1.210902	-0.311306
C92	C	1.220590	-1.125677	-0.240195
C93	C	1.204755	-1.158639	-0.151156
C94	C	1.201469	-1.276827	-0.133226
C95	C	1.214018	-1.362060	-0.204339
C96	C	1.229853	-1.329098	-0.293378
H97	H	1.223023	-1.038180	-0.253466
H98	H	1.195466	-1.095543	-0.098514
H99	H	1.189747	-1.301227	-0.067314
H100	H	1.211585	-1.449556	-0.191068
H101	H	1.239142	-1.392194	-0.346020
H102	H	1.079540	-1.014353	-0.367809
C103	C	1.025406	-1.007158	-0.490092
C104	C	0.934530	-1.030013	-0.471650
C105	C	0.864497	-0.989062	-0.528668
C106	C	0.885339	-0.925257	-0.604128
C107	C	0.976219	-0.902398	-0.622573
C108	C	1.046253	-0.943349	-0.565555
H109	H	0.919097	-1.077248	-0.415787
H110	H	0.797221	-1.005984	-0.515013
H111	H	0.833496	-0.894943	-0.646337
H112	H	0.991652	-0.855163	-0.678436
H113	H	1.113528	-0.926427	-0.579210
C114	C	1.025493	-1.209316	-0.491401
C115	C	1.009073	-1.328246	-0.500578
C116	C	0.939488	-1.366850	-0.558445
C117	C	0.886324	-1.286523	-0.607134
C118	C	0.902742	-1.167586	-0.597958
C119	C	0.972327	-1.128982	-0.540091
H120	H	1.048430	-1.387715	-0.464534
H121	H	0.927335	-1.454896	-0.565237
H122	H	0.834813	-1.315100	-0.649970
H123	H	0.863385	-1.108117	-0.634002
H124	H	0.984481	-1.040936	-0.533299
H125	H	1.078837	-1.196281	-0.368983
H126	H	1.261451	-1.036699	-0.575295
C127	C	1.287653	-1.231447	-0.578743
C128	C	1.339371	-1.303404	-0.521737
C129	C	1.425321	-1.350052	-0.550213
C130	C	1.459554	-1.324743	-0.635695
C131	C	1.407835	-1.252782	-0.692706
C132	C	1.321884	-1.206134	-0.664231
H133	H	1.314031	-1.322143	-0.458454
H134	H	1.463607	-1.403323	-0.508009
H135	H	1.523180	-1.359274	-0.656775
H136	H	1.433175	-1.234043	-0.755990
H137	H	1.283599	-1.152863	-0.706434
H138	H	1.313235	-1.213272	-0.418370
H139	H	1.150432	-1.032841	-0.596075
