data_functionalizedCrystal
_audit_creation_method	'MofGen! by Chris Wilmer'
_symmetry_space_group_name_H-M	'P1'
_symmetry_Int_Tables_number	1
_symmetry_cell_setting	triclinic
loop_
_symmetry_equiv_pos_as_xyz
  x,y,z
_cell_length_a	8.634740
_cell_length_b	16.109301
_cell_length_c	15.186229
_cell_angle_alpha	89.998755
_cell_angle_beta	90.002001
_cell_angle_gamma	87.984106
loop_
_atom_site_label
_atom_site_type_symbol
_atom_site_fract_x
_atom_site_fract_y
_atom_site_fract_z
O1	O	0.198200	-1.119037	0.073169
O2	O	0.222866	-0.878955	0.073182
O3	O	-0.013937	-0.987631	0.073174
O4	O	0.435003	-1.010361	0.073177
O5	O	-0.013943	-0.987621	-0.073283
O6	O	0.222860	-0.878945	-0.073275
O7	O	0.198195	-1.119027	-0.073289
Zn8	Zn	0.210527	-0.998984	-0.096535
Zn9	Zn	0.210534	-0.998998	0.096429
O10	O	0.434998	-1.010351	-0.073280
C11	C	0.221864	-0.847895	-0.000045
C12	C	0.218869	-0.755359	-0.000039
C13	C	-0.071387	-0.982477	-0.000053
C14	C	-0.242563	-0.967125	-0.000048
C15	C	0.199197	-1.150087	-0.000060
C16	C	0.202192	-1.242623	-0.000059
C17	C	0.492448	-1.015505	-0.000051
C18	C	0.663624	-1.030857	-0.000050
N19	N	0.210521	-0.998981	-0.228228
C20	C	0.352418	-0.543804	-0.000049
C21	C	0.349591	-0.456857	-0.000054
C22	C	0.068632	-0.454184	-0.000053
C23	C	0.071461	-0.541129	-0.000053
C24	C	0.213358	-0.585937	-0.000047
C25	C	0.207703	-0.412045	-0.000052
C26	C	0.204637	-0.317772	-0.000058
C27	C	0.216424	-0.680216	-0.000042
C28	C	0.105699	-1.047129	-0.546150
C29	C	0.105700	-1.047126	-0.453960
C30	C	0.315360	-0.950857	-0.453963
C31	C	0.315366	-0.950865	-0.546151
C32	C	0.210527	-0.998999	-0.592242
C33	C	0.210522	-0.998989	-0.407864
C34	C	0.210523	-0.998986	-0.307908
C35	C	0.210527	-0.999003	-0.692204
N36	N	0.210528	-0.999007	0.228121
H37	H	-0.285739	-1.097166	-0.000024
F38	F	0.497598	-0.412020	-0.000058
F39	F	-0.082376	-0.406489	-0.000056
F40	F	-0.076554	-0.585973	-0.000057
F41	F	-0.005876	-1.098360	-0.595200
F42	F	-0.005868	-1.098355	-0.404908
H43	H	0.400716	-0.911666	-0.416427
H44	H	0.400736	-0.911672	-0.583682
H45	H	-0.293207	-0.900811	-0.000039
F46	F	0.503437	-0.591490	-0.000046
