data_functionalizedCrystal
_audit_creation_method	'MofGen! by Chris Wilmer'
_symmetry_space_group_name_H-M	'P1'
_symmetry_Int_Tables_number	1
_symmetry_cell_setting	triclinic
loop_
_symmetry_equiv_pos_as_xyz
  x,y,z
_cell_length_a	11.792241
_cell_length_b	11.792241
_cell_length_c	16.176319
_cell_angle_alpha	90.006929
_cell_angle_beta	90.003197
_cell_angle_gamma	84.193416
loop_
_atom_site_label
_atom_site_type_symbol
_atom_site_fract_x
_atom_site_fract_y
_atom_site_fract_z
O1	O	-1.506913	-0.155571	-0.068667
O2	O	-1.176572	-0.171604	-0.068686
O3	O	-1.349759	0.001583	-0.068670
O4	O	-1.333726	-0.328758	-0.068683
O5	O	-1.349735	0.001595	0.068823
O6	O	-1.176548	-0.171592	0.068807
O7	O	-1.506889	-0.155559	0.068827
Cu8	Cu	-1.341716	-0.163575	0.081371
Cu9	Cu	-1.341745	-0.163588	-0.081230
O10	O	-1.333702	-0.328746	0.068811
C11	C	-1.134269	-0.170591	0.000058
C12	C	-1.008255	-0.167576	0.000051
C13	C	-1.348740	0.043880	0.000076
C14	C	-1.345726	0.169894	0.000075
C15	C	-1.549192	-0.156572	0.000081
C16	C	-1.675206	-0.159587	0.000082
C17	C	-0.777543	-0.162034	0.000075
C18	C	-0.905928	-0.165113	0.000062
C19	C	-1.334721	-0.371043	0.000063
C20	C	-1.337736	-0.497057	0.000058
C21	C	-1.340183	0.400606	0.000061
C22	C	-1.343262	0.272221	0.000069
N23	N	-1.341705	-0.163565	0.195736
N24	N	-1.341766	-0.163589	-0.195596
C25	C	-1.418415	-0.086909	0.239008
C26	C	-1.418421	-0.086908	0.325555
C27	C	-1.341721	-0.163569	0.368829
C28	C	-1.265002	-0.240228	0.325552
C29	C	-1.264992	-0.240223	0.239006
C30	C	-1.265041	-0.240250	0.674580
C31	C	-1.265059	-0.240251	0.761131
C32	C	-1.418470	-0.086935	0.761128
C33	C	-1.418460	-0.086930	0.674583
C34	C	-1.341738	-0.163584	0.631313
C35	C	-1.341731	-0.163583	0.537469
C36	C	-1.341732	-0.163576	0.462672
H37	H	-1.480878	-0.024488	0.203779
N38	N	-1.186684	-0.318555	0.805324
N39	N	-1.081770	-0.316277	0.795673
H40	H	-1.026420	-0.371576	0.826883
N41	N	-1.186663	-0.318550	0.630401
N42	N	-1.118188	-0.386989	0.669052
H43	H	-1.062827	-0.442292	0.637849
N44	N	-1.186652	-0.318520	0.369765
N45	N	-1.186671	-0.318516	0.447037
H46	H	-1.131336	-0.373812	0.478263
H47	H	-1.202525	-0.302642	0.203776
H48	H	-1.480884	-0.024489	0.360786
H49	H	-1.480920	-0.024509	0.639352
H50	H	-1.480939	-0.024515	0.796368
