data_functionalizedCrystal
_audit_creation_method	'MofGen! by Chris Wilmer'
_symmetry_space_group_name_H-M	'P1'
_symmetry_Int_Tables_number	1
_symmetry_cell_setting	triclinic
loop_
_symmetry_equiv_pos_as_xyz
  x,y,z
_cell_length_a	11.169417
_cell_length_b	12.759399
_cell_length_c	11.169409
_cell_angle_alpha	89.967421
_cell_angle_beta	89.979436
_cell_angle_gamma	90.016624
loop_
_atom_site_label
_atom_site_type_symbol
_atom_site_fract_x
_atom_site_fract_y
_atom_site_fract_z
Zn1	Zn	1.834926	-0.418157	-0.678540
Zn2	Zn	1.834794	-0.593883	-0.477856
Zn3	Zn	1.634209	-0.418221	-0.477875
Zn4	Zn	1.634200	-0.593797	-0.678501
O5	O	1.734532	-0.506015	-0.578193
O6	O	2.002858	-0.441477	-0.651928
O7	O	1.808134	-0.570643	-0.309909
O8	O	1.660894	-0.271192	-0.504518
O9	O	2.002761	-0.570581	-0.504486
O10	O	1.808360	-0.271145	-0.651946
O11	O	1.660766	-0.441585	-0.309922
O12	O	1.466258	-0.441503	-0.504479
O13	O	1.660879	-0.570436	-0.846456
O14	O	1.466252	-0.570498	-0.651879
O15	O	1.808351	-0.441394	-0.846485
O16	O	1.808126	-0.740892	-0.504448
O17	O	1.660751	-0.740830	-0.651861
C18	C	1.422708	-0.505999	-0.578178
C19	C	1.289308	-0.506017	-0.578199
C20	C	1.734455	-0.778982	-0.578174
C21	C	1.734532	-0.895759	-0.578206
C22	C	1.657783	-0.950626	-0.654909
C23	C	1.657858	-1.060350	-0.654931
C24	C	1.811442	-1.060329	-0.501547
C25	C	1.811360	-0.950607	-0.501519
C26	C	1.516405	-1.210388	-0.697731
C27	C	1.439666	-1.265259	-0.774452
C28	C	1.421155	-1.229582	-0.891535
C29	C	1.479401	-1.139036	-0.931921
C30	C	1.556150	-1.084170	-0.855206
C31	C	1.574637	-1.119845	-0.738107
C32	C	1.952815	-0.800568	-0.458731
C33	C	2.029570	-0.745700	-0.382022
C34	C	2.048092	-0.781375	-0.264937
C35	C	1.989867	-0.871925	-0.224556
C36	C	1.913112	-0.926792	-0.301265
C37	C	1.894588	-0.891110	-0.418349
C38	C	2.047575	-0.506031	-0.578209
C39	C	2.180975	-0.506038	-0.578216
C40	C	1.734629	-0.505898	-0.891236
C41	C	1.734670	-0.505849	-1.024636
C42	C	1.734642	-0.231981	-0.578238
C43	C	1.734689	-0.115205	-0.578257
C44	C	1.734506	-0.506055	-0.266368
C45	C	1.734697	-0.505808	-0.132969
H46	H	1.595223	-0.905971	-0.717351
H47	H	1.358672	-1.274266	-0.954002
H48	H	1.603574	-1.010450	-0.888088
H49	H	1.392242	-1.338982	-0.741559
N50	N	1.536328	-1.248864	-0.571437
H51	H	1.571063	-1.321914	-0.573616
H52	H	1.593741	-1.200299	-0.529017
N53	N	2.092368	-0.648026	-0.425554
H54	H	2.181874	-0.658351	-0.420509
H55	H	2.068893	-0.633785	-0.511346
N56	N	2.009826	-0.910421	-0.098272
H57	H	2.097560	-0.926377	-0.086198
H58	H	1.983938	-0.854532	-0.039744
H59	H	1.464334	-1.110002	-1.027267
N60	N	1.894297	-1.119488	-0.418830
H61	H	1.882704	-1.197323	-0.430484
H62	H	1.979992	-1.100228	-0.437568
N63	N	1.850295	-1.024455	-0.257728
H64	H	1.911739	-1.078413	-0.233225
H65	H	1.798188	-1.006502	-0.186729
N66	N	2.130891	-0.722206	-0.182201
H67	H	2.164979	-0.659434	-0.225547
H68	H	2.084740	-0.697930	-0.109562
H69	H	1.937719	-0.771500	-0.554064
