data_functionalizedCrystal
_audit_creation_method	'MofGen! by Chris Wilmer'
_symmetry_space_group_name_H-M	'P1'
_symmetry_Int_Tables_number	1
_symmetry_cell_setting	triclinic
loop_
_symmetry_equiv_pos_as_xyz
  x,y,z
_cell_length_a	19.805407
_cell_length_b	19.121063
_cell_length_c	19.805407
_cell_angle_alpha	87.576166
_cell_angle_beta	90.002724
_cell_angle_gamma	92.469032
loop_
_atom_site_label
_atom_site_type_symbol
_atom_site_fract_x
_atom_site_fract_y
_atom_site_fract_z
Zn1	Zn	1.023114	-0.279727	0.394207
Zn2	Zn	1.523114	0.220273	0.894207
Zn3	Zn	1.018230	-0.397153	0.285841
Zn4	Zn	1.518230	0.102847	0.785841
Zn5	Zn	0.909962	-0.279719	0.281031
Zn6	Zn	1.409962	0.220281	0.781031
Zn7	Zn	0.905061	-0.397143	0.398987
Zn8	Zn	1.405061	0.102857	0.898987
O9	O	0.964092	-0.338435	0.340016
O10	O	1.464092	0.161565	0.840016
O11	O	1.117182	-0.295311	0.379844
O12	O	1.617182	0.204689	0.879844
O13	O	1.003876	-0.381575	0.190486
O14	O	1.503876	0.118425	0.690486
O15	O	0.929067	-0.181434	0.292030
O16	O	1.429067	0.318566	0.792030
O17	O	1.113595	-0.381583	0.300228
O18	O	1.613595	0.118417	0.800228
O19	O	1.012199	-0.181440	0.375180
O20	O	1.512199	0.318560	0.875180
O21	O	0.924332	-0.295297	0.186952
O22	O	1.424332	0.204703	0.686952
O23	O	0.814596	-0.295288	0.296666
O24	O	1.314596	0.204712	0.796666
O25	O	0.920713	-0.381567	0.493069
O26	O	1.420713	0.118433	0.993069
O27	O	0.810995	-0.381559	0.383327
O28	O	1.310995	0.118441	0.883327
O29	O	1.007446	-0.295302	0.489557
O30	O	1.507446	0.204698	0.989557
O31	O	0.999123	-0.495437	0.304863
O32	O	1.499123	0.004563	0.804863
O33	O	0.915978	-0.495430	0.387991
O34	O	1.415978	0.004570	0.887991
C35	C	0.788236	-0.338422	0.339994
C36	C	1.288236	0.161578	0.839994
C37	C	0.713004	-0.338433	0.340001
C38	C	1.213004	0.161567	0.840001
C39	C	0.675800	-0.383422	0.385058
C40	C	1.175800	0.116578	0.885058
C41	C	0.605111	-0.383423	0.385068
C42	C	1.105111	0.116577	0.885068
C43	C	0.571628	-0.338438	0.340016
C44	C	1.071628	0.161562	0.840016
C45	C	0.608837	-0.293445	0.294957
C46	C	1.108837	0.206555	0.794957
C47	C	0.679525	-0.293440	0.294951
C48	C	1.179525	0.206560	0.794951
C49	C	0.323763	-0.293460	0.294980
C50	C	0.823763	0.206540	0.794980
C51	C	0.253071	-0.293469	0.294988
C52	C	0.753071	0.206531	0.794988
C53	C	0.249350	-0.383443	0.385097
C54	C	0.749350	0.116557	0.885097
C55	C	0.320037	-0.383439	0.385091
C56	C	0.820037	0.116561	0.885091
C57	C	0.357241	-0.338443	0.340034
C58	C	0.857241	0.161557	0.840034
C59	C	0.433889	-0.338441	0.340025
C60	C	0.933889	0.161559	0.840025
C61	C	0.494981	-0.338443	0.340021
C62	C	0.994981	0.161557	0.840021
C63	C	0.956507	-0.520918	0.347482
C64	C	1.456507	-0.020918	0.847482
C65	C	0.953325	-0.598985	0.350699
C66	C	1.453325	-0.098985	0.850699
C67	C	0.995152	-0.635641	0.308966
C68	C	1.495152	-0.135641	0.808966
C69	C	0.992163	-0.708993	0.311995
C70	C	1.492163	-0.208993	0.811995
C71	C	0.947342	-0.745688	0.356755
C72	C	1.447342	-0.245688	0.856755
C73	C	0.905513	-0.709026	0.398493
C74	C	1.405513	-0.209026	0.898493
C75	C	0.908506	-0.635675	0.395466
C76	C	1.408506	-0.135675	0.895466
C77	C	0.936141	-0.967161	0.368059
C78	C	1.436141	-0.467161	0.868059
C79	C	0.933149	-1.040517	0.371081
C80	C	1.433149	-0.540517	0.871081
C81	C	1.019801	-1.040479	0.284584
C82	C	1.519801	-0.540479	0.784584
C83	C	1.022787	-0.967127	0.281559
C84	C	1.522787	-0.467127	0.781559
C85	C	0.980960	-0.930471	0.323299
C86	C	1.480960	-0.430471	0.823299
C87	C	0.944284	-0.820665	0.359851
C88	C	1.444284	-0.320665	0.859851
C89	C	0.984022	-0.855495	0.320206
C90	C	1.484022	-0.355495	0.820206
C91	C	1.140634	-0.338449	0.340039
C92	C	1.640634	0.161551	0.840039
C93	C	1.215866	-0.338455	0.340049
C94	C	1.715866	0.161545	0.840049
C95	C	0.964078	-0.338434	0.516559
C96	C	1.464078	0.161566	1.016559
C97	C	0.964072	-0.338434	0.591791
C98	C	1.464072	0.161566	1.091791
C99	C	0.971724	-0.155240	0.332536
C100	C	1.471724	0.344760	0.832536
C101	C	0.974977	-0.077173	0.329348
C102	C	1.474977	0.422827	0.829348
C103	C	1.005513	-0.383368	1.055420
C104	C	1.505513	0.116632	1.555420
C105	C	1.005507	-0.383369	0.984731
C106	C	1.505507	0.116631	1.484731
C107	C	0.964091	-0.338448	0.947553
C108	C	1.464091	0.161552	1.447553
C109	C	0.922673	-0.293528	0.981067
C110	C	1.422673	0.206472	1.481067
C111	C	0.922675	-0.293532	1.051754
C112	C	1.422675	0.206468	1.551754
C113	C	0.922660	-0.293514	0.695993
C114	C	1.422660	0.206486	1.195993
C115	C	0.922661	-0.293512	0.625301
C116	C	1.422661	0.206488	1.125301
C117	C	1.005491	-0.383351	0.628970
C118	C	1.505491	0.116649	1.128970
C119	C	1.005494	-0.383354	0.699657
C120	C	1.505494	0.116646	1.199657
C121	C	0.964074	-0.338438	0.733165
C122	C	1.464074	0.161562	1.233165
C123	C	0.964080	-0.338439	0.809814
C124	C	1.464080	0.161561	1.309814
C125	C	0.964088	-0.338443	0.870906
C126	C	1.464088	0.161557	1.370906
C127	C	0.964098	-0.338452	1.164161
C128	C	1.464098	0.161548	1.664161
C129	C	0.964100	-0.338451	1.088929
C130	C	1.464100	0.161549	1.588929
H131	H	0.709816	-0.256802	0.258264
H132	H	1.209816	0.243198	0.758264
C133	C	1.069371	-0.862824	0.235007
C134	C	1.569371	-0.362824	0.735007
C135	C	1.033287	-0.815164	0.271005
C136	C	1.533287	-0.315164	0.771005
H137	H	1.099786	-0.837919	0.204634
H138	H	1.599786	-0.337919	0.704634
H139	H	1.038735	-0.891469	0.210273
H140	H	1.538735	-0.391469	0.710273
H141	H	1.094074	-0.891400	0.265703
H142	H	1.594074	-0.391400	0.765703
H143	H	1.008581	-0.786591	0.240310
H144	H	1.508581	-0.286591	0.740310
H145	H	1.063928	-0.786507	0.295741
H146	H	1.563928	-0.286507	0.795741
H147	H	0.703056	-0.420056	0.421743
H148	H	1.203056	0.079944	0.921743
H149	H	1.026223	-0.738836	0.278011
H150	H	1.526223	-0.238836	0.778011
H151	H	0.225811	-0.256833	0.258301
H152	H	0.725811	0.243167	0.758301
H153	H	1.039222	-0.419954	0.957452
H154	H	1.539222	0.080046	1.457452
H155	H	0.581570	-0.256814	0.258278
H156	H	1.081570	0.243186	0.758278
H157	H	1.039216	-0.419926	0.601680
H158	H	1.539216	0.080074	1.101680
H159	H	0.888953	-0.256955	1.079036
H160	H	1.388953	0.243045	1.579036
C161	C	1.107499	-1.122881	0.278674
C162	C	1.607499	-0.622881	0.778674
C163	C	1.065787	-1.080767	0.238714
C164	C	1.565787	-0.580767	0.738714
H165	H	1.135896	-1.147748	0.250354
H166	H	1.635896	-0.647748	0.750354
H167	H	1.080377	-1.155233	0.305752
H168	H	1.580377	-0.655233	0.805752
H169	H	1.134523	-1.094220	0.307008
H170	H	1.634523	-0.594220	0.807008
H171	H	1.038760	-1.109429	0.210383
H172	H	1.538760	-0.609429	0.710383
H173	H	1.092912	-1.048412	0.211624
H174	H	1.592912	-0.548412	0.711624
H175	H	0.888933	-0.256930	0.595032
H176	H	1.388933	0.243070	1.095032
H177	H	1.031647	-0.605770	0.272515
H178	H	1.531647	-0.105770	0.772515
C179	C	0.395610	-0.477925	0.398209
C180	C	0.895610	0.022075	0.898209
C181	C	0.356842	-0.432886	0.434614
C182	C	0.856842	0.067114	0.934614
H183	H	0.418327	-0.508452	0.428786
H184	H	0.918327	-0.008452	0.928786
H185	H	0.427881	-0.451131	0.371378
H186	H	0.927881	0.048869	0.871378
H187	H	0.366910	-0.504747	0.369781
H188	H	0.866910	-0.004747	0.869781
H189	H	0.385542	-0.406060	0.463039
H190	H	0.885542	0.093940	0.963039
H191	H	0.324567	-0.459683	0.461457
H192	H	0.824567	0.040317	0.961457
H193	H	0.888947	-0.256956	0.950791
H194	H	1.388947	0.243044	1.450791
C195	C	1.010971	-0.477823	0.783016
C196	C	1.510971	0.022177	1.283016
C197	C	1.051023	-0.432726	0.740528
C198	C	1.551023	0.067274	1.240528
H199	H	1.039080	-0.508299	0.808251
H200	H	1.539080	-0.008299	1.308251
H201	H	0.980371	-0.504690	0.756537
H202	H	1.480371	-0.004690	1.256537
H203	H	0.986307	-0.451062	0.813083
H204	H	1.486307	0.048938	1.313083
H205	H	1.075683	-0.459487	0.710458
H206	H	1.575683	0.040513	1.210458
H207	H	1.081635	-0.405856	0.767010
H208	H	1.581635	0.094144	1.267010
H209	H	0.574823	-0.420059	0.421758
H210	H	1.074823	0.079941	0.921758
H211	H	0.219051	-0.420079	0.421787
H212	H	0.719051	0.079921	0.921787
C213	C	0.320331	-0.204523	0.205911
C214	C	0.820331	0.295477	0.705911
C215	C	0.364651	-0.244002	0.245453
C216	C	0.864651	0.255998	0.745453
H217	H	0.345577	-0.173990	0.175332
H218	H	0.845577	0.326010	0.675332
H219	H	0.293877	-0.177713	0.234350
H220	H	0.793877	0.322287	0.734350
H221	H	0.291490	-0.235093	0.181225
H222	H	0.791490	0.264907	0.681225
H223	H	0.393489	-0.213432	0.270143
H224	H	0.893489	0.286568	0.770143
H225	H	0.391117	-0.270814	0.217010
H226	H	0.891117	0.229186	0.717010
H227	H	0.902082	-0.937322	0.402045
H228	H	1.402082	-0.437322	0.902045
H229	H	1.059283	-0.937251	0.245112
H230	H	1.559283	-0.437251	0.745112
H231	H	1.039243	-0.419945	1.085685
H232	H	1.539243	0.080055	1.585685
C233	C	0.847808	-1.033190	0.456294
C234	C	1.347808	-0.533190	0.956294
C235	C	0.883885	-1.080853	0.420291
C236	C	1.383885	-0.580853	0.920291
H237	H	0.817400	-1.058094	0.486675
H238	H	1.317400	-0.558094	0.986675
H239	H	0.823104	-1.004618	0.425607
H240	H	1.323104	-0.504618	0.925607
H241	H	0.878454	-1.004543	0.481025
H242	H	1.378454	-0.504543	0.981025
H243	H	0.853239	-1.109498	0.395556
H244	H	1.353239	-0.609498	0.895556
H245	H	0.908590	-1.109437	0.450983
H246	H	1.408590	-0.609437	0.950983
C247	C	0.862443	-0.821483	0.441533
C248	C	1.362443	-0.321483	0.941533
C249	C	0.856243	-0.749359	0.447692
C250	C	1.356243	-0.249359	0.947692
H251	H	0.832021	-0.846380	0.471903
H252	H	1.332021	-0.346380	0.971903
H253	H	0.907417	-0.833459	0.451978
H254	H	1.407417	-0.333459	0.951978
H255	H	0.852087	-0.833524	0.396540
H256	H	1.352087	-0.333524	0.896540
H257	H	0.866604	-0.737317	0.492684
H258	H	1.366604	-0.237317	0.992684
H259	H	0.811259	-0.737378	0.437251
H260	H	1.311259	-0.237378	0.937251
H261	H	0.907790	-0.850550	0.396293
H262	H	1.407790	-0.350550	0.896293
C263	C	0.822555	-0.643076	0.481268
C264	C	1.322555	-0.143076	0.981268
C265	C	0.862529	-0.595380	0.441342
C266	C	1.362529	-0.095380	0.941342
H267	H	0.794170	-0.618198	0.509589
H268	H	1.294170	-0.118198	1.009589
H269	H	0.850857	-0.671649	0.508359
H270	H	1.350857	-0.171649	1.008359
H271	H	0.795519	-0.671719	0.452929
H272	H	1.295519	-0.171719	0.952929
H273	H	0.889569	-0.566739	0.469681
H274	H	1.389569	-0.066739	0.969681
H275	H	0.834224	-0.566794	0.414248
H276	H	1.334224	-0.066794	0.914248
H277	H	0.888931	-0.256941	0.723267
H278	H	1.388931	0.243059	1.223267
