data_functionalizedCrystal
_audit_creation_method	'MofGen! by Chris Wilmer'
_symmetry_space_group_name_H-M	'P1'
_symmetry_Int_Tables_number	1
_symmetry_cell_setting	triclinic
loop_
_symmetry_equiv_pos_as_xyz
  x,y,z
_cell_length_a	16.992695
_cell_length_b	16.992694
_cell_length_c	15.455436
_cell_angle_alpha	92.852074
_cell_angle_beta	92.849328
_cell_angle_gamma	89.331778
loop_
_atom_site_label
_atom_site_type_symbol
_atom_site_fract_x
_atom_site_fract_y
_atom_site_fract_z
O1	O	-0.170136	1.047631	-0.072001
O2	O	-0.168306	0.819230	-0.072026
O3	O	-0.055021	0.932514	-0.072021
O4	O	-0.283421	0.934346	-0.072006
O5	O	-0.048566	0.938954	0.072238
O6	O	-0.161851	0.825670	0.072233
O7	O	-0.163681	1.054071	0.072259
Cu8	Cu	-0.162177	0.940458	0.085418
Cu9	Cu	-0.169811	0.932842	-0.085186
O10	O	-0.276966	0.940786	0.072254
C11	C	-0.162723	0.793089	0.000100
C12	C	-0.155695	0.705604	0.000089
C13	C	-0.223512	0.659614	0.000095
C14	C	-0.216903	0.577414	0.000106
C15	C	-0.142475	0.541205	0.000106
C16	C	-0.074652	0.587202	0.000104
C17	C	-0.081262	0.669401	0.000098
C18	C	-0.115080	0.295892	0.000128
C19	C	-0.108475	0.213687	0.000130
C20	C	-0.250726	0.203904	0.000134
C21	C	-0.257330	0.286105	0.000124
C22	C	-0.189507	0.332094	0.000126
N23	N	-0.135718	0.457183	0.000115
N24	N	-0.196265	0.416115	0.000123
C25	C	-0.309553	0.939922	0.000126
C26	C	-0.397038	0.946951	0.000132
C27	C	-0.443029	0.879133	0.000124
C28	C	-0.525230	0.885741	0.000114
C29	C	-0.561438	0.960169	0.000118
C30	C	-0.515441	1.027993	0.000124
C31	C	-0.433242	1.021383	0.000128
C32	C	-0.806753	0.987563	0.000102
C33	C	-0.888959	0.994168	0.000100
C34	C	-0.898742	0.851916	0.000089
C35	C	-0.816541	0.845313	0.000098
C36	C	-0.770551	0.913136	0.000099
N37	N	-0.645461	0.966926	0.000111
N38	N	-0.686530	0.906378	0.000101
C39	C	-0.022434	0.933379	0.000104
C40	C	0.065050	0.926349	0.000092
C41	C	-0.169264	1.080211	0.000131
C42	C	-0.176293	1.167696	0.000135
N43	N	-0.156807	0.945821	0.205411
C44	C	-0.127072	0.975617	0.749407
C45	C	-0.131141	0.971544	0.658601
C46	C	-0.183314	0.919329	0.613211
C47	C	-0.231426	0.871189	0.658631
C48	C	-0.227360	0.875266	0.749436
C49	C	-0.200854	0.901758	0.341637
C50	C	-0.204914	0.897683	0.250826
C51	C	-0.104630	0.998040	0.250801
C52	C	-0.100565	1.002109	0.341607
C53	C	-0.148680	0.953972	0.387020
N54	N	-0.187473	0.915163	0.520392
N55	N	-0.144525	0.958142	0.479837
N56	N	-0.175179	0.927479	0.794821
H57	H	-0.014051	0.557715	0.000116
Cl58	Cl	-0.044149	1.058554	0.193707
H59	H	-0.091969	1.010743	0.621624
H60	H	-0.059853	0.333327	0.000130
H61	H	-0.047864	0.184209	0.000129
H62	H	-0.395796	1.076608	0.000131
H63	H	-0.240029	0.862561	0.378605
H64	H	-0.936196	0.796698	0.000088
H65	H	-0.272128	0.539971	0.000109
Cl66	Cl	-0.317084	0.705124	0.000089
Cl67	Cl	-0.034976	1.067751	0.398669
H68	H	-0.026038	0.706846	0.000093
Cl69	Cl	-0.397518	0.785562	0.000126
H70	H	-0.084584	1.018133	0.786357
Cl71	Cl	-0.270508	0.832033	0.193770
H72	H	-0.317937	0.315579	0.000114
Cl73	Cl	-0.297019	0.805549	0.601572
H74	H	-0.918436	1.054779	0.000104
Cl75	Cl	-0.287843	0.814750	0.806528
Cl76	Cl	-0.335984	0.146084	0.000136
H77	H	-0.562673	0.830516	0.000105
H78	H	-0.769318	1.042790	0.000108
Cl79	Cl	-0.560960	1.121559	0.000122
H80	H	-0.787066	0.784706	0.000085
