data_functionalizedCrystal
_audit_creation_method	'MofGen! by Chris Wilmer'
_symmetry_space_group_name_H-M	'P1'
_symmetry_Int_Tables_number	1
_symmetry_cell_setting	triclinic
loop_
_symmetry_equiv_pos_as_xyz
  x,y,z
_cell_length_a	13.032831
_cell_length_b	21.395363
_cell_length_c	21.395355
_cell_angle_alpha	89.996048
_cell_angle_beta	82.805728
_cell_angle_gamma	82.808442
loop_
_atom_site_label
_atom_site_type_symbol
_atom_site_fract_x
_atom_site_fract_y
_atom_site_fract_z
Zn1	Zn	1.597924	-0.371391	-0.475804
Zn2	Zn	2.097924	0.128609	0.024196
Zn3	Zn	1.597849	-0.476145	-0.371048
Zn4	Zn	2.097849	0.023855	0.128952
Zn5	Zn	1.423142	-0.358060	-0.357754
Zn6	Zn	1.923142	0.141940	0.142246
Zn7	Zn	1.423178	-0.462806	-0.462509
Zn8	Zn	1.923178	0.037194	0.037491
O9	O	1.510523	-0.417101	-0.416779
O10	O	2.010523	0.082899	0.083221
O11	O	1.744162	-0.396448	-0.473036
O12	O	2.244162	0.103552	0.026964
O13	O	1.574627	-0.460484	-0.281603
O14	O	2.074627	0.039516	0.218397
O15	O	1.446344	-0.272152	-0.373414
O16	O	1.946344	0.227848	0.126586
O17	O	1.744106	-0.473411	-0.396072
O18	O	2.244106	0.026589	0.103928
O19	O	1.574756	-0.281946	-0.460145
O20	O	2.074756	0.218054	0.039855
O21	O	1.446271	-0.373727	-0.271836
O22	O	1.946271	0.126273	0.228164
O23	O	1.276899	-0.360793	-0.360522
O24	O	1.776899	0.139207	0.139478
O25	O	1.446405	-0.450676	-0.551954
O26	O	1.946405	0.049324	-0.051954
O27	O	1.276926	-0.437750	-0.437485
O28	O	1.776926	0.062250	0.062515
O29	O	1.574790	-0.383514	-0.561722
O30	O	2.074790	0.116486	-0.061722
O31	O	1.574662	-0.562052	-0.383180
O32	O	2.074662	-0.062052	0.116820
O33	O	1.446331	-0.552252	-0.450376
O34	O	1.946331	-0.052252	0.049624
C35	C	1.238992	-0.396378	-0.396118
C36	C	1.738992	0.103622	0.103882
C37	C	1.122830	-0.387528	-0.387295
C38	C	1.622830	0.112472	0.112705
C39	C	1.510554	-0.253680	-0.416780
C40	C	2.010554	0.246320	0.083220
C41	C	1.510567	-0.184039	-0.416780
C42	C	2.010567	0.315961	0.083220
C43	C	1.510521	-0.579888	-0.416793
C44	C	2.010521	-0.079888	0.083207
C45	C	1.510615	-0.649536	-0.416828
C46	C	2.010615	-0.149536	0.083172
C47	C	1.071082	-0.421720	-0.421384
C48	C	1.571082	0.078280	0.078616
C49	C	0.951022	-0.412573	-0.412265
C50	C	1.451022	0.087427	0.087735
C51	C	1.783114	-0.437905	-0.437520
C52	C	2.283114	0.062095	0.062480
C53	C	1.899277	-0.446770	-0.446359
C54	C	2.399277	0.053230	0.053641
C55	C	1.510610	-0.417094	-0.580209
C56	C	2.010610	0.082906	-0.080209
C57	C	1.510647	-0.417092	-0.649853
C58	C	2.010647	0.082908	-0.149853
C59	C	1.443722	-0.146227	-0.371625
C60	C	1.943722	0.353773	0.128375
C61	C	1.443721	-0.080791	-0.371633
C62	C	1.943721	0.419209	0.128367
C63	C	1.510584	-0.053172	-0.416789
C64	C	2.010584	0.446828	0.083211
C65	C	1.577433	-0.090993	-0.461952
C66	C	2.077433	0.409007	0.038048
C67	C	1.577425	-0.156427	-0.461947
C68	C	2.077425	0.343573	0.038053
C69	C	1.604757	0.043310	-0.428907
C70	C	2.104757	0.543310	0.071093
C71	C	1.604767	0.108742	-0.428907
C72	C	2.104767	0.608742	0.071093
C73	C	1.510608	0.148647	-0.416808
C74	C	2.010608	0.648647	0.083192
C75	C	1.416436	0.123111	-0.404694
C76	C	1.916436	0.623111	0.095306
C77	C	1.416428	0.057678	-0.404690
C78	C	1.916428	0.557678	0.095310
C79	C	1.510599	0.017779	-0.416800
C80	C	2.010599	0.517779	0.083200
C81	C	1.443756	0.257412	-0.371659
C82	C	1.943756	0.757412	0.128341
C83	C	1.443753	0.322849	-0.371670
C84	C	1.943753	0.822849	0.128330
C85	C	1.577475	0.312645	-0.461987
C86	C	2.077475	0.812645	0.038013
C87	C	1.577468	0.247210	-0.461978
C88	C	2.077468	0.747210	0.038022
C89	C	1.510610	0.219598	-0.416811
C90	C	2.010610	0.719598	0.083189
C91	C	1.577494	-0.382119	-0.687653
C92	C	2.077494	0.117881	-0.187653
C93	C	1.577493	-0.382092	-0.753088
C94	C	2.077493	0.117908	-0.253088
C95	C	1.510655	-0.417050	-0.780722
C96	C	2.010655	0.082950	-0.280722
C97	C	1.443794	-0.452025	-0.742913
C98	C	1.943794	0.047975	-0.242913
C99	C	1.443790	-0.452046	-0.677478
C100	C	1.943790	0.047954	-0.177478
C101	C	1.502402	-0.472836	-0.883774
C102	C	2.002402	0.027164	-0.383774
C103	C	1.502413	-0.472816	-0.949208
C104	C	2.002413	0.027184	-0.449208
C105	C	1.510661	-0.416984	-0.982543
C106	C	2.010661	0.083016	-0.482543
C107	C	1.518920	-0.361171	-0.950438
C108	C	2.018920	0.138829	-0.450438
C109	C	1.518916	-0.361192	-0.885003
C110	C	2.018916	0.138808	-0.385003
C111	C	1.510651	-0.417031	-0.851674
C112	C	2.010651	0.082969	-0.351674
C113	C	1.577511	-0.381978	-1.091296
C114	C	2.077511	0.118022	-0.591296
C115	C	1.577502	-0.381950	-1.156732
C116	C	2.077502	0.118050	-0.656732
C117	C	1.443809	-0.451889	-1.146555
C118	C	1.943809	0.048111	-0.646555
C119	C	1.443812	-0.451912	-1.081120
C120	C	1.943812	0.048088	-0.581120
C121	C	1.510669	-0.416958	-1.053495
C122	C	2.010669	0.083042	-0.553495
C123	C	1.510497	-0.417066	-0.253989
C124	C	2.010497	0.082934	0.246011
C125	C	1.510662	-0.416907	-0.184361
C126	C	2.010662	0.083093	0.315639
H127	H	1.115662	-0.457762	-0.457322
H128	H	1.615662	0.042238	0.042678
Br129	Br	0.973562	-0.506840	-0.506272
Br130	Br	1.473562	-0.006840	-0.006272
H131	H	1.631926	-0.353608	-0.783871
H132	H	2.131926	0.146392	-0.283871
H133	H	1.078250	-0.351481	-0.351361
H134	H	1.578250	0.148519	0.148639
H135	H	1.525638	-0.315708	-0.977578
H136	H	2.025638	0.184292	-0.477578
H137	H	0.906446	-0.376524	-0.376329
H138	H	1.406446	0.123476	0.123671
H139	H	1.389280	-0.168704	-0.334847
H140	H	1.889280	0.331296	0.165153
Br141	Br	1.668189	0.195890	-0.523264
Br142	Br	2.168189	0.695890	-0.023264
H143	H	1.631933	-0.353655	-0.665165
H144	H	2.131933	0.146345	-0.165165
Br145	Br	1.353002	-0.029464	-0.310345
Br146	Br	1.853002	0.470536	0.189655
Br147	Br	1.288630	0.023023	-0.388255
Br148	Br	1.788630	0.523023	0.111745
Br149	Br	1.353021	0.219934	-0.310363
Br150	Br	1.853021	0.719934	0.189637
Br151	Br	1.353060	-0.499512	-0.626174
Br152	Br	1.853060	0.000488	-0.126174
H153	H	1.339764	0.155601	-0.394841
H154	H	1.839764	0.655601	0.105159
H155	H	1.389314	0.353638	-0.334902
H156	H	1.889314	0.853638	0.165098
Br157	Br	1.668212	0.350121	-0.523276
Br158	Br	2.168212	0.850121	-0.023276
Br159	Br	1.732570	0.143391	-0.445343
Br160	Br	2.232570	0.643391	0.054657
H161	H	1.681437	0.010824	-0.438768
H162	H	2.181437	0.510824	0.061232
H163	H	1.495695	-0.518263	-0.975343
H164	H	1.995695	-0.018263	-0.475343
Br165	Br	1.353085	-0.499325	-1.184050
Br166	Br	1.853085	0.000675	-0.684050
H167	H	1.631872	-0.068502	-0.498721
H168	H	2.131872	0.431498	0.001279
H169	H	1.525638	-0.315748	-0.858866
H170	H	2.025638	0.184252	-0.358866
H171	H	1.631943	-0.353513	-1.068802
H172	H	2.131943	0.146487	-0.568802
H173	H	1.631858	-0.187214	-0.498720
H174	H	2.131858	0.312786	0.001280
H175	H	1.631936	-0.353466	-1.187508
H176	H	2.131936	0.146534	-0.687508
Br177	Br	1.353087	-0.499379	-1.029816
Br178	Br	1.853087	0.000621	-0.529816
H179	H	1.495406	-0.518268	-0.856617
H180	H	1.995406	-0.018268	-0.356617
Br181	Br	1.353078	-0.499464	-0.780413
Br182	Br	1.853078	0.000536	-0.280413
