data_functionalizedCrystal
_audit_creation_method	'MofGen! by Chris Wilmer'
_symmetry_space_group_name_H-M	'P1'
_symmetry_Int_Tables_number	1
_symmetry_cell_setting	triclinic
loop_
_symmetry_equiv_pos_as_xyz
  x,y,z
_cell_length_a	12.759401
_cell_length_b	16.120484
_cell_length_c	16.120256
_cell_angle_alpha	95.616173
_cell_angle_beta	92.881337
_cell_angle_gamma	92.925831
loop_
_atom_site_label
_atom_site_type_symbol
_atom_site_fract_x
_atom_site_fract_y
_atom_site_fract_z
Zn1	Zn	1.552086	-0.356751	-0.489392
Zn2	Zn	1.551954	-0.489436	-0.356702
Zn3	Zn	1.385776	-0.349684	-0.349644
Zn4	Zn	1.366965	-0.496483	-0.496433
O5	O	1.464195	-0.423088	-0.423043
O6	O	1.699088	-0.374360	-0.471797
O7	O	1.537727	-0.464991	-0.238803
O8	O	1.415765	-0.233656	-0.362282
O9	O	1.698991	-0.471844	-0.374310
O10	O	1.537952	-0.238848	-0.464954
O11	O	1.415637	-0.362315	-0.233617
O12	O	1.236260	-0.369149	-0.369109
O13	O	1.383704	-0.483854	-0.612462
O14	O	1.222440	-0.477001	-0.476954
O15	O	1.519712	-0.381193	-0.607289
O16	O	1.519487	-0.607337	-0.381137
O17	O	1.383576	-0.612514	-0.483797
C18	C	1.191229	-0.423073	-0.423030
C19	C	1.074451	-0.423088	-0.423046
C20	C	1.019628	-0.372429	-0.473894
C21	C	0.909903	-0.372438	-0.473900
C22	C	0.909833	-0.473772	-0.372207
C23	C	1.019557	-0.473758	-0.372197
C24	C	0.764601	-0.275444	-0.498962
C25	C	0.709773	-0.224794	-0.549824
C26	C	0.740806	-0.216204	-0.630755
C27	C	0.826664	-0.258278	-0.660842
C28	C	0.881486	-0.308935	-0.609984
C29	C	0.850456	-0.317509	-0.529040
C30	C	1.164860	-0.570753	-0.347144
C31	C	1.219683	-0.621415	-0.296291
C32	C	1.188651	-0.630014	-0.215358
C33	C	1.102789	-0.587954	-0.185275
C34	C	1.047966	-0.537292	-0.236129
C35	C	1.079005	-0.528692	-0.317061
C36	C	1.449503	-0.640254	-0.434015
C37	C	1.443312	-0.733160	-0.438738
C38	C	1.432014	-0.903260	-0.447376
C39	C	1.496564	-0.942077	-0.398723
C40	C	1.490277	-1.036727	-0.403529
C41	C	1.438299	-0.808602	-0.442571
C42	C	1.738226	-0.423104	-0.423056
C43	C	1.855002	-0.423111	-0.423061
C44	C	1.449624	-0.434098	-0.641050
C45	C	1.443415	-0.438790	-0.733952
C46	C	1.478972	-0.205076	-0.412045
C47	C	1.485269	-0.112172	-0.407359
C48	C	1.496575	-0.398601	-0.942876
C49	C	1.432046	-0.447321	-0.904038
C50	C	1.438374	-0.442573	-0.809393
C51	C	1.490248	-0.403348	-1.037529
C52	C	1.478774	-0.412061	-0.205880
C53	C	1.485202	-0.407134	-0.112967
H54	H	1.064320	-0.331168	-0.515296
C55	C	1.577594	-0.890952	-0.337569
H56	H	1.617270	-0.927755	-0.307677
H57	H	1.542087	-0.855101	-0.299433
H58	H	1.623427	-0.858464	-0.367877
H59	H	1.372043	-0.492592	-0.941867
H60	H	0.978052	-0.503045	-0.211629
H61	H	0.951393	-0.343187	-0.634478
C62	C	0.860791	-0.248833	-0.749871
H63	H	0.815851	-0.212633	-0.775848
H64	H	0.856428	-0.301991	-0.781368
H65	H	0.931155	-0.226029	-0.747317
H66	H	0.739334	-0.282424	-0.433057
H67	H	1.556568	-0.353329	-0.905048
C68	C	1.350976	-0.954388	-0.508512
H69	H	1.357325	-1.012216	-0.503752
H70	H	1.363457	-0.942938	-0.563973
H71	H	1.282143	-0.939568	-0.495510
H72	H	0.696158	-0.174962	-0.672167
C73	C	1.248952	-0.685746	-0.159422
H74	H	1.304533	-0.709567	-0.188926
H75	H	1.202404	-0.729001	-0.144443
H76	H	1.277137	-0.653043	-0.110391
C77	C	0.849445	-0.529512	-0.316286
H78	H	0.776245	-0.522272	-0.323580
H79	H	0.871997	-0.514357	-0.259523
H80	H	0.862828	-0.586304	-0.331270
C81	C	1.068650	-0.597408	-0.096250
H82	H	1.113603	-0.633597	-0.070269
H83	H	0.998292	-0.620210	-0.098803
H84	H	1.073015	-0.544247	-0.064748
C85	C	0.615343	-0.178508	-0.516728
H86	H	0.604723	-0.190864	-0.461235
H87	H	0.554161	-0.196030	-0.551277
H88	H	0.628901	-0.120069	-0.517243
H89	H	1.289607	-0.655651	-0.320786
H90	H	1.190141	-0.563750	-0.413044
