data_functionalizedCrystal
_audit_creation_method	'MofGen! by Chris Wilmer'
_symmetry_space_group_name_H-M	'P1'
_symmetry_Int_Tables_number	1
_symmetry_cell_setting	triclinic
loop_
_symmetry_equiv_pos_as_xyz
  x,y,z
_cell_length_a	12.827893
_cell_length_b	16.120484
_cell_length_c	12.827885
_cell_angle_alpha	87.136072
_cell_angle_beta	90.019272
_cell_angle_gamma	92.925431
loop_
_atom_site_label
_atom_site_type_symbol
_atom_site_fract_x
_atom_site_fract_y
_atom_site_fract_z
Zn1	Zn	1.576504	-0.331866	0.611895
Zn2	Zn	1.909837	0.001467	0.945229
Zn3	Zn	2.243170	0.334800	1.278562
Zn4	Zn	1.567505	-0.471301	0.445998
Zn5	Zn	1.900838	-0.137968	0.779332
Zn6	Zn	2.234171	0.195365	1.112665
Zn7	Zn	1.401742	-0.331907	0.437171
Zn8	Zn	1.735076	0.001426	0.770505
Zn9	Zn	2.068409	0.334760	1.103838
Zn10	Zn	1.392841	-0.471239	0.620694
Zn11	Zn	1.726175	-0.137906	0.954028
Zn12	Zn	2.059508	0.195427	1.287361
O13	O	1.484648	-0.401579	0.528940
O14	O	1.817981	-0.068245	0.862273
O15	O	2.151315	0.265088	1.195607
O16	O	1.721545	-0.350372	0.589900
O17	O	2.054879	-0.017038	0.923234
O18	O	2.388212	0.316295	1.256567
O19	O	1.545475	-0.452853	0.298594
O20	O	1.878809	-0.119520	0.631927
O21	O	2.212142	0.213813	0.965261
O22	O	1.432416	-0.215236	0.452972
O23	O	1.765749	0.118097	0.786306
O24	O	2.099083	0.451430	1.119639
O25	O	1.714934	-0.452814	0.468017
O26	O	2.048267	-0.119481	0.801350
O27	O	2.381601	0.213853	1.134683
O28	O	1.560812	-0.215206	0.581341
O29	O	1.894146	0.118127	0.914675
O30	O	2.227479	0.451460	1.248008
O31	O	1.423690	-0.350441	0.292109
O32	O	1.757024	-0.017107	0.625442
O33	O	2.090357	0.316226	0.958776
O34	O	1.254326	-0.350381	0.461505
O35	O	1.587660	-0.017047	0.794838
O36	O	1.920993	0.316286	1.128171
O37	O	1.417245	-0.452708	0.765761
O38	O	1.750579	-0.119375	1.099094
O39	O	2.083912	0.213958	1.432427
O40	O	1.247787	-0.452748	0.596338
O41	O	1.581120	-0.119414	0.929671
O42	O	1.914453	0.213919	1.263005
O43	O	1.552181	-0.350311	0.759296
O44	O	1.885515	-0.016978	1.092629
O45	O	2.218848	0.316355	1.425963
O46	O	1.536844	-0.587959	0.476549
O47	O	1.870177	-0.254625	0.809882
O48	O	2.203511	0.078708	1.143215
O49	O	1.408520	-0.587913	0.604897
O50	O	1.741853	-0.254580	0.938231
O51	O	2.075186	0.078754	1.271564
C52	C	1.213139	-0.401562	0.528919
C53	C	1.546473	-0.068229	0.862252
C54	C	1.879806	0.265104	1.195586
C55	C	1.096985	-0.401576	0.528936
C56	C	1.430319	-0.068242	0.862269
C57	C	1.763652	0.265091	1.195603
C58	C	1.041987	-0.452309	0.595563
C59	C	1.375320	-0.118976	0.928896
C60	C	1.708654	0.214357	1.262230
C61	C	0.921936	-0.452324	0.595582
C62	C	1.255269	-0.118991	0.928916
C63	C	1.588602	0.214343	1.262249
C64	C	1.470768	-0.618186	0.542658
C65	C	1.804101	-0.284852	0.875992
C66	C	2.137434	0.048481	1.209325
C67	C	1.464925	-0.710851	0.548562
C68	C	1.798259	-0.377518	0.881896
C69	C	2.131592	-0.044185	1.215229
C70	C	1.454265	-0.880512	0.559362
C71	C	1.787598	-0.547179	0.892696
C72	C	2.120931	-0.213846	1.226029
C73	C	1.515219	-0.921804	0.498534
C74	C	1.848552	-0.588471	0.831868
C75	C	2.181885	-0.255138	1.165201
C76	C	1.509287	-1.016209	0.504544
C77	C	1.842620	-0.682876	0.837877
C78	C	2.175954	-0.349543	1.171210
C79	C	1.460195	-0.786099	0.553355
C80	C	1.793528	-0.452765	0.886688
C81	C	2.126862	-0.119432	1.220021
C82	C	1.757217	-0.401595	0.528962
C83	C	2.090550	-0.068262	0.862295
C84	C	2.423884	0.265071	1.195628
C85	C	1.873370	-0.401602	0.528971
C86	C	2.206703	-0.068269	0.862304
C87	C	2.540036	0.265064	1.195637
C88	C	1.484724	-0.401498	0.801505
C89	C	1.818058	-0.068165	1.134838
C90	C	2.151391	0.265168	1.468172
C91	C	1.484757	-0.401464	0.917656
C92	C	1.818090	-0.068131	1.250990
C93	C	2.151423	0.265202	1.584323
C94	C	1.498611	-0.184125	0.515191
C95	C	1.831944	0.149208	0.848524
C96	C	2.165278	0.482541	1.181857
C97	C	1.504561	-0.091460	0.509332
C98	C	1.837894	0.241873	0.842665
C99	C	2.171228	0.575207	1.175998
C100	C	1.484636	-0.401598	0.257431
C101	C	1.817969	-0.068265	0.590765
C102	C	2.151303	0.265069	0.924098
C103	C	1.484821	-0.401397	0.141266
C104	C	1.818154	-0.068064	0.474599
C105	C	2.151488	0.265269	0.807933
C106	C	1.551535	-0.350785	0.966241
C107	C	1.884868	-0.017452	1.299575
C108	C	2.218202	0.315881	1.632908
C109	C	1.551570	-0.350749	1.086289
C110	C	1.884903	-0.017415	1.419623
C111	C	2.218237	0.315918	1.752956
H112	H	1.571857	-0.886255	0.441944
H113	H	1.905190	-0.552921	0.775277
H114	H	2.238524	-0.219588	1.108611
Cl115	Cl	1.106500	-0.519360	0.683609
Cl116	Cl	1.439834	-0.186027	1.016943
Cl117	Cl	1.773167	0.147307	1.350276
Cl118	Cl	0.848937	-0.519393	0.683650
Cl119	Cl	1.182270	-0.186059	1.016983
Cl120	Cl	1.515604	0.147274	1.350317
Cl121	Cl	0.946361	-0.334541	0.440889
Cl122	Cl	1.279695	-0.001208	0.774222
Cl123	Cl	1.613028	0.332126	1.107556
H124	H	1.608676	-0.307421	0.918962
H125	H	1.942010	0.025912	1.252295
H126	H	2.275343	0.359246	1.585628
Cl127	Cl	1.032472	-0.334524	0.440891
Cl128	Cl	1.365805	-0.001191	0.774224
Cl129	Cl	1.699139	0.332142	1.107557
Cl130	Cl	1.366821	-0.935395	0.646725
Cl131	Cl	1.700154	-0.602061	0.980058
Cl132	Cl	2.033487	-0.268728	1.313392
H133	H	1.608744	-0.307363	1.128084
H134	H	1.942078	0.025970	1.461417
H135	H	2.275411	0.359303	1.794751
Cl136	Cl	1.396551	-0.468396	1.076752
Cl137	Cl	1.729884	-0.135063	1.410085
Cl138	Cl	2.063217	0.198270	1.743419
Cl139	Cl	1.396519	-0.468410	0.990643
Cl140	Cl	1.729852	-0.135077	1.323976
Cl141	Cl	2.063185	0.198257	1.657310
