data_functionalizedCrystal
_audit_creation_method	'MofGen! by Chris Wilmer'
_symmetry_space_group_name_H-M	'P1'
_symmetry_Int_Tables_number	1
_symmetry_cell_setting	triclinic
loop_
_symmetry_equiv_pos_as_xyz
  x,y,z
_cell_length_a	19.077105
_cell_length_b	16.120444
_cell_length_c	19.076919
_cell_angle_alpha	84.952692
_cell_angle_beta	89.923776
_cell_angle_gamma	90.739589
loop_
_atom_site_label
_atom_site_type_symbol
_atom_site_fract_x
_atom_site_fract_y
_atom_site_fract_z
Zn1	Zn	1.040330	-0.403263	0.456946
Zn2	Zn	1.039008	-0.537289	0.344933
Zn3	Zn	0.928045	-0.392097	0.334282
Zn4	Zn	0.916852	-0.536786	0.457665
O5	O	0.981059	-0.467359	0.398456
O6	O	1.138270	-0.425926	0.446244
O7	O	1.028419	-0.513566	0.245006
O8	O	0.948178	-0.276935	0.345795
O9	O	1.137298	-0.524394	0.363948
O10	O	1.030673	-0.285139	0.435916
O11	O	0.946895	-0.406894	0.237181
O12	O	0.828446	-0.406406	0.346492
O13	O	0.929101	-0.523537	0.556084
O14	O	0.820222	-0.512709	0.437141
O15	O	1.019820	-0.425438	0.555556
O16	O	1.017566	-0.653865	0.364645
O17	O	0.927819	-0.653496	0.447469
C18	C	0.798894	-0.458292	0.390739
C19	C	0.720961	-0.454434	0.387455
C20	C	0.680085	-0.508045	0.433041
C21	C	0.606859	-0.504409	0.429958
C22	C	0.574512	-0.447166	0.381286
C23	C	0.615394	-0.393550	0.335698
C24	C	0.688618	-0.397182	0.338785
C25	C	0.355972	-0.430356	0.367004
C26	C	0.282743	-0.426729	0.363920
C27	C	0.274213	-0.537589	0.458181
C28	C	0.347439	-0.541219	0.461261
C29	C	0.388315	-0.487600	0.415675
N30	N	0.499664	-0.443450	0.378132
N31	N	0.463162	-0.491312	0.418833
C32	C	0.971353	-0.683927	0.407307
C33	C	0.967263	-0.776580	0.411119
C34	C	1.002437	-0.987660	0.378838
C35	C	0.959810	-0.946213	0.418087
C36	C	0.963958	-0.851820	0.414209
C37	C	0.998290	-1.082061	0.382716
C38	C	1.163935	-0.476461	0.406204
C39	C	1.241866	-0.480340	0.409506
C40	C	0.973359	-0.475677	0.582077
C41	C	0.970078	-0.479222	0.660326
C42	C	0.990822	-0.249947	0.389588
C43	C	0.994982	-0.157299	0.385808
C44	C	0.988772	-0.459015	0.215549
C45	C	0.992199	-0.455242	0.137297
C46	C	1.015767	-0.429815	0.696813
C47	C	1.012676	-0.433142	0.770336
C48	C	0.963899	-0.485881	0.807369
C49	C	0.918205	-0.535290	0.770876
C50	C	0.921294	-0.531958	0.697355
C51	C	0.949594	-0.501319	1.027283
C52	C	0.946510	-0.504649	1.100809
C53	C	1.040980	-0.402499	1.100263
C54	C	1.044067	-0.399176	1.026741
C55	C	0.998371	-0.448581	0.990255
N56	N	0.960739	-0.489285	0.882521
N57	N	1.001528	-0.445172	0.915104
H58	H	0.573580	-0.548066	0.467078
H59	H	0.912395	-0.541561	0.997585
H60	H	0.884082	-0.572182	0.667647
C61	C	0.776384	-0.288686	0.328045
C62	C	0.733550	-0.338251	0.288673
H63	H	0.804118	-0.252299	0.297107
H64	H	0.806126	-0.323296	0.357466
H65	H	0.747953	-0.256837	0.356255
H66	H	0.761980	-0.370105	0.260467
H67	H	0.703805	-0.303637	0.259240
H68	H	1.055489	-0.386871	0.666666
C69	C	0.664292	-0.617250	0.525910
C70	C	0.715638	-0.570967	0.486546
H71	H	0.686241	-0.656091	0.558946
H72	H	0.635590	-0.646270	0.495291
H73	H	0.636229	-0.580777	0.550198
H74	H	0.743698	-0.607440	0.462254
H75	H	0.744351	-0.541945	0.517169
C76	C	0.204852	-0.406564	0.265301
C77	C	0.247174	-0.363789	0.310435
H78	H	0.182894	-0.367706	0.232287
H79	H	0.170041	-0.437982	0.292010
H80	H	0.232924	-0.443005	0.240989
H81	H	0.219102	-0.327352	0.334752
H82	H	0.281990	-0.332356	0.283724
C83	C	0.600595	-0.249675	0.294885
C84	C	0.579841	-0.330623	0.282197
H85	H	0.578644	-0.210828	0.261856
H86	H	0.650049	-0.244172	0.290199
H87	H	0.587157	-0.239124	0.341204
H88	H	0.593284	-0.341177	0.235881
H89	H	0.530376	-0.336129	0.286878
H90	H	1.042044	-0.952255	0.342324
C91	C	0.357037	-0.320413	0.273524
C92	C	0.400896	-0.371419	0.316897
H93	H	0.384776	-0.284030	0.242587
H94	H	0.328620	-0.288569	0.301738
H95	H	0.327980	-0.354052	0.246823
H96	H	0.429950	-0.337780	0.343602
H97	H	0.429326	-0.403266	0.288679
C98	C	1.142346	-0.388492	0.947554
C99	C	1.097654	-0.341178	0.986017
H100	H	1.175423	-0.352680	0.922411
H101	H	1.115575	-0.417452	0.915317
H102	H	1.166358	-0.427423	0.978851
H103	H	1.073638	-0.302251	0.954719
H104	H	1.124429	-0.312204	1.018257
C105	C	0.871527	-0.585759	0.883820
C106	C	0.864588	-0.593262	0.811582
H107	H	0.838428	-0.621555	0.908948
H108	H	0.863273	-0.529796	0.893147
H109	H	0.917584	-0.600851	0.898358
H110	H	0.818532	-0.578164	0.797044
H111	H	0.872836	-0.649238	0.802251
H112	H	0.373771	-0.587834	0.500893
H113	H	1.049882	-0.392911	0.800041
C114	C	1.080520	-0.264082	1.118585
C115	C	1.091203	-0.348187	1.140369
H116	H	1.111529	-0.230550	1.143341
H117	H	1.033459	-0.250092	1.128142
H118	H	1.089340	-0.254563	1.069497
H119	H	1.082378	-0.357707	1.189455
H120	H	1.138275	-0.362181	1.130817
H121	H	0.920200	-0.981622	0.454603
C122	C	0.853428	-0.605280	1.093967
C123	C	0.892887	-0.562621	1.141518
H124	H	0.820324	-0.641064	1.119101
H125	H	0.883744	-0.637386	1.067887
H126	H	0.829446	-0.566318	1.062673
H127	H	0.916874	-0.601583	1.172810
H128	H	0.862568	-0.530512	1.167610
H129	H	0.240925	-0.581241	0.495295
