data_functionalizedCrystal
_audit_creation_method	'MofGen! by Chris Wilmer'
_symmetry_space_group_name_H-M	'P1'
_symmetry_Int_Tables_number	1
_symmetry_cell_setting	triclinic
loop_
_symmetry_equiv_pos_as_xyz
  x,y,z
_cell_length_a	10.654550
_cell_length_b	11.792241
_cell_length_c	9.130313
_cell_angle_alpha	89.995332
_cell_angle_beta	89.999724
_cell_angle_gamma	84.339173
loop_
_atom_site_label
_atom_site_type_symbol
_atom_site_fract_x
_atom_site_fract_y
_atom_site_fract_z
O1	O	1.667388	0.159420	-0.121691
O2	O	1.301867	0.174608	-0.121718
O3	O	1.493498	0.001864	-0.121693
O4	O	1.475758	0.332164	-0.121715
O5	O	1.493485	0.001859	0.121906
O6	O	1.301854	0.174603	0.121881
O7	O	1.667375	0.159415	0.121908
Cu8	Cu	1.484613	0.167009	0.144137
Cu9	Cu	1.484629	0.167015	-0.143947
O10	O	1.475744	0.332159	0.121884
C11	C	1.255066	0.173491	0.000078
C12	C	1.115632	0.170154	0.000068
C13	C	1.035859	0.271863	0.000066
C14	C	0.904847	0.268721	0.000092
C15	C	0.933394	0.062152	0.000116
C16	C	1.064403	0.065295	0.000101
C17	C	1.492377	-0.040432	0.000106
C18	C	1.489042	-0.166453	0.000104
C19	C	1.482908	-0.397180	0.000079
C20	C	1.486316	-0.268787	0.000093
C21	C	1.714177	0.160533	0.000109
C22	C	1.853611	0.163869	0.000109
C23	C	1.476865	0.374455	0.000082
C24	C	1.480201	0.500477	0.000074
N25	N	1.484612	0.167004	0.346760
N26	N	1.484641	0.167011	-0.346569
C27	C	1.569495	0.090545	0.423422
C28	C	1.569507	0.090545	0.576759
C29	C	1.399749	0.243473	0.576757
C30	C	1.399732	0.243466	0.423423
H31	H	0.839900	0.351543	0.000092
C32	C	1.307714	0.326671	0.340258
C33	C	1.328854	0.438383	0.377498
C34	C	1.244124	0.515054	0.300902
H35	H	1.223766	0.313793	0.365340
H36	H	1.319864	0.315790	0.237944
H37	H	1.316694	0.449259	0.479789
H38	H	1.412785	0.451298	0.352412
H39	H	1.256274	0.504174	0.198588
H40	H	1.160182	0.502166	0.325989
H41	H	1.258464	0.590860	0.326148
H42	H	0.891668	-0.023220	0.000152
C43	C	1.091237	0.385819	0.000120
C44	C	0.993327	0.474218	0.000164
C45	C	1.044289	0.579213	0.000238
H46	H	1.141726	0.391505	-0.084812
H47	H	1.141722	0.391399	0.085096
H48	H	0.942864	0.468641	-0.084804
H49	H	0.942831	0.468570	0.085089
H50	H	1.094774	0.584792	0.085214
H51	H	1.094777	0.584887	-0.084695
H52	H	0.977866	0.639203	0.000282
H53	H	1.638607	0.028283	0.361007
C54	C	1.150816	-0.045263	0.000028
C55	C	1.077915	-0.137767	0.000008
C56	C	1.157474	-0.239625	-0.000073
H57	H	1.202549	-0.048489	0.084948
H58	H	1.202492	-0.048391	-0.084959
H59	H	1.026261	-0.134641	0.084987
H60	H	1.026185	-0.134579	-0.084906
H61	H	1.209150	-0.242753	-0.085060
H62	H	1.209203	-0.242839	0.084849
H63	H	1.108022	-0.302400	-0.000100
C64	C	1.661810	0.007485	0.659728
C65	C	1.736155	-0.059456	0.559764
C66	C	1.821212	-0.135977	0.636140
H67	H	1.616472	-0.040254	0.719562
H68	H	1.714434	0.048731	0.719499
H69	H	1.683537	-0.100699	0.500019
H70	H	1.781520	-0.011748	0.499927
H71	H	1.873836	-0.094731	0.695911
H72	H	1.775863	-0.183708	0.695972
H73	H	1.871673	-0.181398	0.568327
C74	C	1.307401	0.326357	0.659923
C75	C	1.183868	0.306884	0.622681
C76	C	1.098763	0.383206	0.699277
H77	H	1.321371	0.402274	0.634842
H78	H	1.319486	0.315404	0.762237
H79	H	1.171788	0.317846	0.520390
H80	H	1.169857	0.230982	0.647765
H81	H	1.110848	0.372254	0.801590
H82	H	1.112745	0.459118	0.674190
H83	H	1.014937	0.369998	0.674029
