data_functionalizedCrystal
_audit_creation_method	'MofGen! by Chris Wilmer'
_symmetry_space_group_name_H-M	'P1'
_symmetry_Int_Tables_number	1
_symmetry_cell_setting	triclinic
loop_
_symmetry_equiv_pos_as_xyz
  x,y,z
_cell_length_a	17.699083
_cell_length_b	17.699092
_cell_length_c	16.176319
_cell_angle_alpha	90.001625
_cell_angle_beta	89.995411
_cell_angle_gamma	96.715309
loop_
_atom_site_label
_atom_site_type_symbol
_atom_site_fract_x
_atom_site_fract_y
_atom_site_fract_z
O1	O	1.004081	-0.095709	-0.068711
O2	O	0.783703	-0.108161	-0.068719
O3	O	0.900115	0.008254	-0.068713
O4	O	0.887669	-0.212124	-0.068717
O5	O	0.900100	0.008253	0.068780
O6	O	0.783688	-0.108161	0.068774
O7	O	1.004066	-0.095709	0.068782
Cu8	Cu	0.893876	-0.101935	0.081332
Cu9	Cu	0.893893	-0.101935	-0.081269
O10	O	0.887654	-0.212124	0.068776
C11	C	0.755499	-0.107715	0.000026
C12	C	0.671480	-0.106377	0.000023
C13	C	0.899661	0.036450	0.000032
C14	C	0.898319	0.120468	0.000028
C15	C	0.888109	-0.240321	0.000029
C16	C	0.889450	-0.324339	0.000027
C17	C	1.032271	-0.096155	0.000035
C18	C	1.116289	-0.097494	0.000033
C19	C	1.164908	-0.029161	0.000031
C20	C	1.243851	-0.030423	0.000034
C21	C	1.274174	-0.100019	0.000032
C22	C	1.225549	-0.168358	0.000036
C23	C	1.146607	-0.167094	0.000039
C24	C	1.543912	-0.173453	0.000024
C25	C	1.622860	-0.174711	0.000019
C26	C	1.641156	-0.036781	0.000019
C27	C	1.562214	-0.035518	0.000022
C28	C	1.513596	-0.103856	0.000030
C29	C	1.427997	-0.102487	0.000029
C30	C	1.359772	-0.101389	0.000028
C31	C	0.897699	0.159936	-0.074920
C32	C	0.896434	0.238879	-0.074921
C33	C	0.895795	0.278353	0.000027
C34	C	0.896413	0.238880	0.074981
C35	C	0.897673	0.159938	0.074982
C36	C	0.891333	0.557245	0.074982
C37	C	0.890076	0.636193	0.074977
C38	C	0.890094	0.636186	-0.074920
C39	C	0.891354	0.557244	-0.074920
C40	C	0.891968	0.517777	0.000034
C41	C	0.893338	0.432178	0.000034
C42	C	0.894430	0.363952	0.000028
N43	N	0.893870	-0.101935	0.195697
C44	C	0.939686	-0.147783	0.238959
C45	C	0.939693	-0.147781	0.325506
C46	C	0.893881	-0.101933	0.368790
C47	C	0.848063	-0.056079	0.325522
C48	C	0.848060	-0.056078	0.238977
C49	C	0.848075	-0.056081	0.674551
C50	C	0.848080	-0.056087	0.761102
C51	C	0.939709	-0.147784	0.761080
C52	C	0.939706	-0.147783	0.674534
C53	C	0.893891	-0.101926	0.631274
C54	C	0.893885	-0.101929	0.537430
C55	C	0.893883	-0.101934	0.462633
N56	N	0.893901	-0.101932	0.804365
H57	H	1.140226	0.027513	0.000027
C58	C	0.990109	-0.198198	0.373094
C59	C	0.990136	-0.198185	0.468290
C60	C	1.040564	-0.248594	0.515878
C61	C	1.090966	-0.299016	0.468268
C62	C	1.090942	-0.299032	0.373066
C63	C	1.040513	-0.248623	0.325479
H64	H	0.952823	-0.160857	0.503538
H65	H	1.040582	-0.248582	0.586353
H66	H	1.128296	-0.336332	0.503495
H67	H	1.128254	-0.336359	0.337818
H68	H	1.040495	-0.248634	0.255004
C69	C	0.895697	0.282291	0.157431
C70	C	0.961548	0.280147	0.219281
C71	C	0.960828	0.323552	0.301735
C72	C	0.894256	0.369101	0.322339
C73	C	0.828400	0.371247	0.260488
C74	C	0.829120	0.327842	0.178034
H75	H	1.010833	0.246427	0.204030
H76	H	1.009579	0.321963	0.347521
H77	H	0.893723	0.401232	0.383377
H78	H	0.779115	0.404967	0.275739
H79	H	0.780369	0.329431	0.132248
C80	C	0.990111	-0.198224	0.808668
C81	C	0.990122	-0.198229	0.903864
C82	C	1.040520	-0.248671	0.951449
C83	C	1.090906	-0.299108	0.903837
C84	C	1.090897	-0.299104	0.808635
C85	C	1.040499	-0.248662	0.761050
H86	H	0.952822	-0.160891	0.939114
H87	H	1.040526	-0.248673	1.021924
H88	H	1.128213	-0.336448	0.939063
H89	H	1.128197	-0.336442	0.773386
H90	H	1.040493	-0.248660	0.690575
H91	H	1.283434	0.025221	0.000036
H92	H	0.977008	-0.185120	0.639297
H93	H	0.810765	-0.018745	0.360771
H94	H	1.537530	0.021154	0.000019
H95	H	0.810772	-0.018750	0.796342
H96	H	0.898223	0.127801	-0.135952
C97	C	0.797668	-0.005653	0.626972
C98	C	0.747267	0.044768	0.674586
C99	C	0.696853	0.095195	0.627003
C100	C	0.696840	0.095201	0.531806
C101	C	0.747243	0.044779	0.484187
C102	C	0.797657	-0.005648	0.531770
H103	H	0.747274	0.044764	0.745061
H104	H	0.659541	0.132520	0.662254
H105	H	0.659521	0.132530	0.496582
H106	H	0.747236	0.044782	0.413712
H107	H	0.834969	-0.042974	0.496519
H108	H	0.889553	0.668331	0.136012
C109	C	0.889408	0.679600	-0.157373
C110	C	0.954238	0.742588	-0.177984
C111	C	0.953554	0.786001	-0.260433
C112	C	0.888041	0.766426	-0.322272
C113	C	0.823206	0.703435	-0.301662
C114	C	0.823890	0.660022	-0.219213
H115	H	1.002739	0.757082	-0.132206
H116	H	1.001550	0.832631	-0.275689
H117	H	0.887535	0.798562	-0.383306
H118	H	0.774705	0.688941	-0.347440
H119	H	0.775895	0.613392	-0.203957
C120	C	1.694639	0.038394	0.000019
C121	C	1.751420	0.056500	0.071415
C122	C	1.804900	0.131673	0.071412
C123	C	1.801598	0.188738	0.000013
C124	C	1.744815	0.170633	-0.071389
C125	C	1.691335	0.095461	-0.071386
H126	H	1.753866	0.014256	0.124274
H127	H	1.846934	0.145075	0.124269
H128	H	1.841187	0.244386	0.000011
H129	H	1.742369	0.212878	-0.124248
H130	H	1.649300	0.082058	-0.124243
H131	H	1.647545	-0.231387	0.000021
C132	C	0.895754	0.282293	-0.157366
C133	C	0.896464	0.238875	-0.239808
C134	C	0.895783	0.282289	-0.322256
C135	C	0.894391	0.369121	-0.322264
C136	C	0.893681	0.412545	-0.239819
C137	C	0.894363	0.369131	-0.157370
H138	H	0.897494	0.174592	-0.239805
H139	H	0.896308	0.250144	-0.383287
H140	H	0.893887	0.401259	-0.383297
H141	H	0.892651	0.476828	-0.239822
H142	H	0.893837	0.401276	-0.096339
H143	H	0.810751	-0.018744	0.203755
H144	H	0.891878	0.525108	-0.135951
H145	H	1.504336	-0.229098	0.000027
H146	H	1.250244	-0.225024	0.000040
C147	C	0.898356	0.116520	0.157426
C148	C	0.832479	0.118663	0.219254
C149	C	0.833157	0.075244	0.301700
C150	C	0.899713	0.029683	0.322319
C151	C	0.965596	0.027538	0.260489
C152	C	0.964917	0.070957	0.178042
H153	H	0.783205	0.152391	0.203993
H154	H	0.784386	0.076832	0.347471
H155	H	0.900216	-0.002458	0.383350
H156	H	1.014869	-0.006190	0.275750
H157	H	1.013688	0.069369	0.132272
H158	H	1.107021	-0.222738	0.000044
C159	C	0.990082	-0.198218	0.191351
C160	C	0.953568	-0.259918	0.131857
C161	C	1.003968	-0.310352	0.084252
C162	C	1.090882	-0.299085	0.096141
C163	C	1.127400	-0.237382	0.155638
C164	C	1.077000	-0.186948	0.203243
H165	H	0.889226	-0.268261	0.123054
H166	H	0.976935	-0.356029	0.040209
H167	H	1.128191	-0.336420	0.060901
H168	H	1.191743	-0.229039	0.164441
H169	H	1.104034	-0.141272	0.247286
H170	H	0.891848	0.525123	0.136014
