data_functionalizedCrystal
_audit_creation_method	'MofGen! by Chris Wilmer'
_symmetry_space_group_name_H-M	'P1'
_symmetry_Int_Tables_number	1
_symmetry_cell_setting	triclinic
loop_
_symmetry_equiv_pos_as_xyz
  x,y,z
_cell_length_a	14.519710
_cell_length_b	16.992695
_cell_length_c	16.053802
_cell_angle_alpha	87.258926
_cell_angle_beta	87.414957
_cell_angle_gamma	92.825816
loop_
_atom_site_label
_atom_site_type_symbol
_atom_site_fract_x
_atom_site_fract_y
_atom_site_fract_z
O1	O	1.234891	-0.099500	-0.069412
O2	O	1.734891	0.400500	0.430588
O3	O	0.967283	-0.111605	-0.069418
O4	O	1.467283	0.388395	0.430582
O5	O	1.100014	0.008592	-0.069408
O6	O	1.600014	0.508592	0.430592
O7	O	1.102160	-0.219696	-0.069421
O8	O	1.602160	0.280304	0.430579
O9	O	1.092706	0.002003	0.069450
O10	O	1.592706	0.502003	0.569450
O11	O	0.959975	-0.118193	0.069441
O12	O	1.459975	0.381807	0.569441
O13	O	1.227583	-0.106088	0.069447
O14	O	1.727583	0.393912	0.569447
Zn15	Zn	1.092619	-0.113187	0.091491
Zn16	Zn	1.592619	0.386813	0.591491
Zn17	Zn	1.102247	-0.104506	-0.091461
Zn18	Zn	1.602247	0.395494	0.408539
O19	O	1.094852	-0.226285	0.069437
O20	O	1.594852	0.273715	0.569437
C21	C	0.929229	-0.114335	0.000011
C22	C	1.429229	0.385665	0.500011
C23	C	0.826726	-0.112644	0.000009
C24	C	1.326726	0.387356	0.500009
C25	C	1.265637	-0.103358	0.000016
C26	C	1.765637	0.396642	0.500016
C27	C	1.368140	-0.105048	0.000013
C28	C	1.868140	0.394952	0.500013
C29	C	1.093600	0.034514	0.000021
C30	C	1.593600	0.534514	0.500021
C31	C	1.085364	0.121570	0.000021
C32	C	1.585364	0.621570	0.500021
C33	C	1.743483	-0.111272	0.000012
C34	C	2.243483	0.388728	0.500012
C35	C	1.639051	-0.109544	0.000012
C36	C	2.139051	0.390456	0.500012
C37	C	1.555815	-0.108160	0.000012
C38	C	2.055815	0.391840	0.500012
C39	C	1.451376	-0.106432	0.000013
C40	C	1.951376	0.393568	0.500013
C41	C	1.101266	-0.252207	0.000006
C42	C	1.601266	0.247793	0.500006
C43	C	1.109502	-0.339262	0.000001
C44	C	1.609502	0.160738	0.500001
N45	N	1.086054	-0.119111	0.216350
N46	N	1.586054	0.380889	0.716350
C47	C	1.164824	0.171698	0.000023
C48	C	1.664824	0.671698	0.500023
C49	C	1.157081	0.253496	0.000015
C50	C	1.657081	0.753496	0.500015
C51	C	1.069877	0.285163	0.000010
C52	C	1.569877	0.785163	0.500010
C53	C	0.990412	0.235028	0.000005
C54	C	1.490412	0.735028	0.500005
C55	C	0.998156	0.153232	0.000007
C56	C	1.498156	0.653232	0.500007
C57	C	1.037781	0.528807	-0.000002
C58	C	1.537781	1.028807	0.499998
C59	C	1.030042	0.610609	-0.000001
C60	C	1.530042	1.110609	0.499999
C61	C	1.196713	0.629072	0.000007
C62	C	1.696713	1.129072	0.500007
C63	C	1.204449	0.547273	0.000014
C64	C	1.704449	1.047273	0.500014
C65	C	1.124984	0.497145	0.000004
C66	C	1.624984	0.997145	0.500004
N67	N	1.061960	0.368774	0.000005
N68	N	1.561960	0.868774	0.500005
N69	N	1.132902	0.413537	0.000004
N70	N	1.632902	0.913537	0.500004
N71	N	1.108819	-0.098576	-0.216321
N72	N	1.608819	0.401424	0.283679
C73	C	1.142555	-0.067985	0.260048
C74	C	1.642555	0.432015	0.760048
C75	C	1.137972	-0.072137	0.347455
C76	C	1.637972	0.427863	0.847455
C77	C	1.076893	-0.127418	0.391162
C78	C	1.576893	0.372582	0.891162
C79	C	1.020386	-0.178546	0.347458
C80	C	1.520386	0.321454	0.847458
C81	C	1.024965	-0.174390	0.260053
C82	C	1.524965	0.325610	0.760053
C83	C	1.056891	-0.145548	0.652570
C84	C	1.556891	0.354452	1.152570
C85	C	1.052318	-0.149701	0.739981
C86	C	1.552318	0.350299	1.239981
C87	C	1.169903	-0.043291	0.739972
C88	C	1.669903	0.456709	1.239972
C89	C	1.174481	-0.039143	0.652565
C90	C	1.674481	0.460857	1.152565
C91	C	1.117970	-0.090268	0.608869
C92	C	1.617970	0.409732	1.108869
N93	N	1.072209	-0.131664	0.480505
N94	N	1.572209	0.368336	0.980505
N95	N	1.122650	-0.086018	0.519527
N96	N	1.622650	0.413982	1.019527
H97	H	1.235835	0.145922	0.000032
H98	H	1.735835	0.645922	0.500032
F99	F	1.241654	0.306844	0.000019
F100	F	1.741654	0.806844	0.500019
H101	H	1.192296	-0.022973	0.224468
H102	H	1.692296	0.477027	0.724468
F103	F	0.964826	-0.228803	0.213547
F104	F	1.464826	0.271197	0.713547
H105	H	1.010879	-0.187177	0.616999
H106	H	1.510879	0.312823	1.116999
H107	H	1.261409	0.669894	0.000013
H108	H	1.761409	1.169894	0.500013
F109	F	0.937223	0.644309	-0.000002
F110	F	1.437223	1.144309	0.499998
H111	H	1.224216	0.005871	0.616981
H112	H	1.724216	0.505871	1.116981
H113	H	1.183978	-0.030506	0.383033
H114	H	1.683978	0.469494	0.883033
H115	H	1.215910	-0.001667	0.775558
H116	H	1.715910	0.498333	1.275558
F117	F	0.955375	-0.237377	0.393974
F118	F	1.455375	0.262623	0.893974
F119	F	0.987306	-0.208544	0.786491
F120	F	1.487306	0.291456	1.286491
H121	H	1.275460	0.521496	0.000018
H122	H	1.775460	1.021496	0.500018
H123	H	0.973074	0.488002	-0.000009
H124	H	1.473074	0.988002	0.499991
H125	H	0.919408	0.260818	-0.000004
H126	H	1.419408	0.760818	0.499996
H127	H	0.933451	0.112417	0.000005
H128	H	1.433451	0.612417	0.500005
