data_functionalizedCrystal
_audit_creation_method	'MofGen! by Chris Wilmer'
_symmetry_space_group_name_H-M	'P1'
_symmetry_Int_Tables_number	1
_symmetry_cell_setting	triclinic
loop_
_symmetry_equiv_pos_as_xyz
  x,y,z
_cell_length_a	15.944493
_cell_length_b	15.021413
_cell_length_c	14.971486
_cell_angle_alpha	90.003812
_cell_angle_beta	96.455414
_cell_angle_gamma	90.006749
loop_
_atom_site_label
_atom_site_type_symbol
_atom_site_fract_x
_atom_site_fract_y
_atom_site_fract_z
O1	O	1.114669	0.074021	-0.115101
O2	O	0.870126	0.074025	-0.129378
O3	O	0.998952	0.074016	0.007969
O4	O	0.985843	0.074029	-0.252448
O5	O	0.998931	-0.074048	0.007950
O6	O	0.870105	-0.074039	-0.129397
O7	O	1.114648	-0.074044	-0.115121
Zn8	Zn	0.992374	-0.097550	-0.122262
Zn9	Zn	0.992401	0.097531	-0.122236
O10	O	0.985822	-0.074035	-0.252468
C11	C	0.838820	-0.000006	-0.128804
C12	C	0.745570	-0.000005	-0.127055
C13	C	0.509887	-0.000000	-0.207900
C14	C	0.459277	-0.073010	-0.164313
C15	C	0.574846	-0.000007	-0.123813
C16	C	0.459302	0.072970	-0.164274
C17	C	0.409933	-0.000005	-0.120688
C18	C	0.525464	-0.073076	-0.080249
C19	C	0.525492	0.072969	-0.080222
C20	C	0.474915	-0.000058	-0.036573
C21	C	0.669848	-0.000009	-0.125616
C22	C	0.314935	-0.000009	-0.118879
N23	N	0.992361	-0.230687	-0.122279
C24	C	0.932783	-0.470367	-0.185759
C25	C	1.008702	-0.529701	-0.203107
C26	C	0.992383	-0.412294	-0.122257
C27	C	0.916484	-0.529701	-0.104929
C28	C	0.992397	-0.587718	-0.122237
C29	C	1.068340	-0.470323	-0.139645
C30	C	0.976072	-0.470317	-0.041432
C31	C	1.052046	-0.529625	-0.058746
C32	C	0.992374	-0.311237	-0.122270
C33	C	0.992415	-0.688773	-0.122223
C34	C	1.145954	-0.000010	-0.115694
C35	C	1.239204	-0.000006	-0.117444
C36	C	0.998355	-0.000015	0.041283
C37	C	0.996598	-0.000015	0.140578
N38	N	0.992420	0.230669	-0.122212
C39	C	0.986419	-0.000001	-0.285782
C40	C	0.988176	0.000004	-0.385077
C41	C	1.072280	-0.000017	0.197902
C42	C	1.070624	-0.000008	0.291199
C43	C	0.993286	-0.000003	0.327171
C44	C	0.917599	0.000002	0.269840
C45	C	0.919255	-0.000001	0.176544
C46	C	0.914151	0.000005	0.464298
C47	C	0.912494	0.000006	0.557600
C48	C	1.065520	-0.000002	0.578953
C49	C	1.067177	-0.000004	0.485657
C50	C	0.991489	-0.000001	0.428333
H51	H	0.882433	-0.444348	-0.239503
C52	C	0.453918	-0.000119	0.061344
H53	H	0.476792	-0.052025	0.091066
H54	H	0.477594	0.051247	0.091426
H55	H	0.394404	0.000362	0.061945
H56	H	1.130152	-0.000014	0.456373
H57	H	1.135258	-0.000026	0.168622
H58	H	1.132546	-0.444350	-0.154375
C59	C	0.827427	0.000015	0.597172
H60	H	0.837283	0.000004	0.660946
H61	H	0.796269	0.051651	0.577504
H62	H	0.796251	-0.051622	0.577491
C63	C	0.420210	-0.156384	-0.212290
H64	H	0.392442	-0.190759	-0.171188
H65	H	0.380605	-0.138835	-0.261292
H66	H	0.463490	-0.191002	-0.233978
C67	C	1.148775	0.000011	0.642005
H68	H	1.136715	0.000027	0.702721
H69	H	1.180481	-0.051622	0.631107
H70	H	1.180485	0.051651	0.631098
H71	H	0.852518	0.000010	0.417626
H72	H	1.102509	-0.555481	-0.005033
C73	C	0.957387	-0.435042	0.050860
H74	H	0.903404	-0.455335	0.063074
H75	H	0.999177	-0.456212	0.096095
H76	H	0.958030	-0.371805	0.050339
H77	H	0.854628	0.000011	0.299135
H78	H	0.857627	0.000001	0.129871
H79	H	0.525580	-0.000065	-0.280332
C80	C	1.027351	-0.564953	-0.295426
H81	H	0.984949	-0.544671	-0.340488
H82	H	1.080863	-0.543753	-0.308171
H83	H	1.027726	-0.628190	-0.294577
C84	C	0.829769	-0.564927	-0.085129
H85	H	0.787487	-0.544624	-0.130308
H86	H	0.830541	-0.628159	-0.084715
H87	H	0.817773	-0.543708	-0.028152
H88	H	0.554250	-0.134861	-0.044767
H89	H	0.554413	0.134691	-0.044729
H90	H	0.430406	0.134685	-0.199794
H91	H	1.132252	-0.000011	0.337869
