data_functionalizedCrystal
_audit_creation_method	'MofGen! by Chris Wilmer'
_symmetry_space_group_name_H-M	'P1'
_symmetry_Int_Tables_number	1
_symmetry_cell_setting	triclinic
loop_
_symmetry_equiv_pos_as_xyz
  x,y,z
_cell_length_a	10.654545
_cell_length_b	10.908937
_cell_length_c	9.730223
_cell_angle_alpha	89.996360
_cell_angle_beta	89.997167
_cell_angle_gamma	72.284517
loop_
_atom_site_label
_atom_site_type_symbol
_atom_site_fract_x
_atom_site_fract_y
_atom_site_fract_z
O1	O	1.628717	0.179997	-0.114272
O2	O	1.259508	0.197154	-0.114278
O3	O	1.493054	0.002080	-0.114270
O4	O	1.395171	0.375071	-0.114280
O5	O	1.493042	0.002075	0.114310
O6	O	1.259497	0.197149	0.114302
O7	O	1.628706	0.179991	0.114308
Zn8	Zn	1.444099	0.188569	0.150597
Zn9	Zn	1.444114	0.188576	-0.150567
O10	O	1.395160	0.375065	0.114300
C11	C	1.212978	0.195893	0.000012
C12	C	1.074353	0.192127	0.000010
C13	C	1.009228	0.190352	0.124609
C14	C	0.878982	0.186793	0.124610
C15	C	0.878997	0.186790	-0.124601
C16	C	1.009243	0.190340	-0.124600
C17	C	1.502196	-0.045682	0.000018
C18	C	1.529437	-0.187992	0.000013
C19	C	1.458179	-0.384967	0.000008
C20	C	1.430021	-0.237883	0.000010
C21	C	1.675236	0.181252	0.000015
C22	C	1.813861	0.185018	0.000008
C23	C	1.386018	0.422828	0.000009
C24	C	1.358777	0.565137	0.000005
N25	N	1.444099	0.188564	0.356133
N26	N	1.444127	0.188572	-0.356103
C27	C	1.547534	0.102222	0.428063
C28	C	1.547546	0.102222	0.571946
C29	C	1.340682	0.274918	0.571957
C30	C	1.340666	0.274910	0.428077
H31	H	0.825968	0.185336	-0.226053
C32	C	1.080857	0.192281	0.261673
H33	H	1.023419	0.190694	0.335879
H34	H	1.106515	0.268269	0.266871
H35	H	1.156825	0.119036	0.266838
C36	C	0.807346	0.184848	0.261669
H37	H	0.864778	0.186431	0.335876
H38	H	0.781701	0.108852	0.266862
H39	H	0.731370	0.258084	0.266839
C40	C	1.080884	0.192298	-0.261666
H41	H	1.023449	0.190744	-0.335879
H42	H	1.156859	0.119072	-0.266840
H43	H	1.106524	0.268305	-0.266843
C44	C	1.226925	0.369903	0.651099
H45	H	1.241754	0.357553	0.747092
H46	H	1.146185	0.355191	0.627543
H47	H	1.222674	0.455578	0.627501
H48	H	1.631754	0.031911	0.369490
H49	H	1.631771	0.031913	0.630507
C50	C	1.226884	0.369894	0.348949
H51	H	1.165296	0.421333	0.412401
H52	H	1.184343	0.323286	0.292837
H53	H	1.260825	0.423678	0.292807
H54	H	1.324066	-0.171714	0.000019
H55	H	1.564127	-0.451140	0.000016
H56	H	1.252829	-0.368690	0.000013
C57	C	1.672575	-0.277367	0.000000
H58	H	1.672727	-0.364500	-0.000015
H59	H	1.716658	-0.261386	0.079706
H60	H	1.716640	-0.261367	-0.079726
