data_functionalizedCrystal
_audit_creation_method	'MofGen! by Chris Wilmer'
_symmetry_space_group_name_H-M	'P1'
_symmetry_Int_Tables_number	1
_symmetry_cell_setting	triclinic
loop_
_symmetry_equiv_pos_as_xyz
  x,y,z
_cell_length_a	16.625548
_cell_length_b	16.120484
_cell_length_c	16.120339
_cell_angle_alpha	89.785998
_cell_angle_beta	92.864476
_cell_angle_gamma	92.926626
loop_
_atom_site_label
_atom_site_type_symbol
_atom_site_fract_x
_atom_site_fract_y
_atom_site_fract_z
Zn1	Zn	1.193860	-0.306880	-0.486962
Zn2	Zn	1.443860	-0.056880	-0.236962
Zn3	Zn	1.693860	0.193120	0.013038
Zn4	Zn	1.943860	0.443120	0.263038
Zn5	Zn	1.193026	-0.453082	-0.354948
Zn6	Zn	1.443026	-0.203082	-0.104948
Zn7	Zn	1.693026	0.046918	0.145052
Zn8	Zn	1.943026	0.296918	0.395052
Zn9	Zn	1.065453	-0.314050	-0.347919
Zn10	Zn	1.315453	-0.064050	-0.097919
Zn11	Zn	1.565453	0.185950	0.152081
Zn12	Zn	1.815453	0.435950	0.402081
Zn13	Zn	1.051827	-0.445897	-0.493959
Zn14	Zn	1.301827	-0.195897	-0.243959
Zn15	Zn	1.551827	0.054103	0.006041
Zn16	Zn	1.801827	0.304103	0.256041
O17	O	1.126042	-0.379977	-0.420947
O18	O	1.376042	-0.129977	-0.170947
O19	O	1.626042	0.120023	0.079053
O20	O	1.876042	0.370023	0.329053
O21	O	1.306581	-0.326280	-0.469463
O22	O	1.556581	-0.076280	-0.219463
O23	O	1.806581	0.173720	0.030537
O24	O	2.056581	0.423720	0.280537
O25	O	1.181457	-0.440647	-0.237649
O26	O	1.431457	-0.190647	0.012351
O27	O	1.681457	0.059353	0.262351
O28	O	1.931457	0.309353	0.512351
O29	O	1.088538	-0.196735	-0.360494
O30	O	1.338538	0.053265	-0.110494
O31	O	1.588538	0.303265	0.139506
O32	O	1.838538	0.553265	0.389506
O33	O	1.305968	-0.433694	-0.372473
O34	O	1.555968	-0.183694	-0.122473
O35	O	1.805968	0.066306	0.127527
O36	O	2.055968	0.316306	0.377527
O37	O	1.182879	-0.191466	-0.462648
O38	O	1.432879	0.058534	-0.212648
O39	O	1.682879	0.308534	0.037352
O40	O	1.932879	0.558534	0.287352
O41	O	1.087729	-0.338501	-0.232485
O42	O	1.337729	-0.088501	0.017515
O43	O	1.587729	0.161499	0.267515
O44	O	1.837729	0.411499	0.517515
O45	O	0.950814	-0.331534	-0.367279
O46	O	1.200814	-0.081534	-0.117279
O47	O	1.450814	0.168466	0.132721
O48	O	1.700814	0.418466	0.382721
O49	O	1.065314	-0.421448	-0.609397
O50	O	1.315314	-0.171448	-0.359397
O51	O	1.565314	0.078552	-0.109397
O52	O	1.815314	0.328552	0.140603
O53	O	0.940803	-0.428401	-0.474573
O54	O	1.190803	-0.178401	-0.224573
O55	O	1.440803	0.071599	0.025427
O56	O	1.690803	0.321599	0.275427
O57	O	1.169666	-0.319312	-0.604256
O58	O	1.419666	-0.069312	-0.354256
O59	O	1.669666	0.180688	-0.104256
O60	O	1.919666	0.430688	0.145744
O61	O	1.168244	-0.568494	-0.379258
O62	O	1.418244	-0.318494	-0.129258
O63	O	1.668244	-0.068494	0.120742
O64	O	1.918244	0.181506	0.370742
O65	O	1.064506	-0.563215	-0.481388
O66	O	1.314506	-0.313215	-0.231388
O67	O	1.564506	-0.063215	0.018612
O68	O	1.814506	0.186785	0.268612
C69	C	0.916553	-0.379967	-0.420923
C70	C	1.166553	-0.129967	-0.170923
C71	C	1.416553	0.120033	0.079077
C72	C	1.666553	0.370033	0.329077
C73	C	0.826930	-0.379981	-0.420934
C74	C	1.076930	-0.129981	-0.170934
C75	C	1.326930	0.120019	0.079066
C76	C	1.576930	0.370019	0.329066
C77	C	0.498753	-0.379985	-0.420969
C78	C	0.748753	-0.129985	-0.170969
C79	C	0.998753	0.120015	0.079031
C80	C	1.248753	0.370015	0.329031
C81	C	0.590062	-0.379981	-0.420957
C82	C	0.840062	-0.129981	-0.170957
C83	C	1.090062	0.120019	0.079043
C84	C	1.340062	0.370019	0.329043
C85	C	0.662838	-0.379983	-0.420951
C86	C	0.912838	-0.129983	-0.170951
C87	C	1.162838	0.120017	0.079049
C88	C	1.412838	0.370017	0.329049
C89	C	0.754154	-0.379979	-0.420939
C90	C	1.004154	-0.129979	-0.170939
C91	C	1.254154	0.120021	0.079061
C92	C	1.504154	0.370021	0.329061
C93	C	1.114827	-0.596025	-0.431863
C94	C	1.364827	-0.346025	-0.181863
C95	C	1.614827	-0.096025	0.068137
C96	C	1.864827	0.153975	0.318137
C97	C	1.110102	-0.688450	-0.436561
C98	C	1.360102	-0.438450	-0.186561
C99	C	1.610102	-0.188450	0.063439
C100	C	1.860102	0.061550	0.313439
C101	C	1.101478	-0.857670	-0.445155
C102	C	1.351478	-0.607670	-0.195155
C103	C	1.601478	-0.357670	0.054845
C104	C	1.851478	-0.107670	0.304845
C105	C	1.150749	-0.901443	-0.396752
C106	C	1.400749	-0.651443	-0.146752
C107	C	1.650749	-0.401443	0.103248
C108	C	1.900749	-0.151443	0.353248
C109	C	1.145951	-0.995603	-0.401534
C110	C	1.395951	-0.745603	-0.151534
C111	C	1.645951	-0.495603	0.098466
C112	C	1.895951	-0.245603	0.348466
C113	C	1.106275	-0.763502	-0.440374
C114	C	1.356275	-0.513502	-0.190374
C115	C	1.606275	-0.263502	0.059626
C116	C	1.856275	-0.013502	0.309626
C117	C	1.336349	-0.379989	-0.420971
C118	C	1.586349	-0.129989	-0.170971
C119	C	1.836349	0.120011	0.079029
C120	C	2.086349	0.370011	0.329029
C121	C	1.425969	-0.379993	-0.420982
C122	C	1.675969	-0.129993	-0.170982
C123	C	1.925969	0.120007	0.079018
C124	C	2.175969	0.370007	0.329018
C125	C	1.116063	-0.368779	-0.637843
C126	C	1.366063	-0.118779	-0.387843
C127	C	1.616063	0.131221	-0.137843
C128	C	1.866063	0.381221	0.112157
C129	C	1.111811	-0.364007	-0.730271
C130	C	1.361811	-0.114007	-0.480271
C131	C	1.611811	0.135993	-0.230271
C132	C	1.861811	0.385993	0.019729
C133	C	1.137321	-0.163085	-0.410006
C134	C	1.387321	0.086915	-0.160006
C135	C	1.637321	0.336915	0.089994
C136	C	1.887321	0.586915	0.339994
C137	C	1.142128	-0.070658	-0.405344
C138	C	1.392128	0.179342	-0.155344
C139	C	1.642128	0.429342	0.094656
C140	C	1.892128	0.679342	0.344656
C141	C	1.136031	-0.391072	-0.204892
C142	C	1.386031	-0.141072	0.045108
C143	C	1.636031	0.108928	0.295108
C144	C	1.886031	0.358928	0.545108
C145	C	1.140451	-0.395610	-0.112453
C146	C	1.390451	-0.145610	0.137547
C147	C	1.640451	0.104390	0.387547
C148	C	1.890451	0.354390	0.637547
C149	C	1.103737	-0.355727	0.100481
C150	C	1.353737	-0.105727	0.350481
C151	C	1.603737	0.144273	0.600481
C152	C	1.853737	0.394273	0.850481
C153	C	1.148523	-0.403887	0.056790
C154	C	1.398523	-0.153887	0.306790
C155	C	1.648523	0.096113	0.556790
C156	C	1.898523	0.346113	0.806790
C157	C	1.144031	-0.399280	-0.037385
C158	C	1.394031	-0.149280	0.212615
C159	C	1.644031	0.100720	0.462615
C160	C	1.894031	0.350720	0.712615
C161	C	1.108228	-0.360333	0.194665
C162	C	1.358228	-0.110333	0.444665
C163	C	1.608228	0.139667	0.694665
C164	C	1.858228	0.389667	0.944665
H165	H	1.055696	-0.890910	-0.490181
H166	H	1.305696	-0.640910	-0.240181
H167	H	1.555696	-0.390910	0.009819
H168	H	1.805696	-0.140910	0.259819
C169	C	1.204877	-0.464268	0.101797
C170	C	1.454877	-0.214268	0.351797
C171	C	1.704877	0.035732	0.601797
C172	C	1.954877	0.285732	0.851797
H173	H	1.232390	-0.493876	0.061999
H174	H	1.482390	-0.243876	0.311999
H175	H	1.732390	0.006124	0.561999
H176	H	1.982390	0.256124	0.811999
H177	H	1.173983	-0.502356	0.134000
H178	H	1.423983	-0.252356	0.384000
H179	H	1.673983	-0.002356	0.634000
H180	H	1.923983	0.247644	0.884000
H181	H	1.243036	-0.433813	0.137154
H182	H	1.493036	-0.183813	0.387154
H183	H	1.743036	0.066187	0.637154
H184	H	1.993036	0.316187	0.887154
C185	C	1.212579	-0.856543	-0.335896
C186	C	1.462579	-0.606543	-0.085896
C187	C	1.712579	-0.356543	0.164104
C188	C	1.962579	-0.106543	0.414104
H189	H	1.207721	-0.798230	-0.340610
H190	H	1.457721	-0.548230	-0.090610
H191	H	1.707721	-0.298230	0.159390
H192	H	1.957721	-0.048230	0.409390
H193	H	1.265487	-0.870028	-0.348795
H194	H	1.515487	-0.620028	-0.098795
H195	H	1.765487	-0.370028	0.151205
H196	H	2.015487	-0.120028	0.401205
H197	H	1.202654	-0.873661	-0.280727
H198	H	1.452654	-0.623661	-0.030727
H199	H	1.702654	-0.373661	0.219273
H200	H	1.952654	-0.123661	0.469273
C201	C	1.047377	-0.295364	0.055470
C202	C	1.297377	-0.045364	0.305470
C203	C	1.547377	0.204636	0.555470
C204	C	1.797377	0.454636	0.805470
H205	H	1.051709	-0.300158	-0.002839
H206	H	1.301709	-0.050158	0.247161
H207	H	1.551709	0.199842	0.497161
H208	H	1.801709	0.449842	0.747161
H209	H	1.062339	-0.240074	0.072306
H210	H	1.312339	0.009926	0.322306
H211	H	1.562339	0.259926	0.572306
H212	H	1.812339	0.509926	0.822306
H213	H	0.993302	-0.308635	0.069157
H214	H	1.243302	-0.058635	0.319157
H215	H	1.493302	0.191365	0.569157
H216	H	1.743302	0.441365	0.819157
