data_functionalizedCrystal
_audit_creation_method	'MofGen! by Chris Wilmer'
_symmetry_space_group_name_H-M	'P1'
_symmetry_Int_Tables_number	1
_symmetry_cell_setting	triclinic
loop_
_symmetry_equiv_pos_as_xyz
  x,y,z
_cell_length_a	10.540539
_cell_length_b	7.540329
_cell_length_c	9.065218
_cell_angle_alpha	90.003038
_cell_angle_beta	95.229312
_cell_angle_gamma	89.998539
loop_
_atom_site_label
_atom_site_type_symbol
_atom_site_fract_x
_atom_site_fract_y
_atom_site_fract_z
O1	O	0.186143	-0.147478	-1.959469
O2	O	0.201412	-0.147479	-1.530108
O3	O	0.009107	-0.147476	-1.754584
O4	O	0.378448	-0.147481	-1.734993
O5	O	0.009105	0.147489	-1.754570
O6	O	0.201409	0.147486	-1.530094
O7	O	0.186141	0.147487	-1.959455
Cu8	Cu	0.193775	0.174419	-1.744773
Cu9	Cu	0.193778	-0.174411	-1.744789
O10	O	0.378445	0.147484	-1.734979
C11	C	-0.038202	0.000003	-1.753108
C12	C	-0.179167	-0.000007	-1.748712
C13	C	0.199943	0.000003	-1.475122
C14	C	0.195556	0.000002	-1.311301
N15	N	0.193772	0.419768	-1.744773
C16	C	-0.363216	-0.000669	-1.580278
C17	C	-0.216582	-0.000005	-1.584734
C18	C	-0.240534	0.168433	-1.827618
C19	C	-0.387099	0.168575	-1.822022
C20	C	-0.387602	-0.166855	-1.825372
C21	C	-0.240615	-0.169082	-1.826883
C22	C	0.425755	0.000001	-1.736455
C23	C	0.566719	-0.000001	-1.740851
N24	N	0.193771	-0.419760	-1.744801
C25	C	0.187610	0.000001	-2.014441
C26	C	0.191997	-0.000009	-2.178262
H27	H	-0.174207	-0.120750	-1.522646
H28	H	-0.434632	0.176217	-1.939952
Br29	Br	-0.169878	0.377361	-1.736248
H30	H	-0.199969	-0.293689	-1.769148
Br31	Br	-0.440498	-0.379644	-1.736913
Br32	Br	-0.411275	-0.202001	-1.472314
Br33	Br	-0.202542	0.178883	-2.028331
Br34	Br	-0.199500	-0.186054	-2.026146
H35	H	-0.175058	0.120940	-1.522200
Br36	Br	-0.434469	0.378432	-1.724803
H37	H	-0.434390	-0.167987	-1.943813
H38	H	-0.393663	0.119445	-1.515761
