data_functionalizedCrystal
_audit_creation_method	'MofGen! by Chris Wilmer'
_symmetry_space_group_name_H-M	'P1'
_symmetry_Int_Tables_number	1
_symmetry_cell_setting	triclinic
loop_
_symmetry_equiv_pos_as_xyz
  x,y,z
_cell_length_a	19.288862
_cell_length_b	7.540329
_cell_length_c	19.288865
_cell_angle_alpha	89.991187
_cell_angle_beta	83.135763
_cell_angle_gamma	89.980393
loop_
_atom_site_label
_atom_site_type_symbol
_atom_site_fract_x
_atom_site_fract_y
_atom_site_fract_z
O1	O	-0.921348	0.148187	-0.086639
O2	O	-0.719087	0.148043	-0.098329
O3	O	-0.826062	0.148084	0.008646
O4	O	-0.814373	0.148146	-0.193614
O5	O	-0.826056	-0.146881	0.008648
O6	O	-0.719081	-0.146922	-0.098328
O7	O	-0.921342	-0.146778	-0.086638
Cu8	Cu	-0.820211	-0.173783	-0.092483
Cu9	Cu	-0.820218	0.175047	-0.092484
O10	O	-0.814367	-0.146819	-0.193613
C11	C	-0.693207	0.000541	-0.097953
C12	C	-0.616104	0.000485	-0.096824
N13	N	-0.820210	-0.419131	-0.092481
C14	C	-0.571407	0.000527	-0.159593
C15	C	-0.498960	0.000537	-0.158533
C16	C	-0.471213	0.000541	-0.094701
C17	C	-0.515919	0.000489	-0.031924
C18	C	-0.588364	0.000461	-0.032986
C19	C	-0.362953	0.103911	-0.044523
C20	C	-0.290508	0.103950	-0.043464
C21	C	-0.247767	0.000619	-0.091423
C22	C	-0.277477	-0.102727	-0.140453
C23	C	-0.349923	-0.102755	-0.141515
C24	C	-0.392659	0.000570	-0.093542
C25	C	-0.124514	0.000670	-0.153046
C26	C	-0.052066	0.000669	-0.151983
C27	C	-0.069026	0.000639	-0.025373
C28	C	-0.141473	0.000622	-0.026438
C29	C	-0.169212	0.000646	-0.090276
C30	C	0.052779	0.000696	-0.087016
C31	C	-0.024324	0.000670	-0.088151
C32	C	-0.825683	0.000596	0.034523
C33	C	-0.824554	0.000579	0.111627
N34	N	-0.820224	0.420396	-0.092480
C35	C	-0.814746	0.000673	-0.219490
C36	C	-0.815875	0.000701	-0.296594
C37	C	-0.887322	0.000615	0.156324
C38	C	-0.886261	0.000643	0.228771
C39	C	-0.822429	0.000598	0.256518
C40	C	-0.759652	0.000572	0.211811
C41	C	-0.760715	0.000563	0.139366
C42	C	-0.772247	-0.102757	0.364805
C43	C	-0.771187	-0.102759	0.437250
C44	C	-0.819149	0.000636	0.479963
C45	C	-0.868183	0.104009	0.450225
C46	C	-0.869245	0.103999	0.377780
C47	C	-0.821269	0.000610	0.335072
C48	C	-0.880771	0.000704	0.603216
C49	C	-0.879708	0.000742	0.675664
C50	C	-0.753098	0.000654	0.658703
C51	C	-0.754163	0.000634	0.586257
C52	C	-0.818001	0.000650	0.558518
H53	H	-0.462561	0.000566	-0.209648
N54	N	-0.485988	0.000498	0.036920
H55	H	-0.502325	0.109826	0.064412
H56	H	-0.502286	-0.108934	0.064354
N57	N	-0.039105	0.000626	0.043473
H58	H	-0.009445	0.109977	0.046737
H59	H	-0.078454	0.000533	0.083038
H60	H	-0.930823	0.000781	0.712056
N61	N	-0.684245	0.000586	0.688613
H62	H	-0.656756	0.109905	0.672289
H63	H	-0.693148	0.000529	0.741286
H64	H	-0.624757	0.000428	0.018129
N65	N	-0.231395	-0.214195	-0.192189
H66	H	-0.197354	-0.135029	-0.221581
H67	H	-0.204788	-0.302561	-0.166192
N68	N	-0.686463	0.000584	0.538042
H69	H	-0.645863	0.000559	0.566610
H70	H	-0.684144	-0.108769	0.507624
H71	H	-0.374110	-0.186909	-0.181435
H72	H	-0.939304	0.000635	0.133744
N73	N	-0.953963	0.000685	0.276992
H74	H	-0.994564	0.000697	0.248426
H75	H	-0.956270	-0.108659	0.307426
N76	N	-0.189684	0.000617	0.041264
H77	H	-0.239788	0.000601	0.030906
H78	H	-0.180705	-0.108729	0.069096
H79	H	-0.731258	-0.186921	0.461456
N80	N	-0.258470	0.215410	0.009418
H81	H	-0.232390	0.136249	0.039686
H82	H	-0.225049	0.303799	-0.015697
N83	N	-0.922125	0.215487	0.345703
H84	H	-0.952350	0.280992	0.383750
H85	H	-0.897006	0.303729	0.312214
N86	N	-0.693008	0.000497	0.091159
H87	H	-0.690626	-0.108861	0.060736
H88	H	-0.690665	0.109899	0.060756
H89	H	-0.147101	0.000663	-0.205027
N90	N	-0.003854	0.000573	-0.219687
H91	H	-0.032423	0.000545	-0.260286
H92	H	0.026580	0.109886	-0.222035
N93	N	-0.919921	0.215531	0.496284
H94	H	-0.911807	0.199864	0.546690
H95	H	-0.913616	0.344422	0.482737
H96	H	-0.397748	0.188065	-0.005467
N97	N	-0.949621	0.000729	0.573291
H98	H	-0.989225	0.000771	0.612603
H99	H	-0.952821	0.110069	0.543590
H100	H	-0.733189	-0.186963	0.330033
H101	H	-0.707680	0.000540	0.234407
H102	H	-0.593988	0.000550	-0.211575
