data_functionalizedCrystal
_audit_creation_method	'MofGen! by Chris Wilmer'
_symmetry_space_group_name_H-M	'P1'
_symmetry_Int_Tables_number	1
_symmetry_cell_setting	triclinic
loop_
_symmetry_equiv_pos_as_xyz
  x,y,z
_cell_length_a	14.519709
_cell_length_b	17.699083
_cell_length_c	12.996460
_cell_angle_alpha	89.992964
_cell_angle_beta	90.000034
_cell_angle_gamma	83.481580
loop_
_atom_site_label
_atom_site_type_symbol
_atom_site_fract_x
_atom_site_fract_y
_atom_site_fract_z
O1	O	-1.223447	-0.099215	0.085435
O2	O	-0.723447	0.400785	0.585435
O3	O	-0.954920	-0.110899	0.085467
O4	O	-0.454920	0.389101	0.585467
O5	O	-1.096770	0.005111	0.085441
O6	O	-0.596770	0.505111	0.585441
O7	O	-1.081597	-0.215224	0.085461
O8	O	-0.581597	0.284776	0.585461
O9	O	-1.096756	0.005117	-0.085693
O10	O	-0.596756	0.505117	0.414307
O11	O	-0.954906	-0.110892	-0.085667
O12	O	-0.454906	0.389108	0.414333
O13	O	-1.223432	-0.099209	-0.085699
O14	O	-0.723432	0.400791	0.414301
Cu15	Cu	-1.089168	-0.105050	-0.101309
Cu16	Cu	-0.589168	0.394950	0.398691
Cu17	Cu	-1.089185	-0.105057	0.101077
Cu18	Cu	-0.589185	0.394943	0.601077
O19	O	-1.081583	-0.215218	-0.085673
O20	O	-0.581583	0.284782	0.414327
C21	C	-1.096219	0.033312	-0.000126
C22	C	-0.596219	0.533312	0.499874
C23	C	-1.094588	0.117335	-0.000126
C24	C	-0.594588	0.617335	0.499874
C25	C	-0.920556	-0.110351	-0.000096
C26	C	-0.420556	0.389649	0.499904
C27	C	-0.818181	-0.108719	-0.000084
C28	C	-0.318181	0.391281	0.499916
C29	C	-1.257797	-0.099756	-0.000134
C30	C	-0.757797	0.400244	0.499866
C31	C	-1.360171	-0.101388	-0.000139
C32	C	-0.860171	0.398612	0.499861
C33	C	-0.443311	-0.102712	-0.000132
C34	C	0.056689	0.397288	0.499868
C35	C	-0.547612	-0.104380	-0.000118
C36	C	-0.047612	0.395620	0.499882
C37	C	-0.630743	-0.105716	-0.000107
C38	C	-0.130743	0.394284	0.499893
C39	C	-0.735050	-0.107384	-0.000096
C40	C	-0.235050	0.392616	0.499904
C41	C	-1.082134	-0.243420	-0.000104
C42	C	-0.582134	0.256580	0.499896
C43	C	-1.083765	-0.327442	-0.000097
C44	C	-0.583765	0.172558	0.499903
N45	N	-1.089162	-0.105044	-0.243656
N46	N	-0.589162	0.394956	0.256344
C47	C	-1.177851	0.165718	-0.000138
C48	C	-0.677851	0.665718	0.499862
C49	C	-1.176313	0.244665	-0.000128
C50	C	-0.676313	0.744665	0.499872
C51	C	-1.091511	0.275229	-0.000115
C52	C	-0.591511	0.775229	0.499885
C53	C	-1.008242	0.226840	-0.000101
C54	C	-0.508242	0.726840	0.499899
C55	C	-1.009781	0.147894	-0.000103
C56	C	-0.509781	0.647894	0.499897
C57	C	-1.002033	0.545221	-0.000092
C58	C	-0.502033	1.045221	0.499908
C59	C	-1.000501	0.624173	-0.000093
C60	C	-0.500501	1.124173	0.499907
C61	C	-1.168566	0.641992	-0.000117
C62	C	-0.668566	1.141992	0.499883
C63	C	-1.170105	0.563046	-0.000119
C64	C	-0.670105	1.063046	0.499881
C65	C	-1.086836	0.514664	-0.000099
C66	C	-0.586836	1.014664	0.499901
C67	C	-1.088505	0.429060	-0.000108
C68	C	-0.588505	0.929060	0.499892
C69	C	-1.089841	0.360831	-0.000114
C70	C	-0.589841	0.860831	0.499886
C71	C	-1.089184	-0.105058	-0.663470
C72	C	-0.589184	0.394942	-0.163470
C73	C	-1.089175	-0.105057	-0.546665
C74	C	-0.589175	0.394943	-0.046665
C75	C	-1.089173	-0.105052	-0.453567
C76	C	-0.589173	0.394948	0.046433
C77	C	-1.089164	-0.105049	-0.336754
C78	C	-0.589164	0.394951	0.163246
N79	N	-1.089198	-0.105057	0.243424
N80	N	-0.589198	0.394943	0.743424
H81	H	-1.244114	0.284056	-0.000140
H82	H	-0.744114	0.784056	0.499860
O83	O	-0.909031	0.657140	-0.000081
O84	O	-0.409031	1.157140	0.499919
H85	H	-0.904326	0.692685	0.069664
H86	H	-0.404326	1.192685	0.569664
H87	H	-0.934231	0.505837	-0.000076
H88	H	-0.434231	1.005837	0.499924
H89	H	-0.939195	0.251731	-0.000084
H90	H	-0.439195	0.751731	0.499916
H91	H	-1.239159	0.538166	-0.000135
H92	H	-0.739159	1.038166	0.499865
O93	O	-1.258380	0.694178	-0.000137
O94	O	-0.758380	1.194178	0.499863
H95	H	-1.298987	0.683287	0.069599
H96	H	-0.798987	1.183287	0.569599
H97	H	-0.941980	0.108501	-0.000093
H98	H	-0.441980	0.608501	0.499907
H99	H	-1.246907	0.140840	-0.000155
H100	H	-0.746907	0.640840	0.499845
