data_functionalizedCrystal
_audit_creation_method	'MofGen! by Chris Wilmer'
_symmetry_space_group_name_H-M	'P1'
_symmetry_Int_Tables_number	1
_symmetry_cell_setting	triclinic
loop_
_symmetry_equiv_pos_as_xyz
  x,y,z
_cell_length_a	14.044191
_cell_length_b	12.503572
_cell_length_c	10.654551
_cell_angle_alpha	86.440861
_cell_angle_beta	88.838603
_cell_angle_gamma	93.837835
loop_
_atom_site_label
_atom_site_type_symbol
_atom_site_fract_x
_atom_site_fract_y
_atom_site_fract_z
O1	O	1.265120	0.089261	0.296375
O2	O	0.989079	0.089274	0.285432
O3	O	1.133446	0.089265	0.108802
O4	O	1.120754	0.089270	0.473004
O5	O	1.122589	-0.089376	0.122110
O6	O	0.978222	-0.089367	0.298739
O7	O	1.254263	-0.089381	0.309683
Cu8	Cu	1.115251	-0.105685	0.305426
Cu9	Cu	1.128091	0.105579	0.289688
O10	O	1.109897	-0.089371	0.486312
C11	C	0.948305	-0.000044	0.287298
C12	C	0.842985	-0.000039	0.273019
C13	C	0.593193	-0.000049	0.348185
C14	C	0.650156	-0.000048	0.246935
C15	C	0.757456	-0.000043	0.261451
C16	C	0.485883	-0.000054	0.333670
N17	N	1.106227	-0.254277	0.316495
C18	C	1.092953	-0.473391	0.332789
C19	C	1.150394	-0.526722	0.262320
C20	C	1.143008	-0.648645	0.271386
C21	C	1.100338	-0.351457	0.323724
C22	C	1.295038	-0.000060	0.307816
C23	C	1.400358	-0.000058	0.322095
C24	C	1.127085	-0.000054	0.068564
C25	C	1.124296	-0.000049	-0.071159
N26	N	1.137122	0.254170	0.278610
C27	C	1.128906	0.097329	-0.144049
C28	C	1.126277	0.097331	-0.275334
C29	C	1.114434	-0.097434	-0.260827
C30	C	1.117056	-0.097434	-0.129545
C31	C	1.116257	-0.000050	0.526550
C32	C	1.119047	-0.000048	0.666273
H33	H	1.205118	-0.480813	0.195182
C34	C	1.020046	-0.534456	0.422509
C35	C	1.038016	-0.507174	0.545701
C36	C	0.970869	-0.563407	0.628383
H37	H	1.024650	-0.609470	0.416953
H38	H	0.957699	-0.516074	0.400596
H39	H	1.100348	-0.525563	0.567608
H40	H	1.033405	-0.432169	0.551298
H41	H	0.908521	-0.545025	0.606470
H42	H	0.975478	-0.638419	0.622816
H43	H	0.983047	-0.544897	0.711977
C44	C	1.136711	0.203170	-0.080889
C45	C	1.140158	0.288449	-0.172827
C46	C	1.147332	0.385968	-0.114695
H47	H	1.193192	0.207371	-0.033372
H48	H	1.082742	0.207279	-0.026618
H49	H	1.194122	0.284342	-0.227076
H50	H	1.083683	0.284284	-0.220350
H51	H	1.093363	0.390077	-0.060424
H52	H	1.203813	0.390158	-0.067179
H53	H	1.149663	0.443841	-0.177065
C54	C	1.131086	0.203024	-0.354524
C55	C	1.048449	0.208738	-0.425287
C56	C	1.052838	0.306097	-0.498239
H57	H	1.185465	0.207171	-0.409538
H58	H	1.135723	0.261051	-0.300984
H59	H	1.043822	0.150728	-0.478822
H60	H	0.994058	0.204610	-0.370305
H61	H	1.057475	0.364123	-0.444699
H62	H	1.107220	0.310235	-0.553245
H63	H	0.996767	0.309991	-0.546252
H64	H	0.618343	0.000026	0.149343
H65	H	1.108541	-0.176721	-0.308381
C66	C	0.635797	0.000019	0.478187
C67	C	0.735299	0.000053	0.466915
C68	C	0.774591	0.000134	0.586642
H69	H	0.611627	-0.062256	0.527310
H70	H	0.619135	0.062344	0.517920
H71	H	0.751952	-0.062266	0.427201
H72	H	0.759495	0.062324	0.417814
H73	H	0.757929	0.062459	0.626375
H74	H	0.750414	-0.062143	0.635756
H75	H	0.842107	0.000167	0.579010
H76	H	1.113296	-0.176736	-0.070195
