data_functionalizedCrystal
_audit_creation_method	'MofGen! by Chris Wilmer'
_symmetry_space_group_name_H-M	'P1'
_symmetry_Int_Tables_number	1
_symmetry_cell_setting	triclinic
loop_
_symmetry_equiv_pos_as_xyz
  x,y,z
_cell_length_a	21.295417
_cell_length_b	12.759395
_cell_length_c	12.759387
_cell_angle_alpha	89.979491
_cell_angle_beta	90.038536
_cell_angle_gamma	89.967956
loop_
_atom_site_label
_atom_site_type_symbol
_atom_site_fract_x
_atom_site_fract_y
_atom_site_fract_z
Zn1	Zn	-0.250550	-1.606153	0.593949
Zn2	Zn	-0.355833	-1.605995	0.418245
Zn3	Zn	-0.250585	-1.430451	0.418285
Zn4	Zn	-0.355788	-1.430395	0.593884
O5	O	-0.303189	-1.518249	0.506091
O6	O	-0.264521	-1.753153	0.570651
O7	O	-0.341905	-1.582667	0.271229
O8	O	-0.162491	-1.453848	0.441631
O9	O	-0.341871	-1.753037	0.441563
O10	O	-0.162465	-1.582936	0.570690
O11	O	-0.264579	-1.453695	0.271259
O12	O	-0.264536	-1.283423	0.441569
O13	O	-0.341795	-1.453753	0.740914
O14	O	-0.341828	-1.283382	0.570581
O15	O	-0.264477	-1.582881	0.740961
O16	O	-0.443917	-1.582612	0.441501
O17	O	-0.443884	-1.453600	0.570542
C18	C	-0.466741	-1.518111	0.506033
C19	C	-0.536709	-1.518148	0.506043
C20	C	-0.303181	-1.245281	0.506073
C21	C	-0.303193	-1.128505	0.506090
C22	C	-0.303127	-1.518328	0.780125
C23	C	-0.303101	-1.518362	0.896901
C24	C	-0.569572	-1.585385	0.438920
C25	C	-0.635314	-1.585434	0.438944
C26	C	-0.668191	-1.518228	0.506079
C27	C	-0.635320	-1.450987	0.573215
C28	C	-0.569579	-1.450947	0.573197
N29	N	-0.771458	-1.426321	0.514083
N30	N	-0.833909	-1.426362	0.514094
C31	C	-0.866266	-1.518346	0.506139
N32	N	-0.833812	-1.610289	0.498153
N33	N	-0.771355	-1.610247	0.498137
C34	C	-0.739477	-1.518264	0.506107
C35	C	-0.970414	-1.585641	0.439039
C36	C	-1.036158	-1.585692	0.439070
C37	C	-1.036163	-1.451236	0.573336
C38	C	-0.970421	-1.451194	0.573310
C39	C	-0.937550	-1.518395	0.506156
C40	C	-0.138999	-1.518416	0.506172
C41	C	-0.069031	-1.518487	0.506207
C42	C	-0.303197	-1.792282	0.506110
C43	C	-0.303201	-1.909059	0.506118
C44	C	-0.383808	-1.128500	0.640213
C45	C	-0.424121	-1.073637	0.707277
C46	C	-0.424129	-0.963916	0.707290
C47	C	-0.383818	-0.909055	0.640233
C48	C	-0.343506	-0.963918	0.573169
C49	C	-0.343504	-1.073642	0.573161
C50	C	-0.262888	-0.963922	0.439053
C51	C	-0.262883	-1.073644	0.439034
C52	C	-0.222578	-0.909061	0.371997
C53	C	-0.182267	-0.963924	0.304926
C54	C	-0.182262	-1.073652	0.304915
C55	C	-0.222570	-1.128507	0.371969
C56	C	-0.303205	-1.518230	0.233123
C57	C	-0.303054	-1.518400	0.116347
C58	C	-0.222595	-1.652833	0.896970
C59	C	-0.182333	-1.720083	0.951865
C60	C	-0.182310	-1.720108	1.061587
C61	C	-0.222552	-1.652874	1.116416
C62	C	-0.262815	-1.585624	1.061521
C63	C	-0.262835	-1.585608	0.951797
C64	C	-0.343316	-1.451150	1.061452
C65	C	-0.343344	-1.451128	0.951730
C66	C	-0.383559	-1.383916	1.116281
C67	C	-0.423825	-1.316670	1.061386
C68	C	-0.423847	-1.316648	0.951657
C69	C	-0.383606	-1.383878	0.896835
H70	H	-0.542810	-1.640107	0.384242
H71	H	-0.662076	-1.640190	0.384284
N72	N	-0.383809	-1.246842	0.640197
H73	H	-0.340641	-1.273323	0.659647
H74	H	-0.395350	-1.273139	0.568067
H75	H	-0.456584	-1.261928	1.106036
H76	H	-0.149567	-1.774821	0.907212
H77	H	-0.456627	-1.261873	0.906968
N78	N	-0.934973	-1.378655	0.645692
H79	H	-0.888338	-1.388827	0.635493
H80	H	-0.946416	-1.394972	0.720745
N81	N	-0.467610	-0.904731	0.779613
H82	H	-0.442067	-0.859247	0.828385
H83	H	-0.493137	-0.956192	0.822022
H84	H	-0.662093	-1.396269	0.627879
N85	N	-0.383539	-1.383949	1.234623
H86	H	-0.415141	-1.331155	1.261024
H87	H	-0.340329	-1.364730	1.260997
N88	N	-0.383635	-1.383838	0.778493
H89	H	-0.395219	-1.455886	0.752057
H90	H	-0.340446	-1.364525	0.752171
H91	H	-1.062931	-1.396520	0.628003
H92	H	-0.542822	-1.396194	0.627858
N93	N	-0.934951	-1.658122	0.366624
H94	H	-0.946440	-1.641856	0.291546
H95	H	-0.946351	-1.733160	0.383102
N96	N	-1.071607	-1.658221	0.366675
H97	H	-1.040805	-1.700782	0.324132
H98	H	-1.098933	-1.615494	0.318031
H99	H	-0.222571	-1.217848	0.371964
N100	N	-0.383824	-0.790713	0.640246
H101	H	-0.415478	-0.764282	0.692906
H102	H	-0.395325	-0.764332	0.568101
H103	H	-0.222584	-0.819720	0.372017
N104	N	-0.222631	-1.652792	0.778628
H105	H	-0.234218	-1.724839	0.752194
H106	H	-0.179445	-1.633479	0.752296
H107	H	-0.222525	-1.652892	1.205757
N108	N	-0.467599	-1.132807	0.779596
H109	H	-0.461482	-1.210640	0.769412
H110	H	-0.512544	-1.113579	0.763092
H111	H	-0.149447	-0.919247	0.250339
H112	H	-0.149430	-1.118315	0.250310
N113	N	-0.138880	-1.792630	1.120803
H114	H	-0.113388	-1.835216	1.069426
H115	H	-0.164499	-1.841229	1.166322
