data_functionalizedCrystal
_audit_creation_method	'MofGen! by Chris Wilmer'
_symmetry_space_group_name_H-M	'P1'
_symmetry_Int_Tables_number	1
_symmetry_cell_setting	triclinic
loop_
_symmetry_equiv_pos_as_xyz
  x,y,z
_cell_length_a	14.044220
_cell_length_b	10.908937
_cell_length_c	9.482900
_cell_angle_alpha	83.036371
_cell_angle_beta	79.809077
_cell_angle_gamma	103.362583
loop_
_atom_site_label
_atom_site_type_symbol
_atom_site_fract_x
_atom_site_fract_y
_atom_site_fract_z
O1	O	0.161475	1.705365	-0.120940
O2	O	0.661475	2.205365	0.379060
O3	O	0.088769	1.339831	-0.120932
O4	O	0.588769	1.839831	0.379068
O5	O	0.262241	1.517110	-0.120929
O6	O	0.762241	2.017110	0.379071
O7	O	-0.011996	1.528085	-0.120942
O8	O	0.488004	2.028085	0.379058
O9	O	0.226889	1.481114	0.120863
O10	O	0.726889	1.981114	0.620863
O11	O	0.053417	1.303835	0.120860
O12	O	0.553417	1.803835	0.620860
O13	O	0.126123	1.669368	0.120852
O14	O	0.626123	2.169368	0.620852
Cu15	Cu	0.086542	1.483315	0.142934
Cu16	Cu	0.586542	1.983315	0.642934
Cu17	Cu	0.128350	1.525884	-0.143013
Cu18	Cu	0.628350	2.025884	0.356987
O19	O	-0.047349	1.492089	0.120849
O20	O	0.452651	1.992089	0.620849
C21	C	0.064299	1.274770	-0.000035
C22	C	0.564299	1.774770	0.499965
C23	C	0.044064	1.134536	-0.000032
C24	C	0.544064	1.634536	0.499968
C25	C	0.096996	0.932134	-0.000056
C26	C	0.596996	1.432134	0.499944
C27	C	0.117908	1.077070	-0.000037
C28	C	0.617908	1.577070	0.499963
C29	C	-0.064230	1.514891	-0.000048
C30	C	0.435770	2.014891	0.499952
C31	C	-0.167196	1.529219	-0.000054
C32	C	0.332804	2.029219	0.499946
C33	C	-0.355730	1.555412	-0.000048
C34	C	0.144270	2.055412	0.499952
C35	C	-0.429381	1.453794	-0.000045
C36	C	0.070619	1.953794	0.499955
C37	C	-0.534287	1.468368	-0.000041
C38	C	-0.034287	1.968368	0.499959
C39	C	-0.250813	1.540840	-0.000051
C40	C	0.249187	2.040840	0.499949
C41	C	0.279122	1.494309	-0.000035
C42	C	0.779122	1.994309	0.499965
C43	C	0.382090	1.479982	-0.000039
C44	C	0.882090	1.979982	0.499961
C45	C	0.150594	1.734430	-0.000048
C46	C	0.650594	2.234430	0.499952
C47	C	0.170830	1.874665	-0.000060
C48	C	0.670830	2.374665	0.499940
N49	N	0.057138	1.453383	0.344053
N50	N	0.557138	1.953383	0.844053
N51	N	0.157763	1.555825	-0.344133
N52	N	0.657763	2.055825	0.155867
C53	C	0.119681	1.517046	0.416253
C54	C	0.619681	2.017046	0.916253
C55	C	0.095211	1.492152	0.583670
C56	C	0.595211	1.992152	1.083670
H57	H	0.249526	0.932766	-0.000059
H58	H	0.749526	1.432766	0.499941
N59	N	-0.409636	1.330931	-0.000045
N60	N	0.090364	1.830931	0.499955
N61	N	-0.323205	1.319108	-0.000044
N62	N	0.176795	1.819108	0.499956
H63	H	-0.309255	1.232339	-0.000040
H64	H	0.190745	1.732339	0.499960
N65	N	-0.375475	1.678268	-0.000053
N66	N	0.124525	2.178268	0.499947
N67	N	-0.461909	1.690079	-0.000049
N68	N	0.038091	2.190079	0.499951
H69	H	-0.475867	1.776844	-0.000049
H70	H	0.024133	2.276844	0.499951
H71	H	0.018303	0.874037	-0.000075
H72	H	0.518303	1.374037	0.499925
N73	N	0.216635	1.149959	-0.000039
N74	N	0.716635	1.649959	0.499961
N75	N	0.233484	1.267593	-0.000030
N76	N	0.733484	1.767593	0.499970
H77	H	0.303208	1.319075	-0.000032
H78	H	0.803208	1.819075	0.499968
N79	N	-0.054668	1.061653	-0.000015
N80	N	0.445332	1.561653	0.499985
N81	N	-0.099561	0.971736	0.101906
N82	N	0.400439	1.471736	0.601906
H83	H	-0.169290	0.920261	0.101926
H84	H	0.330710	1.420261	0.601926
H85	H	0.191346	1.589976	0.354127
H86	H	0.691346	2.089976	0.854127
H87	H	0.023547	1.419208	0.645794
H88	H	0.523547	1.919208	1.145794
N89	N	0.247671	1.647314	0.577926
N90	N	0.747671	2.147314	1.077926
N91	N	0.267426	1.667404	0.442038
N92	N	0.767426	2.167404	0.942038
H93	H	0.330923	1.732016	0.386989
H94	H	0.830923	2.232016	0.886989
N95	N	-0.032772	1.361902	0.421980
N96	N	0.467228	1.861902	0.921980
N97	N	-0.116024	1.376307	0.405095
N98	N	0.383976	1.876307	0.905095
H99	H	-0.179526	1.311696	0.460128
H100	H	0.320474	1.811696	0.960128
