data_functionalizedCrystal
_audit_creation_method	'MofGen! by Chris Wilmer'
_symmetry_space_group_name_H-M	'P1'
_symmetry_Int_Tables_number	1
_symmetry_cell_setting	triclinic
loop_
_symmetry_equiv_pos_as_xyz
  x,y,z
_cell_length_a	6.817900
_cell_length_b	7.076105
_cell_length_c	15.185311
_cell_angle_alpha	90.731169
_cell_angle_beta	104.261569
_cell_angle_gamma	117.701832
loop_
_atom_site_label
_atom_site_type_symbol
_atom_site_fract_x
_atom_site_fract_y
_atom_site_fract_z
V1	V	-4.203668	-0.665630	-0.124334
O2	O	-4.183642	-0.652316	0.007436
O3	O	-4.157988	-0.661697	-0.247939
O4	O	-4.230592	-0.955652	-0.121780
O5	O	-4.110535	-0.356326	-0.119596
V6	V	-4.677184	-0.628560	-0.108648
O7	O	-4.486879	-0.746948	-0.158741
O8	O	-4.844170	-0.547243	-0.074241
O9	O	-4.499658	-0.632493	0.014957
O10	O	-4.814606	-0.641875	-0.240418
O11	O	-4.887714	-0.937865	-0.113386
O12	O	-4.427053	-0.338538	-0.111202
C13	C	-4.001213	-0.651356	-0.278091
C14	C	-4.045652	-0.650074	-0.379135
C15	C	-4.142249	-0.449326	-0.793824
C16	C	-4.325117	-0.840111	-0.818933
C17	C	-4.283332	-0.841304	-0.723996
C18	C	-4.171006	-0.646505	-0.663967
C19	C	-4.100465	-0.450514	-0.698877
C20	C	-4.353890	-1.037294	-0.689079
C21	C	-4.312109	-1.038495	-0.594136
C22	C	-4.199767	-0.843693	-0.534105
C23	C	-4.129221	-0.647693	-0.569020
C24	C	-4.016895	-0.452894	-0.508992
C25	C	-3.946334	-0.256891	-0.543905
C26	C	-3.988122	-0.255712	-0.638846
C27	C	-4.157978	-0.844872	-0.439164
C28	C	-3.975110	-0.454082	-0.414045
C29	C	-4.100779	-0.026322	-0.117157
C30	C	-4.227178	-0.267867	-0.115839
C31	C	-4.319773	-0.642828	0.045104
C32	C	-4.254576	-0.644125	0.146148
H33	H	-3.930684	-0.096137	-0.667282
Br34	Br	-4.407862	-1.304491	-0.546762
H35	H	-4.084794	-0.289745	-0.822254
Br36	Br	-4.506353	-1.301648	-0.770548
Br37	Br	-4.253761	-1.110854	-0.391785
H38	H	-3.854885	-0.098287	-0.495018
H39	H	-3.883631	-0.295450	-0.365175
Br40	Br	-4.477581	-1.104469	-0.900400
