data_functionalizedCrystal
_audit_creation_method	'MofGen! by Chris Wilmer'
_symmetry_space_group_name_H-M	'P1'
_symmetry_Int_Tables_number	1
_symmetry_cell_setting	triclinic
loop_
_symmetry_equiv_pos_as_xyz
  x,y,z
_cell_length_a	19.188905
_cell_length_b	10.654550
_cell_length_c	18.266242
_cell_angle_alpha	90.005134
_cell_angle_beta	89.983837
_cell_angle_gamma	96.190271
loop_
_atom_site_label
_atom_site_type_symbol
_atom_site_fract_x
_atom_site_fract_y
_atom_site_fract_z
O1	O	0.927185	-0.156632	-0.061000
O2	O	0.724009	-0.177770	-0.060975
O3	O	0.830268	0.015638	-0.060985
O4	O	0.820926	-0.350040	-0.060989
O5	O	0.830250	0.015648	0.060777
O6	O	0.723991	-0.177760	0.060787
O7	O	0.927167	-0.156622	0.060762
Zn8	Zn	0.825576	-0.167190	0.080107
Zn9	Zn	0.825600	-0.167203	-0.080320
O10	O	0.820907	-0.350030	0.060773
C11	C	0.697984	-0.177086	-0.000090
C12	C	0.620466	-0.175047	-0.000081
C13	C	0.584077	-0.174073	-0.066455
C14	C	0.511241	-0.172143	-0.066464
C15	C	0.474798	-0.171162	-0.000095
C16	C	0.511194	-0.172143	0.066288
C17	C	0.584028	-0.174086	0.066295
N18	N	0.365283	-0.096644	0.049298
N19	N	0.296094	-0.094796	0.049286
C20	C	0.255353	-0.165311	-0.000113
N21	N	0.286416	-0.237729	-0.049511
N22	N	0.355612	-0.239572	-0.049502
C23	C	0.395821	-0.169056	-0.000096
C24	C	0.139987	-0.162247	-0.066502
C25	C	0.067149	-0.160324	-0.066508
C26	C	0.067104	-0.160312	0.066246
C27	C	0.139940	-0.162247	0.066251
C28	C	0.176377	-0.163208	-0.000125
C29	C	0.829573	0.062426	-0.000105
C30	C	0.827521	0.201826	-0.000107
C31	C	0.953191	-0.157306	-0.000124
C32	C	1.030710	-0.159345	-0.000138
C33	C	0.821603	-0.396818	-0.000109
C34	C	0.823655	-0.536218	-0.000112
N35	N	0.825565	-0.167180	0.189594
C36	C	0.890085	0.282645	-0.000113
C37	C	0.888152	0.413625	-0.000118
C38	C	0.761086	0.382952	-0.000108
C39	C	0.763020	0.251975	-0.000109
C40	C	0.963445	0.300355	-0.000115
C41	C	0.961512	0.431335	-0.000120
N42	N	0.825617	-0.167202	-0.189807
C43	C	0.872632	-0.081581	0.227898
C44	C	0.872636	-0.081575	0.304543
C45	C	0.825580	-0.167190	0.342881
C46	C	0.778504	-0.252796	0.304567
C47	C	0.778496	-0.252791	0.227924
N48	N	0.817232	-0.278358	0.463213
N49	N	0.817243	-0.278359	0.536021
C50	C	0.825600	-0.167208	0.573803
N51	N	0.833958	-0.056052	0.536027
N52	N	0.833950	-0.056053	0.463212
C53	C	0.825583	-0.167204	0.425988
C54	C	0.872675	-0.081595	0.695215
C55	C	0.872674	-0.081588	0.771861
C56	C	0.778545	-0.252819	0.771884
C57	C	0.778542	-0.252816	0.695239
C58	C	0.825611	-0.167205	0.656909
H59	H	0.481517	-0.171347	0.120326
H60	H	0.992146	0.271605	-0.051072
C61	C	0.471650	-0.170879	-0.138479
C62	C	0.437168	-0.061761	-0.142344
C63	C	0.400686	-0.060560	-0.208668
H64	H	0.503708	-0.171664	-0.178068
H65	H	0.438221	-0.243295	-0.141252
H66	H	0.470593	0.010636	-0.139578
H67	H	0.405099	-0.060952	-0.102770
H68	H	0.367257	-0.132976	-0.211441
H69	H	0.432749	-0.061349	-0.248252
H70	H	0.377281	0.013468	-0.211296
C71	C	0.027651	-0.159053	0.138362
C72	C	0.052712	-0.051522	0.178415
C73	C	0.016389	-0.050333	0.244859
H74	H	-0.020945	-0.157693	0.128960
H75	H	0.034621	-0.232545	0.165674
H76	H	0.045736	0.021952	0.151109
H77	H	0.101303	-0.052858	0.187837
H78	H	0.023358	-0.123825	0.272171
H79	H	-0.032206	-0.048977	0.235449
H80	H	0.033391	0.022619	0.272046
H81	H	0.712074	0.186175	-0.000114
C82	C	0.179421	-0.163379	-0.138640
C83	C	0.131957	-0.162164	-0.196772
C84	C	0.168254	-0.163230	-0.263236
H85	H	0.212814	-0.090943	-0.141506
H86	H	0.202840	-0.237381	-0.141430
H87	H	0.108550	-0.088169	-0.193983
H88	H	0.098563	-0.234594	-0.193930
H89	H	0.191673	-0.237232	-0.266027
H90	H	0.201646	-0.090793	-0.266095
H91	H	0.136055	-0.162418	-0.302687
C92	C	0.691129	0.437648	-0.000069
C93	C	0.702825	0.569651	-0.000055
C94	C	0.638396	0.620076	-0.000008
H95	H	0.665296	0.410011	-0.042516
H96	H	0.665327	0.409961	0.042412
H97	H	0.728616	0.597327	-0.042531
H98	H	0.728648	0.597322	0.042389
H99	H	0.612594	0.592389	0.042473
H100	H	0.612567	0.592430	-0.042455
H101	H	0.646322	0.709644	0.000009
H102	H	0.910965	-0.011867	0.335736
C103	C	0.923859	0.011409	0.813319
C104	C	0.965088	0.086353	0.763343
C105	C	1.012255	0.172023	0.801508
H106	H	0.898582	0.063697	0.843234
H107	H	0.953175	-0.033611	0.843188
H108	H	0.935776	0.131370	0.733487
H109	H	0.990381	0.034100	0.733426
H110	H	1.041571	0.127003	0.831376
H111	H	0.986972	0.224301	0.831422
H112	H	1.040239	0.222875	0.767605
C113	C	0.994438	0.253714	0.070110
C114	C	1.013034	0.356335	0.116618
C115	C	1.041504	0.313397	0.181354
H116	H	0.960706	0.195506	0.093682
H117	H	1.034880	0.213199	0.058904
H118	H	0.972598	0.396830	0.127825
H119	H	1.046773	0.414552	0.093069
H120	H	1.081945	0.272882	0.170147
H121	H	1.007768	0.255189	0.204919
H122	H	1.054130	0.383019	0.212914
H123	H	0.740228	-0.322524	0.803098
C124	C	0.179555	-0.163089	0.138263
C125	C	0.228721	-0.056203	0.142135
C126	C	0.265232	-0.056947	0.208461
H127	H	0.147504	-0.162164	0.177851
H128	H	0.203033	-0.237023	0.141034
H129	H	0.205244	0.017712	0.139372
H130	H	0.260786	-0.057106	0.102563
H131	H	0.288711	-0.130881	0.211232
H132	H	0.233177	-0.056025	0.248044
H133	H	0.298600	0.015567	0.211095
H134	H	0.983691	0.477446	-0.052696
C135	C	0.727492	-0.345696	0.346320
C136	C	0.737586	-0.327404	0.421640
C137	C	0.690609	-0.412970	0.460124
H138	H	0.680800	-0.332352	0.333870
H139	H	0.735482	-0.429500	0.333790
H140	H	0.729592	-0.243620	0.434165
H141	H	0.784269	-0.340758	0.434112
H142	H	0.698599	-0.496774	0.447594
H143	H	0.643920	-0.399619	0.447668
H144	H	0.697456	-0.400579	0.511233
H145	H	0.740218	-0.322524	0.664050
H146	H	0.989146	0.473688	0.050833
H147	H	0.613655	-0.174880	0.120347
C148	C	0.727477	-0.345942	0.186372
C149	C	0.739406	-0.469294	0.204990
C150	C	0.692428	-0.555142	0.166719
H151	H	0.680787	-0.332689	0.198918
H152	H	0.734217	-0.333767	0.135228
H153	H	0.732660	-0.481465	0.256122
H154	H	0.786086	-0.482588	0.192442
H155	H	0.699168	-0.542967	0.115575
H156	H	0.645741	-0.541877	0.179268
H157	H	0.700519	-0.638846	0.179341
C158	C	0.623506	-0.175186	-0.138595
C159	C	0.576041	-0.173951	-0.196726
C160	C	0.612338	-0.174993	-0.263191
H161	H	0.656899	-0.102749	-0.141454
H162	H	0.646925	-0.249188	-0.141395
H163	H	0.552634	-0.099956	-0.193927
H164	H	0.542647	-0.246382	-0.193891
H165	H	0.635756	-0.248995	-0.265991
H166	H	0.645730	-0.102555	-0.266042
H167	H	0.580138	-0.174167	-0.302640
H168	H	0.910956	-0.011869	0.196692
H169	H	0.910999	-0.011882	0.664005
H170	H	0.037522	-0.159539	-0.120560
