data_functionalizedCrystal
_audit_creation_method	'MofGen! by Chris Wilmer'
_symmetry_space_group_name_H-M	'P1'
_symmetry_Int_Tables_number	1
_symmetry_cell_setting	triclinic
loop_
_symmetry_equiv_pos_as_xyz
  x,y,z
_cell_length_a	19.121102
_cell_length_b	13.897448
_cell_length_c	13.897441
_cell_angle_alpha	90.030599
_cell_angle_beta	87.539222
_cell_angle_gamma	92.427934
loop_
_atom_site_label
_atom_site_type_symbol
_atom_site_fract_x
_atom_site_fract_y
_atom_site_fract_z
Zn1	Zn	1.073786	0.446992	-0.608246
Zn2	Zn	1.073708	0.608309	-0.446943
Zn3	Zn	0.956329	0.440142	-0.440088
Zn4	Zn	0.956316	0.601354	-0.601323
O5	O	1.015035	0.524200	-0.524150
O6	O	1.172061	0.474169	-0.592615
O7	O	1.058111	0.586046	-0.311051
O8	O	0.971948	0.306072	-0.462423
O9	O	1.172004	0.592688	-0.474107
O10	O	1.058243	0.311104	-0.585968
O11	O	0.971873	0.462494	-0.306014
O12	O	0.858042	0.455750	-0.455710
O13	O	0.971925	0.580833	-0.737225
O14	O	0.858033	0.574191	-0.574169
O15	O	1.058230	0.467425	-0.742311
O16	O	1.058098	0.742366	-0.467393
O17	O	0.971850	0.737256	-0.580816
C18	C	0.832553	0.513473	-0.513445
C19	C	0.754487	0.508908	-0.508888
C20	C	1.014984	0.774811	-0.524119
C21	C	1.015026	0.882027	-0.524142
C22	C	1.015085	0.524117	-0.775746
C23	C	1.015106	0.524082	-0.882962
C24	C	0.717824	0.568522	-0.568325
C25	C	0.644473	0.564220	-0.564048
C26	C	0.607785	0.500307	-0.500328
C27	C	0.644452	0.440686	-0.440888
C28	C	0.717803	0.444985	-0.445171
C29	C	0.386313	0.484235	-0.484321
C30	C	0.312958	0.479943	-0.480041
C31	C	0.312983	0.603476	-0.603202
C32	C	0.386335	0.607772	-0.607475
C33	C	0.422996	0.548148	-0.548039
C34	C	0.532808	0.495910	-0.495953
C35	C	0.497972	0.552541	-0.552420
C36	C	1.198229	0.534968	-0.534898
C37	C	1.276295	0.539557	-0.539478
C38	C	1.015105	0.272611	-0.524203
C39	C	1.015135	0.165399	-0.524226
C40	C	1.015100	1.078327	-0.524207
C41	C	1.015057	0.969092	-0.524174
C42	C	1.015125	0.524018	-1.079258
C43	C	1.015112	0.524056	-0.970025
C44	C	1.015026	0.524214	-0.273535
C45	C	1.015140	0.523986	-0.166329
H46	H	0.747690	0.620570	-0.620210
H47	H	0.614625	0.612765	-0.612447
Br48	Br	0.436059	0.403310	-0.403663
Br49	Br	0.436121	0.694520	-0.693950
Br50	Br	0.263225	0.684394	-0.683857
H51	H	0.283089	0.427887	-0.428158
Br52	Br	0.594663	0.353937	-0.354419
H53	H	0.502928	0.443874	-0.444070
H54	H	0.747652	0.396435	-0.396776
Br55	Br	0.547764	0.639275	-0.638897
