data_functionalizedCrystal
_audit_creation_method	'MofGen! by Chris Wilmer'
_symmetry_space_group_name_H-M	'P1'
_symmetry_Int_Tables_number	1
_symmetry_cell_setting	triclinic
loop_
_symmetry_equiv_pos_as_xyz
  x,y,z
_cell_length_a	15.538191
_cell_length_b	14.971506
_cell_length_c	14.185569
_cell_angle_alpha	76.828641
_cell_angle_beta	97.872928
_cell_angle_gamma	65.447241
loop_
_atom_site_label
_atom_site_type_symbol
_atom_site_fract_x
_atom_site_fract_y
_atom_site_fract_z
O1	O	0.144125	1.119729	0.083413
O2	O	0.158800	0.854552	0.083412
O3	O	0.014397	1.038757	0.083418
O4	O	0.288529	0.935523	0.083408
O5	O	-0.028257	1.093172	-0.083415
O6	O	0.116147	0.908966	-0.083421
O7	O	0.101472	1.174143	-0.083420
Cu8	Cu	0.104915	1.046523	-0.098653
Cu9	Cu	0.155358	0.982172	0.098646
O10	O	0.245876	0.989937	-0.083425
C11	C	0.136814	0.848649	-0.000004
C12	C	0.134837	0.749997	-0.000004
C13	C	-0.042012	1.076765	0.000005
C14	C	-0.146544	1.108935	0.000015
C15	C	0.212130	0.286540	0.000004
C16	C	0.213981	0.379237	0.000008
C17	C	0.129137	0.464088	0.000007
C18	C	0.042439	0.456238	0.000011
C19	C	0.040591	0.363541	0.000014
C20	C	0.046297	0.649447	0.000003
C21	C	0.048145	0.742152	-0.000002
C22	C	0.219688	0.665142	-0.000003
C23	C	0.217839	0.572445	-0.000001
C24	C	0.131140	0.564602	0.000002
C25	C	-0.434725	0.789305	-0.000008
C26	C	-0.532955	0.819560	-0.000010
C27	C	-0.555193	0.989735	-0.000009
C28	C	-0.456961	0.959493	-0.000002
C29	C	-0.396735	0.859276	-0.000002
C30	C	-0.418972	1.029464	0.000003
C31	C	-0.320750	0.999225	0.000005
C32	C	-0.260519	0.899015	0.000002
C33	C	-0.298514	0.829037	-0.000001
C34	C	-0.479202	1.129683	-0.000003
C35	C	-0.441212	1.199654	0.000002
C36	C	-0.342987	1.169414	0.000011
C37	C	-0.282755	1.069203	0.000008
C38	C	-0.304992	1.239391	0.000013
C39	C	-0.206770	1.209152	0.000015
C40	C	-0.184534	1.038964	0.000009
C41	C	0.302285	0.951929	-0.000010
C42	C	0.406819	0.919756	-0.000013
C43	C	0.123459	1.180045	-0.000001
C44	C	0.125438	1.278695	0.000005
N45	N	0.069436	1.091791	-0.237423
C46	C	0.295026	0.803929	-0.605081
C47	C	0.268158	0.838223	-0.710102
C48	C	0.140336	1.001346	-0.710058
C49	C	0.167191	0.967064	-0.605035
C50	C	0.244537	0.868355	-0.552555
C51	C	0.116702	1.031490	-0.552509
C52	C	0.143558	0.997212	-0.447496
C53	C	0.220904	0.898508	-0.395008
C54	C	0.271394	0.834077	-0.447542
C55	C	0.039360	1.130201	-0.604992
C56	C	-0.011129	1.194627	-0.552466
C57	C	0.015723	1.160347	-0.447450
C58	C	0.093068	1.061643	-0.394963
C59	C	-0.034767	1.224778	-0.394917
C60	C	-0.007911	1.190500	-0.289903
C61	C	0.119925	1.027365	-0.289949
N62	N	0.190829	0.936913	0.237416
H63	H	0.281218	0.217458	-0.000003
H64	H	-0.563884	0.762577	-0.000029
H65	H	0.309280	0.785751	-0.752863
H66	H	-0.604243	1.071333	-0.000013
H67	H	0.284577	0.385613	0.000016
H68	H	-0.026641	0.525331	0.000016
H69	H	0.077362	1.081718	-0.752800
H70	H	-0.559177	1.154297	0.000004
H71	H	0.286925	0.503360	-0.000006
H72	H	-0.074103	1.274999	-0.595207
H73	H	-0.490262	1.281252	-0.000001
H74	H	0.182901	0.946982	-0.247218
H75	H	-0.024301	0.643067	0.000010
H76	H	0.290281	0.671531	-0.000006
H77	H	-0.030002	0.357158	0.000017
H78	H	-0.354045	1.320990	0.000004
H79	H	-0.020940	0.811236	0.000005
H80	H	-0.135491	0.957355	0.000016
H81	H	0.017500	1.158108	-0.690500
H82	H	-0.175839	1.266130	0.000018
H83	H	-0.180542	0.874398	-0.000003
H84	H	-0.249471	0.747429	0.000006
H85	H	-0.097738	1.305152	-0.437660
H86	H	-0.385682	0.707696	-0.000001
H87	H	0.242772	0.870602	-0.309500
H88	H	0.334371	0.753694	-0.404810
H89	H	0.358003	0.723546	-0.562350
H90	H	-0.049024	1.242964	-0.247136
