data_functionalizedCrystal
_audit_creation_method	'MofGen! by Chris Wilmer'
_symmetry_space_group_name_H-M	'P1'
_symmetry_Int_Tables_number	1
_symmetry_cell_setting	triclinic
loop_
_symmetry_equiv_pos_as_xyz
  x,y,z
_cell_length_a	17.077402
_cell_length_b	17.077404
_cell_length_c	17.077396
_cell_angle_alpha	90.019699
_cell_angle_beta	89.970962
_cell_angle_gamma	89.977703
loop_
_atom_site_label
_atom_site_type_symbol
_atom_site_fract_x
_atom_site_fract_y
_atom_site_fract_z
Zn1	Zn	-0.312570	-1.200042	-0.443844
Zn2	Zn	0.187430	-0.700042	0.056156
Zn3	Zn	-0.443844	-1.199944	-0.312576
Zn4	Zn	0.056156	-0.699944	0.187424
Zn5	Zn	-0.312590	-1.068774	-0.312591
Zn6	Zn	0.187410	-0.568774	0.187409
Zn7	Zn	-0.443791	-1.068736	-0.443800
Zn8	Zn	0.056209	-0.568736	0.056200
O9	O	-0.378199	-1.134374	-0.378203
O10	O	0.121801	-0.634374	0.121797
O11	O	-0.329997	-1.309876	-0.426443
O12	O	0.170003	-0.809876	0.073557
O13	O	-0.426464	-1.182518	-0.202731
O14	O	0.073536	-0.682518	0.297269
O15	O	-0.202740	-1.086243	-0.330027
O16	O	0.297260	-0.586243	0.169973
O17	O	-0.426445	-1.309803	-0.330002
O18	O	0.073555	-0.809803	0.169998
O19	O	-0.202725	-1.182686	-0.426458
O20	O	0.297275	-0.682686	0.073542
O21	O	-0.330032	-1.086148	-0.202742
O22	O	0.169968	-0.586148	0.297258
O23	O	-0.329980	-0.958922	-0.329984
O24	O	0.170020	-0.458922	0.170016
O25	O	-0.426353	-1.086180	-0.553652
O26	O	0.073647	-0.586180	-0.053652
O27	O	-0.426373	-0.958894	-0.426382
O28	O	0.073627	-0.458894	0.073618
O29	O	-0.329945	-1.182649	-0.553685
O30	O	0.170055	-0.682649	-0.053685
O31	O	-0.553684	-1.182482	-0.329959
O32	O	-0.053684	-0.682482	0.170041
O33	O	-0.553645	-1.086084	-0.426368
O34	O	-0.053645	-0.586084	0.073632
C35	C	-0.378173	-0.930426	-0.378180
C36	C	0.121827	-0.430426	0.121820
C37	C	-0.378181	-0.843176	-0.378189
C38	C	0.121819	-0.343176	0.121811
C39	C	-0.328050	-0.802224	-0.428482
C40	C	0.171950	-0.302224	0.071518
C41	C	-0.328054	-0.720244	-0.428484
C42	C	0.171946	-0.220244	0.071516
C43	C	-0.378193	-0.679217	-0.378196
C44	C	0.121807	-0.179217	0.121804
C45	C	-0.428327	-0.720174	-0.327898
C46	C	0.071673	-0.220174	0.172102
C47	C	-0.428318	-0.802153	-0.327893
C48	C	0.071682	-0.302153	0.172107
C49	C	-0.428342	-0.549304	-0.327913
C50	C	0.071658	-0.049304	0.172087
C51	C	-0.428351	-0.467320	-0.327919
C52	C	0.071649	0.032680	0.172081
C53	C	-0.328077	-0.467395	-0.428505
C54	C	0.171923	0.032605	0.071495
C55	C	-0.328069	-0.549374	-0.428499
C56	C	0.171931	-0.049374	0.071501
C57	C	-0.378204	-0.590326	-0.378202
C58	C	0.121796	-0.090326	0.121798
C59	C	-0.582147	-1.134290	-0.378174
C60	C	-0.082147	-0.634290	0.121826
C61	C	-0.669396	-1.134326	-0.378188
C62	C	-0.169396	-0.634326	0.121812
C63	C	-1.045139	-1.184677	-0.428506
C64	C	-0.545139	-0.684677	0.071494
C65	C	-0.963159	-1.184642	-0.428487
C66	C	-0.463159	-0.684642	0.071513
C67	C	-0.922245	-1.134450	-0.378235
C68	C	-0.422245	-0.634450	0.121765
C69	C	-0.963316	-1.084295	-0.327992
C70	C	-0.463316	-0.584295	0.172008
C71	C	-1.045295	-1.084335	-0.328007
C72	C	-0.545295	-0.584335	0.171993
C73	C	-0.792446	-1.084214	-0.327965
C74	C	-0.292446	-0.584214	0.172035
C75	C	-0.710462	-1.084173	-0.327951
C76	C	-0.210462	-0.584173	0.172049
C77	C	-0.710310	-1.184521	-0.428446
C78	C	-0.210310	-0.684521	0.071554
C79	C	-0.792289	-1.184561	-0.428461
C80	C	-0.292289	-0.684561	0.071539
C81	C	-0.833354	-1.134405	-0.378218
C82	C	-0.333354	-0.634405	0.121782
C83	C	-0.173454	-1.134480	-0.378249
C84	C	0.326546	-0.634480	0.121751
C85	C	-0.086204	-1.134525	-0.378268
C86	C	0.413796	-0.634525	0.121732
C87	C	-0.378141	-1.134421	-0.582947
C88	C	0.121859	-0.634421	-0.082947
C89	C	-0.378116	-1.134442	-0.670197
C90	C	0.121884	-0.634442	-0.170197
C91	C	-0.378221	-0.339118	-0.378220
C92	C	0.121779	0.160882	0.121780
C93	C	-0.378220	-0.426368	-0.378212
C94	C	0.121780	0.073632	0.121788
C95	C	-0.327913	-1.184675	-0.711205
C96	C	0.172087	-0.684675	-0.211205
C97	C	-0.327886	-1.184685	-0.793186
C98	C	0.172114	-0.684685	-0.293186
C99	C	-0.378068	-1.134464	-0.834157
C100	C	0.121932	-0.634464	-0.334157
C101	C	-0.428274	-1.084225	-0.793142
C102	C	0.071726	-0.584225	-0.293142
C103	C	-0.428296	-1.084212	-0.711163
C104	C	0.071704	-0.584212	-0.211163
C105	C	-0.428227	-1.084256	-0.964013
C106	C	0.071773	-0.584256	-0.464013
C107	C	-0.428207	-1.084270	-1.045997
C108	C	0.071793	-0.584270	-0.545997
C109	C	-0.327818	-1.184729	-1.046035
C110	C	0.172182	-0.684729	-0.546035
C111	C	-0.327839	-1.184716	-0.964056
C112	C	0.172161	-0.684716	-0.464056
C113	C	-0.378046	-1.134478	-0.923048
C114	C	0.121954	-0.634478	-0.423048
C115	C	-0.378200	-1.134372	-0.174255
C116	C	0.121800	-0.634372	0.325745
C117	C	-0.378003	-1.134504	-0.087006
C118	C	0.121997	-0.634504	0.412994
H119	H	-0.287222	-0.835623	-0.469435
H120	H	0.212778	-0.335623	0.030565
H121	H	-0.469180	-0.433918	-0.286971
H122	H	0.030820	0.066082	0.213029
C123	C	-1.090137	-1.239893	-0.483782
C124	C	-0.590137	-0.739893	0.016218
H125	H	-1.053936	-1.269762	-0.513693
H126	H	-0.553936	-0.769762	-0.013693
H127	H	-1.122122	-1.209867	-0.517966
H128	H	-0.622122	-0.709867	-0.017966
H129	H	-1.122105	-1.274129	-0.453782
H130	H	-0.622105	-0.774129	0.046218
H131	H	-0.825879	-1.043373	-0.287051
H132	H	-0.325879	-0.543373	0.212949
H133	H	-1.078729	-1.043495	-0.287098
H134	H	-0.578729	-0.543495	0.212902
H135	H	-0.287233	-0.686905	-0.469439
H136	H	0.212767	-0.186905	0.030561
H137	H	-0.676870	-1.225360	-0.469354
H138	H	-0.176870	-0.725360	0.030646
H139	H	-0.286981	-1.225615	-0.930700
H140	H	0.213019	-0.725615	-0.430700
C141	C	-0.483462	-0.847204	-0.272573
C142	C	0.016538	-0.347204	0.227427
H143	H	-0.476271	-0.901903	-0.279766
H144	H	0.023729	-0.401903	0.220234
H145	H	-0.536221	-0.833760	-0.283964
H146	H	-0.036221	-0.333760	0.216036
H147	H	-0.471900	-0.833749	-0.219851
H148	H	0.028100	-0.333749	0.280149
H149	H	-0.930000	-1.043430	-0.287071
H150	H	-0.430000	-0.543430	0.212929
C151	C	-0.272916	-0.594503	-0.483813
C152	C	0.227084	-0.094503	0.016187
H153	H	-0.243053	-0.558374	-0.513764
H154	H	0.256947	-0.058374	-0.013764
H155	H	-0.302983	-0.626490	-0.517958
H156	H	0.197017	-0.126490	-0.017958
H157	H	-0.238671	-0.626478	-0.453836
H158	H	0.261329	-0.126478	0.046164
C159	C	-0.272600	-1.239999	-1.091140
C160	C	0.227400	-0.739999	-0.591140
H161	H	-0.279769	-1.232813	-1.145832
H162	H	0.220231	-0.732813	-0.645832
H163	H	-0.284112	-1.292728	-1.077708
H164	H	0.215888	-0.792728	-0.577708
H165	H	-0.219853	-1.228545	-1.077719
H166	H	0.280147	-0.728545	-0.577719
C167	C	-0.917990	-1.239818	-0.483741
C168	C	-0.417990	-0.739818	0.016259
H169	H	-0.954098	-1.269712	-0.513675
H170	H	-0.454098	-0.769712	-0.013675
H171	H	-0.886008	-1.274020	-0.453730
H172	H	-0.386008	-0.774020	0.046270
H173	H	-0.886007	-1.209760	-0.517915
H174	H	-0.386007	-0.709760	-0.017915
C175	C	-0.272708	-1.239915	-0.666145
C176	C	0.227292	-0.739915	-0.166145
H177	H	-0.242799	-1.269827	-0.702312
H178	H	0.257201	-0.769827	-0.202312
H179	H	-0.302743	-1.274099	-0.634161
H180	H	0.197257	-0.774099	-0.134161
H181	H	-0.238508	-1.209891	-0.634171
H182	H	0.261492	-0.709891	-0.134171
H183	H	-0.825598	-1.225430	-0.469383
H184	H	-0.325598	-0.725430	0.030617
C185	C	-0.665458	-1.028964	-0.272673
C186	C	-0.165458	-0.528964	0.227327
H187	H	-0.701654	-0.999106	-0.242745
H188	H	-0.201654	-0.499106	0.257255
H189	H	-0.633489	-0.994730	-0.302665
H190	H	-0.133489	-0.494730	0.197335
H191	H	-0.633473	-1.059002	-0.238493
H192	H	-0.133473	-0.559002	0.261507
C193	C	-0.483401	-1.029024	-1.091064
C194	C	0.016599	-0.529024	-0.591064
H195	H	-0.513298	-0.999094	-1.054901
H196	H	-0.013298	-0.499094	-0.554901
H197	H	-0.517600	-1.059037	-1.123041
H198	H	-0.017600	-0.559037	-0.623041
H199	H	-0.453350	-0.994846	-1.123045
H200	H	0.046650	-0.494846	-0.623045
C201	C	-0.272666	-1.239945	-0.838292
C202	C	0.227334	-0.739945	-0.338292
H203	H	-0.242791	-1.269860	-0.802150
H204	H	0.257209	-0.769860	-0.302150
H205	H	-0.238448	-1.209945	-0.870274
H206	H	0.261552	-0.709945	-0.370274
H207	H	-0.302697	-1.274137	-0.870270
H208	H	0.197303	-0.774137	-0.370270
H209	H	-0.469099	-1.043335	-0.930626
H210	H	0.030901	-0.543335	-0.430626
H211	H	-0.469130	-1.043331	-0.826507
H212	H	0.030870	-0.543331	-0.326507
C213	C	-0.272928	-0.422352	-0.483829
C214	C	0.227072	0.077648	0.016171
H215	H	-0.280106	-0.367652	-0.476625
H216	H	0.219894	0.132348	0.023375
H217	H	-0.284485	-0.435804	-0.536549
H218	H	0.215515	0.064196	-0.036549
H219	H	-0.220167	-0.435800	-0.472433
H220	H	0.279833	0.064200	0.027567
H221	H	-0.469169	-1.043299	-0.677776
H222	H	0.030831	-0.543299	-0.177776
C223	C	-0.483481	-0.675050	-0.272582
C224	C	0.016519	-0.175050	0.227418
H225	H	-0.513332	-0.711183	-0.242623
H226	H	-0.013332	-0.211183	0.257377
H227	H	-0.517725	-0.643074	-0.302550
H228	H	-0.017725	-0.143074	0.197450
H229	H	-0.453409	-0.643065	-0.238432
H230	H	0.046591	-0.143065	0.261568
H231	H	-0.469165	-0.582645	-0.286954
H232	H	0.030835	-0.082645	0.213046
