data_functionalizedCrystal
_audit_creation_method	'MofGen! by Chris Wilmer'
_symmetry_space_group_name_H-M	'P1'
_symmetry_Int_Tables_number	1
_symmetry_cell_setting	triclinic
loop_
_symmetry_equiv_pos_as_xyz
  x,y,z
_cell_length_a	10.654550
_cell_length_b	16.992694
_cell_length_c	16.053802
_cell_angle_alpha	92.750953
_cell_angle_beta	92.591674
_cell_angle_gamma	92.423437
loop_
_atom_site_label
_atom_site_type_symbol
_atom_site_fract_x
_atom_site_fract_y
_atom_site_fract_z
O1	O	0.261481	-1.045116	-0.069321
O2	O	0.761481	-0.545116	0.430679
O3	O	0.258556	-0.816816	-0.069346
O4	O	0.758556	-0.316816	0.430654
O5	O	0.077733	-0.936215	-0.069330
O6	O	0.577733	-0.436215	0.430670
O7	O	0.442304	-0.925717	-0.069337
O8	O	0.942304	-0.425717	0.430663
O9	O	0.087643	-0.929643	0.069528
O10	O	0.587643	-0.429643	0.569528
O11	O	0.268466	-0.810244	0.069512
O12	O	0.768466	-0.310244	0.569512
O13	O	0.271390	-1.038544	0.069537
O14	O	0.771390	-0.538544	0.569537
Zn15	Zn	0.271501	-0.923350	0.091571
Zn16	Zn	0.771501	-0.423350	0.591571
Zn17	Zn	0.258446	-0.932009	-0.091380
Zn18	Zn	0.758446	-0.432009	0.408620
O19	O	0.452213	-0.919145	0.069521
O20	O	0.952213	-0.419145	0.569521
C21	C	0.259751	-0.784297	0.000080
C22	C	0.759751	-0.284297	0.500080
C23	C	0.248531	-0.697192	0.000071
C24	C	0.748531	-0.197192	0.500071
C25	C	0.035823	-0.932158	0.000098
C26	C	0.535823	-0.432158	0.500098
C27	C	-0.103819	-0.929852	0.000095
C28	C	0.396181	-0.429852	0.500095
N29	N	0.280411	-0.917446	0.216431
N30	N	0.780411	-0.417446	0.716431
C31	C	-0.177229	-1.000152	0.000105
C32	C	0.322771	-0.500152	0.500105
C33	C	-0.308438	-0.997981	0.000099
C34	C	0.191562	-0.497981	0.500099
C35	C	-0.292815	-0.855203	0.000076
C36	C	0.207185	-0.355203	0.500076
C37	C	-0.161609	-0.857375	0.000077
C38	C	0.338391	-0.357375	0.500077
C39	C	-0.119440	-1.072629	0.000124
C40	C	0.380560	-0.572629	0.500124
C41	C	-0.192850	-1.142935	0.000135
C42	C	0.307150	-0.642935	0.500135
C43	C	-0.324059	-1.140763	0.000129
C44	C	0.175941	-0.640763	0.500129
C45	C	-0.381858	-1.068286	0.000112
C46	C	0.118142	-0.568286	0.500112
C47	C	0.494123	-0.923202	0.000091
C48	C	0.994123	-0.423202	0.500091
C49	C	0.633766	-0.925508	0.000089
C50	C	1.133766	-0.425508	0.500089
C51	C	0.270196	-1.071063	0.000109
C52	C	0.770196	-0.571063	0.500109
C53	C	0.281416	-1.158168	0.000113
C54	C	0.781416	-0.658168	0.500113
C55	C	0.356781	-0.647540	0.000069
C56	C	0.856781	-0.147540	0.500069
C57	C	0.346233	-0.565696	0.000081
C58	C	0.846233	-0.065696	0.500081
C59	C	0.227432	-0.533505	0.000088
C60	C	0.727432	-0.033505	0.500088
C61	C	0.119174	-0.583163	0.000092
C62	C	0.619174	-0.083163	0.500092
C63	C	0.129724	-0.665006	0.000087
C64	C	0.629724	-0.165006	0.500087
C65	C	0.183707	-0.289668	0.000112
C66	C	0.683707	0.210332	0.500112
C67	C	0.173165	-0.207819	0.000115
C68	C	0.673165	0.292181	0.500115
C69	C	0.400225	-0.190358	0.000105
C70	C	0.900225	0.309642	0.500105
C71	C	0.410765	-0.272203	0.000094
C72	C	0.910765	0.227797	0.500094
C73	C	0.302506	-0.321854	0.000103
C74	C	0.802506	0.178146	0.500103
N75	N	0.216647	-0.449847	0.000098
N76	N	0.716647	0.050153	0.500098
N77	N	0.313293	-0.405510	0.000099
N78	N	0.813293	0.094490	0.500099
N79	N	0.249526	-0.937920	-0.216239
N80	N	0.749526	-0.437920	0.283761
C81	C	0.203502	-0.968269	0.260132
C82	C	0.703502	-0.468269	0.760132
C83	C	0.209747	-0.964147	0.347538
C84	C	0.709747	-0.464147	0.847538
C85	C	0.292909	-0.909204	0.391242
C86	C	0.792909	-0.409204	0.891242
C87	C	0.369822	-0.858376	0.347535
C88	C	0.869822	-0.358376	0.847535
C89	C	0.363569	-0.862495	0.260130
C90	C	0.863569	-0.362495	0.760130
C91	C	0.320186	-0.891210	0.652649
C92	C	0.820186	-0.391210	1.152649
C93	C	0.326435	-0.887096	0.740060
C94	C	0.826435	-0.387096	1.240060
C95	C	0.166359	-0.992867	0.740057
C96	C	0.666359	-0.492867	1.240057
C97	C	0.160119	-0.996985	0.652650
C98	C	0.660119	-0.496985	1.152650
C99	C	0.237026	-0.946153	0.608951
C100	C	0.737026	-0.446153	1.108951
N101	N	0.299298	-0.904991	0.480585
N102	N	0.799298	-0.404991	0.980585
N103	N	0.230631	-0.950364	0.519610
N104	N	0.730631	-0.450364	1.019610
H105	H	-0.012604	-1.074405	0.000131
H106	H	0.487396	-0.574405	0.500131
H107	H	-0.383827	-1.198010	0.000129
H108	H	0.116173	-0.698010	0.500129
Br109	Br	0.467943	-0.793512	0.200822
Br110	Br	0.967943	-0.293512	0.700822
Br111	Br	0.105365	-1.033119	0.406849
Br112	Br	0.605365	-0.533119	0.906849
Br113	Br	0.011926	-0.164132	0.000143
Br114	Br	0.511926	0.335868	0.500143
Br115	Br	0.061987	-1.061848	0.799366
Br116	Br	0.561987	-0.561848	1.299366
Br117	Br	-0.371256	-0.756847	0.000053
Br118	Br	0.128744	-0.256847	0.500053
Br119	Br	0.439314	-0.812528	0.799367
Br120	Br	0.939314	-0.312528	1.299367
H121	H	-0.145783	-1.201944	0.000128
H122	H	0.354217	-0.701944	0.500128
H123	H	-0.488698	-1.066524	0.000098
H124	H	0.011302	-0.566524	0.500098
Br125	Br	-0.061973	-0.761967	0.000059
Br126	Br	0.438027	-0.261967	0.500059
H127	H	0.453521	-0.673743	0.000063
H128	H	0.953521	-0.173743	0.500063
H129	H	0.507504	-0.298407	0.000079
H130	H	1.007504	0.201593	0.500079
H131	H	0.434383	-0.525272	0.000079
H132	H	0.934383	-0.025272	0.500079
Br133	Br	0.036784	-0.357041	0.000125
Br134	Br	0.536784	0.142959	0.500125
H135	H	0.022444	-0.556946	0.000110
H136	H	0.522444	-0.056946	0.500110
Br137	Br	0.547139	-0.122972	0.000095
Br138	Br	1.047139	0.377028	0.500095
Br139	Br	0.090643	-1.042844	0.200828
Br140	Br	0.590643	-0.542844	0.700828
H141	H	0.092402	-1.041723	0.617068
H142	H	0.592402	-0.541723	1.117068
H143	H	0.382810	-0.849823	0.617076
H144	H	0.882810	-0.349823	1.117076
Br145	Br	0.482678	-0.783803	0.406844
Br146	Br	0.982678	-0.283803	0.906844
H147	H	0.041574	-0.705432	0.000087
H148	H	0.541574	-0.205432	0.500087
