data_functionalizedCrystal
_audit_creation_method	'MofGen! by Chris Wilmer'
_symmetry_space_group_name_H-M	'P1'
_symmetry_Int_Tables_number	1
_symmetry_cell_setting	triclinic
loop_
_symmetry_equiv_pos_as_xyz
  x,y,z
_cell_length_a	12.759401
_cell_length_b	10.685741
_cell_length_c	10.686551
_cell_angle_alpha	90.363604
_cell_angle_beta	94.393884
_cell_angle_gamma	85.632740
loop_
_atom_site_label
_atom_site_type_symbol
_atom_site_fract_x
_atom_site_fract_y
_atom_site_fract_z
Zn1	Zn	1.682513	-0.444892	0.747565
Zn2	Zn	1.684490	-0.670794	0.553907
Zn3	Zn	1.494444	-0.461054	0.537827
Zn4	Zn	1.521253	-0.654603	0.763620
O5	O	1.595675	-0.557835	0.650730
O6	O	1.829798	-0.474870	0.721886
O7	O	1.648887	-0.656511	0.376233
O8	O	1.507345	-0.283368	0.552200
O9	O	1.831250	-0.640839	0.579607
O10	O	1.645518	-0.271494	0.706294
O11	O	1.509262	-0.502416	0.364419
O12	O	1.350978	-0.486716	0.567768
O13	O	1.553037	-0.613244	0.937032
O14	O	1.370675	-0.628916	0.733657
O15	O	1.671514	-0.459171	0.925236
O16	O	1.674883	-0.844187	0.595175
O17	O	1.554954	-0.832292	0.749250
C18	C	1.322705	-0.557814	0.650711
C19	C	1.205931	-0.557832	0.650735
C20	C	1.573221	-0.230643	0.625662
C21	C	1.563652	-0.091212	0.614980
C22	C	1.618072	-0.883753	0.675727
C23	C	1.627753	-1.023179	0.686463
C24	C	1.161354	-0.632014	0.736991
C25	C	1.051631	-0.632029	0.737005
C26	C	1.031073	-0.483677	0.564498
C27	C	1.140793	-0.483657	0.564490
C28	C	1.226491	-0.706190	0.823236
C29	C	1.181915	-0.780379	0.909497
C30	C	1.072192	-0.780394	0.909512
C31	C	1.007047	-0.706219	0.823265
C32	C	1.869711	-0.557858	0.650749
C33	C	1.986489	-0.557868	0.650758
C34	C	1.615045	-0.532598	0.977922
C35	C	1.623300	-0.521844	1.117352
C36	C	1.576434	-0.582884	0.324803
C37	C	1.568359	-0.593285	0.185347
H38	H	1.234963	-0.840760	0.979723
C39	C	1.023160	-0.861985	1.004403
H40	H	1.077671	-0.906159	1.055758
H41	H	0.980310	-0.809869	1.055471
H42	H	0.981261	-0.920287	0.960513
H43	H	1.515010	-0.662679	1.136892
H44	H	1.676661	-0.452454	1.165814
H45	H	1.501450	-0.042786	0.545600
C46	C	0.886355	-0.706206	0.823309
H47	H	0.869134	-0.761005	0.887037
H48	H	0.857282	-0.623603	0.838935
H49	H	0.858194	-0.734024	0.743982
H50	H	1.689957	-0.071602	0.755829
C51	C	0.959422	-0.402099	0.469627
H52	H	1.001686	-0.357907	0.418260
H53	H	0.916671	-0.454229	0.418569
H54	H	0.915715	-0.343813	0.513529
C55	C	1.347182	-0.706170	0.823229
H56	H	1.379593	-0.760961	0.886951
H57	H	1.368685	-0.733968	0.743893
H58	H	1.367726	-0.623561	0.838862
C59	C	1.189833	-0.402052	0.469616
H60	H	1.135327	-0.357890	0.418244
H61	H	1.231726	-0.343761	0.513514
H62	H	1.232689	-0.454167	0.418544
