data_functionalizedCrystal
_audit_creation_method	'MofGen! by Chris Wilmer'
_symmetry_space_group_name_H-M	'P1'
_symmetry_Int_Tables_number	1
_symmetry_cell_setting	triclinic
loop_
_symmetry_equiv_pos_as_xyz
  x,y,z
_cell_length_a	14.519709
_cell_length_b	17.699077
_cell_length_c	16.176319
_cell_angle_alpha	89.996839
_cell_angle_beta	90.005477
_cell_angle_gamma	83.480361
loop_
_atom_site_label
_atom_site_type_symbol
_atom_site_fract_x
_atom_site_fract_y
_atom_site_fract_z
O1	O	0.116581	1.004413	-0.068737
O2	O	0.449914	1.337746	0.264596
O3	O	0.783248	1.671080	0.597929
O4	O	0.131760	0.784077	-0.068742
O5	O	0.465093	1.117411	0.264592
O6	O	0.798426	1.450744	0.597925
O7	O	-0.010093	0.900087	-0.068732
O8	O	0.323240	1.233420	0.264601
O9	O	0.656574	1.566754	0.597935
O10	O	0.258434	0.888403	-0.068747
O11	O	0.591767	1.221737	0.264586
O12	O	0.925100	1.555070	0.597920
O13	O	-0.010067	0.900076	0.068761
O14	O	0.323266	1.233409	0.402095
O15	O	0.656599	1.566743	0.735428
O16	O	0.131785	0.784066	0.068752
O17	O	0.465119	1.117400	0.402085
O18	O	0.798452	1.450733	0.735418
O19	O	0.116607	1.004402	0.068756
O20	O	0.449940	1.337735	0.402089
O21	O	0.783273	1.671069	0.735423
Cu22	Cu	0.124198	0.894233	0.081308
Cu23	Cu	0.457532	1.227566	0.414641
Cu24	Cu	0.790865	1.560900	0.747975
Cu25	Cu	0.124168	0.894246	-0.081294
Cu26	Cu	0.457501	1.227580	0.252040
Cu27	Cu	0.790835	1.560913	0.585373
O28	O	0.258459	0.888392	0.068746
O29	O	0.591793	1.221726	0.402080
O30	O	0.925126	1.555059	0.735413
C31	C	0.131230	0.755873	0.000005
C32	C	0.464563	1.089207	0.333338
C33	C	0.797896	1.422540	0.666671
C34	C	0.129601	0.671850	0.000003
C35	C	0.462934	1.005184	0.333336
C36	C	0.796267	1.338517	0.666670
C37	C	0.128847	0.632375	0.074952
C38	C	0.462181	0.965708	0.408285
C39	C	0.795514	1.299041	0.741618
C40	C	0.127302	0.553428	0.074953
C41	C	0.460635	0.886761	0.408286
C42	C	0.793969	1.220094	0.741619
C43	C	0.126517	0.513957	0.000004
C44	C	0.459850	0.847290	0.333337
C45	C	0.793184	1.180624	0.666671
C46	C	0.127268	0.553439	-0.074950
C47	C	0.460601	0.886772	0.258383
C48	C	0.793934	1.220105	0.591717
C49	C	0.128806	0.632385	-0.074950
C50	C	0.462140	0.965718	0.258383
C51	C	0.795473	1.299051	0.591716
C52	C	0.121062	0.235057	-0.074951
C53	C	0.454395	0.568391	0.258382
C54	C	0.787728	0.901724	0.591715
C55	C	0.119526	0.156105	-0.074945
C56	C	0.452859	0.489439	0.258388
C57	C	0.786192	0.822772	0.591721
C58	C	0.119557	0.156100	0.074951
C59	C	0.452891	0.489434	0.408285
C60	C	0.786224	0.822767	0.741618
C61	C	0.121096	0.235047	0.074951
C62	C	0.454429	0.568380	0.408285
C63	C	0.787763	0.901713	0.741618
C64	C	0.121842	0.274522	-0.000002
C65	C	0.455175	0.607855	0.333331
C66	C	0.788508	0.941188	0.666664
C67	C	0.123515	0.360125	-0.000003
C68	C	0.456849	0.693458	0.333331
C69	C	0.790182	1.026792	0.666664
C70	C	0.124850	0.428354	0.000003
C71	C	0.458183	0.761688	0.333337
C72	C	0.791517	1.095021	0.666670
C73	C	-0.044438	0.899537	0.000015
C74	C	0.288896	1.232870	0.333348
C75	C	0.622229	1.566204	0.666681
C76	C	-0.146812	0.897905	0.000015
C77	C	0.186521	1.231239	0.333349
C78	C	0.519855	1.564572	0.666682
C79	C	-0.521682	0.891898	-0.000006
C80	C	-0.188349	1.225232	0.333327
C81	C	0.144985	1.558565	0.666660
C82	C	-0.417381	0.893566	-0.000000
C83	C	-0.084048	1.226900	0.333333
C84	C	0.249285	1.560233	0.666667
C85	C	-0.334250	0.894902	0.000005
C86	C	-0.000917	1.228235	0.333339
C87	C	0.332416	1.561568	0.666672
C88	C	-0.229943	0.896570	0.000010
C89	C	0.103390	1.229903	0.333343
C90	C	0.436724	1.563237	0.666677
C91	C	0.292804	0.888942	-0.000002
C92	C	0.626137	1.222276	0.333331
C93	C	0.959471	1.555609	0.666664
C94	C	0.395178	0.890574	-0.000008
C95	C	0.728512	1.223907	0.333325
C96	C	1.061845	1.557241	0.666658
C97	C	0.117137	1.032606	0.000008
C98	C	0.450470	1.365939	0.333341
C99	C	0.783803	1.699273	0.666675
C100	C	0.118766	1.116629	0.000004
C101	C	0.452099	1.449962	0.333337
C102	C	0.785432	1.783296	0.666671
N103	N	0.124219	0.894229	0.195673
N104	N	0.457552	1.227563	0.529006
N105	N	0.790886	1.560896	0.862340
N106	N	0.124140	0.894256	-0.195659
N107	N	0.457473	1.227589	0.137674
N108	N	0.790807	1.560923	0.471008
C109	C	0.068285	0.848278	0.761065
C110	C	0.401618	1.181612	1.094399
C111	C	0.734951	1.514945	1.427732
C112	C	0.068292	0.848277	0.674518
C113	C	0.401625	1.181610	1.007852
C114	C	0.734959	1.514943	1.341185
C115	C	0.124160	0.894249	0.631249
C116	C	0.457493	1.227583	0.964582
C117	C	0.790827	1.560916	1.297915
C118	C	0.180017	0.940232	0.674530
C119	C	0.513351	1.273566	1.007864
C120	C	0.846684	1.606899	1.341197
C121	C	0.180004	0.940237	0.761076
C122	C	0.513338	1.273571	1.094409
C123	C	0.846671	1.606904	1.427742
C124	C	0.180069	0.940214	0.325502
C125	C	0.513403	1.273547	0.658835
C126	C	0.846736	1.606880	0.992169
C127	C	0.180080	0.940204	0.238950
C128	C	0.513413	1.273537	0.572284
C129	C	0.846746	1.606870	0.905617
C130	C	0.068357	0.848253	0.238945
C131	C	0.401690	1.181586	0.572278
C132	C	0.735023	1.514920	0.905611
C133	C	0.068344	0.848258	0.325490
C134	C	0.401677	1.181591	0.658823
C135	C	0.735011	1.514925	0.992157
C136	C	0.124197	0.894244	0.368764
C137	C	0.457531	1.227577	0.702098
C138	C	0.790864	1.560910	1.035431
C139	C	0.124187	0.894246	0.462608
C140	C	0.457521	1.227579	0.795942
C141	C	0.790854	1.560913	1.129275
C142	C	0.124175	0.894244	0.537406
C143	C	0.457509	1.227577	0.870739
C144	C	0.790842	1.560910	1.204073
H145	H	0.129422	0.664525	-0.135981
H146	H	0.462755	0.997858	0.197352
H147	H	0.796088	1.331191	0.530686
C148	C	0.121959	0.278464	0.157392
C149	C	0.455292	0.611797	0.490725
C150	C	0.788625	0.945131	0.824058
H151	H	0.122990	0.331134	0.146657
H152	H	0.456324	0.664468	0.479990
H153	H	0.789657	0.997801	0.813324
H154	H	0.067954	0.271226	0.188191
H155	H	0.401288	0.604560	0.521525
H156	H	0.734621	0.937893	0.854858
H157	H	0.175478	0.259822	0.188184
H158	H	0.508811	0.593155	0.521517
H159	H	0.842144	0.926489	0.854850
C160	C	0.118806	0.112669	0.157400
C161	C	0.452139	0.446002	0.490734
C162	C	0.785472	0.779335	0.824067
H163	H	0.117791	0.059996	0.146671
H164	H	0.451124	0.393330	0.480004
H165	H	0.784458	0.726663	0.813337
H166	H	0.172848	0.119924	0.188145
H167	H	0.506181	0.453257	0.521478
H168	H	0.839515	0.786590	0.854812
H169	H	0.065324	0.131284	0.188245
H170	H	0.398657	0.464617	0.521578
H171	H	0.731991	0.797950	0.854911
H172	H	0.022876	0.810812	0.203700
H173	H	0.356209	1.144145	0.537034
H174	H	0.689542	1.477478	0.870367
H175	H	0.225487	0.977678	0.796310
H176	H	0.558820	1.311011	1.129643
H177	H	0.892154	1.644344	1.462976
H178	H	0.118886	0.123971	-0.135981
H179	H	0.452219	0.457304	0.197352
H180	H	0.785552	0.790637	0.530686
C181	C	0.006837	0.797701	0.808655
C182	C	0.340170	1.131034	1.141988
C183	C	0.673504	1.464368	1.475322
H184	H	-0.026431	0.770322	0.770483
H185	H	0.306902	1.103655	1.103816
H186	H	0.640236	1.436989	1.437149
H187	H	0.044683	0.762923	0.842425
H188	H	0.378016	1.096256	1.175758
H189	H	0.711349	1.429589	1.509092
H190	H	-0.035666	0.828661	0.842406
H191	H	0.297667	1.161994	1.175739
H192	H	0.631000	1.495328	1.509073
H193	H	0.022806	0.810839	0.639287
H194	H	0.356140	1.144173	0.972620
H195	H	0.689473	1.477506	1.305954
C196	C	0.126480	0.510007	0.157396
C197	C	0.459814	0.843340	0.490729
C198	C	0.793147	1.176673	0.824062
H199	H	0.127181	0.544819	0.202032
H200	H	0.460515	0.878153	0.535365
H201	H	0.793848	1.211486	0.868698
H202	H	0.072123	0.484912	0.160522
H203	H	0.405456	0.818245	0.493855
H204	H	0.738790	1.151578	0.827189
H205	H	0.179646	0.473507	0.160503
H206	H	0.512980	0.806841	0.493837
H207	H	0.846313	1.140174	0.827170
H208	H	0.022854	0.810820	0.360716
H209	H	0.356187	1.144153	0.694049
H210	H	0.689521	1.477486	1.027383
C211	C	0.129694	0.675787	0.157396
C212	C	0.463027	1.009121	0.490729
C213	C	0.796361	1.342454	0.824063
H214	H	0.129010	0.640968	0.202032
H215	H	0.462344	0.974302	0.535365
H216	H	0.795677	1.307635	0.868699
H217	H	0.184047	0.700888	0.160521
H218	H	0.517381	1.034221	0.493854
H219	H	0.850714	1.367555	0.827188
H220	H	0.076524	0.712281	0.160504
H221	H	0.409857	1.045614	0.493838
H222	H	0.743190	1.378948	0.827171
H223	H	0.225549	0.977658	0.360725
H224	H	0.558882	1.310991	0.694059
H225	H	0.892216	1.644324	1.027392
H226	H	0.121666	0.267189	-0.135983
H227	H	0.454999	0.600522	0.197350
H228	H	0.788333	0.933856	0.530683
C229	C	0.241473	0.990800	0.626936
C230	C	0.574806	1.324133	0.960269
C231	C	0.908139	1.657466	1.293602
H232	H	0.233489	0.984206	0.569194
H233	H	0.566823	1.317540	0.902527
H234	H	0.900156	1.650873	1.235861
H235	H	0.224258	1.042562	0.641107
H236	H	0.557591	1.375895	0.974441
H237	H	0.890925	1.709228	1.307774
H238	H	0.304596	0.976814	0.641136
H239	H	0.637929	1.310148	0.974469
H240	H	0.971263	1.643481	1.307803
H241	H	0.225577	0.977642	0.203722
H242	H	0.558910	1.310976	0.537056
H243	H	0.892243	1.644309	0.870389
C244	C	0.126406	0.510023	-0.157392
C245	C	0.459740	0.843356	0.175942
C246	C	0.793073	1.176690	0.509275
H247	H	0.125392	0.457350	-0.146659
H248	H	0.458726	0.790683	0.186675
H249	H	0.792059	1.124017	0.520008
H250	H	0.072895	0.528663	-0.188187
H251	H	0.406229	0.861996	0.145147
H252	H	0.739562	1.195330	0.478480
H253	H	0.180419	0.517262	-0.188187
H254	H	0.513752	0.850596	0.145146
H255	H	0.847086	1.183929	0.478480
