data_functionalizedCrystal
_audit_creation_method	'MofGen! by Chris Wilmer'
_symmetry_space_group_name_H-M	'P1'
_symmetry_Int_Tables_number	1
_symmetry_cell_setting	triclinic
loop_
_symmetry_equiv_pos_as_xyz
  x,y,z
_cell_length_a	29.839134
_cell_length_b	21.395361
_cell_length_c	21.395356
_cell_angle_alpha	90.030681
_cell_angle_beta	89.966687
_cell_angle_gamma	89.974432
loop_
_atom_site_label
_atom_site_type_symbol
_atom_site_fract_x
_atom_site_fract_y
_atom_site_fract_z
Zn1	Zn	0.686803	0.249540	-0.354411
Zn2	Zn	0.686735	0.354317	-0.249628
Zn3	Zn	0.611671	0.249548	-0.249630
Zn4	Zn	0.611648	0.354275	-0.354350
O5	O	0.649214	0.301920	-0.302005
O6	O	0.749661	0.263454	-0.340536
O7	O	0.676758	0.340440	-0.161950
O8	O	0.621676	0.161869	-0.263555
O9	O	0.749611	0.340433	-0.263552
O10	O	0.676875	0.161863	-0.340538
O11	O	0.621610	0.263466	-0.161952
O12	O	0.548801	0.263425	-0.263497
O13	O	0.621636	0.340360	-0.442036
O14	O	0.548784	0.340368	-0.340434
O15	O	0.676853	0.263413	-0.442081
O16	O	0.676736	0.441989	-0.263493
O17	O	0.621570	0.441958	-0.340432
C18	C	0.649155	0.464707	-0.301970
C19	C	0.649171	0.534349	-0.301976
C20	C	0.532492	0.301893	-0.301960
C21	C	0.482557	0.301897	-0.301955
C22	C	0.649250	0.301881	-0.465428
C23	C	0.649265	0.301864	-0.535069
C24	C	0.172914	0.342043	-0.342017
C25	C	-0.014759	0.342061	-0.342045
O26	O	-0.039023	0.376165	-0.376080
N27	N	-0.038228	0.301943	-0.302052
C28	C	-0.014776	0.261815	-0.262052
O29	O	-0.039044	0.227688	-0.228041
C30	C	0.172896	0.261795	-0.262028
C31	C	0.196363	0.301919	-0.302019
C32	C	0.196381	0.382164	-0.382005
C33	C	0.243297	0.382162	-0.381996
C34	C	0.266745	0.342038	-0.341997
C35	C	0.243279	0.301917	-0.302009
C36	C	0.196348	0.221664	-0.222031
C37	C	0.243269	0.221661	-0.222030
C38	C	0.266735	0.261786	-0.262021
C39	C	0.313643	0.261791	-0.262001
N40	N	0.337112	0.301909	-0.301994
C41	C	0.313663	0.342032	-0.341992
C42	C	-0.113306	0.261829	-0.262067
C43	C	-0.160224	0.261835	-0.262072
C44	C	-0.160204	0.342080	-0.342066
C45	C	-0.113285	0.342077	-0.342057
C46	C	-0.089837	0.301947	-0.302060
C47	C	0.412189	0.342025	-0.341968
C48	C	0.459109	0.342021	-0.341953
C49	C	0.459084	0.261773	-0.261962
C50	C	0.412169	0.261780	-0.261974
C51	C	0.388722	0.301907	-0.301983
O52	O	0.337936	0.227700	-0.227989
O53	O	0.337940	0.376144	-0.376008
C54	C	0.125999	0.342045	-0.342027
C55	C	0.102532	0.301924	-0.302038
C56	C	0.125981	0.261801	-0.262040
C57	C	0.055614	0.301930	-0.302044
C58	C	0.032166	0.342054	-0.342042
C59	C	0.055635	0.382171	-0.382035
C60	C	0.102550	0.382169	-0.382025
C61	C	0.102512	0.221683	-0.222047
C62	C	0.055596	0.221689	-0.222060
C63	C	0.032148	0.261813	-0.262058
C64	C	0.766393	0.301947	-0.302050
C65	C	0.816327	0.301959	-0.302070
C66	C	0.649286	0.138497	-0.302053
C67	C	0.649317	0.068855	-0.302074
C68	C	0.677921	0.567057	-0.261955
C69	C	0.677942	0.632493	-0.261969
C70	C	0.649204	0.665217	-0.301997
C71	C	0.620452	0.632501	-0.342026
C72	C	0.620435	0.567066	-0.342016
C73	C	0.608754	0.768926	-0.306898
C74	C	0.608770	0.834359	-0.306904
C75	C	0.649257	0.867038	-0.302034
C76	C	0.689729	0.834275	-0.297145
C77	C	0.689712	0.768841	-0.297134
C78	C	0.649220	0.736169	-0.302014
C79	C	0.678032	0.970699	-0.262026
C80	C	0.678054	1.036135	-0.262044
C81	C	0.620560	1.036142	-0.342099
C82	C	0.620542	0.970707	-0.342084
C83	C	0.649278	0.937989	-0.302044
C84	C	0.620556	0.261780	-0.567773
C85	C	0.620555	0.261768	-0.633209
C86	C	0.649270	0.301835	-0.665938
C87	C	0.677980	0.341927	-0.633226
C88	C	0.677977	0.341942	-0.567792
C89	C	0.689747	0.306766	-0.769633
C90	C	0.689750	0.306746	-0.835066
C91	C	0.649277	0.301792	-0.867759
C92	C	0.608799	0.296844	-0.835010
C93	C	0.608797	0.296859	-0.769576
C94	C	0.649275	0.301823	-0.736890
C95	C	0.620565	0.261693	-0.971415
C96	C	0.620562	0.261686	-1.036852
C97	C	0.677992	0.341841	-1.036868
C98	C	0.677990	0.341852	-0.971432
C99	C	0.649277	0.301774	-0.938710
C100	C	0.649205	0.301913	-0.139217
C101	C	0.649277	0.301753	-0.069576
H102	H	0.478213	0.374697	-0.374519
O103	O	0.708955	0.385066	-1.072162
H104	H	0.728915	0.412948	-1.038424
O105	O	0.030336	0.425494	-0.425128
H106	H	0.054533	0.453415	-0.452919
O107	O	0.030287	0.178407	-0.178925
H108	H	0.054479	0.150504	-0.151118
H109	H	0.393105	0.374699	-0.374548
O110	O	0.733407	0.312082	-0.870384
H111	H	0.738015	0.270099	-0.900206
O112	O	0.708964	0.385072	-0.936152
H113	H	0.728936	0.412926	-0.969901
O114	O	0.589561	1.071430	-0.385270
H115	H	0.609664	1.101201	-0.417180
H116	H	0.701432	0.944059	-0.229425
H117	H	0.575839	0.292832	-0.742914
O118	O	0.733403	0.312105	-0.734373
H119	H	0.761549	0.315531	-0.768137
O120	O	-0.088016	0.218549	-0.218922
H121	H	-0.066661	0.246550	-0.186995
O122	O	0.733360	0.733501	-0.291870
H123	H	0.761518	0.767212	-0.288489
H124	H	0.597129	0.944074	-0.374670
H125	H	0.701360	0.374549	-0.659878
H126	H	0.597181	0.229046	-1.063478
H127	H	0.597185	0.229060	-0.944771
H128	H	0.597023	0.540435	-0.374606
O129	O	0.565121	0.869695	-0.312177
H130	H	0.536966	0.835981	-0.315574
O131	O	0.589603	0.218517	-0.668498
H132	H	0.566730	0.246534	-0.698290
O133	O	0.589592	0.218552	-0.532478
H134	H	0.569629	0.190676	-0.566217
O135	O	0.565143	0.291498	-0.870264
H136	H	0.536999	0.288055	-0.836499
H137	H	0.701357	0.374583	-0.541164
H138	H	0.722697	0.860881	-0.293179
H139	H	0.121653	0.414843	-0.414590
O140	O	0.709069	1.071419	-0.218883
H141	H	0.688981	1.101284	-0.186987
H142	H	0.575782	0.742326	-0.310866
H143	H	0.701320	0.540420	-0.229354
O144	O	0.268605	0.425430	-0.425138
H145	H	0.244411	0.453321	-0.452955
O146	O	0.171122	0.425516	-0.425109
H147	H	0.180153	0.414891	-0.474315
O148	O	-0.087973	0.385342	-0.385198
H149	H	-0.096995	0.434505	-0.374371
O150	O	-0.185498	0.385353	-0.385214
H151	H	-0.222065	0.378607	-0.378499
H152	H	-0.179327	0.229167	-0.229501
O153	O	0.127800	0.178418	-0.178891
H154	H	0.103594	0.150533	-0.151079
H155	H	0.597055	0.659149	-0.374619
H156	H	0.262357	0.188978	-0.189462
O157	O	0.171043	0.178383	-0.178901
H158	H	0.180069	0.129226	-0.189749
O159	O	0.386853	0.218505	-0.218842
H160	H	0.411043	0.190603	-0.191029
O161	O	0.484380	0.218501	-0.218819
H162	H	0.475393	0.169342	-0.229656
H163	H	0.701356	0.659129	-0.229379
