data_functionalizedCrystal
_audit_creation_method	'MofGen! by Chris Wilmer'
_symmetry_space_group_name_H-M	'P1'
_symmetry_Int_Tables_number	1
_symmetry_cell_setting	triclinic
loop_
_symmetry_equiv_pos_as_xyz
  x,y,z
_cell_length_a	18.050591
_cell_length_b	25.639240
_cell_length_c	18.050582
_cell_angle_alpha	89.967473
_cell_angle_beta	89.978183
_cell_angle_gamma	90.028762
loop_
_atom_site_label
_atom_site_type_symbol
_atom_site_fract_x
_atom_site_fract_y
_atom_site_fract_z
Zn1	Zn	1.135276	-0.208236	-0.419984
Zn2	Zn	1.468609	0.125097	-0.086650
Zn3	Zn	1.801942	0.458431	0.246683
Zn4	Zn	1.135175	-0.295665	-0.295774
Zn5	Zn	1.468508	0.037668	0.037560
Zn6	Zn	1.801841	0.371002	0.370893
Zn7	Zn	1.011093	-0.208239	-0.295795
Zn8	Zn	1.344426	0.125094	0.037539
Zn9	Zn	1.677760	0.458427	0.370872
Zn10	Zn	1.011033	-0.295636	-0.419909
Zn11	Zn	1.344366	0.037697	-0.086576
Zn12	Zn	1.677700	0.371030	0.246758
O13	O	1.073144	-0.251944	-0.357865
O14	O	1.406477	0.081389	-0.024532
O15	O	1.739811	0.414723	0.308801
O16	O	1.239187	-0.219844	-0.403529
O17	O	1.572520	0.113489	-0.070196
O18	O	1.905853	0.446822	0.263137
O19	O	1.118698	-0.284081	-0.191852
O20	O	1.452031	0.049252	0.141482
O21	O	1.785364	0.382586	0.474815
O22	O	1.027633	-0.135074	-0.312309
O23	O	1.360967	0.198260	0.021025
O24	O	1.694300	0.531593	0.354358
O25	O	1.239113	-0.284078	-0.312273
O26	O	1.572446	0.049255	0.021061
O27	O	1.905779	0.382589	0.354394
O28	O	1.118870	-0.135071	-0.403550
O29	O	1.452203	0.198262	-0.070216
O30	O	1.785537	0.531595	0.263117
O31	O	1.027535	-0.219850	-0.191867
O32	O	1.360869	0.113484	0.141466
O33	O	1.694202	0.446817	0.474799
O34	O	0.907160	-0.219822	-0.312236
O35	O	1.240494	0.113511	0.021097
O36	O	1.573827	0.446845	0.354430
O37	O	1.027531	-0.284029	-0.523844
O38	O	1.360865	0.049304	-0.190510
O39	O	1.694198	0.382638	0.142823
O40	O	0.907116	-0.284032	-0.403423
O41	O	1.240450	0.049301	-0.070089
O42	O	1.573783	0.382635	0.263244
O43	O	1.118812	-0.219817	-0.523898
O44	O	1.452145	0.113517	-0.190565
O45	O	1.785478	0.446850	0.142768
O46	O	1.118640	-0.368826	-0.312200
O47	O	1.451973	-0.035493	0.021133
O48	O	1.785306	0.297840	0.354466
O49	O	1.027433	-0.368805	-0.403402
O50	O	1.360767	-0.035472	-0.070069
O51	O	1.694100	0.297861	0.263264
C52	C	0.880192	-0.251925	-0.357824
C53	C	1.213525	0.081409	-0.024491
C54	C	1.546859	0.414742	0.308842
C55	C	0.797646	-0.251929	-0.357824
C56	C	1.130979	0.081404	-0.024491
C57	C	1.464313	0.414738	0.308842
C58	C	1.073039	-0.387787	-0.357807
C59	C	1.406372	-0.054453	-0.024474
C60	C	1.739706	0.278880	0.308860
C61	C	1.073062	-0.445901	-0.357807
C62	C	1.406395	-0.112567	-0.024474
C63	C	1.739729	0.220766	0.308860
C64	C	0.598198	-0.216971	-0.308351
C65	C	0.931531	0.116362	0.024982
C66	C	1.264865	0.449696	0.358315
C67	C	0.548773	-0.264659	-0.290064
C68	C	0.882106	0.068675	0.043269
C69	C	1.215439	0.402008	0.376602
C70	C	0.646516	-0.251945	-0.357858
C71	C	0.979849	0.081389	-0.024524
C72	C	1.313182	0.414722	0.308809
C73	C	0.548859	-0.204274	-0.376143
C74	C	0.882193	0.129060	-0.042810
C75	C	1.215526	0.462393	0.290524
C76	C	0.500531	-0.251956	-0.357889
C77	C	0.833864	0.081377	-0.024556
C78	C	1.167197	0.414711	0.308778
C79	C	0.598178	-0.299658	-0.339535
C80	C	0.931511	0.033676	-0.006202
C81	C	1.264844	0.367009	0.327131
C82	C	0.598269	-0.239240	-0.425646
C83	C	0.931602	0.094093	-0.092312
C84	C	1.264936	0.427426	0.241021
C85	C	0.548866	-0.286961	-0.407384
C86	C	0.882199	0.046372	-0.074051
C87	C	1.215532	0.379706	0.259282
C88	C	0.730614	-0.251938	-0.357838
C89	C	1.063947	0.081396	-0.024505
C90	C	1.397281	0.414729	0.308829
C91	C	0.416434	-0.251968	-0.357909
C92	C	0.749767	0.081365	-0.024575
C93	C	1.083101	0.414698	0.308758
C94	C	1.120674	-0.806224	-0.405460
C95	C	1.454008	-0.472891	-0.072127
C96	C	1.787341	-0.139557	0.261206
C97	C	1.120696	-0.860828	-0.405475
C98	C	1.454030	-0.527495	-0.072142
C99	C	1.787363	-0.194162	0.261191
O100	O	1.161053	-0.889031	-0.445932
O101	O	1.494387	-0.555698	-0.112599
O102	O	1.827720	-0.222365	0.220735
N103	N	1.073247	-0.888183	-0.357937
N104	N	1.406580	-0.554850	-0.024604
N105	N	1.739914	-0.221516	0.308730
C106	C	1.025767	-0.860931	-0.310386
C107	C	1.359101	-0.527597	0.022947
C108	C	1.692434	-0.194264	0.356281
O109	O	0.985410	-0.889212	-0.269953
O110	O	1.318743	-0.555879	0.063380
O111	O	1.652076	-0.222545	0.396714
C112	C	1.025742	-0.806327	-0.310375
C113	C	1.359076	-0.472994	0.022958
C114	C	1.692409	-0.139661	0.356291
C115	C	1.073200	-0.778976	-0.357911
C116	C	1.406533	-0.445642	-0.024578
C117	C	1.739867	-0.112309	0.308755
C118	C	1.168128	-0.778872	-0.452993
C119	C	1.501461	-0.445539	-0.119660
C120	C	1.834794	-0.112205	0.213674
C121	C	1.168107	-0.724272	-0.452977
C122	C	1.501440	-0.390938	-0.119643
C123	C	1.834773	-0.057605	0.213690
C124	C	1.120632	-0.697023	-0.405428
C125	C	1.453966	-0.363690	-0.072094
C126	C	1.787299	-0.030356	0.261239
C127	C	1.073179	-0.724375	-0.357895
C128	C	1.406512	-0.391042	-0.024562
C129	C	1.739846	-0.057708	0.308772
C130	C	0.978260	-0.779076	-0.262828
C131	C	1.311593	-0.445743	0.070505
C132	C	1.644926	-0.112409	0.403838
C133	C	0.978238	-0.724469	-0.262822
C134	C	1.311571	-0.391136	0.070511
C135	C	1.644905	-0.057802	0.403845
C136	C	1.025696	-0.697117	-0.310358
C137	C	1.359029	-0.363784	0.022975
C138	C	1.692363	-0.030450	0.356309
C139	C	1.025683	-0.642526	-0.310330
C140	C	1.359017	-0.309193	0.023004
C141	C	1.692350	0.024141	0.356337
N142	N	1.073133	-0.615171	-0.357868
N143	N	1.406466	-0.281838	-0.024535
N144	N	1.739799	0.051496	0.308799
C145	C	1.120607	-0.642420	-0.405417
C146	C	1.453940	-0.309086	-0.072084
C147	C	1.787274	0.024247	0.261250
C148	C	1.025823	-0.975601	-0.310413
C149	C	1.359156	-0.642268	0.022920
C150	C	1.692490	-0.308935	0.356253
C151	C	1.025851	-1.030204	-0.310420
C152	C	1.359184	-0.696870	0.022914
C153	C	1.692518	-0.363537	0.356247
C154	C	1.120779	-1.030098	-0.405510
C155	C	1.454113	-0.696764	-0.072177
C156	C	1.787446	-0.363431	0.261156
C157	C	1.120754	-0.975494	-0.405499
C158	C	1.454088	-0.642161	-0.072166
C159	C	1.787421	-0.308828	0.261167
C160	C	1.073272	-0.948247	-0.357951
C161	C	1.406605	-0.614913	-0.024618
C162	C	1.739939	-0.281580	0.308715
C163	C	1.120560	-0.527755	-0.405379
C164	C	1.453893	-0.194421	-0.072045
C165	C	1.787226	0.138912	0.261288
C166	C	1.120537	-0.473149	-0.405356
C167	C	1.453870	-0.139816	-0.072023
C168	C	1.787203	0.193517	0.261311
C169	C	1.025606	-0.473260	-0.310269
C170	C	1.358939	-0.139927	0.023065
C171	C	1.692273	0.193406	0.356398
C172	C	1.025632	-0.527861	-0.310288
C173	C	1.358965	-0.194527	0.023045
C174	C	1.692298	0.138806	0.356378
C175	C	1.073111	-0.555107	-0.357849
C176	C	1.406444	-0.221773	-0.024516
C177	C	1.739778	0.111560	0.308817
O178	O	0.985345	-0.614288	-0.269896
O179	O	1.318678	-0.280955	0.063437
O180	O	1.652012	0.052378	0.396771
O181	O	1.160951	-0.614132	-0.445850
O182	O	1.494285	-0.280798	-0.112517
O183	O	1.827618	0.052535	0.220817
C184	C	1.266850	-0.251964	-0.357907
C185	C	1.600183	0.081369	-0.024574
C186	C	1.933516	0.414703	0.308760
C187	C	1.349395	-0.251973	-0.357925
C188	C	1.682729	0.081361	-0.024591
C189	C	2.016062	0.414694	0.308742
C190	C	1.073176	-0.251919	-0.551571
C191	C	1.406509	0.081414	-0.218238
C192	C	1.739843	0.414747	0.115096
C193	C	1.073190	-0.251909	-0.634117
C194	C	1.406523	0.081425	-0.300783
C195	C	1.739857	0.414758	0.032550
C196	C	1.073270	-0.115571	-0.357940
C197	C	1.406603	0.217762	-0.024607
C198	C	1.739936	0.551096	0.308727
C199	C	1.073323	-0.057457	-0.357972
C200	C	1.406656	0.275876	-0.024638
C201	C	1.739990	0.609210	0.308695
C202	C	1.023598	-0.286770	-0.882913
C203	C	1.356931	0.046563	-0.549579
C204	C	1.690265	0.379896	-0.216246
C205	C	1.005463	-0.239081	-0.833534
C206	C	1.338796	0.094252	-0.500201
C207	C	1.672130	0.427586	-0.166867
C208	C	1.073253	-0.251832	-0.931237
C209	C	1.406586	0.081502	-0.597904
C210	C	1.739919	0.414835	-0.264571
C211	C	1.091321	-0.299556	-0.833534
C212	C	1.424655	0.033777	-0.500201
C213	C	1.757988	0.367110	-0.166868
C214	C	1.073220	-0.251872	-0.785252
C215	C	1.406553	0.081461	-0.451919
C216	C	1.739887	0.414795	-0.118586
C217	C	1.055083	-0.204117	-0.882946
C218	C	1.388416	0.129217	-0.549613
C219	C	1.721750	0.462550	-0.216279
C220	C	1.140973	-0.264624	-0.882951
C221	C	1.474306	0.068709	-0.549617
C222	C	1.807639	0.402042	-0.216284
C223	C	1.122864	-0.216902	-0.833594
C224	C	1.456197	0.116431	-0.500261
C225	C	1.789530	0.449765	-0.166927
C226	C	1.073270	-0.251809	-1.015336
C227	C	1.406603	0.081524	-0.682002
C228	C	1.739936	0.414857	-0.348669
C229	C	1.073203	-0.251889	-0.701156
C230	C	1.406536	0.081444	-0.367822
C231	C	1.739870	0.414777	-0.034489
C232	C	1.073155	-0.251931	-0.164913
C233	C	1.406488	0.081402	0.168420
C234	C	1.739821	0.414736	0.501753
C235	C	1.073285	-0.251794	-0.082368
C236	C	1.406618	0.081539	0.250965
C237	C	1.739952	0.414872	0.584299
H238	H	0.619858	-0.187426	-0.266440
H239	H	0.953192	0.145907	0.066893
H240	H	1.286525	0.479240	0.400227
F241	F	0.975084	-0.444251	-0.259665
F242	F	1.308417	-0.110917	0.073668
F243	F	1.641750	0.222416	0.407001
H244	H	0.527342	-0.316576	-0.449263
H245	H	0.860675	0.016757	-0.115930
H246	H	1.194008	0.350091	0.217403
F247	F	1.171093	-0.556744	-0.455998
F248	F	1.504427	-0.223411	-0.122664
F249	F	1.837760	0.109923	0.210669
H250	H	1.198240	-0.275445	-0.904673
H251	H	1.531573	0.057888	-0.571340
H252	H	1.864907	0.391222	-0.238006
H253	H	1.206787	-0.801052	-0.491717
H254	H	1.540120	-0.467719	-0.158384
H255	H	1.873454	-0.134385	0.174949
F256	F	1.111311	-0.352287	-0.805158
F257	F	1.444645	-0.018953	-0.471824
F258	F	1.777978	0.314380	-0.138491
F259	F	1.171305	-1.059107	-0.456117
F260	F	1.504639	-0.725774	-0.122784
F261	F	1.837972	-0.392440	0.210549
F262	F	1.177733	-0.178262	-0.805466
F263	F	1.511066	0.155071	-0.472133
F264	F	1.844399	0.488404	-0.138800
H265	H	1.206749	-0.702005	-0.491687
H266	H	1.540082	-0.368671	-0.158353
H267	H	1.873415	-0.035338	0.174980
F268	F	1.171264	-0.946389	-0.456094
F269	F	1.504597	-0.613056	-0.122761
F270	F	1.837930	-0.279722	0.210573
F271	F	0.975287	-0.946607	-0.259798
F272	F	1.308620	-0.613274	0.073535
F273	F	1.641954	-0.279940	0.406868
F274	F	0.520355	-0.278715	-0.215153
F275	F	0.853689	0.054618	0.118181
F276	F	1.187022	0.387951	0.451514
F277	F	0.626373	-0.352374	-0.319251
F278	F	0.959706	-0.019040	0.014082
F279	F	1.293040	0.314293	0.347416
H280	H	0.620027	-0.228472	-0.482942
H281	H	0.953360	0.104861	-0.149608
H282	H	1.286693	0.438195	0.183725
F283	F	0.975131	-0.556972	-0.259686
F284	F	1.308465	-0.223638	0.073647
F285	F	1.641798	0.109695	0.406980
F286	F	0.520538	-0.151574	-0.396340
F287	F	0.853871	0.181759	-0.063006
F288	F	1.187204	0.515093	0.270327
H289	H	1.159185	-0.450881	-0.444065
H290	H	1.492518	-0.117548	-0.110732
H291	H	1.825852	0.215786	0.222601
H292	H	0.939615	-0.801337	-0.224119
H293	H	1.272948	-0.468003	0.109214
H294	H	1.606281	-0.134670	0.442548
F295	F	0.927699	-0.695473	-0.212214
F296	F	1.261033	-0.362140	0.121119
F297	F	1.594366	-0.028807	0.454453
F298	F	0.975350	-1.059308	-0.259816
F299	F	1.308683	-0.725974	0.073517
F300	F	1.642016	-0.392641	0.406851
F301	F	0.968691	-0.325319	-0.911222
F302	F	1.302024	0.008015	-0.577888
F303	F	1.635357	0.341348	-0.244555
F304	F	0.930590	-0.224955	-0.805163
F305	F	1.263923	0.108379	-0.471830
F306	F	1.597257	0.441712	-0.138496
F307	F	1.035003	-0.151370	-0.911193
F308	F	1.368336	0.181964	-0.577859
F309	F	1.701670	0.515297	-0.244526
