data_functionalizedCrystal
_audit_creation_method	'MofGen! by Chris Wilmer'
_symmetry_space_group_name_H-M	'P1'
_symmetry_Int_Tables_number	1
_symmetry_cell_setting	triclinic
loop_
_symmetry_equiv_pos_as_xyz
  x,y,z
_cell_length_a	14.853558
_cell_length_b	11.792241
_cell_length_c	13.930277
_cell_angle_alpha	89.995317
_cell_angle_beta	89.993309
_cell_angle_gamma	83.912275
loop_
_atom_site_label
_atom_site_type_symbol
_atom_site_fract_x
_atom_site_fract_y
_atom_site_fract_z
O1	O	1.196950	0.148131	-0.079819
O2	O	1.696950	0.648131	0.420181
O3	O	0.934558	0.165794	-0.079824
O4	O	1.434558	0.665794	0.420176
O5	O	1.072122	-0.008248	-0.079815
O6	O	1.572122	0.491752	0.420185
O7	O	1.059387	0.322173	-0.079829
O8	O	1.559387	0.822173	0.420171
O9	O	1.072103	-0.008251	0.079847
O10	O	1.572103	0.491749	0.579847
O11	O	0.934539	0.165790	0.079838
O12	O	1.434539	0.665790	0.579838
O13	O	1.196931	0.148127	0.079842
O14	O	1.696931	0.648127	0.579842
Zn15	Zn	1.065732	0.156958	0.105190
Zn16	Zn	1.565732	0.656958	0.605190
Zn17	Zn	1.065757	0.156963	-0.105172
Zn18	Zn	1.565757	0.656963	0.394828
O19	O	1.059368	0.322169	0.079833
O20	O	1.559368	0.822169	0.579833
C21	C	0.900957	0.164994	0.000006
C22	C	1.400957	0.664994	0.500006
C23	C	0.800863	0.162601	0.000005
C24	C	1.300863	0.662601	0.500005
C25	C	0.753849	0.161481	-0.087030
C26	C	1.253849	0.661481	0.412970
C27	C	0.753827	0.161463	0.087039
C28	C	1.253827	0.661463	0.587039
C29	C	0.659784	0.159209	0.087041
C30	C	1.159784	0.659209	0.587041
C31	C	0.612770	0.158089	0.000005
C32	C	1.112770	0.658089	0.500005
C33	C	0.659798	0.159223	-0.087032
C34	C	1.159798	0.659223	0.412968
C35	C	0.612750	0.158064	0.174076
C36	C	1.112750	0.658064	0.674076
C37	C	0.518702	0.155808	0.174081
C38	C	1.018702	0.655808	0.674081
C39	C	0.471685	0.154696	0.087045
C40	C	0.971685	0.654696	0.587045
C41	C	0.518719	0.155832	0.000004
C42	C	1.018719	0.655832	0.500004
C43	C	0.471705	0.154712	-0.087031
C44	C	0.971705	0.654712	0.412969
C45	C	0.518737	0.155855	-0.174072
C46	C	1.018737	0.655855	0.325928
C47	C	0.612782	0.158111	-0.174068
C48	C	1.112782	0.658111	0.325932
C49	C	0.377640	0.152440	0.087040
C50	C	0.877640	0.652440	0.587040
C51	C	0.377654	0.152454	-0.087032
C52	C	0.877654	0.652454	0.412968
C53	C	1.071312	-0.050535	0.000016
C54	C	1.571312	0.449465	0.500016
C55	C	1.068918	-0.176534	0.000015
C56	C	1.568918	0.323466	0.500015
C57	C	1.064515	-0.407219	-0.000001
C58	C	1.564515	0.092781	0.499999
C59	C	1.066961	-0.278849	0.000007
C60	C	1.566961	0.221151	0.500007
C61	C	1.230533	0.148927	0.000010
C62	C	1.730533	0.648927	0.500010
C63	C	1.330626	0.151320	0.000005
C64	C	1.830626	0.651320	0.500005
C65	C	1.060177	0.364457	0.000001
C66	C	1.560177	0.864457	0.500001
C67	C	1.062572	0.490455	-0.000005
C68	C	1.562572	0.990455	0.499995
N69	N	1.065721	0.156954	0.248756
N70	N	1.565721	0.656954	0.748756
N71	N	1.065775	0.156958	-0.248738
N72	N	1.565775	0.656958	0.251262
C73	C	1.004842	0.233998	0.701021
C74	C	1.504842	0.733998	1.201021
C75	C	1.126698	0.079919	0.700999
C76	C	1.626698	0.579919	1.200999
C77	C	1.126687	0.079915	0.600503
C78	C	1.626687	0.579915	1.100503
C79	C	1.065754	0.156956	0.550262
C80	C	1.565754	0.656956	1.050262
C81	C	1.004831	0.233999	0.600516
C82	C	1.504831	0.733999	1.100516
C83	C	1.187615	0.002881	0.550241
C84	C	1.687615	0.502881	1.050241
C85	C	1.187607	0.002875	0.449739
C86	C	1.687607	0.502875	0.949739
C87	C	1.126669	0.079911	0.399496
C88	C	1.626669	0.579911	0.899496
C89	C	1.065743	0.156957	0.449757
C90	C	1.565743	0.656957	0.949757
C91	C	1.004809	0.233997	0.399515
C92	C	1.504809	0.733997	0.899515
C93	C	0.943879	0.311038	0.449774
C94	C	1.443879	0.811038	0.949774
C95	C	0.943892	0.311035	0.550273
C96	C	1.443892	0.811035	1.050273
C97	C	1.126655	0.079914	0.298997
C98	C	1.626655	0.579914	0.798997
C99	C	1.004799	0.233998	0.299010
C100	C	1.504799	0.733998	0.799010
H101	H	0.339381	0.151549	-0.157908
H102	H	0.839381	0.651549	0.342092
C103	C	0.805584	0.162735	-0.182772
C104	C	1.305584	0.662735	0.317228
N105	N	0.844553	0.163676	-0.254885
N106	N	1.344553	0.663676	0.245115
H107	H	0.955176	0.296730	0.258110
H108	H	1.455176	0.796730	0.758110
H109	H	1.237219	-0.059857	0.408824
H110	H	1.737219	0.440143	0.908824
H111	H	1.176312	0.017200	0.741908
H112	H	1.676312	0.517200	1.241908
H113	H	0.480446	0.154937	-0.244936
H114	H	0.980446	0.654937	0.255064
C115	C	0.876855	0.395781	0.394496
C116	C	1.376855	0.895781	0.894496
N117	N	0.826373	0.459606	0.352856
N118	N	1.326373	0.959606	0.852856
C119	C	0.937815	0.318732	0.756306
C120	C	1.437815	0.818732	1.256306
N121	N	0.887328	0.382553	0.797948
N122	N	1.387328	0.882553	1.297948
H123	H	0.894286	0.373761	0.591200
H124	H	1.394286	0.873761	1.091200
C125	C	0.664462	0.159387	0.269808
C126	C	1.164462	0.659387	0.769808
N127	N	0.703412	0.160421	0.341917
N128	N	1.203412	0.660421	0.841917
C129	C	0.664525	0.159355	-0.269805
C130	C	1.164525	0.659355	0.230195
N131	N	0.703502	0.160284	-0.341913
N132	N	1.203502	0.660284	0.158087
H133	H	0.792112	0.162366	0.157899
H134	H	1.292112	0.662366	0.657899
C135	C	0.466974	0.154574	0.269828
C136	C	0.966974	0.654574	0.769828
N137	N	0.428010	0.153654	0.341945
N138	N	0.928010	0.653654	0.841945
C139	C	0.325910	0.151180	0.182780
C140	C	0.825910	0.651180	0.682780
N141	N	0.286948	0.150234	0.254896
N142	N	0.786948	0.650234	0.754896
C143	C	1.254637	-0.081858	0.605512
C144	C	1.754637	0.418142	1.105512
N145	N	1.305118	-0.145688	0.647147
N146	N	1.805118	0.354312	1.147147
C147	C	1.193675	-0.004826	0.243717
C148	C	1.693675	0.495174	0.743717
N149	N	1.244157	-0.068659	0.202081
N150	N	1.744157	0.431341	0.702081
