data_functionalizedCrystal
_audit_creation_method	'MofGen! by Chris Wilmer'
_symmetry_space_group_name_H-M	'P1'
_symmetry_Int_Tables_number	1
_symmetry_cell_setting	triclinic
loop_
_symmetry_equiv_pos_as_xyz
  x,y,z
_cell_length_a	14.519709
_cell_length_b	11.792241
_cell_length_c	10.868271
_cell_angle_alpha	90.005281
_cell_angle_beta	89.998701
_cell_angle_gamma	83.936780
loop_
_atom_site_label
_atom_site_type_symbol
_atom_site_fract_x
_atom_site_fract_y
_atom_site_fract_z
O1	O	-1.224412	-0.148781	-0.102162
O2	O	-0.974412	0.101219	0.147838
O3	O	-0.724412	0.351219	0.397838
O4	O	-0.474412	0.601219	0.647838
O5	O	-0.955999	-0.166302	-0.102200
O6	O	-0.705999	0.083698	0.147800
O7	O	-0.455999	0.333698	0.397800
O8	O	-0.205999	0.583698	0.647800
O9	O	-1.096719	0.007665	-0.102172
O10	O	-0.846719	0.257665	0.147828
O11	O	-0.596719	0.507665	0.397828
O12	O	-0.346719	0.757665	0.647828
O13	O	-1.083692	-0.322748	-0.102191
O14	O	-0.833692	-0.072748	0.147809
O15	O	-0.583692	0.177252	0.397809
O16	O	-0.333692	0.427252	0.647809
O17	O	-1.096707	0.007672	0.102473
O18	O	-0.846707	0.257672	0.352473
O19	O	-0.596707	0.507672	0.602473
O20	O	-0.346707	0.757672	0.852473
O21	O	-0.955987	-0.166295	0.102445
O22	O	-0.705987	0.083705	0.352445
O23	O	-0.455987	0.333705	0.602445
O24	O	-0.205987	0.583705	0.852445
O25	O	-1.224400	-0.148774	0.102482
O26	O	-0.974400	0.101226	0.352482
O27	O	-0.724400	0.351226	0.602482
O28	O	-0.474400	0.601226	0.852482
Zn29	Zn	-1.090192	-0.157533	0.134955
Zn30	Zn	-0.840192	0.092467	0.384955
Zn31	Zn	-0.590192	0.342467	0.634955
Zn32	Zn	-0.340192	0.592467	0.884955
Zn33	Zn	-1.090207	-0.157542	-0.134673
Zn34	Zn	-0.840207	0.092458	0.115327
Zn35	Zn	-0.590207	0.342458	0.365327
Zn36	Zn	-0.340207	0.592458	0.615327
O37	O	-1.083680	-0.322741	0.102454
O38	O	-0.833680	-0.072741	0.352454
O39	O	-0.583680	0.177259	0.602454
O40	O	-0.333680	0.427259	0.852454
C41	C	-1.095895	0.049955	0.000150
C42	C	-0.845895	0.299955	0.250150
C43	C	-0.595895	0.549955	0.500150
C44	C	-0.345895	0.799955	0.750150
C45	C	-1.093446	0.175955	0.000149
C46	C	-0.843446	0.425955	0.250149
C47	C	-0.593446	0.675955	0.500149
C48	C	-0.343446	0.925955	0.750149
C49	C	-0.921630	-0.165482	0.000117
C50	C	-0.671630	0.084518	0.250117
C51	C	-0.421630	0.334518	0.500117
C52	C	-0.171630	0.584518	0.750117
C53	C	-0.819240	-0.163035	0.000103
C54	C	-0.569240	0.086965	0.250103
C55	C	-0.319240	0.336965	0.500103
C56	C	-0.069240	0.586965	0.750103
C57	C	-1.258769	-0.149594	0.000162
C58	C	-1.008769	0.100406	0.250162
C59	C	-0.758769	0.350406	0.500162
C60	C	-0.508769	0.600406	0.750162
C61	C	-1.361159	-0.152041	0.000168
C62	C	-1.111159	0.097959	0.250168
C63	C	-0.861159	0.347959	0.500168
C64	C	-0.611159	0.597959	0.750168
C65	C	-0.444311	-0.154027	0.000160
C66	C	-0.194311	0.095973	0.250160
C67	C	0.055689	0.345973	0.500160
C68	C	0.305689	0.595973	0.750160
C69	C	-0.548628	-0.156528	0.000144
C70	C	-0.298628	0.093472	0.250144
C71	C	-0.048628	0.343472	0.500144
C72	C	0.201372	0.593472	0.750144
C73	C	-0.631772	-0.158531	0.000130
C74	C	-0.381772	0.091469	0.250130
C75	C	-0.131772	0.341469	0.500130
C76	C	0.118228	0.591469	0.750130
C77	C	-0.736096	-0.161033	0.000117
C78	C	-0.486096	0.088967	0.250117
C79	C	-0.236096	0.338967	0.500117
C80	C	0.013904	0.588967	0.750117
C81	C	-1.084504	-0.365031	0.000129
C82	C	-0.834504	-0.115031	0.250129
C83	C	-0.584504	0.134969	0.500129
C84	C	-0.334504	0.384969	0.750129
C85	C	-1.086954	-0.491031	0.000123
C86	C	-0.836954	-0.241031	0.250123
C87	C	-0.586954	0.008969	0.500123
C88	C	-0.336954	0.258969	0.750123
N89	N	-1.090188	-0.157527	0.318969
N90	N	-0.840188	0.092473	0.568969
N91	N	-0.590188	0.342473	0.818969
N92	N	-0.340188	0.592473	1.068969
C93	C	-1.088942	0.406642	0.000127
C94	C	-0.838942	0.656642	0.250127
C95	C	-0.588942	0.906642	0.500127
C96	C	-0.338942	1.156642	0.750127
C97	C	-1.091444	0.278271	0.000139
C98	C	-0.841444	0.528271	0.250139
C99	C	-0.591444	0.778271	0.500139
C100	C	-0.341444	1.028271	0.750139
N101	N	-1.090218	-0.157540	-0.318687
N102	N	-0.840218	0.092460	-0.068687
N103	N	-0.590218	0.342460	0.181313
N104	N	-0.340218	0.592460	0.431313
C105	C	-1.090202	-0.157540	0.569975
C106	C	-0.840202	0.092460	0.819975
C107	C	-0.590202	0.342460	1.069975
C108	C	-0.340202	0.592460	1.319975
C109	C	-1.090191	-0.157536	0.430298
C110	C	-0.840191	0.092464	0.680298
C111	C	-0.590191	0.342464	0.930298
C112	C	-0.340191	0.592464	1.180298
