data_functionalizedCrystal
_audit_creation_method	'MofGen! by Chris Wilmer'
_symmetry_space_group_name_H-M	'P1'
_symmetry_Int_Tables_number	1
_symmetry_cell_setting	triclinic
loop_
_symmetry_equiv_pos_as_xyz
  x,y,z
_cell_length_a	19.805407
_cell_length_b	16.959453
_cell_length_c	19.805399
_cell_angle_alpha	90.026715
_cell_angle_beta	90.017803
_cell_angle_gamma	90.017304
loop_
_atom_site_label
_atom_site_type_symbol
_atom_site_fract_x
_atom_site_fract_y
_atom_site_fract_z
Zn1	Zn	1.034766	-0.314756	0.382692
Zn2	Zn	1.034693	-0.446939	0.269505
Zn3	Zn	0.921581	-0.314772	0.269520
Zn4	Zn	0.921557	-0.446891	0.382655
O5	O	0.978149	-0.380840	0.326093
O6	O	1.129473	-0.332304	0.367686
O7	O	1.019668	-0.429433	0.174791
O8	O	0.936635	-0.204159	0.284554
O9	O	1.129420	-0.429418	0.284529
O10	O	1.019792	-0.204148	0.367701
O11	O	0.936565	-0.332331	0.174801
O12	O	0.826861	-0.332284	0.284518
O13	O	0.936595	-0.429336	0.477377
O14	O	0.826843	-0.429351	0.367639
O15	O	1.019769	-0.332258	0.477404
O16	O	1.019645	-0.557543	0.284494
O17	O	0.936524	-0.557508	0.367625
C18	C	0.802293	-0.380815	0.326077
C19	C	0.727061	-0.380823	0.326086
C20	C	0.691745	-0.330345	0.369452
C21	C	0.621057	-0.330350	0.369454
C22	C	0.585686	-0.380836	0.326094
C23	C	0.621006	-0.431316	0.282723
C24	C	0.691693	-0.431307	0.282717
C25	C	0.335933	-0.431352	0.282744
C26	C	0.265241	-0.431358	0.282754
C27	C	0.265296	-0.330394	0.369481
C28	C	0.335984	-0.330385	0.369475
C29	C	0.371298	-0.380862	0.326102
C30	C	0.447947	-0.380856	0.326099
C31	C	0.509038	-0.380847	0.326100
C32	C	0.978093	-0.586206	0.326068
C33	C	0.978130	-0.674062	0.326080
C34	C	1.021504	-1.045473	0.369469
C35	C	0.934983	-1.045602	0.282817
C36	C	0.934958	-0.963057	0.282802
C37	C	0.978206	-0.921715	0.326121
C38	C	1.021479	-0.962920	0.369457
C39	C	0.891681	-0.921846	0.239472
C40	C	0.891653	-0.839295	0.239455
C41	C	0.934905	-0.797952	0.282772
C42	C	0.978181	-0.839162	0.326109
C43	C	1.021429	-0.797821	0.369428
C44	C	1.064708	-0.839029	0.412762
C45	C	1.064731	-0.921577	0.412773
C46	C	0.934882	-0.715404	0.282761
C47	C	1.021404	-0.715267	0.369415
C48	C	1.154692	-0.380865	0.326110
C49	C	1.229924	-0.380876	0.326117
C50	C	0.978187	-0.380790	0.502636
C51	C	0.978203	-0.380769	0.577868
C52	C	0.978224	-0.174671	0.326133
C53	C	0.978256	-0.086815	0.326150
C54	C	0.978150	-0.380832	0.150237
C55	C	0.978265	-0.380631	0.075005
C56	C	1.021513	-0.330217	0.613227
C57	C	1.021520	-0.330194	0.683915
C58	C	0.978220	-0.380727	0.719244
C59	C	0.934905	-0.431281	0.683879
C60	C	0.934896	-0.431299	0.613192
C61	C	0.934944	-0.431207	0.968953
C62	C	0.934958	-0.431186	1.039645
C63	C	1.021568	-0.330102	1.039676
C64	C	1.021558	-0.330121	0.968989
C65	C	0.978241	-0.380671	0.933631
C66	C	0.978233	-0.380694	0.856983
C67	C	0.978231	-0.380709	0.795891
H68	H	0.720540	-0.289236	0.404763
C69	C	0.582213	-0.274822	0.417163
N70	N	0.552956	-0.232997	0.453099
C71	C	0.374770	-0.486881	0.235035
N72	N	0.404024	-0.528709	0.199099
H73	H	0.364779	-0.289277	0.404786
C74	C	0.582095	-0.486851	0.235025
N75	N	0.552788	-0.528683	0.199099
C76	C	0.844040	-0.793973	0.191794
N77	N	0.808175	-0.759837	0.155896
H78	H	0.236535	-0.289291	0.404795
H79	H	0.236443	-0.472472	0.247442
C80	C	1.112330	-0.966912	0.460440
N81	N	1.148179	-1.001062	0.496344
C82	C	0.730540	-0.486838	0.235013
N83	N	0.759799	-0.528665	0.199079
H84	H	1.056624	-0.681612	0.404689
H85	H	0.856469	-0.955512	0.204206
H86	H	1.099918	-0.805359	0.448036
C87	C	0.887279	-0.670079	0.235096
N88	N	0.851424	-0.635940	0.199190
H89	H	0.899695	-0.472338	1.068407
H90	H	1.056743	-1.079029	0.404749
C91	C	1.069147	-0.274625	0.574373
N92	N	1.105023	-0.232749	0.545109
C93	C	0.887465	-1.091080	0.235116
N94	N	0.851694	-1.125338	0.199165
C95	C	1.069189	-0.274528	0.930132
N96	N	1.105062	-0.232650	0.900866
C97	C	1.069166	-0.274585	0.722807
N98	N	1.105054	-0.232698	0.752100
H99	H	1.056836	-0.288939	1.068473
H100	H	0.899682	-0.472380	0.940173
H101	H	0.899621	-0.472455	0.584404
C102	C	0.887268	-0.486860	0.722743
N103	N	0.851387	-0.528723	0.752014
