data_functionalizedCrystal
_audit_creation_method	'MofGen! by Chris Wilmer'
_symmetry_space_group_name_H-M	'P1'
_symmetry_Int_Tables_number	1
_symmetry_cell_setting	triclinic
loop_
_symmetry_equiv_pos_as_xyz
  x,y,z
_cell_length_a	10.685661
_cell_length_b	16.959453
_cell_length_c	10.686551
_cell_angle_alpha	85.591100
_cell_angle_beta	80.927213
_cell_angle_gamma	85.641300
loop_
_atom_site_label
_atom_site_type_symbol
_atom_site_fract_x
_atom_site_fract_y
_atom_site_fract_z
Zn1	Zn	1.995664	-0.368937	-0.866142
Zn2	Zn	1.979221	-0.510553	-0.653868
Zn3	Zn	1.767099	-0.368974	-0.637666
Zn4	Zn	1.783355	-0.491655	-0.849831
O5	O	1.881335	-0.435030	-0.751877
O6	O	2.171109	-0.395617	-0.851590
O7	O	1.937398	-0.499697	-0.474089
O8	O	1.797498	-0.258360	-0.668020
O9	O	2.159029	-0.499661	-0.695633
O10	O	1.965423	-0.258333	-0.835880
O11	O	1.781553	-0.395679	-0.462186
O12	O	1.591629	-0.377354	-0.652204
O13	O	1.825202	-0.467452	-1.029624
O14	O	1.603572	-0.467488	-0.808081
O15	O	1.981185	-0.377292	-1.041607
O16	O	1.953160	-0.618656	-0.679817
O17	O	1.809258	-0.604771	-0.823790
C18	C	1.551544	-0.420375	-0.726615
C19	C	1.410461	-0.414123	-0.715838
C20	C	1.881225	-0.640394	-0.751822
C21	C	1.881298	-0.728252	-0.751850
C22	C	1.968890	-1.099654	-0.839443
C23	C	1.794149	-1.099810	-0.664526
C24	C	1.794100	-1.017264	-0.664494
C25	C	1.881445	-0.975908	-0.751938
C26	C	1.968840	-1.017099	-0.839415
C27	C	1.706698	-0.976066	-0.577027
C28	C	1.706644	-0.893514	-0.576991
C29	C	1.793997	-0.852157	-0.664431
C30	C	1.881396	-0.893354	-0.751910
C31	C	1.968742	-0.851998	-0.839355
C32	C	2.056148	-0.893193	-0.926830
C33	C	2.056193	-0.975743	-0.926855
C34	C	1.793952	-0.769608	-0.664406
C35	C	1.968693	-0.769443	-0.839327
C36	C	2.212413	-0.449743	-0.777238
C37	C	2.353499	-0.456013	-0.788045
C38	C	1.906841	-0.420260	-1.082961
C39	C	1.917711	-0.413966	-1.224049
C40	C	1.881481	-0.228865	-0.751962
C41	C	1.881544	-0.141009	-0.751998
C42	C	1.856001	-0.449689	-0.422086
C43	C	1.845377	-0.455771	-0.281017
H44	H	1.351295	-0.373470	-0.645782
H45	H	1.775138	-0.496380	-1.221853
C46	C	1.621218	-0.778057	-0.491530
C47	C	1.697880	-0.724326	-0.568269
H48	H	1.561909	-0.750101	-0.432173
H49	H	1.576908	-0.805637	-0.543091
H50	H	1.672850	-0.814866	-0.447266
H51	H	1.646249	-0.687521	-0.612540
H52	H	1.742194	-0.696733	-0.516701
H53	H	1.412672	-0.496661	-0.858117
H54	H	2.039825	-0.735777	-0.910531
H55	H	1.987963	-0.373360	-1.283221
H56	H	2.127261	-0.859512	-0.998033
C57	C	2.086856	-1.061681	-1.098978
C58	C	2.152243	-1.021031	-1.023011
H59	H	2.146149	-1.089639	-1.158346
H60	H	2.034850	-1.098113	-1.046894
H61	H	2.035240	-1.024854	-1.143229
H62	H	2.203852	-1.057858	-0.978753
H63	H	2.204271	-0.984595	-1.075102
C64	C	1.999590	-1.185594	-1.011571
C65	C	2.064954	-1.144934	-0.935597
H66	H	2.058897	-1.213545	-1.070938
H67	H	1.947593	-1.222033	-0.959493
H68	H	1.947967	-1.148774	-1.055825
H69	H	2.116570	-1.181755	-0.891336
H70	H	2.116973	-1.108491	-0.987682
H71	H	1.635583	-1.009743	-0.505837
C72	C	1.716647	-1.226423	-0.586903
C73	C	1.698147	-1.145267	-0.568406
H74	H	1.657383	-1.254487	-0.527551
H75	H	1.704566	-1.235300	-0.670739
H76	H	1.800537	-1.244522	-0.574942
H77	H	1.614260	-1.127166	-0.580377
H78	H	1.710218	-1.136385	-0.484551
H79	H	1.635475	-0.859978	-0.505764
