data_functionalizedCrystal
_audit_creation_method	'MofGen! by Chris Wilmer'
_symmetry_space_group_name_H-M	'P1'
_symmetry_Int_Tables_number	1
_symmetry_cell_setting	triclinic
loop_
_symmetry_equiv_pos_as_xyz
  x,y,z
_cell_length_a	10.489716
_cell_length_b	10.489716
_cell_length_c	9.730223
_cell_angle_alpha	90.002678
_cell_angle_beta	90.000146
_cell_angle_gamma	84.529136
loop_
_atom_site_label
_atom_site_type_symbol
_atom_site_fract_x
_atom_site_fract_y
_atom_site_fract_z
O1	O	1.694049	0.179815	-0.114265
O2	O	1.322848	0.196741	-0.114269
O3	O	1.516911	0.002677	-0.114272
O4	O	1.499985	0.373879	-0.114262
O5	O	1.516909	0.002682	0.114308
O6	O	1.322845	0.196746	0.114311
O7	O	1.694046	0.179820	0.114315
Zn8	Zn	1.508446	0.188284	0.150605
Zn9	Zn	1.508448	0.188277	-0.150559
O10	O	1.499983	0.373884	0.114317
C11	C	1.275314	0.195472	0.000020
C12	C	1.133684	0.191667	0.000018
C13	C	1.035999	0.310673	0.000018
C14	C	0.958658	0.247790	0.112724
C15	C	0.958667	0.247757	-0.112638
C16	C	1.058208	0.128834	0.112817
C17	C	1.058222	0.128818	-0.112646
C18	C	0.980929	0.065848	0.000088
C19	C	1.515638	-0.044852	0.000014
C20	C	1.511833	-0.186483	0.000001
C21	C	1.630839	-0.284167	0.000015
C22	C	1.567955	-0.361525	-0.112684
C23	C	1.567925	-0.361484	0.112678
C24	C	1.448999	-0.261975	-0.112791
C25	C	1.448987	-0.261929	0.112672
C26	C	1.386015	-0.339237	-0.000054
C27	C	1.741580	0.181089	0.000022
C28	C	1.883210	0.184894	0.000015
C29	C	1.501256	0.421413	0.000029
C30	C	1.505061	0.563044	0.000032
N31	N	1.508453	0.188287	0.356141
N32	N	1.508451	0.188264	-0.356096
C33	C	1.594406	0.102386	0.428066
C34	C	1.594403	0.102370	0.571949
C35	C	1.422488	0.274170	0.571969
C36	C	1.422487	0.274178	0.428089
C37	C	1.680373	0.016495	0.356118
C38	C	1.766334	-0.069413	0.428043
C39	C	1.766331	-0.069428	0.571926
C40	C	1.680366	0.016464	0.643884
H41	H	0.915179	0.298016	-0.207908
C42	C	1.653535	-0.104003	0.849969
C43	C	1.680353	0.016441	0.802043
H44	H	1.653537	-0.104015	0.947608
H45	H	1.571861	-0.122233	0.817413
H46	H	1.717036	-0.167442	0.817405
H47	H	1.616846	0.079880	0.834599
H48	H	1.762039	0.034686	0.834614
C49	C	1.016869	0.513291	-0.116655
C50	C	1.069313	0.450408	0.000164
H51	H	1.037433	0.599556	-0.116553
H52	H	1.051133	0.471189	-0.196807
H53	H	0.926468	0.511792	-0.115818
H54	H	1.159716	0.451899	-0.000678
H55	H	1.035054	0.492522	0.080336
C56	C	1.682256	-0.323003	-0.320060
C57	C	1.635773	-0.420258	-0.241304
H58	H	1.724136	-0.359264	-0.399455
H59	H	1.612927	-0.263438	-0.347154
H60	H	1.741246	-0.280366	-0.266985
H61	H	1.576775	-0.462890	-0.294376
H62	H	1.705111	-0.479846	-0.214212
C63	C	0.767061	0.310257	0.240576
C64	C	0.899929	0.315613	0.241344
H65	H	0.730808	0.352130	0.319979
H66	H	0.731663	0.351662	0.160549
H67	H	0.748606	0.223339	0.240704
H68	H	0.918384	0.402531	0.241206
H69	H	0.935339	0.274210	0.321393
H70	H	1.680386	0.016502	0.238961
C71	C	1.249681	0.065344	0.240451
C72	C	1.116674	0.061070	0.241587
H73	H	1.285773	0.023519	0.319952
H74	H	1.284620	0.023375	0.160524
H75	H	1.268853	0.152042	0.240128
H76	H	1.097503	-0.025629	0.241900
H77	H	1.081724	0.103036	0.321535
C78	C	1.249140	0.300179	0.266294
C79	C	1.328004	0.368604	0.349023
H80	H	1.190802	0.358474	0.217490
H81	H	1.300331	0.249038	0.202859
H82	H	1.202786	0.246635	0.322435
H83	H	1.374365	0.422141	0.292880
H84	H	1.276807	0.419767	0.412465
C85	C	0.998667	-0.135996	0.118265
C86	C	0.947943	-0.073991	0.000169
H87	H	0.978291	-0.222323	0.118321
H88	H	1.089034	-0.134299	0.119007
H89	H	0.963056	-0.093428	0.197560
H90	H	0.983561	-0.116555	-0.079126
H91	H	0.857557	-0.075697	-0.000585
H92	H	1.398790	-0.218669	-0.208175
H93	H	1.101723	0.078618	-0.207936
H94	H	1.734354	-0.259500	-0.000098
C95	C	1.249156	0.300155	0.733796
C96	C	1.328011	0.368584	0.651068
H97	H	1.190837	0.358448	0.782632
H98	H	1.202791	0.246630	0.677661
H99	H	1.300364	0.248995	0.797215
H100	H	1.276803	0.419737	0.587641
H101	H	1.374379	0.422131	0.707208
H102	H	1.618186	-0.404959	0.207954
H103	H	1.836315	-0.139386	0.630485
H104	H	1.282422	-0.363659	-0.000116
H105	H	1.398792	-0.218404	0.207955
H106	H	1.836317	-0.139351	0.369447
