data_functionalizedCrystal
_audit_creation_method	'MofGen! by Chris Wilmer'
_symmetry_space_group_name_H-M	'P1'
_symmetry_Int_Tables_number	1
_symmetry_cell_setting	triclinic
loop_
_symmetry_equiv_pos_as_xyz
  x,y,z
_cell_length_a	6.817900
_cell_length_b	13.167930
_cell_length_c	11.102228
_cell_angle_alpha	97.925432
_cell_angle_beta	71.395435
_cell_angle_gamma	74.245432
loop_
_atom_site_label
_atom_site_type_symbol
_atom_site_fract_x
_atom_site_fract_y
_atom_site_fract_z
V1	V	4.107362	-0.148897	-0.413816
O2	O	4.070749	0.007153	-0.387870
O3	O	4.080057	-0.295235	-0.428363
O4	O	4.084201	-0.146607	-0.586367
O5	O	4.066576	-0.142503	-0.228772
V6	V	4.584987	-0.130231	-0.389572
O7	O	4.381560	-0.189841	-0.466996
O8	O	4.760986	-0.089287	-0.336391
O9	O	4.389086	0.016107	-0.375025
O10	O	4.738997	-0.286280	-0.415518
O11	O	4.743170	-0.136624	-0.574615
O12	O	4.384941	-0.132520	-0.217021
C13	C	3.929373	-0.330909	-0.426319
C14	C	3.988502	-0.450542	-0.439363
C15	C	3.934658	-0.141318	-0.627867
C16	C	3.997145	-0.140415	-0.769042
C17	C	3.980163	-0.644608	-0.227455
C18	C	4.035718	-0.757014	-0.239705
C19	C	4.155180	-0.787760	-0.476113
C20	C	4.099626	-0.675355	-0.463863
C21	C	4.012114	-0.603782	-0.339530
C22	C	3.956545	-0.491375	-0.327280
C23	C	4.076022	-0.522123	-0.563688
C24	C	4.131576	-0.634528	-0.575938
C25	C	4.083916	-0.238541	-0.865139
C26	C	4.142640	-0.237690	-0.997788
C27	C	4.027804	-0.040577	-0.938229
C28	C	3.969095	-0.041430	-0.805584
C29	C	4.203112	0.051775	-0.377066
C30	C	4.123223	0.171407	-0.364030
C31	C	4.197826	-0.137813	-0.175515
C32	C	4.114577	-0.138711	-0.034337
H33	H	3.885277	-0.433101	-0.226041
O34	O	3.895278	-0.575232	-0.106590
C35	C	3.878932	-0.635369	-0.010291
H36	H	3.999889	-0.721909	-0.056104
H37	H	3.704649	-0.637765	0.030913
C38	C	3.784553	-0.474633	0.157394
C39	C	3.933128	-0.580920	0.101128
H40	H	3.817972	-0.441045	0.226126
H41	H	3.795556	-0.434116	0.092517
H42	H	3.639329	-0.476644	0.191721
H43	H	4.078344	-0.578907	0.066788
H44	H	3.922150	-0.621436	0.166002
O45	O	3.884737	0.053997	-0.712389
C46	C	3.872601	0.141545	-0.773083
H47	H	3.867417	0.115133	-0.873899
H48	H	4.023014	0.167209	-0.784289
C49	C	3.669533	0.270629	-0.564235
C50	C	3.663146	0.238192	-0.688055
H51	H	3.540338	0.330248	-0.511784
H52	H	3.677715	0.211647	-0.523343
H53	H	3.794886	0.292008	-0.573591
H54	H	3.537811	0.216801	-0.678698
H55	H	3.654938	0.297173	-0.728943
H56	H	4.226468	-0.846054	-0.577341
H57	H	4.009697	-0.790249	-0.148442
O58	O	4.216937	-0.704026	-0.696750
C59	C	4.414357	-0.691098	-0.772327
H60	H	4.486237	-0.654838	-0.704447
H61	H	4.379852	-0.634262	-0.837417
C62	C	4.491239	-0.847266	-0.942023
C63	C	4.579532	-0.802740	-0.858651
H64	H	4.593125	-0.916130	-0.995276
H65	H	4.358229	-0.855974	-0.891108
H66	H	4.462487	-0.799892	-0.996252
H67	H	4.608256	-0.850107	-0.804412
H68	H	4.712551	-0.794042	-0.909559
H69	H	4.102028	-0.488872	-0.654948
O70	O	4.227292	-0.332992	-1.091197
C71	C	4.439364	-0.343495	-1.176474
H72	H	4.511189	-0.291394	-1.124319
H73	H	4.428949	-0.315220	-1.267480
C74	C	4.499852	-0.527534	-1.281199
C75	C	4.588076	-0.463550	-1.217138
H76	H	4.591584	-0.601590	-1.306289
H77	H	4.356972	-0.520458	-1.223750
H78	H	4.491176	-0.503959	-1.357030
H79	H	4.596724	-0.487117	-1.141300
H80	H	4.730961	-0.470633	-1.274575
H81	H	4.106760	-0.319141	-0.835393
H82	H	4.004971	0.040013	-0.967999
