data_functionalizedCrystal
_audit_creation_method	'MofGen! by Chris Wilmer'
_symmetry_space_group_name_H-M	'P1'
_symmetry_Int_Tables_number	1
_symmetry_cell_setting	triclinic
loop_
_symmetry_equiv_pos_as_xyz
  x,y,z
_cell_length_a	18.760490
_cell_length_b	20.875652
_cell_length_c	20.875641
_cell_angle_alpha	64.820057
_cell_angle_beta	90.019007
_cell_angle_gamma	57.614107
loop_
_atom_site_label
_atom_site_type_symbol
_atom_site_fract_x
_atom_site_fract_y
_atom_site_fract_z
Zr1	Zr	0.660368	0.698227	-0.056429
O2	O	0.545245	0.825083	-0.150749
O3	O	0.699587	0.566301	-0.030806
O4	O	0.699583	0.690972	-0.155478
O5	O	0.540785	0.707902	0.076011
O6	O	0.816859	0.691017	-0.155465
O7	O	0.545249	0.700412	-0.026076
O8	O	0.816867	0.468003	0.067551
O9	O	0.540777	0.930917	-0.147005
O10	O	0.799090	0.622475	-0.015891
O11	O	0.708236	0.628032	0.060285
O12	O	0.708231	0.774817	-0.086500
O13	O	0.617377	0.780373	-0.010323
Zr14	Zr	0.840289	0.710245	0.106411
Zr15	Zr	0.847410	0.698298	-0.056407
Zr16	Zr	0.653247	0.710174	0.106389
Zr17	Zr	0.653242	0.867020	-0.050458
Zr18	Zr	0.847415	0.541453	0.100439
O19	O	0.801070	0.842171	0.080788
O20	O	0.811194	0.825184	-0.150718
O21	O	0.535120	0.842070	0.080757
O22	O	0.955412	0.583389	0.200731
O23	O	0.965536	0.566402	-0.030775
O24	O	0.689462	0.583288	0.200700
O25	O	0.959872	0.700570	-0.026029
O26	O	0.801074	0.717500	0.205460
O27	O	0.683798	0.717455	0.205446
O28	O	0.955408	0.708060	0.076058
O29	O	0.689450	0.930973	-0.146988
O30	O	0.811207	0.477499	0.196970
O31	O	0.959880	0.477555	0.196987
O32	O	0.965540	0.468059	0.067568
O33	O	0.535117	0.940413	-0.017586
O34	O	0.683790	0.940470	-0.017569
O35	O	0.792426	0.633656	0.136482
O36	O	0.883280	0.628099	0.060305
O37	O	0.792421	0.780440	-0.010303
O38	O	0.701567	0.785997	0.065873
C39	C	0.759242	0.493102	0.017522
C40	C	0.762267	0.421446	0.014987
C41	C	0.784390	0.017793	-0.003577
C42	C	0.781542	0.085124	-0.001193
C43	C	0.732698	0.121682	0.039767
C44	C	0.686692	0.090913	0.078340
C45	C	0.689535	0.023588	0.075952
C46	C	0.719104	0.323351	0.051172
C47	C	0.716266	0.390679	0.053559
C48	C	0.811116	0.384886	-0.025976
C49	C	0.813959	0.317557	-0.028357
C50	C	0.767949	0.286796	0.010212
N51	N	0.729788	0.190503	0.042207
N52	N	0.770855	0.217981	0.007768
C53	C	0.516367	0.704147	0.024964
C54	C	0.436963	0.704117	0.024955
C55	C	0.103424	0.700204	-0.031224
C56	C	0.098621	0.708458	0.081263
C57	C	0.173269	0.708412	0.081249
C58	C	0.213000	0.704260	0.024998
C59	C	0.178081	0.700155	-0.031239
C60	C	0.208199	0.712508	0.137489
C61	C	0.282853	0.712461	0.137478
C62	C	0.322581	0.708316	0.081223
C63	C	0.287657	0.704212	0.024984
C64	C	0.327387	0.700060	-0.031267
C65	C	0.292462	0.695962	-0.087510
C66	C	0.217809	0.696010	-0.087493
C67	C	0.397233	0.708268	0.081206
C68	C	0.402045	0.700012	-0.031282
C69	C	0.984289	0.704325	0.025018
C70	C	1.063694	0.704355	0.025027
C71	C	0.759235	0.689292	-0.178669
C72	C	0.762258	0.684221	-0.247790
C73	C	0.741415	0.915370	0.032460
C74	C	0.738390	0.987026	0.034995
C75	C	0.716252	0.761357	-0.317120
C76	C	0.719104	0.756586	-0.382063
C77	C	0.767957	0.674679	-0.377675
C78	C	0.813968	0.597537	-0.308338
C79	C	0.811121	0.602308	-0.243396
C80	C	0.781563	0.651881	-0.567949
C81	C	0.784404	0.647115	-0.632898
C82	C	0.689541	0.806165	-0.706620
C83	C	0.686694	0.810929	-0.641673
C84	C	0.732709	0.733788	-0.572341
N85	N	0.770871	0.669800	-0.444057
N86	N	0.729800	0.738667	-0.505961
C87	C	0.741422	0.719180	0.228651
C88	C	0.738399	0.724251	0.297772
C89	C	0.993203	0.493192	0.017549
C90	C	1.075632	0.421565	0.015023
C91	C	0.750335	0.508046	0.221182
C92	C	0.750338	0.441461	0.287768
C93	C	0.984296	0.508135	0.221209
C94	C	1.063703	0.441580	0.287804
C95	C	0.516361	0.900337	-0.171227
C96	C	0.436954	0.966892	-0.237822
C97	C	0.507454	0.915281	0.032433
C98	C	0.425024	0.986907	0.034959
C99	C	0.750322	0.900426	-0.171200
C100	C	0.750319	0.967011	-0.237786
C101	C	1.070396	0.384992	-0.025944
C102	C	1.147840	0.317700	-0.028332
C103	C	1.230520	0.286977	0.010251
C104	C	1.235754	0.323556	0.051220
C105	C	1.158311	0.390852	0.053603
C106	C	0.794285	0.413128	0.358818
C107	C	0.794283	0.350574	0.421389
C108	C	0.750339	0.316350	0.412908
C109	C	0.706386	0.344689	0.341850
C110	C	0.706383	0.407246	0.279281
C111	C	1.148425	0.407425	0.279314
C112	C	1.223043	0.344898	0.341880
C113	C	1.212937	0.316524	0.412936
C114	C	1.128205	0.350686	0.421425
C115	C	1.053589	0.413216	0.358859
C116	C	0.352231	1.001056	-0.229331
C117	C	0.277612	1.063603	-0.291897
C118	C	0.287719	1.091981	-0.362953
C119	C	0.372451	1.057814	-0.371442
C120	C	0.447067	0.995273	-0.308877
C121	C	0.430261	1.023486	0.075919
C122	C	0.352816	1.090796	0.078290
C123	C	0.270137	1.121521	0.039705
C124	C	0.264902	1.084939	-0.001261
C125	C	0.342346	1.017635	-0.003635
C126	C	0.794272	1.001216	-0.229281
C127	C	0.794287	1.063771	-0.291839
C128	C	0.750343	1.092125	-0.362902
C129	C	0.706389	1.057914	-0.371405
C130	C	0.706380	0.995355	-0.308848
H131	H	0.824169	-0.011972	-0.036928
C132	C	1.326711	0.289744	0.093664
N133	N	1.395222	0.264270	0.125638
C134	C	0.638936	0.891015	-0.782887
N135	N	0.600822	0.954928	-0.840333
H136	H	1.143561	0.287925	-0.061693
H137	H	0.343985	0.977954	-0.171480
H138	H	0.818999	0.110174	-0.032602
C139	C	0.435646	0.712778	0.143068
N140	N	0.464576	0.716180	0.189664
H141	H	0.848584	0.539496	-0.186944
H142	H	0.681643	0.819398	-0.438513
C143	C	1.315703	0.212943	0.007628
N144	N	1.379859	0.157178	0.005652
H145	H	1.162587	0.420621	0.086967
H146	H	0.670585	0.967512	-0.315783
H147	H	1.156671	0.430517	0.221462
H148	H	0.819032	0.589067	-0.511505
C149	C	1.316240	0.307323	0.332526
N150	N	1.386434	0.279021	0.325478
H151	H	1.273701	0.265608	0.463875
H152	H	0.207084	1.176325	0.041644
H153	H	0.830069	0.440987	0.365738
H154	H	0.824186	0.580413	-0.629318
C155	C	0.750360	0.247526	0.481743
N156	N	0.750384	0.195684	0.533592
H157	H	0.197574	1.109966	-0.032676
H158	H	1.119989	0.327574	0.479287
C159	C	0.321273	0.716954	0.199353
N160	N	0.350215	0.720333	0.245960
C161	C	0.336571	0.977395	-0.048688
N162	N	0.332215	0.947088	-0.082622
H163	H	0.074983	0.696871	-0.077018
H164	H	0.646916	0.877627	-0.645254
C165	C	0.960395	0.450778	0.368211
N166	N	0.890202	0.479069	0.375260
C167	C	0.179392	0.691492	-0.149350
N168	N	0.150455	0.688084	-0.195938
H169	H	0.750357	1.143065	-0.413834
H170	H	0.670608	0.316814	0.334956
H171	H	0.830077	0.327508	0.479240
C172	C	0.658046	0.438396	0.201127
N173	N	0.621638	0.461853	0.142261
C174	C	0.979456	0.418779	-0.068397
N175	N	0.910962	0.444228	-0.100380
C176	C	0.184415	1.101173	-0.282543
N177	N	0.114222	1.129469	-0.275495
H178	H	0.853750	0.530846	-0.304770
H179	H	0.226954	1.142906	-0.413892
H180	H	0.380669	1.080928	-0.429303
H181	H	0.516051	0.967457	-0.315798
C182	C	0.662510	0.851462	-0.321956
N183	N	0.622034	0.919332	-0.325602
H184	H	0.670612	1.081010	-0.429272
H185	H	0.830056	0.978140	-0.171424
H186	H	0.497575	0.998476	0.107346
C187	C	0.842637	1.101397	-0.282469
N188	N	0.879053	1.129735	-0.275409
C189	C	0.867664	0.277371	-0.073441
N190	N	0.908107	0.247109	-0.107405
H191	H	0.357095	1.120571	0.111652
H192	H	0.848574	0.409939	-0.057379
H193	H	0.676481	0.420450	0.086909
H194	H	0.681642	0.298312	0.082580
H195	H	0.646917	0.120688	0.111688
H196	H	0.652074	-0.001460	0.107360
H197	H	0.434386	0.696636	-0.077090
H198	H	0.066273	0.711831	0.127064
C199	C	0.164537	0.716997	0.199396
N200	N	0.131662	0.720354	0.246038
C201	C	0.336183	0.691383	-0.149378
N202	N	0.369118	0.687930	-0.195974
