data_functionalizedCrystal
_audit_creation_method	'MofGen! by Chris Wilmer'
_symmetry_space_group_name_H-M	'P1'
_symmetry_Int_Tables_number	1
_symmetry_cell_setting	triclinic
loop_
_symmetry_equiv_pos_as_xyz
  x,y,z
_cell_length_a	14.908618
_cell_length_b	14.908932
_cell_length_c	14.908308
_cell_angle_alpha	90.209830
_cell_angle_beta	90.173623
_cell_angle_gamma	90.194494
loop_
_atom_site_label
_atom_site_type_symbol
_atom_site_fract_x
_atom_site_fract_y
_atom_site_fract_z
Zn1	Zn	-1.320077	-0.467744	0.559236
Zn2	Zn	-0.820077	0.032256	1.059236
Zn3	Zn	-1.321014	-0.609501	0.400274
Zn4	Zn	-0.821014	-0.109501	0.900274
Zn5	Zn	-1.179320	-0.450525	0.401274
Zn6	Zn	-0.679320	0.049475	0.901274
Zn7	Zn	-1.162100	-0.608432	0.541987
Zn8	Zn	-0.662100	-0.108432	1.041987
O9	O	-1.245628	-0.534051	0.475693
O10	O	-0.745628	-0.034051	0.975693
O11	O	-1.445614	-0.494202	0.544949
O12	O	-0.945614	0.005798	1.044949
O13	O	-1.309818	-0.581655	0.274993
O14	O	-0.809818	-0.081655	0.774993
O15	O	-1.204806	-0.327399	0.429866
O16	O	-0.704806	0.172601	0.929866
O17	O	-1.446303	-0.598350	0.428161
O18	O	-0.946303	-0.098350	0.928161
O19	O	-1.308219	-0.340049	0.545919
O20	O	-0.808219	0.159951	1.045919
O21	O	-1.205716	-0.464856	0.275727
O22	O	-0.705716	0.035144	0.775727
O23	O	-1.051623	-0.463819	0.413140
O24	O	-0.551623	0.036181	0.913140
O25	O	-1.175457	-0.596528	0.669689
O26	O	-0.675457	-0.096528	1.169689
O27	O	-1.038971	-0.579832	0.516521
O28	O	-0.538971	-0.079832	1.016521
O29	O	-1.291521	-0.493165	0.682362
O30	O	-0.791521	0.006835	1.182362
O31	O	-1.293120	-0.734770	0.411436
O32	O	-0.793120	-0.234770	0.911436
O33	O	-1.176366	-0.733984	0.515551
O34	O	-0.676366	-0.233984	1.015551
C35	C	-1.012779	-0.519841	0.463068
C36	C	-0.512779	-0.019841	0.963068
C37	C	-0.913162	-0.513785	0.457687
C38	C	-0.413162	-0.013785	0.957687
C39	C	-1.232999	-0.766897	0.461534
C40	C	-0.732999	-0.266897	0.961534
C41	C	-1.227677	-0.866517	0.455511
C42	C	-0.727677	-0.366517	0.955511
C43	C	-0.712847	-0.623380	0.555060
C44	C	-0.212847	-0.123380	1.055060
C45	C	-0.619248	-0.617692	0.550007
C46	C	-0.119248	-0.117692	1.050007
C47	C	-0.632364	-0.496720	0.442533
C48	C	-0.132364	0.003280	0.942533
C49	C	-0.725963	-0.502407	0.447586
C50	C	-0.225963	-0.002407	0.947586
C51	C	-0.766201	-0.565740	0.503850
C52	C	-0.266201	-0.065740	1.003850
C53	C	-0.859801	-0.571431	0.508898
C54	C	-0.359801	-0.071431	1.008898
C55	C	-0.872916	-0.450455	0.401429
C56	C	-0.372916	0.049545	0.901429
C57	C	-0.779317	-0.444768	0.396376
C58	C	-0.279317	0.055232	0.896376
C59	C	-1.231464	-0.546648	0.709453
C60	C	-0.731464	-0.046648	1.209453
C61	C	-1.225428	-0.552016	0.809068
C62	C	-0.725428	-0.052016	1.309068
C63	C	-0.479387	-0.548309	0.488362
C64	C	0.020613	-0.048309	0.988362
C65	C	-0.579003	-0.554366	0.493744
C66	C	-0.079003	-0.054366	0.993744
C67	C	-1.258329	-0.300297	0.489928
C68	C	-0.758329	0.199703	0.989928
C69	C	-1.263741	-0.200686	0.495994
C70	C	-0.763741	0.299314	0.995994
C71	C	-1.166207	-0.000329	0.386548
C72	C	-0.666207	0.499671	0.886548
C73	C	-1.171289	0.093266	0.392244
C74	C	-0.671289	0.593266	0.892244
C75	C	-1.278984	0.080100	0.513087
C76	C	-0.778984	0.580100	1.013087
C77	C	-1.273901	-0.013495	0.507391
C78	C	-0.773901	0.486505	1.007391
C79	C	-1.217512	-0.053706	0.444118
C80	C	-0.717512	0.446294	0.944118
C81	C	-1.212435	-0.147302	0.438418
C82	C	-0.712435	0.352698	0.938418
C83	C	-1.320123	-0.160466	0.559264
C84	C	-0.820123	0.339534	1.059264
C85	C	-1.325206	-0.066871	0.564961
C86	C	-0.825206	0.433129	1.064961
C87	C	-1.259792	-0.521441	0.242848
C88	C	-0.759792	-0.021441	0.742848
C89	C	-1.266015	-0.515831	0.143259
C90	C	-0.766015	-0.015831	0.643259
C91	C	-1.334942	-0.454450	1.009454
C92	C	-0.834942	0.045550	1.509454
C93	C	-1.329274	-0.459491	1.103051
C94	C	-0.829274	0.040509	1.603051
C95	C	-1.208419	-0.567133	1.089862
C96	C	-0.708419	-0.067133	1.589862
C97	C	-1.214087	-0.562092	0.996265
C98	C	-0.714087	-0.062092	1.496265
C99	C	-1.277352	-0.505750	0.956064
C100	C	-0.777352	-0.005750	1.456064
C101	C	-1.283024	-0.500714	0.862465
C102	C	-0.783024	-0.000714	1.362465
C103	C	-1.162165	-0.608351	0.849278
C104	C	-0.662165	-0.108351	1.349278
C105	C	-1.156497	-0.613392	0.942875
C106	C	-0.656497	-0.113392	1.442875
H107	H	-0.892561	-0.623001	0.554710
H108	H	-0.392561	-0.123001	1.054710
H109	H	-0.599586	-0.445152	0.396731
H110	H	-0.099586	0.054848	0.896731
H111	H	-1.104987	-0.659262	0.975619
H112	H	-0.604987	-0.159262	1.475619
H113	H	-1.166521	-0.180040	0.386896
H114	H	-0.666521	0.319960	0.886896
H115	H	-1.361902	-0.203936	0.606140
H116	H	-0.861902	0.296064	1.106140
F117	F	-0.755673	-0.690789	0.614932
F118	F	-0.255673	-0.190789	1.114932
F119	F	-1.100877	-0.662960	0.792449
F120	F	-0.600877	-0.162960	1.292449
F121	F	-0.562467	-0.679038	0.604514
F122	F	-0.062467	-0.179038	1.104514
F123	F	-1.338973	0.122911	0.580438
F124	F	-0.838973	0.622911	1.080438
H125	H	-0.746542	-0.393202	0.350569
H126	H	-0.246542	0.106798	0.850569
H127	H	-1.376167	-0.417715	1.146518
H128	H	-0.876167	0.082285	1.646518
F129	F	-1.350357	-0.440753	0.819682
F130	F	-0.850357	0.059247	1.319682
F131	F	-0.929706	-0.389113	0.346917
F132	F	-0.429706	0.110887	0.846917
H133	H	-1.120298	-0.033069	0.335024
H134	H	-0.620298	0.466931	0.835024
H135	H	-1.129511	0.136723	0.345366
H136	H	-0.629511	0.636723	0.845366
H137	H	-1.386459	-0.408578	0.976722
H138	H	-0.886459	0.091422	1.476722
F139	F	-1.385210	-0.024066	0.632302
F140	F	-0.885210	0.475934	1.132302
F141	F	-1.141089	-0.627085	1.132662
F142	F	-0.641089	-0.127085	1.632662
