data_functionalizedCrystal
_audit_creation_method	'MofGen! by Chris Wilmer'
_symmetry_space_group_name_H-M	'P1'
_symmetry_Int_Tables_number	1
_symmetry_cell_setting	triclinic
loop_
_symmetry_equiv_pos_as_xyz
  x,y,z
_cell_length_a	16.120530
_cell_length_b	16.120484
_cell_length_c	12.759393
_cell_angle_alpha	92.863987
_cell_angle_beta	87.081261
_cell_angle_gamma	90.167327
loop_
_atom_site_label
_atom_site_type_symbol
_atom_site_fract_x
_atom_site_fract_y
_atom_site_fract_z
Zn1	Zn	1.254492	-0.395558	-0.699366
Zn2	Zn	1.754492	0.104442	-0.199366
Zn3	Zn	1.247331	-0.534629	-0.532099
Zn4	Zn	1.747331	-0.034629	-0.032099
Zn5	Zn	1.115427	-0.388538	-0.514372
Zn6	Zn	1.615427	0.111462	-0.014372
Zn7	Zn	1.108345	-0.527511	-0.698405
Zn8	Zn	1.608345	-0.027511	-0.198405
O9	O	1.181399	-0.461559	-0.611061
O10	O	1.681399	0.038441	-0.111061
O11	O	1.369908	-0.419923	-0.684999
O12	O	1.869908	0.080077	-0.184999
O13	O	1.229801	-0.515291	-0.382726
O14	O	1.729801	-0.015291	0.117274
O15	O	1.139835	-0.273106	-0.531896
O16	O	1.639835	0.226894	-0.031896
O17	O	1.364647	-0.522098	-0.562108
O18	O	1.864647	-0.022098	-0.062108
O19	O	1.242006	-0.278264	-0.667810
O20	O	1.742006	0.221736	-0.167810
O21	O	1.132891	-0.407958	-0.369703
O22	O	1.632891	0.092042	0.130297
O23	O	0.998122	-0.401056	-0.530964
O24	O	1.498122	0.098944	-0.030964
O25	O	1.127764	-0.509966	-0.845553
O26	O	1.627764	-0.009966	-0.345553
O27	O	0.992918	-0.503159	-0.666172
O28	O	1.492918	-0.003159	-0.166172
O29	O	1.235139	-0.413020	-0.846260
O30	O	1.735139	0.086980	-0.346260
O31	O	1.222933	-0.650048	-0.561176
O32	O	1.722933	-0.150048	-0.061176
O33	O	1.120820	-0.644818	-0.683360
O34	O	1.620820	-0.144818	-0.183360
C35	C	0.965348	-0.450574	-0.596541
C36	C	1.465348	0.049426	-0.096541
C37	C	0.872919	-0.445894	-0.590355
C38	C	1.372919	0.054106	-0.090355
C39	C	0.703692	-0.437332	-0.579070
C40	C	1.203692	0.062668	-0.079070
C41	C	0.659943	-0.485847	-0.643132
C42	C	1.159943	0.014153	-0.143132
C43	C	0.565779	-0.481083	-0.636852
C44	C	1.065779	0.018917	-0.136852
C45	C	0.797864	-0.442095	-0.585348
C46	C	1.297864	0.057905	-0.085348
C47	C	1.170354	-0.677605	-0.624112
C48	C	1.670354	-0.177605	-0.124112
C49	C	1.165705	-0.770035	-0.629735
C50	C	1.665705	-0.270035	-0.129735
C51	C	1.157222	-0.939265	-0.640024
C52	C	1.657222	-0.439265	-0.140024
C53	C	1.205725	-0.983020	-0.582124
C54	C	1.705725	-0.483020	-0.082124
C55	C	1.201005	-1.077185	-0.587849
C56	C	1.701005	-0.577185	-0.087849
C57	C	1.161941	-0.845091	-0.634301
C58	C	1.661941	-0.345091	-0.134301
C59	C	1.398293	-0.472587	-0.625638
C60	C	1.898293	0.027413	-0.125638
C61	C	1.490721	-0.477287	-0.631850
C62	C	1.990721	0.022713	-0.131850
C63	C	1.181460	-0.461482	-0.885093
C64	C	1.681460	0.038518	-0.385093
C65	C	1.181486	-0.461449	-1.001869
C66	C	1.681486	0.038551	-0.501869
C67	C	1.192510	-0.244670	-0.597983
C68	C	1.692510	0.255330	-0.097983
C69	C	1.197244	-0.152245	-0.592410
C70	C	1.697244	0.347755	-0.092410
C71	C	1.231951	-0.517317	-1.063509
C72	C	1.731951	-0.017317	-0.563509
C73	C	1.231978	-0.517283	-1.173233
C74	C	1.731978	-0.017283	-0.673233
C75	C	1.131069	-0.405510	-1.159667
C76	C	1.631069	0.094490	-0.659667
C77	C	1.131047	-0.405541	-1.049945
C78	C	1.631047	0.094459	-0.549945
C79	C	1.290207	-0.581851	-1.071342
C80	C	1.790207	-0.081851	-0.571342
C81	C	1.290234	-0.581817	-1.181066
C82	C	1.790234	-0.081817	-0.681066
C83	C	1.181388	-0.461578	-0.338094
C84	C	1.681388	0.038422	0.161906
C85	C	1.181535	-0.461384	-0.221315
C86	C	1.681535	0.038616	0.278685
H87	H	0.670428	-0.392222	-0.519514
H88	H	1.170428	0.107778	-0.019514
C89	C	1.075546	-0.344079	-0.982145
C90	C	1.575546	0.155921	-0.482145
H91	H	1.045506	-0.310784	-1.026495
H92	H	1.545506	0.189216	-0.526495
H93	H	1.109209	-0.309483	-0.939299
H94	H	1.609209	0.190517	-0.439299
H95	H	1.037667	-0.374054	-0.938823
H96	H	1.537667	0.125946	-0.438823
C97	C	1.266587	-0.938092	-0.509320
C98	C	1.766587	-0.438092	-0.009320
H99	H	1.261802	-0.879777	-0.514955
H100	H	1.761802	-0.379777	-0.014955
H101	H	1.321767	-0.955041	-0.529317
H102	H	1.821767	-0.455041	-0.029317
H103	H	1.253718	-0.951727	-0.438755
H104	H	1.753718	-0.451727	0.061245
H105	H	1.112155	-0.972524	-0.693888
H106	H	1.612155	-0.472524	-0.193888
H107	H	1.090004	-0.359991	-1.198824
H108	H	1.590004	0.140009	-0.698824
H109	H	0.693209	-0.530960	-0.702693
H110	H	1.193209	-0.030960	-0.202693
C111	C	1.378390	-0.562982	-1.035555
C112	C	1.878390	-0.062982	-0.535555
H113	H	1.414671	-0.555192	-1.095293
H114	H	1.914671	-0.055192	-0.595293
H115	H	1.397523	-0.608155	-0.998290
H116	H	1.897523	-0.108155	-0.498290
H117	H	1.377378	-0.513940	-0.991013
H118	H	1.877378	-0.013940	-0.491013
C119	C	1.254793	-0.662914	-1.028245
C120	C	1.754793	-0.162914	-0.528245
H121	H	1.239043	-0.698994	-1.084980
H122	H	1.739043	-0.198994	-0.584980
H123	H	1.207599	-0.650610	-0.982540
H124	H	1.707599	-0.150610	-0.482540
H125	H	1.295896	-0.689155	-0.990640
H126	H	1.795896	-0.189155	-0.490640
C127	C	1.374487	-0.554855	-1.230725
C128	C	1.874487	-0.054855	-0.730725
H129	H	1.411991	-0.542877	-1.176914
H130	H	1.911991	-0.042877	-0.676914
H131	H	1.367064	-0.506649	-1.269089
H132	H	1.867064	-0.006649	-0.769089
H133	H	1.396392	-0.598418	-1.276799
H134	H	1.896392	-0.098418	-0.776799
H135	H	1.269689	-0.645333	-1.213568
H136	H	1.769689	-0.145333	-0.713568
