data_functionalizedCrystal
_audit_creation_method	'MofGen! by Chris Wilmer'
_symmetry_space_group_name_H-M	'P1'
_symmetry_Int_Tables_number	1
_symmetry_cell_setting	triclinic
loop_
_symmetry_equiv_pos_as_xyz
  x,y,z
_cell_length_a	16.625548
_cell_length_b	17.077402
_cell_length_c	17.077396
_cell_angle_alpha	89.970216
_cell_angle_beta	90.019578
_cell_angle_gamma	89.976049
loop_
_atom_site_label
_atom_site_type_symbol
_atom_site_fract_x
_atom_site_fract_y
_atom_site_fract_z
Zn1	Zn	1.232670	0.312486	0.443837
Zn2	Zn	1.732670	0.812486	0.943837
Zn3	Zn	1.232575	0.443761	0.312568
Zn4	Zn	1.732575	0.943761	0.812568
Zn5	Zn	1.097834	0.312515	0.312585
Zn6	Zn	1.597834	0.812515	0.812585
Zn7	Zn	1.097802	0.443716	0.443792
Zn8	Zn	1.597802	0.943716	0.943792
O9	O	1.165220	0.378119	0.378196
O10	O	1.665220	0.878119	0.878196
O11	O	1.345490	0.329906	0.426436
O12	O	1.845490	0.829906	0.926436
O13	O	1.214675	0.426382	0.202723
O14	O	1.714675	0.926382	0.702723
O15	O	1.115774	0.202664	0.330022
O16	O	1.615774	0.702664	0.830022
O17	O	1.345420	0.426353	0.329993
O18	O	1.845420	0.926353	0.829993
O19	O	1.214838	0.202643	0.426452
O20	O	1.714838	0.702643	0.926452
O21	O	1.115682	0.329956	0.202736
O22	O	1.615682	0.829956	0.702736
O23	O	0.984998	0.329913	0.329978
O24	O	1.484998	0.829913	0.829978
O25	O	1.115718	0.426277	0.553645
O26	O	1.615718	0.926277	1.053645
O27	O	0.984973	0.426306	0.426375
O28	O	1.484973	0.926306	0.926375
O29	O	1.214806	0.329863	0.553678
O30	O	1.714806	0.829863	1.053678
O31	O	1.214643	0.553602	0.329949
O32	O	1.714643	1.053602	0.829949
O33	O	1.115626	0.553569	0.426358
O34	O	1.615626	1.053569	0.926358
C35	C	1.165142	0.582067	0.378164
C36	C	1.665142	1.082067	0.878164
C37	C	1.165183	0.669317	0.378177
C38	C	1.665183	1.169317	0.878177
C39	C	0.955729	0.378108	0.378174
C40	C	1.455729	0.878108	0.878174
C41	C	0.866108	0.378122	0.378183
C42	C	1.366108	0.878122	0.878183
C43	C	1.165269	0.378062	0.582940
C44	C	1.665269	0.878062	1.082940
C45	C	1.165290	0.378037	0.670190
C46	C	1.665290	0.878037	1.170190
C47	C	0.537933	0.378127	0.378216
C48	C	1.037933	0.878127	0.878216
C49	C	0.629241	0.378124	0.378205
C50	C	1.129241	0.878124	0.878205
C51	C	0.702018	0.378125	0.378199
C52	C	1.202018	0.878125	0.878199
C53	C	0.793332	0.378121	0.378188
C54	C	1.293332	0.878121	0.878188
C55	C	1.375529	0.378131	0.378218
C56	C	1.875529	0.878131	0.878218
C57	C	1.465150	0.378136	0.378228
C58	C	1.965150	0.878136	0.878228
C59	C	1.165320	0.173375	0.378244
C60	C	1.665320	0.673375	0.878244
C61	C	1.165363	0.086125	0.378265
C62	C	1.665363	0.586125	0.878265
C63	C	1.216794	0.710298	0.328031
C64	C	1.716794	1.210298	0.828031
C65	C	1.216833	0.792279	0.328051
C66	C	1.716833	1.292279	0.828051
C67	C	1.165257	0.833276	0.378214
C68	C	1.665257	1.333276	0.878214
C69	C	1.113644	0.792290	0.428366
C70	C	1.613644	1.292290	0.928366
C71	C	1.113609	0.710311	0.428349
C72	C	1.613609	1.210311	0.928349
C73	C	1.113719	0.963160	0.428395
C74	C	1.613719	1.463160	0.928395
C75	C	1.113752	1.045144	0.428411
C76	C	1.613752	1.545144	0.928411
C77	C	1.216943	1.045128	0.328097
C78	C	1.716943	1.545128	0.828097
C79	C	1.216908	0.963149	0.328080
C80	C	1.716908	1.463149	0.828080
C81	C	1.165293	0.922167	0.378232
C82	C	1.665293	1.422167	0.878232
C83	C	1.165218	0.378120	0.174248
C84	C	1.665218	0.878120	0.674248
C85	C	1.165353	0.377924	0.086998
C86	C	1.665353	0.877924	0.586998
C87	C	1.216887	0.327830	0.711199
C88	C	1.716887	0.827830	1.211199
C89	C	1.216896	0.327804	0.793179
C90	C	1.716896	0.827804	1.293179
C91	C	1.165313	0.377989	0.834149
C92	C	1.665313	0.877989	1.334149
C93	C	1.113710	0.428199	0.793135
C94	C	1.613710	0.928199	1.293135
C95	C	1.113697	0.428220	0.711156
C96	C	1.613697	0.928220	1.211156
C97	C	1.113743	0.428151	0.964005
C98	C	1.613743	0.928151	1.464005
C99	C	1.113757	0.428131	1.045989
C100	C	1.613757	0.928131	1.545989
C101	C	1.216942	0.327735	1.046028
C102	C	1.716942	0.827735	1.546028
C103	C	1.216929	0.327757	0.964049
C104	C	1.716929	0.827757	1.464049
C105	C	1.165327	0.377967	0.923040
C106	C	1.665327	0.877967	1.423040
H107	H	1.258790	0.676923	0.287179
H108	H	1.758790	1.176923	0.787179
Br109	Br	1.286961	0.259699	0.848831
Br110	Br	1.786961	0.759699	1.348831
H111	H	1.071583	0.676944	0.469184
H112	H	1.571583	1.176944	0.969184
Br113	Br	1.286943	0.259654	0.908447
Br114	Br	1.786943	0.759654	1.408447
H115	H	1.258956	0.286850	1.079422
H116	H	1.758956	0.786850	1.579422
H117	H	1.071674	0.469096	0.677767
H118	H	1.571674	0.969096	1.177767
H119	H	1.071711	0.469026	0.930618
H120	H	1.571711	0.969026	1.430618
Br121	Br	1.286885	0.847893	0.259997
Br122	Br	1.786885	1.347893	0.759997
H123	H	1.258894	0.286965	0.677847
H124	H	1.758894	0.786965	1.177847
Br125	Br	1.286903	0.907509	0.260000
Br126	Br	1.786903	1.407509	0.760000
H127	H	1.071707	0.469058	0.826499
H128	H	1.571707	0.969058	1.326499
Br129	Br	1.286980	1.100744	0.260024
Br130	Br	1.786980	1.600744	0.760024
Br131	Br	1.043743	1.100784	0.496479
Br132	Br	1.543743	1.600784	0.996479
H133	H	1.071751	0.468995	1.079345
H134	H	1.571751	0.968995	1.579345
Br135	Br	1.043673	0.907542	0.496462
Br136	Br	1.543673	1.407542	0.996462
H137	H	1.071653	0.825676	0.469213
H138	H	1.571653	1.325676	0.969213
