data_functionalizedCrystal
_audit_creation_method	'MofGen! by Chris Wilmer'
_symmetry_space_group_name_H-M	'P1'
_symmetry_Int_Tables_number	1
_symmetry_cell_setting	triclinic
loop_
_symmetry_equiv_pos_as_xyz
  x,y,z
_cell_length_a	16.120490
_cell_length_b	16.120444
_cell_length_c	15.298259
_cell_angle_alpha	82.663646
_cell_angle_beta	96.301063
_cell_angle_gamma	90.165174
loop_
_atom_site_label
_atom_site_type_symbol
_atom_site_fract_x
_atom_site_fract_y
_atom_site_fract_z
Zn1	Zn	1.165128	-0.296701	-0.590199
Zn2	Zn	1.415128	-0.046701	-0.340199
Zn3	Zn	1.665128	0.203299	-0.090199
Zn4	Zn	1.915128	0.453299	0.159801
Zn5	Zn	1.179337	-0.459433	-0.449037
Zn6	Zn	1.429337	-0.209433	-0.199037
Zn7	Zn	1.679337	0.040567	0.050963
Zn8	Zn	1.929337	0.290567	0.300963
Zn9	Zn	1.049700	-0.315841	-0.434078
Zn10	Zn	1.299700	-0.065841	-0.184078
Zn11	Zn	1.549700	0.184159	0.065922
Zn12	Zn	1.799700	0.434159	0.315922
Zn13	Zn	1.019100	-0.428781	-0.589392
Zn14	Zn	1.269100	-0.178781	-0.339392
Zn15	Zn	1.519100	0.071219	-0.089392
Zn16	Zn	1.769100	0.321219	0.160608
O17	O	1.103316	-0.375189	-0.515676
O18	O	1.353316	-0.125189	-0.265676
O19	O	1.603316	0.124811	-0.015676
O20	O	1.853316	0.374811	0.234324
O21	O	1.282380	-0.323105	-0.578071
O22	O	1.532380	-0.073105	-0.328071
O23	O	1.782380	0.176895	-0.078071
O24	O	2.032380	0.426895	0.171929
O25	O	1.180893	-0.461224	-0.322976
O26	O	1.430893	-0.211224	-0.072976
O27	O	1.680893	0.038776	0.177024
O28	O	1.930893	0.288776	0.427024
O29	O	1.071872	-0.197932	-0.448865
O30	O	1.321872	0.052068	-0.198865
O31	O	1.571872	0.302068	0.051135
O32	O	1.821872	0.552068	0.301135
O33	O	1.292819	-0.442664	-0.474360
O34	O	1.542819	-0.192664	-0.224360
O35	O	1.792819	0.057336	0.025640
O36	O	2.042819	0.307336	0.275640
O37	O	1.156676	-0.183870	-0.563566
O38	O	1.406676	0.066130	-0.313566
O39	O	1.656676	0.316130	-0.063566
O40	O	1.906676	0.566130	0.186434
O41	O	1.085649	-0.355728	-0.311986
O42	O	1.335649	-0.105728	-0.061986
O43	O	1.585649	0.144272	0.188014
O44	O	1.835649	0.394272	0.438014
O45	O	0.930274	-0.326006	-0.448083
O46	O	1.180274	-0.076006	-0.198083
O47	O	1.430274	0.173994	0.051917
O48	O	1.680274	0.423994	0.301917
O49	O	1.019718	-0.390422	-0.713576
O50	O	1.269718	-0.140422	-0.463576
O51	O	1.519718	0.109578	-0.213576
O52	O	1.769718	0.359578	0.036424
O53	O	0.907792	-0.408982	-0.562192
O54	O	1.157792	-0.158982	-0.312192
O55	O	1.407792	0.091018	-0.062192
O56	O	1.657792	0.341018	0.187808
O57	O	1.127004	-0.293383	-0.714168
O58	O	1.377004	-0.043383	-0.464168
O59	O	1.627004	0.206617	-0.214168
O60	O	1.877004	0.456617	0.035832
O61	O	1.151221	-0.570737	-0.473578
O62	O	1.401221	-0.320737	-0.223578
O63	O	1.651221	-0.070737	0.026422
O64	O	1.901221	0.179263	0.276422
O65	O	1.033496	-0.548217	-0.576697
O66	O	1.283496	-0.298217	-0.326697
O67	O	1.533496	-0.048217	-0.076697
O68	O	1.783496	0.201783	0.173303
C69	C	0.889120	-0.366245	-0.503427
C70	C	1.139120	-0.116245	-0.253427
C71	C	1.389120	0.133755	-0.003427
C72	C	1.639120	0.383755	0.246573
C73	C	0.797481	-0.362435	-0.498209
C74	C	1.047481	-0.112435	-0.248209
C75	C	1.297481	0.137565	0.001791
C76	C	1.547481	0.387565	0.251791
C77	C	1.090599	-0.589389	-0.526694
C78	C	1.340599	-0.339389	-0.276694
C79	C	1.590599	-0.089389	-0.026694
C80	C	1.840599	0.160611	0.223306
C81	C	1.085230	-0.681023	-0.531441
C82	C	1.335230	-0.431023	-0.281441
C83	C	1.585230	-0.181023	-0.031441
C84	C	1.835230	0.068977	0.218559
C85	C	0.577769	-0.394945	-0.542745
C86	C	0.827769	-0.144945	-0.292745
C87	C	1.077769	0.105055	-0.042745
C88	C	1.327769	0.355055	0.207255
C89	C	0.629700	-0.355487	-0.488682
C90	C	0.879700	-0.105487	-0.238682
C91	C	1.129700	0.144513	0.011318
C92	C	1.379700	0.394513	0.261318
C93	C	0.723062	-0.359354	-0.493984
C94	C	0.973062	-0.109354	-0.243984
C95	C	1.223062	0.140646	0.006016
C96	C	1.473062	0.390646	0.256016
C97	C	0.484398	-0.391079	-0.537443
C98	C	0.734398	-0.141079	-0.287443
C99	C	0.984398	0.108921	-0.037443
C100	C	1.234398	0.358921	0.212557
C101	C	1.131343	-0.900738	-0.491252
C102	C	1.381343	-0.650738	-0.241252
C103	C	1.631343	-0.400738	0.008748
C104	C	1.881343	-0.150738	0.258748
C105	C	1.075440	-0.848794	-0.540118
C106	C	1.325440	-0.598794	-0.290118
C107	C	1.575440	-0.348794	-0.040118
C108	C	1.825440	-0.098794	0.209882
C109	C	1.080889	-0.755438	-0.535289
C110	C	1.330889	-0.505438	-0.285289
C111	C	1.580889	-0.255438	-0.035289
C112	C	1.830889	-0.005438	0.214711
C113	C	1.125896	-0.994103	-0.496081
C114	C	1.375896	-0.744103	-0.246081
C115	C	1.625896	-0.494103	0.003919
C116	C	1.875896	-0.244103	0.253919
C117	C	1.318349	-0.384168	-0.527974
C118	C	1.568349	-0.134168	-0.277974
C119	C	1.818349	0.115832	-0.027974
C120	C	2.068349	0.365832	0.222026
C121	C	1.409983	-0.387995	-0.533214
C122	C	1.659983	-0.137995	-0.283214
C123	C	1.909983	0.112005	-0.033214
C124	C	2.159983	0.362005	0.216786
C125	C	1.068363	-0.336348	-0.746943
C126	C	1.318363	-0.086348	-0.496943
C127	C	1.568363	0.163652	-0.246943
C128	C	1.818363	0.413652	0.003057
C129	C	1.053468	-0.319796	-0.845495
C130	C	1.303468	-0.069796	-0.595495
C131	C	1.553468	0.180204	-0.345495
C132	C	1.803468	0.430204	-0.095495
C133	C	1.116102	-0.160150	-0.504637
C134	C	1.366102	0.089850	-0.254637
C135	C	1.616102	0.339850	-0.004637
C136	C	1.866102	0.589850	0.245363
C137	C	1.121551	-0.068514	-0.499932
C138	C	1.371551	0.181486	-0.249932
C139	C	1.621551	0.431486	0.000068
C140	C	1.871551	0.681486	0.250068
C141	C	1.209837	-0.492853	-1.146178
C142	C	1.459837	-0.242853	-0.896178
C143	C	1.709837	0.007147	-0.646178
C144	C	1.959837	0.257147	-0.396178
C145	C	1.223827	-0.508409	-1.053583
C146	C	1.473827	-0.258409	-0.803583
C147	C	1.723827	-0.008409	-0.553583
C148	C	1.973827	0.241591	-0.303583
C149	C	1.181239	-0.461257	-1.001557
C150	C	1.431239	-0.211257	-0.751557
C151	C	1.681239	0.038743	-0.501557
C152	C	1.931239	0.288743	-0.251557
C153	C	1.124658	-0.398547	-1.042134
C154	C	1.374658	-0.148547	-0.792134
C155	C	1.624658	0.101453	-0.542134
C156	C	1.874658	0.351453	-0.292134
C157	C	1.110661	-0.382993	-1.134737
C158	C	1.360661	-0.132993	-0.884737
C159	C	1.610661	0.117007	-0.634737
C160	C	1.860661	0.367007	-0.384737
C161	C	1.082063	-0.351397	-0.990116
C162	C	1.332063	-0.101397	-0.740116
C163	C	1.582063	0.148603	-0.490116
C164	C	1.832063	0.398603	-0.240116
C165	C	1.025482	-0.288687	-1.030693
C166	C	1.275482	-0.038687	-0.780693
C167	C	1.525482	0.211313	-0.530693
C168	C	1.775482	0.461313	-0.280693
C169	C	1.011488	-0.273136	-1.123288
C170	C	1.261488	-0.023136	-0.873288
C171	C	1.511488	0.226864	-0.623288
C172	C	1.761488	0.476864	-0.373288
C173	C	1.054077	-0.320288	-1.175314
C174	C	1.304077	-0.070288	-0.925314
C175	C	1.554077	0.179712	-0.675314
C176	C	1.804077	0.429712	-0.425314
C177	C	1.096059	-0.366951	-0.897513
C178	C	1.346059	-0.116951	-0.647513
C179	C	1.596059	0.133049	-0.397513
C180	C	1.846059	0.383049	-0.147513
C181	C	0.996883	-0.257091	-0.886072
C182	C	1.246883	-0.007091	-0.636072
C183	C	1.496883	0.242909	-0.386072
C184	C	1.746883	0.492909	-0.136072
C185	C	0.982893	-0.241535	-0.978667
C186	C	1.232893	0.008465	-0.728667
C187	C	1.482893	0.258465	-0.478667
C188	C	1.732893	0.508465	-0.228667
C189	C	1.138184	-0.413822	-0.285309
C190	C	1.388184	-0.163822	-0.035309
C191	C	1.638184	0.086178	0.214691
C192	C	1.888184	0.336178	0.464691
C193	C	1.153253	-0.430148	-0.186755
C194	C	1.403253	-0.180148	0.063245
C195	C	1.653253	0.069852	0.313245
C196	C	1.903253	0.319852	0.563245
H197	H	0.604042	-0.318802	-0.438414
H198	H	0.854042	-0.068802	-0.188414
H199	H	1.104042	0.181198	0.061586
H200	H	1.354042	0.431198	0.311586
Cl201	Cl	0.617381	-0.451592	-0.620340
Cl202	Cl	0.867381	-0.201592	-0.370340
Cl203	Cl	1.117381	0.048408	-0.120340
Cl204	Cl	1.367381	0.298408	0.129660
Cl205	Cl	0.995226	-0.888380	-0.610306
Cl206	Cl	1.245226	-0.638380	-0.360306
Cl207	Cl	1.495226	-0.388380	-0.110306
Cl208	Cl	1.745226	-0.138380	0.139694
Cl209	Cl	1.211547	-0.861151	-0.421063
Cl210	Cl	1.461547	-0.611151	-0.171063
Cl211	Cl	1.711547	-0.361151	0.078937
Cl212	Cl	1.961547	-0.111151	0.328937
H213	H	1.142134	-0.418006	-0.864484
H214	H	1.392134	-0.168006	-0.614484
H215	H	1.642134	0.081994	-0.364484
H216	H	1.892134	0.331994	-0.114484
Cl217	Cl	1.036494	-0.300732	-1.291724
Cl218	Cl	1.286494	-0.050732	-1.041724
Cl219	Cl	1.536494	0.199268	-0.791724
Cl220	Cl	1.786494	0.449268	-0.541724
Cl221	Cl	1.198832	-0.480811	-0.885151
Cl222	Cl	1.448832	-0.230811	-0.635151
Cl223	Cl	1.698832	0.019189	-0.385151
Cl224	Cl	1.948832	0.269189	-0.135151
H225	H	1.269888	-0.559476	-1.020552
H226	H	1.519888	-0.309476	-0.770552
H227	H	1.769888	-0.059476	-0.520552
H228	H	2.019888	0.190524	-0.270552
H229	H	0.962203	-0.218696	-0.843712
H230	H	1.212203	0.031304	-0.593712
H231	H	1.462203	0.281304	-0.343712
H232	H	1.712203	0.531304	-0.093712
H233	H	0.936824	-0.190475	-1.011718
H234	H	1.186824	0.059525	-0.761718
H235	H	1.436824	0.309525	-0.511718
H236	H	1.686824	0.559525	-0.261718
Cl237	Cl	0.940322	-0.194331	-1.174297
Cl238	Cl	1.190322	0.055669	-0.924297
Cl239	Cl	1.440322	0.305669	-0.674297
Cl240	Cl	1.690322	0.555669	-0.424297
H241	H	1.244500	-0.531243	-1.188546
H242	H	1.494500	-0.281243	-0.938546
H243	H	1.744500	-0.031243	-0.688546
H244	H	1.994500	0.218757	-0.438546
