data_functionalizedCrystal
_audit_creation_method	'MofGen! by Chris Wilmer'
_symmetry_space_group_name_H-M	'P1'
_symmetry_Int_Tables_number	1
_symmetry_cell_setting	triclinic
loop_
_symmetry_equiv_pos_as_xyz
  x,y,z
_cell_length_a	15.625950
_cell_length_b	14.185328
_cell_length_c	10.723024
_cell_angle_alpha	75.338888
_cell_angle_beta	95.649731
_cell_angle_gamma	87.172074
loop_
_atom_site_label
_atom_site_type_symbol
_atom_site_fract_x
_atom_site_fract_y
_atom_site_fract_z
O1	O	1.125222	-0.325770	-0.064280
O2	O	1.625222	0.174230	0.435720
O3	O	0.882377	-0.237457	-0.110432
O4	O	1.382377	0.262543	0.389568
O5	O	1.009400	-0.283654	0.094899
O6	O	1.509400	0.216346	0.594899
O7	O	0.998199	-0.279573	-0.269612
O8	O	1.498199	0.220427	0.230388
O9	O	0.975323	-0.438105	0.141719
O10	O	1.475323	0.061895	0.641719
O11	O	0.848299	-0.391908	-0.063612
O12	O	1.348299	0.108092	0.436388
O13	O	1.091145	-0.480221	-0.017461
O14	O	1.591145	0.019779	0.482539
Cu15	Cu	0.966610	-0.450167	-0.036261
Cu16	Cu	1.466610	0.049833	0.463739
Cu17	Cu	1.006911	-0.267511	-0.091631
Cu18	Cu	1.506911	0.232489	0.408369
O19	O	0.964121	-0.434024	-0.222792
O20	O	1.464121	0.065976	0.277208
C21	C	0.834243	-0.303375	-0.089568
C22	C	1.334243	0.196625	0.410432
C23	C	0.741589	-0.269680	-0.097136
C24	C	1.241589	0.230320	0.402864
C25	C	0.343917	-0.579707	0.005475
C26	C	0.843917	-0.079707	0.505475
C27	C	0.256863	-0.548002	-0.001674
C28	C	0.756863	-0.048002	0.498326
C29	C	0.294056	-0.379642	-0.052712
C30	C	0.794056	0.120358	0.447288
C31	C	0.381115	-0.411332	-0.045573
C32	C	0.881115	0.088668	0.454427
C33	C	0.406038	-0.511365	-0.016477
C34	C	0.906038	-0.011365	0.483523
C35	C	0.443236	-0.342991	-0.067525
C36	C	0.943236	0.157009	0.432475
C37	C	0.530288	-0.374679	-0.060379
C38	C	1.030288	0.125321	0.439621
C39	C	0.555219	-0.474708	-0.031281
C40	C	1.055219	0.025292	0.468719
C41	C	0.493090	-0.543054	-0.009331
C42	C	0.993090	-0.043054	0.490669
C43	C	0.418312	-0.242958	-0.096612
C44	C	0.918312	0.257042	0.403388
C45	C	0.480433	-0.174616	-0.118564
C46	C	0.980433	0.325384	0.381436
C47	C	0.567486	-0.206304	-0.111428
C48	C	1.067486	0.293696	0.388572
C49	C	0.592417	-0.306333	-0.082330
C50	C	1.092417	0.193667	0.417670
C51	C	0.629614	-0.137959	-0.133378
C52	C	1.129614	0.362041	0.366622
C53	C	0.716666	-0.169647	-0.126232
C54	C	1.216666	0.330353	0.373768
C55	C	0.679468	-0.338022	-0.075184
C56	C	1.179468	0.161978	0.424816
N57	N	0.938271	-0.578640	0.002684
N58	N	1.438271	-0.078640	0.502684
C59	C	1.118450	-1.011766	-0.245031
C60	C	1.618450	-0.511766	0.254969
C61	C	1.097003	-1.108993	-0.215509
C62	C	1.597003	-0.608993	0.284491
C63	C	0.994930	-1.071862	-0.075118
C64	C	1.494930	-0.571862	0.424882
C65	C	1.016366	-0.974628	-0.104633
C66	C	1.516366	-0.474628	0.395367
C67	C	1.078127	-0.944588	-0.189589
C68	C	1.578127	-0.444588	0.310411
C69	C	0.976043	-0.907451	-0.049191
C70	C	1.476043	-0.407451	0.450809
C71	C	0.997480	-0.810226	-0.078699
C72	C	1.497480	-0.310226	0.421301
C73	C	1.059241	-0.780179	-0.163649
C74	C	1.559241	-0.280179	0.336351
C75	C	1.099565	-0.847364	-0.219097
C76	C	1.599565	-0.347364	0.280903
C77	C	0.914286	-0.937494	0.035773
C78	C	1.414286	-0.437494	0.535773
C79	C	0.873963	-0.870317	0.091215
C80	C	1.373963	-0.370317	0.591215
C81	C	0.895396	-0.773089	0.061700
C82	C	1.395396	-0.273089	0.561700
C83	C	0.957157	-0.743042	-0.023250
C84	C	1.457157	-0.243042	0.476750
C85	C	0.855072	-0.705904	0.117148
C86	C	1.355072	-0.205904	0.617148
C87	C	0.876510	-0.608680	0.087641
C88	C	1.376510	-0.108680	0.587641
C89	C	0.978594	-0.645817	-0.052758
C90	C	1.478594	-0.145817	0.447242
C91	C	1.139279	-0.414302	-0.038326
C92	C	1.639279	0.085698	0.461674
C93	C	1.231934	-0.447990	-0.030759
C94	C	1.731934	0.052010	0.469241
C95	C	0.991546	-0.360582	0.164709
C96	C	1.491546	0.139418	0.664709
C97	C	0.989108	-0.359692	0.302967
C98	C	1.489108	0.140308	0.802967
N99	N	1.035257	-0.139041	-0.130566
N100	N	1.535257	0.360959	0.369434
C101	C	0.981975	-0.357094	-0.292603
C102	C	1.481975	0.142906	0.207397
C103	C	0.984415	-0.357978	-0.430863
C104	C	1.484415	0.142022	0.069137
C105	C	1.060184	-0.385538	0.386554
C106	C	1.560184	0.114462	0.886554
C107	C	1.057666	-0.384618	0.529451
C108	C	1.557666	0.115382	1.029451
H109	H	0.513382	-0.624510	0.014342
H110	H	1.013382	-0.124510	0.514342
Br111	Br	0.884573	-0.321662	0.360000
Br112	Br	1.384573	0.178338	0.860000
H113	H	0.767247	-0.113996	-0.144114
H114	H	1.267247	0.386004	0.355886
H115	H	0.804792	-0.730380	0.186331
H116	H	1.304792	-0.230380	0.686331
Br117	Br	1.062422	-0.605043	-0.168046
Br118	Br	1.562422	-0.105043	0.331954
H119	H	1.149848	-0.822902	-0.288292
H120	H	1.649848	-0.322902	0.211708
H121	H	1.076696	-0.701013	-0.187670
H122	H	1.576696	-0.201013	0.312330
H123	H	0.626103	-0.500507	-0.025463
H124	H	1.126103	-0.000507	0.474537
Br125	Br	0.713299	-0.473783	-0.035718
Br126	Br	1.213299	0.026217	0.464282
Br127	Br	0.377749	-0.715468	0.044941
Br128	Br	0.877749	-0.215468	0.544941
Br129	Br	0.911115	-1.112640	0.040179
Br130	Br	1.411115	-0.612640	0.540179
H131	H	0.896839	-1.016663	0.059804
H132	H	1.396839	-0.516663	0.559804
H133	H	0.273752	-0.298194	-0.076396
H134	H	0.773752	0.201806	0.423604
Br135	Br	1.159086	-0.421511	0.649116
Br136	Br	1.659086	0.078489	1.149116
H137	H	0.206282	-0.603661	0.016175
H138	H	0.706282	-0.103661	0.516175
Br139	Br	0.790147	-0.911094	0.206511
Br140	Br	1.290147	-0.411094	0.706511
H141	H	0.347427	-0.217160	-0.102435
H142	H	0.847427	0.282840	0.397565
H143	H	0.843673	-0.553981	0.132785
H144	H	1.343673	-0.053981	0.632785
Br145	Br	0.446604	-0.038862	-0.158000
Br146	Br	0.946604	0.461138	0.342000
H147	H	0.609309	-0.056511	-0.157054
H148	H	1.109309	0.443489	0.342946
Br149	Br	1.151742	-1.200166	-0.290751
Br150	Br	1.651742	-0.700166	0.209249
H151	H	1.168734	-0.987303	-0.314226
H152	H	1.668734	-0.487303	0.185774
H153	H	1.122899	-0.408351	0.352326
H154	H	1.622899	0.091649	0.852326
H155	H	0.923563	-0.335857	0.497348
H156	H	1.423563	0.164143	0.997348
