data_functionalizedCrystal
_audit_creation_method	'MofGen! by Chris Wilmer'
_symmetry_space_group_name_H-M	'P1'
_symmetry_Int_Tables_number	1
_symmetry_cell_setting	triclinic
loop_
_symmetry_equiv_pos_as_xyz
  x,y,z
_cell_length_a	16.120484
_cell_length_b	16.625548
_cell_length_c	16.625539
_cell_angle_alpha	90.020568
_cell_angle_beta	92.868615
_cell_angle_gamma	87.073374
loop_
_atom_site_label
_atom_site_type_symbol
_atom_site_fract_x
_atom_site_fract_y
_atom_site_fract_z
Zn1	Zn	-0.331882	-1.216388	-0.472167
Zn2	Zn	-0.081882	-0.966388	-0.222167
Zn3	Zn	0.168118	-0.716388	0.027833
Zn4	Zn	0.418118	-0.466388	0.277833
Zn5	Zn	-0.471307	-1.209447	-0.344164
Zn6	Zn	-0.221307	-0.959447	-0.094164
Zn7	Zn	0.028693	-0.709447	0.155836
Zn8	Zn	0.278693	-0.459447	0.405836
Zn9	Zn	-0.331914	-1.081548	-0.337349
Zn10	Zn	-0.081914	-0.831548	-0.087349
Zn11	Zn	0.168086	-0.581548	0.162651
Zn12	Zn	0.418086	-0.331548	0.412651
Zn13	Zn	-0.471259	-1.074678	-0.478951
Zn14	Zn	-0.221259	-0.824678	-0.228951
Zn15	Zn	0.028741	-0.574678	0.021049
Zn16	Zn	0.278741	-0.324678	0.271049
O17	O	-0.401591	-1.145515	-0.408158
O18	O	-0.151591	-0.895515	-0.158158
O19	O	0.098409	-0.645515	0.091842
O20	O	0.348409	-0.395515	0.341842
O21	O	-0.350384	-1.328299	-0.455200
O22	O	-0.100384	-1.078299	-0.205200
O23	O	0.149616	-0.828299	0.044800
O24	O	0.399616	-0.578299	0.294800
O25	O	-0.452849	-1.192451	-0.230429
O26	O	-0.202849	-0.942451	0.019571
O27	O	0.047151	-0.692451	0.269571
O28	O	0.297151	-0.442451	0.519571
O29	O	-0.215244	-1.105215	-0.349541
O30	O	0.034756	-0.855215	-0.099541
O31	O	0.284756	-0.605215	0.150459
O32	O	0.534756	-0.355215	0.400459
O33	O	-0.452819	-1.323200	-0.361156
O34	O	-0.202819	-1.073200	-0.111156
O35	O	0.047181	-0.823200	0.138844
O36	O	0.297181	-0.573200	0.388844
O37	O	-0.215221	-1.204281	-0.448592
O38	O	0.034779	-0.954281	-0.198592
O39	O	0.284779	-0.704281	0.051408
O40	O	0.534779	-0.454281	0.301408
O41	O	-0.350438	-1.098484	-0.225422
O42	O	-0.100438	-0.848484	0.024578
O43	O	0.149562	-0.598484	0.274578
O44	O	0.399562	-0.348484	0.524578
O45	O	-0.350392	-0.967805	-0.356120
O46	O	-0.100392	-0.717805	-0.106120
O47	O	0.149608	-0.467805	0.143880
O48	O	0.399608	-0.217805	0.393880
O49	O	-0.452737	-1.093506	-0.590882
O50	O	-0.202737	-0.843506	-0.340882
O51	O	0.047263	-0.593506	-0.090882
O52	O	0.297263	-0.343506	0.159118
O53	O	-0.452768	-0.962757	-0.460155
O54	O	-0.202768	-0.712757	-0.210155
O55	O	0.047232	-0.462757	0.039845
O56	O	0.297232	-0.212757	0.289845
O57	O	-0.350338	-1.197620	-0.585898
O58	O	-0.100338	-0.947620	-0.335898
O59	O	0.149662	-0.697620	-0.085898
O60	O	0.399662	-0.447620	0.164102
O61	O	-0.587966	-1.185789	-0.367735
O62	O	-0.337966	-0.935789	-0.117735
O63	O	-0.087966	-0.685789	0.132265
O64	O	0.162034	-0.435789	0.382265
O65	O	-0.587931	-1.086775	-0.466763
O66	O	-0.337931	-0.836775	-0.216763
O67	O	-0.087931	-0.586775	0.033237
O68	O	0.162069	-0.336775	0.283237
C69	C	-0.618199	-1.134805	-0.418742
C70	C	-0.368199	-0.884805	-0.168742
C71	C	-0.118199	-0.634805	0.081258
C72	C	0.131801	-0.384805	0.331258
C73	C	-0.710865	-1.130297	-0.423297
C74	C	-0.460865	-0.880297	-0.173297
C75	C	-0.210865	-0.630297	0.076703
C76	C	0.039135	-0.380297	0.326703
C77	C	-0.401579	-0.936025	-0.408135
C78	C	-0.151579	-0.686025	-0.158135
C79	C	0.098421	-0.436025	0.091865
C80	C	0.348421	-0.186025	0.341865
C81	C	-0.401594	-0.846403	-0.408145
C82	C	-0.151594	-0.596403	-0.158145
C83	C	0.098406	-0.346403	0.091855
C84	C	0.348406	-0.096403	0.341855
C85	C	-0.401529	-1.145571	-0.618464
C86	C	-0.151529	-0.895571	-0.368464
C87	C	0.098471	-0.645571	-0.118464
C88	C	0.348471	-0.395571	0.131536
C89	C	-0.401502	-1.145594	-0.708084
C90	C	-0.151502	-0.895594	-0.458084
C91	C	0.098498	-0.645594	-0.208084
C92	C	0.348498	-0.395594	0.041916
C93	C	-0.880527	-1.122072	-0.431630
C94	C	-0.630527	-0.872072	-0.181630
C95	C	-0.380527	-0.622072	0.068370
C96	C	-0.130527	-0.372072	0.318370
C97	C	-0.921814	-1.169103	-0.384698
C98	C	-0.671814	-0.919103	-0.134698
C99	C	-0.421814	-0.669103	0.115302
C100	C	-0.171814	-0.419103	0.365302
C101	C	-1.016220	-1.164526	-0.389335
C102	C	-0.766220	-0.914526	-0.139335
C103	C	-0.516220	-0.664526	0.110665
C104	C	-0.266220	-0.414526	0.360665
C105	C	-0.786113	-1.126648	-0.426995
C106	C	-0.536113	-0.876648	-0.176995
C107	C	-0.286113	-0.626648	0.073005
C108	C	-0.036113	-0.376648	0.323005
C109	C	-0.184136	-1.156289	-0.397549
C110	C	0.065864	-0.906289	-0.147549
C111	C	0.315864	-0.656289	0.102451
C112	C	0.565864	-0.406289	0.352451
C113	C	-0.091470	-1.160880	-0.393029
C114	C	0.158530	-0.910880	-0.143029
C115	C	0.408530	-0.660880	0.106971
C116	C	0.658530	-0.410880	0.356971
C117	C	-0.401603	-1.355823	-0.408181
C118	C	-0.151603	-1.105823	-0.158181
C119	C	0.098397	-0.855823	0.091819
C120	C	0.348397	-0.605823	0.341819
C121	C	-0.401609	-1.445444	-0.408192
C122	C	-0.151609	-1.195444	-0.158192
C123	C	0.098391	-0.945444	0.091808
C124	C	0.348391	-0.695444	0.341808
C125	C	-0.401599	-0.518227	-0.408180
C126	C	-0.151599	-0.268227	-0.158180
C127	C	0.098401	-0.018227	0.091820
C128	C	0.348401	0.231773	0.341820
C129	C	-0.401595	-0.609536	-0.408167
C130	C	-0.151595	-0.359536	-0.158167
C131	C	0.098405	-0.109536	0.091833
C132	C	0.348405	0.140464	0.341833
C133	C	-0.401597	-0.682312	-0.408162
C134	C	-0.151597	-0.432312	-0.158162
C135	C	0.098403	-0.182312	0.091838
C136	C	0.348403	0.067688	0.341838
C137	C	-0.401592	-0.773627	-0.408150
C138	C	-0.151592	-0.523627	-0.158150
C139	C	0.098408	-0.273627	0.091850
C140	C	0.348408	-0.023627	0.341850
C141	C	-0.401409	-1.145636	-1.036255
C142	C	-0.151409	-0.895636	-0.786255
C143	C	0.098591	-0.645636	-0.536255
C144	C	0.348591	-0.395636	-0.286255
C145	C	-0.401437	-1.145622	-0.944948
C146	C	-0.151437	-0.895622	-0.694948
C147	C	0.098563	-0.645622	-0.444948
C148	C	0.348563	-0.395622	-0.194948
C149	C	-0.401456	-1.145616	-0.872172
C150	C	-0.151456	-0.895616	-0.622172
C151	C	0.098544	-0.645616	-0.372172
C152	C	0.348544	-0.395616	-0.122172
C153	C	-0.401483	-1.145601	-0.780859
C154	C	-0.151483	-0.895601	-0.530859
C155	C	0.098517	-0.645601	-0.280859
C156	C	0.348517	-0.395601	-0.030859
C157	C	-0.401592	-1.145509	-0.198667
C158	C	-0.151592	-0.895509	0.051333
C159	C	0.098408	-0.645509	0.301333
C160	C	0.348408	-0.395509	0.551333
C161	C	-0.401384	-1.145653	-0.109036
C162	C	-0.151384	-0.895653	0.140964
C163	C	0.098616	-0.645653	0.390964
C164	C	0.348616	-0.395653	0.640964
H165	H	-0.886260	-1.212805	-0.341036
H166	H	-0.636260	-0.962805	-0.091036
H167	H	-0.386260	-0.712805	0.158964
H168	H	-0.136260	-0.462805	0.408964
H169	H	-0.916078	-1.078373	-0.475288
H170	H	-0.666078	-0.828373	-0.225288
H171	H	-0.416078	-0.578373	0.024712
H172	H	-0.166078	-0.328373	0.274712
