data_functionalizedCrystal
_audit_creation_method	'MofGen! by Chris Wilmer'
_symmetry_space_group_name_H-M	'P1'
_symmetry_Int_Tables_number	1
_symmetry_cell_setting	triclinic
loop_
_symmetry_equiv_pos_as_xyz
  x,y,z
_cell_length_a	10.686220
_cell_length_b	13.897448
_cell_length_c	13.897441
_cell_angle_alpha	90.029627
_cell_angle_beta	85.648699
_cell_angle_gamma	94.399460
loop_
_atom_site_label
_atom_site_type_symbol
_atom_site_fract_x
_atom_site_fract_y
_atom_site_fract_z
Zn1	Zn	1.929082	-0.270721	0.432418
Zn2	Zn	2.429082	0.229279	0.932418
Zn3	Zn	1.928951	-0.432048	0.271127
Zn4	Zn	2.428951	0.067952	0.771127
Zn5	Zn	1.718074	-0.283151	0.283493
Zn6	Zn	2.218074	0.216849	0.783493
Zn7	Zn	1.718042	-0.444368	0.444730
Zn8	Zn	2.218042	0.055632	0.944730
O9	O	1.823537	-0.357572	0.357942
O10	O	2.323537	0.142428	0.857942
O11	O	2.105639	-0.281763	0.400695
O12	O	2.605639	0.218237	0.900695
O13	O	1.900936	-0.412342	0.137788
O14	O	2.400936	0.087658	0.637788
O15	O	1.746132	-0.146516	0.303270
O16	O	2.246132	0.353484	0.803270
O17	O	2.105543	-0.400289	0.282195
O18	O	2.605543	0.099711	0.782195
O19	O	1.901159	-0.137384	0.412685
O20	O	2.401159	0.362616	0.912685
O21	O	1.746006	-0.302948	0.146873
O22	O	2.246006	0.197052	0.646873
O23	O	1.541495	-0.314894	0.315209
O24	O	2.041495	0.185106	0.815209
O25	O	1.746078	-0.421287	0.578076
O26	O	2.246078	0.078713	1.078076
O27	O	1.541472	-0.433340	0.433669
O28	O	2.041472	0.066660	0.933669
O29	O	1.901128	-0.293710	0.569031
O30	O	2.401128	0.206290	1.069031
O31	O	1.900906	-0.568667	0.294133
O32	O	2.400906	-0.068667	0.794133
O33	O	1.745951	-0.577719	0.421679
O34	O	2.245951	-0.077719	0.921679
C35	C	1.495700	-0.376803	0.377117
C36	C	1.995700	0.123197	0.877117
C37	C	1.355450	-0.385054	0.385344
C38	C	1.855450	0.114946	0.885344
C39	C	1.823445	-0.608191	0.357919
C40	C	2.323445	-0.108191	0.857919
C41	C	1.823521	-0.715401	0.357935
C42	C	2.323521	-0.215401	0.857935
C43	C	1.823654	-0.911688	0.357988
C44	C	2.323654	-0.411688	0.857988
C45	C	1.823576	-0.802460	0.357962
C46	C	2.323576	-0.302460	0.857962
C47	C	2.152654	-0.338266	0.338692
C48	C	2.652654	0.161734	0.838692
C49	C	2.292905	-0.330039	0.330489
C50	C	2.792905	0.169961	0.830489
C51	C	1.823614	-0.357486	0.609531
C52	C	2.323614	0.142514	1.109531
C53	C	1.823647	-0.357450	0.716743
C54	C	2.323647	0.142550	1.216743
C55	C	1.823664	-0.105971	0.357984
C56	C	2.323664	0.394029	0.857984
C57	C	1.823718	0.001246	0.358001
C58	C	2.323718	0.501246	0.858001
C59	C	1.823533	-0.357583	0.107328
C60	C	2.323533	0.142417	0.607328
C61	C	1.823744	-0.357333	0.000102
C62	C	2.323744	0.142667	0.500102
C63	C	1.823673	-0.357421	0.803811
C64	C	2.323673	0.142579	1.303811
C65	C	1.823709	-0.357375	0.913041
C66	C	2.323709	0.142625	1.413041
H67	H	1.346652	-0.276627	0.277231
H68	H	1.846652	0.223373	0.777231
Br69	Br	1.265867	-0.474099	0.474104
Br70	Br	1.765867	0.025901	0.974104
