data_functionalizedCrystal
_audit_creation_method	'MofGen! by Chris Wilmer'
_symmetry_space_group_name_H-M	'P1'
_symmetry_Int_Tables_number	1
_symmetry_cell_setting	triclinic
loop_
_symmetry_equiv_pos_as_xyz
  x,y,z
_cell_length_a	14.908993
_cell_length_b	14.908178
_cell_length_c	14.908308
_cell_angle_alpha	90.221621
_cell_angle_beta	83.629285
_cell_angle_gamma	96.795214
loop_
_atom_site_label
_atom_site_type_symbol
_atom_site_fract_x
_atom_site_fract_y
_atom_site_fract_z
Zn1	Zn	1.337566	-0.305884	0.415341
Zn2	Zn	1.338483	-0.447538	0.256253
Zn3	Zn	1.194937	-0.305927	0.272717
Zn4	Zn	1.177450	-0.465958	0.415277
O5	O	1.262109	-0.381327	0.339897
O6	O	1.464771	-0.316948	0.387374
O7	O	1.327143	-0.421062	0.132196
O8	O	1.220792	-0.179665	0.298554
O9	O	1.465445	-0.421021	0.270492
O10	O	1.325581	-0.179634	0.403339
O11	O	1.221681	-0.317021	0.144292
O12	O	1.065534	-0.334882	0.298492
O13	O	1.190987	-0.452415	0.541527
O14	O	1.052686	-0.452457	0.403230
O15	O	1.308624	-0.334809	0.541574
O16	O	1.310186	-0.576238	0.270430
O17	O	1.191876	-0.589771	0.387265
C18	C	1.026158	-0.395674	0.352641
C19	C	0.925215	-0.401834	0.358114
C20	C	0.748859	-0.290817	0.259503
C21	C	0.654014	-0.296602	0.264642
C22	C	0.640679	-0.419194	0.373525
C23	C	0.735524	-0.413408	0.368386
C24	C	0.789611	-0.349217	0.311374
C25	C	0.884457	-0.343428	0.306241
C26	C	0.871121	-0.466023	0.415118
C27	C	0.776276	-0.471808	0.420257
C28	C	1.249256	-0.615741	0.327072
C29	C	1.243839	-0.716021	0.321612
C30	C	1.342681	-0.904288	0.420591
C31	C	1.337594	-0.998510	0.415463
C32	C	1.228574	-0.998689	0.306233
C33	C	1.233661	-0.904467	0.311361
C34	C	1.290717	-0.857270	0.368541
C35	C	1.295809	-0.763045	0.373664
C36	C	1.186785	-0.763227	0.264438
C37	C	1.181698	-0.857449	0.259310
C38	C	1.498981	-0.366925	0.327104
C39	C	1.599921	-0.360788	0.321652
C40	C	1.247753	-0.395662	0.575199
C41	C	1.241635	-0.401771	0.675470
C42	C	1.275035	-0.145997	0.352790
C43	C	1.280544	-0.045714	0.358285
C44	C	1.276465	-0.366979	0.105512
C45	C	1.282772	-0.360606	0.005245
C46	C	1.352633	-0.290766	0.863943
C47	C	1.346888	-0.296503	0.958157
C48	C	1.224396	-0.418975	0.958114
C49	C	1.230141	-0.413239	0.863900
C50	C	1.294263	-0.349133	0.816818
C51	C	1.300012	-0.343401	0.722601
C52	C	1.177516	-0.465869	0.722561
C53	C	1.171771	-0.471605	0.816775
H54	H	0.596626	-0.471463	0.419932
Cl55	Cl	0.816856	-0.210115	0.187842
Cl56	Cl	1.402920	-1.057616	0.480903
H57	H	1.119563	-0.523797	0.855123
H58	H	0.904311	-0.513572	0.457361
H59	H	1.352224	-0.291204	0.684268
H60	H	1.404848	-0.238573	0.825607
Cl61	Cl	0.952451	-0.262730	0.234572
H62	H	0.620838	-0.249046	0.222404
H63	H	0.732226	-0.524074	0.466671
H64	H	1.135242	-0.895890	0.212758
Cl65	Cl	1.420270	-0.223123	1.017397
H66	H	1.389145	-0.865858	0.467143
Cl67	Cl	1.367538	-0.703712	0.445544
H68	H	1.182118	-1.037134	0.259684
H69	H	1.144475	-0.724934	0.222053
Cl70	Cl	1.143787	-0.499552	1.017319
H71	H	1.129989	-0.513398	0.684182
