data_functionalizedCrystal
_audit_creation_method	'MofGen! by Chris Wilmer'
_symmetry_space_group_name_H-M	'P1'
_symmetry_Int_Tables_number	1
_symmetry_cell_setting	triclinic
loop_
_symmetry_equiv_pos_as_xyz
  x,y,z
_cell_length_a	10.654546
_cell_length_b	15.995292
_cell_length_c	9.130313
_cell_angle_alpha	90.001944
_cell_angle_beta	89.998822
_cell_angle_gamma	83.976050
loop_
_atom_site_label
_atom_site_type_symbol
_atom_site_fract_x
_atom_site_fract_y
_atom_site_fract_z
O1	O	1.666264	0.117588	-0.121820
O2	O	1.300635	0.128796	-0.121815
O3	O	1.493482	0.001359	-0.121820
O4	O	1.473416	0.245024	-0.121815
O5	O	1.493480	0.001362	0.121779
O6	O	1.300632	0.128799	0.121784
O7	O	1.666261	0.117591	0.121779
Cu8	Cu	1.483447	0.123195	0.144024
Cu9	Cu	1.483449	0.123191	-0.144060
O10	O	1.473414	0.245028	0.121784
C11	C	1.253846	0.127975	-0.000015
C12	C	1.114436	0.125515	-0.000013
C13	C	1.048958	0.124349	-0.132806
C14	C	0.917968	0.122030	-0.132818
C15	C	0.917947	0.122041	0.132767
C16	C	1.048933	0.124365	0.132777
C17	C	1.114461	0.125498	-0.265597
C18	C	1.048983	0.124331	-0.398400
C19	C	0.917994	0.122013	-0.398412
C20	C	0.852482	0.120862	-0.265620
C21	C	1.492664	-0.029840	-0.000024
C22	C	1.490216	-0.122807	-0.000035
C23	C	1.481215	-0.460598	-0.000022
C24	C	1.620407	-0.436478	0.000521
C25	C	1.623052	-0.339787	-0.000034
C26	C	1.485681	-0.293016	-0.000027
C27	C	1.416093	-0.322522	-0.139129
C28	C	1.414417	-0.419322	-0.139240
C29	C	1.411572	-0.419192	0.137778
C30	C	1.416731	-0.322670	0.139611
C31	C	1.488198	-0.198305	-0.000036
C32	C	1.478694	-0.555308	-0.000023
C33	C	1.713050	0.118412	-0.000024
C34	C	1.852460	0.120872	-0.000036
C35	C	1.474232	0.276227	-0.000015
C36	C	1.476680	0.369194	-0.000014
N37	N	1.483454	0.123198	0.346647
N38	N	1.483452	0.123182	-0.346683
C39	C	1.568868	0.066788	0.423296
C40	C	1.568865	0.066778	0.576633
C41	C	1.398029	0.179595	0.576657
C42	C	1.398027	0.179600	0.423323
C43	C	1.654295	0.010386	0.346620
C44	C	1.739717	-0.046028	0.423270
C45	C	1.739714	-0.046038	0.576607
C46	C	1.654288	0.010366	0.653294
H47	H	0.864683	0.121071	-0.506546
F48	F	1.118623	0.125608	0.274110
F49	F	0.713067	0.118404	-0.265640
F50	F	1.694261	-0.314500	0.130314
H51	H	1.809260	-0.091977	0.639014
F52	F	1.281026	-0.439117	-0.147494
H53	H	1.315006	-0.291241	-0.144296
H54	H	1.654308	0.010391	0.221766
F55	F	1.468493	-0.455844	0.275586
F56	F	1.654282	0.010344	0.816490
H57	H	1.674057	-0.464163	0.100276
F58	F	1.479259	-0.295942	-0.274443
H59	H	1.316463	-0.290282	0.148016
H60	H	1.328480	0.225517	0.639105
H61	H	0.864597	0.121102	0.240879
F62	F	1.830619	-0.106059	0.341654
H63	H	1.328474	0.225533	0.360914
H64	H	1.221120	0.127384	-0.265602
H65	H	1.673761	-0.465188	-0.098677
F66	F	1.118705	0.125565	-0.539717
F67	F	1.694706	-0.315313	-0.130599
F68	F	1.482952	-0.298012	0.274120
F69	F	1.477420	-0.454013	-0.275151
H70	H	1.309117	-0.433777	0.138719
