data_functionalizedCrystal
_audit_creation_method	'MofGen! by Chris Wilmer'
_symmetry_space_group_name_H-M	'P1'
_symmetry_Int_Tables_number	1
_symmetry_cell_setting	triclinic
loop_
_symmetry_equiv_pos_as_xyz
  x,y,z
_cell_length_a	16.992694
_cell_length_b	16.053810
_cell_length_c	16.992695
_cell_angle_alpha	92.752725
_cell_angle_beta	90.668223
_cell_angle_gamma	87.261482
loop_
_atom_site_label
_atom_site_type_symbol
_atom_site_fract_x
_atom_site_fract_y
_atom_site_fract_z
O1	O	1.053945	-0.069325	0.163802
O2	O	1.553945	0.430675	0.663802
O3	O	0.825546	-0.069350	0.161969
O4	O	1.325546	0.430650	0.661969
O5	O	0.938829	-0.069331	0.048686
O6	O	1.438829	0.430669	0.548686
O7	O	0.940661	-0.069344	0.277085
O8	O	1.440661	0.430656	0.777085
O9	O	0.932621	0.069527	0.054921
O10	O	1.432621	0.569527	0.554921
O11	O	0.819337	0.069508	0.168204
O12	O	1.319337	0.569508	0.668204
O13	O	1.047736	0.069533	0.170037
O14	O	1.547736	0.569533	0.670037
Zn15	Zn	0.932551	0.091567	0.170110
Zn16	Zn	1.432551	0.591567	0.670110
Zn17	Zn	0.940731	-0.091384	0.161895
Zn18	Zn	1.440731	0.408616	0.661895
O19	O	0.934453	0.069514	0.283320
O20	O	1.434453	0.569514	0.783320
C21	C	0.793082	0.000076	0.162731
C22	C	1.293082	0.500076	0.662731
C23	C	0.705597	0.000067	0.155702
C24	C	1.205597	0.500067	0.655702
N25	N	0.926974	0.216426	0.175717
N26	N	1.426974	0.716426	0.675717
C27	C	0.659607	0.000064	0.223520
C28	C	1.159607	0.500064	0.723520
C29	C	0.577405	0.000076	0.216911
C30	C	1.077405	0.500076	0.716911
C31	C	0.541197	0.000085	0.142484
C32	C	1.041197	0.500085	0.642484
C33	C	0.587193	0.000091	0.074661
C34	C	1.087193	0.500091	0.574661
C35	C	0.669393	0.000085	0.081271
C36	C	1.169393	0.500085	0.581271
C37	C	0.295881	0.000109	0.115090
C38	C	0.795881	0.500109	0.615090
C39	C	0.213676	0.000112	0.108486
C40	C	0.713676	0.500112	0.608486
C41	C	0.203893	0.000099	0.250737
C42	C	0.703893	0.500099	0.750737
C43	C	0.286095	0.000088	0.257339
C44	C	0.786095	0.500088	0.757339
C45	C	0.332084	0.000098	0.189517
C46	C	0.832084	0.500098	0.689517
N47	N	0.457174	0.000094	0.135727
N48	N	0.957174	0.500094	0.635727
N49	N	0.416105	0.000094	0.196275
N50	N	0.916105	0.500094	0.696275
N51	N	0.946314	-0.216243	0.156283
N52	N	1.446314	0.283757	0.656283
C53	C	1.080201	0.000105	0.169275
C54	C	1.580201	0.500105	0.669275
C55	C	1.167685	0.000109	0.176304
C56	C	1.667685	0.500109	0.676304
C57	C	0.898098	0.740054	0.204472
C58	C	1.398098	1.240054	0.704472
C59	C	0.902017	0.652648	0.200567
C60	C	1.402017	1.152648	0.700567
C61	C	0.954157	0.608946	0.148475
C62	C	1.454157	1.108946	0.648475
C63	C	1.002374	0.652656	0.100281
C64	C	1.502374	1.152656	0.600281
C65	C	0.998450	0.740060	0.104183
C66	C	1.498450	1.240060	0.604183
C67	C	0.971268	0.347540	0.131425
C68	C	1.471268	0.847540	0.631425
C69	C	0.975190	0.260130	0.127528
C70	C	1.475190	0.760130	0.627528
C71	C	0.874832	0.260128	0.227813
C72	C	1.374832	0.760128	0.727813
C73	C	0.870916	0.347534	0.231714
C74	C	1.370916	0.847534	0.731714
C75	C	0.919131	0.391235	0.183516
C76	C	1.419131	0.891235	0.683516
N77	N	0.958166	0.519603	0.144484
N78	N	1.458166	1.019603	0.644484
N79	N	0.915117	0.480577	0.187505
N80	N	1.415117	0.980577	0.687505
C81	C	0.933370	0.000098	0.022443
C82	C	1.433370	0.500098	0.522443
C83	C	0.926341	0.000097	-0.065042
C84	C	1.426341	0.500097	0.434958
C85	C	0.994158	0.000105	-0.111032
C86	C	1.494158	0.500105	0.388968
C87	C	0.987550	0.000096	-0.193233
C88	C	1.487550	0.500096	0.306767
C89	C	0.913123	0.000086	-0.229442
C90	C	1.413123	0.500086	0.270558
C91	C	0.845300	0.000075	-0.183446
C92	C	1.345300	0.500075	0.316554
C93	C	0.851910	0.000078	-0.101246
C94	C	1.351910	0.500078	0.398754
C95	C	0.885729	0.000071	-0.474757
C96	C	1.385729	0.500071	0.025243
C97	C	0.879124	0.000071	-0.556962
C98	C	1.379124	0.500071	-0.056962
C99	C	1.021375	0.000091	-0.566745
C100	C	1.521375	0.500091	-0.066745
C101	C	1.027978	0.000099	-0.484543
C102	C	1.527978	0.500099	0.015457
C103	C	0.960155	0.000083	-0.438554
C104	C	1.460155	0.500083	0.061446
N105	N	0.906366	0.000079	-0.313465
N106	N	1.406366	0.500079	0.186535
N107	N	0.966913	0.000084	-0.354533
N108	N	1.466913	0.500084	0.145467
C109	C	0.939913	0.000084	0.309563
C110	C	1.439913	0.500084	0.809563
C111	C	0.946942	0.000079	0.397047
C112	C	1.446942	0.500079	0.897047
H113	H	0.689081	0.000056	0.284126
H114	H	1.189081	0.500056	0.784126
F115	F	0.344816	0.000119	0.042907
F116	F	0.844816	0.500119	0.542907
F117	F	0.175141	0.000136	0.029267
F118	F	0.675141	0.500136	0.529267
F119	F	0.842608	0.786556	0.259920
F120	F	1.342608	1.286556	0.759920
F121	F	0.850700	0.606135	0.251854
F122	F	1.350700	1.106135	0.751854
H123	H	1.042774	0.000105	-0.230676
H124	H	1.542774	0.500105	0.269324
H125	H	1.088584	0.000108	-0.455068
H126	H	1.588584	0.500108	0.044932
H127	H	0.706838	0.000087	0.026046
H128	H	1.206838	0.500087	0.526046
H129	H	0.830503	0.000059	-0.437322
H130	H	1.330503	0.500059	0.062678
H131	H	0.539963	0.000072	0.272136
H132	H	1.039963	0.500072	0.772136
F133	F	0.324625	0.000074	0.336555
F134	F	0.824625	0.500074	0.836555
F135	F	0.548655	0.000106	-0.004550
F136	F	1.048655	0.500106	0.495450
H137	H	0.828460	0.383113	0.274131
H138	H	1.328460	0.883113	0.774131
F139	F	0.154943	0.000090	0.322913
F140	F	0.654943	0.500090	0.822913
F141	F	0.823520	0.213612	0.279102
F142	F	1.323520	0.713612	0.779102
H143	H	1.017651	0.224552	0.085106
H144	H	1.517651	0.724552	0.585106
H145	H	1.076592	0.000102	-0.604198
H146	H	1.576592	0.500102	-0.104198
F147	F	0.779729	0.000066	-0.052300
F148	F	1.279729	0.500066	0.447700
H149	H	0.784700	0.000061	-0.212933
H150	H	1.284700	0.500061	0.287067
F151	F	1.022583	0.394044	0.080132
F152	F	1.522583	0.894044	0.580132
F153	F	0.799905	0.000064	-0.595496
F154	F	1.299905	0.500064	-0.095496
H155	H	1.044824	0.617069	0.057863
H156	H	1.544824	1.117069	0.557863
F157	F	1.049766	0.786571	0.052891
F158	F	1.549766	1.286571	0.552891
H159	H	1.054765	0.000119	-0.081557
H160	H	1.554765	0.500119	0.418443
