data_functionalizedCrystal
_audit_creation_method	'MofGen! by Chris Wilmer'
_symmetry_space_group_name_H-M	'P1'
_symmetry_Int_Tables_number	1
_symmetry_cell_setting	triclinic
loop_
_symmetry_equiv_pos_as_xyz
  x,y,z
_cell_length_a	16.120530
_cell_length_b	16.959454
_cell_length_c	16.959447
_cell_angle_alpha	90.026736
_cell_angle_beta	87.087433
_cell_angle_gamma	92.884212
loop_
_atom_site_label
_atom_site_type_symbol
_atom_site_fract_x
_atom_site_fract_y
_atom_site_fract_z
Zn1	Zn	1.274530	0.376020	-0.508156
Zn2	Zn	1.774530	0.876020	-0.008156
Zn3	Zn	1.274449	0.508208	-0.375981
Zn4	Zn	1.774449	1.008208	0.124019
Zn5	Zn	1.135124	0.369341	-0.369296
Zn6	Zn	1.635124	0.869341	0.130704
Zn7	Zn	1.135086	0.501448	-0.501425
Zn8	Zn	1.635086	1.001448	-0.001425
O9	O	1.204797	0.438754	-0.438715
O10	O	1.704797	0.938754	0.061285
O11	O	1.391185	0.399180	-0.496237
O12	O	1.891185	0.899180	0.003763
O13	O	1.255948	0.489822	-0.264483
O14	O	1.755948	0.989822	0.235517
O15	O	1.153666	0.259618	-0.387735
O16	O	1.653666	0.759618	0.112265
O17	O	1.391125	0.496298	-0.399129
O18	O	1.891125	0.996298	0.100871
O19	O	1.256088	0.264525	-0.489755
O20	O	1.756088	0.764525	0.010245
O21	O	1.153587	0.387796	-0.259571
O22	O	1.653587	0.887796	0.240429
O23	O	1.018453	0.381241	-0.381209
O24	O	1.518453	0.881241	0.118791
O25	O	1.153603	0.484775	-0.612930
O26	O	1.653603	0.984775	-0.112930
O27	O	1.018426	0.478299	-0.478283
O28	O	1.518426	0.978299	0.021717
O29	O	1.256051	0.392624	-0.617875
O30	O	1.756051	0.892624	-0.117875
O31	O	1.255912	0.617920	-0.392603
O32	O	1.755912	1.117920	0.107397
O33	O	1.153523	0.612953	-0.484766
O34	O	1.653523	1.112953	0.015234
C35	C	1.204727	0.644117	-0.438698
C36	C	1.704727	1.144117	0.061302
C37	C	1.204774	0.731976	-0.438721
C38	C	1.704774	1.231976	0.061279
C39	C	0.988189	0.428312	-0.428291
C40	C	1.488189	0.928312	0.071709
C41	C	0.895523	0.423864	-0.423850
C42	C	1.395523	0.923864	0.076150
C43	C	1.204832	0.438690	-0.644885
C44	C	1.704832	0.938690	-0.144885
C45	C	1.204847	0.438663	-0.732742
C46	C	1.704847	0.938663	-0.232742
C47	C	0.725862	0.415724	-0.415750
C48	C	1.225862	0.915724	0.084250
C49	C	0.684573	0.461843	-0.461737
C50	C	1.184573	0.961843	0.038263
C51	C	0.590168	0.457314	-0.457230
C52	C	1.090168	0.957314	0.042770
C53	C	0.820276	0.420252	-0.420256
C54	C	1.320276	0.920252	0.079744
C55	C	1.422251	0.449238	-0.449180
C56	C	1.922251	0.949238	0.050820
C57	C	1.514917	0.453705	-0.453639
C58	C	2.014917	0.953705	0.046361
C59	C	1.204890	0.232590	-0.438750
C60	C	1.704890	0.732590	0.061250
C61	C	1.204930	0.144736	-0.438765
C62	C	1.704930	0.644736	0.061235
C63	C	1.151561	1.100900	-0.486702
C64	C	1.651561	1.600900	0.013298
C65	C	1.258266	1.106016	-0.390819
C66	C	1.758266	1.606016	0.109181
C67	C	1.258237	1.023469	-0.390810
C68	C	1.758237	1.523469	0.109190
C69	C	1.204868	0.979633	-0.438747
C70	C	1.704868	1.479633	0.061253
C71	C	1.151528	1.018345	-0.486693
C72	C	1.651528	1.518345	0.013307
C73	C	1.311570	0.984751	-0.342859
C74	C	1.811570	1.484751	0.157141
C75	C	1.311542	0.902199	-0.342848
C76	C	1.811542	1.402199	0.157152
C77	C	1.258177	0.858362	-0.390790
C78	C	1.758177	1.358362	0.109210
C79	C	1.204835	0.897078	-0.438738
C80	C	1.704835	1.397078	0.061262
C81	C	1.151467	0.853243	-0.486676
C82	C	1.651467	1.353243	0.013324
C83	C	1.098129	0.891958	-0.534629
C84	C	1.598129	1.391958	-0.034629
C85	C	1.098163	0.974508	-0.534635
C86	C	1.598163	1.474508	-0.034635
C87	C	1.258143	0.775812	-0.390783
C88	C	1.758143	1.275812	0.109217
C89	C	1.151434	0.770687	-0.486667
C90	C	1.651434	1.270687	0.013333
C91	C	1.151606	0.486564	-1.101650
C92	C	1.651606	0.986564	-0.601650
C93	C	1.258287	0.390606	-1.106795
C94	C	1.758287	0.890606	-0.606795
C95	C	1.258265	0.390622	-1.024248
C96	C	1.758265	0.890622	-0.524248
C97	C	1.204913	0.438610	-0.980398
C98	C	1.704913	0.938610	-0.480398
C99	C	1.151584	0.486583	-1.019096
C100	C	1.651584	0.986583	-0.519096
C101	C	1.311599	0.342656	-0.985544
C102	C	1.811599	0.842656	-0.485544
C103	C	1.311579	0.342670	-0.902992
C104	C	1.811579	0.842670	-0.402992
C105	C	1.258223	0.390655	-0.859141
C106	C	1.758223	0.890655	-0.359141
C107	C	1.204891	0.438629	-0.897844
C108	C	1.704891	0.938629	-0.397844
C109	C	1.151540	0.486617	-0.853994
C110	C	1.651540	0.986617	-0.353994
C111	C	1.098203	0.534587	-0.892695
C112	C	1.598203	1.034587	-0.392695
C113	C	1.098228	0.534567	-0.975245
C114	C	1.598228	1.034567	-0.475245
C115	C	1.258198	0.390675	-0.776591
C116	C	1.758198	0.890675	-0.276591
C117	C	1.151517	0.486636	-0.771440
C118	C	1.651517	0.986636	-0.271440
C119	C	1.204811	0.438763	-0.233349
C120	C	1.704811	0.938763	0.266651
C121	C	1.204957	0.438575	-0.145500
C122	C	1.704957	0.938575	0.354500
H123	H	0.690312	0.372843	-0.372996
H124	H	1.190312	0.872843	0.127004
H125	H	1.107978	0.735001	-0.525706
H126	H	1.607978	1.235001	-0.025706
H127	H	0.720125	0.504727	-0.504494
H128	H	1.220125	1.004727	-0.004494
O129	O	1.040567	0.844676	-0.586334
O130	O	1.540567	1.344676	-0.086334
H131	H	1.049512	0.780771	-0.578269
H132	H	1.549512	1.280771	-0.078269
O133	O	1.040637	1.016268	-0.586348
O134	O	1.540637	1.516268	-0.086348
H135	H	1.003526	0.971921	-0.619687
H136	H	1.503526	1.471921	-0.119687
O137	O	1.094023	1.142648	-0.538413
O138	O	1.594023	1.642648	-0.038413
H139	H	1.103002	1.207415	-0.530363
H140	H	1.603002	1.707415	-0.030363
H141	H	1.355040	0.303591	-1.021252
H142	H	1.855040	0.803591	-0.521252
O143	O	1.315849	1.153291	-0.339139
O144	O	1.815849	1.653291	0.160861
H145	H	1.306922	1.217198	-0.347211
H146	H	1.806922	1.717198	0.152789
H147	H	1.054768	0.573663	-0.856982
H148	H	1.554768	1.073663	-0.356982
H149	H	1.355013	1.020448	-0.303825
H150	H	1.855013	1.520448	0.196175
H151	H	1.354973	0.870682	-0.303803
H152	H	1.854973	1.370682	0.196197
O153	O	1.369103	0.290934	-0.861252
O154	O	1.869103	0.790934	-0.361252
H155	H	1.354834	0.228205	-0.876422
H156	H	1.854834	0.728205	-0.376422
O157	O	1.315665	0.734051	-0.339073
O158	O	1.815665	1.234051	0.160927
H159	H	1.352783	0.778402	-0.305742
H160	H	1.852783	1.278402	0.194258
O161	O	1.093955	0.538377	-0.724143
O162	O	1.593955	1.038377	-0.224143
H163	H	1.056871	0.571724	-0.764925
H164	H	1.556871	1.071724	-0.264925
O165	O	1.040703	0.586303	-1.016983
O166	O	1.540703	1.086303	-0.516983
H167	H	1.049688	0.578232	-1.081752
H168	H	1.549688	1.078232	-0.581752
H169	H	1.108178	0.525618	-1.133164
H170	H	1.608178	1.025618	-0.633164
O171	O	1.315806	0.338825	-1.154082
O172	O	1.815806	0.838825	-0.654082
H173	H	1.306850	0.346860	-1.217985
H174	H	1.806850	0.846860	-0.717985
H175	H	1.301627	0.351621	-0.745085
H176	H	1.801627	0.851621	-0.245085
