data_functionalizedCrystal
_audit_creation_method	'MofGen! by Chris Wilmer'
_symmetry_space_group_name_H-M	'P1'
_symmetry_Int_Tables_number	1
_symmetry_cell_setting	triclinic
loop_
_symmetry_equiv_pos_as_xyz
  x,y,z
_cell_length_a	15.995343
_cell_length_b	11.295483
_cell_length_c	12.837942
_cell_angle_alpha	94.530417
_cell_angle_beta	89.159062
_cell_angle_gamma	85.899052
loop_
_atom_site_label
_atom_site_type_symbol
_atom_site_fract_x
_atom_site_fract_y
_atom_site_fract_z
O1	O	1.126724	-0.098903	0.126607
O2	O	1.626724	0.401097	0.626607
O3	O	0.884267	-0.098932	0.143113
O4	O	1.384267	0.401068	0.643113
O5	O	1.000119	-0.098911	-0.016042
O6	O	1.500119	0.401089	0.483958
O7	O	1.010872	-0.098924	0.285762
O8	O	1.510872	0.401076	0.785762
O9	O	0.989942	0.099138	-0.002085
O10	O	1.489942	0.599138	0.497915
O11	O	0.874089	0.099117	0.157071
O12	O	1.374089	0.599117	0.657071
O13	O	1.116547	0.099146	0.140564
O14	O	1.616547	0.599146	0.640564
Cu15	Cu	0.994389	0.117215	0.150092
Cu16	Cu	1.494389	0.617215	0.650092
Cu17	Cu	1.006425	-0.117001	0.133586
Cu18	Cu	1.506425	0.382999	0.633586
O19	O	1.000695	0.099125	0.299720
O20	O	1.500695	0.599125	0.799720
C21	C	0.847929	0.000089	0.149411
C22	C	1.347929	0.500089	0.649411
C23	C	0.754816	0.000078	0.147368
C24	C	1.254816	0.500078	0.647368
C25	C	0.584333	0.000095	0.143663
C26	C	1.084333	0.500095	0.643663
C27	C	0.551821	0.000099	0.028776
C28	C	1.051821	0.500099	0.528776
C29	C	0.454947	0.000556	0.026647
C30	C	0.954947	0.500556	0.526647
C31	C	0.416481	0.000109	0.140014
C32	C	0.916481	0.500109	0.640014
C33	C	0.444382	0.112977	0.205735
C34	C	0.944382	0.612977	0.705735
C35	C	0.541278	0.113065	0.207104
C36	C	1.041278	0.613065	0.707104
C37	C	0.552897	-0.112162	0.192913
C38	C	1.052897	0.387838	0.692913
C39	C	0.456139	-0.113638	0.188568
C40	C	0.956139	0.386362	0.688568
C41	C	0.321618	0.000121	0.137958
C42	C	0.821618	0.500121	0.637958
C43	C	0.679195	0.000090	0.145723
C44	C	1.179195	0.500090	0.645723
C45	C	0.991398	0.000113	-0.047684
C46	C	1.491398	0.500113	0.452316
C47	C	0.980565	0.000109	-0.162761
C48	C	1.480565	0.500109	0.337239
C49	C	1.152885	0.000122	0.134267
C50	C	1.652885	0.500122	0.634267
C51	C	1.245998	0.000125	0.136309
C52	C	1.745998	0.500125	0.636309
N53	N	0.985930	0.281950	0.161701
N54	N	1.485930	0.781950	0.661701
N55	N	1.014890	-0.281736	0.121968
N56	N	1.514890	0.218264	0.621968
C57	C	1.075780	0.531255	0.038343
C58	C	1.575780	1.031255	0.538343
C59	C	1.069394	0.655918	0.047123
C60	C	1.569394	1.155918	0.547123
C61	C	0.966767	0.655940	0.188036
C62	C	1.466767	1.155940	0.688036
C63	C	0.973153	0.531277	0.179256
C64	C	1.473153	1.031277	0.679256
C65	C	1.027662	0.468939	0.104408
C66	C	1.527662	0.968939	0.604408
C67	C	1.034052	0.344275	0.095633
C68	C	1.534052	0.844275	0.595633
C69	C	0.931422	0.344298	0.236541
C70	C	1.431422	0.844298	0.736541
C71	C	0.925036	0.468961	0.245321
C72	C	1.425036	0.968961	0.745321
C73	C	1.110803	0.000100	-0.403724
C74	C	1.610803	0.500100	0.096276
C75	C	1.100628	0.000097	-0.511850
C76	C	1.600628	0.500097	-0.011850
C77	C	0.950041	0.000091	-0.487141
C78	C	1.450041	0.500091	0.012859
C79	C	0.960216	0.000095	-0.379015
C80	C	1.460216	0.500095	0.120985
C81	C	1.040599	0.000101	-0.337311
C82	C	1.540599	0.500101	0.162689
C83	C	1.050773	0.000112	-0.229183
C84	C	1.550773	0.500112	0.270817
C85	C	0.900187	0.000098	-0.204476
C86	C	1.400187	0.500098	0.295524
C87	C	0.890012	0.000095	-0.312602
C88	C	1.390012	0.500095	0.187398
C89	C	1.009416	0.000099	0.331361
C90	C	1.509416	0.500099	0.831361
C91	C	1.020249	0.000094	0.446438
C92	C	1.520249	0.500094	0.946438
H93	H	0.573157	0.080922	-0.009333
H94	H	1.073157	0.580922	0.490667
H95	H	0.922381	0.706711	0.248969
H96	H	1.422381	1.206711	0.748969
H97	H	0.884597	0.000074	-0.521116
H98	H	1.384597	0.500074	-0.021116
O99	O	0.803315	0.000105	-0.357582
O100	O	1.303315	0.500105	0.142418
H101	H	0.808031	0.000114	-0.443926
H102	H	1.308031	0.500114	0.056074
H103	H	0.562326	0.117888	0.291693
H104	H	1.062326	0.617888	0.791693
O105	O	1.176350	0.000110	-0.583478
O106	O	1.676350	0.500110	-0.083478
H107	H	1.179470	-0.080615	-0.639013
H108	H	1.679470	0.419385	-0.139013
H109	H	0.418995	0.116854	0.289466
H110	H	0.918995	0.616854	0.789466
O111	O	0.824459	0.000095	-0.132846
O112	O	1.324459	0.500095	0.367154
H113	H	0.845036	0.000092	-0.050652
H114	H	1.345036	0.500092	0.449348
O115	O	0.407849	0.224665	0.161092
O116	O	0.907849	0.724665	0.661092
H117	H	0.367490	0.277847	0.221321
H118	H	0.867490	0.777847	0.721321
O119	O	1.134547	0.463999	-0.042398
O120	O	1.634547	0.963999	0.457602
H121	H	1.181637	0.407183	-0.002752
H122	H	1.681637	0.907183	0.497248
H123	H	0.436476	-0.080336	-0.024273
H124	H	0.936476	0.419664	0.475727
H125	H	1.116225	0.000122	-0.195229
H126	H	1.616225	0.500122	0.304771
H127	H	0.580434	-0.080827	-0.021458
H128	H	1.080434	0.419173	0.478542
H129	H	0.428737	0.081942	-0.012625
H130	H	0.928737	0.581942	0.487375
O131	O	1.092835	0.277030	0.014902
O132	O	1.592835	0.777030	0.514902
H133	H	1.125213	0.341312	-0.029570
H134	H	1.625213	0.841312	0.470430
O135	O	0.566827	0.225251	0.162643
O136	O	1.066827	0.725251	0.662643
H137	H	0.509994	0.278926	0.140363
H138	H	1.009994	0.778926	0.640363
H139	H	0.582673	-0.197739	0.150635
H140	H	1.082673	0.302261	0.650635
O141	O	1.121295	0.723126	-0.024135
O142	O	1.621295	1.223126	0.475865
H143	H	1.107694	0.820286	-0.005463
H144	H	1.607694	1.320286	0.494537
O145	O	0.432791	-0.224257	0.125069
O146	O	0.932791	0.275743	0.625069
H147	H	0.393544	-0.198332	0.058817
H148	H	0.893544	0.301668	0.558817
O149	O	0.421749	-0.123122	0.297518
O150	O	0.921749	0.376878	0.797518
H151	H	0.375652	-0.046564	0.318860
H152	H	0.875652	0.453436	0.818860
H153	H	0.880653	0.519731	0.306259
H154	H	1.380653	1.019731	0.806259
O155	O	0.580477	-0.113631	0.304820
O156	O	1.080477	0.386369	0.804820
H157	H	0.616402	-0.034843	0.325310
H158	H	1.116402	0.465157	0.825310
H159	H	0.892244	0.293546	0.290338
H160	H	1.392244	0.793546	0.790338
H161	H	1.176253	0.000116	-0.369768
H162	H	1.676253	0.500116	0.130232
