data_functionalizedCrystal
_audit_creation_method	'MofGen! by Chris Wilmer'
_symmetry_space_group_name_H-M	'P1'
_symmetry_Int_Tables_number	1
_symmetry_cell_setting	triclinic
loop_
_symmetry_equiv_pos_as_xyz
  x,y,z
_cell_length_a	17.699104
_cell_length_b	14.853567
_cell_length_c	16.776229
_cell_angle_alpha	89.995834
_cell_angle_beta	89.992410
_cell_angle_gamma	83.463224
loop_
_atom_site_label
_atom_site_type_symbol
_atom_site_fract_x
_atom_site_fract_y
_atom_site_fract_z
O1	O	0.098816	1.196013	-0.066235
O2	O	0.598816	1.696013	0.433765
O3	O	0.110587	0.933511	-0.066249
O4	O	0.610587	1.433511	0.433751
O5	O	-0.005468	1.072169	-0.066234
O6	O	0.494532	1.572169	0.433766
O7	O	0.214870	1.057355	-0.066249
O8	O	0.714870	1.557355	0.433751
O9	O	-0.005475	1.072150	0.066342
O10	O	0.494525	1.572150	0.566342
O11	O	0.110580	0.933493	0.066328
O12	O	0.610580	1.433493	0.566328
O13	O	0.098809	1.195995	0.066342
O14	O	0.598809	1.695995	0.566342
Zn15	Zn	0.104693	1.064741	0.087384
Zn16	Zn	0.604693	1.564741	0.587384
Zn17	Zn	0.104702	1.064765	-0.087291
Zn18	Zn	0.604702	1.564765	0.412709
O19	O	0.214863	1.057337	0.066327
O20	O	0.714863	1.557337	0.566327
C21	C	0.110050	0.899915	0.000038
C22	C	0.610050	1.399915	0.500038
C23	C	0.108452	0.799837	0.000033
C24	C	0.608452	1.299837	0.500033
C25	C	-0.033669	1.071625	0.000054
C26	C	0.466331	1.571625	0.500054
C27	C	-0.117691	1.070023	0.000054
C28	C	0.382309	1.570023	0.500054
C29	C	-0.642374	1.142378	0.000035
C30	C	-0.142374	1.642378	0.500035
C31	C	-0.563426	1.143878	0.000043
C32	C	-0.063426	1.643878	0.500043
C33	C	-0.515020	1.062481	0.000040
C34	C	-0.015020	1.562481	0.500040
C35	C	-0.545565	0.979578	0.000039
C36	C	-0.045565	1.479578	0.500039
C37	C	-0.624511	0.978080	0.000037
C38	C	-0.124511	1.478080	0.500037
C39	C	-0.227183	0.985621	0.000046
C40	C	0.272817	1.485621	0.500046
C41	C	-0.148232	0.987126	0.000045
C42	C	0.351768	1.487126	0.500045
C43	C	-0.166098	1.151420	0.000051
C44	C	0.333902	1.651420	0.500051
C45	C	-0.245044	1.149921	0.000050
C46	C	0.254956	1.649921	0.500050
C47	C	-0.275583	1.067019	0.000052
C48	C	0.224417	1.567019	0.500052
C49	C	-0.361187	1.065394	0.000046
C50	C	0.138813	1.565394	0.500046
C51	C	-0.429417	1.064105	0.000041
C52	C	0.070583	1.564105	0.500041
C53	C	0.032757	0.387575	0.000056
C54	C	0.532757	0.887575	0.500056
C55	C	0.170632	0.365799	0.000045
C56	C	0.670632	0.865799	0.500045
C57	C	0.172135	0.459827	0.000043
C58	C	0.672135	0.959827	0.500043
C59	C	0.103947	0.517734	0.000045
C60	C	0.603947	1.017734	0.500045
C61	C	0.034257	0.481613	0.000051
C62	C	0.534257	0.981613	0.500051
C63	C	0.241824	0.495956	0.000030
C64	C	0.741824	0.995956	0.500030
C65	C	0.243329	0.589990	0.000026
C66	C	0.743329	1.089990	0.500026
C67	C	0.175141	0.647898	0.000034
C68	C	0.675141	1.147898	0.500034
C69	C	0.105448	0.611772	0.000040
C70	C	0.605448	1.111772	0.500040
C71	C	0.037261	0.669678	0.000043
C72	C	0.537261	1.169678	0.500043
C73	C	-0.032433	0.633553	0.000055
C74	C	0.467567	1.133553	0.500055
C75	C	-0.033931	0.539521	0.000059
C76	C	0.466069	1.039521	0.500059
C77	C	0.176639	0.741930	0.000030
C78	C	0.676639	1.241930	0.500030
C79	C	0.038762	0.763716	0.000038
C80	C	0.538762	1.263716	0.500038
C81	C	0.243065	1.057880	0.000037
C82	C	0.743065	1.557880	0.500037
C83	C	0.327086	1.059482	0.000031
C84	C	0.827086	1.559482	0.500031
C85	C	0.099346	1.229591	0.000053
C86	C	0.599346	1.729591	0.500053
C87	C	0.100944	1.329668	0.000053
C88	C	0.600944	1.829668	0.500053
N89	N	0.104686	1.064731	0.206595
N90	N	0.604686	1.564731	0.706595
N91	N	0.104703	1.064782	-0.206502
N92	N	0.604703	1.564782	0.293498
C93	C	0.053318	1.126147	0.248319
C94	C	0.553318	1.626147	0.748319
C95	C	0.053318	1.126152	0.331771
C96	C	0.553318	1.626152	0.831771
C97	C	0.104689	1.064744	0.373498
C98	C	0.604689	1.564744	0.873498
C99	C	0.156059	1.003322	0.331769
C100	C	0.656059	1.503322	0.831769
C101	C	0.156056	1.003313	0.248318
C102	C	0.656056	1.503313	0.748318
C103	C	0.156074	1.003354	0.668316
C104	C	0.656074	1.503354	1.168316
C105	C	0.156075	1.003369	0.751773
C106	C	0.656075	1.503369	1.251773
C107	C	0.053336	1.126193	0.751769
C108	C	0.553336	1.626193	1.251769
C109	C	0.053333	1.126185	0.668318
C110	C	0.553333	1.626185	1.168318
C111	C	0.104700	1.064759	0.626596
C112	C	0.604700	1.564759	1.126596
C113	C	0.104699	1.064753	0.536108
C114	C	0.604699	1.564753	1.036108
C115	C	0.104694	1.064754	0.463985
C116	C	0.604694	1.564754	0.963985
H117	H	-0.538565	1.211380	0.000047
H118	H	-0.038565	1.711380	0.500047
O119	O	-0.136307	1.231875	0.000092
O120	O	0.363693	1.731875	0.500092
C121	C	-0.056248	1.215751	0.000076
C122	C	0.443752	1.715751	0.500076
H123	H	-0.037791	1.145355	0.025176
H124	H	0.462209	1.645355	0.525176
H125	H	-0.031956	1.268784	0.038568
H126	H	0.468044	1.768784	0.538568
H127	H	-0.034258	1.220076	-0.063527
H128	H	0.465742	1.720076	0.436473
O129	O	-0.292096	1.228967	-0.000090
O130	O	0.207904	1.728967	0.499910
C131	C	-0.338300	1.233016	-0.068743
C132	C	0.161700	1.733016	0.431257
H133	H	-0.309435	1.186858	-0.116737
H134	H	0.190565	1.686858	0.383263
H135	H	-0.347092	1.305658	-0.091786
H136	H	0.152908	1.805658	0.408214
H137	H	-0.395735	1.209807	-0.053222
H138	H	0.104265	1.709807	0.446778
H139	H	-0.016766	0.810858	0.000043
H140	H	0.483234	1.310858	0.500043
H141	H	0.011504	1.176191	0.634346
H142	H	0.511504	1.676191	1.134346
H143	H	-0.090672	0.510099	0.000087
H144	H	0.409328	1.010099	0.500087
O145	O	0.003355	1.185731	0.792337
O146	O	0.503355	1.685731	1.292337
C147	C	-0.043401	1.137560	0.840636
C148	C	0.456599	1.637560	1.340636
H149	H	-0.044791	1.066467	0.815497
H150	H	0.455209	1.566467	1.315497
H151	H	-0.103502	1.174473	0.841588
H152	H	0.396498	1.674473	1.341588
H153	H	-0.019721	1.132788	0.903879
H154	H	0.480279	1.632788	1.403879
H155	H	-0.023986	0.358158	0.000068
H156	H	0.476014	0.858158	0.500068
H157	H	-0.087951	0.680713	0.000051
H158	H	0.412049	1.180713	0.500051
H159	H	0.226147	0.318646	0.000037
H160	H	0.726147	0.818646	0.500037
H161	H	0.197884	0.953301	0.214348
H162	H	0.697884	1.453301	0.714348
H163	H	0.197900	0.953341	0.634352
H164	H	0.697900	1.453341	1.134352
O165	O	0.308004	0.439614	-0.000079
O166	O	0.808004	0.939614	0.499921
C167	C	0.311268	0.384581	-0.068745
C168	C	0.811268	0.884581	0.431255
H169	H	0.251188	0.379956	-0.091630
H170	H	0.751188	0.879956	0.408370
H171	H	0.339380	0.313846	-0.053297
H172	H	0.839380	0.813846	0.446703
H173	H	0.345872	0.415436	-0.116832
H174	H	0.845872	0.915436	0.383168
H175	H	0.233382	0.771339	0.000022
H176	H	0.733382	1.271339	0.500022
H177	H	-0.108820	0.920839	0.000044
H178	H	0.391180	1.420839	0.500044
H179	H	0.300078	0.619394	0.000016
H180	H	0.800078	1.119394	0.500016
O181	O	0.003343	1.185834	0.207912
O182	O	0.503343	1.685834	0.707912
C183	C	-0.041984	1.240056	0.262638
C184	C	0.458016	1.740056	0.762638
H185	H	-0.042892	1.203102	0.322129
H186	H	0.457108	1.703102	0.822129
H187	H	-0.102408	1.253937	0.238537
H188	H	0.397592	1.753937	0.738537
H189	H	-0.017305	1.306972	0.271499
H190	H	0.482695	1.806972	0.771499
O191	O	0.003346	1.185694	0.372332
O192	O	0.503346	1.685694	0.872332
C193	C	-0.043418	1.137533	0.420633
C194	C	0.456582	1.637533	0.920633
H195	H	-0.044811	1.066438	0.395500
H196	H	0.455189	1.566438	0.895500
H197	H	-0.103517	1.174452	0.421578
H198	H	0.396483	1.674452	0.921578
H199	H	-0.019741	1.132767	0.483878
H200	H	0.480259	1.632767	0.983878
O201	O	0.205934	0.943757	0.372424
O202	O	0.705934	1.443757	0.872424
C203	C	0.194912	0.956919	0.455027
C204	C	0.694912	1.456919	0.955027
H205	H	0.166736	1.028654	0.466419
H206	H	0.666736	1.528654	0.966419
H207	H	0.252216	0.946769	0.486731
H208	H	0.752216	1.446769	0.986731
H209	H	0.156874	0.905979	0.478726
H210	H	0.656874	1.405979	0.978726
O211	O	0.206004	0.943622	0.792184
O212	O	0.706004	1.443622	1.292184
C213	C	0.251353	0.889416	0.737466
C214	C	0.751353	1.389416	1.237466
H215	H	0.220320	0.888459	0.677984
H216	H	0.720320	1.388459	1.177984
H217	H	0.262780	0.817401	0.761591
H218	H	0.762780	1.317401	1.261591
H219	H	0.307627	0.918554	0.728576
H220	H	0.807627	1.418554	1.228576
H221	H	-0.252037	0.918118	0.000038
H222	H	0.247963	1.418118	0.500038
H223	H	-0.506146	0.913304	0.000041
H224	H	-0.006146	1.413304	0.500041
O225	O	-0.689424	1.221425	-0.000104
O226	O	-0.189424	1.721425	0.499896
C227	C	-0.735628	1.225476	-0.068757
C228	C	-0.235628	1.725476	0.431243
H229	H	-0.706763	1.179317	-0.116751
H230	H	-0.206763	1.679317	0.383249
H231	H	-0.744418	1.298118	-0.091800
H232	H	-0.244418	1.798118	0.408200
H233	H	-0.793063	1.202269	-0.053237
H234	H	-0.293063	1.702269	0.446763
H235	H	-0.649375	0.910577	0.000040
H236	H	-0.149375	1.410577	0.500040
