data_functionalizedCrystal
_audit_creation_method	'MofGen! by Chris Wilmer'
_symmetry_space_group_name_H-M	'P1'
_symmetry_Int_Tables_number	1
_symmetry_cell_setting	triclinic
loop_
_symmetry_equiv_pos_as_xyz
  x,y,z
_cell_length_a	11.026607
_cell_length_b	10.908878
_cell_length_c	10.065875
_cell_angle_alpha	96.606954
_cell_angle_beta	79.302338
_cell_angle_gamma	84.335404
loop_
_atom_site_label
_atom_site_type_symbol
_atom_site_fract_x
_atom_site_fract_y
_atom_site_fract_z
O1	O	1.527086	0.499648	-0.113492
O2	O	1.185587	0.441146	-0.113494
O3	O	1.401606	0.293930	-0.113488
O4	O	1.311067	0.646864	-0.113498
O5	O	1.360385	0.322146	0.113500
O6	O	1.144366	0.469362	0.113493
O7	O	1.485865	0.527864	0.113495
Zn8	Zn	1.308571	0.503093	0.149534
Zn9	Zn	1.362881	0.465917	-0.149532
O10	O	1.269846	0.675080	0.113489
C11	C	1.121943	0.444461	-0.000001
C12	C	0.993722	0.412288	-0.000001
C13	C	1.389457	0.262152	0.000005
C14	C	1.414656	0.125424	-0.000000
C15	C	1.322712	0.055161	-0.000003
C16	C	1.348755	-0.086155	-0.000008
C17	C	0.901990	0.501123	-0.000005
C18	C	0.769466	0.467873	-0.000006
C19	C	1.549509	0.524548	-0.000001
C20	C	1.677732	0.556720	-0.000009
C21	C	1.281996	0.706857	-0.000006
C22	C	1.256798	0.843584	-0.000011
N23	N	1.271514	0.528466	0.353638
N24	N	1.399949	0.440537	-0.353637
C25	C	1.349982	0.474736	0.421419
C26	C	1.321470	0.494275	0.578586
H27	H	1.224715	0.099628	0.000005
C28	C	0.830314	0.699265	-0.000060
C29	C	0.704140	0.692630	-0.000046
H30	H	0.846617	0.783167	-0.000100
H31	H	0.850574	0.669436	0.079103
H32	H	0.879318	0.649704	-0.079209
H33	H	0.655136	0.742183	0.079109
H34	H	0.683867	0.722474	-0.079217
H35	H	1.438268	0.414264	0.363098
C36	C	1.085214	0.656032	0.339635
C37	C	1.152319	0.610090	0.432358
H38	H	1.011623	0.706417	0.388234
H39	H	1.134778	0.704334	0.283896
H40	H	1.063713	0.588499	0.283905
H41	H	1.173828	0.677624	0.488082
H42	H	1.102745	0.561787	0.488121
H43	H	1.446757	-0.130614	-0.000003
H44	H	1.512652	0.080959	0.000005
C45	C	0.841141	0.269748	-0.000010
C46	C	0.967311	0.276381	-0.000004
H47	H	0.824843	0.185840	-0.000021
H48	H	0.792134	0.319274	0.079142
H49	H	0.820884	0.299613	-0.079170
H50	H	0.987566	0.246524	0.079161
H51	H	1.016333	0.226837	-0.079164
C52	C	1.524034	0.354872	0.427191
C53	C	1.518945	0.358576	0.567650
H54	H	1.597440	0.304183	0.378600
H55	H	1.453278	0.321221	0.404035
H56	H	1.524856	0.436704	0.403680
H57	H	1.518114	0.276746	0.591163
H58	H	1.589720	0.392223	0.590815
H59	H	1.158792	-0.111956	0.000002
H60	H	0.921564	0.601794	-0.000000
H61	H	0.749903	0.367191	-0.000038
H62	H	1.233172	0.554739	0.636904
