data_functionalizedCrystal
_audit_creation_method	'MofGen! by Chris Wilmer'
_symmetry_space_group_name_H-M	'P1'
_symmetry_Int_Tables_number	1
_symmetry_cell_setting	triclinic
loop_
_symmetry_equiv_pos_as_xyz
  x,y,z
_cell_length_a	16.120297
_cell_length_b	11.169417
_cell_length_c	11.169416
_cell_angle_alpha	89.988781
_cell_angle_beta	92.878536
_cell_angle_gamma	87.118439
loop_
_atom_site_label
_atom_site_type_symbol
_atom_site_fract_x
_atom_site_fract_y
_atom_site_fract_z
Zn1	Zn	-0.471348	-1.800522	-0.512217
Zn2	Zn	0.028652	-1.300522	-0.012217
Zn3	Zn	-0.331950	-1.810597	-0.702744
Zn4	Zn	0.168050	-1.310597	-0.202744
Zn5	Zn	-0.331958	-1.609993	-0.502077
Zn6	Zn	0.168042	-1.109993	-0.002077
Zn7	Zn	-0.471325	-1.599817	-0.712858
Zn8	Zn	0.028675	-1.099817	-0.212858
O9	O	-0.401645	-1.705232	-0.607474
O10	O	0.098355	-1.205232	-0.107474
O11	O	-0.452862	-1.969808	-0.537501
O12	O	0.047138	-1.469808	-0.037501
O13	O	-0.215287	-1.792461	-0.667649
O14	O	0.284713	-1.292461	-0.167649
O15	O	-0.350462	-1.635309	-0.335473
O16	O	0.149538	-1.135309	0.164527
O17	O	-0.350447	-1.977210	-0.677481
O18	O	0.149553	-1.477210	-0.177481
O19	O	-0.452871	-1.775290	-0.342923
O20	O	0.047129	-1.275290	0.157077
O21	O	-0.215294	-1.645078	-0.520220
O22	O	0.284706	-1.145078	-0.020220
O23	O	-0.350440	-1.440694	-0.530027
O24	O	0.149560	-0.940694	-0.030027
O25	O	-0.587992	-1.617967	-0.694719
O26	O	-0.087992	-1.117967	-0.194719
O27	O	-0.452832	-1.433218	-0.684887
O28	O	0.047168	-0.933218	-0.184887
O29	O	-0.588009	-1.765424	-0.547309
O30	O	-0.088009	-1.265424	-0.047309
O31	O	-0.350425	-1.782595	-0.872034
O32	O	0.149575	-1.282595	-0.372034
O33	O	-0.452823	-1.627736	-0.879465
O34	O	0.047177	-1.127736	-0.379465
C35	C	-0.401639	-1.705185	-0.919298
C36	C	0.098361	-1.205185	-0.419298
C37	C	-0.401664	-1.705273	-1.052700
C38	C	0.098336	-1.205273	-0.552700
C39	C	-0.401635	-1.393409	-0.607455
C40	C	0.098365	-0.893409	-0.107455
C41	C	-0.401650	-1.260007	-0.607477
C42	C	0.098350	-0.760007	-0.107477
C43	C	-0.619095	-1.689436	-0.623273
C44	C	-0.119095	-1.189436	-0.123273
C45	C	-0.711760	-1.682705	-0.630005
C46	C	-0.211760	-1.182705	-0.130005
C47	C	-0.881419	-1.670371	-0.642271
C48	C	-0.381419	-1.170371	-0.142271
C49	C	-0.922724	-1.740331	-0.572317
C50	C	-0.422724	-1.240331	-0.072317
C51	C	-1.017128	-1.733468	-0.579142
C52	C	-0.517128	-1.233468	-0.079142
C53	C	-0.787006	-1.677232	-0.635448
C54	C	-0.287006	-1.177232	-0.135448
C55	C	-0.185041	-1.721036	-0.591650
C56	C	0.314959	-1.221036	-0.091650
C57	C	-0.092377	-1.728000	-0.584579
C58	C	0.407623	-1.228000	-0.084579
C59	C	-0.401657	-2.018274	-0.607494
C60	C	0.098343	-1.518274	-0.107494
C61	C	-0.401661	-2.151674	-0.607502
C62	C	0.098339	-1.651674	-0.107502
C63	C	-0.401670	-1.705311	-0.294433
C64	C	0.098330	-1.205311	0.205567
C65	C	-0.401680	-1.705345	-0.161034
C66	C	0.098320	-1.205345	0.338966
H67	H	-0.916954	-1.605328	-0.707281
H68	H	-0.416954	-1.105328	-0.207281
C69	C	-0.931259	-1.891517	-0.421194
C70	C	-0.431259	-1.391517	0.078806
C71	C	-0.874757	-1.828154	-0.484554
C72	C	-0.374757	-1.328154	0.015446
H73	H	-0.901642	-1.945729	-0.367013
H74	H	-0.401642	-1.445729	0.132987
H75	H	-0.965230	-1.934982	-0.475898
H76	H	-0.465230	-1.434982	0.024102
H77	H	-0.965215	-1.836809	-0.377684
H78	H	-0.465215	-1.336809	0.122316
H79	H	-0.840805	-1.882861	-0.528071
H80	H	-0.340805	-1.382861	-0.028071
H81	H	-0.840772	-1.784686	-0.429842
H82	H	-0.340772	-1.284686	0.070158
