data_functionalizedCrystal
_audit_creation_method	'MofGen! by Chris Wilmer'
_symmetry_space_group_name_H-M	'P1'
_symmetry_Int_Tables_number	1
_symmetry_cell_setting	triclinic
loop_
_symmetry_equiv_pos_as_xyz
  x,y,z
_cell_length_a	19.288840
_cell_length_b	15.944545
_cell_length_c	17.766277
_cell_angle_alpha	89.991536
_cell_angle_beta	89.983415
_cell_angle_gamma	83.311094
loop_
_atom_site_label
_atom_site_type_symbol
_atom_site_fract_x
_atom_site_fract_y
_atom_site_fract_z
O1	O	0.921638	0.104684	-0.062723
O2	O	1.421638	0.604684	0.437277
O3	O	0.719412	0.118841	-0.062698
O4	O	1.219412	0.618841	0.437302
O5	O	0.826049	-0.010535	-0.062702
O6	O	1.326049	0.489465	0.437298
O7	O	0.815000	0.234059	-0.062719
O8	O	1.315000	0.734059	0.437281
O9	O	0.826031	-0.010541	0.062486
O10	O	1.326031	0.489459	0.562486
O11	O	0.719393	0.118834	0.062491
O12	O	1.219393	0.618834	0.562491
O13	O	0.921619	0.104677	0.062465
O14	O	1.421619	0.604677	0.562465
Cu15	Cu	0.820504	0.111755	0.073909
Cu16	Cu	1.320504	0.611755	0.573909
Cu17	Cu	0.820527	0.111763	-0.074141
Cu18	Cu	1.320527	0.611763	0.425859
O19	O	0.814982	0.234053	0.062470
O20	O	1.314982	0.734053	0.562470
C21	C	0.693525	0.118386	-0.000100
C22	C	1.193525	0.618386	0.499900
C23	C	0.616416	0.117029	-0.000090
C24	C	1.116416	0.617029	0.499910
C25	C	0.580221	0.116380	-0.068332
C26	C	1.080221	0.616380	0.431668
C27	C	0.507771	0.115096	-0.068341
C28	C	1.007771	0.615096	0.431659
C29	C	0.471521	0.114443	-0.000104
C30	C	0.971521	0.614443	0.499896
C31	C	0.507724	0.115096	0.068147
C32	C	1.007724	0.615096	0.568147
C33	C	0.580172	0.116389	0.068154
C34	C	1.080172	0.616389	0.568154
C35	C	0.362051	0.063193	0.052168
C36	C	0.862051	0.563193	0.552168
C37	C	0.289605	0.061895	0.052158
C38	C	0.789605	0.561895	0.552158
C39	C	0.248066	0.110460	-0.000124
C40	C	0.748066	0.610460	0.499876
C41	C	0.278984	0.160311	-0.052408
C42	C	0.778984	0.660311	0.447592
C43	C	0.351432	0.161604	-0.052401
C44	C	0.851432	0.661604	0.447599
C45	C	0.392963	0.113042	-0.000105
C46	C	0.892963	0.613042	0.499895
C47	C	0.133312	0.108420	-0.068381
C48	C	0.633312	0.608420	0.431619
C49	C	0.060860	0.107141	-0.068387
C50	C	0.560860	0.607141	0.431613
C51	C	0.060815	0.107133	0.068103
C52	C	0.560815	0.607133	0.568103
C53	C	0.133265	0.108420	0.068107
C54	C	0.633265	0.608420	0.568107
C55	C	0.169510	0.109060	-0.000136
C56	C	0.669510	0.609060	0.499864
C57	C	0.825582	-0.041830	-0.000107
C58	C	1.325582	0.458170	0.499893
C59	C	0.824209	-0.135071	-0.000105
C60	C	1.324209	0.364929	0.499895
C61	C	0.754008	-0.405426	-0.000111
C62	C	1.254008	0.094574	0.499889
C63	C	0.787863	-0.354971	-0.061841
C64	C	1.287863	0.145029	0.438159
C65	C	0.819313	-0.470696	-0.000126
C66	C	1.319313	0.029304	0.499874
C67	C	0.787862	-0.355005	0.061586
C68	C	1.287862	0.144995	0.561586
C69	C	0.821715	-0.305792	-0.000114
C70	C	1.321715	0.194208	0.499886
C71	C	0.853151	-0.421469	-0.061906
C72	C	1.353151	0.078531	0.438094
C73	C	0.853140	-0.421506	0.061576
C74	C	1.353140	0.078494	0.561576
C75	C	0.887043	-0.371084	-0.000169
C76	C	1.387043	0.128916	0.499831
C77	C	0.817928	-0.565692	-0.000133
C78	C	1.317928	-0.065692	0.499867
C79	C	0.823106	-0.210798	-0.000113
C80	C	1.323106	0.289202	0.499887
C81	C	0.947506	0.105132	-0.000134
C82	C	1.447506	0.605132	0.499866
C83	C	1.024615	0.106489	-0.000149
C84	C	1.524615	0.606489	0.499851
C85	C	0.815449	0.265348	-0.000127
C86	C	1.315449	0.765348	0.499873
C87	C	0.816822	0.358589	-0.000134
C88	C	1.316822	0.858589	0.499866
N89	N	0.820494	0.111749	0.178039
N90	N	1.320494	0.611749	0.678039
N91	N	0.820543	0.111762	-0.178272
N92	N	1.320543	0.611762	0.321728
C93	C	0.867728	0.054490	0.217424
C94	C	1.367728	0.554490	0.717424
C95	C	0.867732	0.054486	0.296226
C96	C	1.367732	0.554486	0.796226
C97	C	0.820509	0.111756	0.335639
C98	C	1.320509	0.611756	0.835639
C99	C	0.773265	0.169020	0.296245
C100	C	1.273265	0.669020	0.796245
C101	C	0.773258	0.169016	0.217445
C102	C	1.273258	0.669016	0.717445
C103	C	0.811410	0.188290	0.460473
C104	C	1.311410	0.688290	0.960473
C105	C	0.811422	0.188295	0.539272
C106	C	1.311422	0.688295	1.039272
C107	C	0.820527	0.111766	0.578686
C108	C	1.320527	0.611766	1.078686
C109	C	0.829635	0.035229	0.539291
C110	C	1.329635	0.535229	1.039291
C111	C	0.829628	0.035226	0.460491
C112	C	1.329628	0.535226	0.960491
C113	C	0.820511	0.111765	0.421085
C114	C	1.320511	0.611765	0.921085
C115	C	0.867769	0.054497	0.703517
C116	C	1.367769	0.554497	1.203517
C117	C	0.867768	0.054492	0.782320
C118	C	1.367768	0.554492	1.282320
C119	C	0.773304	0.169034	0.782338
C120	C	1.273304	0.669034	1.282338
C121	C	0.773301	0.169031	0.703536
C122	C	1.273301	0.669031	1.203536
C123	C	0.820537	0.111764	0.664130
C124	C	1.320537	0.611764	1.164130
H125	H	0.376602	0.202197	-0.094970
H126	H	0.876602	0.702197	0.405030
O127	O	0.918684	-0.007291	0.660999
O128	O	1.418684	0.492709	1.160999
H129	H	0.952447	0.027940	0.625071
H130	H	1.452447	0.527940	1.125071
O131	O	0.889629	-0.460008	0.130697
O132	O	1.389629	0.039992	0.630697
H133	H	0.944536	-0.445532	0.131161
H134	H	1.444536	0.054468	0.631161
O135	O	0.918683	-0.007273	0.338718
O136	O	1.418683	0.492727	0.838718
H137	H	0.952432	0.027992	0.374601
H138	H	1.452432	0.527992	0.874601
O139	O	0.021830	0.106417	-0.142002
O140	O	0.521830	0.606417	0.357998
H141	H	0.029556	0.163889	-0.174747
H142	H	0.529556	0.663889	0.325253
H143	H	0.760290	-0.325925	-0.114021
H144	H	1.260290	0.174075	0.385979
H145	H	0.760263	-0.325984	0.113771
H146	H	1.260263	0.174016	0.613771
O147	O	0.889661	-0.459754	-0.131117
O148	O	1.389661	0.040246	0.368883
H149	H	0.888334	-0.529159	-0.130595
H150	H	1.388334	-0.029159	0.369405
O151	O	0.839315	-0.047369	0.418074
O152	O	1.339315	0.452631	0.918074
H153	H	0.792864	-0.052536	0.382261
H154	H	1.292864	0.447464	0.882261
H155	H	0.906189	0.007857	0.185342
H156	H	1.406189	0.507857	0.685342
H157	H	0.734814	0.215649	0.328340
H158	H	1.234814	0.715649	0.828340
H159	H	0.697766	-0.420856	-0.000165
H160	H	1.197766	0.079144	0.499835
H161	H	0.609641	0.116918	0.123727
H162	H	1.109641	0.616918	0.623727
H163	H	0.943328	-0.355816	-0.000211
H164	H	1.443328	0.144184	0.499789
O165	O	0.234201	0.212717	-0.108797
O166	O	0.734201	0.712717	0.391203
H167	H	0.205686	0.170656	-0.144102
H168	H	0.705686	0.670656	0.355898
O169	O	0.021667	0.106551	0.141675
O170	O	0.521667	0.606551	0.641675
H171	H	-0.005192	0.048765	0.144990
H172	H	0.494808	0.548765	0.644990
O173	O	0.172310	0.109132	0.141712
O174	O	0.672310	0.609132	0.641712
H175	H	0.134933	0.108464	0.189161
H176	H	0.634933	0.608464	0.689161
H177	H	0.837049	-0.027088	0.571380
H178	H	1.337049	0.472912	1.071380
H179	H	0.264438	0.021299	0.094727
H180	H	0.764438	0.521299	0.594727
O181	O	0.918723	-0.007260	0.824806
O182	O	1.418723	0.492740	1.324806
H183	H	0.951572	-0.047070	0.784162
H184	H	1.451572	0.452930	1.284162
O185	O	0.468726	0.114380	-0.141951
O186	O	0.968726	0.614380	0.358049
H187	H	0.476444	0.171857	-0.174691
H188	H	0.976444	0.671857	0.325309
H189	H	0.734841	0.215661	0.671467
H190	H	1.234841	0.715661	1.171467
H191	H	0.734851	0.215661	0.814428
H192	H	1.234851	0.715661	1.314428
O193	O	0.801613	0.270839	0.581761
O194	O	1.301613	0.770839	1.081761
H195	H	0.795271	0.324054	0.541117
H196	H	1.295271	0.824054	1.041117
H197	H	0.734793	0.215645	0.185377
H198	H	1.234793	0.715645	0.685377
O199	O	0.619315	0.117081	-0.141934
O200	O	1.119315	0.617081	0.358066
H201	H	0.581968	0.116422	-0.189390
H202	H	1.081968	0.616422	0.310610
O203	O	0.172412	0.109125	-0.141981
O204	O	0.672412	0.609125	0.358019
H205	H	0.135066	0.108474	-0.189438
H206	H	0.635066	0.608474	0.310562
H207	H	0.803983	0.250613	0.428389
H208	H	1.303983	0.750613	0.928389
O209	O	0.406855	0.010811	0.108559
O210	O	0.906855	0.510811	0.608559
H211	H	0.400262	-0.056880	0.100825
H212	H	0.900262	0.443120	0.600825
O213	O	0.468588	0.114798	0.141747
O214	O	0.968588	0.614798	0.641747
H215	H	0.412114	0.113931	0.130277
H216	H	0.912114	0.613931	0.630277
