data_functionalizedCrystal
_audit_creation_method	'MofGen! by Chris Wilmer'
_symmetry_space_group_name_H-M	'P1'
_symmetry_Int_Tables_number	1
_symmetry_cell_setting	triclinic
loop_
_symmetry_equiv_pos_as_xyz
  x,y,z
_cell_length_a	8.597340
_cell_length_b	15.944551
_cell_length_c	7.681481
_cell_angle_alpha	84.256492
_cell_angle_beta	103.474906
_cell_angle_gamma	84.421977
loop_
_atom_site_label
_atom_site_type_symbol
_atom_site_fract_x
_atom_site_fract_y
_atom_site_fract_z
O1	O	2.099858	0.116161	0.172153
O2	O	1.635799	0.129545	0.101743
O3	O	1.880503	0.000577	0.138887
O4	O	1.855154	0.245130	0.135009
O5	O	1.910622	-0.015333	0.436316
O6	O	1.665918	0.113635	0.399172
O7	O	2.129977	0.100252	0.469583
Zn8	Zn	1.902729	0.104417	0.481601
Zn9	Zn	1.863046	0.125379	0.089725
O10	O	1.885273	0.229220	0.432439
C11	C	1.591475	0.121039	0.241448
C12	C	1.414530	0.119387	0.214601
C13	C	1.894510	-0.038672	0.287442
C14	C	1.891356	-0.131918	0.286965
C15	C	1.732135	-0.346764	0.262782
C16	C	1.820921	-0.415630	0.420651
C17	C	1.885648	-0.302643	0.286085
C18	C	1.791263	-0.399928	0.127414
C19	C	1.880122	-0.467554	0.285226
C20	C	1.974488	-0.370287	0.444081
C21	C	1.944794	-0.354571	0.150709
C22	C	2.033695	-0.423422	0.308631
C23	C	1.888827	-0.207641	0.286581
C24	C	1.876956	-0.562555	0.284745
C25	C	2.174301	0.108758	0.329874
C26	C	2.351244	0.110410	0.356709
C27	C	1.871266	0.268469	0.283879
C28	C	1.874419	0.361715	0.284345
N29	N	1.929824	0.090111	0.749048
N30	N	1.835965	0.139679	-0.177720
H31	H	1.333335	0.125810	0.072381
Cl32	Cl	1.671594	-0.420702	-0.079205
Cl33	Cl	1.535431	-0.295339	0.233148
H34	H	1.997112	-0.327813	0.036565
Cl35	Cl	1.688035	0.217794	0.683729
H36	H	1.768547	-0.442366	0.534781
H37	H	1.432432	0.103982	0.498919
H38	H	2.051931	-0.356940	0.578042
Cl39	Cl	2.077777	0.012001	0.887608
Cl40	Cl	2.230605	-0.474638	0.338626
