data_functionalizedCrystal
_audit_creation_method	'MofGen! by Chris Wilmer'
_symmetry_space_group_name_H-M	'P1'
_symmetry_Int_Tables_number	1
_symmetry_cell_setting	triclinic
loop_
_symmetry_equiv_pos_as_xyz
  x,y,z
_cell_length_a	15.944551
_cell_length_b	9.130313
_cell_length_c	10.654550
_cell_angle_alpha	89.999724
_cell_angle_beta	83.991834
_cell_angle_gamma	89.994529
loop_
_atom_site_label
_atom_site_type_symbol
_atom_site_fract_x
_atom_site_fract_y
_atom_site_fract_z
O1	O	0.117977	-0.121694	1.666313
O2	O	0.617977	0.378306	2.166313
O3	O	0.129217	-0.121721	1.300689
O4	O	0.629217	0.378279	1.800689
O5	O	0.001379	-0.121693	1.493485
O6	O	0.501379	0.378307	1.993485
O7	O	0.245814	-0.121721	1.473517
O8	O	0.745814	0.378279	1.973517
O9	O	0.001376	0.121906	1.493472
O10	O	0.501376	0.621906	1.993472
O11	O	0.129213	0.121878	1.300676
O12	O	0.629213	0.621878	1.800676
O13	O	0.117973	0.121905	1.666300
O14	O	0.617973	0.621905	2.166300
Cu15	Cu	0.123592	0.144134	1.483487
Cu16	Cu	0.623592	0.644134	1.983487
Cu17	Cu	0.123597	-0.143950	1.483502
Cu18	Cu	0.623597	0.356050	1.983502
O19	O	0.245810	0.121878	1.473503
O20	O	0.745810	0.621878	1.973503
C21	C	-0.029921	0.000106	1.492650
C22	C	0.470079	0.500106	1.992650
C23	C	-0.123182	0.000107	1.490165
C24	C	0.376818	0.500107	1.990165
C25	C	0.128389	0.000075	1.253895
C26	C	0.628389	0.500075	1.753895
C27	C	0.125920	0.000065	1.114484
C28	C	0.625920	0.500065	1.614484
N29	N	0.123589	0.346757	1.483485
N30	N	0.623589	0.846757	1.983485
C31	C	-0.338764	0.000077	1.364720
C32	C	0.161236	0.500077	1.864720
C33	C	-0.399446	0.120191	1.422966
C34	C	0.100554	0.620191	1.922966
C35	C	-0.293933	0.000095	1.485668
C36	C	0.206067	0.500095	1.985668
C37	C	-0.399426	-0.119979	1.423007
C38	C	0.100574	0.380021	1.923007
C39	C	-0.458871	0.000078	1.481317
C40	C	0.041129	0.500078	1.981317
C41	C	-0.353387	0.120308	1.543947
C42	C	0.146613	0.620308	2.043947
C43	C	-0.353360	-0.119969	1.543972
C44	C	0.146640	0.380031	2.043972
C45	C	-0.414024	0.000173	1.602306
C46	C	0.085976	0.500173	2.102306
C47	C	-0.198917	0.000107	1.488172
C48	C	0.301083	0.500107	1.988172
C49	C	-0.553887	0.000077	1.478822
C50	C	-0.053887	0.500077	1.978822
C51	C	0.277110	0.000075	1.474339
C52	C	0.777110	0.500075	1.974339
C53	C	0.370371	0.000065	1.476824
C54	C	0.870371	0.500065	1.976824
N55	N	0.123594	-0.346572	1.483514
N56	N	0.623594	0.153428	1.983514
C57	C	0.067007	0.423421	1.568884
C58	C	0.567007	0.923421	2.068884
C59	C	0.067007	0.576758	1.568896
C60	C	0.567007	1.076758	2.068896
C61	C	0.180179	0.576753	1.398106
C62	C	0.680179	1.076753	1.898106
C63	C	0.180174	0.423419	1.398089
C64	C	0.680174	0.923419	1.898089
C65	C	0.201189	0.000061	1.034024
C66	C	0.701189	0.500061	1.534024
C67	C	0.198863	0.000087	0.903034
C68	C	0.698863	0.500087	1.403034
C69	C	0.045995	0.000115	0.932975
C70	C	0.545995	0.500115	1.432975
C71	C	0.048321	0.000100	1.063963
C72	C	0.548321	0.500100	1.563963
C73	C	0.118800	0.000106	1.713094
C74	C	0.618800	0.500106	2.213094
C75	C	0.121269	0.000106	1.852505
C76	C	0.621269	0.500106	2.352505
H77	H	-0.306038	0.000190	1.264327
H78	H	0.193962	0.500190	1.764327
H79	H	0.226250	0.360995	1.328541
H80	H	0.726250	0.860995	1.828541
C81	C	-0.034476	0.000103	1.152480
C82	C	0.465524	0.500103	1.652480
H83	H	-0.021975	0.000105	1.237726
H84	H	0.478025	0.500105	1.737726
H85	H	-0.066265	-0.084836	1.137162
H86	H	0.433735	0.415164	1.637162
H87	H	-0.066260	0.085072	1.137171
H88	H	0.433740	0.585072	1.637171
C89	C	-0.458042	0.000273	1.738038
C90	C	0.041958	0.500273	2.238038
H91	H	-0.442284	0.085672	1.780789
H92	H	0.057716	0.585672	2.280789
H93	H	-0.441567	-0.084234	1.781325
H94	H	0.058433	0.415766	2.281325
H95	H	-0.517441	-0.000524	1.735731
H96	H	-0.017441	0.499476	2.235731
H97	H	-0.419852	0.221729	1.371804
H98	H	0.080148	0.721729	1.871804
C99	C	-0.325990	0.257646	1.612979
C100	C	0.174010	0.757646	2.112979
H101	H	-0.266491	0.256842	1.614091
H102	H	0.233509	0.756842	2.114091
H103	H	-0.352432	0.258007	1.697122
H104	H	0.147568	0.758007	2.197122
H105	H	-0.342133	0.342827	1.570285
H106	H	0.157867	0.842827	2.070285
C107	C	-0.426963	-0.257156	1.353891
C108	C	0.073037	0.242844	1.853891
H109	H	-0.464312	-0.313716	1.409854
H110	H	0.035688	0.186284	1.909854
H111	H	-0.378741	-0.314088	1.325869
H112	H	0.121259	0.185912	1.825869
H113	H	-0.454838	-0.228280	1.283311
H114	H	0.045162	0.271720	1.783311
H115	H	0.260155	0.000086	0.837528
H116	H	0.760155	0.500086	1.337528
H117	H	-0.017184	0.000152	0.891824
H118	H	0.482816	0.500152	1.391824
C119	C	-0.325754	-0.257141	1.613024
C120	C	0.174246	0.242859	2.113024
H121	H	-0.341345	-0.342406	1.569933
H122	H	0.158655	0.157594	2.069933
H123	H	-0.352564	-0.258000	1.696951
H124	H	0.147436	0.242000	2.196951
H125	H	-0.266311	-0.255663	1.614759
H126	H	0.233689	0.244337	2.114759
H127	H	0.020930	0.361006	1.638416
H128	H	0.520930	0.861006	2.138416
H129	H	0.264375	0.000044	1.075154
H130	H	0.764375	0.500044	1.575154
H131	H	0.020931	0.639173	1.638433
H132	H	0.520931	1.139173	2.138433
C133	C	0.242425	0.661086	1.304190
C134	C	0.742425	1.161086	1.804190
H135	H	0.234331	0.763387	1.316439
H136	H	0.734331	1.263387	1.816439
H137	H	0.232783	0.635977	1.220377
H138	H	0.732783	1.135977	1.720377
H139	H	0.298571	0.635933	1.317835
H140	H	0.798571	1.135933	1.817835
