data_functionalizedCrystal
_audit_creation_method	'MofGen! by Chris Wilmer'
_symmetry_space_group_name_H-M	'P1'
_symmetry_Int_Tables_number	1
_symmetry_cell_setting	triclinic
loop_
_symmetry_equiv_pos_as_xyz
  x,y,z
_cell_length_a	16.956984
_cell_length_b	22.010155
_cell_length_c	16.974813
_cell_angle_alpha	93.650313
_cell_angle_beta	79.731954
_cell_angle_gamma	90.008306
loop_
_atom_site_label
_atom_site_type_symbol
_atom_site_fract_x
_atom_site_fract_y
_atom_site_fract_z
O1	O	1.058010	0.052138	0.032751
O2	O	0.825822	0.053503	0.060514
O3	O	0.948388	0.047138	-0.068893
O4	O	0.935444	0.058504	0.162158
O5	O	0.948365	-0.053912	-0.068873
O6	O	0.825799	-0.047546	0.060533
O7	O	1.057987	-0.048911	0.032771
Cu8	Cu	0.941891	-0.057455	0.046654
Cu9	Cu	0.941918	0.062047	0.046631
O10	O	0.935421	-0.042546	0.162178
C11	C	0.796101	0.003049	0.061945
C12	C	0.707576	0.003256	0.066172
N13	N	0.941879	-0.141507	0.046669
C14	C	0.675568	-0.000221	-0.004496
C15	C	0.592389	-0.000021	-0.000520
C16	C	0.541218	0.003652	0.074125
C17	C	0.573230	0.007132	0.144798
C18	C	0.656408	0.006936	0.140821
C19	C	0.291424	0.004625	0.093809
C20	C	0.208241	0.004818	0.097781
C21	C	0.227405	-0.002333	-0.047537
C22	C	0.310584	-0.002532	-0.051508
C23	C	0.342589	0.000950	0.019165
N24	N	0.456195	0.003855	0.078191
N25	N	0.427611	0.000752	0.015099
C26	C	0.996193	-0.564107	-0.010663
C27	C	0.996197	-0.627715	-0.010669
O28	O	1.042345	-0.663003	-0.059403
N29	N	0.941917	-0.656717	0.046614
C30	C	0.887625	-0.622108	0.103902
O31	O	0.841456	-0.652617	0.152624
C32	C	0.887618	-0.558502	0.103903
C33	C	0.941907	-0.529503	0.046621
C34	C	1.050477	-0.535107	-0.067941
C35	C	1.050474	-0.471504	-0.067934
C36	C	0.996187	-0.436900	-0.010649
C37	C	0.941904	-0.465899	0.046628
C38	C	0.833323	-0.523894	0.161186
C39	C	0.833320	-0.460283	0.161182
C40	C	0.887609	-0.431284	0.103901
C41	C	0.887614	-0.367691	0.103919
N42	N	0.941894	-0.338689	0.046636
C43	C	0.996180	-0.373293	-0.010648
C44	C	0.887643	-0.755686	0.103893
C45	C	0.887653	-0.819291	0.103896
C46	C	0.996224	-0.824894	-0.010675
C47	C	0.996217	-0.761287	-0.010674
C48	C	0.941922	-0.726684	0.046610
C49	C	0.996171	-0.239721	-0.010629
C50	C	0.996165	-0.176111	-0.010615
C51	C	0.887592	-0.170515	0.103953
C52	C	0.887600	-0.234119	0.103943
C53	C	0.941892	-0.268720	0.046645
O54	O	0.841488	-0.332363	0.152626
O55	O	1.042335	-0.342776	-0.059369
C56	C	1.087708	0.001545	0.031340
C57	C	1.176233	0.001341	0.027113
C58	C	0.947884	-0.004833	-0.098309
C59	C	0.946406	-0.009143	-0.185988
N60	N	0.941937	0.146099	0.046609
C61	C	0.945726	0.043914	-0.227186
C62	C	0.944333	0.039863	-0.309570
C63	C	0.943625	-0.017245	-0.350754
C64	C	0.944303	-0.070306	-0.309549
C65	C	0.945691	-0.066255	-0.227167
C66	C	0.939468	-0.035269	-0.597140
C67	C	0.938083	-0.039317	-0.679529
C68	C	0.938111	0.070853	-0.679543
C69	C	0.939504	0.074900	-0.597160
C70	C	0.940177	0.021839	-0.555961
N71	N	0.942203	-0.021388	-0.434963
N72	N	0.941593	0.025982	-0.471753
C73	C	0.935925	0.009427	0.191594
C74	C	0.937403	0.013740	0.279273
H75	H	0.717227	-0.003215	-0.065280
C76	C	0.773611	-0.555779	0.224203
H77	H	0.741281	-0.526052	0.258311
H78	H	0.802259	-0.579060	0.255265
H79	H	0.740442	-0.581888	0.197912
H80	H	0.843454	-0.842897	0.150548
C81	C	0.943528	-0.133125	-0.354851
H82	H	0.942613	-0.127940	-0.409817
H83	H	0.897270	-0.154650	-0.332281
H84	H	0.990238	-0.155537	-0.350411
C85	C	0.366866	-0.006573	-0.133617
H86	H	0.335890	-0.008612	-0.175136
H87	H	0.399703	-0.042037	-0.138178
H88	H	0.399721	0.028444	-0.138197
C89	C	0.516948	0.011176	0.226907
H90	H	0.547926	0.013226	0.268425
H91	H	0.484092	-0.023836	0.231491
H92	H	0.484113	0.046645	0.231467
C93	C	0.946441	-0.124617	-0.181849
H94	H	0.945828	-0.159210	-0.218176
H95	H	0.900501	-0.124880	-0.140644
H96	H	0.993468	-0.125773	-0.158780
H97	H	0.166578	0.007807	0.158569
H98	H	0.566333	-0.002852	-0.058065
H99	H	0.946307	0.090418	-0.193661
H100	H	0.201337	-0.005162	-0.105075
C101	C	0.326620	0.008444	0.171546
H102	H	0.284229	0.010651	0.216569
H103	H	0.358678	0.043753	0.173018
H104	H	0.358659	-0.026728	0.173019
C105	C	0.773598	-0.422223	0.224200
H106	H	0.741275	-0.448608	0.258314
H107	H	0.740435	-0.398703	0.197910
H108	H	0.802248	-0.395885	0.255267
C109	C	0.691616	0.010760	0.218555
H110	H	0.649229	0.012971	0.263581
H111	H	0.723673	0.046071	0.220016
H112	H	0.723658	-0.024410	0.220032
C113	C	0.827876	-0.132443	0.166956
H114	H	0.835647	-0.090409	0.158744
H115	H	0.836463	-0.140297	0.219176
H116	H	0.774667	-0.143127	0.161801
H117	H	1.094678	-0.447897	-0.114579
H118	H	0.943782	0.083068	-0.343110
H119	H	0.940081	0.121404	-0.563633
C120	C	1.055936	-0.862964	-0.073693
H121	H	1.088271	-0.836587	-0.107808
H122	H	1.027286	-0.889306	-0.104749
H123	H	1.089100	-0.886481	-0.047393
H124	H	0.937561	0.114052	-0.713095
C125	C	1.055881	-0.144216	-0.073630
H126	H	1.088205	-0.173939	-0.107752
H127	H	1.089044	-0.118108	-0.047337
H128	H	1.027227	-0.120932	-0.104690
C129	C	0.937296	-0.102139	-0.724829
H130	H	0.937887	-0.133160	-0.688493
H131	H	0.983234	-0.106459	-0.766033
H132	H	0.890267	-0.105556	-0.747897
C133	C	1.055894	-0.277774	-0.073652
H134	H	1.088223	-0.251385	-0.107755
H135	H	1.027256	-0.304116	-0.104720
H136	H	1.089062	-0.301290	-0.047355
C137	C	1.110201	-0.573163	-0.130955
H138	H	1.142528	-0.546773	-0.165058
H139	H	1.081569	-0.599509	-0.162023
H140	H	1.143371	-0.596674	-0.104655
C141	C	0.940208	-0.093632	-0.551828
H142	H	0.941125	-0.083044	-0.496863
H143	H	0.986454	-0.117379	-0.574390
H144	H	0.893487	-0.116478	-0.556264
C145	C	1.055927	-0.729394	-0.073688
H146	H	1.088253	-0.759118	-0.107805
H147	H	1.089088	-0.703282	-0.047398
H148	H	1.027273	-0.706115	-0.104753
H149	H	0.843401	-0.257730	0.150594
H150	H	0.843431	-0.727515	0.150547
