data_functionalizedCrystal
_audit_creation_method	'MofGen! by Chris Wilmer'
_symmetry_space_group_name_H-M	'P1'
_symmetry_Int_Tables_number	1
_symmetry_cell_setting	triclinic
loop_
_symmetry_equiv_pos_as_xyz
  x,y,z
_cell_length_a	11.792254
_cell_length_b	16.109302
_cell_length_c	15.186229
_cell_angle_alpha	89.994701
_cell_angle_beta	89.999311
_cell_angle_gamma	96.169811
loop_
_atom_site_label
_atom_site_type_symbol
_atom_site_fract_x
_atom_site_fract_y
_atom_site_fract_z
O1	O	-0.145888	1.103822	-0.073259
O2	O	0.354112	1.603822	0.426741
O3	O	-0.164042	0.861846	-0.073251
O4	O	0.335958	1.361846	0.426749
O5	O	0.010256	0.988700	-0.073260
O6	O	0.510256	1.488700	0.426740
O7	O	-0.320186	0.976967	-0.073251
O8	O	0.179814	1.476967	0.426749
O9	O	0.010258	0.988692	0.073198
O10	O	0.510258	1.488692	0.573198
O11	O	-0.164040	0.861837	0.073206
O12	O	0.335960	1.361837	0.573206
O13	O	-0.145886	1.103813	0.073198
O14	O	0.354114	1.603813	0.573198
Zn15	Zn	-0.154963	0.982824	0.096455
Zn16	Zn	0.345037	1.482824	0.596455
Zn17	Zn	-0.154966	0.982835	-0.096509
Zn18	Zn	0.345034	1.482835	0.403491
O19	O	-0.320184	0.976959	0.073206
O20	O	0.179816	1.476959	0.573206
C21	C	-0.163306	0.830863	-0.000022
C22	C	0.336694	1.330863	0.499978
C23	C	-0.161101	0.738557	-0.000019
C24	C	0.338899	1.238557	0.499981
C25	C	-0.156000	0.526188	0.079806
C26	C	0.344000	1.026188	0.579806
C27	C	-0.153916	0.439458	0.079803
C28	C	0.346084	0.939458	0.579803
C29	C	-0.153925	0.439478	-0.079873
C30	C	0.346075	0.939478	0.420127
C31	C	-0.156001	0.526207	-0.079869
C32	C	0.343999	1.026207	0.420131
C33	C	-0.157044	0.569559	-0.000027
C34	C	0.342956	1.069559	0.499973
C35	C	-0.152884	0.396100	-0.000034
C36	C	0.347116	0.896100	0.499966
C37	C	-0.150624	0.302064	-0.000038
C38	C	0.349376	0.802064	0.499962
C39	C	-0.159302	0.663602	-0.000023
C40	C	0.340698	1.163602	0.499977
C41	C	-0.362469	0.977702	-0.000022
C42	C	0.137531	1.477702	0.499978
C43	C	-0.488463	0.979914	-0.000019
C44	C	0.011537	1.479914	0.499981
C45	C	-0.590784	0.981712	-0.000024
C46	C	-0.090784	1.481712	0.499976
C47	C	-0.719151	0.983959	-0.000034
C48	C	-0.219151	1.483959	0.499966
C49	C	0.052541	0.987957	-0.000034
C50	C	0.552541	1.487957	0.499966
C51	C	0.178535	0.985745	-0.000043
C52	C	0.678535	1.485745	0.499957
C53	C	-0.146623	1.134796	-0.000034
C54	C	0.353377	1.634796	0.499966
C55	C	-0.148828	1.227102	-0.000042
C56	C	0.351172	1.727102	0.499958
N57	N	-0.154960	0.982822	0.228148
N58	N	0.345040	1.482822	0.728148
N59	N	-0.154960	0.982843	-0.228201
N60	N	0.345040	1.482843	0.271799
C61	C	-0.077806	1.039013	0.453867
C62	C	0.422194	1.539013	0.953867
C63	C	-0.077804	1.039015	0.546057
C64	C	0.422196	1.539015	1.046057
C65	C	-0.232117	0.926647	0.546073
C66	C	0.267883	1.426647	1.046073
C67	C	-0.232113	0.926641	0.453885
C68	C	0.267887	1.426641	0.953885
C69	C	-0.154959	0.982828	0.407784
C70	C	0.345041	1.482828	0.907784
C71	C	-0.154960	0.982837	0.592162
C72	C	0.345040	1.482837	1.092162
C73	C	-0.154958	0.982839	0.692118
C74	C	0.345042	1.482839	1.192118
C75	C	-0.154960	0.982825	0.307822
C76	C	0.345040	1.482825	0.807822
H77	H	-0.156848	0.561521	-0.144883
H78	H	0.343152	1.061521	0.355117
H79	H	-0.156850	0.561483	0.144818
H80	H	0.343150	1.061483	0.644818
O81	O	-0.002705	1.093560	0.590724
O82	O	0.497295	1.593560	1.090724
C83	C	0.109655	1.079525	0.568214
C84	C	0.609655	1.579525	1.068214
H85	H	0.109527	1.047476	0.501284
H86	H	0.609527	1.547476	1.001284
H87	H	0.165522	1.141765	0.565049
H88	H	0.665522	1.641765	1.065049
H89	H	0.144773	1.037988	0.620104
H90	H	0.644773	1.537988	1.120104
H91	H	-0.294935	0.880901	0.583617
H92	H	0.205065	1.380901	1.083617
O93	O	-0.152959	0.397451	0.157431
O94	O	0.347041	0.897451	0.657431
C95	C	-0.154295	0.454319	0.227897
C96	C	0.345705	0.954319	0.727897
H97	H	-0.191689	0.512864	0.204494
H98	H	0.308311	1.012864	0.704494
H99	H	-0.208761	0.424224	0.283735
H100	H	0.291239	0.924224	0.783735
H101	H	-0.063517	0.471854	0.252443
H102	H	0.436483	0.971854	0.752443
O103	O	-0.152968	0.397230	-0.157349
O104	O	0.347032	0.897230	0.342651
C105	C	-0.150887	0.311382	-0.140236
C106	C	0.349113	0.811382	0.359764
H107	H	-0.186508	0.296249	-0.071621
H108	H	0.313492	0.796249	0.428379
H109	H	-0.205173	0.273398	-0.191221
H110	H	0.294827	0.773398	0.308779
H111	H	-0.059300	0.295079	-0.144028
H112	H	0.440700	0.795079	0.355972
O113	O	-0.002763	1.093455	0.409007
O114	O	0.497237	1.593455	0.909007
C115	C	0.067289	1.048579	0.355736
C116	C	0.567289	1.548579	0.855736
H117	H	0.022066	0.983746	0.341914
H118	H	0.522066	1.483746	0.841914
H119	H	0.085308	1.083193	0.290912
H120	H	0.585308	1.583193	0.790912
H121	H	0.151136	1.042510	0.391302
H122	H	0.651136	1.542510	0.891302
O123	O	-0.307175	0.872030	0.409251
O124	O	0.192825	1.372030	0.909251
C125	C	-0.375261	0.822429	0.469707
C126	C	0.124739	1.322429	0.969707
H127	H	-0.376565	0.856522	0.535416
H128	H	0.123435	1.356522	1.035416
H129	H	-0.465893	0.810154	0.443066
H130	H	0.034107	1.310154	0.943066
H131	H	-0.338383	0.760504	0.479523
H132	H	0.161617	1.260504	0.979523
