data_functionalizedCrystal
_audit_creation_method	'MofGen! by Chris Wilmer'
_symmetry_space_group_name_H-M	'P1'
_symmetry_Int_Tables_number	1
_symmetry_cell_setting	triclinic
loop_
_symmetry_equiv_pos_as_xyz
  x,y,z
_cell_length_a	25.639242
_cell_length_b	25.639239
_cell_length_c	19.121175
_cell_angle_alpha	92.412705
_cell_angle_beta	87.534810
_cell_angle_gamma	90.033587
loop_
_atom_site_label
_atom_site_type_symbol
_atom_site_fract_x
_atom_site_fract_y
_atom_site_fract_z
Zn1	Zn	0.811850	-0.220847	-0.397264
Zn2	Zn	0.808041	-0.304552	-0.279810
Zn3	Zn	0.720693	-0.217125	-0.279811
Zn4	Zn	0.724369	-0.308244	-0.397204
O5	O	0.766238	-0.262692	-0.338522
O6	O	0.884510	-0.231964	-0.381708
O7	O	0.793321	-0.289852	-0.181527
O8	O	0.732841	-0.144454	-0.295417
O9	O	0.881712	-0.293461	-0.295416
O10	O	0.799813	-0.147189	-0.381709
O11	O	0.729148	-0.225619	-0.181527
O12	O	0.648015	-0.229199	-0.295359
O13	O	0.739106	-0.299753	-0.495496
O14	O	0.650716	-0.296144	-0.381607
O15	O	0.803378	-0.235543	-0.495540
O16	O	0.796886	-0.378206	-0.295357
O17	O	0.735412	-0.380918	-0.381606
C18	C	0.630394	-0.262668	-0.338477
C19	C	0.572280	-0.262671	-0.338474
C20	C	0.319676	-0.227780	-0.293691
C21	C	0.374280	-0.227775	-0.293682
O22	O	0.401315	-0.198078	-0.255566
N23	N	0.403007	-0.262679	-0.338509
C24	C	0.377128	-0.297586	-0.383353
O25	O	0.406577	-0.327274	-0.421482
C26	C	0.322525	-0.297589	-0.383365
C27	C	0.293800	-0.262686	-0.338530
C28	C	0.290951	-0.192880	-0.248860
C29	C	0.236350	-0.192886	-0.248868
C30	C	0.210475	-0.227792	-0.293707
C31	C	0.239200	-0.262692	-0.338538
C32	C	0.296647	-0.332493	-0.428212
C33	C	0.242041	-0.332492	-0.428221
C34	C	0.213316	-0.297590	-0.383386
C35	C	0.158724	-0.297604	-0.383385
N36	N	0.129997	-0.262700	-0.338558
C37	C	0.155872	-0.227794	-0.293719
C38	C	0.491798	-0.297579	-0.383326
C39	C	0.546400	-0.297579	-0.383311
C40	C	0.543548	-0.227767	-0.293640
C41	C	0.488945	-0.227769	-0.293652
C42	C	0.463070	-0.262675	-0.338498
C43	C	0.041208	-0.227810	-0.293739
C44	C	-0.013397	-0.227820	-0.293749
C45	C	-0.010540	-0.297630	-0.383422
C46	C	0.044060	-0.297622	-0.383410
C47	C	0.069933	-0.262707	-0.338566
O48	O	0.131653	-0.327285	-0.421484
O49	O	0.126417	-0.198107	-0.255603
C50	C	0.766149	-0.398533	-0.338490
C51	C	0.766160	-0.456648	-0.338500
C52	C	0.798337	-0.815589	-0.293689
C53	C	0.798357	-0.870194	-0.293699
O54	O	0.825623	-0.897220	-0.255564
N55	N	0.766332	-0.898932	-0.338569
C56	C	0.734287	-0.873064	-0.383438
O57	O	0.707049	-0.902522	-0.421605
C58	C	0.734269	-0.818460	-0.383431
C59	C	0.766294	-0.789724	-0.338553
C60	C	0.830359	-0.786853	-0.248816
C61	C	0.830337	-0.732252	-0.248805
C62	C	0.798294	-0.706387	-0.293669
C63	C	0.766272	-0.735123	-0.338543
C64	C	0.702228	-0.792593	-0.428303
C65	C	0.702214	-0.737986	-0.428293
C66	C	0.734238	-0.709249	-0.383415
C67	C	0.734207	-0.654658	-0.383397
N68	N	0.766233	-0.625919	-0.338527
C69	C	0.798277	-0.651784	-0.293663
C70	C	0.734327	-0.987735	-0.383449
C71	C	0.734341	-1.042337	-0.383452
C72	C	0.798412	-1.039463	-0.293714
C73	C	0.798395	-0.984860	-0.293707
C74	C	0.766353	-0.958996	-0.338578
C75	C	0.798229	-0.537118	-0.293644
C76	C	0.798203	-0.482513	-0.293636
C77	C	0.734134	-0.485391	-0.383377
C78	C	0.734158	-0.539992	-0.383383
C79	C	0.766209	-0.565854	-0.338514
O80	O	0.706957	-0.627596	-0.421514
O81	O	0.825515	-0.622319	-0.255509
C82	C	0.902613	-0.262716	-0.338569
C83	C	0.960727	-0.262726	-0.338588
C84	C	0.772077	-0.268475	-0.521714
C85	C	0.774565	-0.270940	-0.599780
C86	C	0.766342	-0.126320	-0.338570
C87	C	0.766387	-0.068207	-0.338590
C88	C	0.742323	-0.238656	-0.636455
C89	C	0.744659	-0.240976	-0.709806
C90	C	0.779239	-0.275577	-0.746480
C91	C	0.811482	-0.307865	-0.709800
C92	C	0.809143	-0.305547	-0.636450
C93	C	0.787970	-0.284251	-0.967948
C94	C	0.790307	-0.286565	-1.041303
C95	C	0.723483	-0.219677	-1.041304
C96	C	0.721150	-0.217360	-0.967953
C97	C	0.753391	-0.249649	-0.931279
C98	C	0.781629	-0.277949	-0.821457
C99	C	0.750998	-0.247280	-0.856304
C100	C	0.760452	-0.256893	-0.156043
C101	C	0.758066	-0.254281	-0.077978
H102	H	0.220977	-0.360915	-0.464743
N103	N	0.569977	-0.192100	-0.247842
N104	N	0.544328	-0.160935	-0.207819
H105	H	0.562994	-0.135746	-0.175476
N106	N	0.073407	-0.333282	-0.429191
N107	N	0.067136	-0.381372	-0.424413
H108	H	0.087860	-0.406556	-0.456749
N109	N	0.459597	-0.192121	-0.247859
N110	N	0.427675	-0.209049	-0.203065
H111	H	0.406949	-0.183871	-0.170722
N112	N	0.830956	-0.563531	-0.247799
N113	N	0.811169	-0.592612	-0.203019
H114	H	0.834279	-0.611266	-0.170637
H115	H	0.818469	-0.314743	-1.071161
N116	N	-0.036985	-0.333282	-0.429215
N117	N	-0.085738	-0.333276	-0.429213
H118	H	-0.104417	-0.358454	-0.461557
N119	N	0.701451	-0.569347	-0.429231
N120	N	0.721262	-0.601192	-0.474024
H121	H	0.698167	-0.621921	-0.506412
H122	H	0.824281	-0.459117	-0.257089
N123	N	0.669480	-0.711559	-0.474118
N124	N	0.669461	-0.662806	-0.474106
H125	H	0.646342	-0.644142	-0.506468
N126	N	0.711732	-0.208002	-0.747283
N127	N	0.679705	-0.227681	-0.788198
H128	H	0.656450	-0.204392	-0.814670
N129	N	0.846806	-0.343201	-0.747275
N130	N	0.881439	-0.326098	-0.788222
H131	H	0.906389	-0.351052	-0.814691
H132	H	0.697234	-0.193389	-1.071172
H133	H	0.320026	-0.360915	-0.464722
H134	H	0.856416	-0.708858	-0.212264
H135	H	0.835401	-0.331832	-0.606590
H136	H	0.814217	-0.310549	-0.938097
H137	H	0.722841	-0.219109	-0.826441
N138	N	0.067629	-0.192155	-0.247919
N139	N	0.096644	-0.209081	-0.203108
H140	H	0.115303	-0.183902	-0.170744
N141	N	0.863091	-0.813258	-0.202972
N142	N	0.857589	-0.805122	-0.138161
H143	H	0.880706	-0.823767	-0.105776
H144	H	0.708043	-0.464324	-0.419902
H145	H	0.714167	-0.210476	-0.606600
N146	N	0.207003	-0.157236	-0.203078
N147	N	0.175082	-0.174159	-0.158280
H148	H	0.154356	-0.148979	-0.125941
N149	N	0.831108	-0.955517	-0.247860
N150	N	0.859712	-0.978624	-0.207805
H151	H	0.882818	-0.957903	-0.175423
H152	H	0.809783	-0.306122	-0.851325
N153	N	0.317368	-0.157216	-0.203052
N154	N	0.291704	-0.126060	-0.163034
H155	H	0.310357	-0.100871	-0.130676
H156	H	0.569783	-0.326006	-0.419812
H157	H	0.470735	-0.326007	-0.419844
N158	N	0.831149	-1.065880	-0.247880
N159	N	0.825657	-1.057760	-0.183065
H160	H	0.848775	-1.076417	-0.150696
H161	H	0.692990	-0.189185	-0.938098
H162	H	0.708230	-0.966679	-0.419986
N163	N	-0.042731	-0.192166	-0.247941
N164	N	-0.019617	-0.161003	-0.207911
H165	H	-0.040331	-0.135822	-0.175560
N166	N	0.701617	-1.071679	-0.429287
N167	N	0.673009	-1.048572	-0.469335
H168	H	0.649897	-1.069292	-0.501710
H169	H	0.676148	-0.815981	-0.464844
