data_functionalizedCrystal
_audit_creation_method	'MofGen! by Chris Wilmer'
_symmetry_space_group_name_H-M	'P1'
_symmetry_Int_Tables_number	1
_symmetry_cell_setting	triclinic
loop_
_symmetry_equiv_pos_as_xyz
  x,y,z
_cell_length_a	10.654556
_cell_length_b	14.044190
_cell_length_c	9.730223
_cell_angle_alpha	89.993542
_cell_angle_beta	89.999363
_cell_angle_gamma	88.839593
loop_
_atom_site_label
_atom_site_type_symbol
_atom_site_fract_x
_atom_site_fract_y
_atom_site_fract_z
O1	O	1.681225	0.133256	-0.114321
O2	O	2.181225	0.633256	0.385679
O3	O	1.317023	0.145943	-0.114323
O4	O	1.817023	0.645943	0.385677
O5	O	1.493652	0.001578	-0.114295
O6	O	1.993652	0.501578	0.385705
O7	O	1.504595	0.277620	-0.114349
O8	O	2.004595	0.777620	0.385651
O9	O	1.493651	0.001582	0.114285
O10	O	1.993651	0.501582	0.614285
O11	O	1.317021	0.145947	0.114257
O12	O	1.817021	0.645947	0.614257
O13	O	1.681223	0.133259	0.114259
O14	O	2.181223	0.633259	0.614259
Zn15	Zn	1.499122	0.139604	0.150550
Zn16	Zn	1.999122	0.639604	0.650550
Zn17	Zn	1.499124	0.139599	-0.150614
Zn18	Zn	1.999124	0.639599	0.349386
O19	O	1.504593	0.277624	0.114231
O20	O	2.004593	0.777624	0.614231
C21	C	1.270130	0.145012	-0.000032
C22	C	1.770130	0.645012	0.499968
C23	C	1.130407	0.142221	-0.000032
C24	C	1.630407	0.642221	0.499968
C25	C	1.488864	-0.033766	-0.000001
C26	C	1.988864	0.466234	0.499999
C27	C	1.474585	-0.139086	0.000011
C28	C	1.974585	0.360914	0.500011
C29	C	0.933483	0.138292	-0.124641
C30	C	1.433483	0.638292	0.375359
C31	C	1.064768	0.140909	-0.124636
C32	C	1.564768	0.640909	0.375364
C33	C	1.064754	0.140907	0.124575
C34	C	1.564754	0.640907	0.624575
C35	C	0.933471	0.138284	0.124568
C36	C	1.433471	0.638284	0.624568
C37	C	0.933492	0.138297	-0.268521
C38	C	1.433492	0.638297	0.231479
C39	C	1.064777	0.140914	-0.268515
C40	C	1.564777	0.640914	0.231485
C41	C	1.549751	-0.388877	-0.000043
C42	C	2.049751	0.111123	0.499957
C43	C	1.448501	-0.331915	-0.000033
C44	C	1.948501	0.168085	0.499967
C45	C	1.463018	-0.224615	-0.000009
C46	C	1.963018	0.275385	0.499991
C47	C	1.535235	-0.496187	-0.000067
C48	C	2.035235	0.003813	0.499933
C49	C	1.728115	0.134190	-0.000034
C50	C	2.228115	0.634190	0.499966
C51	C	1.867839	0.136981	-0.000044
C52	C	2.367839	0.636981	0.499956
C53	C	1.509381	0.312968	-0.000066
C54	C	2.009381	0.812968	0.499934
C55	C	1.523660	0.418288	-0.000087
C56	C	2.023660	0.918288	0.499913
N57	N	1.499129	0.139606	0.356086
N58	N	1.999129	0.639606	0.856086
N59	N	1.499126	0.139588	-0.356150
N60	N	1.999126	0.639588	0.143850
C61	C	1.577365	0.075703	0.428025
C62	C	2.077365	0.575703	0.928025
C63	C	1.577360	0.075692	0.571908
C64	C	2.077360	0.575692	1.071908
C65	C	1.420881	0.203494	0.571901
C66	C	1.920881	0.703494	1.071901
C67	C	1.420880	0.203501	0.428021
C68	C	1.920880	0.703501	0.928021
C69	C	1.667711	0.001920	0.428030
C70	C	2.167711	0.501920	0.928030
C71	C	1.667707	0.001909	0.571913
C72	C	2.167707	0.501909	1.071913
H73	H	0.880030	0.137197	0.226027
H74	H	1.380030	0.637197	0.726027
F75	F	1.677294	-0.347290	-0.000026
F76	F	2.177294	0.152710	0.499974
F77	F	1.337597	0.271502	0.351459
F78	F	1.837597	0.771502	0.851459
H79	H	1.350915	-0.363734	-0.000042
H80	H	1.850915	0.136266	0.499958
H81	H	1.357172	0.255515	0.630486
H82	H	1.857172	0.755515	1.130486
F83	F	1.134615	0.142294	0.257188
F84	F	1.634615	0.642294	0.757188
F85	F	1.795988	0.023147	0.622957
F86	F	2.295988	0.523147	1.122957
F87	F	1.630104	-0.093376	0.376995
F88	F	2.130104	0.406624	0.876995
F89	F	0.874779	0.226594	-0.326892
F90	F	1.374779	0.726594	0.173108
F91	F	0.892239	0.050757	-0.340716
F92	F	1.392239	0.550757	0.159284
H93	H	1.109693	0.073355	-0.313148
H94	H	1.609693	0.573355	0.186852
H95	H	1.761217	0.025025	0.383399
H96	H	2.261217	0.525025	0.883399
F97	F	1.106044	0.228456	-0.340727
F98	F	1.606044	0.728456	0.159273
H99	H	1.630268	-0.066991	0.616541
H100	H	2.130268	0.433009	1.116541
