data_functionalizedCrystal
_audit_creation_method	'MofGen! by Chris Wilmer'
_symmetry_space_group_name_H-M	'P1'
_symmetry_Int_Tables_number	1
_symmetry_cell_setting	triclinic
loop_
_symmetry_equiv_pos_as_xyz
  x,y,z
_cell_length_a	12.759395
_cell_length_b	12.759394
_cell_length_c	12.759393
_cell_angle_alpha	89.968780
_cell_angle_beta	89.980721
_cell_angle_gamma	90.014682
loop_
_atom_site_label
_atom_site_type_symbol
_atom_site_fract_x
_atom_site_fract_y
_atom_site_fract_z
Zn1	Zn	1.606266	-0.418220	-0.593968
Zn2	Zn	2.106266	0.081780	-0.093968
Zn3	Zn	1.606157	-0.593936	-0.418286
Zn4	Zn	2.106157	-0.093936	0.081714
Zn5	Zn	1.430565	-0.418271	-0.418309
Zn6	Zn	1.930565	0.081729	0.081691
Zn7	Zn	1.430556	-0.593857	-0.593929
Zn8	Zn	1.930556	-0.093857	-0.093929
O9	O	1.518386	-0.506071	-0.506123
O10	O	2.018386	-0.006071	-0.006123
O11	O	1.753273	-0.441541	-0.570671
O12	O	2.253273	0.058459	-0.070671
O13	O	1.582822	-0.570687	-0.271268
O14	O	2.082822	-0.070687	0.228732
O15	O	1.453921	-0.271243	-0.441636
O16	O	1.953921	0.228757	0.058364
O17	O	1.753192	-0.570638	-0.441598
O18	O	2.253192	-0.070638	0.058402
O19	O	1.583008	-0.271206	-0.570693
O20	O	2.083008	0.228794	-0.070693
O21	O	1.453815	-0.441627	-0.271284
O22	O	1.953815	0.058373	0.228716
O23	O	1.283543	-0.441551	-0.441598
O24	O	1.783543	0.058449	0.058402
O25	O	1.453907	-0.570504	-0.740955
O26	O	1.953907	-0.070504	-0.240955
O27	O	1.283536	-0.570554	-0.570625
O28	O	1.783536	-0.070554	-0.070625
O29	O	1.583000	-0.441465	-0.740984
O30	O	2.083000	0.058535	-0.240984
O31	O	1.582814	-0.740946	-0.441560
O32	O	2.082814	-0.240946	0.058440
O33	O	1.453801	-0.740889	-0.570603
O34	O	1.953801	-0.240889	-0.070603
C35	C	1.245418	-0.506050	-0.506110
C36	C	1.745418	-0.006050	-0.006110
C37	C	1.128642	-0.506066	-0.506129
C38	C	1.628642	-0.006066	-0.006129
C39	C	1.128706	-0.371854	-0.640750
C40	C	1.628706	0.128146	-0.140750
C41	C	1.073877	-0.304761	-0.708069
C42	C	1.573877	0.195239	-0.208069
C43	C	0.964156	-0.304780	-0.708082
C44	C	1.464156	0.195220	-0.208082
C45	C	0.909260	-0.371897	-0.640767
C46	C	1.409260	0.128103	-0.140767
C47	C	0.964089	-0.438990	-0.573448
C48	C	1.464089	0.061010	-0.073448
C49	C	1.073813	-0.438966	-0.573444
C50	C	1.573813	0.061034	-0.073444
C51	C	0.964025	-0.573195	-0.438824
C52	C	1.464025	-0.073195	0.061176
C53	C	1.073746	-0.573183	-0.438814
C54	C	1.573746	-0.073183	0.061186
C55	C	0.909129	-0.640312	-0.371508
C56	C	1.409129	-0.140312	0.128492
C57	C	0.963958	-0.707412	-0.304193
C58	C	1.463958	-0.207412	0.195807
C59	C	1.073686	-0.707392	-0.304184
C60	C	1.573686	-0.207392	0.195816
C61	C	1.128575	-0.640277	-0.371495
C62	C	1.628575	-0.140277	0.128505
C63	C	1.518323	-0.779038	-0.506098
C64	C	2.018323	-0.279038	-0.006098
C65	C	1.518392	-0.895815	-0.506122
C66	C	2.018392	-0.395815	-0.006122
C67	C	1.652834	-0.895822	-0.371849
C68	C	2.152834	-0.395822	0.128151
C69	C	1.720082	-0.950686	-0.304725
C70	C	2.220082	-0.450686	0.195275
C71	C	1.720144	-1.060408	-0.304754
C72	C	2.220144	-0.560408	0.195246
C73	C	1.652952	-1.115267	-0.371916
C74	C	2.152952	-0.615267	0.128084
C75	C	1.585704	-1.060403	-0.439040
C76	C	2.085704	-0.560403	0.060960
C77	C	1.585647	-0.950679	-0.439002
C78	C	2.085647	-0.450679	0.060998
C79	C	1.451269	-1.060397	-0.573316
C80	C	1.951269	-0.560397	-0.073316
C81	C	1.451200	-0.950675	-0.573284
C82	C	1.951200	-0.450675	-0.073284
C83	C	1.384077	-1.115257	-0.640478
C84	C	1.884077	-0.615257	-0.140478
C85	C	1.316822	-1.060392	-0.707598
C86	C	1.816822	-0.560392	-0.207598
C87	C	1.316762	-0.950664	-0.707566
C88	C	1.816762	-0.450664	-0.207566
C89	C	1.383952	-0.895811	-0.640408
C90	C	1.883952	-0.395811	-0.140408
C91	C	1.792419	-0.506093	-0.506137
C92	C	2.292419	-0.006093	-0.006137
C93	C	1.909196	-0.506102	-0.506142
C94	C	2.409196	-0.006102	-0.006142
C95	C	1.518465	-0.505970	-0.780156
C96	C	2.018465	-0.005970	-0.280156
C97	C	1.518498	-0.505927	-0.896933
C98	C	2.018498	-0.005927	-0.396933
C99	C	1.518478	-0.232037	-0.506171
C100	C	2.018478	0.267963	-0.006171
C101	C	1.518517	-0.115261	-0.506192
C102	C	2.018517	0.384739	-0.006192
C103	C	1.585722	-0.438725	-0.951812
C104	C	2.085722	0.061275	-0.451812
C105	C	1.585740	-0.438680	-1.061536
C106	C	2.085740	0.061320	-0.561536
C107	C	1.451307	-0.573047	-1.061493
C108	C	1.951307	-0.073047	-0.561493
C109	C	1.451285	-0.573087	-0.951771
C110	C	1.951285	-0.073087	-0.451771
C111	C	1.518368	-0.506096	-0.233156
C112	C	2.018368	-0.006096	0.266844
C113	C	1.518538	-0.505843	-0.116379
C114	C	2.018538	-0.005843	0.383621
H115	H	0.819919	-0.371897	-0.640775
H116	H	1.319919	0.128103	-0.140775
C117	C	1.793987	-0.890332	-0.230848
C118	C	2.293987	-0.390332	0.269152
N119	N	1.849652	-0.844876	-0.175203
N120	N	2.349652	-0.344876	0.324797
C121	C	1.377326	-0.647014	-0.891400
C122	C	1.877326	-0.147014	-0.391400
N123	N	1.321620	-0.702692	-0.845929
N124	N	1.821620	-0.202692	-0.345929
H125	H	1.218047	-0.371828	-0.640742
H126	H	1.718047	0.128172	-0.140742
H127	H	0.919515	-0.250140	-0.762893
H128	H	1.419515	0.249860	-0.262893
C129	C	1.134270	-0.230934	-0.782110
C130	C	1.634270	0.269066	-0.282110
N131	N	1.179756	-0.175326	-0.837877
N132	N	1.679756	0.324674	-0.337877
H133	H	0.819788	-0.640320	-0.371521
H134	H	1.319788	-0.140320	0.128479
H135	H	0.919253	-0.762049	-0.249386
H136	H	1.419253	-0.262049	0.250614
C137	C	1.659694	-0.364755	-1.121898
C138	C	2.159694	0.135245	-0.621898
N139	N	1.715400	-0.309071	-1.167362
N140	N	2.215400	0.190929	-0.667362
H141	H	1.118321	-0.762024	-0.249361
H142	H	1.618321	-0.262024	0.250639
H143	H	1.640449	-0.384037	-0.907166
H144	H	2.140449	0.115963	-0.407166
H145	H	1.217916	-0.640248	-0.371489
H146	H	1.717916	-0.140248	0.128511
C147	C	1.377374	-0.646917	-1.121824
C148	C	1.877374	-0.146917	-0.621824
N149	N	1.321686	-0.702556	-1.167265
N150	N	1.821686	-0.202556	-0.667265
H151	H	1.262004	-0.905999	-0.762230
H152	H	1.762004	-0.405999	-0.262230
C153	C	1.794120	-1.120760	-0.230914
C154	C	2.294120	-0.620760	0.269086
N155	N	1.849837	-1.166217	-0.175297
N156	N	2.349837	-0.666217	0.324703
H157	H	1.652777	-0.806481	-0.371806
H158	H	2.152777	-0.306481	0.128194
H159	H	1.383903	-0.806470	-0.640368
H160	H	1.883903	-0.306470	-0.140368
H161	H	1.384136	-1.204598	-0.640501
H162	H	1.884136	-0.704598	-0.140501
C163	C	1.653029	-1.235964	-0.371948
C164	C	2.153029	-0.735964	0.128052
N165	N	1.653085	-1.326875	-0.371972
N166	N	2.153085	-0.826875	0.128028
H167	H	1.262124	-1.105068	-0.762281
H168	H	1.762124	-0.605068	-0.262281
