data_functionalizedCrystal
_audit_creation_method	'MofGen! by Chris Wilmer'
_symmetry_space_group_name_H-M	'P1'
_symmetry_Int_Tables_number	1
_symmetry_cell_setting	triclinic
loop_
_symmetry_equiv_pos_as_xyz
  x,y,z
_cell_length_a	21.395362
_cell_length_b	18.215405
_cell_length_c	18.215387
_cell_angle_alpha	89.906010
_cell_angle_beta	89.922988
_cell_angle_gamma	90.040762
loop_
_atom_site_label
_atom_site_type_symbol
_atom_site_fract_x
_atom_site_fract_y
_atom_site_fract_z
Zn1	Zn	0.958090	-0.292219	-0.416482
Zn2	Zn	1.208090	-0.042219	-0.166482
Zn3	Zn	1.458090	0.207781	0.083518
Zn4	Zn	1.708090	0.457781	0.333518
Zn5	Zn	0.957942	-0.415426	-0.293409
Zn6	Zn	1.207942	-0.165426	-0.043409
Zn7	Zn	1.457942	0.084574	0.206591
Zn8	Zn	1.707942	0.334574	0.456591
Zn9	Zn	0.853244	-0.292412	-0.293387
Zn10	Zn	1.103244	-0.042412	-0.043387
Zn11	Zn	1.353244	0.207588	0.206613
Zn12	Zn	1.603244	0.457588	0.456613
Zn13	Zn	0.853285	-0.415282	-0.416393
Zn14	Zn	1.103285	-0.165282	-0.166393
Zn15	Zn	1.353285	0.084718	0.083607
Zn16	Zn	1.603285	0.334718	0.333607
O17	O	0.905640	-0.353835	-0.354918
O18	O	1.155640	-0.103835	-0.104918
O19	O	1.405640	0.146165	0.145082
O20	O	1.655640	0.396165	0.395082
O21	O	1.045748	-0.308542	-0.400202
O22	O	1.295748	-0.058542	-0.150202
O23	O	1.545748	0.191458	0.099798
O24	O	1.795748	0.441458	0.349798
O25	O	0.943975	-0.399249	-0.190422
O26	O	1.193975	-0.149249	0.059578
O27	O	1.443975	0.100751	0.309578
O28	O	1.693975	0.350751	0.559578
O29	O	0.867197	-0.189402	-0.309744
O30	O	1.117197	0.060598	-0.059744
O31	O	1.367197	0.310598	0.190256
O32	O	1.617197	0.560598	0.440256
O33	O	1.045640	-0.399062	-0.309781
O34	O	1.295640	-0.149062	-0.059781
O35	O	1.545640	0.100938	0.190219
O36	O	1.795640	0.350938	0.440219
O37	O	0.944227	-0.189260	-0.400181
O38	O	1.194227	0.060740	-0.150181
O39	O	1.444227	0.310740	0.099819
O40	O	1.694227	0.560740	0.349819
O41	O	0.867054	-0.308871	-0.190406
O42	O	1.117054	-0.058871	0.059594
O43	O	1.367054	0.191129	0.309594
O44	O	1.617054	0.441129	0.559594
O45	O	0.765572	-0.308732	-0.309658
O46	O	1.015572	-0.058732	-0.059658
O47	O	1.265572	0.191268	0.190342
O48	O	1.515572	0.441268	0.440342
O49	O	0.867266	-0.398816	-0.519390
O50	O	1.117266	-0.148816	-0.269390
O51	O	1.367266	0.101184	-0.019390
O52	O	1.617266	0.351184	0.230610
O53	O	0.765601	-0.399004	-0.400030
O54	O	1.015601	-0.149004	-0.150030
O55	O	1.265601	0.100996	0.099970
O56	O	1.515601	0.350996	0.349970
O57	O	0.944266	-0.308402	-0.519455
O58	O	1.194266	-0.058402	-0.269455
O59	O	1.444266	0.191598	-0.019455
O60	O	1.694266	0.441598	0.230545
O61	O	0.944014	-0.518391	-0.309696
O62	O	1.194014	-0.268391	-0.059696
O63	O	1.444014	-0.018391	0.190304
O64	O	1.694014	0.231609	0.440304
O65	O	0.867123	-0.518286	-0.400052
O66	O	1.117123	-0.268286	-0.150052
O67	O	1.367123	-0.018286	0.099948
O68	O	1.617123	0.231714	0.349948
C69	C	0.742853	-0.353874	-0.354833
C70	C	0.992853	-0.103874	-0.104833
C71	C	1.242853	0.146126	0.145167
C72	C	1.492853	0.396126	0.395167
C73	C	0.673211	-0.353908	-0.354814
C74	C	0.923211	-0.103908	-0.104814
C75	C	1.173211	0.146092	0.145186
C76	C	1.423211	0.396092	0.395186
C77	C	0.640530	-0.400975	-0.401800
C78	C	0.890530	-0.150975	-0.151800
C79	C	1.140530	0.099025	0.098200
C80	C	1.390530	0.349025	0.348200
C81	C	0.575095	-0.400957	-0.401833
C82	C	0.825095	-0.150957	-0.151833
C83	C	1.075095	0.099043	0.098167
C84	C	1.325095	0.349043	0.348167
C85	C	0.542343	-0.353880	-0.354866
C86	C	0.792343	-0.103880	-0.104866
C87	C	1.042343	0.146120	0.145134
C88	C	1.292343	0.396120	0.395134
C89	C	0.575032	-0.306803	-0.307876
C90	C	0.825032	-0.056803	-0.057876
C91	C	1.075032	0.193197	0.192124
C92	C	1.325032	0.443197	0.442124
C93	C	0.640466	-0.306818	-0.307850
C94	C	0.890466	-0.056818	-0.057850
C95	C	1.140466	0.193182	0.192150
C96	C	1.390466	0.443182	0.442150
C97	C	0.438585	-0.348037	-0.288614
C98	C	0.688585	-0.098037	-0.038614
C99	C	0.938585	0.151963	0.211386
C100	C	1.188585	0.401963	0.461386
C101	C	0.373152	-0.348028	-0.288639
C102	C	0.623152	-0.098028	-0.038639
C103	C	0.873152	0.151972	0.211361
C104	C	1.123152	0.401972	0.461361
C105	C	0.340522	-0.353832	-0.354947
C106	C	0.590522	-0.103832	-0.104947
C107	C	0.840522	0.146168	0.145053
C108	C	1.090522	0.396168	0.395053
C109	C	0.373333	-0.359660	-0.421233
C110	C	0.623333	-0.109660	-0.171233
C111	C	0.873333	0.140340	0.078767
C112	C	1.123333	0.390340	0.328767
C113	C	0.438768	-0.359674	-0.421207
C114	C	0.688768	-0.109674	-0.171207
C115	C	0.938768	0.140326	0.078793
C116	C	1.188768	0.390326	0.328793
C117	C	0.471391	-0.353859	-0.354889
C118	C	0.721391	-0.103859	-0.104889
C119	C	0.971391	0.146141	0.145111
C120	C	1.221391	0.396141	0.395111
C121	C	0.236889	-0.400882	-0.401973
C122	C	0.486889	-0.150882	-0.151973
C123	C	0.736889	0.099118	0.098027
C124	C	0.986889	0.349118	0.348027
C125	C	0.171452	-0.400858	-0.402007
C126	C	0.421452	-0.150858	-0.152007
C127	C	0.671452	0.099142	0.097993
C128	C	0.921452	0.349142	0.347993
C129	C	0.171391	-0.306709	-0.308044
C130	C	0.421391	-0.056709	-0.058044
C131	C	0.671391	0.193291	0.191956
C132	C	0.921391	0.443291	0.441956
C133	C	0.236826	-0.306728	-0.308017
C134	C	0.486826	-0.056728	-0.058017
C135	C	0.736826	0.193272	0.191983
C136	C	0.986826	0.443272	0.441983
C137	C	0.269571	-0.353818	-0.354980
C138	C	0.519571	-0.103818	-0.104980
C139	C	0.769571	0.146182	0.145020
C140	C	1.019571	0.396182	0.395020
C141	C	0.905574	-0.545041	-0.354883
C142	C	1.155574	-0.295041	-0.104883
C143	C	1.405574	-0.045041	0.145117
C144	C	1.655574	0.204959	0.395117
C145	C	0.905603	-0.626840	-0.354892
C146	C	1.155603	-0.376840	-0.104892
C147	C	1.405603	-0.126840	0.145108
C148	C	1.655603	0.123160	0.395108
C149	C	0.945735	-0.815064	-0.307930
C150	C	1.195735	-0.565064	-0.057930
C151	C	1.445735	-0.315064	0.192070
C152	C	1.695735	-0.065064	0.442070
C153	C	0.945763	-0.891923	-0.307948
C154	C	1.195763	-0.641923	-0.057948
C155	C	1.445763	-0.391923	0.192052
C156	C	1.695763	-0.141923	0.442052
C157	C	0.865626	-0.891853	-0.401958
C158	C	1.115626	-0.641853	-0.151958
C159	C	1.365626	-0.391853	0.098042
C160	C	1.615626	-0.141853	0.348042
C161	C	0.865602	-0.814996	-0.401944
C162	C	1.115602	-0.564996	-0.151944
C163	C	1.365602	-0.314996	0.098056
C164	C	1.615602	-0.064996	0.348056
C165	C	0.905655	-0.776603	-0.354926
C166	C	1.155655	-0.526603	-0.104926
C167	C	1.405655	-0.276603	0.145074
C168	C	1.655655	-0.026603	0.395074
C169	C	0.905707	-0.930319	-0.354958
C170	C	1.155707	-0.680319	-0.104958
C171	C	1.405707	-0.430319	0.145042
C172	C	1.655707	-0.180319	0.395042
C173	C	0.905738	-1.013653	-0.354978
C174	C	1.155738	-0.763653	-0.104978
C175	C	1.405738	-0.513653	0.145022
C176	C	1.655738	-0.263653	0.395022
C177	C	0.905626	-0.693264	-0.354907
C178	C	1.155626	-0.443264	-0.104907
C179	C	1.405626	-0.193264	0.145093
C180	C	1.655626	0.056736	0.395093
C181	C	1.069064	-0.353796	-0.355004
C182	C	1.319064	-0.103796	-0.105004
C183	C	1.569064	0.146204	0.144996
C184	C	1.819064	0.396204	0.394996
C185	C	1.138705	-0.353780	-0.355041
C186	C	1.388705	-0.103780	-0.105041
C187	C	1.638705	0.146220	0.144959
C188	C	1.888705	0.396220	0.394959
C189	C	0.905787	-0.353571	-0.546871
C190	C	1.155787	-0.103571	-0.296871
C191	C	1.405787	0.146429	-0.046871
C192	C	1.655787	0.396429	0.203129
C193	C	0.905849	-0.353459	-0.628671
C194	C	1.155849	-0.103459	-0.378671
C195	C	1.405849	0.146541	-0.128671
C196	C	1.655849	0.396541	0.121329
C197	C	0.905724	-0.161882	-0.354970
C198	C	1.155724	0.088118	-0.104970
C199	C	1.405724	0.338118	0.145030
C200	C	1.655724	0.588118	0.395030
C201	C	0.905759	-0.080083	-0.354992
C202	C	1.155759	0.169917	-0.104992
C203	C	1.405759	0.419917	0.145008
C204	C	1.655759	0.669917	0.395008
C205	C	0.905530	-0.354044	-0.163711
C206	C	1.155530	-0.104044	0.086289
C207	C	1.405530	0.145956	0.336289
C208	C	1.655530	0.395956	0.586289
C209	C	0.905589	-0.353949	-0.081913
C210	C	1.155589	-0.103949	0.168087
C211	C	1.405589	0.146051	0.418087
C212	C	1.655589	0.396051	0.668087
C213	C	0.945542	-0.306252	0.182917
C214	C	1.195542	-0.056252	0.432917
C215	C	1.445542	0.193748	0.682917
C216	C	1.695542	0.443748	0.932917
C217	C	0.945497	-0.306334	0.106058
C218	C	1.195497	-0.056334	0.356058
C219	C	1.445497	0.193666	0.606058
C220	C	1.695497	0.443666	0.856058
C221	C	0.865892	-0.401158	0.106505
C222	C	1.115892	-0.151158	0.356505
C223	C	1.365892	0.098842	0.606505
C224	C	1.615892	0.348842	0.856505
C225	C	0.865935	-0.401072	0.183362
C226	C	1.115935	-0.151072	0.433362
C227	C	1.365935	0.098928	0.683362
C228	C	1.615935	0.348928	0.933362
C229	C	0.905763	-0.353621	0.221566
C230	C	1.155763	-0.103621	0.471566
C231	C	1.405763	0.146379	0.721566
C232	C	1.655763	0.396379	0.971566
C233	C	0.905676	-0.353787	0.067851
C234	C	1.155676	-0.103787	0.317851
C235	C	1.405676	0.146213	0.567851
C236	C	1.655676	0.396213	0.817851
C237	C	0.905627	-0.353876	-0.015483
C238	C	1.155627	-0.103876	0.234517
C239	C	1.405627	0.146124	0.484517
C240	C	1.655627	0.396124	0.734517
C241	C	0.905811	-0.353531	0.304905
C242	C	1.155811	-0.103531	0.554905
C243	C	1.405811	0.146469	0.804905
C244	C	1.655811	0.396469	1.054905
H245	H	0.465147	-0.343308	-0.234614
H246	H	0.715147	-0.093308	0.015386
H247	H	0.965147	0.156692	0.265386
H248	H	1.215147	0.406692	0.515386
O249	O	0.988394	-0.255238	0.064368
O250	O	1.238394	-0.005238	0.314368
O251	O	1.488394	0.244762	0.564368
O252	O	1.738394	0.494762	0.814368
H253	H	1.020434	-0.287932	0.029355
H254	H	1.270434	-0.037932	0.279355
H255	H	1.520434	0.212068	0.529355
H256	H	1.770434	0.462068	0.779355
O257	O	0.988494	-0.255073	0.224127
O258	O	1.238494	-0.005073	0.474127
O259	O	1.488494	0.244927	0.724127
O260	O	1.738494	0.494927	0.974127
H261	H	0.977408	-0.197425	0.209249
H262	H	1.227408	0.052575	0.459249
H263	H	1.477408	0.302575	0.709249
H264	H	1.727408	0.552575	0.959249
H265	H	0.263551	-0.439222	-0.440217
H266	H	0.513551	-0.189222	-0.190217
H267	H	0.763551	0.060778	0.059783
H268	H	1.013551	0.310778	0.309783
H269	H	0.548362	-0.268471	-0.269637
H270	H	0.798362	-0.018471	-0.019637
H271	H	1.048362	0.231529	0.230363
H272	H	1.298362	0.481529	0.480363
O273	O	0.988999	-0.933403	-0.257266
O274	O	1.238999	-0.683403	-0.007266
O275	O	1.488999	-0.433403	0.242734
O276	O	1.738999	-0.183403	0.492734
H277	H	0.982297	-0.993297	-0.265182
H278	H	1.232297	-0.743297	-0.015182
H279	H	1.482297	-0.493297	0.234818
H280	H	1.732297	-0.243297	0.484818
O281	O	0.337764	-0.341738	-0.217151
O282	O	0.587764	-0.091738	0.032849
O283	O	0.837764	0.158262	0.282849
O284	O	1.087764	0.408262	0.532849
H285	H	0.371445	-0.337688	-0.171039
H286	H	0.621445	-0.087688	0.078961
H287	H	0.871445	0.162312	0.328961
H288	H	1.121445	0.412312	0.578961
H289	H	0.667075	-0.268488	-0.269588
H290	H	0.917075	-0.018488	-0.019588
H291	H	1.167075	0.231512	0.230412
H292	H	1.417075	0.481512	0.480412
H293	H	0.833015	-0.923121	-0.440238
H294	H	1.083015	-0.673121	-0.190238
H295	H	1.333015	-0.423121	0.059762
H296	H	1.583015	-0.173121	0.309762
O297	O	0.822937	-0.452338	0.065301
O298	O	1.072937	-0.202338	0.315301
O299	O	1.322937	0.047662	0.565301
O300	O	1.572937	0.297662	0.815301
H301	H	0.829593	-0.444445	0.005364
H302	H	1.079593	-0.194445	0.255364
H303	H	1.329593	0.055555	0.505364
H304	H	1.579593	0.305555	0.755364
O305	O	0.822362	-0.773504	-0.452623
O306	O	1.072362	-0.523504	-0.202623
O307	O	1.322362	-0.273504	0.047377
O308	O	1.572362	-0.023504	0.297377
H309	H	0.794504	-0.813111	-0.485308
H310	H	1.044504	-0.563111	-0.235308
H311	H	1.294504	-0.313111	0.014692
H312	H	1.544504	-0.063111	0.264692
O313	O	0.988946	-0.773660	-0.257230
O314	O	1.238946	-0.523660	-0.007230
O315	O	1.488946	-0.273660	0.242770
O316	O	1.738946	-0.023660	0.492770
H317	H	1.020808	-0.738545	-0.290219
H318	H	1.270808	-0.488545	-0.040219
H319	H	1.520808	-0.238545	0.209781
H320	H	1.770808	0.011455	0.459781
H321	H	0.667187	-0.439319	-0.440042
H322	H	0.917187	-0.189319	-0.190042
H323	H	1.167187	0.060681	0.059958
H324	H	1.417187	0.310681	0.309958
O325	O	0.823010	-0.452143	0.225057
O326	O	1.073010	-0.202143	0.475057
O327	O	1.323010	0.047857	0.725057
O328	O	1.573010	0.297857	0.975057
H329	H	0.795307	-0.485153	0.185581
H330	H	1.045307	-0.235153	0.435581
H331	H	1.295307	0.014847	0.685581
H332	H	1.545307	0.264847	0.935581
H333	H	0.548480	-0.439285	-0.440097
H334	H	0.798480	-0.189285	-0.190097
H335	H	1.048480	0.060715	0.059903
H336	H	1.298480	0.310715	0.309903
H337	H	0.465480	-0.364418	-0.475179
H338	H	0.715480	-0.114418	-0.225179
H339	H	0.965480	0.135582	0.024821
H340	H	1.215480	0.385582	0.274821
H341	H	0.346768	-0.364385	-0.475228
H342	H	0.596768	-0.114385	-0.225228
H343	H	0.846768	0.135615	0.024772
H344	H	1.096768	0.385615	0.274772
H345	H	0.144725	-0.268374	-0.269807
H346	H	0.394725	-0.018374	-0.019807
H347	H	0.644725	0.231626	0.230193
H348	H	0.894725	0.481626	0.480193
O349	O	0.136197	-0.451723	-0.452590
O350	O	0.386197	-0.201723	-0.202590
O351	O	0.636197	0.048277	0.047410
O352	O	0.886197	0.298277	0.297410
H353	H	0.169963	-0.484508	-0.485198
H354	H	0.419963	-0.234508	-0.235198
H355	H	0.669963	0.015492	0.014802
H356	H	0.919963	0.265492	0.264802
H357	H	0.263436	-0.268404	-0.269752
H358	H	0.513436	-0.018404	-0.019752
H359	H	0.763436	0.231596	0.230248
H360	H	1.013436	0.481596	0.480248
