data_functionalizedCrystal
_audit_creation_method	'MofGen! by Chris Wilmer'
_symmetry_space_group_name_H-M	'P1'
_symmetry_Int_Tables_number	1
_symmetry_cell_setting	triclinic
loop_
_symmetry_equiv_pos_as_xyz
  x,y,z
_cell_length_a	15.944499
_cell_length_b	10.268362
_cell_length_c	11.792241
_cell_angle_alpha	89.999626
_cell_angle_beta	83.835512
_cell_angle_gamma	89.997962
loop_
_atom_site_label
_atom_site_type_symbol
_atom_site_fract_x
_atom_site_fract_y
_atom_site_fract_z
O1	O	0.115131	-0.108164	1.505931
O2	O	0.126996	-0.108193	1.175490
O3	O	-0.001173	-0.108180	1.349765
O4	O	0.243301	-0.108177	1.331656
O5	O	-0.001179	0.108421	1.349750
O6	O	0.126991	0.108408	1.175474
O7	O	0.115126	0.108437	1.505916
Cu8	Cu	0.121058	0.128200	1.340694
Cu9	Cu	0.121064	-0.127956	1.340712
O10	O	0.243295	0.108424	1.331641
C11	C	0.126248	0.000103	1.133197
C12	C	0.124017	0.000092	1.007203
C13	C	-0.032474	0.000117	1.349016
C14	C	-0.125732	0.000107	1.346793
N15	N	0.121053	0.308365	1.340690
C16	C	-0.416811	0.000123	1.448042
C17	C	-0.356026	0.106919	1.395403
C18	C	-0.461405	0.000122	1.338718
C19	C	-0.356027	-0.106632	1.395389
C20	C	-0.296479	0.000112	1.342691
C21	C	-0.401848	0.107005	1.286048
C22	C	-0.401856	-0.106642	1.286049
C23	C	-0.341089	0.000180	1.233330
C24	C	-0.556416	0.000128	1.336432
C25	C	-0.201469	0.000115	1.344969
C26	C	0.274596	0.000124	1.332390
C27	C	0.367854	0.000125	1.334613
N28	N	0.121062	-0.308122	1.340725
C29	C	0.121062	0.574036	1.340706
C30	C	0.121060	0.426198	1.340693
C31	C	0.119915	0.000129	0.776525
C32	C	0.122195	0.000109	0.904891
C33	C	0.115874	0.000138	1.548208
C34	C	0.118104	0.000141	1.674203
H35	H	-0.449732	0.000234	1.538771
H36	H	-0.308316	0.000234	1.142523
H37	H	-0.335729	0.197212	1.441638
H38	H	-0.422175	-0.196939	1.239853
H39	H	-0.335736	-0.196911	1.441654
H40	H	-0.422041	0.197387	1.239839
