data_functionalizedCrystal
_audit_creation_method	'MofGen! by Chris Wilmer'
_symmetry_space_group_name_H-M	'P1'
_symmetry_Int_Tables_number	1
_symmetry_cell_setting	triclinic
loop_
_symmetry_equiv_pos_as_xyz
  x,y,z
_cell_length_a	14.971486
_cell_length_b	16.109298
_cell_length_c	14.048226
_cell_angle_alpha	89.998962
_cell_angle_beta	89.998499
_cell_angle_gamma	83.537158
loop_
_atom_site_label
_atom_site_type_symbol
_atom_site_fract_x
_atom_site_fract_y
_atom_site_fract_z
O1	O	1.186789	0.108348	-0.079039
O2	O	0.926370	0.121323	-0.079064
O3	O	1.063735	-0.006187	-0.079058
O4	O	1.049424	0.235858	-0.079046
O5	O	1.063719	-0.006194	0.079264
O6	O	0.926354	0.121315	0.079257
O7	O	1.186773	0.108340	0.079282
Zn8	Zn	1.056561	0.114827	0.104407
Zn9	Zn	1.056583	0.114837	-0.104189
O10	O	1.049408	0.235850	0.079276
C11	C	0.893038	0.120739	0.000093
C12	C	0.793744	0.119000	0.000083
C13	C	1.063148	-0.037166	0.000099
C14	C	1.061411	-0.129464	0.000088
C15	C	0.736409	0.193908	0.000089
C16	C	0.643112	0.192270	0.000103
C17	C	0.607151	0.115721	0.000105
C18	C	0.664493	0.040807	0.000103
C19	C	0.757788	0.042447	0.000095
C20	C	0.470035	0.037395	0.000115
C21	C	0.376734	0.035755	0.000121
C22	C	0.355360	0.187218	0.000123
C23	C	0.448655	0.188857	0.000116
C24	C	0.505990	0.113943	0.000112
C25	C	1.055754	-0.428536	-0.086194
C26	C	1.057397	-0.341814	-0.086201
C27	C	1.057392	-0.341808	0.086410
C28	C	1.055755	-0.428529	0.086416
C29	C	1.054931	-0.471890	0.000111
C30	C	1.058212	-0.298447	0.000099
C31	C	1.059994	-0.204419	0.000092
C32	C	1.053150	-0.565924	0.000117
C33	C	1.220105	0.108924	0.000122
C34	C	1.319400	0.110663	0.000126
C35	C	1.049995	0.266829	0.000117
C36	C	1.051732	0.359127	0.000122
N37	N	1.056552	0.114819	0.246767
N38	N	1.056598	0.114837	-0.246549
C39	C	1.117397	0.058381	0.296588
C40	C	1.117403	0.058381	0.396246
C41	C	1.056568	0.114823	0.446081
C42	C	0.995717	0.171264	0.396253
C43	C	0.995708	0.171260	0.296597
C44	C	0.995743	0.171270	0.603967
C45	C	0.995754	0.171275	0.703630
C46	C	1.117438	0.058391	0.703616
C47	C	1.117429	0.058387	0.603960
C48	C	1.056579	0.114829	0.554139
H49	H	0.765681	0.256243	0.000086
H50	H	1.058068	-0.306519	-0.156479
F51	F	0.931003	0.231348	0.756661
H52	H	1.166984	0.012434	0.744186
H53	H	1.055088	-0.463829	0.156700
F54	F	1.182180	-0.001679	0.550921
F55	F	1.058265	-0.295652	0.178257
F56	F	1.182151	-0.001689	0.243559
H57	H	0.946190	0.217228	0.563406
F58	F	1.182159	-0.001687	0.449269
H59	H	0.946180	0.217217	0.436834
F60	F	0.930946	0.231326	0.243576
H61	H	0.477931	0.251189	0.000105
F62	F	0.582096	0.271998	0.000104
H63	H	0.308672	0.248216	0.000130
H64	H	0.516716	-0.023609	0.000114
F65	F	0.626218	-0.040662	0.000111
F66	F	0.338464	-0.045716	0.000148
H67	H	0.804470	-0.018551	0.000091
H68	H	1.055082	-0.463838	-0.156469
