data_functionalizedCrystal
_audit_creation_method	'MofGen! by Chris Wilmer'
_symmetry_space_group_name_H-M	'P1'
_symmetry_Int_Tables_number	1
_symmetry_cell_setting	triclinic
loop_
_symmetry_equiv_pos_as_xyz
  x,y,z
_cell_length_a	14.519709
_cell_length_b	10.723022
_cell_length_c	12.996460
_cell_angle_alpha	89.993696
_cell_angle_beta	89.999167
_cell_angle_gamma	84.073685
loop_
_atom_site_label
_atom_site_type_symbol
_atom_site_fract_x
_atom_site_fract_y
_atom_site_fract_z
O1	O	0.129336	1.655985	-0.085563
O2	O	0.462669	1.989318	0.247771
O3	O	0.796002	2.322652	0.581104
O4	O	0.141718	1.292716	-0.085566
O5	O	0.475052	1.626050	0.247767
O6	O	0.808385	1.959383	0.581100
O7	O	0.001338	1.483982	-0.085555
O8	O	0.334671	1.817316	0.247778
O9	O	0.668004	2.150649	0.581112
O10	O	0.269716	1.464719	-0.085574
O11	O	0.603050	1.798052	0.247759
O12	O	0.936383	2.131386	0.581093
O13	O	0.001347	1.483956	0.085579
O14	O	0.334680	1.817289	0.418912
O15	O	0.668014	2.150623	0.752245
O16	O	0.141728	1.292690	0.085567
O17	O	0.475061	1.626024	0.418901
O18	O	0.808394	1.959357	0.752234
O19	O	0.129345	1.655959	0.085571
O20	O	0.462678	1.989292	0.418905
O21	O	0.796012	2.322625	0.752238
Cu22	Cu	0.135537	1.474322	0.101195
Cu23	Cu	0.468870	1.807655	0.434529
Cu24	Cu	0.802204	2.140989	0.767862
Cu25	Cu	0.135526	1.474353	-0.101190
Cu26	Cu	0.468859	1.807686	0.232143
Cu27	Cu	0.802193	2.141020	0.565476
O28	O	0.269726	1.464693	0.085560
O29	O	0.603059	1.798026	0.418893
O30	O	0.936392	2.131360	0.752227
C31	C	0.140822	1.246212	0.000000
C32	C	0.474155	1.579546	0.333333
C33	C	0.807489	1.912879	0.666667
C34	C	0.138127	1.107683	-0.000001
C35	C	0.471460	1.441016	0.333332
C36	C	0.804794	1.774350	0.666666
C37	C	-0.033022	1.483071	0.000012
C38	C	0.300311	1.816405	0.333345
C39	C	0.633645	2.149738	0.666679
C40	C	-0.135417	1.480381	0.000012
C41	C	0.197916	1.813715	0.333346
C42	C	0.531250	2.147048	0.666679
C43	C	0.057174	1.059879	0.000004
C44	C	0.390508	1.393212	0.333337
C45	C	0.723841	1.726546	0.666671
C46	C	0.054387	0.916702	0.000003
C47	C	0.387720	1.250036	0.333336
C48	C	0.721054	1.583369	0.666670
C49	C	-0.510363	1.470477	-0.000014
C50	C	-0.177030	1.803811	0.333319
C51	C	0.156303	2.137144	0.666652
C52	C	-0.406041	1.473228	-0.000007
C53	C	-0.072708	1.806561	0.333327
C54	C	0.260625	2.139894	0.666660
C55	C	-0.322894	1.475429	0.000000
C56	C	0.010440	1.808762	0.333333
C57	C	0.343773	2.142096	0.666667
C58	C	-0.218565	1.478180	0.000006
C59	C	0.114768	1.811513	0.333339
C60	C	0.448102	2.144847	0.666673
C61	C	0.304085	1.465604	-0.000009
C62	C	0.637419	1.798937	0.333324
C63	C	0.970752	2.132271	0.666657
C64	C	0.406480	1.468294	-0.000017
C65	C	0.739814	1.801627	0.333317
C66	C	1.073147	2.134961	0.666650
C67	C	0.130241	1.702463	0.000002
C68	C	0.463574	2.035796	0.333336
C69	C	0.796908	2.369130	0.666669
C70	C	0.132936	1.840992	-0.000003
C71	C	0.466270	2.174326	0.333330
C72	C	0.799603	2.507659	0.666663
N73	N	0.135544	1.474310	0.243542
N74	N	0.468878	1.807643	0.576876
N75	N	0.802211	2.140976	0.910209
C76	C	0.135547	1.474314	0.336648
C77	C	0.468881	1.807648	0.669982
C78	C	0.802214	2.140981	1.003315
C79	C	0.135542	1.474325	0.453453
C80	C	0.468875	1.807658	0.786787
C81	C	0.802209	2.140991	1.120120
C82	C	0.135532	1.474340	0.546552
C83	C	0.468866	1.807673	0.879885
C84	C	0.802199	2.141006	1.213218
C85	C	0.135528	1.474352	0.663364
C86	C	0.468861	1.807685	0.996698
C87	C	0.802195	2.141019	1.330031
N88	N	0.135519	1.474367	0.756463
N89	N	0.468852	1.807700	1.089796
N90	N	0.802185	2.141034	1.423129
H91	H	-0.014924	0.875538	-0.000019
H92	H	0.318409	1.208872	0.333315
H93	H	0.651742	1.542205	0.666648
C94	C	-0.037203	1.223462	-0.087960
C95	C	0.296130	1.556796	0.245373
C96	C	0.629464	1.890129	0.578706
C97	C	-0.033605	1.147716	0.000011
C98	C	0.299728	1.481049	0.333344
C99	C	0.633061	1.814382	0.666678
H100	H	-0.093246	1.277692	-0.087951
H101	H	0.240087	1.611025	0.245382
H102	H	0.573421	1.944359	0.578716
H103	H	-0.034762	1.172085	-0.147627
H104	H	0.298572	1.505418	0.185706
H105	H	0.631905	1.838752	0.519040
H106	H	0.013954	1.271997	-0.087954
H107	H	0.347287	1.605330	0.245380
H108	H	0.680620	1.938663	0.578713
H109	H	-0.084758	1.099174	0.000000
H110	H	0.248575	1.432507	0.333334
H111	H	0.581908	1.765841	0.666667
H112	H	-0.036056	1.199099	0.059693
H113	H	0.297278	1.532432	0.393026
H114	H	0.630611	1.865765	0.726360
C115	C	0.233020	0.970505	-0.087995
C116	C	0.566353	1.303838	0.245338
C117	C	0.899686	1.637172	0.578672
C118	C	0.226516	0.896534	-0.000018
C119	C	0.559849	1.229867	0.333315
C120	C	0.893183	1.563201	0.666649
H121	H	0.290795	1.004792	-0.088007
H122	H	0.624129	1.338125	0.245326
H123	H	0.957462	1.671458	0.578660
H124	H	0.184110	1.036561	-0.087979
H125	H	0.517443	1.369894	0.245354
H126	H	0.850777	1.703227	0.578688
H127	H	0.228579	0.920319	-0.147664
H128	H	0.561913	1.253653	0.185669
H129	H	0.895246	1.586986	0.519002
H130	H	0.230950	0.946722	0.059652
H131	H	0.564283	1.280055	0.392985
H132	H	0.897616	1.613389	0.726318
H133	H	0.275439	0.830469	-0.000025
H134	H	0.608773	1.163803	0.333309
H135	H	0.942106	1.497136	0.666642
H136	H	0.205370	1.042612	-0.000010
H137	H	0.538703	1.375945	0.333323
H138	H	0.872036	1.709279	0.666656
