data_functionalizedCrystal
_audit_creation_method	'MofGen! by Chris Wilmer'
_symmetry_space_group_name_H-M	'P1'
_symmetry_Int_Tables_number	1
_symmetry_cell_setting	triclinic
loop_
_symmetry_equiv_pos_as_xyz
  x,y,z
_cell_length_a	17.640112
_cell_length_b	17.637651
_cell_length_c	17.640968
_cell_angle_alpha	70.334811
_cell_angle_beta	92.139080
_cell_angle_gamma	114.329102
loop_
_atom_site_label
_atom_site_type_symbol
_atom_site_fract_x
_atom_site_fract_y
_atom_site_fract_z
Zn1	Zn	1.242024	-0.024656	-0.191252
Zn2	Zn	1.174933	-0.201700	-0.036779
Zn3	Zn	1.076328	-0.080477	-0.081230
Zn4	Zn	1.076310	-0.190404	-0.191115
O5	O	1.142399	-0.124309	-0.125094
O6	O	1.343742	-0.029508	-0.152215
O7	O	1.133782	-0.213708	0.067959
O8	O	1.126393	0.047027	-0.114485
O9	O	1.294451	-0.159581	-0.038724
O10	O	1.248129	0.088038	-0.195317
O11	O	1.061337	-0.124646	0.035301
O12	O	0.965707	-0.113693	-0.114352
O13	O	1.126363	-0.140329	-0.301768
O14	O	0.965694	-0.194456	-0.195084
O15	O	1.248112	-0.018555	-0.301868
O16	O	1.133765	-0.320300	-0.038592
O17	O	1.061308	-0.312001	-0.151982
C18	C	0.937018	-0.158906	-0.159527
C19	C	0.849156	-0.173723	-0.174274
C20	C	0.560301	-0.011732	-0.013076
C21	C	0.477739	-0.025669	-0.026941
C22	C	0.477701	-0.109964	-0.110809
C23	C	0.560265	-0.096030	-0.096955
C24	C	0.601559	-0.046914	-0.048087
C25	C	0.601523	-0.131212	-0.131966
C26	C	0.684079	-0.117283	-0.118109
C27	C	0.725377	-0.068172	-0.069241
C28	C	0.684115	-0.032985	-0.034230
C29	C	0.560226	-0.180333	-0.180828
C30	C	0.601484	-0.215515	-0.215839
C31	C	0.684044	-0.201581	-0.201987
C32	C	0.725342	-0.152470	-0.153120
C33	C	0.725307	-0.236767	-0.236998
C34	C	0.807862	-0.222838	-0.223142
C35	C	0.807898	-0.138541	-0.139263
C36	C	1.090280	-0.347283	-0.090462
C37	C	1.068063	-0.442653	-0.075661
C38	C	1.311759	-0.649227	-0.237701
C39	C	1.290854	-0.738850	-0.223783
C40	C	1.164132	-0.781675	-0.139504
C41	C	1.185029	-0.692055	-0.153411
C42	C	1.258843	-0.625837	-0.202511
C43	C	1.132113	-0.668665	-0.118221
C44	C	1.153006	-0.579052	-0.132131
C45	C	1.226815	-0.512829	-0.181231
C46	C	1.279736	-0.536224	-0.216421
C47	C	1.058296	-0.734884	-0.069126
C48	C	1.005380	-0.711494	-0.033936
C49	C	1.026276	-0.621879	-0.047841
C50	C	1.100085	-0.555657	-0.096941
C51	C	0.973355	-0.598484	-0.012651
C52	C	0.994249	-0.508871	-0.026561
C53	C	1.120979	-0.466044	-0.110851
C54	C	1.348581	-0.089578	-0.090526
C55	C	1.436443	-0.074777	-0.075796
C56	C	1.194719	-0.071955	-0.331306
C57	C	1.217015	-0.049645	-0.419181
C58	C	1.194746	0.099543	-0.159875
C59	C	1.217054	0.194936	-0.174696
C60	C	0.973431	-0.293279	-0.707925
C61	C	0.994401	-0.272302	-0.790496
C62	C	1.121167	-0.145509	-0.790590
C63	C	1.100206	-0.166473	-0.708018
C64	C	1.026337	-0.240360	-0.666692
C65	C	1.153113	-0.113554	-0.666785
C66	C	1.132155	-0.134520	-0.584219
C67	C	1.058291	-0.208405	-0.542887
C68	C	1.005380	-0.261326	-0.584126
C69	C	1.226984	-0.039671	-0.708111
C70	C	1.279890	0.013248	-0.666878
C71	C	1.258930	-0.007714	-0.584313
C72	C	1.185066	-0.081599	-0.542980
C73	C	1.311841	0.045208	-0.543073
C74	C	1.290884	0.024242	-0.460508
C75	C	1.164109	-0.102564	-0.460414
C76	C	1.090341	-0.176390	0.080314
C77	C	1.068255	-0.198433	0.168177
H78	H	0.444153	0.002991	0.001566
H79	H	0.444067	-0.149956	-0.150595
O80	O	1.351608	0.085111	-0.706965
C81	C	1.349198	0.162615	-0.702997
H82	H	1.304010	0.144052	-0.648422
H83	H	1.414527	0.209995	-0.696582
H84	H	1.327110	0.196470	-0.760774
H85	H	0.593930	0.028278	0.026703
H86	H	1.371989	0.105361	-0.576732
H87	H	1.333965	0.067335	-0.426935
O88	O	0.561260	-0.263168	-0.263316
C89	C	0.479538	-0.267940	-0.268022
H90	H	0.477187	-0.210125	-0.254412
H91	H	0.461818	-0.264115	-0.331578
H92	H	0.433527	-0.333439	-0.221884
O93	O	1.092426	-0.174445	-0.420253
C94	C	1.094824	-0.251941	-0.424257
H95	H	1.162722	-0.239855	-0.435713
H96	H	1.064345	-0.309270	-0.364504
H97	H	1.059344	-0.269364	-0.475791
O98	O	0.847935	-0.090958	-0.091670
C99	C	0.803384	-0.132988	-0.013346
H100	H	0.763629	-0.206405	-0.002415
H101	H	0.849503	-0.126296	0.033653
H102	H	0.760996	-0.100250	-0.007941
O103	O	1.247079	-0.425756	-0.194885
C104	C	1.252942	-0.380002	-0.278706
H105	H	1.214690	-0.429180	-0.309123
H106	H	1.227575	-0.327906	-0.288672
H107	H	1.321300	-0.345922	-0.306101
H108	H	0.717744	0.007025	0.005549
H109	H	1.104032	-0.835601	-0.099529
O110	O	0.685200	-0.284339	-0.284573
C111	C	0.661799	-0.230646	-0.351283
H112	H	0.703730	-0.157601	-0.362593
H113	H	0.669022	-0.246507	-0.407398
H114	H	0.593726	-0.244413	-0.337803
H115	H	0.493004	-0.191672	-0.192109
O116	O	1.383474	-0.585005	-0.285449
C117	C	1.425717	-0.624863	-0.313511
H118	H	1.379131	-0.693537	-0.311727
H119	H	1.455941	-0.581715	-0.378428
H120	H	1.476236	-0.631567	-0.273070
O121	O	0.943101	-0.323768	-0.830557
C122	C	0.987270	-0.359472	-0.862177
H123	H	1.041970	-0.360611	-0.826027
H124	H	0.943472	-0.430094	-0.857655
H125	H	1.012084	-0.316583	-0.928416
O126	O	0.847930	-0.257125	-0.257019
C127	C	0.871321	-0.315855	-0.195313
H128	H	0.829410	-0.341065	-0.136409
H129	H	0.864060	-0.374550	-0.213384
H130	H	0.939404	-0.279441	-0.186248
O131	O	1.247486	-0.019198	-0.788309
C132	C	1.324019	0.057372	-0.815946
H133	H	1.360937	0.065081	-0.762485
H134	H	1.361976	0.050555	-0.862132
H135	H	1.311031	0.118396	-0.845571
O136	O	1.351374	-0.471913	-0.264239
C137	C	1.348931	-0.476728	-0.342527
H138	H	1.281023	-0.511059	-0.353221
H139	H	1.379355	-0.406715	-0.389604
H140	H	1.384439	-0.516301	-0.348061
H141	H	1.181090	-0.412125	-0.150826
H142	H	0.945215	-0.321475	-0.550482
H143	H	1.333942	-0.757886	-0.252456
H144	H	0.913266	-0.353428	-0.674281
O145	O	1.038024	-0.821900	-0.055761
C146	C	1.029886	-0.836025	-0.130285
H147	H	1.066969	-0.770524	-0.181593
H148	H	1.055121	-0.886374	-0.129088
H149	H	0.960989	-0.862599	-0.140435
H150	H	0.913252	-0.652411	0.027320
O151	O	0.805610	-0.054483	-0.055807
C152	C	0.857585	0.037571	-0.084393
H153	H	0.818149	0.075587	-0.086629
H154	H	0.907341	0.053153	-0.041865
H155	H	0.889294	0.058410	-0.147799
O156	O	0.933649	-0.775894	0.013658
C157	C	0.881861	-0.824931	-0.031830
H158	H	0.921773	-0.818407	-0.085028
H159	H	0.848427	-0.897925	0.008396
H160	H	0.833504	-0.798116	-0.055638
O161	O	0.942728	-0.486244	0.007576
C162	C	0.863184	-0.517080	-0.019458
H163	H	0.854059	-0.574707	-0.040022
H164	H	0.812575	-0.540641	0.032174
H165	H	0.858596	-0.460830	-0.072386
O166	O	1.037821	-0.228921	-0.462674
C167	C	0.961269	-0.305468	-0.435048
H168	H	0.950555	-0.345391	-0.476697
H169	H	0.963482	-0.348045	-0.370749
H170	H	0.907869	-0.284867	-0.435357
O171	O	1.192870	-0.073747	-0.830868
C172	C	1.200037	-0.066603	-0.912579
H173	H	1.135325	-0.102126	-0.929723
H174	H	1.228393	0.006553	-0.953048
H175	H	1.242187	-0.098456	-0.921041
