data_functionalizedCrystal
_audit_creation_method	'MofGen! by Chris Wilmer'
_symmetry_space_group_name_H-M	'P1'
_symmetry_Int_Tables_number	1
_symmetry_cell_setting	triclinic
loop_
_symmetry_equiv_pos_as_xyz
  x,y,z
_cell_length_a	10.540539
_cell_length_b	19.188930
_cell_length_c	9.016244
_cell_angle_alpha	89.992636
_cell_angle_beta	89.994699
_cell_angle_gamma	83.835137
loop_
_atom_site_label
_atom_site_type_symbol
_atom_site_fract_x
_atom_site_fract_y
_atom_site_fract_z
O1	O	1.683725	0.098388	-0.123289
O2	O	2.183725	0.598388	0.376711
O3	O	1.314108	0.107659	-0.123309
O4	O	1.814108	0.607659	0.376691
O5	O	1.509583	0.001439	-0.123270
O6	O	2.009583	0.501439	0.376730
O7	O	1.488250	0.204608	-0.123329
O8	O	1.988250	0.704608	0.376671
O9	O	1.509554	0.001441	0.123411
O10	O	2.009554	0.501441	0.623411
O11	O	1.314079	0.107661	0.123372
O12	O	1.814079	0.607661	0.623372
O13	O	1.683697	0.098391	0.123392
O14	O	2.183697	0.598391	0.623392
Cu15	Cu	1.498885	0.103026	0.145905
Cu16	Cu	1.998885	0.603026	0.645905
Cu17	Cu	1.498919	0.103023	-0.145823
Cu18	Cu	1.998919	0.603023	0.354177
O19	O	1.488222	0.204611	0.123352
O20	O	1.988222	0.704611	0.623352
C21	C	1.266806	0.106965	0.000029
C22	C	1.766806	0.606965	0.500029
C23	C	1.125904	0.104885	0.000023
C24	C	1.625904	0.604885	0.500023
C25	C	0.944233	0.025184	0.000622
C26	C	1.444233	0.525184	0.500622
C27	C	1.090805	0.027292	0.000050
C28	C	1.590805	0.527292	0.500050
C29	C	1.063424	0.142224	-0.140849
C30	C	1.563424	0.642224	0.359151
C31	C	0.916938	0.139576	-0.140951
C32	C	1.416938	0.639576	0.359049
C33	C	0.916383	0.141157	0.139570
C34	C	1.416383	0.641157	0.639570
C35	C	1.063349	0.141872	0.141417
C36	C	1.563349	0.641872	0.641417
C37	C	1.508878	-0.024575	0.000075
C38	C	2.008878	0.475425	0.500075
C39	C	1.506804	-0.102094	0.000088
C40	C	2.006804	0.397906	0.500088
C41	C	1.621502	-0.146253	0.000101
C42	C	2.121502	0.353747	0.500101
C43	C	1.619554	-0.219090	0.000077
C44	C	2.119554	0.280910	0.500077
C45	C	1.502901	-0.247764	0.000070
C46	C	2.002901	0.252236	0.500070
C47	C	1.388187	-0.203595	0.000048
C48	C	1.888187	0.296405	0.500048
C49	C	1.390139	-0.130760	0.000057
C50	C	1.890139	0.369240	0.500057
N51	N	1.413724	-0.356363	0.084015
N52	N	1.913724	0.143637	0.584015
N53	N	1.411878	-0.425553	0.084010
N54	N	1.911878	0.074447	0.584010
C55	C	1.497014	-0.467212	0.000039
C56	C	1.997014	0.032788	0.500039
N57	N	1.584085	-0.437067	-0.083907
N58	N	2.084085	0.062933	0.416093
N59	N	1.585935	-0.367870	-0.083895
N60	N	2.085935	0.132130	0.416105
C61	C	1.500772	-0.326741	0.000059
C62	C	2.000772	0.173259	0.500059
C63	C	1.609608	-0.590350	0.000025
C64	C	2.109608	-0.090350	0.500025
C65	C	1.607655	-0.663188	-0.000008
C66	C	2.107655	-0.163188	0.499992
C67	C	1.376285	-0.647691	-0.000023
C68	C	1.876285	-0.147691	0.499977
C69	C	1.378241	-0.574855	-0.000004
C70	C	1.878241	-0.074855	0.499996
C71	C	1.494906	-0.546189	0.000026
C72	C	1.994906	-0.046189	0.500026
C73	C	1.730998	0.099085	0.000050
C74	C	2.230998	0.599085	0.500050
C75	C	1.871901	0.101165	0.000047
C76	C	2.371901	0.601165	0.500047
C77	C	1.488927	0.230625	0.000004
C78	C	1.988927	0.730625	0.500004
C79	C	1.491000	0.308143	-0.000018
C80	C	1.991000	0.808143	0.499982
N81	N	1.498871	0.103028	0.351092
N82	N	1.998871	0.603028	0.851092
N83	N	1.498944	0.103016	-0.351009
N84	N	1.998944	0.603016	0.148991
C85	C	1.393992	0.159658	0.586103
C86	C	1.893992	0.659658	1.086103
C87	C	1.394216	0.159870	0.414212
C88	C	1.894216	0.659870	0.914212
C89	C	1.631229	0.119601	0.413432
C90	C	2.131229	0.619601	0.913432
C91	C	1.630654	0.120002	0.585376
C92	C	2.130654	0.620002	1.085376
C93	C	1.472714	0.029640	0.585655
C94	C	1.972714	0.529640	1.085655
C95	C	1.469658	0.030115	0.413700
C96	C	1.969658	0.530115	0.913700
H97	H	1.134054	-0.002088	0.101034
H98	H	1.634054	0.497912	0.601034
H99	H	0.914710	-0.005341	-0.099826
H100	H	1.414710	0.494659	0.400174
Br101	Br	1.588843	-0.043515	0.342121
Br102	Br	2.088843	0.456485	0.842121
Br103	Br	1.307381	0.009175	0.345800
Br104	Br	1.807381	0.509175	0.845800
H105	H	1.104900	0.114594	0.245633
H106	H	1.604900	0.614594	0.745633
Br107	Br	1.161447	-0.021806	-0.168820
Br108	Br	1.661447	0.478194	0.331180
H109	H	1.295820	0.149898	0.372066
H110	H	1.795820	0.649898	0.872066
H111	H	1.086328	0.198442	0.149905
H112	H	1.586328	0.698442	0.649905
Br113	Br	1.421460	0.249884	0.658035
Br114	Br	1.921460	0.749884	1.158035
H115	H	0.889348	0.111977	-0.246239
H116	H	1.389348	0.611977	0.253761
H117	H	1.293208	-0.226946	0.000039
H118	H	1.793208	0.273054	0.500039
H119	H	0.867921	0.197202	0.140506
H120	H	1.367921	0.697202	0.640506
H121	H	1.378325	0.013867	0.629103
H122	H	1.878325	0.513867	1.129103
H123	H	1.295283	0.149839	0.627495
H124	H	1.795283	0.649839	1.127495
Br125	Br	1.234464	-0.070825	0.000035
Br126	Br	1.734464	0.429175	0.500035
H127	H	1.704603	-0.567009	0.000043
H128	H	2.204603	-0.067009	0.500043
Br129	Br	1.421990	0.250615	0.345593
Br130	Br	1.921990	0.750615	0.845593
H131	H	1.653829	0.173535	0.625451
H132	H	2.153829	0.673535	1.125451
H133	H	1.701060	-0.699142	-0.000006
H134	H	2.201060	-0.199142	0.499994
H135	H	1.712958	-0.255051	0.000082
H136	H	2.212958	0.244949	0.500082
H137	H	1.106597	0.116284	-0.245674
H138	H	1.606597	0.616284	0.254326
Br139	Br	1.222570	-0.514920	-0.000021
Br140	Br	1.722570	-0.014920	0.499979
H141	H	0.867740	0.195380	-0.147361
H142	H	1.367740	0.695380	0.352639
Br143	Br	1.217966	-0.686598	-0.000048
Br144	Br	1.717966	-0.186598	0.499952
Br145	Br	1.764565	0.053837	0.654719
Br146	Br	2.264565	0.553837	1.154719
H147	H	1.549255	-0.012519	0.626323
H148	H	2.049255	0.487481	1.126323
Br149	Br	0.864713	0.099304	0.317545
Br150	Br	1.364713	0.599304	0.817545
Br151	Br	0.897690	-0.025908	0.169013
Br152	Br	1.397690	0.474092	0.669013
Br153	Br	1.098625	0.237192	-0.149654
Br154	Br	1.598625	0.737192	0.350346
Br155	Br	1.779832	-0.107352	0.000101
Br156	Br	2.279832	0.392648	0.500101
H157	H	1.711168	0.079472	0.372542
H158	H	2.211168	0.579472	0.872542
H159	H	1.654960	0.172529	0.370340
H160	H	2.154960	0.672529	0.870340
