data_functionalizedCrystal
_audit_creation_method	'MofGen! by Chris Wilmer'
_symmetry_space_group_name_H-M	'P1'
_symmetry_Int_Tables_number	1
_symmetry_cell_setting	triclinic
loop_
_symmetry_equiv_pos_as_xyz
  x,y,z
_cell_length_a	10.489741
_cell_length_b	22.610064
_cell_length_c	10.489741
_cell_angle_alpha	89.995598
_cell_angle_beta	84.539174
_cell_angle_gamma	90.005618
loop_
_atom_site_label
_atom_site_type_symbol
_atom_site_fract_x
_atom_site_fract_y
_atom_site_fract_z
O1	O	1.694062	0.049148	0.179951
O2	O	1.322867	0.049157	0.196844
O3	O	1.516911	0.049148	0.002799
O4	O	1.500018	0.049156	0.373995
O5	O	1.516877	-0.049221	0.002828
O6	O	1.322832	-0.049212	0.196872
O7	O	1.694028	-0.049222	0.179979
Zn8	Zn	1.508425	-0.064835	0.188430
Zn9	Zn	1.508470	0.064770	0.188393
O10	O	1.499984	-0.049213	0.374023
C11	C	1.275318	-0.000027	0.195582
C12	C	1.133688	-0.000023	0.191765
N13	N	1.508403	-0.153288	0.188455
C14	C	1.065548	-0.000031	0.068300
C15	C	0.973438	0.048470	0.126609
C16	C	0.973439	-0.048514	0.126667
C17	C	1.043444	0.048518	0.250125
C18	C	1.043454	-0.048510	0.250165
C19	C	0.951371	0.000003	0.308564
C20	C	1.594397	-0.561933	0.102483
C21	C	1.594403	-0.623853	0.102474
O22	O	1.667464	-0.655875	0.029396
N23	N	1.508469	-0.654825	0.188366
C24	C	1.422513	-0.623874	0.274264
O25	O	1.349419	-0.655904	0.347321
C26	C	1.422502	-0.561955	0.274266
C27	C	1.508451	-0.530986	0.188377
C28	C	1.680338	-0.530964	0.016600
C29	C	1.680333	-0.469048	0.016611
C30	C	1.594387	-0.438101	0.102505
C31	C	1.508446	-0.469070	0.188388
C32	C	1.336541	-0.531005	0.360157
C33	C	1.336537	-0.469082	0.360151
C34	C	1.422485	-0.438113	0.274262
C35	C	1.422494	-0.376208	0.274294
N36	N	1.508429	-0.345236	0.188402
C37	C	1.594375	-0.376183	0.102507
C38	C	1.422543	-0.753907	0.274252
C39	C	1.422559	-0.815825	0.274257
C40	C	1.594448	-0.815800	0.102465
C41	C	1.594436	-0.753881	0.102467
C42	C	1.508477	-0.722935	0.188360
C43	C	1.594358	-0.246155	0.102538
C44	C	1.594349	-0.184234	0.102560
C45	C	1.422457	-0.184265	0.274348
C46	C	1.422470	-0.246181	0.274330
C47	C	1.508425	-0.277124	0.188415
O48	O	1.349467	-0.344147	0.347331
O49	O	1.667446	-0.344145	0.029452
C50	C	1.741577	-0.000037	0.181241
C51	C	1.883206	-0.000036	0.185058
C52	C	1.515618	-0.000036	-0.044718
C53	C	1.511801	-0.000035	-0.186348
N54	N	1.508502	0.153223	0.188358
C55	C	1.388336	-0.000027	-0.254488
C56	C	1.446643	-0.048530	-0.346596
C57	C	1.446706	0.048455	-0.346599
C58	C	1.570158	-0.048577	-0.276591
C59	C	1.570204	0.048451	-0.276584
C60	C	1.628600	-0.000064	-0.368665
C61	C	1.501277	-0.000028	0.421541
C62	C	1.505094	-0.000025	0.563170
H63	H	1.115238	0.000027	-0.033196
H64	H	1.750316	-0.443837	-0.053330
Br65	Br	0.921774	0.116813	0.039527
Br66	Br	1.305881	-0.711916	0.390840
Br67	Br	1.219865	-0.427089	0.476723
H68	H	1.074286	0.089568	0.302313
Br69	Br	1.657138	-0.116998	-0.225194
H70	H	1.750325	-0.556155	-0.053351
Br71	Br	0.868988	0.000047	0.477907
H72	H	1.622415	0.089456	-0.245551
Br73	Br	1.797943	-0.000109	-0.451046
Br74	Br	1.095180	-0.116854	0.337188
H75	H	1.664344	-0.159021	0.032619
Br76	Br	0.921781	-0.116858	0.039583
H77	H	1.394464	0.089464	-0.377575
H78	H	1.664350	-0.271343	0.032576
Br79	Br	1.219891	-0.573022	0.476726
Br80	Br	1.359554	-0.116872	-0.398264
Br81	Br	1.219144	-0.000099	-0.171734
H82	H	1.664423	-0.728670	0.032528
H83	H	1.664428	-0.841008	0.032523
Br84	Br	1.305932	-0.857847	0.390846
H85	H	1.352495	-0.271396	0.344281
H86	H	1.352484	-0.159059	0.344286
