data_functionalizedCrystal
_audit_creation_method	'MofGen! by Chris Wilmer'
_symmetry_space_group_name_H-M	'P1'
_symmetry_Int_Tables_number	1
_symmetry_cell_setting	triclinic
loop_
_symmetry_equiv_pos_as_xyz
  x,y,z
_cell_length_a	21.395362
_cell_length_b	12.759400
_cell_length_c	21.395355
_cell_angle_alpha	90.013847
_cell_angle_beta	90.043940
_cell_angle_gamma	90.030564
loop_
_atom_site_label
_atom_site_type_symbol
_atom_site_fract_x
_atom_site_fract_y
_atom_site_fract_z
Zn1	Zn	0.957929	-0.417943	0.354606
Zn2	Zn	0.957861	-0.593607	0.249837
Zn3	Zn	0.853144	-0.417992	0.249807
Zn4	Zn	0.853143	-0.593629	0.354542
O5	O	0.905519	-0.505793	0.302198
O6	O	1.045598	-0.441215	0.340747
O7	O	0.943942	-0.570323	0.162155
O8	O	0.867073	-0.270964	0.263723
O9	O	1.045548	-0.570275	0.263774
O10	O	0.944058	-0.270928	0.340719
O11	O	0.867007	-0.441299	0.162133
O12	O	0.765466	-0.441320	0.263661
O13	O	0.867071	-0.570312	0.442228
O14	O	0.765465	-0.570360	0.340609
O15	O	0.944057	-0.441236	0.442275
O16	O	0.943941	-0.740631	0.263712
O17	O	0.867005	-0.740647	0.340638
C18	C	0.742732	-0.505848	0.302125
C19	C	0.673090	-0.505897	0.302109
C20	C	0.640393	-0.573177	0.342116
C21	C	0.574958	-0.573152	0.342144
C22	C	0.542222	-0.505857	0.302154
C23	C	0.574927	-0.438564	0.262144
C24	C	0.640361	-0.438584	0.262122
C25	C	0.438496	-0.497393	0.245748
C26	C	0.373063	-0.497380	0.245769
C27	C	0.340401	-0.505788	0.302223
C28	C	0.373181	-0.514231	0.358657
C29	C	0.438615	-0.514251	0.358635
C30	C	0.471270	-0.505827	0.302174
C31	C	0.236752	-0.573044	0.342263
C32	C	0.171315	-0.573011	0.342292
C33	C	0.171286	-0.438428	0.262287
C34	C	0.236721	-0.438456	0.262264
C35	C	0.269450	-0.505769	0.302251
C36	C	0.905482	-0.778760	0.302185
C37	C	0.905523	-0.895537	0.302200
C38	C	0.945629	-0.950355	0.262189
C39	C	0.945667	-1.060079	0.262209
C40	C	0.865490	-1.060156	0.342252
C41	C	0.865455	-0.950434	0.342235
C42	C	0.991916	-0.950312	0.215975
C43	C	0.991955	-1.060036	0.215994
C44	C	1.068943	-0.505738	0.302271
C45	C	1.138584	-0.505714	0.302303
C46	C	0.905571	-0.505771	0.465621
C47	C	0.905593	-0.505762	0.535263
C48	C	0.905574	-0.231759	0.302225
C49	C	0.905597	-0.114983	0.302236
C50	C	0.905503	-0.505738	0.139410
C51	C	0.905603	-0.505451	0.069770
C52	C	0.945678	-0.438550	0.568001
C53	C	0.945678	-0.438504	0.633437
C54	C	0.905598	-0.505691	0.666131
C55	C	0.865505	-0.572908	0.633384
C56	C	0.865503	-0.572944	0.567950
C57	C	0.900638	-0.600292	0.769799
C58	C	0.900645	-0.600258	0.835232
C59	C	0.905602	-0.505580	0.867952
C60	C	0.910566	-0.410932	0.835230
C61	C	0.910563	-0.410968	0.769796
C62	C	0.905596	-0.505659	0.737083
C63	C	0.945688	-0.438312	0.971643
C64	C	0.945683	-0.438265	1.037080
C65	C	0.865514	-0.572678	1.037026
C66	C	0.865516	-0.572716	0.971591
C67	C	0.905607	-0.505534	0.938903
H68	H	0.144694	-0.627796	0.374875
O69	O	0.915903	-0.308796	0.870503
H70	H	0.873926	-0.298069	0.900271
O71	O	0.968907	-0.905317	0.154883
H72	H	0.969823	-0.818440	0.157390
H73	H	0.978329	-0.383603	0.945027
H74	H	0.832875	-0.627372	1.063645
H75	H	1.038057	-1.093969	0.233433
H76	H	0.346589	-0.521076	0.404627
O77	O	0.822197	-0.891321	0.385395
H78	H	0.850207	-0.841262	0.417305
O79	O	0.974788	-1.099585	0.151704
H80	H	0.931783	-1.147996	0.154787
H81	H	0.832871	-0.627608	0.660008
H82	H	1.040427	-0.920439	0.229025
O83	O	0.822253	-0.645417	0.532633
H84	H	0.794377	-0.692123	0.566357
H85	H	0.978322	-0.383844	0.541391
O86	O	0.988921	-0.365770	1.072396
H87	H	1.016800	-0.319072	1.038670
H88	H	0.667037	-0.627988	0.374678
O89	O	0.271984	-0.365898	0.219100
H90	H	0.301847	-0.312511	0.247182
H91	H	0.978318	-0.383766	0.660098
H92	H	0.465084	-0.490542	0.199774
O93	O	0.539679	-0.645761	0.385271
H94	H	0.573430	-0.692587	0.413062
H95	H	0.346379	-0.490512	0.199817
H96	H	0.832878	-0.627454	0.944935
H97	H	0.914603	-0.333903	0.743157
H98	H	0.548270	-0.383770	0.229585
H99	H	0.832868	-1.104867	0.374847
O100	O	0.895285	-0.702333	0.870524
H101	H	0.891822	-0.768173	0.836781
H102	H	0.465301	-0.521123	0.404585
O103	O	0.272060	-0.645627	0.385398
H104	H	0.238327	-0.692395	0.413231
O105	O	0.675634	-0.366035	0.218958
H106	H	0.641881	-0.319242	0.191149
H107	H	0.144633	-0.383631	0.229729
H108	H	0.896434	-0.677371	0.743165
