data_functionalizedCrystal
_audit_creation_method	'MofGen! by Chris Wilmer'
_symmetry_space_group_name_H-M	'P1'
_symmetry_Int_Tables_number	1
_symmetry_cell_setting	triclinic
loop_
_symmetry_equiv_pos_as_xyz
  x,y,z
_cell_length_a	16.992694
_cell_length_b	19.188930
_cell_length_c	15.455341
_cell_angle_alpha	87.005924
_cell_angle_beta	87.171364
_cell_angle_gamma	86.906503
loop_
_atom_site_label
_atom_site_type_symbol
_atom_site_fract_x
_atom_site_fract_y
_atom_site_fract_z
O1	O	1.036828	0.145124	0.072038
O2	O	0.808547	0.143499	0.072064
O3	O	0.929276	0.043042	0.072033
O4	O	0.916099	0.245580	0.072069
O5	O	0.935385	0.048834	-0.072227
O6	O	0.814656	0.149291	-0.072197
O7	O	1.042937	0.150916	-0.072223
Cu8	Cu	0.929354	0.150633	-0.085382
Cu9	Cu	0.922130	0.143782	0.085223
O10	O	0.922208	0.251373	-0.072192
C11	C	0.782396	0.144306	-0.000064
C12	C	0.695373	0.138072	-0.000055
C13	C	0.644926	0.198212	-0.000045
C14	C	0.563160	0.192351	-0.000058
C15	C	0.531842	0.126351	-0.000075
C16	C	0.582296	0.066208	-0.000087
C17	C	0.664061	0.072069	-0.000080
C18	C	0.288329	0.102060	-0.000102
C19	C	0.206558	0.096203	-0.000106
C20	C	0.187427	0.222347	-0.000079
C21	C	0.269194	0.228202	-0.000067
C22	C	0.319641	0.168059	-0.000084
N23	N	0.448264	0.120360	-0.000085
N24	N	0.403217	0.174052	-0.000079
C25	C	0.931904	0.019902	-0.000099
C26	C	0.930623	-0.057677	-0.000107
C27	C	1.001463	-0.098455	-0.000119
C28	C	1.000259	-0.171350	-0.000105
C29	C	0.928212	-0.203463	-0.000096
C30	C	0.857363	-0.162676	-0.000079
C31	C	0.858569	-0.089783	-0.000085
N32	N	0.875220	-0.312719	-0.049185
N33	N	0.874080	-0.381965	-0.049182
C34	C	0.924576	-0.423085	-0.000078
N35	N	0.976267	-0.392344	0.049011
N36	N	0.977410	-0.323092	0.049004
C37	C	0.926897	-0.282503	-0.000090
C38	C	0.994115	-0.542904	-0.000074
C39	C	0.992908	-0.615801	-0.000054
C40	C	0.850010	-0.607124	-0.000038
C41	C	0.851219	-0.534230	-0.000048
C42	C	0.923274	-0.502124	-0.000070
C43	C	1.069088	0.150109	-0.000093
C44	C	1.156111	0.156342	-0.000096
C45	C	0.919580	0.274513	-0.000057
C46	C	0.920860	0.352092	-0.000044
N47	N	0.934441	0.155451	-0.205377
C48	C	0.962523	0.182150	-0.749379
C49	C	0.958681	0.178502	-0.658572
C50	C	0.909368	0.131658	-0.613169
C51	C	0.863889	0.088464	-0.658578
C52	C	0.867727	0.092117	-0.749384
C53	C	0.892801	0.115910	-0.341591
C54	C	0.888967	0.112259	-0.250779
C55	C	0.983758	0.202298	-0.250779
C56	C	0.987596	0.205943	-0.341587
C57	C	0.942114	0.162753	-0.386988
N58	N	0.905441	0.127926	-0.520350
N59	N	0.946038	0.166489	-0.479806
N60	N	0.917049	0.138959	0.205218
H61	H	0.294686	0.281946	-0.000043
H62	H	0.855768	0.080739	-0.378546
H63	H	0.181063	0.042455	-0.000119
O64	O	1.040785	0.256470	-0.390552
H65	H	1.004820	0.293529	-0.431912
H66	H	1.052786	-0.516763	-0.000088
H67	H	0.146345	0.271312	-0.000067
H68	H	0.329394	0.053086	-0.000117
H69	H	0.556792	0.012469	-0.000113
H70	H	0.830696	0.056947	-0.786350
H71	H	0.670417	0.251956	-0.000031
O72	O	0.718472	0.007202	-0.000096
H73	H	0.780590	0.022365	-0.000100
H74	H	0.793534	-0.501027	-0.000043
O75	O	0.508746	0.257215	-0.000048
H76	H	0.544259	0.304093	-0.000025
H77	H	1.002682	0.220293	-0.786340
H78	H	0.800881	-0.056581	-0.000075
H79	H	1.057947	-0.204558	-0.000111
H80	H	1.060135	-0.072320	-0.000134
O81	O	1.069317	-0.659789	-0.000075
H82	H	1.119620	-0.625213	-0.000102
O83	O	0.779653	-0.197305	-0.000080
H84	H	0.790716	-0.254843	-0.000090
O85	O	0.772301	-0.641750	-0.000035
H86	H	0.765843	-0.677109	0.058762
O87	O	1.007724	0.225089	-0.609599
H88	H	1.042664	0.258271	-0.656426
H89	H	1.020786	0.237462	-0.213804
O90	O	0.835771	0.061738	-0.201803
H91	H	0.804783	0.032323	-0.248628
O92	O	0.810747	0.037898	-0.609615
H93	H	0.815739	0.042594	-0.538844
