data_functionalizedCrystal
_audit_creation_method	'MofGen! by Chris Wilmer'
_symmetry_space_group_name_H-M	'P1'
_symmetry_Int_Tables_number	1
_symmetry_cell_setting	triclinic
loop_
_symmetry_equiv_pos_as_xyz
  x,y,z
_cell_length_a	15.944551
_cell_length_b	12.837942
_cell_length_c	15.021413
_cell_angle_alpha	90.003212
_cell_angle_beta	90.002688
_cell_angle_gamma	90.836161
loop_
_atom_site_label
_atom_site_type_symbol
_atom_site_fract_x
_atom_site_fract_y
_atom_site_fract_z
O1	O	1.125223	-0.133685	0.073938
O2	O	0.881991	-0.150168	0.073960
O3	O	0.998214	0.008977	0.073944
O4	O	1.009000	-0.292830	0.073954
O5	O	0.998195	0.008959	-0.074120
O6	O	0.881973	-0.150186	-0.074104
O7	O	1.125204	-0.133702	-0.074126
Zn8	Zn	1.003586	-0.141947	-0.097624
Zn9	Zn	1.003610	-0.141924	0.097457
O10	O	1.008982	-0.292847	-0.074110
C11	C	0.850634	-0.149493	-0.000069
C12	C	0.757223	-0.147441	-0.000061
C13	C	0.994561	0.047589	-0.000087
C14	C	0.983693	0.162667	-0.000085
N15	N	1.003575	-0.141962	-0.230761
C16	C	0.534083	-0.043892	-0.000082
C17	C	0.476919	-0.091968	0.072923
C18	C	0.586201	-0.143730	-0.000072
C19	C	0.476925	-0.092009	-0.073056
C20	C	0.421001	-0.140137	-0.000086
C21	C	0.530267	-0.191833	0.072994
C22	C	0.530278	-0.191860	-0.073052
C23	C	0.473137	-0.240009	-0.000029
C24	C	0.681368	-0.145796	-0.000063
C25	C	0.325835	-0.138079	-0.000088
C26	C	1.156562	-0.134378	-0.000095
C27	C	1.249972	-0.136429	-0.000098
C28	C	1.012635	-0.331459	-0.000077
C29	C	1.023503	-0.446537	-0.000074
C30	C	1.114345	0.403616	-0.000078
C31	C	1.104138	0.511743	-0.000076
C32	C	0.953071	0.487048	-0.000071
C33	C	0.963278	0.378922	-0.000074
C34	C	1.043918	0.337210	-0.000078
C35	C	1.054125	0.229081	-0.000087
C36	C	0.903059	0.204389	-0.000076
C37	C	0.892851	0.312516	-0.000074
C38	C	0.950374	-0.216125	-0.529769
C39	C	0.925907	-0.122740	-0.470411
C40	C	1.003609	-0.141919	-0.587798
C41	C	1.028019	-0.235323	-0.470414
C42	C	1.003590	-0.141945	-0.412374
C43	C	0.979100	-0.048487	-0.529747
C44	C	1.081250	-0.161131	-0.529755
C45	C	1.056810	-0.067678	-0.470424
C46	C	1.003617	-0.141905	-0.688856
C47	C	1.003582	-0.141948	-0.311319
N48	N	1.003626	-0.141901	0.230595
H49	H	0.560788	0.038965	0.000006
H50	H	1.101818	-0.004867	-0.444533
C51	C	0.825584	0.131333	-0.000078
N52	N	0.767232	0.076306	-0.000081
C53	C	0.951089	0.058232	-0.564806
N54	N	0.929988	0.138610	-0.591214
C55	C	1.203048	0.357730	-0.000088
N56	N	1.269861	0.323171	-0.000095
C57	C	0.445191	-0.034910	0.156298
N58	N	0.421294	0.008073	0.219091
C59	C	0.804152	0.358412	-0.000079
N60	N	0.737342	0.392980	-0.000090
C61	C	0.561837	-0.248819	0.156471
N62	N	0.585617	-0.291735	0.219347
C63	C	0.889515	-0.300788	-0.564978
N64	N	0.843673	-0.364550	-0.591500
C65	C	0.837194	-0.100794	-0.435190
N66	N	0.770374	-0.084271	-0.408664
H67	H	1.161487	0.565807	-0.000073
H68	H	0.453452	-0.049770	-0.134774
C69	C	0.562032	-0.248865	-0.156435
N70	N	0.585952	-0.291793	-0.219246
H71	H	0.446613	-0.322951	0.000015
C72	C	1.055925	-0.342020	-0.435208
N73	N	1.076939	-0.422388	-0.408695
C74	C	1.142829	0.183200	-0.000090
N75	N	1.209644	0.148646	-0.000087
C76	C	0.864374	0.532952	-0.000075
N77	N	0.797566	0.567527	-0.000083
C78	C	1.169938	-0.183124	-0.565010
N79	N	1.236738	-0.199703	-0.591567
