data_functionalizedCrystal
_audit_creation_method	'MofGen! by Chris Wilmer'
_symmetry_space_group_name_H-M	'P1'
_symmetry_Int_Tables_number	1
_symmetry_cell_setting	triclinic
loop_
_symmetry_equiv_pos_as_xyz
  x,y,z
_cell_length_a	10.654541
_cell_length_b	17.699097
_cell_length_c	16.776229
_cell_angle_alpha	89.989262
_cell_angle_beta	89.993604
_cell_angle_gamma	83.886179
loop_
_atom_site_label
_atom_site_type_symbol
_atom_site_fract_x
_atom_site_fract_y
_atom_site_fract_z
O1	O	0.158888	1.005081	-0.066354
O2	O	0.658888	1.505081	0.433646
O3	O	0.179532	0.784836	-0.066341
O4	O	0.679532	1.284836	0.433659
O5	O	-0.013617	0.900023	-0.066343
O6	O	0.486383	1.400023	0.433657
O7	O	0.352038	0.889894	-0.066352
O8	O	0.852038	1.389894	0.433648
O9	O	-0.013629	0.900008	0.066233
O10	O	0.486371	1.400008	0.566233
O11	O	0.179520	0.784820	0.066235
O12	O	0.679520	1.284820	0.566235
O13	O	0.158877	1.005066	0.066222
O14	O	0.658877	1.505066	0.566222
Zn15	Zn	0.169197	0.894941	0.087278
Zn16	Zn	0.669197	1.394941	0.587278
Zn17	Zn	0.169212	0.894961	-0.087397
Zn18	Zn	0.669212	1.394961	0.412603
O19	O	0.352026	0.889878	0.066224
O20	O	0.852026	1.389878	0.566224
C21	C	0.178784	0.756626	-0.000051
C22	C	0.678784	1.256626	0.499949
C23	C	0.176556	0.672595	-0.000046
C24	C	0.676556	1.172595	0.499954
C25	C	0.162908	0.156798	-0.072346
C26	C	0.662908	0.656798	0.427654
C27	C	0.164993	0.235755	-0.072342
C28	C	0.664993	0.735755	0.427658
C29	C	0.166031	0.275220	-0.000071
C30	C	0.666031	0.775220	0.499929
C31	C	0.164971	0.235723	0.072201
C32	C	0.664971	0.735723	0.572201
C33	C	0.162878	0.156768	0.072196
C34	C	0.662878	0.656768	0.572196
C35	C	0.173412	0.554141	0.072221
C36	C	0.673412	1.054141	0.572221
C37	C	0.175510	0.633101	0.072221
C38	C	0.675510	1.133101	0.572221
C39	C	0.175527	0.633128	-0.072316
C40	C	0.675527	1.133128	0.427684
C41	C	0.173434	0.554173	-0.072321
C42	C	0.673434	1.054173	0.427679
C43	C	0.172368	0.514684	-0.000050
C44	C	0.672368	1.014684	0.499950
C45	C	0.170105	0.429070	-0.000055
C46	C	0.670105	0.929070	0.499945
C47	C	0.168302	0.360832	-0.000065
C48	C	0.668302	0.860832	0.499935
C49	C	-0.060408	0.899272	-0.000055
C50	C	0.439592	1.399272	0.499945
C51	C	-0.199813	0.897048	-0.000056
C52	C	0.300187	1.397048	0.499944
C53	C	-0.230184	1.034786	-0.000054
C54	C	0.269816	1.534786	0.499946
C55	C	-0.310860	1.102607	-0.000052
C56	C	0.189140	1.602607	0.499948
C57	C	-0.441842	1.100513	-0.000054
C58	C	0.058158	1.600513	0.499946
C59	C	-0.492149	1.030590	-0.000062
C60	C	0.007851	1.530590	0.499938
C61	C	-0.411473	0.962769	-0.000064
C62	C	0.088527	1.462769	0.499936
C63	C	-0.280490	0.964871	-0.000060
C64	C	0.219510	1.464871	0.499940
C65	C	-0.381102	0.825032	-0.000072
C66	C	0.118898	1.325032	0.499928
C67	C	-0.250120	0.827125	-0.000064
C68	C	0.249880	1.327125	0.499936
C69	C	-0.431409	0.755109	-0.000079
C70	C	0.068591	1.255109	0.499921
C71	C	-0.350732	0.687287	-0.000076
C72	C	0.149268	1.187287	0.499924
C73	C	-0.219743	0.689384	-0.000073
C74	C	0.280257	1.189384	0.499927
C75	C	-0.169444	0.759304	-0.000067
C76	C	0.330556	1.259304	0.499933
C77	C	0.398817	0.890629	-0.000065
C78	C	0.898817	1.390629	0.499935
C79	C	0.538222	0.892853	-0.000069
C80	C	1.038222	1.392853	0.499931
N81	N	0.169185	0.894932	0.206489
N82	N	0.669185	1.394932	0.706489
C83	C	0.159625	1.033275	-0.000069
C84	C	0.659625	1.533275	0.499931
C85	C	0.161853	1.117307	-0.000080
C86	C	0.661853	1.617307	0.499920
N87	N	0.169214	0.894975	-0.206608
N88	N	0.669214	1.394975	0.293392
C89	C	0.083693	0.945953	0.248206
C90	C	0.583693	1.445953	0.748206
C91	C	0.083692	0.945957	0.331658
C92	C	0.583692	1.445957	0.831658
C93	C	0.169190	0.894944	0.373392
C94	C	0.669190	1.394944	0.873392
C95	C	0.254686	0.843917	0.331670
C96	C	0.754686	1.343917	0.831670
C97	C	0.254680	0.843910	0.248220
C98	C	0.754680	1.343910	0.748220
C99	C	0.254711	0.843945	0.668217
C100	C	0.754711	1.343945	1.168217
C101	C	0.254712	0.843957	0.751674
C102	C	0.754712	1.343957	1.251674
C103	C	0.083723	0.945992	0.751656
C104	C	0.583723	1.445992	1.251656
C105	C	0.083717	0.945985	0.668205
C106	C	0.583717	1.445985	1.168205
C107	C	0.169208	0.894956	0.626490
C108	C	0.669208	1.394956	1.126490
C109	C	0.169206	0.894951	0.536002
C110	C	0.669206	1.394951	1.036002
C111	C	0.169199	0.894952	0.463879
C112	C	0.669199	1.394952	0.963879
H113	H	0.176354	0.665231	0.131076
H114	H	0.676354	1.165231	0.631076
H115	H	-0.598802	1.028891	-0.000073
H116	H	-0.098802	1.528891	0.499927
H117	H	0.172526	0.522000	0.131069
H118	H	0.672526	1.022000	0.631069
C119	C	-0.530593	1.175111	-0.000054
C120	C	-0.030593	1.675111	0.499946
H121	H	-0.615803	1.163845	-0.000062
H122	H	-0.115803	1.663845	0.499938
H123	H	-0.515380	1.203746	0.046178
H124	H	-0.015380	1.703746	0.546178
H125	H	-0.515361	1.203759	-0.046292
H126	H	-0.015361	1.703759	0.453708
H127	H	0.324296	0.802377	0.365655
H128	H	0.824296	1.302377	0.865655
C129	C	-0.575484	0.752804	-0.000080
C130	C	-0.075484	1.252804	0.499920
H131	H	-0.616329	0.803209	-0.000069
H132	H	-0.116329	1.303209	0.499931
H133	H	-0.599504	0.726905	-0.046313
H134	H	-0.099504	1.226905	0.453687
H135	H	-0.599506	0.726884	0.046158
H136	H	-0.099506	1.226884	0.546158
H137	H	0.014101	0.987527	0.634227
H138	H	0.514101	1.487527	1.134227
H139	H	0.162031	0.124614	0.131042
H140	H	0.662031	0.624614	0.631042
H141	H	0.324322	0.802397	0.634260
H142	H	0.824322	1.302397	1.134260
C143	C	0.348726	0.787790	0.202332
C144	C	0.848726	1.287790	0.702332
H145	H	0.399655	0.757414	0.239138
H146	H	0.899655	1.257414	0.739138
H147	H	0.303612	0.756048	0.169791
H148	H	0.803612	1.256048	0.669791
H149	H	0.400950	0.815289	0.169765
H150	H	0.900950	1.315289	0.669765
C151	C	-0.255521	1.179517	-0.000040
C152	C	0.244479	1.679517	0.499960
H153	H	-0.165959	1.171054	-0.000031
H154	H	0.334041	1.671054	0.499969
H155	H	-0.283216	1.207483	-0.046270
H156	H	0.216784	1.707483	0.453730
H157	H	-0.283236	1.207456	0.046200
H158	H	0.216764	1.707456	0.546200
H159	H	-0.391704	0.630361	-0.000088
H160	H	0.108296	1.130361	0.499912
H161	H	0.014077	0.987498	0.214231
H162	H	0.514077	1.487498	0.714231
H163	H	0.165808	0.267862	0.131045
H164	H	0.665808	0.767862	0.631045
C165	C	-0.086108	1.037089	-0.000042
C166	C	0.413892	1.537089	0.499958
H167	H	-0.045266	0.986684	-0.000038
H168	H	0.454734	1.486684	0.499962
H169	H	-0.062067	1.063012	-0.046268
H170	H	0.437933	1.563012	0.453732
H171	H	-0.062105	1.062985	0.046202
H172	H	0.437895	1.562985	0.546202
C173	C	-0.131009	0.614779	-0.000076
C174	C	0.368991	1.114779	0.499924
H175	H	-0.179734	0.572841	-0.000076
H176	H	0.320266	1.072841	0.499924
H177	H	-0.079268	0.612743	-0.046305
H178	H	0.420732	1.112743	0.453695
H179	H	-0.079296	0.612722	0.046165
H180	H	0.420704	1.112722	0.546165
H181	H	-0.062794	0.761018	-0.000059
H182	H	0.437206	1.261018	0.499941
H183	H	0.172595	0.522045	-0.131171
H184	H	0.672595	1.022045	0.368829
H185	H	0.014078	0.987502	0.365623
H186	H	0.514078	1.487502	0.865623
C187	C	-0.010329	1.002116	0.797544
C188	C	0.489671	1.502116	1.297544
H189	H	0.001904	0.994811	0.853222
H190	H	0.501904	1.494811	1.353222
H191	H	0.003208	1.052695	0.783852
H192	H	0.503208	1.552695	1.283852
H193	H	-0.094130	0.993454	0.783875
H194	H	0.405870	1.493454	1.283875
C195	C	0.348741	0.787826	0.797581
C196	C	0.848741	1.287826	1.297581
H197	H	0.399643	0.757426	0.760786
H198	H	0.899643	1.257426	1.260786
H199	H	0.400976	0.815314	0.830126
H200	H	0.900976	1.315314	1.330126
H201	H	0.303598	0.756097	0.830144
H202	H	0.803598	1.256097	1.330144
H203	H	0.165845	0.267906	-0.131188
H204	H	0.665845	0.767906	0.368812
C205	C	0.161770	0.113391	-0.151842
C206	C	0.661770	0.613391	0.348158
H207	H	0.160384	0.060710	-0.141498
H208	H	0.660384	0.560710	0.358502
H209	H	0.088914	0.131724	-0.181536
H210	H	0.588914	0.631724	0.318464
H211	H	0.235329	0.120950	-0.181535
H212	H	0.735329	0.620950	0.318465
C213	C	0.176685	0.676569	-0.151814
C214	C	0.676685	1.176569	0.348186
H215	H	0.178066	0.729245	-0.141465
H216	H	0.678066	1.229245	0.358535
H217	H	0.249549	0.658249	-0.181509
H218	H	0.749549	1.158249	0.318491
H219	H	0.103134	0.669021	-0.181507
H220	H	0.603134	1.169021	0.318493
