data_functionalizedCrystal
_audit_creation_method	'MofGen! by Chris Wilmer'
_symmetry_space_group_name_H-M	'P1'
_symmetry_Int_Tables_number	1
_symmetry_cell_setting	triclinic
loop_
_symmetry_equiv_pos_as_xyz
  x,y,z
_cell_length_a	19.805407
_cell_length_b	12.645330
_cell_length_c	19.805399
_cell_angle_alpha	89.978279
_cell_angle_beta	89.980427
_cell_angle_gamma	90.017692
loop_
_atom_site_label
_atom_site_type_symbol
_atom_site_fract_x
_atom_site_fract_y
_atom_site_fract_z
Zn1	Zn	1.034777	-0.422064	-0.382747
Zn2	Zn	1.034709	-0.599342	-0.269571
Zn3	Zn	0.921591	-0.422093	-0.269572
Zn4	Zn	0.921572	-0.599286	-0.382717
O5	O	0.978162	-0.510696	-0.326152
O6	O	1.129484	-0.445592	-0.367746
O7	O	1.019683	-0.575865	-0.174854
O8	O	0.936642	-0.273742	-0.284598
O9	O	1.129434	-0.575837	-0.284596
O10	O	1.019799	-0.273721	-0.367747
O11	O	0.936576	-0.445641	-0.174855
O12	O	0.826872	-0.445587	-0.284569
O13	O	0.936609	-0.575741	-0.477438
O14	O	0.826858	-0.575769	-0.367696
O15	O	1.019780	-0.445537	-0.477460
O16	O	1.019664	-0.747682	-0.284567
O17	O	0.936543	-0.747641	-0.367695
C18	C	0.802306	-0.510676	-0.326130
C19	C	0.727074	-0.510693	-0.326137
C20	C	0.978113	-0.786126	-0.326142
C21	C	0.978154	-0.903956	-0.326161
C22	C	0.691740	-0.578581	-0.369351
C23	C	0.621052	-0.578583	-0.369361
C24	C	0.585699	-0.510701	-0.326152
C25	C	0.621037	-0.442805	-0.282935
C26	C	0.691725	-0.442799	-0.282930
C27	C	0.335964	-0.442829	-0.282958
C28	C	0.265272	-0.442843	-0.282965
C29	C	0.265292	-0.578613	-0.369388
C30	C	0.335979	-0.578606	-0.369383
C31	C	0.371311	-0.510707	-0.326169
C32	C	0.447960	-0.510705	-0.326160
C33	C	0.509051	-0.510708	-0.326157
C34	C	0.926078	-1.071538	-0.378618
C35	C	0.925811	-0.948979	-0.378450
C36	C	0.958847	-0.948544	-0.254828
C37	C	0.958530	-1.071142	-0.255147
C38	C	1.049854	-1.071047	-0.344457
C39	C	1.049415	-0.948440	-0.346017
C40	C	1.154705	-0.510717	-0.326174
C41	C	1.229937	-0.510726	-0.326184
C42	C	0.978200	-0.510629	-0.502695
C43	C	0.978216	-0.510601	-0.577927
C44	C	0.978230	-0.234191	-0.326176
C45	C	0.978259	-0.116361	-0.326186
C46	C	1.021524	-0.442800	-0.613283
C47	C	1.021531	-0.442770	-0.683972
C48	C	0.978233	-0.510546	-0.719302
C49	C	0.934920	-0.578349	-0.683941
C50	C	0.934910	-0.578374	-0.613253
C51	C	0.934958	-0.578250	-0.969014
C52	C	0.934973	-0.578223	-1.039706
C53	C	1.021579	-0.442646	-1.039732
C54	C	1.021570	-0.442671	-0.969045
C55	C	0.978255	-0.510470	-0.933690
C56	C	0.978247	-0.510501	-0.857041
C57	C	0.978244	-0.510521	-0.795949
C58	C	0.978163	-0.510686	-0.150296
C59	C	0.978278	-0.510416	-0.075064
H60	H	0.592286	-0.633865	-0.404549
H61	H	0.236489	-0.387559	-0.247779
H62	H	0.899638	-0.633574	-0.584467
C63	C	0.730626	-0.653253	-0.416882
C64	C	0.720883	-0.773756	-0.411232
C65	C	0.759767	-0.848428	-0.458767
C66	C	0.808394	-0.802597	-0.511951
C67	C	0.818139	-0.682088	-0.517603
C68	C	0.779255	-0.607416	-0.470068
H69	H	0.684885	-0.807689	-0.371860
H70	H	0.752553	-0.937637	-0.454582
H71	H	0.837178	-0.857873	-0.547139
H72	H	0.854137	-0.648155	-0.556975
H73	H	0.786469	-0.518207	-0.474253
H74	H	0.937890	-0.918829	-0.431342
C75	C	0.942243	-1.111267	-0.450311
C76	C	1.003022	-1.184899	-0.462127
C77	C	1.019191	-1.224630	-0.533823
C78	C	0.974582	-1.190729	-0.593703
C79	C	0.913799	-1.117093	-0.581889
C80	C	0.897630	-1.077362	-0.510193
H81	H	1.036048	-1.209998	-0.417799
H82	H	1.064187	-1.279141	-0.542568
H83	H	0.986551	-1.220141	-0.646776
H84	H	0.880773	-1.091994	-0.626217
H85	H	0.852634	-1.022851	-0.501448
C86	C	0.374867	-0.653274	-0.416915
C87	C	0.336001	-0.727946	-0.464455
C88	C	0.374888	-0.802612	-0.511991
C89	C	0.452641	-0.802605	-0.511986
C90	C	0.491511	-0.727931	-0.464444
C91	C	0.452624	-0.653265	-0.416908
H92	H	0.278439	-0.727954	-0.464460
H93	H	0.346113	-0.857891	-0.547185
H94	H	0.481427	-0.857877	-0.547175
H95	H	0.549072	-0.727923	-0.464439
H96	H	0.481399	-0.597986	-0.381714
H97	H	0.899699	-0.633472	-0.940236
C98	C	0.374824	-0.368173	-0.235404
C99	C	0.335934	-0.293530	-0.187862
C100	C	0.374798	-0.218882	-0.140298
C101	C	0.452551	-0.218877	-0.140277
C102	C	0.491445	-0.293523	-0.187821
C103	C	0.452581	-0.368171	-0.235385
H104	H	0.278373	-0.293531	-0.187877
H105	H	0.346005	-0.163624	-0.105103
H106	H	0.481320	-0.163618	-0.105067
H107	H	0.549006	-0.293522	-0.187806
H108	H	0.481374	-0.423428	-0.270580
H109	H	0.236515	-0.633895	-0.404578
H110	H	1.063974	-0.919294	-0.398514
H111	H	1.056785	-0.387612	-0.584522
H112	H	0.592247	-0.387530	-0.247757
H113	H	1.056830	-0.387484	-0.940283
H114	H	0.720492	-0.387512	-0.247744
H115	H	0.899712	-0.633416	-1.068470
C116	C	0.854820	-1.113279	-0.362481
C117	C	0.843853	-1.187814	-0.301954
C118	C	0.772597	-1.229559	-0.285816
C119	C	0.712306	-1.196770	-0.330206
C120	C	0.723271	-1.122231	-0.390737
C121	C	0.794527	-1.080485	-0.406874
H122	H	0.888486	-1.212090	-0.269091
H123	H	0.764480	-1.284738	-0.241007
H124	H	0.659558	-1.227673	-0.318260
H125	H	0.678638	-1.097954	-0.423600
H126	H	0.802644	-1.025306	-0.451684
H127	H	1.056846	-0.387437	-1.068527
H128	H	0.899664	-0.633530	-0.712712
H129	H	1.056799	-0.387562	-0.712756
C130	C	0.854109	-0.909472	-0.362094
C131	C	0.796915	-0.989477	-0.349141
C132	C	0.725209	-0.949971	-0.332784
C133	C	0.710699	-0.830459	-0.329379
C134	C	0.767895	-0.750446	-0.342331
C135	C	0.839601	-0.789953	-0.358689
H136	H	0.807655	-1.077953	-0.351662
H137	H	0.682869	-1.009202	-0.323195
H138	H	0.657619	-0.801214	-0.317270
H139	H	0.757155	-0.661970	-0.339811
H140	H	0.881941	-0.730721	-0.368278
C141	C	1.007628	-1.111212	-0.200560
C142	C	1.047000	-1.031653	-0.156816
C143	C	1.096089	-1.071717	-0.102223
C144	C	1.105808	-1.191341	-0.091374
C145	C	1.066435	-1.270908	-0.135119
C146	C	1.017346	-1.230844	-0.189712
H147	H	1.039806	-0.943094	-0.164847
H148	H	1.125235	-1.012816	-0.069841
H149	H	1.142147	-1.220999	-0.050961
H150	H	1.073629	-1.359467	-0.127089
H151	H	0.988200	-1.289745	-0.222094
C152	C	1.008558	-0.909147	-0.200606
C153	C	0.982593	-0.843341	-0.140568
C154	C	1.032304	-0.803941	-0.086347
C155	C	1.107980	-0.830346	-0.092163
C156	C	1.133949	-0.896156	-0.152203
C157	C	1.084238	-0.935556	-0.206425
H158	H	0.926569	-0.823791	-0.136260
H159	H	1.013079	-0.755224	-0.041901
H160	H	1.144779	-0.801180	-0.052025
H161	H	1.189973	-0.915706	-0.156511
H162	H	1.103462	-0.984272	-0.250870
C163	C	0.888878	-0.907204	-0.233539
C164	C	0.876655	-0.787439	-0.226615
C165	C	0.806684	-0.746102	-0.205330
C166	C	0.748937	-0.824530	-0.190970
C167	C	0.761158	-0.944303	-0.197894
C168	C	0.831129	-0.985640	-0.219179
H169	H	0.919404	-0.729376	-0.237245
H170	H	0.797637	-0.657439	-0.200204
H171	H	0.697140	-0.793930	-0.175214
H172	H	0.718409	-1.002367	-0.187264
H173	H	0.840176	-1.074304	-0.224305
H174	H	0.906193	-1.099832	-0.239669
C175	C	1.104697	-0.907116	-0.298146
C176	C	1.086017	-0.831914	-0.239929
C177	C	1.141292	-0.790630	-0.192033
C178	C	1.215248	-0.824548	-0.202354
C179	C	1.233931	-0.899754	-0.260574
C180	C	1.178656	-0.941038	-0.308470
H181	H	1.031267	-0.806803	-0.232287
H182	H	1.127461	-0.734957	-0.148935
H183	H	1.256166	-0.793987	-0.166899
H184	H	1.288680	-0.924866	-0.268216
H185	H	1.192487	-0.996711	-0.351568
C186	C	1.073650	-1.112709	-0.413534
C187	C	1.139243	-1.177555	-0.418761
C188	C	1.163030	-1.219217	-0.487841
C189	C	1.121224	-1.196033	-0.551694
C190	C	1.055627	-1.131184	-0.546470
C191	C	1.031840	-1.089522	-0.477390
H192	H	1.170194	-1.194720	-0.371491
H193	H	1.211589	-1.267223	-0.491708
H194	H	1.138833	-1.226874	-0.602831
H195	H	1.024676	-1.114019	-0.593739
H196	H	0.983281	-1.041516	-0.473522
H197	H	1.088731	-1.100032	-0.306269
