data_functionalizedCrystal
_audit_creation_method	'MofGen! by Chris Wilmer'
_symmetry_space_group_name_H-M	'P1'
_symmetry_Int_Tables_number	1
_symmetry_cell_setting	triclinic
loop_
_symmetry_equiv_pos_as_xyz
  x,y,z
_cell_length_a	18.215407
_cell_length_b	19.805405
_cell_length_c	19.805399
_cell_angle_alpha	89.970699
_cell_angle_beta	89.981228
_cell_angle_gamma	90.026858
loop_
_atom_site_label
_atom_site_type_symbol
_atom_site_fract_x
_atom_site_fract_y
_atom_site_fract_z
Zn1	Zn	1.125056	-0.269471	-0.382697
Zn2	Zn	1.625056	0.230529	0.117303
Zn3	Zn	1.124964	-0.382659	-0.269505
Zn4	Zn	1.624964	0.117341	0.230495
Zn5	Zn	1.001991	-0.269490	-0.269523
Zn6	Zn	1.501991	0.230510	0.230477
Zn7	Zn	1.001952	-0.382624	-0.382654
Zn8	Zn	1.501952	0.117376	0.117346
O9	O	1.063491	-0.326061	-0.326095
O10	O	1.563491	0.173939	0.173905
O11	O	1.228028	-0.284492	-0.367693
O12	O	1.728028	0.215508	0.132307
O13	O	1.108629	-0.367670	-0.174791
O14	O	1.608629	0.132330	0.325209
O15	O	1.018371	-0.174771	-0.284562
O16	O	1.518371	0.325229	0.215438
O17	O	1.227960	-0.367651	-0.284531
O18	O	1.727960	0.132349	0.215469
O19	O	1.108787	-0.174757	-0.367710
O20	O	1.608787	0.325243	0.132290
O21	O	1.018282	-0.284525	-0.174804
O22	O	1.518282	0.215475	0.325196
O23	O	0.899002	-0.284491	-0.284520
O24	O	1.399002	0.215509	0.215480
O25	O	1.018304	-0.367591	-0.477376
O26	O	1.518304	0.132409	0.022624
O27	O	0.898973	-0.367610	-0.367636
O28	O	1.398973	0.132390	0.132364
O29	O	1.108748	-0.284458	-0.477408
O30	O	1.608748	0.215542	0.022592
O31	O	1.108591	-0.477371	-0.284489
O32	O	1.608591	0.022629	0.215511
O33	O	1.018214	-0.477345	-0.367619
O34	O	1.518214	0.022655	0.132381
C35	C	0.872285	-0.326050	-0.326075
C36	C	1.372285	0.173950	0.173925
C37	C	0.790486	-0.326061	-0.326083
C38	C	1.290486	0.173939	0.173917
C39	C	0.602296	-0.369409	-0.369308
C40	C	1.102296	0.130591	0.130692
C41	C	0.525437	-0.369411	-0.369316
C42	C	1.025437	0.130589	0.130684
C43	C	0.525438	-0.282726	-0.282897
C44	C	1.025438	0.217274	0.217103
C45	C	0.602295	-0.282721	-0.282892
C46	C	1.102295	0.217279	0.217108
C47	C	0.640722	-0.326066	-0.326097
C48	C	1.140722	0.173934	0.173903
C49	C	0.487006	-0.326073	-0.326110
C50	C	0.987006	0.173927	0.173890
C51	C	0.403672	-0.326075	-0.326119
C52	C	0.903672	0.173925	0.173881
C53	C	0.724061	-0.326063	-0.326089
C54	C	1.224061	0.173937	0.173911
C55	C	1.063408	-0.501917	-0.326062
C56	C	1.563408	-0.001917	0.173938
C57	C	1.063440	-0.577149	-0.326071
C58	C	1.563440	-0.077149	0.173929
C59	C	1.110545	-0.612484	-0.282831
C60	C	1.610545	-0.112484	0.217169
C61	C	1.110576	-0.683173	-0.282845
C62	C	1.610576	-0.183173	0.217155
C63	C	1.063498	-0.718525	-0.326098
C64	C	1.563498	-0.218525	0.173902
C65	C	1.016391	-0.683185	-0.369343
C66	C	1.516391	-0.183185	0.130657
C67	C	1.016364	-0.612497	-0.369331
C68	C	1.516364	-0.112497	0.130669
C69	C	1.016500	-0.968258	-0.369393
C70	C	1.516500	-0.468258	0.130607
C71	C	1.016529	-1.038950	-0.369400
C72	C	1.516529	-0.538950	0.130600
C73	C	1.110711	-1.038933	-0.282908
C74	C	1.610711	-0.538933	0.217092
C75	C	1.110684	-0.968246	-0.282896
C76	C	1.610684	-0.468246	0.217104
C77	C	1.063581	-0.932912	-0.326143
C78	C	1.563581	-0.432912	0.173857
C79	C	1.063548	-0.856264	-0.326127
C80	C	1.563548	-0.356264	0.173873
C81	C	1.063526	-0.795172	-0.326111
C82	C	1.563526	-0.295172	0.173889
C83	C	1.255444	-0.326073	-0.326115
C84	C	1.755444	0.173927	0.173885
C85	C	1.337243	-0.326078	-0.326123
C86	C	1.837243	0.173922	0.173877
C87	C	1.063532	-0.326018	-0.502638
C88	C	1.563532	0.173982	-0.002638
C89	C	1.063550	-0.326000	-0.577870
C90	C	1.563550	0.174000	-0.077870
C91	C	1.063594	-0.149518	-0.326143
C92	C	1.563594	0.350482	0.173857
C93	C	1.063638	-0.074286	-0.326163
C94	C	1.563638	0.425714	0.173837
C95	C	1.110645	-0.282711	-0.613232
C96	C	1.610645	0.217289	-0.113232
C97	C	1.110653	-0.282691	-0.683920
C98	C	1.610653	0.217309	-0.183920
C99	C	1.063568	-0.325965	-0.719245
C100	C	1.563568	0.174035	-0.219245
C101	C	1.016467	-0.369256	-0.683879
C102	C	1.516467	0.130744	-0.183879
C103	C	1.016456	-0.369272	-0.613191
C104	C	1.516456	0.130728	-0.113191
C105	C	1.016509	-0.369193	-0.968952
C106	C	1.516509	0.130807	-0.468952
C107	C	1.016525	-0.369176	-1.039644
C108	C	1.516525	0.130824	-0.539644
C109	C	1.110705	-0.282612	-1.039681
C110	C	1.610705	0.217388	-0.539681
C111	C	1.110694	-0.282628	-0.968993
C112	C	1.610694	0.217372	-0.468993
C113	C	1.063591	-0.325917	-0.933633
C114	C	1.563591	0.174083	-0.433633
C115	C	1.063583	-0.325937	-0.856984
C116	C	1.563583	0.174063	-0.356984
C117	C	1.063580	-0.325949	-0.795893
C118	C	1.563580	0.174051	-0.295893
C119	C	1.063492	-0.326055	-0.150239
C120	C	1.563492	0.173945	0.349761
C121	C	1.063617	-0.325882	-0.075007
C122	C	1.563617	0.174118	0.424993
H123	H	1.148878	-0.583705	-0.247607
H124	H	1.648878	-0.083705	0.252393
C125	C	0.483166	-0.235057	-0.235369
C126	C	0.983166	0.264943	0.264631
H127	H	0.431889	-0.241272	-0.241554
H128	H	0.931889	0.258728	0.258446
H129	H	0.495783	-0.189590	-0.245351
H130	H	0.995783	0.310410	0.254649
H131	H	0.495741	-0.244912	-0.189872
H132	H	0.995741	0.255088	0.310128
H133	H	1.149017	-0.939464	-0.247673
H134	H	1.649017	-0.439464	0.252327
H135	H	0.494154	-0.404704	-0.404504
H136	H	0.994154	0.095296	0.095496
C137	C	1.162531	-1.077802	-0.235340
C138	C	1.662531	-0.577802	0.264660
H139	H	1.155812	-1.124964	-0.241544
H140	H	1.655812	-0.624964	0.258456
H141	H	1.151782	-1.066256	-0.189853
H142	H	1.651782	-0.566256	0.310147
H143	H	1.211969	-1.066171	-0.245288
H144	H	1.711969	-0.566171	0.254712
H145	H	0.978063	-0.711974	-0.404563
H146	H	1.478063	-0.211974	0.095437
C147	C	0.964747	-1.077836	-0.416986
C148	C	1.464747	-0.577836	0.083014
H149	H	0.936695	-1.046669	-0.442746
H150	H	1.436695	-0.546669	0.057254
H151	H	0.932707	-1.105454	-0.391075
H152	H	1.432707	-0.605454	0.108925
H153	H	0.992902	-1.105369	-0.446503
H154	H	1.492902	-0.605369	0.053497
C155	C	0.644563	-0.417080	-0.416836
C156	C	1.144563	0.082920	0.083164
H157	H	0.610667	-0.442889	-0.442577
H158	H	1.110667	0.057111	0.057423
H159	H	0.674523	-0.446538	-0.390894
H160	H	1.174523	0.053462	0.109106
H161	H	0.674567	-0.391218	-0.446374
H162	H	1.174567	0.108782	0.053626
C163	C	1.162388	-0.722038	-0.235278
C164	C	1.662388	-0.222038	0.264722
H165	H	1.190414	-0.690860	-0.209511
H166	H	1.690414	-0.190860	0.290489
H167	H	1.194450	-0.749571	-0.261198
H168	H	1.694450	-0.249571	0.238802
H169	H	1.134259	-0.749654	-0.205767
H170	H	1.634259	-0.249654	0.294233
C171	C	0.964670	-0.416907	-0.574293
C172	C	1.464670	0.083093	-0.074293
H173	H	0.936638	-0.442687	-0.605455
H174	H	1.436638	0.057313	-0.105455
H175	H	0.932610	-0.391034	-0.546712
H176	H	1.432610	0.108966	-0.046712
H177	H	0.992819	-0.446404	-0.546723
H178	H	1.492819	0.053596	-0.046723
C179	C	0.964675	-0.929399	-0.416951
C180	C	1.464675	-0.429399	0.083049
H181	H	0.936635	-0.960580	-0.442703
H182	H	1.436635	-0.460580	0.057297
H183	H	0.992787	-0.901780	-0.446466
H184	H	1.492787	-0.401780	0.053534
H185	H	0.932615	-0.901870	-0.391018
H186	H	1.432615	-0.401870	0.108982
H187	H	0.633583	-0.247421	-0.247705
H188	H	1.133583	0.252579	0.252295
H189	H	0.978008	-0.583728	-0.404542
H190	H	1.478008	-0.083728	0.095458
C191	C	1.162436	-0.235105	-0.574380
C192	C	1.662436	0.264895	-0.074380
H193	H	1.190479	-0.209316	-0.605567
H194	H	1.690479	0.290684	-0.105567
H195	H	1.194484	-0.261000	-0.546800
H196	H	1.694484	0.239000	-0.046800
H197	H	1.134289	-0.205617	-0.546811
H198	H	1.634289	0.294383	-0.046811
H199	H	1.149004	-0.247442	-0.712708
H200	H	1.649004	0.252558	-0.212708
C201	C	1.162485	-0.235027	-0.930136
C202	C	1.662485	0.264973	-0.430136
H203	H	1.155737	-0.241240	-0.882973
H204	H	1.655737	0.258760	-0.382973
H205	H	1.151743	-0.189547	-0.941732
H206	H	1.651743	0.310453	-0.441732
H207	H	1.211931	-0.244936	-0.941725
H208	H	1.711931	0.255064	-0.441725
C209	C	1.162513	-0.234990	-1.078579
C210	C	1.662513	0.265010	-0.578579
H211	H	1.155774	-0.241171	-1.125737
H212	H	1.655774	0.258829	-0.625737
H213	H	1.211952	-0.244904	-1.067000
H214	H	1.711952	0.255096	-0.567000
H215	H	1.151766	-0.189512	-1.067003
H216	H	1.651766	0.310488	-0.567003
C217	C	0.964724	-0.416774	-1.078501
C218	C	1.464724	0.083226	-0.578501
H219	H	0.936663	-0.442553	-1.047318
H220	H	1.436663	0.057447	-0.547318
H221	H	0.992859	-0.446263	-1.106073
H222	H	1.492859	0.053737	-0.606073
H223	H	0.932681	-0.390865	-1.106078
H224	H	1.432681	0.109135	-0.606078
C225	C	0.964683	-0.416795	-0.930064
C226	C	1.464683	0.083205	-0.430064
H227	H	0.936644	-0.442563	-0.961229
H228	H	1.436644	0.057437	-0.461229
H229	H	0.932633	-0.390892	-0.902501
H230	H	1.432633	0.109108	-0.402501
H231	H	0.992797	-0.446304	-0.902476
H232	H	1.492797	0.053696	-0.402476
C233	C	0.964676	-0.416858	-0.722735
C234	C	1.464676	0.083142	-0.222735
H235	H	0.971432	-0.410654	-0.769898
H236	H	1.471432	0.089346	-0.269898
H237	H	0.915232	-0.406953	-0.711146
H238	H	1.415232	0.093047	-0.211146
H239	H	0.975423	-0.462340	-0.711137
H240	H	1.475423	0.037660	-0.211137
