data_functionalizedCrystal
_audit_creation_method	'MofGen! by Chris Wilmer'
_symmetry_space_group_name_H-M	'P1'
_symmetry_Int_Tables_number	1
_symmetry_cell_setting	triclinic
loop_
_symmetry_equiv_pos_as_xyz
  x,y,z
_cell_length_a	16.625547
_cell_length_b	16.625545
_cell_length_c	21.395356
_cell_angle_alpha	89.974643
_cell_angle_beta	89.972180
_cell_angle_gamma	90.025495
loop_
_atom_site_label
_atom_site_type_symbol
_atom_site_fract_x
_atom_site_fract_y
_atom_site_fract_z
Zn1	Zn	1.232687	-0.321023	-0.354342
Zn2	Zn	1.482687	-0.071023	-0.104342
Zn3	Zn	1.732687	0.178977	0.145658
Zn4	Zn	1.982687	0.428977	0.395658
Zn5	Zn	1.232576	-0.455860	-0.249569
Zn6	Zn	1.482576	-0.205860	0.000431
Zn7	Zn	1.732576	0.044140	0.250431
Zn8	Zn	1.982576	0.294140	0.500431
Zn9	Zn	1.097842	-0.321045	-0.249571
Zn10	Zn	1.347842	-0.071045	0.000429
Zn11	Zn	1.597842	0.178955	0.250429
Zn12	Zn	1.847842	0.428955	0.500429
Zn13	Zn	1.097812	-0.455818	-0.354301
Zn14	Zn	1.347812	-0.205818	-0.104301
Zn15	Zn	1.597812	0.044182	0.145699
Zn16	Zn	1.847812	0.294182	0.395699
O17	O	1.165229	-0.388436	-0.301946
O18	O	1.415229	-0.138436	-0.051946
O19	O	1.665229	0.111564	0.198054
O20	O	1.915229	0.361564	0.448054
O21	O	1.345505	-0.338918	-0.340460
O22	O	1.595505	-0.088918	-0.090460
O23	O	1.845505	0.161082	0.159540
O24	O	2.095505	0.411082	0.409540
O25	O	1.214669	-0.438003	-0.161891
O26	O	1.464669	-0.188003	0.088109
O27	O	1.714669	0.061997	0.338109
O28	O	1.964669	0.311997	0.588109
O29	O	1.115788	-0.208210	-0.263487
O30	O	1.365788	0.041790	-0.013487
O31	O	1.615788	0.291790	0.236513
O32	O	1.865788	0.541790	0.486513
O33	O	1.345423	-0.437982	-0.263484
O34	O	1.595423	-0.187982	-0.013484
O35	O	1.845423	0.062018	0.236516
O36	O	2.095423	0.312018	0.486516
O37	O	1.214859	-0.208194	-0.340462
O38	O	1.464859	0.041806	-0.090462
O39	O	1.714859	0.291806	0.159538
O40	O	1.964859	0.541806	0.409538
O41	O	1.115681	-0.338955	-0.161893
O42	O	1.365681	-0.088955	0.088107
O43	O	1.615681	0.161045	0.338107
O44	O	1.865681	0.411045	0.588107
O45	O	0.985005	-0.338914	-0.263448
O46	O	1.235005	-0.088914	-0.013448
O47	O	1.485005	0.161086	0.236552
O48	O	1.735005	0.411086	0.486552
O49	O	1.115737	-0.437910	-0.441985
O50	O	1.365737	-0.187910	-0.191985
O51	O	1.615737	0.062090	0.058015
O52	O	1.865737	0.312090	0.308015
O53	O	0.984984	-0.437931	-0.340393
O54	O	1.234984	-0.187931	-0.090393
O55	O	1.484984	0.062069	0.159607
O56	O	1.734984	0.312069	0.409607
O57	O	1.214830	-0.338877	-0.442015
O58	O	1.464830	-0.088877	-0.192015
O59	O	1.714830	0.161123	0.057985
O60	O	1.964830	0.411123	0.307985
O61	O	1.214640	-0.568687	-0.263444
O62	O	1.464640	-0.318687	-0.013444
O63	O	1.714640	-0.068687	0.236556
O64	O	1.964640	0.181313	0.486556
O65	O	1.115630	-0.568656	-0.340391
O66	O	1.365630	-0.318656	-0.090391
O67	O	1.615630	-0.068656	0.159609
O68	O	1.865630	0.181344	0.409609
C69	C	0.955738	-0.388421	-0.301916
C70	C	1.205738	-0.138421	-0.051916
C71	C	1.455738	0.111579	0.198084
C72	C	1.705738	0.361579	0.448084
C73	C	0.866117	-0.388434	-0.301919
C74	C	1.116117	-0.138434	-0.051919
C75	C	1.366117	0.111566	0.198081
C76	C	1.616117	0.361566	0.448081
C77	C	0.793335	-0.388435	-0.301926
C78	C	1.043335	-0.138435	-0.051926
C79	C	1.293335	0.111565	0.198074
C80	C	1.543335	0.361565	0.448074
C81	C	0.702026	-0.388439	-0.301942
C82	C	0.952026	-0.138439	-0.051942
C83	C	1.202026	0.111561	0.198058
C84	C	1.452026	0.361561	0.448058
C85	C	0.629250	-0.388447	-0.301958
C86	C	0.879250	-0.138447	-0.051958
C87	C	1.129250	0.111553	0.198042
C88	C	1.379250	0.361553	0.448042
C89	C	0.537936	-0.388452	-0.301973
C90	C	0.787936	-0.138452	-0.051973
C91	C	1.037936	0.111548	0.198027
C92	C	1.287936	0.361548	0.448027
C93	C	1.165142	-0.597927	-0.301926
C94	C	1.415142	-0.347927	-0.051926
C95	C	1.665142	-0.097927	0.198074
C96	C	1.915142	0.152073	0.448074
C97	C	1.165178	-0.687548	-0.301939
C98	C	1.415178	-0.437548	-0.051939
C99	C	1.665178	-0.187548	0.198061
C100	C	1.915178	0.062452	0.448061
C101	C	1.165209	-0.760331	-0.301951
C102	C	1.415209	-0.510331	-0.051951
C103	C	1.665209	-0.260331	0.198049
C104	C	1.915209	-0.010331	0.448049
C105	C	1.165256	-0.851639	-0.301965
C106	C	1.415256	-0.601639	-0.051965
C107	C	1.665256	-0.351639	0.198035
C108	C	1.915256	-0.101639	0.448035
C109	C	1.165298	-0.924416	-0.301973
C110	C	1.415298	-0.674416	-0.051973
C111	C	1.665298	-0.424416	0.198027
C112	C	1.915298	-0.174416	0.448027
C113	C	1.165344	-1.015730	-0.301986
C114	C	1.415344	-0.765730	-0.051986
C115	C	1.665344	-0.515730	0.198014
C116	C	1.915344	-0.265730	0.448014
C117	C	1.375538	-0.388453	-0.301976
C118	C	1.625538	-0.138453	-0.051976
C119	C	1.875538	0.111547	0.198024
C120	C	2.125538	0.361547	0.448024
C121	C	1.465159	-0.388460	-0.301989
C122	C	1.715159	-0.138460	-0.051989
C123	C	1.965159	0.111540	0.198011
C124	C	2.215159	0.361540	0.448011
C125	C	1.165293	-0.388387	-0.465369
C126	C	1.415293	-0.138387	-0.215369
C127	C	1.665293	0.111613	0.034631
C128	C	1.915293	0.361613	0.284631
C129	C	1.165320	-0.388365	-0.535011
C130	C	1.415320	-0.138365	-0.285011
C131	C	1.665320	0.111635	-0.035011
C132	C	1.915320	0.361635	0.214989
C133	C	1.165339	-0.178128	-0.301980
C134	C	1.415339	0.071872	-0.051980
C135	C	1.665339	0.321872	0.198020
C136	C	1.915339	0.571872	0.448020
C137	C	1.165386	-0.088506	-0.301994
C138	C	1.415386	0.161494	-0.051994
C139	C	1.665386	0.411494	0.198006
C140	C	1.915386	0.661494	0.448006
C141	C	1.113790	-0.336785	-0.567715
C142	C	1.363790	-0.086785	-0.317715
C143	C	1.613790	0.163215	-0.067715
C144	C	1.863790	0.413215	0.182285
C145	C	1.113787	-0.336770	-0.633150
C146	C	1.363787	-0.086770	-0.383150
C147	C	1.613787	0.163230	-0.133150
C148	C	1.863787	0.413230	0.116850
C149	C	1.165329	-0.388327	-0.665879
C150	C	1.415329	-0.138327	-0.415879
C151	C	1.665329	0.111673	-0.165879
C152	C	1.915329	0.361673	0.084121
C153	C	1.216862	-0.439917	-0.633167
C154	C	1.466862	-0.189917	-0.383167
C155	C	1.716862	0.060083	-0.133167
C156	C	1.966862	0.310083	0.116833
C157	C	1.216857	-0.439936	-0.567733
C158	C	1.466857	-0.189936	-0.317733
C159	C	1.716857	0.060064	-0.067733
C160	C	1.966857	0.310064	0.182267
C161	C	1.237977	-0.394666	-0.769570
C162	C	1.487977	-0.144666	-0.519570
C163	C	1.737977	0.105334	-0.269570
C164	C	1.987977	0.355334	-0.019570
C165	C	1.237983	-0.394641	-0.835003
C166	C	1.487983	-0.144641	-0.585003
C167	C	1.737983	0.105359	-0.335003
C168	C	1.987983	0.355359	-0.085003
C169	C	1.165342	-0.388272	-0.867700
C170	C	1.415342	-0.138272	-0.617700
C171	C	1.665342	0.111728	-0.367700
C172	C	1.915342	0.361728	-0.117700
C173	C	1.092693	-0.381911	-0.834956
C174	C	1.342693	-0.131911	-0.584956
C175	C	1.592693	0.118089	-0.334956
C176	C	1.842693	0.368089	-0.084956
C177	C	1.092688	-0.381931	-0.769522
C178	C	1.342688	-0.131931	-0.519522
C179	C	1.592688	0.118069	-0.269522
C180	C	1.842688	0.368069	-0.019522
C181	C	1.165339	-0.388312	-0.736831
C182	C	1.415339	-0.138312	-0.486831
C183	C	1.665339	0.111688	-0.236831
C184	C	1.915339	0.361688	0.013169
C185	C	1.113805	-0.336673	-0.971357
C186	C	1.363805	-0.086673	-0.721357
C187	C	1.613805	0.163327	-0.471357
C188	C	1.863805	0.413327	-0.221357
C189	C	1.113801	-0.336664	-1.036793
C190	C	1.363801	-0.086664	-0.786793
C191	C	1.613801	0.163336	-0.536793
C192	C	1.863801	0.413336	-0.286793
C193	C	1.216882	-0.439807	-1.036809
C194	C	1.466882	-0.189807	-0.786809
C195	C	1.716882	0.060193	-0.536809
C196	C	1.966882	0.310193	-0.286809
C197	C	1.216879	-0.439820	-0.971373
C198	C	1.466879	-0.189820	-0.721373
C199	C	1.716879	0.060180	-0.471373
C200	C	1.966879	0.310180	-0.221373
C201	C	1.165342	-0.388249	-0.938651
C202	C	1.415342	-0.138249	-0.688651
C203	C	1.665342	0.111751	-0.438651
C204	C	1.915342	0.361751	-0.188651
C205	C	1.165212	-0.388428	-0.139158
C206	C	1.415212	-0.138428	0.110842
C207	C	1.665212	0.111572	0.360842
C208	C	1.915212	0.361572	0.610842
C209	C	1.165342	-0.388222	-0.069518
C210	C	1.415342	-0.138222	0.180482
C211	C	1.665342	0.111778	0.430482
C212	C	1.915342	0.361778	0.680482
H213	H	1.071821	-0.294795	-0.541076
H214	H	1.321821	-0.044795	-0.291076
H215	H	1.571821	0.205205	-0.041076
H216	H	1.821821	0.455205	0.208924
H217	H	1.033535	-0.376753	-0.742864
H218	H	1.283535	-0.126753	-0.492864
H219	H	1.533535	0.123247	-0.242864
H220	H	1.783535	0.373247	0.007136
H221	H	1.071827	-0.294763	-0.659783
H222	H	1.321827	-0.044763	-0.409783
H223	H	1.571827	0.205237	-0.159783
H224	H	1.821827	0.455237	0.090217
H225	H	1.258822	-0.481938	-0.541105
H226	H	1.508822	-0.231938	-0.291105
H227	H	1.758822	0.018062	-0.041105
H228	H	2.008822	0.268062	0.208895
C229	C	1.012781	-0.374929	-0.870914
C230	C	1.262781	-0.124929	-0.620914
C231	C	1.512781	0.125071	-0.370914
C232	C	1.762781	0.375071	-0.120914
H233	H	1.023184	-0.375844	-0.914573
H234	H	1.273184	-0.125844	-0.664573
H235	H	1.523184	0.124156	-0.414573
H236	H	1.773184	0.374156	-0.164573
H237	H	0.987009	-0.325849	-0.860198
H238	H	1.237009	-0.075849	-0.610198
H239	H	1.487009	0.174151	-0.360198
H240	H	1.737009	0.424151	-0.110198
H241	H	0.978856	-0.418804	-0.860162
H242	H	1.228856	-0.168804	-0.610162
H243	H	1.478856	0.081196	-0.360162
H244	H	1.728856	0.331196	-0.110162
C245	C	1.057099	-0.279968	-0.935360
C246	C	1.307099	-0.029968	-0.685360
C247	C	1.557099	0.220032	-0.435360
C248	C	1.807099	0.470032	-0.185360
H249	H	1.026396	-0.249257	-0.964211
H250	H	1.276396	0.000743	-0.714211
H251	H	1.526396	0.250743	-0.464211
H252	H	1.776396	0.500743	-0.214211
H253	H	1.087948	-0.244840	-0.909847
H254	H	1.337948	0.005160	-0.659847
H255	H	1.587948	0.255160	-0.409847
H256	H	1.837948	0.505160	-0.159847
H257	H	1.021952	-0.310832	-0.909820
H258	H	1.271952	-0.060832	-0.659820
H259	H	1.521952	0.189168	-0.409820
H260	H	1.771952	0.439168	-0.159820
H261	H	1.071833	-0.294664	-1.063420
H262	H	1.321833	-0.044664	-0.813420
H263	H	1.571833	0.205336	-0.563420
H264	H	1.821833	0.455336	-0.313420
H265	H	1.297138	-0.399817	-0.861658
H266	H	1.547138	-0.149817	-0.611658
H267	H	1.797138	0.100183	-0.361658
H268	H	2.047138	0.350183	-0.111658
H269	H	1.258850	-0.481784	-1.063456
H270	H	1.508850	-0.231784	-0.813456
H271	H	1.758850	0.018216	-0.563456
H272	H	2.008850	0.268216	-0.313456
H273	H	1.297135	-0.399846	-0.742953
H274	H	1.547135	-0.149846	-0.492953
H275	H	1.797135	0.100154	-0.242953
H276	H	2.047135	0.350154	0.007047
H277	H	1.258842	-0.481820	-0.944745
H278	H	1.508842	-0.231820	-0.694745
H279	H	1.758842	0.018180	-0.444745
H280	H	2.008842	0.268180	-0.194745
C281	C	1.273558	-0.496625	-0.669166
C282	C	1.523558	-0.246625	-0.419166
C283	C	1.773558	0.003375	-0.169166
C284	C	2.023558	0.253375	0.080834
H285	H	1.266187	-0.489220	-0.712821
H286	H	1.516187	-0.239220	-0.462821
H287	H	1.766187	0.010780	-0.212821
H288	H	2.016187	0.260780	0.037179
H289	H	1.261731	-0.550803	-0.658431
H290	H	1.511731	-0.300803	-0.408431
H291	H	1.761731	-0.050803	-0.158431
H292	H	2.011731	0.199197	0.091569
H293	H	1.327741	-0.484826	-0.658460
H294	H	1.577741	-0.234826	-0.408460
H295	H	1.827741	0.015174	-0.158460
H296	H	2.077741	0.265174	0.091540
