data_functionalizedCrystal
_audit_creation_method	'MofGen! by Chris Wilmer'
_symmetry_space_group_name_H-M	'P1'
_symmetry_Int_Tables_number	1
_symmetry_cell_setting	triclinic
loop_
_symmetry_equiv_pos_as_xyz
  x,y,z
_cell_length_a	19.288859
_cell_length_b	17.766277
_cell_length_c	19.288864
_cell_angle_alpha	90.028157
_cell_angle_beta	83.134987
_cell_angle_gamma	90.010232
loop_
_atom_site_label
_atom_site_type_symbol
_atom_site_fract_x
_atom_site_fract_y
_atom_site_fract_z
O1	O	0.921356	0.062645	0.086628
O2	O	1.421356	0.562645	0.586628
O3	O	0.719095	0.062648	0.098322
O4	O	1.219095	0.562648	0.598322
O5	O	0.826070	0.062600	-0.008656
O6	O	1.326070	0.562600	0.491344
O7	O	0.814381	0.062693	0.193605
O8	O	1.314381	0.562693	0.693605
O9	O	0.826051	-0.062589	-0.008661
O10	O	1.326051	0.437411	0.491339
O11	O	0.719076	-0.062541	0.098316
O12	O	1.219076	0.437459	0.598316
O13	O	0.921337	-0.062544	0.086623
O14	O	1.421337	0.437456	0.586623
Cu15	Cu	0.820205	-0.073973	0.092469
Cu16	Cu	1.320205	0.426027	0.592469
Cu17	Cu	0.820227	0.074077	0.092475
Cu18	Cu	1.320227	0.574077	0.592475
O19	O	0.814362	-0.062496	0.193600
O20	O	1.314362	0.437504	0.693600
C21	C	0.693209	0.000053	0.097943
C22	C	1.193209	0.500053	0.597943
C23	C	0.616105	0.000052	0.096816
C24	C	1.116105	0.500052	0.596816
N25	N	0.820194	-0.178103	0.092464
N26	N	1.320194	0.321897	0.592464
C27	C	0.052064	0.000078	0.151959
C28	C	0.552064	0.500078	0.651959
C29	C	0.124511	0.000083	0.153025
C30	C	0.624511	0.500083	0.653025
C31	C	0.169217	0.000053	0.090255
C32	C	0.669217	0.500053	0.590255
C33	C	0.141472	0.000037	0.026416
C34	C	0.641472	0.500037	0.526416
C35	C	0.069027	0.000040	0.025353
C36	C	0.569027	0.500040	0.525353
C37	C	0.290481	-0.043831	0.043440
C38	C	0.790481	0.456169	0.543440
C39	C	0.362925	-0.043839	0.044507
C40	C	0.862925	0.456161	0.544507
C41	C	0.392663	0.000046	0.093533
C42	C	0.892663	0.500046	0.593533
C43	C	0.349948	0.043929	0.141505
C44	C	0.849948	0.543929	0.641505
C45	C	0.277502	0.043933	0.140441
C46	C	0.777502	0.543933	0.640441
C47	C	0.247773	0.000050	0.091402
C48	C	0.747773	0.500050	0.591402
C49	C	0.498955	0.000072	0.158523
C50	C	0.998955	0.500072	0.658523
C51	C	0.571403	0.000081	0.159586
C52	C	1.071403	0.500081	0.659586
C53	C	0.588364	0.000028	0.032976
C54	C	1.088364	0.500028	0.532976
C55	C	0.515917	0.000026	0.031915
C56	C	1.015917	0.500026	0.531915
C57	C	0.471216	0.000045	0.094691
C58	C	0.971216	0.500045	0.594691
C59	C	0.867578	-0.217511	0.045118
C60	C	1.367578	0.282489	0.545118
C61	C	0.867582	-0.296313	0.045115
C62	C	1.367582	0.203687	0.545115
C63	C	0.820209	-0.335704	0.092470
C64	C	1.320209	0.164296	0.592470
C65	C	0.772816	-0.296286	0.139820
C66	C	1.272816	0.203714	0.639820
C67	C	0.772809	-0.217486	0.139817
C68	C	1.272809	0.282514	0.639817
C69	C	0.810910	-0.460513	0.155758
C70	C	1.310910	0.039487	0.655758
C71	C	0.810922	-0.539312	0.155761
C72	C	1.310922	-0.039312	0.655761
C73	C	0.820227	-0.578750	0.092478
C74	C	1.320227	-0.078750	0.592478
C75	C	0.829535	-0.539380	0.029188
C76	C	1.329535	-0.039380	0.529188
C77	C	0.829528	-0.460580	0.029186
C78	C	1.329528	0.039420	0.529186
C79	C	0.820211	-0.421150	0.092478
C80	C	1.320211	0.078850	0.592478
C81	C	0.867618	-0.703604	0.045124
C82	C	1.367618	-0.203604	0.545124
C83	C	0.867617	-0.782408	0.045120
C84	C	1.367617	-0.282408	0.545120
C85	C	0.772855	-0.782379	0.139831
C86	C	1.272855	-0.282379	0.639831
C87	C	0.772852	-0.703577	0.139829
C88	C	1.272852	-0.203577	0.639829
C89	C	0.820238	-0.664195	0.092477
C90	C	1.320238	-0.164195	0.592477
C91	C	0.947223	0.000053	0.087001
C92	C	1.447223	0.500053	0.587001
C93	C	1.024327	0.000059	0.088128
C94	C	1.524327	0.500059	0.588128
C95	C	0.814747	0.000111	0.219479
C96	C	1.314747	0.500111	0.719479
C97	C	0.815876	0.000146	0.296583
C98	C	1.315876	0.500146	0.796583
N99	N	0.820243	0.178207	0.092475
N100	N	1.320243	0.678207	0.592475
C101	C	0.825684	-0.000005	-0.034535
C102	C	1.325684	0.499995	0.465465
C103	C	0.824555	-0.000036	-0.111638
C104	C	1.324555	0.499964	0.388362
C105	C	0.753108	0.000132	0.341280
C106	C	1.253108	0.500132	0.841280
C107	C	0.754169	0.000115	0.413727
C108	C	1.254169	0.500115	0.913727
C109	C	0.818001	0.000097	0.441474
C110	C	1.318001	0.500097	0.941474
C111	C	0.880778	0.000116	0.396766
C112	C	1.380778	0.500116	0.896766
C113	C	0.879715	0.000140	0.324321
C114	C	1.379715	0.500140	0.824321
C115	C	0.868174	-0.043802	0.549721
C116	C	1.368174	0.456198	1.049721
C117	C	0.869234	-0.043832	0.622165
C118	C	1.369234	0.456168	1.122165
C119	C	0.821281	0.000025	0.664919
C120	C	1.321281	0.500025	1.164919
C121	C	0.772257	0.043901	0.635221
C122	C	1.272257	0.543901	1.135221
C123	C	0.771194	0.043925	0.562776
C124	C	1.271194	0.543925	1.062776
C125	C	0.819161	0.000071	0.520028
C126	C	1.319161	0.500071	1.020028
C127	C	0.759659	-0.000007	0.788173
C128	C	1.259659	0.499993	1.288173
C129	C	0.760722	-0.000019	0.860621
C130	C	1.260722	0.499981	1.360621
C131	C	0.887333	-0.000026	0.843658
C132	C	1.387333	0.499974	1.343658
C133	C	0.886267	-0.000006	0.771211
C134	C	1.386267	0.499994	1.271211
C135	C	0.822429	-0.000000	0.743473
C136	C	1.322429	0.500000	1.243473
H137	H	0.015673	0.000097	0.203077
H138	H	0.515673	0.500097	0.703077
N139	N	0.686460	0.000080	0.461938
N140	N	1.186460	0.500080	0.961938
H141	H	0.684084	-0.046343	0.492332
H142	H	1.184084	0.453657	0.992332
H143	H	0.684109	0.046502	0.492370
H144	H	1.184109	0.546502	0.992370
H145	H	0.906201	-0.814494	0.006561
H146	H	1.406201	-0.314494	0.506561
N147	N	0.718332	0.091257	0.530744
N148	N	1.218332	0.591257	1.030744
H149	H	0.724938	0.084617	0.478364
H150	H	1.224938	0.584617	0.978364
H151	H	0.669664	0.074863	0.549935
H152	H	1.169664	0.574863	1.049935
N153	N	0.258420	-0.091181	-0.009438
N154	N	0.758420	0.408819	0.490562
H155	H	0.224941	-0.128675	0.015632
H156	H	0.724941	0.371325	0.515632
H157	H	0.232402	-0.057557	-0.039703
H158	H	0.732402	0.442443	0.460297
N159	N	0.949626	0.000087	0.426687
N160	N	1.449626	0.500087	0.926687
H161	H	0.977126	0.046498	0.410410
H162	H	1.477126	0.546498	0.910410
H163	H	0.940716	0.000037	0.479359
H164	H	1.440716	0.500037	0.979359
N165	N	0.690809	0.000004	0.758248
N166	N	1.190809	0.500004	1.258248
H167	H	0.651205	-0.000001	0.797561
H168	H	1.151205	0.499999	1.297561
H169	H	0.687619	0.046421	0.728590
H170	H	1.187619	0.546421	1.228590
H171	H	0.709607	-0.000026	0.897014
H172	H	1.209607	0.499974	1.397014
H173	H	0.906200	-0.671538	0.006565
H174	H	1.406200	-0.171538	0.506565
N175	N	0.800877	-0.581770	0.224020
N176	N	1.300877	-0.081770	0.724020
H177	H	0.843049	-0.614448	0.228044
H178	H	1.343049	-0.114448	0.728044
H179	H	0.794951	-0.544781	0.264066
H180	H	1.294951	-0.044781	0.764066
N181	N	0.189687	0.000007	-0.041286
N182	N	0.689687	0.500007	0.458714
H183	H	0.239790	0.000006	-0.030927
H184	H	0.739790	0.500006	0.469073
H185	H	0.180716	-0.046412	-0.069120
H186	H	0.680716	0.453588	0.430880
H187	H	0.837112	-0.571489	-0.022343
H188	H	1.337112	-0.071489	0.477657
H189	H	0.397698	-0.079575	0.005448
H190	H	0.897698	0.420425	0.505448
H191	H	0.374158	0.079663	0.181428
H192	H	0.874158	0.579663	0.681428
N193	N	0.956178	-0.000047	0.873580
N194	N	1.456178	0.499953	1.373580
H195	H	0.983661	-0.046451	0.857233
H196	H	1.483661	0.453549	1.357233
H197	H	0.983621	0.046394	0.857291
H198	H	1.483621	0.546394	1.357291
H199	H	0.733205	0.079608	0.670031
H200	H	1.233205	0.579608	1.170031
N201	N	0.039105	0.000018	-0.043496
N202	N	0.539105	0.500018	0.456504
H203	H	0.078417	0.000002	-0.083101
H204	H	0.578417	0.500002	0.416899
H205	H	0.009410	-0.046392	-0.046698
H206	H	0.509410	0.453608	0.453302
H207	H	0.937380	0.000001	0.734817
H208	H	1.437380	0.500001	1.234817
H209	H	0.906169	-0.328405	0.006558
H210	H	1.406169	0.171595	0.506558
N211	N	0.918682	-0.175035	-0.005955
N212	N	1.418682	0.324965	0.494045
H213	H	0.948699	-0.211962	-0.035950
H214	H	1.448699	0.288038	0.464050
H215	H	0.892187	-0.142368	-0.036598
H216	H	1.392187	0.357632	0.463402
H217	H	0.930830	0.000153	0.287927
H218	H	1.430830	0.500153	0.787927
N219	N	0.636580	-0.000008	-0.034723
N220	N	1.136580	0.499992	0.465277
H221	H	0.627672	-0.046427	-0.062586
H222	H	1.127672	0.453573	0.437414
H223	H	0.627668	0.046418	-0.062526
H224	H	1.127668	0.546418	0.437474
N225	N	0.684252	0.000136	0.311372
N226	N	1.184252	0.500136	0.811372
H227	H	0.656766	0.046538	0.327723
H228	H	1.156766	0.546538	0.827723
H229	H	0.693152	0.000123	0.258700
H230	H	1.193152	0.500123	0.758700
H231	H	0.734280	-0.814450	0.178386
H232	H	1.234280	-0.314450	0.678386
N233	N	0.721744	-0.661074	0.190900
N234	N	1.221744	-0.161074	0.690900
H235	H	0.729586	-0.674756	0.240179
H236	H	1.229586	-0.174756	0.740179
H237	H	0.728949	-0.605191	0.183655
H238	H	1.228949	-0.105191	0.683655
N239	N	0.231431	0.091267	0.192171
N240	N	0.731431	0.591267	0.692171
H241	H	0.261257	0.119071	0.223391
H242	H	0.761257	0.619071	0.723391
H243	H	0.204809	0.128716	0.166164
H244	H	0.704809	0.628716	0.666164
N245	N	0.800874	-0.417979	0.224017
N246	N	1.300874	0.082021	0.724017
H247	H	0.794987	-0.454874	0.264109
H248	H	1.294987	0.045126	0.764109
H249	H	0.843055	-0.385271	0.227960
H250	H	1.343055	0.114729	0.727960
N251	N	0.721719	-0.338771	0.190891
N252	N	1.221719	0.161229	0.690891
H253	H	0.748164	-0.371437	0.221582
H254	H	1.248164	0.128563	0.721582
H255	H	0.691710	-0.301799	0.220839
H256	H	1.191710	0.198201	0.720839
H257	H	0.909150	-0.079561	0.646339
H258	H	1.409150	0.420439	1.146339
H259	H	0.734222	-0.185399	0.178373
H260	H	1.234222	0.314601	0.678373
N261	N	0.919901	-0.091103	0.503609
N262	N	1.419901	0.408897	1.003609
H263	H	0.951114	-0.118905	0.533414
H264	H	1.451114	0.381095	1.033414
H265	H	0.893896	-0.128554	0.476948
H266	H	1.393896	0.371446	0.976948
N267	N	0.839564	-0.418115	-0.039070
N268	N	1.339564	0.081885	0.460930
H269	H	0.845461	-0.455051	-0.079162
H270	H	1.345461	0.044949	0.420838
H271	H	0.797378	-0.385436	-0.043016
H272	H	1.297378	0.114564	0.456984
N273	N	0.154439	0.000105	0.221873
N274	N	0.654439	0.500105	0.721873
H275	H	0.115129	0.000119	0.261479
H276	H	0.615129	0.500119	0.761479
H277	H	0.184118	-0.046305	0.225061
H278	H	0.684118	0.453695	0.725061
H279	H	0.593984	0.000103	0.211567
H280	H	1.093984	0.500103	0.711567
N281	N	0.450736	0.000100	0.226227
N282	N	0.950736	0.500100	0.726227
H283	H	0.479304	0.000121	0.266827
H284	H	0.979304	0.500121	0.766827
H285	H	0.420317	0.046511	0.228543
H286	H	0.920317	0.546511	0.728543
H287	H	0.493333	0.000006	-0.020063
H288	H	0.993333	0.500006	0.479937
