data_functionalizedCrystal
_audit_creation_method	'MofGen! by Chris Wilmer'
_symmetry_space_group_name_H-M	'P1'
_symmetry_Int_Tables_number	1
_symmetry_cell_setting	triclinic
loop_
_symmetry_equiv_pos_as_xyz
  x,y,z
_cell_length_a	10.723024
_cell_length_b	14.750779
_cell_length_c	10.723024
_cell_angle_alpha	102.763658
_cell_angle_beta	84.467869
_cell_angle_gamma	77.235498
loop_
_atom_site_label
_atom_site_type_symbol
_atom_site_fract_x
_atom_site_fract_y
_atom_site_fract_z
O1	O	1.630334	0.079817	0.201867
O2	O	1.267181	0.079820	0.218622
O3	O	1.457135	0.079815	0.028667
O4	O	1.440380	0.079822	0.391822
O5	O	1.510833	-0.079837	-0.025025
O6	O	1.320879	-0.079832	0.164930
O7	O	1.684032	-0.079835	0.148175
Zn8	Zn	1.510981	-0.105181	0.148028
Zn9	Zn	1.440232	0.105167	0.218769
O10	O	1.494078	-0.079830	0.338130
C11	C	1.247530	-0.000005	0.190557
C12	C	1.108975	-0.000004	0.186909
N13	N	1.559275	-0.248738	0.099748
C14	C	1.033992	-0.000002	0.293198
C15	C	0.890788	-0.000000	0.289431
C16	C	1.257070	-0.600548	0.401823
C17	C	1.290921	-0.701048	0.368000
C18	C	1.459161	-0.701016	0.199858
C19	C	1.425320	-0.600514	0.233663
C20	C	1.324275	-0.550288	0.334647
C21	C	1.492525	-0.550253	0.166487
C22	C	1.458692	-0.449760	0.200294
C23	C	1.357653	-0.399527	0.301277
C24	C	1.290442	-0.449795	0.368454
C25	C	1.593576	-0.600481	0.065509
C26	C	1.660781	-0.550220	-0.001667
C27	C	1.626942	-0.449725	0.032134
C28	C	1.525903	-0.399492	0.133116
C29	C	1.694154	-0.399457	-0.035044
C30	C	1.660320	-0.298964	-0.001237
C31	C	1.492070	-0.298999	0.166923
C32	C	1.703682	-0.000007	0.176241
C33	C	1.842235	-0.000002	0.179890
C34	C	1.482765	-0.000010	-0.044678
C35	C	1.479116	-0.000006	-0.183231
N36	N	1.391948	0.248724	0.267039
C37	C	1.585403	-0.000006	-0.258214
C38	C	1.581635	-0.000002	-0.401416
C39	C	1.468447	-0.000003	0.411476
C40	C	1.472094	0.000000	0.550031
H41	H	0.826353	0.000006	0.380423
H42	H	0.906659	0.000002	0.088896
O43	O	1.058979	0.000165	0.075105
C44	C	0.900068	0.082847	-0.032545
C45	C	0.956581	0.082785	0.094151
H46	H	0.817252	0.149627	-0.017183
H47	H	0.978726	0.082907	-0.112017
H48	H	0.862335	0.016002	-0.062212
H49	H	0.994306	0.149618	0.123936
H50	H	0.877880	0.082674	0.173544
H51	H	1.381101	-0.000007	-0.385546
H52	H	1.409780	-0.258103	0.249146
O53	O	1.325011	-0.301907	0.334116
C54	C	1.395119	-0.157670	0.409178
C55	C	1.432267	-0.268221	0.371996
H56	H	1.481805	-0.130401	0.439839
H57	H	1.364687	-0.130332	0.322465
H58	H	1.311317	-0.130432	0.492850
H59	H	1.516095	-0.295541	0.288359
H60	H	1.462619	-0.295493	0.458779
O61	O	1.367256	0.000125	-0.233215
C62	C	1.203902	0.082874	-0.336354
C63	C	1.330605	0.082832	-0.279824
H64	H	1.174217	0.149745	-0.374028
H65	H	1.219134	0.016108	-0.419168
H66	H	1.124499	0.082826	-0.257621
H67	H	1.410070	0.082914	-0.358464
H68	H	1.315266	0.149592	-0.196980
H69	H	1.541436	-0.741921	0.117638
H70	H	1.208152	-0.408899	0.450677
O71	O	1.758833	-0.598912	-0.099903
C72	C	1.840375	-0.629693	-0.326592
C73	C	1.729262	-0.574474	-0.215444
H74	H	1.816494	-0.609972	-0.420040
H75	H	1.933831	-0.609904	-0.302885
H76	H	1.853023	-0.710147	-0.339148
H77	H	1.716496	-0.494009	-0.202830
H78	H	1.635866	-0.594343	-0.239201
H79	H	1.075815	-0.000005	0.386982
O80	O	1.792213	-0.448150	-0.133272
C81	C	1.873783	-0.478943	-0.359957
C82	C	1.762657	-0.423722	-0.248822
H83	H	1.849914	-0.459229	-0.453411
H84	H	1.967233	-0.459150	-0.336239
H85	H	1.886433	-0.559396	-0.372505
H86	H	1.749889	-0.343256	-0.236215
H87	H	1.669267	-0.443595	-0.272590
O88	O	1.159049	-0.551791	0.500074
C89	C	1.077379	-0.521088	0.726719
C90	C	1.188484	-0.576349	0.615582
H91	H	1.101125	-0.540938	0.820128
H92	H	1.064747	-0.440619	0.739449
H93	H	0.983956	-0.540847	0.702827
H94	H	1.281970	-0.556670	0.639390
H95	H	1.201002	-0.656804	0.602878
O96	O	1.697388	0.000039	-0.208524
C97	C	1.922338	-0.000011	-0.249571
C98	C	1.795593	-0.000043	-0.305998
H99	H	2.001777	-0.000098	-0.328358
H100	H	1.907142	0.066820	-0.166869
H101	H	1.951944	-0.066808	-0.211722
H102	H	1.765916	0.066709	-0.343920
H103	H	1.810857	-0.066918	-0.388643
H104	H	1.672626	-0.000006	-0.465850
H105	H	1.715047	-0.258042	-0.055938
H106	H	1.236186	-0.741966	0.422713
H107	H	1.621124	-0.682309	0.037991
