data_functionalizedCrystal
_audit_creation_method	'MofGen! by Chris Wilmer'
_symmetry_space_group_name_H-M	'P1'
_symmetry_Int_Tables_number	1
_symmetry_cell_setting	triclinic
loop_
_symmetry_equiv_pos_as_xyz
  x,y,z
_cell_length_a	14.519731
_cell_length_b	19.288874
_cell_length_c	18.366186
_cell_angle_alpha	90.002075
_cell_angle_beta	89.992506
_cell_angle_gamma	96.585461
loop_
_atom_site_label
_atom_site_type_symbol
_atom_site_fract_x
_atom_site_fract_y
_atom_site_fract_z
O1	O	-1.223285	0.091116	0.060569
O2	O	-0.973285	0.341116	0.310569
O3	O	-0.723285	0.591116	0.560569
O4	O	-0.473285	0.841116	0.810569
O5	O	-0.954743	0.101823	0.060567
O6	O	-0.704743	0.351823	0.310567
O7	O	-0.454743	0.601823	0.560567
O8	O	-0.204743	0.851823	0.810567
O9	O	-1.096769	-0.004632	0.060562
O10	O	-0.846769	0.245368	0.310562
O11	O	-0.596769	0.495368	0.560562
O12	O	-0.346769	0.745368	0.810562
O13	O	-1.081259	0.197571	0.060574
O14	O	-0.831259	0.447571	0.310574
O15	O	-0.581259	0.697571	0.560574
O16	O	-0.331259	0.947571	0.810574
O17	O	-1.096750	-0.004628	-0.060537
O18	O	-0.846750	0.245372	0.189463
O19	O	-0.596750	0.495372	0.439463
O20	O	-0.346750	0.745372	0.689463
O21	O	-0.954725	0.101827	-0.060533
O22	O	-0.704725	0.351827	0.189467
O23	O	-0.454725	0.601827	0.439467
O24	O	-0.204725	0.851827	0.689467
O25	O	-1.223266	0.091120	-0.060530
O26	O	-0.973266	0.341120	0.189470
O27	O	-0.723266	0.591120	0.439470
O28	O	-0.473266	0.841120	0.689470
Zn29	Zn	-1.088993	0.096474	-0.079759
Zn30	Zn	-0.838993	0.346474	0.170241
Zn31	Zn	-0.588993	0.596474	0.420241
Zn32	Zn	-0.338993	0.846474	0.670241
Zn33	Zn	-1.089017	0.096469	0.079795
Zn34	Zn	-0.839017	0.346469	0.329795
Zn35	Zn	-0.589017	0.596469	0.579795
Zn36	Zn	-0.339017	0.846469	0.829795
O37	O	-1.081241	0.197575	-0.060526
O38	O	-0.831241	0.447575	0.189474
O39	O	-0.581241	0.697575	0.439474
O40	O	-0.331241	0.947575	0.689474
C41	C	-0.920378	0.101323	0.000017
C42	C	-0.670378	0.351323	0.250017
C43	C	-0.420378	0.601323	0.500017
C44	C	-0.170378	0.851323	0.750017
C45	C	-0.818007	0.099820	0.000015
C46	C	-0.568007	0.349820	0.250015
C47	C	-0.318007	0.599820	0.500015
C48	C	-0.068007	0.849820	0.750015
C49	C	-0.734870	0.098599	0.000017
C50	C	-0.484870	0.348599	0.250017
C51	C	-0.234870	0.598599	0.500017
C52	C	0.015130	0.848599	0.750017
C53	C	-0.630571	0.097072	0.000016
C54	C	-0.380571	0.347072	0.250016
C55	C	-0.130571	0.597072	0.500016
C56	C	0.119429	0.847072	0.750016
C57	C	-0.547440	0.095861	0.000015
C58	C	-0.297440	0.345861	0.250015
C59	C	-0.047440	0.595861	0.500015
C60	C	0.202560	0.845861	0.750015
C61	C	-0.443134	0.094335	0.000015
C62	C	-0.193134	0.344335	0.250015
C63	C	0.056866	0.594335	0.500015
C64	C	0.306866	0.844335	0.750015
C65	C	-1.096259	-0.030508	0.000013
C66	C	-0.846259	0.219492	0.250013
C67	C	-0.596259	0.469492	0.500013
C68	C	-0.346259	0.719492	0.750013
C69	C	-1.094756	-0.107617	0.000013
C70	C	-0.844756	0.142383	0.250013
C71	C	-0.594756	0.392383	0.500013
C72	C	-0.344756	0.642383	0.750013
C73	C	-1.083958	-0.663223	-0.065981
C74	C	-0.833958	-0.413223	0.184019
C75	C	-0.583958	-0.163223	0.434019
C76	C	-0.333958	0.086777	0.684019
C77	C	-1.085360	-0.590771	-0.065985
C78	C	-0.835360	-0.340771	0.184015
C79	C	-0.585360	-0.090771	0.434015
C80	C	-0.335360	0.159229	0.684015
C81	C	-1.086075	-0.554539	0.000026
C82	C	-0.836075	-0.304539	0.250026
C83	C	-0.586075	-0.054539	0.500026
C84	C	-0.336075	0.195461	0.750026
C85	C	-1.085365	-0.590764	0.066045
C86	C	-0.835365	-0.340764	0.316045
C87	C	-0.585365	-0.090764	0.566045
C88	C	-0.335365	0.159236	0.816045
C89	C	-1.083953	-0.663214	0.066047
C90	C	-0.833953	-0.413214	0.316047
C91	C	-0.583953	-0.163214	0.566047
C92	C	-0.333953	0.086786	0.816047
C93	C	-1.142331	-0.445003	0.050598
C94	C	-0.892331	-0.195003	0.300598
C95	C	-0.642331	0.054997	0.550598
C96	C	-0.392331	0.304997	0.800598
C97	C	-1.143748	-0.372555	0.050593
C98	C	-0.893748	-0.122555	0.300593
C99	C	-0.643748	0.127445	0.550593
C100	C	-0.393748	0.377445	0.800593
C101	C	-1.090423	-0.331077	0.000022
C102	C	-0.840423	-0.081077	0.250022
C103	C	-0.590423	0.168923	0.500022
C104	C	-0.340423	0.418923	0.750022
C105	C	-1.035693	-0.362058	-0.050555
C106	C	-0.785693	-0.112058	0.199445
C107	C	-0.535693	0.137942	0.449445
C108	C	-0.285693	0.387942	0.699445
C109	C	-1.034282	-0.434508	-0.050553
C110	C	-0.784282	-0.184508	0.199447
C111	C	-0.534282	0.065492	0.449447
C112	C	-0.284282	0.315492	0.699447
C113	C	-1.087604	-0.475978	0.000031
C114	C	-0.837604	-0.225978	0.250031
C115	C	-0.587604	0.024022	0.500031
C116	C	-0.337604	0.274022	0.750031
C117	C	-1.092647	-0.216298	-0.065997
C118	C	-0.842647	0.033702	0.184003
C119	C	-0.592647	0.283702	0.434003
C120	C	-0.342647	0.533702	0.684003
C121	C	-1.094043	-0.143844	-0.065998
C122	C	-0.844043	0.106156	0.184002
C123	C	-0.594043	0.356156	0.434002
C124	C	-0.344043	0.606156	0.684002
C125	C	-1.094057	-0.143839	0.066033
C126	C	-0.844057	0.106161	0.316033
C127	C	-0.594057	0.356161	0.566033
C128	C	-0.344057	0.606161	0.816033
C129	C	-1.092652	-0.216291	0.066033
C130	C	-0.842652	0.033709	0.316033
C131	C	-0.592652	0.283709	0.566033
C132	C	-0.342652	0.533709	0.816033
C133	C	-1.091951	-0.252517	0.000015
C134	C	-0.841951	-0.002517	0.250015
C135	C	-0.591951	0.247483	0.500015
C136	C	-0.341951	0.497483	0.750015
C137	C	-0.257632	0.091620	0.000018
C138	C	-0.007632	0.341620	0.250018
C139	C	0.242368	0.591620	0.500018
C140	C	0.492368	0.841620	0.750018
C141	C	-0.360003	0.093123	0.000013
C142	C	-0.110003	0.343123	0.250013
C143	C	0.139997	0.593123	0.500013
C144	C	0.389997	0.843123	0.750013
C145	C	-1.081750	0.223451	0.000025
C146	C	-0.831750	0.473451	0.250025
C147	C	-0.581750	0.723451	0.500025
C148	C	-0.331750	0.973451	0.750025
C149	C	-1.083253	0.300560	0.000030
C150	C	-0.833253	0.550560	0.250030
C151	C	-0.583253	0.800560	0.500030
C152	C	-0.333253	1.050560	0.750030
N153	N	-1.088983	0.096477	-0.188650
N154	N	-0.838983	0.346477	0.061350
N155	N	-0.588983	0.596477	0.311350
N156	N	-0.338983	0.846477	0.561350
C157	C	-1.144790	0.138679	-0.773196
C158	C	-0.894790	0.388679	-0.523196
C159	C	-0.644790	0.638679	-0.273196
C160	C	-0.394790	0.888679	-0.023196
C161	C	-1.144780	0.138685	-0.696968
C162	C	-0.894780	0.388685	-0.446968
C163	C	-0.644780	0.638685	-0.196968
C164	C	-0.394780	0.888685	0.053032
C165	C	-1.089025	0.096462	-0.658861
C166	C	-0.839025	0.346462	-0.408861
C167	C	-0.589025	0.596462	-0.158861
C168	C	-0.339025	0.846462	0.091139
C169	C	-1.033258	0.054241	-0.696988
C170	C	-0.783258	0.304241	-0.446988
C171	C	-0.533258	0.554241	-0.196988
C172	C	-0.283258	0.804241	0.053012
C173	C	-1.033263	0.054241	-0.773214
C174	C	-0.783263	0.304241	-0.523214
C175	C	-0.533263	0.554241	-0.273214
C176	C	-0.283263	0.804241	-0.023214
C177	C	-1.086730	0.033829	-0.538098
C178	C	-0.836730	0.283829	-0.288098
C179	C	-0.586730	0.533829	-0.038098
C180	C	-0.336730	0.783829	0.211902
C181	C	-1.086732	0.033828	-0.461873
C182	C	-0.836732	0.283828	-0.211873
C183	C	-0.586732	0.533828	0.038127
C184	C	-0.336732	0.783828	0.288127
C185	C	-1.089007	0.096463	-0.423754
C186	C	-0.839007	0.346463	-0.173754
C187	C	-0.589007	0.596463	0.076246
C188	C	-0.339007	0.846463	0.326246
C189	C	-1.091299	0.159101	-0.461868
C190	C	-0.841299	0.409101	-0.211868
C191	C	-0.591299	0.659101	0.038132
C192	C	-0.341299	0.909101	0.288132
C193	C	-1.091303	0.159101	-0.538094
C194	C	-0.841303	0.409101	-0.288094
C195	C	-0.591303	0.659101	-0.038094
C196	C	-0.341303	0.909101	0.211906
C197	C	-1.089014	0.096458	-0.576206
C198	C	-0.839014	0.346458	-0.326206
C199	C	-0.589014	0.596458	-0.076206
C200	C	-0.339014	0.846458	0.173794
C201	C	-1.144755	0.138692	-0.302981
C202	C	-0.894755	0.388692	-0.052981
C203	C	-0.644755	0.638692	0.197019
C204	C	-0.394755	0.888692	0.447019
C205	C	-1.144739	0.138700	-0.226752
C206	C	-0.894739	0.388700	0.023248
C207	C	-0.644739	0.638700	0.273248
C208	C	-0.394739	0.888700	0.523248
C209	C	-1.033223	0.054250	-0.226773
C210	C	-0.783223	0.304250	0.023227
C211	C	-0.533223	0.554250	0.273227
C212	C	-0.283223	0.804250	0.523227
C213	C	-1.033234	0.054248	-0.303000
C214	C	-0.783234	0.304248	-0.053000
C215	C	-0.533234	0.554248	0.197000
C216	C	-0.283234	0.804248	0.447000
C217	C	-1.089005	0.096468	-0.341100
C218	C	-0.839005	0.346468	-0.091100
C219	C	-0.589005	0.596468	0.158900
C220	C	-0.339005	0.846468	0.408900
N221	N	-1.089034	0.096461	0.188686
N222	N	-0.839034	0.346461	0.438686
N223	N	-0.589034	0.596461	0.688686
N224	N	-0.339034	0.846461	0.938686
H225	H	-1.085917	-0.561276	-0.119740
H226	H	-0.835917	-0.311276	0.130260
H227	H	-0.585917	-0.061276	0.380260
H228	H	-0.335917	0.188724	0.630260
O229	O	-1.199856	-0.489734	0.105145
O230	O	-0.949856	-0.239734	0.355145
O231	O	-0.699856	0.010266	0.605145
O232	O	-0.449856	0.260266	0.855145
H233	H	-1.153663	-0.518309	0.139296
H234	H	-0.903663	-0.268309	0.389296
H235	H	-0.653663	-0.018309	0.639296
H236	H	-0.403663	0.231691	0.889296
H237	H	-1.083386	-0.692714	-0.119737
H238	H	-0.833386	-0.442714	0.130263
H239	H	-0.583386	-0.192714	0.380263
H240	H	-0.333386	0.057286	0.630263
H241	H	-0.987821	0.019874	-0.195746
H242	H	-0.737821	0.269874	0.054254
H243	H	-0.487821	0.519874	0.304254
H244	H	-0.237821	0.769874	0.554254
O245	O	-0.975249	-0.467926	-0.105093
O246	O	-0.725249	-0.217926	0.144907
O247	O	-0.475249	0.032074	0.394907
O248	O	-0.225249	0.282074	0.644907
H249	H	-0.938398	-0.426918	-0.140258
H250	H	-0.688398	-0.176918	0.109742
H251	H	-0.438398	0.073082	0.359742
H252	H	-0.188398	0.323082	0.609742
H253	H	-1.092084	-0.245780	0.119786
H254	H	-0.842084	0.004220	0.369786
H255	H	-0.592084	0.254220	0.619786
H256	H	-0.342084	0.504220	0.869786
H257	H	-1.190182	0.173067	-0.665927
H258	H	-0.940182	0.423067	-0.415927
H259	H	-0.690182	0.673067	-0.165927
H260	H	-0.440182	0.923067	0.084073
H261	H	-1.190163	0.173073	-0.334004
H262	H	-0.940163	0.423073	-0.084004
H263	H	-0.690163	0.673073	0.165996
H264	H	-0.440163	0.923073	0.415996
O265	O	-1.202769	-0.339145	0.105149
O266	O	-0.952769	-0.089145	0.355149
O267	O	-0.702769	0.160855	0.605149
O268	O	-0.452769	0.410855	0.855149
H269	H	-1.276543	-0.360255	0.097690
H270	H	-1.026543	-0.110255	0.347690
H271	H	-0.776543	0.139745	0.597690
H272	H	-0.526543	0.389745	0.847690
H273	H	-0.992274	-0.328288	-0.091737
H274	H	-0.742274	-0.078288	0.158263
H275	H	-0.492274	0.171712	0.408263
H276	H	-0.242274	0.421712	0.658263
O277	O	-1.204873	0.184241	-0.185633
O278	O	-0.954873	0.434241	0.064367
O279	O	-0.704873	0.684241	0.314367
O280	O	-0.454873	0.934241	0.564367
H281	H	-1.243657	0.213593	-0.224936
H282	H	-0.993657	0.463593	0.025064
H283	H	-0.743657	0.713593	0.275064
H284	H	-0.493657	0.963593	0.525064
O285	O	-0.973133	0.008702	-0.814340
O286	O	-0.723133	0.258702	-0.564340
O287	O	-0.473133	0.508702	-0.314340
O288	O	-0.223133	0.758702	-0.064340
H289	H	-1.017511	-0.028544	-0.849065
H290	H	-0.767511	0.221456	-0.599065
H291	H	-0.517511	0.471456	-0.349065
H292	H	-0.267511	0.721456	-0.099065
H293	H	-1.085943	-0.561259	0.119791
H294	H	-0.835943	-0.311259	0.369791
H295	H	-0.585943	-0.061259	0.619791
H296	H	-0.335943	0.188741	0.869791
H297	H	-1.083378	-0.692701	0.119803
H298	H	-0.833378	-0.442701	0.369803
H299	H	-0.583378	-0.192701	0.619803
H300	H	-0.333378	0.057299	0.869803
O301	O	-1.084256	-0.033729	-0.420772
O302	O	-0.834256	0.216271	-0.170772
O303	O	-0.584256	0.466271	0.079228
O304	O	-0.334256	0.716271	0.329228
H305	H	-1.020326	-0.057050	-0.435412
H306	H	-0.770326	0.192950	-0.185412
H307	H	-0.520326	0.442950	0.064588
H308	H	-0.270326	0.692950	0.314588
O309	O	-0.973113	0.008707	-0.344130
O310	O	-0.723113	0.258707	-0.094130
O311	O	-0.473113	0.508707	0.155870
O312	O	-0.223113	0.758707	0.405870
H313	H	-1.017493	-0.028536	-0.378856
H314	H	-0.767493	0.221464	-0.128856
H315	H	-0.517493	0.471464	0.121144
H316	H	-0.267493	0.721464	0.371144
H317	H	-1.093152	0.210105	-0.430832
H318	H	-0.843152	0.460105	-0.180832
H319	H	-0.593152	0.710105	0.069168
H320	H	-0.343152	0.960105	0.319168
O321	O	-1.094799	-0.104781	-0.137202
O322	O	-0.844799	0.145219	0.112798
O323	O	-0.594799	0.395219	0.362798
O324	O	-0.344799	0.645219	0.612798
H325	H	-1.095885	-0.048314	-0.126115
H326	H	-0.845885	0.201686	0.123885
H327	H	-0.595885	0.451686	0.373885
H328	H	-0.345885	0.701686	0.623885
O329	O	-0.973122	0.008702	-0.655887
O330	O	-0.723122	0.258702	-0.405887
O331	O	-0.473122	0.508702	-0.155887
O332	O	-0.223122	0.758702	0.094113
H333	H	-0.934344	-0.020652	-0.695202
H334	H	-0.684344	0.229348	-0.445202
H335	H	-0.434344	0.479348	-0.195202
H336	H	-0.184344	0.729348	0.054798
O337	O	-1.091874	-0.255377	-0.137196
O338	O	-0.841874	-0.005377	0.112804
O339	O	-0.591874	0.244623	0.362804
O340	O	-0.341874	0.494623	0.612804
H341	H	-1.092583	-0.218016	-0.183100
H342	H	-0.842583	0.031984	0.066900
H343	H	-0.592583	0.281984	0.316900
H344	H	-0.342583	0.531984	0.566900
H345	H	-1.084869	-0.017179	-0.569129
H346	H	-0.834869	0.232821	-0.319129
H347	H	-0.584869	0.482821	-0.069129
H348	H	-0.334869	0.732821	0.180871
H349	H	-1.094628	-0.114339	0.119781
H350	H	-0.844628	0.135661	0.369781
H351	H	-0.594628	0.385661	0.619781
H352	H	-0.344628	0.635661	0.869781
H353	H	-1.190201	0.173059	-0.804212
H354	H	-0.940201	0.423059	-0.554212
H355	H	-0.690201	0.673059	-0.304212
H356	H	-0.440201	0.923059	-0.054212
O357	O	-1.093770	0.226653	-0.579207
O358	O	-0.843770	0.476653	-0.329207
O359	O	-0.593770	0.726653	-0.079207
O360	O	-0.343770	0.976653	0.170793
H361	H	-1.095348	0.270211	-0.539900
H362	H	-0.845348	0.520211	-0.289900
H363	H	-0.595348	0.770211	-0.039900
H364	H	-0.345348	1.020211	0.210100
