data_functionalizedCrystal
_audit_creation_method	'MofGen! by Chris Wilmer'
_symmetry_space_group_name_H-M	'P1'
_symmetry_Int_Tables_number	1
_symmetry_cell_setting	triclinic
loop_
_symmetry_equiv_pos_as_xyz
  x,y,z
_cell_length_a	11.792254
_cell_length_b	11.792254
_cell_length_c	16.053802
_cell_angle_alpha	92.583162
_cell_angle_beta	87.401073
_cell_angle_gamma	84.198598
loop_
_atom_site_label
_atom_site_type_symbol
_atom_site_fract_x
_atom_site_fract_y
_atom_site_fract_z
O1	O	1.511666	0.150886	-0.069429
O2	O	1.181328	0.166904	-0.069431
O3	O	1.354505	-0.006274	-0.069424
O4	O	1.338488	0.324064	-0.069436
O5	O	1.344973	0.003219	0.069435
O6	O	1.171795	0.176397	0.069428
O7	O	1.502133	0.160379	0.069430
Zn8	Zn	1.335451	0.169895	0.091475
Zn9	Zn	1.348010	0.157388	-0.091477
O10	O	1.328956	0.333557	0.069423
C11	C	1.134271	0.170641	-0.000002
C12	C	1.008258	0.167621	-0.000002
C13	C	1.348730	-0.043818	0.000005
C14	C	1.345710	-0.169831	0.000004
C15	C	0.905921	0.165167	-0.000006
C16	C	0.777534	0.162099	-0.000006
C17	C	1.343256	-0.272168	0.000001
C18	C	1.340188	-0.400555	-0.000006
C19	C	1.549191	0.156642	-0.000001
C20	C	1.675204	0.159661	-0.000006
C21	C	1.334731	0.371101	-0.000008
C22	C	1.337752	0.497114	-0.000013
N23	N	1.326888	0.178430	0.216335
N24	N	1.356582	0.148844	-0.216337
C25	C	1.400602	0.104769	0.260032
C26	C	1.394623	0.110750	0.347439
C27	C	1.314934	0.190399	0.391147
C28	C	1.241211	0.264063	0.347444
C29	C	1.247186	0.258075	0.260039
C30	C	1.288835	0.216521	0.652555
C31	C	1.282868	0.222505	0.739967
C32	C	1.436279	0.069190	0.739955
C33	C	1.442251	0.063215	0.652549
C34	C	1.368525	0.136875	0.608853
N35	N	1.308822	0.196517	0.480490
N36	N	1.374631	0.130750	0.519512
H37	H	1.454646	0.050769	0.383016
H38	H	1.228806	0.276500	0.616986
H39	H	1.496302	0.009219	0.775540
O40	O	1.477934	0.027452	0.217449
C41	C	1.467362	0.037915	0.130932
H42	H	1.426381	0.127069	0.118975
H43	H	1.555491	0.023507	0.097683
H44	H	1.411666	-0.028369	0.106177
O45	O	1.519691	-0.014261	0.610223
C46	C	1.583493	-0.077976	0.667535
H47	H	1.532695	-0.075308	0.729848
H48	H	1.601977	-0.170231	0.642288
H49	H	1.667396	-0.039913	0.676812
O50	O	1.205340	0.299901	0.782297
C51	C	1.141561	0.363646	0.724989
H52	H	1.144258	0.312840	0.662687
H53	H	1.049302	0.382055	0.750259
H54	H	1.179547	0.447587	0.715680
H55	H	1.176321	0.328910	0.383036
H56	H	1.187158	0.318056	0.224462
