data_functionalizedCrystal
_audit_creation_method	'MofGen! by Chris Wilmer'
_symmetry_space_group_name_H-M	'P1'
_symmetry_Int_Tables_number	1
_symmetry_cell_setting	triclinic
loop_
_symmetry_equiv_pos_as_xyz
  x,y,z
_cell_length_a	19.805406
_cell_length_b	19.805407
_cell_length_c	19.805399
_cell_angle_alpha	90.019197
_cell_angle_beta	89.982961
_cell_angle_gamma	90.003217
loop_
_atom_site_label
_atom_site_type_symbol
_atom_site_fract_x
_atom_site_fract_y
_atom_site_fract_z
Zn1	Zn	-0.269548	-1.034857	-0.382762
Zn2	Zn	-0.019548	-0.784857	-0.132762
Zn3	Zn	0.230452	-0.534857	0.117238
Zn4	Zn	0.480452	-0.284857	0.367238
Zn5	Zn	-0.382737	-1.034823	-0.269595
Zn6	Zn	-0.132737	-0.784823	-0.019595
Zn7	Zn	0.117263	-0.534823	0.230405
Zn8	Zn	0.367263	-0.284823	0.480405
Zn9	Zn	-0.269559	-0.921672	-0.269588
Zn10	Zn	-0.019559	-0.671672	-0.019588
Zn11	Zn	0.230441	-0.421672	0.230412
Zn12	Zn	0.480441	-0.171672	0.480412
Zn13	Zn	-0.382693	-0.921686	-0.382743
Zn14	Zn	-0.132693	-0.671686	-0.132743
Zn15	Zn	0.117307	-0.421686	0.117257
Zn16	Zn	0.367307	-0.171686	0.367257
O17	O	-0.326134	-0.978259	-0.326172
O18	O	-0.076134	-0.728259	-0.076172
O19	O	0.173866	-0.478259	0.173828
O20	O	0.423866	-0.228259	0.423828
O21	O	-0.284577	-1.129569	-0.367762
O22	O	-0.034577	-0.879569	-0.117762
O23	O	0.215423	-0.629569	0.132238
O24	O	0.465423	-0.379569	0.382238
O25	O	-0.367746	-1.019793	-0.174877
O26	O	-0.117746	-0.769793	0.075123
O27	O	0.132254	-0.519793	0.325123
O28	O	0.382254	-0.269793	0.575123
O29	O	-0.174841	-0.936694	-0.284606
O30	O	0.075159	-0.686694	-0.034606
O31	O	0.325159	-0.436694	0.215394
O32	O	0.575159	-0.186694	0.465394
O33	O	-0.367736	-1.129544	-0.284618
O34	O	-0.117736	-0.879544	-0.034618
O35	O	0.132264	-0.629544	0.215382
O36	O	0.382264	-0.379544	0.465382
O37	O	-0.174833	-1.019851	-0.367755
O38	O	0.075167	-0.769851	-0.117755
O39	O	0.325167	-0.519851	0.132245
O40	O	0.575167	-0.269851	0.382245
O41	O	-0.284595	-0.936661	-0.174872
O42	O	-0.034595	-0.686661	0.075128
O43	O	0.215405	-0.436661	0.325128
O44	O	0.465405	-0.186661	0.575128
O45	O	-0.284553	-0.826957	-0.284587
O46	O	-0.034553	-0.576957	-0.034587
O47	O	0.215447	-0.326957	0.215413
O48	O	0.465447	-0.076957	0.465413
O49	O	-0.367661	-0.936719	-0.477462
O50	O	-0.117661	-0.686719	-0.227462
O51	O	0.132339	-0.436719	0.022538
O52	O	0.382339	-0.186719	0.272538
O53	O	-0.367672	-0.826968	-0.367721
O54	O	-0.117672	-0.576968	-0.117721
O55	O	0.132328	-0.326968	0.132279
O56	O	0.382328	-0.076968	0.382279
O57	O	-0.284534	-1.019865	-0.477476
O58	O	-0.034534	-0.769865	-0.227476
O59	O	0.215466	-0.519865	0.022524
O60	O	0.465466	-0.269865	0.272524
O61	O	-0.477447	-1.019807	-0.284599
O62	O	-0.227447	-0.769807	-0.034599
O63	O	0.022553	-0.519807	0.215401
O64	O	0.272553	-0.269807	0.465401
O65	O	-0.477415	-0.936686	-0.367728
O66	O	-0.227415	-0.686686	-0.117728
O67	O	0.022585	-0.436686	0.132272
O68	O	0.272585	-0.186686	0.382272
C69	C	-0.326110	-0.802403	-0.326151
C70	C	-0.076110	-0.552403	-0.076151
C71	C	0.173890	-0.302403	0.173849
C72	C	0.423890	-0.052403	0.423849
C73	C	-0.326115	-0.727171	-0.326158
C74	C	-0.076115	-0.477171	-0.076158
C75	C	0.173885	-0.227171	0.173842
C76	C	0.423885	0.022829	0.423842
C77	C	-0.282890	-0.691841	-0.369516
C78	C	-0.032890	-0.441841	-0.119516
C79	C	0.217110	-0.191841	0.130484
C80	C	0.467110	0.058159	0.380484
C81	C	-0.282892	-0.621152	-0.369517
C82	C	-0.032892	-0.371152	-0.119517
C83	C	0.217108	-0.121152	0.130483
C84	C	0.467108	0.128848	0.380483
C85	C	-0.326123	-0.585796	-0.326163
C86	C	-0.076123	-0.335796	-0.076163
C87	C	0.173877	-0.085796	0.173837
C88	C	0.423877	0.164204	0.423837
C89	C	-0.369350	-0.621131	-0.282800
C90	C	-0.119350	-0.371131	-0.032800
C91	C	0.130650	-0.121131	0.217200
C92	C	0.380650	0.128869	0.467200
C93	C	-0.369344	-0.691818	-0.282797
C94	C	-0.119344	-0.441818	-0.032797
C95	C	0.130656	-0.191818	0.217203
C96	C	0.380656	0.058182	0.467203
C97	C	-0.369375	-0.336058	-0.282814
C98	C	-0.119375	-0.086058	-0.032814
C99	C	0.130625	0.163942	0.217186
C100	C	0.380625	0.413942	0.467186
C101	C	-0.369379	-0.265366	-0.282823
C102	C	-0.119379	-0.015366	-0.032823
C103	C	0.130621	0.234634	0.217177
C104	C	0.380621	0.484634	0.467177
C105	C	-0.282923	-0.265392	-0.369535
C106	C	-0.032923	-0.015392	-0.119535
C107	C	0.217077	0.234608	0.130465
C108	C	0.467077	0.484608	0.380465
C109	C	-0.282917	-0.336079	-0.369531
C110	C	-0.032917	-0.086079	-0.119531
C111	C	0.217083	0.163921	0.130469
C112	C	0.467083	0.413921	0.380469
C113	C	-0.326141	-0.371408	-0.326166
C114	C	-0.076141	-0.121408	-0.076166
C115	C	0.173859	0.128592	0.173834
C116	C	0.423859	0.378592	0.423834
C117	C	-0.326137	-0.448057	-0.326165
C118	C	-0.076137	-0.198057	-0.076165
C119	C	0.173863	0.051943	0.173835
C120	C	0.423863	0.301943	0.423835
C121	C	-0.326131	-0.509149	-0.326167
C122	C	-0.076131	-0.259149	-0.076167
C123	C	0.173869	-0.009149	0.173833
C124	C	0.423869	0.240851	0.423833
C125	C	-0.501990	-0.978262	-0.326177
C126	C	-0.251990	-0.728262	-0.076177
C127	C	-0.001990	-0.478262	0.173823
C128	C	0.248010	-0.228262	0.423823
C129	C	-0.577222	-0.978325	-0.326202
C130	C	-0.327222	-0.728325	-0.076202
C131	C	-0.077222	-0.478325	0.173798
C132	C	0.172778	-0.228325	0.423798
C133	C	-0.149592	-0.978275	-0.326182
C134	C	0.100408	-0.728275	-0.076182
C135	C	0.350408	-0.478275	0.173818
C136	C	0.600408	-0.228275	0.423818
C137	C	-0.074360	-0.978281	-0.326186
C138	C	0.175640	-0.728281	-0.076186
C139	C	0.425640	-0.478281	0.173814
C140	C	0.675640	-0.228281	0.423814
C141	C	-0.039001	-0.935007	-0.369466
C142	C	0.210999	-0.685007	-0.119466
C143	C	0.460999	-0.435007	0.130534
C144	C	0.710999	-0.185007	0.380534
C145	C	0.031688	-0.935015	-0.369471
C146	C	0.281688	-0.685015	-0.119471
C147	C	0.531688	-0.435015	0.130529
C148	C	0.781688	-0.185015	0.380529
C149	C	0.067016	-0.978295	-0.326192
C150	C	0.317016	-0.728295	-0.076192
C151	C	0.567016	-0.478295	0.173808
C152	C	0.817016	-0.228295	0.423808
C153	C	0.031652	-1.021574	-0.282910
C154	C	0.281652	-0.771574	-0.032910
C155	C	0.531652	-0.521574	0.217090
C156	C	0.781652	-0.271574	0.467090
C157	C	-0.039035	-1.021569	-0.282909
C158	C	0.210965	-0.771569	-0.032909
C159	C	0.460965	-0.521569	0.217091
C160	C	0.710965	-0.271569	0.467091
C161	C	0.316725	-1.021597	-0.282915
C162	C	0.566725	-0.771597	-0.032915
C163	C	0.816725	-0.521597	0.217085
C164	C	1.066725	-0.271597	0.467085
C165	C	0.387417	-1.021597	-0.282918
C166	C	0.637417	-0.771597	-0.032918
C167	C	0.887417	-0.521597	0.217082
C168	C	1.137417	-0.271597	0.467082
C169	C	0.387448	-0.935043	-0.369477
C170	C	0.637448	-0.685043	-0.119477
C171	C	0.887448	-0.435043	0.130523
C172	C	1.137448	-0.185043	0.380523
C173	C	0.316761	-0.935038	-0.369476
C174	C	0.566761	-0.685038	-0.119476
C175	C	0.816761	-0.435038	0.130524
C176	C	1.066761	-0.185038	0.380524
C177	C	0.281403	-0.978319	-0.326196
C178	C	0.531403	-0.728319	-0.076196
C179	C	0.781403	-0.478319	0.173804
C180	C	1.031403	-0.228319	0.423804
C181	C	0.204755	-0.978311	-0.326192
C182	C	0.454755	-0.728311	-0.076192
C183	C	0.704755	-0.478311	0.173808
C184	C	0.954755	-0.228311	0.423808
C185	C	0.143663	-0.978300	-0.326192
C186	C	0.393663	-0.728300	-0.076192
C187	C	0.643663	-0.478300	0.173808
C188	C	0.893663	-0.228300	0.423808
C189	C	-0.326092	-0.978297	-0.502715
C190	C	-0.076092	-0.728297	-0.252715
C191	C	0.173908	-0.478297	-0.002715
C192	C	0.423908	-0.228297	0.247285
C193	C	-0.326074	-0.978313	-0.577947
C194	C	-0.076074	-0.728313	-0.327947
C195	C	0.173926	-0.478313	-0.077947
C196	C	0.423926	-0.228313	0.172053
C197	C	-0.326155	-0.154802	-0.326187
C198	C	-0.076155	0.095198	-0.076187
C199	C	0.173845	0.345198	0.173813
C200	C	0.423845	0.595198	0.423813
C201	C	-0.326150	-0.230034	-0.326178
C202	C	-0.076150	0.019966	-0.076178
C203	C	0.173850	0.269966	0.173822
C204	C	0.423850	0.519966	0.423822
C205	C	-0.282787	-1.021609	-0.613300
C206	C	-0.032787	-0.771609	-0.363300
C207	C	0.217213	-0.521609	-0.113300
C208	C	0.467213	-0.271609	0.136700
C209	C	-0.282768	-1.021616	-0.683988
C210	C	-0.032768	-0.771616	-0.433988
C211	C	0.217232	-0.521616	-0.183988
C212	C	0.467232	-0.271616	0.066012
C213	C	-0.326038	-0.978330	-0.719322
C214	C	-0.076038	-0.728330	-0.469322
C215	C	0.173962	-0.478330	-0.219322
C216	C	0.423962	-0.228330	0.030678
C217	C	-0.369327	-0.935030	-0.683965
C218	C	-0.119327	-0.685030	-0.433965
C219	C	0.130673	-0.435030	-0.183965
C220	C	0.380673	-0.185030	0.066035
C221	C	-0.369342	-0.935020	-0.613277
C222	C	-0.119342	-0.685020	-0.363277
C223	C	0.130658	-0.435020	-0.113277
C224	C	0.380658	-0.185020	0.136723
C225	C	-0.369263	-0.935068	-0.969038
C226	C	-0.119263	-0.685068	-0.719038
C227	C	0.130737	-0.435068	-0.469038
C228	C	0.380737	-0.185068	-0.219038
C229	C	-0.369246	-0.935083	-1.039730
C230	C	-0.119246	-0.685083	-0.789730
C231	C	0.130754	-0.435083	-0.539730
C232	C	0.380754	-0.185083	-0.289730
C233	C	-0.282689	-1.021664	-1.039749
C234	C	-0.032689	-0.771664	-0.789749
C235	C	0.217311	-0.521664	-0.539749
C236	C	0.467311	-0.271664	-0.289749
C237	C	-0.282704	-1.021654	-0.969062
C238	C	-0.032704	-0.771654	-0.719062
C239	C	0.217296	-0.521654	-0.469062
C240	C	0.467296	-0.271654	-0.219062
C241	C	-0.325990	-0.978352	-0.933710
C242	C	-0.075990	-0.728352	-0.683710
C243	C	0.174010	-0.478352	-0.433710
C244	C	0.424010	-0.228352	-0.183710
C245	C	-0.326010	-0.978344	-0.857061
C246	C	-0.076010	-0.728344	-0.607061
C247	C	0.173990	-0.478344	-0.357061
C248	C	0.423990	-0.228344	-0.107061
C249	C	-0.326022	-0.978341	-0.795970
C250	C	-0.076022	-0.728341	-0.545970
C251	C	0.173978	-0.478341	-0.295970
C252	C	0.423978	-0.228341	-0.045970
C253	C	-0.326128	-0.978260	-0.150316
C254	C	-0.076128	-0.728260	0.099684
C255	C	0.173872	-0.478260	0.349684
C256	C	0.423872	-0.228260	0.599684
C257	C	-0.325955	-0.978375	-0.075084
C258	C	-0.075955	-0.728375	0.174916
C259	C	0.174045	-0.478375	0.424916
C260	C	0.424045	-0.228375	0.674916
H261	H	-0.404585	-0.236580	-0.247516
H262	H	-0.154585	0.013420	0.002484
H263	H	0.095415	0.263420	0.252484
H264	H	0.345415	0.513420	0.502484
H265	H	-0.404556	-0.899784	-0.712739
H266	H	-0.154556	-0.649784	-0.462739
H267	H	0.095444	-0.399784	-0.212739
H268	H	0.345444	-0.149784	0.037261
F269	F	0.069253	-1.067640	-0.236853
F270	F	0.319253	-0.817640	0.013147
F271	F	0.569253	-0.567640	0.263147
F272	F	0.819253	-0.317640	0.513147
H273	H	-0.404584	-0.899758	-0.584494
H274	H	-0.154584	-0.649758	-0.334494
H275	H	0.095416	-0.399758	-0.084494
H276	H	0.345416	-0.149758	0.165506
H277	H	-0.247688	-0.720623	-0.404822
H278	H	0.002312	-0.470623	-0.154822
H279	H	0.252312	-0.220623	0.095178
H280	H	0.502312	0.029377	0.345178
H281	H	-0.247696	-0.592390	-0.404825
H282	H	0.002304	-0.342390	-0.154825
H283	H	0.252304	-0.092390	0.095175
H284	H	0.502304	0.157610	0.345175
F285	F	-0.236908	-0.373705	-0.415677
F286	F	0.013092	-0.123705	-0.165677
F287	F	0.263092	0.126295	0.084323
F288	F	0.513092	0.376295	0.334323
F289	F	0.279104	-1.067660	-0.236852
F290	F	0.529104	-0.817660	0.013148
F291	F	0.779104	-0.567660	0.263148
F292	F	1.029104	-0.317660	0.513148
F293	F	-0.415366	-0.373649	-0.236650
F294	F	-0.165366	-0.123649	0.013350
F295	F	0.084634	0.126351	0.263350
F296	F	0.334634	0.376351	0.513350
F297	F	-0.236918	-0.227787	-0.415686
F298	F	0.013082	0.022213	-0.165686
F299	F	0.263082	0.272213	0.084314
F300	F	0.513082	0.522213	0.334314
H301	H	-0.404547	-0.592338	-0.247498
H302	H	-0.154547	-0.342338	0.002502
H303	H	0.095453	-0.092338	0.252502
H304	H	0.345453	0.157662	0.502502
H305	H	-0.404542	-0.720583	-0.247490
H306	H	-0.154542	-0.470583	0.002510
H307	H	0.095458	-0.220583	0.252510
H308	H	0.345458	0.029417	0.502510
H309	H	-0.067760	-0.899764	-0.404710
H310	H	0.182240	-0.649764	-0.154710
H311	H	0.432240	-0.399764	0.095290
H312	H	0.682240	-0.149764	0.345290
H313	H	0.288000	-0.899793	-0.404716
H314	H	0.538000	-0.649793	-0.154716
H315	H	0.788000	-0.399793	0.095284
H316	H	1.038000	-0.149793	0.345284
F317	F	0.069316	-0.888958	-0.415538
F318	F	0.319316	-0.638958	-0.165538
F319	F	0.569316	-0.388958	0.084462
F320	F	0.819316	-0.138958	0.334462
H321	H	0.416244	-0.899803	-0.404719
H322	H	0.666244	-0.649803	-0.154719
H323	H	0.916244	-0.399803	0.095281
H324	H	1.166244	-0.149803	0.345281
H325	H	0.416181	-1.056843	-0.247673
H326	H	0.666181	-0.806843	0.002327
H327	H	0.916181	-0.556843	0.252327
H328	H	1.166181	-0.306843	0.502327
H329	H	-0.247441	-1.056920	-1.068541
H330	H	0.002559	-0.806920	-0.818541
H331	H	0.252559	-0.556920	-0.568541
H332	H	0.502559	-0.306920	-0.318541
F333	F	-0.076666	-1.067629	-0.236846
F334	F	0.173334	-0.817629	0.013154
F335	F	0.423334	-0.567629	0.263154
F336	F	0.673334	-0.317629	0.513154
H337	H	-0.247553	-1.056859	-0.584536
H338	H	0.002447	-0.806859	-0.334536
H339	H	0.252447	-0.556859	-0.084536
H340	H	0.502447	-0.306859	0.165464
H341	H	-0.247521	-1.056872	-0.712769
H342	H	0.002479	-0.806872	-0.462769
H343	H	0.252479	-0.556872	-0.212769
H344	H	0.502479	-0.306872	0.037231
H345	H	-0.247471	-1.056903	-0.940296
H346	H	0.002529	-0.806903	-0.690296
H347	H	0.252529	-0.556903	-0.440296
H348	H	0.502529	-0.306903	-0.190296
F349	F	-0.415302	-0.889010	-1.077334
F350	F	-0.165302	-0.639010	-0.827334
F351	F	0.084698	-0.389010	-0.577334
F352	F	0.334698	-0.139010	-0.327334
H353	H	-0.404519	-0.899819	-0.940263
H354	H	-0.154519	-0.649819	-0.690263
H355	H	0.095481	-0.399819	-0.440263
H356	H	0.345481	-0.149819	-0.190263
