data_functionalizedCrystal
_audit_creation_method	'MofGen! by Chris Wilmer'
_symmetry_space_group_name_H-M	'P1'
_symmetry_Int_Tables_number	1
_symmetry_cell_setting	triclinic
loop_
_symmetry_equiv_pos_as_xyz
  x,y,z
_cell_length_a	19.805407
_cell_length_b	12.759400
_cell_length_c	19.805399
_cell_angle_alpha	89.977448
_cell_angle_beta	89.979591
_cell_angle_gamma	90.016585
loop_
_atom_site_label
_atom_site_type_symbol
_atom_site_fract_x
_atom_site_fract_y
_atom_site_fract_z
Zn1	Zn	1.034791	-0.418236	-0.382758
Zn2	Zn	1.534791	0.081764	0.117242
Zn3	Zn	1.034729	-0.593930	-0.269580
Zn4	Zn	1.534729	-0.093930	0.230420
Zn5	Zn	0.921606	-0.418271	-0.269581
Zn6	Zn	1.421606	0.081729	0.230419
Zn7	Zn	0.921592	-0.593880	-0.382725
Zn8	Zn	1.421592	-0.093880	0.117275
O9	O	0.978180	-0.506079	-0.326161
O10	O	1.478180	-0.006079	0.173839
O11	O	1.129499	-0.441549	-0.367758
O12	O	1.629499	0.058451	0.132242
O13	O	1.019703	-0.570664	-0.174864
O14	O	1.519703	-0.070664	0.325136
O15	O	0.936651	-0.271245	-0.284609
O16	O	1.436651	0.228755	0.215391
O17	O	1.129454	-0.570630	-0.284607
O18	O	1.629454	-0.070630	0.215393
O19	O	1.019808	-0.271220	-0.367760
O20	O	1.519808	0.228780	0.132240
O21	O	0.936591	-0.441608	-0.174865
O22	O	1.436591	0.058392	0.325135
O23	O	0.826887	-0.441560	-0.284577
O24	O	1.326887	0.058440	0.215423
O25	O	0.936629	-0.570545	-0.477446
O26	O	1.436629	-0.070545	0.022554
O27	O	0.826878	-0.570579	-0.367703
O28	O	1.326878	-0.070579	0.132297
O29	O	1.019795	-0.441500	-0.477471
O30	O	1.519795	0.058500	0.022529
O31	O	1.019690	-0.740944	-0.284575
O32	O	1.519690	-0.240944	0.215425
O33	O	0.936569	-0.740907	-0.367702
O34	O	1.436569	-0.240907	0.132298
C35	C	0.802324	-0.506068	-0.326137
C36	C	1.302324	-0.006068	0.173863
C37	C	0.727092	-0.506089	-0.326142
C38	C	1.227092	-0.006089	0.173858
C39	C	0.265328	-0.438992	-0.369551
C40	C	0.765328	0.061008	0.130449
C41	C	0.336016	-0.438994	-0.369546
C42	C	0.836016	0.061006	0.130454
C43	C	0.371330	-0.506095	-0.326183
C44	C	0.871330	-0.006095	0.173817
C45	C	0.335951	-0.573206	-0.282827
C46	C	0.835951	-0.073206	0.217173
C47	C	0.265264	-0.573209	-0.282836
C48	C	0.765264	-0.073209	0.217164
C49	C	0.621025	-0.573198	-0.282791
C50	C	1.121025	-0.073198	0.217209
C51	C	0.691717	-0.573188	-0.282785
C52	C	1.191717	-0.073188	0.217215
C53	C	0.691777	-0.438984	-0.369501
C54	C	1.191777	0.061016	0.130499
C55	C	0.621089	-0.438986	-0.369510
C56	C	1.121089	0.061014	0.130490
C57	C	0.585717	-0.506100	-0.326157
C58	C	1.085717	-0.006100	0.173843
C59	C	0.509069	-0.506099	-0.326164
C60	C	1.009069	-0.006099	0.173836
C61	C	0.447977	-0.506092	-0.326173
C62	C	0.947977	-0.006092	0.173827
C63	C	0.978140	-0.779047	-0.326149
C64	C	1.478140	-0.279047	0.173851
C65	C	0.978184	-0.895823	-0.326167
C66	C	1.478184	-0.395823	0.173833
C67	C	1.021465	-0.950582	-0.369500
C68	C	1.521465	-0.450582	0.130500
C69	C	1.021503	-1.060306	-0.369519
C70	C	1.521503	-0.560306	0.130481
C71	C	0.934978	-1.060503	-0.282864
C72	C	1.434978	-0.560503	0.217136
C73	C	0.934937	-0.950781	-0.282850
C74	C	1.434937	-0.450781	0.217150
C75	C	1.045696	-1.210149	-0.449386
C76	C	1.545696	-0.710149	0.050614
C77	C	1.088987	-1.264912	-0.492713
C78	C	1.588987	-0.764912	0.007287
C79	C	1.155012	-1.229202	-0.503162
C80	C	1.655012	-0.729202	-0.003162
C81	C	1.177758	-1.138732	-0.470274
C82	C	1.677758	-0.638732	0.029726
C83	C	1.134470	-1.083975	-0.426941
C84	C	1.634470	-0.583975	0.073059
C85	C	1.068437	-1.119683	-0.416505
C86	C	1.568437	-0.619683	0.083495
C87	C	0.910751	-0.800935	-0.202982
C88	C	1.410751	-0.300935	0.297018
C89	C	0.867466	-0.746177	-0.159645
C90	C	1.367466	-0.246177	0.340355
C91	C	0.801440	-0.781884	-0.149189
C92	C	1.301440	-0.281884	0.350811
C93	C	0.778697	-0.872358	-0.182066
C94	C	1.278697	-0.372358	0.317934
C95	C	0.821981	-0.927116	-0.225402
C96	C	1.321981	-0.427116	0.274598
C97	C	0.888006	-0.891401	-0.235859
C98	C	1.388006	-0.391401	0.264141
C99	C	1.154722	-0.506091	-0.326186
C100	C	1.654722	-0.006091	0.173814
C101	C	1.229954	-0.506096	-0.326197
C102	C	1.729954	-0.006096	0.173803
C103	C	0.978218	-0.506013	-0.502704
C104	C	1.478218	-0.006013	-0.002704
C105	C	0.978234	-0.505985	-0.577936
C106	C	1.478234	-0.005985	-0.077936
C107	C	0.978238	-0.232046	-0.326188
C108	C	1.478238	0.267954	0.173812
C109	C	0.978263	-0.115269	-0.326200
C110	C	1.478263	0.384731	0.173800
C111	C	1.021539	-0.438788	-0.613294
C112	C	1.521539	0.061212	-0.113294
C113	C	1.021546	-0.438757	-0.683983
C114	C	1.521546	0.061243	-0.183983
C115	C	0.978251	-0.505930	-0.719312
C116	C	1.478251	-0.005930	-0.219312
C117	C	0.934940	-0.573130	-0.683949
C118	C	1.434940	-0.073130	-0.183949
C119	C	0.934930	-0.573154	-0.613262
C120	C	1.434930	-0.073154	-0.113262
C121	C	0.934978	-0.573032	-0.969022
C122	C	1.434978	-0.073032	-0.469022
C123	C	0.934993	-0.573004	-1.039714
C124	C	1.434993	-0.073004	-0.539714
C125	C	1.021594	-0.438635	-1.039743
C126	C	1.521594	0.061365	-0.539743
C127	C	1.021585	-0.438660	-0.969056
C128	C	1.521585	0.061340	-0.469056
C129	C	0.978272	-0.505855	-0.933699
C130	C	1.478272	-0.005855	-0.433699
C131	C	0.978264	-0.505886	-0.857051
C132	C	1.478264	-0.005886	-0.357051
C133	C	0.978261	-0.505905	-0.795959
C134	C	1.478261	-0.005905	-0.295959
C135	C	0.978181	-0.506069	-0.150305
C136	C	1.478181	-0.006069	0.349695
C137	C	0.978296	-0.505801	-0.075074
C138	C	1.478296	-0.005801	0.424926
H139	H	0.592233	-0.627844	-0.247489
H140	H	1.092233	-0.127844	0.252511
H141	H	0.364709	-0.627845	-0.247523
H142	H	0.864709	-0.127845	0.252477
N143	N	1.068261	-0.366275	-0.722106
N144	N	1.568261	0.133725	-0.222106
H145	H	1.099624	-0.408957	-0.751439
H146	H	1.599624	0.091043	-0.251439
H147	H	1.040726	-0.317578	-0.751391
H148	H	1.540726	0.182422	-0.251391
H149	H	0.720467	-0.627834	-0.247472
H150	H	1.220467	-0.127834	0.252528
H151	H	0.236464	-0.627853	-0.247534
H152	H	0.736464	-0.127853	0.252466
H153	H	0.899685	-0.627819	-0.712720
H154	H	1.399685	-0.127819	-0.212720
H155	H	1.056798	-0.384092	-0.584534
H156	H	1.556798	0.115908	-0.084534
N157	N	1.068107	-0.891304	-0.416220
N158	N	1.568107	-0.391304	0.083780
H159	H	1.095529	-0.942647	-0.443675
H160	H	1.595529	-0.442647	0.056325
H161	H	1.040520	-0.845787	-0.447510
H162	H	1.540520	-0.345787	0.052490
H163	H	0.899720	-0.627762	-0.940243
H164	H	1.399720	-0.127762	-0.440243
N165	N	0.707485	-0.910883	-0.170787
N166	N	1.207485	-0.410883	0.329213
H167	H	0.674422	-0.854999	-0.185300
H168	H	1.174422	-0.354999	0.314700
H169	H	0.699709	-0.976523	-0.198188
H170	H	1.199709	-0.476523	0.301812
H171	H	0.766199	-0.737290	-0.113899
H172	H	1.266199	-0.237290	0.386101
H173	H	0.885991	-0.672511	-0.132873
H174	H	1.385991	-0.172511	0.367127
H175	H	1.231525	-1.109672	-0.478779
H176	H	1.731525	-0.609672	0.021221
N177	N	0.583004	-0.366620	-0.416286
N178	N	1.083004	0.133380	0.083714
H179	H	0.532856	-0.376805	-0.409713
H180	H	1.032856	0.123195	0.090287
H181	H	0.595365	-0.291562	-0.405835
H182	H	1.095365	0.208438	0.094165
H183	H	1.190260	-1.273798	-0.538441
H184	H	1.690260	-0.773798	-0.038441
N185	N	0.888216	-0.645620	-0.575122
N186	N	1.388216	-0.145620	-0.075122
H187	H	0.860788	-0.688170	-0.608228
H188	H	1.360788	-0.188170	-0.108228
H189	H	0.915747	-0.694255	-0.545790
H190	H	1.415747	-0.194255	-0.045790
H191	H	1.056843	-0.383964	-0.940294
H192	H	1.556843	0.116036	-0.440294
N193	N	1.158995	-0.986407	-0.391467
N194	N	1.658995	-0.486407	0.108533
H195	H	1.207393	-0.972094	-0.404657
H196	H	1.707393	-0.472094	0.095343
H197	H	1.129851	-0.924954	-0.404999
H198	H	1.629851	-0.424954	0.095001
H199	H	0.236580	-0.384344	-0.404858
H200	H	0.736580	0.115656	0.095142
N201	N	1.068300	-0.366148	-1.077885
N202	N	1.568300	0.133852	-0.577885
H203	H	1.057803	-0.291086	-1.065586
H204	H	1.557803	0.208914	-0.565586
H205	H	1.116638	-0.382563	-1.065581
H206	H	1.616638	0.117437	-0.565581
H207	H	0.991932	-1.239226	-0.440888
H208	H	1.491932	-0.739226	0.059112
N209	N	0.981962	-0.762408	-0.214273
N210	N	1.481962	-0.262408	0.285727
H211	H	0.989803	-0.696787	-0.186868
H212	H	1.489803	-0.196787	0.313132
H213	H	1.014983	-0.818359	-0.199777
H214	H	1.514983	-0.318359	0.300223
H215	H	0.364814	-0.384355	-0.404851
H216	H	0.864814	0.115645	0.095149
N217	N	0.888340	-1.119779	-0.236139
N218	N	1.388340	-0.619779	0.263861
H219	H	0.894936	-1.197597	-0.242720
H220	H	1.394936	-0.697597	0.257280
H221	H	0.898902	-1.100623	-0.187809
H222	H	1.398902	-0.600623	0.312191
H223	H	0.899733	-0.627706	-1.068478
H224	H	1.399733	-0.127706	-0.568478
N225	N	0.729928	-0.366611	-0.416275
N226	N	1.229928	0.133389	0.083725
H227	H	0.780067	-0.376795	-0.409697
H228	H	1.280067	0.123205	0.090303
H229	H	0.717584	-0.383074	-0.464594
H230	H	1.217584	0.116926	0.035406
H231	H	1.070461	-1.338573	-0.519491
H232	H	1.570461	-0.838573	-0.019491
N233	N	0.797454	-1.024701	-0.260863
N234	N	1.297454	-0.524701	0.239137
H235	H	0.749059	-1.039018	-0.247664
H236	H	1.249059	-0.539018	0.252336
H237	H	0.800358	-1.014185	-0.311325
H238	H	1.300358	-0.514185	0.188675
