data_functionalizedCrystal
_audit_creation_method	'MofGen! by Chris Wilmer'
_symmetry_space_group_name_H-M	'P1'
_symmetry_Int_Tables_number	1
_symmetry_cell_setting	triclinic
loop_
_symmetry_equiv_pos_as_xyz
  x,y,z
_cell_length_a	27.440280
_cell_length_b	23.196402
_cell_length_c	27.440280
_cell_angle_alpha	90.002631
_cell_angle_beta	60.004742
_cell_angle_gamma	60.005820
loop_
_atom_site_label
_atom_site_type_symbol
_atom_site_fract_x
_atom_site_fract_y
_atom_site_fract_z
Zr1	Zr	0.533389	0.555442	-0.063960
O2	O	0.635041	0.463406	-0.141766
O3	O	0.431731	0.583645	-0.040109
O4	O	0.533381	0.583659	-0.141770
O5	O	0.533400	0.463394	0.040089
O6	O	0.533382	0.678529	-0.141773
O7	O	0.533391	0.463392	-0.040104
O8	O	0.351549	0.678504	0.040081
O9	O	0.715233	0.463418	-0.141765
O10	O	0.473548	0.666487	-0.029938
O11	O	0.473554	0.595688	0.029912
O12	O	0.593234	0.595704	-0.089782
O13	O	0.593240	0.524905	-0.029932
Zr14	Zr	0.533406	0.706751	0.063935
Zr15	Zr	0.533391	0.706749	-0.063964
Zr16	Zr	0.533404	0.555444	0.063940
Zr17	Zr	0.661287	0.555462	-0.063958
Zr18	Zr	0.405509	0.706731	0.063934
O19	O	0.635065	0.678548	0.040084
O20	O	0.635044	0.678545	-0.141772
O21	O	0.635062	0.463409	0.040091
O22	O	0.431755	0.798787	0.141741
O23	O	0.431734	0.798784	-0.040115
O24	O	0.431752	0.583648	0.141747
O25	O	0.533395	0.798799	-0.040114
O26	O	0.533415	0.678534	0.141746
O27	O	0.533414	0.583664	0.141749
O28	O	0.533405	0.798801	0.040079
O29	O	0.715235	0.583687	-0.141768
O30	O	0.351561	0.678506	0.141744
O31	O	0.351563	0.798775	0.141740
O32	O	0.351551	0.798773	0.040077
O33	O	0.715245	0.463420	-0.040102
O34	O	0.715247	0.583689	-0.040105
O35	O	0.473562	0.666489	0.089757
O36	O	0.473556	0.737288	0.029908
O37	O	0.593242	0.666505	-0.029936
O38	O	0.593248	0.595706	0.029913
C39	C	0.373417	0.631072	-0.000014
C40	C	0.319122	0.631064	-0.000015
C41	C	-0.017624	0.668073	-0.031248
C42	C	-0.068647	0.668079	-0.031246
O43	O	-0.095056	0.699531	-0.057797
N44	N	-0.094160	0.631122	-0.000007
C45	C	-0.068652	0.594162	0.031238
O46	O	-0.095038	0.562728	0.057811
C47	C	-0.017632	0.594160	0.031240
C48	C	0.007883	0.631114	-0.000007
C49	C	0.007891	0.705024	-0.062491
C50	C	0.058912	0.705016	-0.062494
C51	C	0.084419	0.668057	-0.031253
C52	C	0.058904	0.631106	-0.000009
C53	C	0.007872	0.557204	0.062488
C54	C	0.058894	0.557206	0.062487
C55	C	0.084410	0.594160	0.031241
C56	C	0.135432	0.594139	0.031230
N57	N	0.160945	0.631096	-0.000010
C58	C	0.135438	0.668055	-0.031251
C59	C	-0.175797	0.594170	0.031234
C60	C	-0.226812	0.594167	0.031229
C61	C	-0.226805	0.668085	-0.031255
C62	C	-0.175786	0.668083	-0.031253
C63	C	-0.150284	0.631127	-0.000006
C64	C	0.242587	0.668036	-0.031254
C65	C	0.293615	0.668023	-0.031256
C66	C	0.293601	0.594108	0.031230
C67	C	0.242580	0.594118	0.031230
C68	C	0.217073	0.631087	-0.000014
O69	O	0.161871	0.562706	0.057769
O70	O	0.161825	0.699492	-0.057813
C71	C	0.533396	0.441835	-0.000007
C72	C	0.533395	0.377601	-0.000005
C73	C	0.470922	0.384374	0.031227
C74	C	0.470921	0.324020	0.031230
C75	C	0.533396	0.256893	-0.000011
C76	C	0.595877	0.250123	-0.031245
C77	C	0.595876	0.310477	-0.031242
C78	C	0.581258	0.132970	-0.052343
C79	C	0.581256	0.072619	-0.052348
C80	C	0.533402	0.070739	-0.000021
C81	C	0.485537	0.129225	0.052311
C82	C	0.485536	0.189579	0.052315
C83	C	0.533404	0.191445	-0.000018
C84	C	0.470924	0.012072	0.031217
C85	C	0.470925	-0.048285	0.031221
C86	C	0.595883	-0.122183	-0.031260
C87	C	0.595880	-0.061826	-0.031258
C88	C	0.533398	0.005299	-0.000021
C89	C	0.693378	0.631121	-0.000010
C90	C	0.747674	0.631129	-0.000010
C91	C	0.533379	0.631094	-0.159995
C92	C	0.533373	0.631093	-0.214291
C93	C	0.533400	0.820358	-0.000018
C94	C	0.533401	0.884592	-0.000020
C95	C	0.595884	0.594155	-0.582263
C96	C	0.595888	0.594157	-0.633286
O97	O	0.649020	0.562756	-0.686240
N98	N	0.533414	0.631103	-0.627565
C99	C	0.470932	0.668056	-0.570818
O100	O	0.417793	0.699483	-0.570637
C101	C	0.470929	0.668058	-0.519797
C102	C	0.533407	0.631103	-0.525522
C103	C	0.658357	0.557203	-0.587986
C104	C	0.658353	0.557200	-0.536967
C105	C	0.595876	0.594149	-0.480226
C106	C	0.533403	0.631100	-0.474503
C107	C	0.408448	0.705015	-0.463050
C108	C	0.408450	0.705014	-0.412029
C109	C	0.470928	0.668059	-0.417754
C110	C	0.470922	0.668045	-0.366743
N111	N	0.533396	0.631099	-0.372463
C112	C	0.595873	0.594150	-0.429205
C113	C	0.470943	0.668051	-0.677967
C114	C	0.470946	0.668046	-0.728987
C115	C	0.595902	0.594147	-0.791452
C116	C	0.595899	0.594149	-0.740431
C117	C	0.533417	0.631104	-0.683688
C118	C	0.595859	0.594147	-0.322059
C119	C	0.595850	0.594144	-0.271033
C120	C	0.470894	0.668046	-0.208573
C121	C	0.470904	0.668045	-0.259594
C122	C	0.533392	0.631094	-0.316339
O123	O	0.417817	0.699433	-0.313769
O124	O	0.649002	0.562737	-0.429375
C125	C	0.533417	0.631099	0.159970
C126	C	0.533423	0.631100	0.214267
C127	C	0.373420	0.820334	-0.000020
C128	C	0.319125	0.884559	-0.000022
C129	C	0.373436	0.631075	0.159968
C130	C	0.319147	0.631067	0.214264
C131	C	0.373439	0.820336	0.159963
C132	C	0.319150	0.884563	0.214257
C133	C	0.693357	0.441857	-0.159987
C134	C	0.747646	0.377630	-0.214281
C135	C	0.693376	0.441859	-0.000005
C136	C	0.747671	0.377634	-0.000002
C137	C	0.693360	0.631118	-0.159993
C138	C	0.747649	0.631126	-0.214289
C139	C	0.293623	0.877762	-0.031267
C140	C	0.242614	0.938103	-0.031282
C141	C	0.217104	1.005240	-0.000047
C142	C	0.242611	1.012035	0.031199
C143	C	0.293623	0.951695	0.031210
C144	C	0.293656	0.668022	0.271006
C145	C	0.242652	0.668012	0.322028
C146	C	0.217137	0.631052	0.316306
C147	C	0.242633	0.594093	0.259558
C148	C	0.293639	0.594099	0.208538
C149	C	0.293652	0.951687	0.208513
C150	C	0.242649	1.012040	0.259523
C151	C	0.217142	1.005267	0.316276
C152	C	0.242644	0.938136	0.322019
C153	C	0.293650	0.877784	0.271009
C154	C	0.773150	0.310506	-0.208537
C155	C	0.824169	0.250153	-0.259548
C156	C	0.849679	0.256926	-0.316301
C157	C	0.824173	0.324057	-0.322044
C158	C	0.773159	0.384409	-0.271034
C159	C	0.773178	0.384431	0.031238
C160	C	0.824201	0.324090	0.031238
C161	C	0.849713	0.256953	0.000001
C162	C	0.824204	0.250158	-0.031242
C163	C	0.773185	0.310498	-0.031246
C164	C	0.773149	0.668093	-0.208548
C165	C	0.824153	0.668113	-0.259560
C166	C	0.849660	0.631162	-0.316312
C167	C	0.824156	0.594194	-0.322051
C168	C	0.773149	0.594178	-0.271040
H169	H	-0.012873	0.735124	-0.087931
Cl170	Cl	0.152973	1.081090	-0.000065
H171	H	0.221890	1.066696	0.254837
H172	H	0.221868	0.932632	0.368234
H173	H	0.079656	0.527110	0.087932
Cl174	Cl	0.741090	0.301974	-0.137197
Cl175	Cl	0.325685	0.793369	-0.070542
Cl176	Cl	0.210531	1.096441	0.070466
Cl177	Cl	0.856280	0.165752	-0.070506
H178	H	0.844927	0.195498	-0.254860
Cl179	Cl	0.325671	0.960252	0.070498
H180	H	0.844932	0.564109	-0.368266
Cl181	Cl	-0.143738	0.547698	0.070515
Cl182	Cl	0.674417	0.547692	-0.393388
Cl183	Cl	0.210608	0.714481	0.393360
Cl184	Cl	0.153013	0.631053	0.380453
H185	H	0.221850	0.564001	0.254908
Cl186	Cl	0.913786	0.631187	-0.380435
H187	H	0.357569	0.735109	-0.365827
Cl188	Cl	0.856209	0.714587	-0.252331
H189	H	-0.247575	0.564066	0.056665
H190	H	0.314387	0.564009	0.162338
H191	H	0.357572	0.735108	-0.458377
H192	H	0.314413	0.957215	0.162306
Cl193	Cl	0.913811	0.181047	-0.380422
H194	H	0.314425	0.698119	0.275676
Cl195	Cl	0.856248	0.332559	-0.393395
Cl196	Cl	0.741106	0.547692	-0.278268
Cl197	Cl	0.641426	0.135322	-0.118133
Cl198	Cl	0.153018	1.081146	0.380398
Cl199	Cl	0.741098	0.468791	-0.278265
H200	H	0.314403	0.823131	0.275694
Cl201	Cl	0.741120	0.468824	0.070508
Cl202	Cl	0.856256	0.332649	0.070522
Cl203	Cl	0.210556	0.929544	-0.070563
Cl204	Cl	0.913850	0.181103	0.000013
Cl205	Cl	0.741121	0.301941	-0.070518
Cl206	Cl	0.741092	0.714553	-0.137209
Cl207	Cl	-0.258882	0.714551	-0.070528
H208	H	0.314389	0.698114	-0.056703
Cl209	Cl	0.736901	0.510728	-0.544174
Cl210	Cl	0.674418	0.165735	-0.070517
Cl211	Cl	0.210511	0.547651	0.070503
Cl212	Cl	0.090978	0.751479	-0.101774
Cl213	Cl	0.210528	0.714514	-0.070531
H214	H	-0.155014	0.698175	-0.056697
H215	H	-0.012895	0.527114	0.087933
H216	H	0.314380	0.564014	0.056664
H217	H	0.420044	0.439026	0.056659
H218	H	0.420047	0.329535	0.056663
H219	H	0.446567	0.237196	0.094926
H220	H	0.446559	0.127705	0.094918
H221	H	0.420047	0.066728	0.056664
Cl222	Cl	0.392398	0.714493	-0.721782
Cl223	Cl	0.392381	-0.039767	0.070495
Cl224	Cl	0.392387	0.714505	-0.606635
H225	H	0.646752	-0.067344	-0.056695
Cl226	Cl	0.674425	-0.206566	-0.070530
Cl227	Cl	0.674420	0.301960	-0.070509
Cl228	Cl	0.641432	-0.000903	-0.118134
Cl229	Cl	0.674400	0.547678	-0.278236
H230	H	0.646774	0.564056	-0.745098
Cl231	Cl	0.736910	0.510747	-0.659315
H232	H	0.646774	0.564061	-0.837662
H233	H	0.420029	0.698127	-0.254931
H234	H	0.420027	0.698126	-0.162365
