data_functionalizedCrystal
_audit_creation_method	'MofGen! by Chris Wilmer'
_symmetry_space_group_name_H-M	'P1'
_symmetry_Int_Tables_number	1
_symmetry_cell_setting	triclinic
loop_
_symmetry_equiv_pos_as_xyz
  x,y,z
_cell_length_a	11.169417
_cell_length_b	18.101395
_cell_length_c	11.169409
_cell_angle_alpha	89.964326
_cell_angle_beta	89.980176
_cell_angle_gamma	90.031983
loop_
_atom_site_label
_atom_site_type_symbol
_atom_site_fract_x
_atom_site_fract_y
_atom_site_fract_z
Zn1	Zn	1.834789	-0.294752	-0.678515
Zn2	Zn	1.834606	-0.418619	-0.477820
Zn3	Zn	1.634075	-0.294797	-0.477849
Zn4	Zn	1.634010	-0.418558	-0.678465
O5	O	1.734370	-0.356682	-0.578162
O6	O	2.002715	-0.311190	-0.651901
O7	O	1.807956	-0.402238	-0.309874
O8	O	1.660804	-0.191159	-0.504501
O9	O	2.002580	-0.402194	-0.504451
O10	O	1.808268	-0.191125	-0.651929
O11	O	1.660626	-0.311267	-0.309896
O12	O	1.466117	-0.311208	-0.504453
O13	O	1.660693	-0.402091	-0.846421
O14	O	1.466069	-0.402135	-0.651844
O15	O	1.808205	-0.311131	-0.846458
O16	O	1.807892	-0.522244	-0.504403
O17	O	1.660515	-0.522199	-0.651816
C18	C	1.422545	-0.356670	-0.578147
C19	C	1.289145	-0.356684	-0.578169
C20	C	1.734209	-0.549092	-0.578127
C21	C	1.734250	-0.631406	-0.578152
C22	C	1.734514	-0.930497	-0.578217
C23	C	1.642003	-0.899175	-0.671195
C24	C	1.641564	-0.813557	-0.670904
C25	C	1.734383	-0.782115	-0.578186
C26	C	1.700132	-0.813278	-0.451699
C27	C	1.699535	-0.898923	-0.452255
C28	C	1.861478	-0.898837	-0.610612
C29	C	1.860732	-0.813186	-0.613386
C30	C	1.734311	-0.698255	-0.578160
C31	C	1.734583	-1.014357	-0.578234
C32	C	2.047412	-0.356694	-0.578178
C33	C	2.180812	-0.356699	-0.578185
C34	C	1.734462	-0.356599	-0.891205
C35	C	1.734501	-0.356564	-1.024605
C36	C	1.734564	-0.163520	-0.578224
C37	C	1.734647	-0.081206	-0.578250
C38	C	1.734347	-0.356710	-0.266338
C39	C	1.734541	-0.356537	-0.132938
H40	H	1.662994	-0.792484	-0.764693
C41	C	1.895088	-0.786181	-0.737622
C42	C	1.912201	-0.846950	-0.813195
C43	C	1.943806	-0.822106	-0.927665
H44	H	1.967088	-0.758375	-0.733041
H45	H	1.832901	-0.755919	-0.768600
H46	H	1.974384	-0.877200	-0.782224
H47	H	1.840216	-0.874762	-0.817812
H48	H	1.881619	-0.791844	-0.958643
H49	H	2.015804	-0.794300	-0.923071
H50	H	1.955411	-0.863333	-0.978958
C51	C	1.670030	-0.926595	-0.796700
C52	C	1.572216	-0.966636	-0.840695
C53	C	1.597983	-0.991902	-0.956316
H54	H	1.738609	-0.957571	-0.794377
H55	H	1.685261	-0.885590	-0.847620
H56	H	1.556999	-1.007635	-0.789788
H57	H	1.503625	-0.935675	-0.843048
H58	H	1.613215	-0.950897	-1.007236
H59	H	1.666565	-1.022875	-0.953981
H60	H	1.531618	-1.019067	-0.986185
H61	H	1.548466	-0.920764	-0.650008
H62	H	1.933304	-0.791778	-0.550600
C63	C	1.516020	-0.786467	-0.642200
C64	C	1.440266	-0.847214	-0.625054
C65	C	1.324607	-0.822288	-0.598586
H66	H	1.487034	-0.757331	-0.706727
H67	H	1.517935	-0.757495	-0.571329
H68	H	1.438346	-0.876174	-0.695916
H69	H	1.469213	-0.876357	-0.560524
H70	H	1.326522	-0.793316	-0.527715
H71	H	1.295633	-0.793152	-0.663116
H72	H	1.273196	-0.863501	-0.586938
C73	C	1.577615	-0.784927	-0.414377
C74	C	1.500294	-0.844833	-0.396464
C75	C	1.387425	-0.818747	-0.362075
H76	H	1.546371	-0.753905	-0.475446
H77	H	1.584745	-0.757625	-0.342110
H78	H	1.493161	-0.872123	-0.468722
H79	H	1.531500	-0.875861	-0.335390
H80	H	1.394555	-0.791445	-0.289808
H81	H	1.356192	-0.787725	-0.423148
H82	H	1.334952	-0.859389	-0.349906
C83	C	1.785474	-0.926416	-0.356624
C84	C	1.837707	-0.865910	-0.298602
C85	C	1.916858	-0.891205	-0.210485
H86	H	1.846267	-0.955505	-0.392823
H87	H	1.742928	-0.955521	-0.299991
H88	H	1.880251	-0.836817	-0.355225
H89	H	1.776943	-0.836815	-0.262377
H90	H	1.874312	-0.920310	-0.153852
H91	H	1.977644	-0.920294	-0.246694
H92	H	1.952299	-0.850156	-0.171099
H93	H	1.892704	-0.920376	-0.701273
C94	C	1.953384	-0.925993	-0.520436
C95	C	1.957344	-1.003288	-0.522703
C96	C	2.041995	-1.028335	-0.439661
H97	H	1.931564	-0.909825	-0.442540
H98	H	2.029953	-0.906726	-0.540481
H99	H	1.880792	-1.022547	-0.502651
H100	H	1.979179	-1.019476	-0.600579
H101	H	2.118564	-1.009068	-0.459706
H102	H	2.020167	-1.012162	-0.361771
H103	H	2.044701	-1.080782	-0.441196
H104	H	1.606724	-0.918969	-0.424813
H105	H	1.765392	-0.792913	-0.380534
