data_functionalizedCrystal
_audit_creation_method	'MofGen! by Chris Wilmer'
_symmetry_space_group_name_H-M	'P1'
_symmetry_Int_Tables_number	1
_symmetry_cell_setting	triclinic
loop_
_symmetry_equiv_pos_as_xyz
  x,y,z
_cell_length_a	10.654554
_cell_length_b	12.811415
_cell_length_c	9.130313
_cell_angle_alpha	84.567879
_cell_angle_beta	89.998999
_cell_angle_gamma	84.264023
loop_
_atom_site_label
_atom_site_type_symbol
_atom_site_fract_x
_atom_site_fract_y
_atom_site_fract_z
O1	O	1.667064	0.147445	-0.141407
O2	O	1.301513	0.161485	-0.143268
O3	O	1.493486	0.001740	-0.122046
O4	O	1.475091	0.307190	-0.162629
O5	O	1.493483	0.001745	0.121553
O6	O	1.301511	0.161490	0.100330
O7	O	1.667062	0.147449	0.102192
Cu8	Cu	1.484286	0.154470	0.123503
Cu9	Cu	1.484289	0.154465	-0.164580
O10	O	1.475089	0.307194	0.080969
C11	C	1.254720	0.160456	-0.021332
C12	C	1.115293	0.157368	-0.020921
C13	C	1.492454	-0.037369	0.004947
C14	C	1.489368	-0.153909	0.020422
C15	C	0.933250	0.057507	-0.007671
C16	C	1.064256	0.060407	-0.008042
C17	C	1.035314	0.251435	-0.033415
C18	C	0.904311	0.248533	-0.033034
C19	C	0.949961	-0.052782	0.006971
C20	C	1.080967	-0.049881	0.006601
C21	C	1.483549	-0.372894	-0.216100
C22	C	1.480649	-0.482394	-0.201567
C23	C	1.480660	-0.482410	0.064020
C24	C	1.483560	-0.372910	0.049487
C25	C	1.485006	-0.318156	-0.090578
C26	C	1.487915	-0.208655	-0.105110
C27	C	1.487916	-0.208673	0.160476
C28	C	1.485017	-0.318172	0.175009
C29	C	1.713855	0.148479	-0.019748
C30	C	1.853282	0.151566	-0.020169
C31	C	1.476121	0.346304	-0.046027
C32	C	1.479207	0.462844	-0.061512
N33	N	1.484293	0.154473	0.326125
N34	N	1.484291	0.154453	-0.367201
C35	C	1.569320	0.083762	0.412172
C36	C	1.569317	0.083749	0.565510
C37	C	1.399255	0.225168	0.546741
C38	C	1.399254	0.225174	0.393407
C39	C	1.667508	0.002118	0.423008
C40	C	1.667505	0.002105	0.576347
H41	H	0.839204	0.325126	-0.043193
H42	H	1.646485	-0.078560	0.392108
H43	H	1.758559	0.027684	0.372052
H44	H	1.330007	0.282743	0.323350
C45	C	1.626804	-0.100884	0.654273
N46	N	1.596140	-0.178450	0.712967
C47	C	1.483421	-0.378414	0.329072
N48	N	1.482221	-0.423787	0.445116
H49	H	0.920821	-0.095915	0.114640
H50	H	0.914516	-0.087902	-0.093545
C51	C	1.797727	0.026483	0.629336
N52	N	1.895795	0.044875	0.669242
H53	H	1.479472	-0.527009	0.178054
H54	H	1.330017	0.282730	0.601539
C55	C	1.091459	0.358093	-0.047572
N56	N	1.133745	0.438430	-0.058238
H57	H	1.122941	-0.091433	-0.089826
C58	C	1.142863	-0.094906	0.154675
N59	N	1.189484	-0.128816	0.266204
C60	C	1.485147	-0.312663	-0.370170
N61	N	1.486349	-0.267298	-0.486219
C62	C	1.489501	-0.148427	-0.259182
N63	N	1.490690	-0.103066	-0.375234
H64	H	1.479458	-0.526957	-0.303781
H65	H	1.489107	-0.164094	0.262686
