data_functionalizedCrystal
_audit_creation_method	'MofGen! by Chris Wilmer'
_symmetry_space_group_name_H-M	'P1'
_symmetry_Int_Tables_number	1
_symmetry_cell_setting	triclinic
loop_
_symmetry_equiv_pos_as_xyz
  x,y,z
_cell_length_a	14.519731
_cell_length_b	14.519731
_cell_length_c	9.730223
_cell_angle_alpha	89.994614
_cell_angle_beta	89.996618
_cell_angle_gamma	83.688853
loop_
_atom_site_label
_atom_site_type_symbol
_atom_site_fract_x
_atom_site_fract_y
_atom_site_fract_z
O1	O	1.223863	0.120983	-0.114296
O2	O	1.557196	0.454317	0.219037
O3	O	1.890530	0.787650	0.552371
O4	O	0.955390	0.135199	-0.114298
O5	O	1.288723	0.468533	0.219035
O6	O	1.622057	0.801866	0.552368
O7	O	1.096734	-0.006145	-0.114285
O8	O	1.430068	0.327188	0.219049
O9	O	1.763401	0.660521	0.552382
O10	O	1.082519	0.262328	-0.114310
O11	O	1.415852	0.595661	0.219024
O12	O	1.749185	0.928994	0.552357
O13	O	1.096725	-0.006149	0.114295
O14	O	1.430059	0.327184	0.447629
O15	O	1.763392	0.660518	0.780962
O16	O	0.955381	0.135195	0.114281
O17	O	1.288714	0.468529	0.447615
O18	O	1.622048	0.801862	0.780948
O19	O	1.223854	0.120979	0.114284
O20	O	1.557187	0.454313	0.447617
O21	O	1.890521	0.787646	0.780951
Zn22	Zn	1.089616	0.128087	0.150575
Zn23	Zn	1.422949	0.461420	0.483908
Zn24	Zn	1.756283	0.794753	0.817241
Zn25	Zn	1.089628	0.128092	-0.150589
Zn26	Zn	1.422961	0.461425	0.182744
Zn27	Zn	1.756295	0.794759	0.516077
O28	O	1.082509	0.262324	0.114270
O29	O	1.415843	0.595657	0.447603
O30	O	1.749176	0.928991	0.780937
C31	C	0.921026	0.134531	-0.000009
C32	C	1.254359	0.467864	0.333325
C33	C	1.587693	0.801198	0.666658
C34	C	0.818645	0.132535	-0.000009
C35	C	1.151979	0.465868	0.333324
C36	C	1.485312	0.799202	0.666657
C37	C	0.735501	0.130913	-0.000015
C38	C	1.068835	0.464247	0.333319
C39	C	1.402168	0.797580	0.666652
C40	C	0.631192	0.128887	-0.000015
C41	C	0.964526	0.462220	0.333318
C42	C	1.297859	0.795553	0.666652
C43	C	0.548053	0.127278	-0.000015
C44	C	0.881386	0.460612	0.333319
C45	C	1.214720	0.793945	0.666652
C46	C	0.443738	0.125252	-0.000018
C47	C	0.777071	0.458585	0.333316
C48	C	1.110404	0.791919	0.666649
C49	C	1.096064	-0.040507	0.000006
C50	C	1.429397	0.292827	0.333339
C51	C	1.762730	0.626160	0.666672
C52	C	1.094068	-0.142887	0.000006
C53	C	1.427401	0.190446	0.333340
C54	C	1.760734	0.523780	0.666673
C55	C	1.092446	-0.226031	0.000003
C56	C	1.425779	0.107302	0.333337
C57	C	1.759113	0.440635	0.666670
C58	C	1.090419	-0.330340	-0.000007
C59	C	1.423753	0.002993	0.333326
C60	C	1.757086	0.336326	0.666659
C61	C	1.088811	-0.413479	-0.000016
C62	C	1.422144	-0.080146	0.333317
C63	C	1.755478	0.253187	0.666651
C64	C	1.086785	-0.517795	-0.000024
C65	C	1.420118	-0.184462	0.333309
C66	C	1.753451	0.148872	0.666643
C67	C	1.258218	0.121648	-0.000009
C68	C	1.591551	0.454981	0.333324
C69	C	1.924885	0.788314	0.666658
C70	C	1.360598	0.123644	-0.000017
C71	C	1.693932	0.456977	0.333316
C72	C	2.027265	0.790310	0.666649
C73	C	1.083180	0.296685	-0.000023
C74	C	1.416513	0.630019	0.333310
C75	C	1.749847	0.963352	0.666644
C76	C	1.085176	0.399066	-0.000033
C77	C	1.418509	0.732399	0.333300
C78	C	1.751843	1.065732	0.666634
N79	N	1.089615	0.128083	0.356111
N80	N	1.422948	0.461416	0.689444
N81	N	1.756281	0.794749	1.022778
N82	N	1.089637	0.128089	-0.356126
N83	N	1.422970	0.461422	-0.022792
N84	N	1.756303	0.794755	0.310541
C85	C	1.152223	0.065522	0.428043
C86	C	1.485556	0.398855	0.761376
C87	C	1.818890	0.732188	1.094710
C88	C	1.152232	0.065522	0.571926
C89	C	1.485566	0.398855	0.905259
C90	C	1.818899	0.732189	1.238593
C91	C	1.027021	0.190653	0.571932
C92	C	1.360355	0.523986	0.905266
C93	C	1.693688	0.857319	1.238599
C94	C	1.027009	0.190647	0.428052
C95	C	1.360342	0.523980	0.761385
C96	C	1.693675	0.857314	1.094719
H97	H	1.203213	0.014578	0.630489
H98	H	1.536546	0.347911	0.963823
H99	H	1.869879	0.681245	1.297156
N100	N	1.219734	-0.001978	0.350469
N101	N	1.553067	0.331355	0.683802
N102	N	1.886401	0.664689	1.017136
H103	H	1.184415	-0.042894	0.290801
H104	H	1.517748	0.290439	0.624134
H105	H	1.851082	0.623772	0.957468
H106	H	1.260613	0.033406	0.290825
H107	H	1.593947	0.366739	0.624159
H108	H	1.927280	0.700073	0.957492
N109	N	0.959483	0.258128	0.350448
N110	N	1.292817	0.591462	0.683781
N111	N	1.626150	0.924795	1.017115
H112	H	0.918593	0.222784	0.290776
H113	H	1.251926	0.556117	0.624109
H114	H	1.585259	0.889450	0.957442
H115	H	0.919890	0.297754	0.417933
H116	H	1.253224	0.631088	0.751267
H117	H	1.586557	0.964421	1.084600
H118	H	0.976050	0.241592	0.630521
H119	H	1.309384	0.574926	0.963854
H120	H	1.642717	0.908259	1.297188
