data_functionalizedCrystal
_audit_creation_method	'MofGen! by Chris Wilmer'
_symmetry_space_group_name_H-M	'P1'
_symmetry_Int_Tables_number	1
_symmetry_cell_setting	triclinic
loop_
_symmetry_equiv_pos_as_xyz
  x,y,z
_cell_length_a	12.759401
_cell_length_b	12.759394
_cell_length_c	12.759387
_cell_angle_alpha	89.968340
_cell_angle_beta	89.978910
_cell_angle_gamma	90.016362
loop_
_atom_site_label
_atom_site_type_symbol
_atom_site_fract_x
_atom_site_fract_y
_atom_site_fract_z
Zn1	Zn	1.606267	-0.418168	-0.594015
Zn2	Zn	1.606157	-0.593885	-0.418333
Zn3	Zn	1.430565	-0.418226	-0.418350
Zn4	Zn	1.430557	-0.593811	-0.593970
O5	O	1.518387	-0.506022	-0.506167
O6	O	1.753273	-0.441485	-0.570722
O7	O	1.582822	-0.570639	-0.271314
O8	O	1.453922	-0.271197	-0.441679
O9	O	1.753193	-0.570583	-0.441649
O10	O	1.583009	-0.271155	-0.570739
O11	O	1.453815	-0.441582	-0.271327
O12	O	1.283543	-0.441510	-0.441635
O13	O	1.453908	-0.570456	-0.740997
O14	O	1.283537	-0.570512	-0.570662
O15	O	1.583001	-0.441412	-0.741030
O16	O	1.582814	-0.740897	-0.441606
O17	O	1.453802	-0.740842	-0.570646
C18	C	1.245419	-0.506010	-0.506146
C19	C	1.128643	-0.506029	-0.506162
C20	C	1.073805	-0.573303	-0.573241
C21	C	0.964081	-0.573307	-0.573262
C22	C	0.964042	-0.438761	-0.439116
C23	C	1.073764	-0.438753	-0.439101
C24	C	1.518324	-0.778990	-0.506142
C25	C	1.518393	-0.895767	-0.506166
C26	C	1.652834	-0.895770	-0.371897
C27	C	1.720082	-0.950633	-0.304775
C28	C	1.720144	-1.060355	-0.304804
C29	C	1.652952	-1.115216	-0.371964
C30	C	1.585704	-1.060353	-0.439086
C31	C	1.585648	-0.950629	-0.439048
C32	C	1.451270	-1.060350	-0.573358
C33	C	1.451201	-0.950628	-0.573326
C34	C	1.384078	-1.115211	-0.640518
C35	C	1.316823	-1.060348	-0.707636
C36	C	1.316763	-0.950620	-0.707604
C37	C	1.383953	-0.895765	-0.640448
C38	C	1.792420	-0.506036	-0.506189
C39	C	1.909196	-0.506042	-0.506198
C40	C	1.518466	-0.505919	-0.780201
C41	C	1.518500	-0.505876	-0.896978
C42	C	1.518479	-0.231989	-0.506216
C43	C	1.518518	-0.115212	-0.506236
C44	C	1.652934	-0.371511	-0.897032
C45	C	1.720165	-0.304313	-0.951920
C46	C	1.720191	-0.304275	-1.061641
C47	C	1.652975	-0.371440	-1.116478
C48	C	1.585744	-0.438638	-1.061590
C49	C	1.585728	-0.438671	-0.951865
C50	C	1.451306	-0.572995	-1.061536
C51	C	1.451284	-0.573040	-0.951814
C52	C	1.384091	-0.640160	-1.116372
C53	C	1.316863	-0.707364	-1.061484
C54	C	1.316841	-0.707401	-0.951756
C55	C	1.384053	-0.640238	-0.896926
C56	C	1.518368	-0.506049	-0.233200
C57	C	1.518538	-0.505797	-0.116423
H58	H	0.919346	-0.383988	-0.384516
N59	N	1.384092	-0.640101	-1.234714
H60	H	1.436878	-0.587339	-1.261166
H61	H	1.403337	-0.712200	-1.261062
N62	N	1.653028	-1.233558	-0.372009
H63	H	1.705828	-1.259988	-0.319301
H64	H	1.580945	-1.259985	-0.352678
H65	H	1.383904	-0.806424	-0.640408
N66	N	0.904934	-0.645870	-0.645606
H67	H	0.956352	-0.688487	-0.688081
H68	H	0.859378	-0.694438	-0.602754
H69	H	1.774930	-0.249550	-1.106331
H70	H	1.118414	-0.383964	-0.384478
H71	H	1.262136	-0.762039	-1.106140
N72	N	1.652753	-0.777429	-0.371853
H73	H	1.705517	-0.751000	-0.319123
H74	H	1.671988	-0.750998	-0.443966
N75	N	1.792557	-0.891464	-0.232347
H76	H	1.782317	-0.813630	-0.242510
H77	H	1.776249	-0.910719	-0.157305
N78	N	1.384136	-1.233553	-0.640543
H79	H	1.331368	-1.259979	-0.693271
H80	H	1.456249	-1.259829	-0.659884
H81	H	1.774909	-1.105024	-0.250153
N82	N	1.652911	-0.371521	-0.778690
H83	H	1.580842	-0.352195	-0.752261
H84	H	1.672228	-0.443611	-0.752305
N85	N	1.244364	-1.119516	-0.780071
H86	H	1.254613	-1.197349	-0.769909
H87	H	1.169325	-1.100422	-0.763650
H88	H	1.262006	-0.905957	-0.762267
H89	H	1.118484	-0.628081	-0.627849
N90	N	1.792686	-0.231900	-0.892777
H91	H	1.782483	-0.242129	-0.814940
H92	H	1.867705	-0.248289	-0.911983
N93	N	1.652973	-0.371374	-1.234819
H94	H	1.705753	-0.318604	-1.261270
H95	H	1.672222	-0.443468	-1.261176
H96	H	1.262081	-0.762110	-0.907072
H97	H	1.384046	-0.640266	-0.807585
