data_functionalizedCrystal
_audit_creation_method	'MofGen! by Chris Wilmer'
_symmetry_space_group_name_H-M	'P1'
_symmetry_Int_Tables_number	1
_symmetry_cell_setting	triclinic
loop_
_symmetry_equiv_pos_as_xyz
  x,y,z
_cell_length_a	16.120530
_cell_length_b	16.120484
_cell_length_c	16.120728
_cell_angle_alpha	84.367400
_cell_angle_beta	89.860094
_cell_angle_gamma	90.167327
loop_
_atom_site_label
_atom_site_type_symbol
_atom_site_fract_x
_atom_site_fract_y
_atom_site_fract_z
Zn1	Zn	1.224873	-0.422442	0.554816
Zn2	Zn	1.558206	-0.089108	0.888149
Zn3	Zn	1.891539	0.244225	1.221483
Zn4	Zn	1.224796	-0.555083	0.422120
Zn5	Zn	1.558129	-0.221750	0.755454
Zn6	Zn	1.891462	0.111583	1.088787
Zn7	Zn	1.093642	-0.408310	0.408058
Zn8	Zn	1.426976	-0.074977	0.741391
Zn9	Zn	1.760309	0.258356	1.074725
Zn10	Zn	1.078766	-0.554358	0.554054
Zn11	Zn	1.412099	-0.221024	0.887387
Zn12	Zn	1.745432	0.112309	1.220720
O13	O	1.155519	-0.485048	0.484762
O14	O	1.488852	-0.151715	0.818095
O15	O	1.822186	0.181618	1.151429
O16	O	1.340897	-0.446254	0.543418
O17	O	1.674230	-0.112921	0.876751
O18	O	2.007564	0.220412	1.210085
O19	O	1.213591	-0.530003	0.303622
O20	O	1.546925	-0.196670	0.636955
O21	O	1.880258	0.136664	0.970288
O22	O	1.117308	-0.293553	0.421960
O23	O	1.450642	0.039781	0.755293
O24	O	1.783975	0.373114	1.088626
O25	O	1.340840	-0.543706	0.445927
O26	O	1.674174	-0.210372	0.779260
O27	O	2.007507	0.122961	1.112594
O28	O	1.213723	-0.303935	0.529782
O29	O	1.547056	0.029399	0.863116
O30	O	1.880390	0.362732	1.196449
O31	O	1.117234	-0.422170	0.293290
O32	O	1.450567	-0.088836	0.626623
O33	O	1.783900	0.244497	0.959957
O34	O	0.975634	-0.421466	0.421220
O35	O	1.308968	-0.088133	0.754554
O36	O	1.642301	0.245200	1.087887
O37	O	1.091953	-0.542469	0.670788
O38	O	1.425287	-0.209136	1.004121
O39	O	1.758620	0.124198	1.337455
O40	O	0.964704	-0.528767	0.528483
O41	O	1.298038	-0.195433	0.861816
O42	O	1.631371	0.137900	1.195149
O43	O	1.199298	-0.445551	0.671348
O44	O	1.532631	-0.112217	1.004682
O45	O	1.865964	0.221116	1.338015
O46	O	1.199166	-0.671619	0.445188
O47	O	1.532499	-0.338286	0.778521
O48	O	1.865833	-0.004953	1.111854
O49	O	1.091879	-0.671086	0.542118
O50	O	1.425212	-0.337753	0.875452
O51	O	1.758545	-0.004420	1.208785
C52	C	0.940083	-0.473505	0.473243
C53	C	1.273416	-0.140172	0.806577
C54	C	1.606750	0.193162	1.139910
C55	C	0.847916	-0.468588	0.468336
C56	C	1.181250	-0.135254	0.801670
C57	C	1.514583	0.198079	1.135003
C58	C	1.143921	-0.701596	0.495115
C59	C	1.477255	-0.368263	0.828449
C60	C	1.810588	-0.034930	1.161782
C61	C	1.139034	-0.794242	0.499577
C62	C	1.472367	-0.460909	0.832910
C63	C	1.805701	-0.127575	1.166243
C64	C	0.679167	-0.459591	0.459384
C65	C	1.012500	-0.126258	0.792717
C66	C	1.345833	0.207075	1.126050
C67	C	0.632705	-0.510570	0.510204
C68	C	0.966039	-0.177236	0.843538
C69	C	1.299372	0.156097	1.176871
C70	C	0.538807	-0.505564	0.505223
C71	C	0.872140	-0.172230	0.838556
C72	C	1.205474	0.161103	1.171890
C73	C	0.773073	-0.464596	0.464364
C74	C	1.106407	-0.131262	0.797697
C75	C	1.439740	0.202071	1.131030
C76	C	1.130115	-0.963868	0.507739
C77	C	1.463448	-0.630534	0.841072
C78	C	1.796782	-0.297201	1.174406
C79	C	1.181071	-1.005397	0.461807
C80	C	1.514404	-0.672063	0.795140
C81	C	1.847737	-0.338730	1.128473
C82	C	1.176108	-1.099782	0.466348
C83	C	1.509442	-0.766449	0.799681
C84	C	1.842775	-0.433116	1.133015
C85	C	1.135076	-0.869474	0.503198
C86	C	1.468410	-0.536140	0.836532
C87	C	1.801743	-0.202807	1.169865
C88	C	1.371796	-0.496637	0.496326
C89	C	1.705130	-0.163304	0.829660
C90	C	2.038463	0.170030	1.162993
C91	C	1.463961	-0.501576	0.501254
C92	C	1.797294	-0.168242	0.834588
C93	C	2.130627	0.165091	1.167921
C94	C	1.143975	-0.495505	0.702155
C95	C	1.477308	-0.162172	1.035489
C96	C	1.810641	0.171161	1.368822
C97	C	1.139055	-0.499962	0.794795
C98	C	1.472388	-0.166628	1.128129
C99	C	1.805722	0.166705	1.461462
C100	C	1.167184	-0.267657	0.474387
C101	C	1.500517	0.065677	0.807721
C102	C	1.833850	0.399010	1.141054
C103	C	1.172154	-0.175017	0.469967
C104	C	1.505488	0.158316	0.803300
C105	C	1.838821	0.491650	1.136633
C106	C	1.130044	-0.508077	0.964408
C107	C	1.463377	-0.174744	1.297741
C108	C	1.796710	0.158589	1.631074
C109	C	1.180964	-0.462098	1.005970
C110	C	1.514298	-0.128764	1.339303
C111	C	1.847631	0.204569	1.672637
C112	C	1.175950	-0.466613	1.100348
C113	C	1.509284	-0.133280	1.433681
C114	C	1.842617	0.200053	1.767015
C115	C	1.135057	-0.503563	0.870021
C116	C	1.468390	-0.170229	1.203354
C117	C	1.801723	0.163104	1.536688
C118	C	1.167018	-0.474654	1.268215
C119	C	1.500351	-0.141321	1.601549
C120	C	1.833684	0.192012	1.934882
C121	C	1.171956	-0.470211	1.175577
C122	C	1.505289	-0.136878	1.508910
C123	C	1.838622	0.196456	1.842243
H124	H	0.663448	-0.557972	0.557455
H125	H	0.996781	-0.224639	0.890789
H126	H	1.330115	0.108695	1.224122
H127	H	1.082688	-0.550831	0.999703
H128	H	1.416021	-0.217497	1.333036
H129	H	1.749355	0.115836	1.666369
O130	O	0.642459	-0.403158	0.402929
O131	O	0.975792	-0.069825	0.736262
O132	O	1.309126	0.263509	1.069595
C133	C	0.592650	-0.445324	0.348699
C134	C	0.925983	-0.111991	0.682032
C135	C	1.259316	0.221343	1.015366
H136	H	0.615587	-0.512073	0.347946
H137	H	0.948920	-0.178739	0.681280
H138	H	1.282254	0.154594	1.014613
H139	H	0.596559	-0.411944	0.283100
H140	H	0.929892	-0.078611	0.616433
H141	H	1.263226	0.254723	0.949767
H142	H	0.525527	-0.446051	0.371197
H143	H	0.858860	-0.112718	0.704531
H144	H	1.192194	0.220616	1.037864
O145	O	1.237484	-0.963121	0.410832
O146	O	1.570817	-0.629788	0.744166
O147	O	1.904150	-0.296454	1.077499
C148	C	1.229949	-0.876928	0.417593
C149	C	1.563282	-0.543594	0.750927
C150	C	1.896615	-0.210261	1.084260
H151	H	1.165096	-0.863074	0.440871
H152	H	1.498430	-0.529741	0.774204
H153	H	1.831763	-0.196408	1.107538
H154	H	1.240635	-0.841094	0.353905
H155	H	1.573969	-0.507761	0.687238
H156	H	1.907302	-0.174427	1.020572
H157	H	1.278021	-0.856917	0.463469
H158	H	1.611354	-0.523583	0.796802
H159	H	1.944687	-0.190250	1.130135
H160	H	1.082767	-0.999197	0.550470
H161	H	1.416100	-0.665864	0.883803
H162	H	1.749434	-0.332531	1.217136
O163	O	1.237434	-0.411149	0.963740
O164	O	1.570767	-0.077816	1.297073
O165	O	1.904100	0.255517	1.630407
C166	C	1.229916	-0.417906	0.877542
C167	C	1.563250	-0.084573	1.210875
C168	C	1.896583	0.248761	1.544209
H169	H	1.199934	-0.480224	0.867375
H170	H	1.533267	-0.146891	1.200708
H171	H	1.866600	0.186443	1.534042
H172	H	1.294053	-0.414009	0.847438
H173	H	1.627386	-0.080676	1.180772
H174	H	1.960719	0.252657	1.514105
H175	H	1.189686	-0.364950	0.848111
H176	H	1.523020	-0.031616	1.181445
H177	H	1.856353	0.301717	1.514778
