data_functionalizedCrystal
_audit_creation_method	'MofGen! by Chris Wilmer'
_symmetry_space_group_name_H-M	'P1'
_symmetry_Int_Tables_number	1
_symmetry_cell_setting	triclinic
loop_
_symmetry_equiv_pos_as_xyz
  x,y,z
_cell_length_a	9.065215
_cell_length_b	9.065218
_cell_length_c	8.140239
_cell_angle_alpha	90.002802
_cell_angle_beta	89.997429
_cell_angle_gamma	94.984709
loop_
_atom_site_label
_atom_site_type_symbol
_atom_site_fract_x
_atom_site_fract_y
_atom_site_fract_z
O1	O	0.216355	-1.960396	-0.136614
O2	O	0.716355	-1.460396	0.363386
O3	O	0.234101	-1.531111	-0.136616
O4	O	0.734101	-1.031111	0.363384
O5	O	0.010585	-1.754629	-0.136608
O6	O	0.510585	-1.254629	0.363392
O7	O	0.439871	-1.736878	-0.136622
O8	O	0.939871	-1.236878	0.363378
O9	O	0.010583	-1.754616	0.136619
O10	O	0.510583	-1.254616	0.636619
O11	O	0.234099	-1.531098	0.136611
O12	O	0.734099	-1.031098	0.636611
O13	O	0.216352	-1.960383	0.136613
O14	O	0.716352	-1.460383	0.636613
Zn15	Zn	0.225225	-1.745739	0.179993
Zn16	Zn	0.725225	-1.245739	0.679993
Zn17	Zn	0.225228	-1.745755	-0.179996
Zn18	Zn	0.725228	-1.245755	0.320004
O19	O	0.439868	-1.736865	0.136605
O20	O	0.939868	-1.236865	0.636605
C21	C	0.232394	-1.476118	-0.000003
C22	C	0.732394	-0.976118	0.499997
C23	C	0.227295	-1.312275	-0.000004
C24	C	0.727295	-0.812275	0.499996
N25	N	0.225222	-1.745738	0.425675
N26	N	0.725222	-1.245738	0.925675
C27	C	-0.044403	-1.752917	0.000004
C28	C	0.455597	-1.252917	0.500004
C29	C	-0.208246	-1.747819	-0.000001
C30	C	0.291754	-1.247819	0.499999
C31	C	0.494856	-1.738576	-0.000011
C32	C	0.994856	-1.238576	0.499989
C33	C	0.658699	-1.743674	-0.000016
C34	C	1.158699	-1.243674	0.499984
C35	C	0.218059	-2.015376	-0.000004
C36	C	0.718059	-1.515376	0.499996
C37	C	0.223159	-2.179219	-0.000014
C38	C	0.723159	-1.679219	0.499986
N39	N	0.225220	-1.745767	-0.425678
N40	N	0.725220	-1.245767	0.074322
