data_functionalizedCrystal
_audit_creation_method	'MofGen! by Chris Wilmer'
_symmetry_space_group_name_H-M	'P1'
_symmetry_Int_Tables_number	1
_symmetry_cell_setting	triclinic
loop_
_symmetry_equiv_pos_as_xyz
  x,y,z
_cell_length_a	10.654550
_cell_length_b	16.992695
_cell_length_c	9.130313
_cell_angle_alpha	89.995176
_cell_angle_beta	89.999724
_cell_angle_gamma	87.576577
loop_
_atom_site_label
_atom_site_type_symbol
_atom_site_fract_x
_atom_site_fract_y
_atom_site_fract_z
O1	O	1.677362	0.110190	-0.121691
O2	O	1.312790	0.120688	-0.121718
O3	O	1.493615	0.001288	-0.121693
O4	O	1.496538	0.229590	-0.121716
O5	O	1.493601	0.001285	0.121906
O6	O	1.312777	0.120685	0.121881
O7	O	1.677348	0.110186	0.121908
Cu8	Cu	1.495061	0.115435	0.144137
Cu9	Cu	1.495077	0.115439	-0.143947
O10	O	1.496524	0.229586	0.121883
C11	C	1.265919	0.119916	0.000078
C12	C	1.126277	0.117609	0.000068
C13	C	1.052866	0.187910	0.000065
C14	C	0.921658	0.185738	0.000091
C15	C	0.937282	0.042959	0.000116
C16	C	1.068488	0.045132	0.000101
C17	C	1.489848	-0.027946	0.000106
C18	C	1.478628	-0.115051	0.000105
C19	C	1.586879	-0.164703	0.000114
C20	C	1.576330	-0.246547	0.000099
C21	C	1.457529	-0.278738	0.000086
C22	C	1.349270	-0.229080	0.000072
C23	C	1.359820	-0.147237	0.000076
C24	C	1.413802	-0.522573	0.000062
C25	C	1.403260	-0.604422	0.000062
C26	C	1.630321	-0.621884	0.000087
C27	C	1.640861	-0.540039	0.000100
C28	C	1.532602	-0.490388	0.000079
N29	N	1.446743	-0.362395	0.000075
N30	N	1.543389	-0.406733	0.000079
C31	C	1.724220	0.110959	0.000108
C32	C	1.863862	0.113265	0.000109
C33	C	1.500291	0.258821	0.000080
C34	C	1.511510	0.345926	0.000072
N35	N	1.495059	0.115432	0.346759
N36	N	1.495089	0.115437	-0.346570
C37	C	1.575159	0.062584	0.423422
C38	C	1.575171	0.062584	0.576759
C39	C	1.414980	0.168287	0.576756
C40	C	1.414963	0.168282	0.423422
H41	H	0.890215	-0.016050	0.000152
N42	N	1.661526	0.005582	0.340714
H43	H	1.751615	0.015130	0.367374
H44	H	1.641365	-0.050159	0.367443
H45	H	1.349730	0.211318	0.360999
N46	N	1.693085	-0.300101	0.000118
H47	H	1.769945	-0.267290	0.000141
H48	H	1.693637	-0.334442	0.090423
N49	N	1.115204	0.266076	0.000052
H50	H	1.169284	0.270162	-0.090258
H51	H	1.048714	0.310237	0.000114
H52	H	0.861892	0.242984	0.000091
N53	N	1.747077	-0.675437	0.000083
H54	H	1.823936	-0.642625	0.000090
H55	H	1.747646	-0.709781	0.090385
H56	H	1.128262	-0.012119	0.000107
N57	N	1.661582	0.005595	0.659447
H58	H	1.712323	-0.027879	0.587609
H59	H	1.720137	0.035970	0.723039
H60	H	1.683620	-0.138501	0.000134
H61	H	1.252539	-0.255296	0.000051
H62	H	1.737601	-0.513836	0.000112
H63	H	1.325649	-0.482157	0.000045
H64	H	1.306513	-0.630628	0.000075
N65	N	1.243075	-0.093672	0.000072
H66	H	1.191608	-0.104089	-0.090234
H67	H	1.191696	-0.104121	0.090430
H68	H	1.349769	0.211318	0.639191
