data_functionalizedCrystal
_audit_creation_method	'MofGen! by Chris Wilmer'
_symmetry_space_group_name_H-M	'P1'
_symmetry_Int_Tables_number	1
_symmetry_cell_setting	triclinic
loop_
_symmetry_equiv_pos_as_xyz
  x,y,z
_cell_length_a	13.032831
_cell_length_b	12.645330
_cell_length_c	13.033429
_cell_angle_alpha	97.214352
_cell_angle_beta	90.908563
_cell_angle_gamma	82.822813
loop_
_atom_site_label
_atom_site_type_symbol
_atom_site_fract_x
_atom_site_fract_y
_atom_site_fract_z
Zn1	Zn	1.498552	-0.514679	0.780897
Zn2	Zn	1.520277	-0.716948	0.608914
Zn3	Zn	1.348392	-0.520332	0.587127
Zn4	Zn	1.326540	-0.672525	0.759046
O5	O	1.423440	-0.606121	0.683996
O6	O	1.645356	-0.557736	0.776346
O7	O	1.515714	-0.711824	0.462099
O8	O	1.368364	-0.371238	0.612858
O9	O	1.661318	-0.706343	0.649990
O10	O	1.478686	-0.367085	0.755220
O11	O	1.389430	-0.567370	0.446093
O12	O	1.201571	-0.524295	0.591670
O13	O	1.331120	-0.630630	0.905869
O14	O	1.185516	-0.636111	0.717978
O15	O	1.457496	-0.514661	0.921923
O16	O	1.494525	-0.859400	0.628802
O17	O	1.352186	-0.826762	0.739104
C18	C	1.156226	-0.575996	0.650089
C19	C	1.041907	-0.563131	0.635608
C20	C	0.983037	-0.612836	0.691554
C21	C	0.864882	-0.599540	0.676588
C22	C	1.423367	-0.881544	0.683972
C23	C	1.423425	-0.999377	0.684008
C24	C	1.334177	-1.146454	0.753686
C25	C	1.333805	-1.023887	0.753378
C26	C	1.407847	-1.056418	0.571901
C27	C	1.407303	-1.178892	0.572324
C28	C	1.528848	-1.174703	0.725620
C29	C	1.527879	-1.051676	0.727906
C30	C	1.691698	-0.636364	0.718036
C31	C	1.806013	-0.649252	0.732541
C32	C	1.389447	-0.567059	0.952257
C33	C	1.374961	-0.550414	1.066574
C34	C	1.423539	-0.329622	0.684046
C35	C	1.423581	-0.211795	0.684067
C36	C	1.457360	-0.644961	0.416786
C37	C	1.472045	-0.661331	0.302494
C38	C	1.416021	-0.597277	1.243610
C39	C	1.430993	-0.614476	1.125457
H40	H	1.342127	-1.166197	0.836624
H41	H	1.490049	-0.682048	1.088404
H42	H	1.256333	-1.170963	0.725368
H43	H	1.531097	-0.728898	1.265436
H44	H	1.596895	-1.035852	0.681988
C45	C	1.295165	-0.459143	1.116617
H46	H	1.295554	-0.459567	1.189462
H47	H	1.312426	-0.392140	1.100994
H48	H	1.228270	-0.469436	1.090278
C49	C	0.814821	-0.528746	0.596912
H50	H	0.867078	-0.499279	0.563758
H51	H	0.778577	-0.571074	0.546761
H52	H	0.767934	-0.472194	0.631072
H53	H	1.020108	-0.665230	0.750533
C54	C	1.228012	-0.975722	0.714706
H55	H	1.185098	-1.031077	0.699114
H56	H	1.196272	-0.923169	0.766911
H57	H	1.237400	-0.943222	0.654213
C58	C	1.544103	-0.999993	0.839446
H59	H	1.487465	-0.946760	0.859188
H60	H	1.548550	-1.053593	0.884827
H61	H	1.606301	-0.967716	0.843130
H62	H	1.470341	-1.223695	0.517943
C63	C	0.856071	-0.720042	0.812222
H64	H	0.803812	-0.749495	0.845385
H65	H	0.902964	-0.776589	0.778076
H66	H	0.892307	-0.677701	0.862378
H67	H	1.330761	-1.202040	0.538724
H68	H	1.004835	-0.510728	0.576637
C69	C	1.344811	-0.970154	0.865088
H70	H	1.344601	-0.895003	0.865049
H71	H	1.288628	-0.982877	0.905498
H72	H	1.408008	-0.999427	0.893633
C73	C	1.493837	-1.037514	0.499085
H74	H	1.482925	-1.072695	0.431729
H75	H	1.492522	-0.962647	0.496315
H76	H	1.559120	-1.065557	0.524283
C77	C	1.305633	-1.007806	0.526081
H78	H	1.272330	-0.952768	0.575099
H79	H	1.319632	-0.978367	0.464967
H80	H	1.261865	-1.062299	0.509930
H81	H	1.545748	-1.197270	0.806706
C82	C	1.618589	-1.234148	0.657279
H83	H	1.592092	-1.281362	0.603696
H84	H	1.653127	-1.183390	0.627756
H85	H	1.665896	-1.274360	0.698200
C86	C	1.336251	-0.505992	1.293663
H87	H	1.336649	-0.506412	1.366508
H88	H	1.353535	-0.439000	1.278031
H89	H	1.269347	-0.516259	1.267336
