data_functionalizedCrystal
_audit_creation_method	'MofGen! by Chris Wilmer'
_symmetry_space_group_name_H-M	'P1'
_symmetry_Int_Tables_number	1
_symmetry_cell_setting	triclinic
loop_
_symmetry_equiv_pos_as_xyz
  x,y,z
_cell_length_a	14.628931
_cell_length_b	14.560432
_cell_length_c	14.628931
_cell_angle_alpha	60.001327
_cell_angle_beta	60.000000
_cell_angle_gamma	90.000647
loop_
_atom_site_label
_atom_site_type_symbol
_atom_site_fract_x
_atom_site_fract_y
_atom_site_fract_z
Zr1	Zr	0.880615	-0.120523	1.000578
O2	O	0.925360	-0.267169	1.000574
O3	O	0.734655	-0.075568	1.000579
O4	O	0.734655	-0.267168	1.191279
O5	O	1.075792	0.075568	0.659446
O6	O	0.734654	-0.267168	1.341711
O7	O	0.925360	-0.075569	0.809874
O8	O	0.734654	0.075569	1.000583
O9	O	1.075792	-0.267169	1.000575
O10	O	0.832177	-0.056396	1.112845
O11	O	0.944443	0.056396	0.888317
O12	O	0.944443	-0.169188	1.112843
O13	O	1.056709	-0.056396	0.888314
Zr14	Zr	1.120536	0.120523	1.000585
Zr15	Zr	0.880615	-0.120523	1.240499
Zr16	Zr	1.120536	0.120523	0.760663
Zr17	Zr	1.120536	-0.120524	1.000579
Zr18	Zr	0.880615	0.120524	1.000584
O19	O	1.266497	0.075568	1.000584
O20	O	0.925360	-0.267168	1.341712
O21	O	1.266497	0.075568	0.659447
O22	O	1.075791	0.267169	1.000588
O23	O	0.734654	-0.075568	1.341716
O24	O	1.075791	0.267168	0.659451
O25	O	0.925359	-0.075568	1.341717
O26	O	1.266497	0.267168	0.809883
O27	O	1.266497	0.267168	0.659452
O28	O	1.075791	0.075569	1.191289
O29	O	1.075792	-0.267169	1.191280
O30	O	0.925360	0.267169	0.809882
O31	O	0.925359	0.267169	1.000588
O32	O	0.734654	0.075569	1.191288
O33	O	1.266497	-0.075569	0.809875
O34	O	1.266497	-0.075569	1.000580
O35	O	1.056708	0.169188	0.888320
O36	O	0.944443	0.056396	1.112848
O37	O	1.056708	-0.056396	1.112846
O38	O	1.168974	0.056396	0.888318
C39	C	0.700471	0.000000	1.000581
C40	C	0.598618	0.000001	1.000580
C41	C	1.000576	-0.301513	1.000574
C42	C	1.000576	-0.403844	1.000571
C43	C	0.497517	-0.055952	1.111961
C44	C	0.392246	-0.055953	1.111963
C45	C	1.117772	-0.286105	0.766161
C46	C	1.176364	-0.275313	0.648961
C47	C	1.176361	-0.371465	0.648966
C48	C	1.117762	-0.478419	0.766185
C49	C	1.059170	-0.489211	0.883386
C50	C	1.059177	-0.393050	0.883367
C51	C	0.941983	-0.606948	1.117793
C52	C	0.941977	-0.510797	1.117790
C53	C	0.883384	-0.713902	1.235011
C54	C	0.824783	-0.724696	1.352215
C55	C	0.824788	-0.628535	1.352205
C56	C	0.883385	-0.521590	1.234991
C57	C	1.300680	-0.000000	1.000582
C58	C	1.402533	-0.000001	1.000583
C59	C	1.000576	-0.000000	0.700476
C60	C	1.000576	-0.000001	0.598623
C61	C	1.000575	0.301513	1.000589
C62	C	1.000575	0.403844	1.000592
C63	C	0.944885	0.055952	0.553215
C64	C	0.944884	0.055953	0.447945
C65	C	1.000575	0.000000	1.300687
C66	C	1.000575	0.000001	1.402540
C67	C	0.700471	-0.301512	1.300678
C68	C	0.598618	-0.403843	1.402528
C69	C	0.700470	0.000001	1.300686
C70	C	0.598617	0.000001	1.402538
C71	C	1.000576	0.301513	0.700484
C72	C	1.000575	0.403843	0.598634
C73	C	1.300681	-0.000001	0.700477
C74	C	1.402534	-0.000001	0.598624
C75	C	1.300680	0.301512	0.700485
C76	C	1.402533	0.403843	0.598635
C77	C	1.000576	-0.301513	1.300679
C78	C	1.000576	-0.403843	1.402529
C79	C	0.608900	-0.505418	1.447935
C80	C	0.503631	-0.611183	1.553202
C81	C	0.497517	-0.055951	1.447946
C82	C	0.392245	-0.055952	1.553216
C83	C	1.056267	0.505418	0.553227
C84	C	1.056268	0.611183	0.447959
H85	H	0.488894	-0.103850	1.207318
Br86	Br	0.883388	-0.391087	1.234966
Br87	Br	0.745277	-0.643194	1.511272
H88	H	0.393899	-0.513713	1.559557
H89	H	1.048257	-0.047901	0.559562
Br90	Br	0.753462	-0.519868	1.382855
Br91	Br	0.518025	-0.756416	1.618268
H92	H	0.897211	0.103859	0.592270
H93	H	1.103950	0.514079	0.592281
Br94	Br	0.921114	0.389393	0.533532
Br95	Br	0.865399	0.135789	0.382877
H96	H	0.488897	-0.103858	1.408891
H97	H	0.305516	-0.103861	1.207322
Br98	Br	1.117759	-0.155606	0.766142
Br99	Br	0.454056	-0.389392	1.467629
Br100	Br	0.613000	0.079835	1.467641
H101	H	1.103946	0.698321	0.408912
H102	H	0.305515	-0.103851	1.592261
H103	H	0.489260	0.047899	0.905220
H104	H	0.489259	0.047914	1.559569
H105	H	0.607238	0.047905	0.905225
Br106	Br	1.255890	-0.356823	0.489908
Br107	Br	1.255898	-0.130163	0.489885
Br108	Br	0.883386	-0.844399	1.235026
Br109	Br	1.117780	-0.608913	0.766194
Br110	Br	0.745277	-0.869841	1.511280
H111	H	1.048252	-0.047910	0.441588
H112	H	0.952889	0.513714	0.441604
