data_functionalizedCrystal
_audit_creation_method	'MofGen! by Chris Wilmer'
_symmetry_space_group_name_H-M	'P1'
_symmetry_Int_Tables_number	1
_symmetry_cell_setting	triclinic
loop_
_symmetry_equiv_pos_as_xyz
  x,y,z
_cell_length_a	18.426585
_cell_length_b	19.377369
_cell_length_c	19.377574
_cell_angle_alpha	82.425876
_cell_angle_beta	104.490388
_cell_angle_gamma	48.638366
loop_
_atom_site_label
_atom_site_type_symbol
_atom_site_fract_x
_atom_site_fract_y
_atom_site_fract_z
Zr1	Zr	0.567322	0.779888	0.049330
O2	O	0.401074	0.928521	-0.037248
O3	O	0.632450	0.631252	0.056986
O4	O	0.572897	0.779889	-0.064483
O5	O	0.491493	0.779884	0.201520
O6	O	0.692321	0.779894	-0.064485
O7	O	0.460628	0.779884	0.084221
O8	O	0.798852	0.514010	0.152801
O9	O	0.384962	1.045768	-0.015767
O10	O	0.732239	0.692393	0.083065
O11	O	0.666148	0.692390	0.170605
O12	O	0.596031	0.867391	0.027591
O13	O	0.529941	0.867388	0.115131
Zr14	Zr	0.807017	0.779897	0.236404
Zr15	Zr	0.757791	0.779896	0.049326
Zr16	Zr	0.616549	0.779889	0.236407
Zr17	Zr	0.541626	0.966885	0.083590
Zr18	Zr	0.832713	0.592900	0.202144
O19	O	0.741889	0.928533	0.228747
O20	O	0.671896	0.928532	-0.037253
O21	O	0.471068	0.928522	0.228752
O22	O	0.973265	0.631265	0.322982
O23	O	0.903271	0.631263	0.056982
O24	O	0.702444	0.631253	0.322986
O25	O	0.882846	0.779901	0.084214
O26	O	0.801443	0.779896	0.350217
O27	O	0.682018	0.779891	0.350219
O28	O	0.913711	0.779902	0.201512
O29	O	0.536359	1.045775	-0.015769
O30	O	0.837980	0.514010	0.301503
O31	O	0.989377	0.514017	0.301500
O32	O	0.950249	0.514016	0.152799
O33	O	0.424091	1.045769	0.132935
O34	O	0.575487	1.045775	0.132932
O35	O	0.778308	0.692394	0.258142
O36	O	0.844399	0.692397	0.170602
O37	O	0.708191	0.867395	0.115128
O38	O	0.642100	0.867392	0.202668
C39	C	0.719312	0.545988	0.100012
C40	C	0.730221	0.466603	0.085468
C41	C	0.594049	0.205197	0.266356
C42	C	0.604437	0.130512	0.252751
C43	C	0.673431	0.130525	0.161366
C44	C	0.663053	0.205208	0.174966
C45	C	0.623360	0.242539	0.227461
C46	C	0.692365	0.242550	0.136071
C47	C	0.681982	0.317231	0.149667
C48	C	0.642288	0.354569	0.202157
C49	C	0.612977	0.317220	0.241056
C50	C	0.732050	0.205223	0.083572
C51	C	0.761362	0.242565	0.044677
C52	C	0.750986	0.317242	0.058277
C53	C	0.711292	0.354580	0.110767
C54	C	0.780297	0.354591	0.019377
C55	C	0.769914	0.429272	0.032973
C56	C	0.700910	0.429261	0.124363
C57	C	0.448923	0.779883	0.142871
C58	C	0.368064	0.779879	0.142872
C59	C	0.071941	0.779910	0.142863
C60	C	0.154328	0.779905	0.142864
C61	C	0.220000	0.779895	0.142867
C62	C	0.302393	0.779890	0.142869
C63	C	0.925416	0.779902	0.142863
C64	C	1.006275	0.779906	0.142861
C65	C	0.625595	0.779892	-0.091139
C66	C	0.604697	0.779891	-0.170558
C67	C	0.655027	1.013797	0.185721
C68	C	0.644118	1.093182	0.200266
C69	C	0.864903	0.779897	-0.431784
C70	C	0.845243	0.779899	-0.506411
C71	C	0.713667	0.779893	-0.506390
C72	C	0.733313	0.779897	-0.431763
C73	C	0.808933	0.779898	-0.394465
C74	C	0.677342	0.779897	-0.394445
C75	C	0.696991	0.779895	-0.319823
C76	C	0.772610	0.779893	-0.282519
C77	C	0.828581	0.779896	-0.319843
C78	C	0.601728	0.779889	-0.431742
C79	C	0.545758	0.779889	-0.394423
C80	C	0.565400	0.779895	-0.319802
C81	C	0.641019	0.779893	-0.282498
C82	C	0.509428	0.779892	-0.282478
C83	C	0.529077	0.779890	-0.207856
C84	C	0.660668	0.779891	-0.207876
C85	C	0.748744	0.779893	0.376872
C86	C	0.769642	0.779894	0.456291
C87	C	0.957559	0.545998	0.100008
C88	C	1.049327	0.466616	0.085462
C89	C	0.780887	0.545989	0.334018
C90	C	0.812693	0.466604	0.398893
C91	C	1.019133	0.545999	0.334014
C92	C	1.131799	0.466617	0.398887
C93	C	0.355206	1.013786	-0.048280
C94	C	0.242540	1.093168	-0.113154
C95	C	0.416780	1.013787	0.185725
C96	C	0.325013	1.093169	0.200271
C97	C	0.593452	1.013796	-0.048284
C98	C	0.561646	1.093181	-0.113159
C99	C	1.033874	0.429335	0.032930
C100	C	1.120086	0.354758	0.019247
C101	C	1.221752	0.317458	0.058102
C102	C	1.237203	0.354746	0.110636
C103	C	1.150989	0.429327	0.124314
C104	C	0.886178	0.429326	0.475060
C105	C	0.916061	0.354746	0.536026
C106	C	0.872464	0.317440	0.520822
C107	C	0.798970	0.354726	0.444647
C108	C	0.769082	0.429309	0.383684
C109	C	1.219214	0.429341	0.383657
C110	C	1.325080	0.354764	0.444608
C111	C	1.343527	0.317460	0.520786
C112	C	1.256101	0.354744	0.536015
C113	C	1.150238	0.429324	0.475067
C114	C	0.155123	1.130453	-0.097922
C115	C	0.049255	1.205053	-0.158868
C116	C	0.030807	1.242361	-0.235046
C117	C	0.118233	1.205073	-0.250276
C118	C	0.224099	1.130479	-0.189330
C119	C	0.340463	1.130457	0.252797
C120	C	0.254242	1.205055	0.266463
C121	C	0.152575	1.242358	0.227607
C122	C	0.137125	1.205067	0.175075
C123	C	0.223343	1.130475	0.161405
C124	C	0.605263	1.130463	-0.097932
C125	C	0.575397	1.205044	-0.158883
C126	C	0.501909	1.242346	-0.235061
C127	C	0.458292	1.205056	-0.250288
C128	C	0.488164	1.130472	-0.189338
H129	H	0.668588	0.459658	0.167110
H130	H	0.740495	0.144419	0.072500
C131	C	0.025288	1.246097	0.132350
N132	N	-0.058948	1.276995	0.100177
H133	H	0.483501	0.779889	-0.177470
C134	C	0.440157	1.089483	-0.206099
N135	N	0.403991	1.058617	-0.218729
H136	H	1.107486	0.324407	-0.023530
C137	C	0.097923	1.246113	-0.334080
N138	N	0.082622	1.277021	-0.397204
H139	H	1.271139	0.324360	0.598048
H140	H	0.266842	1.235405	0.309241
H141	H	0.665100	1.100104	-0.035908
C142	C	0.630495	0.779881	-0.547423
N143	N	0.567850	0.779872	-0.578327
C144	C	0.905363	0.235386	0.587891
N145	N	0.930152	0.173578	0.638409
C146	C	0.462586	0.779878	-0.435456
N147	N	0.399940	0.779868	-0.466361
H148	H	-0.021917	1.235401	-0.146453
H149	H	0.580562	0.100113	0.284426
C150	C	0.057745	1.324407	0.242656
N151	N	-0.013676	1.386203	0.253997
C152	C	0.206335	1.089455	0.103631
N153	N	0.193517	1.058560	0.060115
C154	C	1.316582	0.235409	0.043052
N155	N	1.388005	0.173607	0.031717
H156	H	0.580656	0.347617	0.283803
C157	C	0.426264	0.779872	-0.323509
N158	N	0.363627	0.779852	-0.354413
C159	C	1.459989	0.235411	0.587822
N160	N	1.547711	0.173608	0.638310
C161	C	0.794222	0.779894	-0.200432
N162	N	0.810497	0.779897	-0.138606
H163	H	1.319990	0.324365	0.142267
C164	C	0.911763	0.779904	-0.278814
N165	N	0.974414	0.779907	-0.247909
C166	C	0.805026	0.201490	-0.013064
N167	N	0.837918	0.170551	-0.056553
C168	C	1.054088	0.470318	0.491832
N169	N	0.981670	0.501193	0.504466
H170	H	0.926473	0.779909	-0.401418
C171	C	0.623383	1.246053	-0.142115
N172	N	0.659526	1.276940	-0.129483
C173	C	0.906805	0.779918	-0.547465
N174	N	0.953169	0.779939	-0.578388
C175	C	0.688256	0.470296	0.299898
N176	N	0.627378	0.501162	0.236790
C177	C	0.922045	0.470357	-0.009824
N178	N	0.837816	0.501256	-0.042034
H179	H	0.477595	1.303077	-0.284683
C180	C	1.168010	0.470318	0.182113
N181	N	1.180838	0.501187	0.225650
H182	H	0.921687	0.459693	0.487454
H183	H	0.763479	0.324340	0.432279
H184	H	0.975906	0.324398	0.598045
H185	H	0.170126	1.100081	-0.035900
H186	H	1.396253	0.324415	0.432193
H187	H	1.204213	0.459703	0.321633
C188	C	-0.085654	1.324409	-0.302082
N189	N	-0.173375	1.386203	-0.352572
H190	H	0.633830	0.415383	0.213223
H191	H	0.561727	0.235594	0.309103
C192	C	0.717095	0.089451	0.103625
N193	N	0.749988	0.058511	0.060136
C194	C	0.452288	1.089443	0.295545
N195	N	0.536511	1.058561	0.327742
H196	H	0.812605	0.324194	-0.023370
H197	H	0.295272	1.100122	-0.201742
H198	H	0.398455	1.235439	-0.312319
H199	H	0.793781	0.459677	0.001300
H200	H	0.585738	0.779885	-0.492502
H201	H	0.722237	0.779902	-0.177510
