data_functionalizedCrystal
_audit_creation_method	'MofGen! by Chris Wilmer'
_symmetry_space_group_name_H-M	'P1'
_symmetry_Int_Tables_number	1
_symmetry_cell_setting	triclinic
loop_
_symmetry_equiv_pos_as_xyz
  x,y,z
_cell_length_a	10.654545
_cell_length_b	19.188930
_cell_length_c	9.730223
_cell_angle_alpha	89.990488
_cell_angle_beta	89.997167
_cell_angle_gamma	83.813930
loop_
_atom_site_label
_atom_site_type_symbol
_atom_site_fract_x
_atom_site_fract_y
_atom_site_fract_z
O1	O	1.665768	0.098047	-0.114293
O2	O	1.300091	0.107393	-0.114301
O3	O	1.493482	0.001133	-0.114270
O4	O	1.472377	0.204306	-0.114324
O5	O	1.493469	0.001130	0.114310
O6	O	1.300078	0.107390	0.114279
O7	O	1.665755	0.098044	0.114286
Zn8	Zn	1.482915	0.102716	0.150575
Zn9	Zn	1.482931	0.102720	-0.150589
O10	O	1.472364	0.204304	0.114256
C11	C	1.253301	0.106706	-0.000011
C12	C	1.113901	0.104655	-0.000013
C13	C	1.048410	0.103687	0.124587
C14	C	0.917432	0.101749	0.124587
C15	C	0.917446	0.101747	-0.124623
C16	C	1.048423	0.103681	-0.124622
C17	C	1.492792	-0.024884	0.000024
C18	C	1.490741	-0.102402	0.000036
C19	C	1.604216	-0.146585	0.000044
C20	C	1.602289	-0.219421	0.000022
C21	C	1.486879	-0.248071	0.000019
C22	C	1.373389	-0.203879	0.000002
C23	C	1.375319	-0.131044	0.000011
N24	N	1.398658	-0.356653	0.077807
N25	N	1.396832	-0.425844	0.077802
C26	C	1.481055	-0.467518	-0.000009
N27	N	1.567193	-0.437389	-0.077798
N28	N	1.569023	-0.368192	-0.077787
C29	C	1.484773	-0.327048	0.000009
C30	C	1.592448	-0.590679	-0.000026
C31	C	1.590516	-0.663516	-0.000056
C32	C	1.361613	-0.647972	-0.000063
C33	C	1.363548	-0.575137	-0.000046
C34	C	1.478970	-0.546494	-0.000021
C35	C	1.712545	0.098731	-0.000006
C36	C	1.851945	0.100782	-0.000013
C37	C	1.473054	0.230320	-0.000041
C38	C	1.475105	0.307838	-0.000062
N39	N	1.482913	0.102713	0.356111
N40	N	1.482943	0.102718	-0.356126
C41	C	1.568575	0.055682	0.428051
C42	C	1.568588	0.055682	0.571934
C43	C	1.397272	0.149752	0.571925
C44	C	1.397254	0.149748	0.428044
H45	H	1.698201	-0.123269	0.000060
F46	F	1.306071	0.199805	0.351475
F47	F	1.118128	0.104706	-0.257246
F48	F	1.242770	-0.528112	-0.000050
H49	H	1.694697	-0.255402	0.000024
F50	F	1.238784	-0.678459	-0.000073
F51	F	1.254537	-0.084019	0.000001
F52	F	1.118093	0.104721	0.257207
F53	F	0.847737	0.100720	0.257204
F54	F	1.659738	0.005622	0.351499
H55	H	1.279421	-0.227211	-0.000003
F56	F	1.659758	0.005623	0.648492
F57	F	0.847752	0.100697	-0.257233
F58	F	1.715288	-0.560193	0.000007
H59	H	1.327532	0.188047	0.630507
F60	F	1.711299	-0.710540	-0.000056
