data_functionalizedCrystal
_audit_creation_method	'MofGen! by Chris Wilmer'
_symmetry_space_group_name_H-M	'P1'
_symmetry_Int_Tables_number	1
_symmetry_cell_setting	triclinic
loop_
_symmetry_equiv_pos_as_xyz
  x,y,z
_cell_length_a	12.827893
_cell_length_b	15.299816
_cell_length_c	12.827879
_cell_angle_alpha	99.615268
_cell_angle_beta	89.958408
_cell_angle_gamma	80.350679
loop_
_atom_site_label
_atom_site_type_symbol
_atom_site_fract_x
_atom_site_fract_y
_atom_site_fract_z
Zn1	Zn	1.669772	-0.358682	-0.662811
Zn2	Zn	1.699837	-0.509594	-0.518348
Zn3	Zn	1.494971	-0.358812	-0.488110
Zn4	Zn	1.525207	-0.509441	-0.693017
O5	O	1.597447	-0.434132	-0.590571
O6	O	1.819998	-0.378710	-0.643660
O7	O	1.672590	-0.489711	-0.368124
O8	O	1.492922	-0.232599	-0.485988
O9	O	1.842087	-0.489584	-0.537524
O10	O	1.621348	-0.232503	-0.614340
O11	O	1.522076	-0.378932	-0.345909
O12	O	1.352744	-0.378784	-0.515279
O13	O	1.544455	-0.489324	-0.835223
O14	O	1.374958	-0.489451	-0.665823
O15	O	1.650666	-0.378562	-0.813030
O16	O	1.701908	-0.635770	-0.566814
O17	O	1.573608	-0.635658	-0.695143
C18	C	1.325933	-0.434116	-0.590548
C19	C	1.209783	-0.434130	-0.590567
C20	C	1.147088	-0.379363	-0.643206
C21	C	1.027040	-0.379377	-0.643227
C22	C	1.644330	-0.668435	-0.637560
C23	C	1.664483	-0.768670	-0.657697
C24	C	1.454098	-1.051716	-0.447004
C25	C	1.435159	-0.957540	-0.428087
C26	C	1.492488	-0.910318	-0.485488
C27	C	1.568760	-0.957281	-0.561809
C28	C	1.587696	-1.051467	-0.580734
C29	C	1.626086	-0.910069	-0.619218
C30	C	1.702358	-0.957032	-0.695539
C31	C	1.721291	-1.051208	-0.714460
C32	C	1.663961	-1.098430	-0.657060
C33	C	1.607150	-0.815883	-0.600293
C34	C	1.740748	-0.815634	-0.734023
C35	C	1.759688	-0.909810	-0.752940
C36	C	1.870020	-0.434150	-0.590595
C37	C	1.986175	-0.434157	-0.590606
C38	C	1.597580	-0.433912	-0.863098
C39	C	1.597637	-0.433818	-0.979232
C40	C	1.550409	-0.198915	-0.543422
C41	C	1.530364	-0.098679	-0.523330
C42	C	1.597361	-0.434287	-0.319092
C43	C	1.597456	-0.434127	-0.202907
C44	C	1.672445	-0.488301	-0.041894
C45	C	1.672349	-0.488467	-0.161978
H46	H	1.182285	-0.332462	-0.688251
C47	C	1.058948	-0.497504	-0.529717
N48	N	1.113769	-0.545216	-0.483854
H49	H	1.407424	-1.090173	-0.400282
C50	C	1.684791	-1.202031	-0.677865
N51	N	1.700477	-1.280064	-0.693534
H52	H	0.973166	-0.332492	-0.688296
C53	C	1.523253	-0.764234	-0.516340
N54	N	1.460057	-0.725333	-0.453101
C55	C	1.351240	-0.905887	-0.344158
N56	N	1.288021	-0.866981	-0.280945
C57	C	1.805194	-1.102866	-0.798415
N58	N	1.868394	-1.141773	-0.861647
H59	H	1.787429	-0.777186	-0.780765
C60	C	1.843581	-0.961482	-0.836897
N61	N	1.906768	-1.000403	-0.900134
H62	H	1.736566	-0.534819	-0.006640
H63	H	1.736394	-0.535114	-0.215824
C64	C	1.510928	-0.371104	-0.130172
N65	N	1.445757	-0.323632	-0.075379
H66	H	1.533523	-0.387292	-0.014485
H67	H	1.477064	-0.833635	-0.470079
H68	H	1.174584	-0.481027	-0.545515
