data_functionalizedCrystal
_audit_creation_method	'MofGen! by Chris Wilmer'
_symmetry_space_group_name_H-M	'P1'
_symmetry_Int_Tables_number	1
_symmetry_cell_setting	triclinic
loop_
_symmetry_equiv_pos_as_xyz
  x,y,z
_cell_length_a	25.639240
_cell_length_b	21.395362
_cell_length_c	21.395355
_cell_angle_alpha	89.956060
_cell_angle_beta	89.985684
_cell_angle_gamma	90.047938
loop_
_atom_site_label
_atom_site_type_symbol
_atom_site_fract_x
_atom_site_fract_y
_atom_site_fract_z
Zn1	Zn	-0.207990	0.957854	-0.354604
Zn2	Zn	-0.295409	0.957754	-0.249834
Zn3	Zn	-0.208014	0.853069	-0.249805
Zn4	Zn	-0.295420	0.853035	-0.354539
O5	O	-0.251708	0.905428	-0.302195
O6	O	-0.219571	1.045518	-0.340745
O7	O	-0.283822	0.943839	-0.162152
O8	O	-0.134846	0.867024	-0.263722
O9	O	-0.283798	1.045445	-0.263771
O10	O	-0.134828	0.944009	-0.340717
O11	O	-0.219613	0.866927	-0.162131
O12	O	-0.219623	0.765386	-0.263659
O13	O	-0.283817	0.866968	-0.442225
O14	O	-0.283840	0.765362	-0.340606
O15	O	-0.219582	0.943977	-0.442273
O16	O	-0.368576	0.943807	-0.263708
O17	O	-0.368584	0.866871	-0.340634
C18	C	-0.251736	0.742640	-0.302123
C19	C	-0.251760	0.672999	-0.302107
C20	C	-0.285242	0.640289	-0.342113
C21	C	-0.285230	0.574854	-0.342141
C22	C	-0.251740	0.542131	-0.302151
C23	C	-0.218252	0.574848	-0.262142
C24	C	-0.218262	0.640282	-0.262120
C25	C	-0.247528	0.438406	-0.245746
C26	C	-0.247522	0.372973	-0.245767
C27	C	-0.251706	0.340310	-0.302220
C28	C	-0.255908	0.373088	-0.358654
C29	C	-0.255918	0.438522	-0.358632
C30	C	-0.251725	0.471178	-0.302171
C31	C	-0.285176	0.236648	-0.342260
C32	C	-0.285160	0.171211	-0.342289
C33	C	-0.218184	0.171206	-0.262285
C34	C	-0.218198	0.236642	-0.262261
C35	C	-0.251697	0.269359	-0.302248
C36	C	-0.387551	0.905341	-0.302181
C37	C	-0.445665	0.905362	-0.302196
C38	C	-0.696798	0.945510	-0.342328
C39	C	-0.642194	0.945492	-0.342323
O40	O	-0.613905	0.979555	-0.376424
N41	N	-0.614939	0.905430	-0.302204
C42	C	-0.642291	0.865389	-0.262082
O43	O	-0.614095	0.831313	-0.227956
C44	C	-0.696895	0.865412	-0.262084
C45	C	-0.724146	0.905471	-0.302210
C46	C	-0.724050	0.985567	-0.382451
C47	C	-0.778650	0.985585	-0.382456
C48	C	-0.805999	0.945546	-0.342339
C49	C	-0.778747	0.905489	-0.302216
C50	C	-0.724246	0.825375	-0.221959
C51	C	-0.778853	0.825401	-0.221965
C52	C	-0.806105	0.865461	-0.262091
C53	C	-0.860696	0.865468	-0.262104
N54	N	-0.887951	0.905530	-0.302223
C55	C	-0.860602	0.945568	-0.342341
C56	C	-0.527621	0.865346	-0.262080
C57	C	-0.473018	0.865320	-0.262080
C58	C	-0.472924	0.945423	-0.342321
C59	C	-0.527528	0.945446	-0.342323
C60	C	-0.554875	0.905407	-0.302199
C61	C	-0.975267	0.945603	-0.342349
C62	C	-1.029873	0.945615	-0.342353
C63	C	-1.029962	0.865514	-0.262111
C64	C	-0.975361	0.865499	-0.262109
C65	C	-0.948015	0.905549	-0.302230
O66	O	-0.889019	0.831423	-0.228019
O67	O	-0.888805	0.979645	-0.376455
C68	C	-0.115335	0.905532	-0.302224
C69	C	-0.057221	0.905576	-0.302236
C70	C	-0.251698	0.905480	-0.465619
C71	C	-0.251693	0.905502	-0.535260
C72	C	-0.251681	1.068851	-0.302269
C73	C	-0.251669	1.138492	-0.302300
C74	C	-0.218245	0.945599	-0.567999
C75	C	-0.218222	0.945598	-0.633435
C76	C	-0.251658	0.905507	-0.666128
C77	C	-0.285108	0.865402	-0.633382
C78	C	-0.285126	0.865399	-0.567947
C79	C	-0.298736	0.900530	-0.769796
C80	C	-0.298719	0.900536	-0.835229
C81	C	-0.251602	0.905511	-0.867949
C82	C	-0.204501	0.910491	-0.835228
C83	C	-0.204519	0.910489	-0.769794
C84	C	-0.251642	0.905505	-0.737081
C85	C	-0.218127	0.945609	-0.971641
C86	C	-0.218103	0.945604	-1.037078
C87	C	-0.284994	0.865411	-1.037023
C88	C	-0.285013	0.865413	-0.971588
C89	C	-0.251580	0.905515	-0.938901
C90	C	-0.251681	0.905412	-0.139408
C91	C	-0.251538	0.905511	-0.069767
H92	H	-0.259314	0.346495	-0.404624
H93	H	-0.800834	1.018210	-0.415126
H94	H	-0.190901	0.978259	-0.945026
H95	H	-0.259338	0.465207	-0.404583
H96	H	-0.701787	1.018175	-0.415119
H97	H	-0.702065	0.792755	-0.189285
H98	H	-0.190995	0.666914	-0.229541
H99	H	-0.953172	0.832873	-0.229441
H100	H	-0.166167	0.914543	-0.743155
H101	H	-0.549713	0.978063	-0.375000
H102	H	-0.166134	0.914543	-0.861867
H103	H	-0.190863	0.978255	-1.063733
H104	H	-0.337072	0.896485	-0.861866
H105	H	-0.312213	0.832761	-1.063642
H106	H	-0.312253	0.832765	-0.944931
H107	H	-0.801117	0.792797	-0.189290
H108	H	-1.052239	0.832914	-0.229450
H109	H	-0.312424	0.144580	-0.374871
H110	H	-0.312330	0.832757	-0.660005
H111	H	-1.052059	0.978235	-0.375033
H112	H	-0.190982	0.978249	-0.660096
H113	H	-0.191020	0.978253	-0.541389
H114	H	-0.337094	0.896311	-0.743161
H115	H	-0.312519	0.666923	-0.374674
H116	H	-0.312495	0.548217	-0.374721
H117	H	-0.312450	0.263287	-0.374823
H118	H	-0.450647	0.978026	-0.374986
H119	H	-0.190914	0.144564	-0.229727
H120	H	-0.244119	0.464995	-0.199771
H121	H	-0.190936	0.263274	-0.229681
H122	H	-0.549884	0.832736	-0.229408
H123	H	-0.312363	0.832745	-0.541292
H124	H	-0.953008	0.978215	-0.375019
H125	H	-0.190984	0.548200	-0.229583
H126	H	-0.244104	0.346290	-0.199815
H127	H	-0.450834	0.832693	-0.229413
