data_functionalizedCrystal
_audit_creation_method	'MofGen! by Chris Wilmer'
_symmetry_space_group_name_H-M	'P1'
_symmetry_Int_Tables_number	1
_symmetry_cell_setting	triclinic
loop_
_symmetry_equiv_pos_as_xyz
  x,y,z
_cell_length_a	12.759400
_cell_length_b	19.805407
_cell_length_c	19.805399
_cell_angle_alpha	90.017803
_cell_angle_beta	90.023237
_cell_angle_gamma	90.012001
loop_
_atom_site_label
_atom_site_type_symbol
_atom_site_fract_x
_atom_site_fract_y
_atom_site_fract_z
Zn1	Zn	-0.418366	1.034791	0.382708
Zn2	Zn	-0.594059	1.034729	0.269528
Zn3	Zn	-0.418387	0.921605	0.269536
Zn4	Zn	-0.593995	0.921592	0.382679
O5	O	-0.506202	0.978179	0.326113
O6	O	-0.441690	1.129499	0.367704
O7	O	-0.570791	1.019702	0.174813
O8	O	-0.271363	0.936651	0.284564
O9	O	-0.570771	1.129454	0.284551
O10	O	-0.271348	1.019808	0.367711
O11	O	-0.441725	0.936591	0.174819
O12	O	-0.441663	0.826887	0.284536
O13	O	-0.570662	0.936629	0.477399
O14	O	-0.570682	0.826877	0.367661
O15	O	-0.441628	1.019795	0.477421
O16	O	-0.741072	1.019689	0.284523
O17	O	-0.741025	0.936568	0.367654
C18	C	-0.506169	0.802323	0.326096
C19	C	-0.506180	0.727091	0.326105
C20	C	-0.439086	0.691772	0.369469
C21	C	-0.439092	0.621083	0.369471
C22	C	-0.506197	0.585716	0.326114
C23	C	-0.573294	0.621040	0.282745
C24	C	-0.573282	0.691728	0.282740
C25	C	-0.573341	0.335967	0.282766
C26	C	-0.573350	0.265275	0.282776
C27	C	-0.439151	0.265323	0.369498
C28	C	-0.439139	0.336010	0.369492
C29	C	-0.506231	0.371328	0.326122
C30	C	-0.506223	0.447977	0.326119
C31	C	-0.506211	0.509069	0.326120
C32	C	-0.779169	0.978139	0.326099
C33	C	-0.895946	0.978184	0.326115
C34	C	-0.950797	1.021513	0.282877
C35	C	-1.060521	1.021555	0.282898
C36	C	-1.060532	0.934932	0.369397
C37	C	-0.950810	0.934894	0.369379
C38	C	-0.895933	1.064802	0.239613
C39	C	-0.950784	1.108135	0.196370
C40	C	-1.060508	1.108176	0.196391
C41	C	-1.115381	1.064886	0.239655
C42	C	-0.232168	0.978238	0.326142
C43	C	-0.115392	0.978263	0.326154
C44	C	-0.506136	0.978217	0.502656
C45	C	-0.506107	0.978233	0.577888
C46	C	-0.506236	1.154722	0.326130
C47	C	-0.506250	1.229954	0.326137
C48	C	-0.506192	0.978180	0.150257
C49	C	-0.505924	0.978295	0.075025
C50	C	-0.438916	1.021539	0.613244
C51	C	-0.438886	1.021546	0.683933
C52	C	-0.506052	0.978250	0.719263
C53	C	-0.573247	0.934940	0.683902
C54	C	-0.573271	0.934930	0.613215
C55	C	-0.573149	0.934978	0.968975
C56	C	-0.573122	0.934992	1.039667
C57	C	-0.438763	1.021594	1.039693
C58	C	-0.438788	1.021584	0.969006
C59	C	-0.505977	0.978272	0.933651
C60	C	-0.506008	0.978264	0.857002
C61	C	-0.506028	0.978261	0.795911
H62	H	-0.627973	0.364715	0.247452
H63	H	-0.384174	1.056812	0.712717
O64	O	-1.113807	1.150378	0.154508
C65	C	-1.237528	1.241849	0.145568
C66	C	-1.177239	1.194086	0.193069
H67	H	-1.288844	1.277190	0.176724
H68	H	-1.179474	1.272829	0.114685
H69	H	-1.288958	1.210851	0.110119
H70	H	-1.125808	1.225033	0.228559
H71	H	-1.235350	1.163104	0.223904
H72	H	-0.627916	0.720484	0.247428
H73	H	-0.627927	0.592239	0.247439
O74	O	-1.113995	0.892901	0.411353
C75	C	-1.283035	0.854596	0.449740
C76	C	-1.222622	0.902222	0.402182
H77	H	-1.370870	0.862126	0.442352
H78	H	-1.261615	0.800003	0.437800
H79	H	-1.261332	0.866434	0.504318
H80	H	-1.244292	0.890445	0.347588
H81	H	-1.244047	0.956801	0.414179
O82	O	-0.638445	0.892886	0.578763
C83	C	-0.698072	0.854515	0.469851
C84	C	-0.624196	0.902157	0.508783
H85	H	-0.686594	0.862004	0.413266
H86	H	-0.679604	0.799929	0.483693
H87	H	-0.782776	0.866376	0.483781
H88	H	-0.539468	0.890357	0.494874
H89	H	-0.642754	0.956729	0.494938
H90	H	-1.204725	1.064928	0.239673
H91	H	-0.384097	1.056843	0.940243
H92	H	-0.906150	0.899612	0.404589
H93	H	-0.627874	0.899720	0.940198
O94	O	-0.638568	0.231023	0.240589
C95	C	-0.771714	0.238431	0.154591
C96	C	-0.697895	0.277305	0.202317
H97	H	-0.819714	0.275833	0.123646
H98	H	-0.723456	0.205342	0.119216
H99	H	-0.826676	0.205328	0.185619
H100	H	-0.642918	0.310444	0.171344
H101	H	-0.746218	0.310351	0.237694
O102	O	-0.373803	0.726020	0.411611
C103	C	-0.240738	0.718598	0.497660
C104	C	-0.314604	0.679731	0.449957
H105	H	-0.192872	0.681190	0.528685
H106	H	-0.185663	0.751666	0.466678
H107	H	-0.289059	0.751719	0.532967
H108	H	-0.266368	0.646573	0.414641
H109	H	-0.369683	0.646705	0.480981
H110	H	-0.906102	1.143384	0.161150
H111	H	-0.384050	1.056859	1.068488
O112	O	-0.638400	0.892865	1.073884
C113	C	-0.771706	0.806984	1.066403
C114	C	-0.697820	0.854643	1.027569
H115	H	-0.819782	0.776080	1.028974
H116	H	-0.723496	0.771569	1.099481
H117	H	-0.826594	0.838063	1.099513
H118	H	-0.642917	0.823619	0.994423
H119	H	-0.746096	0.890061	0.994534
H120	H	-0.384224	1.056798	0.584483
O121	O	-0.638604	0.892978	0.718251
C122	C	-0.780378	0.883851	0.798071
C123	C	-0.706441	0.931449	0.759203
H124	H	-0.835228	0.914935	0.831201
H125	H	-0.828482	0.852907	0.760688
H126	H	-0.732101	0.848462	0.831136
H127	H	-0.754637	0.966878	0.726138
H128	H	-0.658333	0.962345	0.796623
O129	O	-0.374068	0.586702	0.411633
C130	C	-0.360145	0.506968	0.503071
C131	C	-0.433906	0.545848	0.455352
H132	H	-0.408496	0.473939	0.538439
H133	H	-0.305159	0.473821	0.472103
H134	H	-0.312167	0.544404	0.534030
H135	H	-0.481952	0.508461	0.424383
H136	H	-0.488823	0.579006	0.486359
H137	H	-0.384499	0.364802	0.404801
H138	H	-0.384517	0.236558	0.404810
H139	H	-0.806590	1.064772	0.239589
