data_functionalizedCrystal
_audit_creation_method	'MofGen! by Chris Wilmer'
_symmetry_space_group_name_H-M	'P1'
_symmetry_Int_Tables_number	1
_symmetry_cell_setting	triclinic
loop_
_symmetry_equiv_pos_as_xyz
  x,y,z
_cell_length_a	10.686285
_cell_length_b	16.625548
_cell_length_c	10.686551
_cell_angle_alpha	94.398840
_cell_angle_beta	80.915481
_cell_angle_gamma	94.368696
loop_
_atom_site_label
_atom_site_type_symbol
_atom_site_fract_x
_atom_site_fract_y
_atom_site_fract_z
Zn1	Zn	-0.450163	-1.288149	-0.679115
Zn2	Zn	-0.116830	-0.954816	-0.345782
Zn3	Zn	0.216503	-0.621483	-0.012448
Zn4	Zn	-0.678743	-1.288084	-0.450613
Zn5	Zn	-0.345410	-0.954751	-0.117279
Zn6	Zn	-0.012076	-0.621417	0.216054
Zn7	Zn	-0.466517	-1.143700	-0.466865
Zn8	Zn	-0.133184	-0.810367	-0.133531
Zn9	Zn	0.200150	-0.477034	0.199802
Zn10	Zn	-0.662360	-1.162920	-0.662806
Zn11	Zn	-0.329027	-0.829586	-0.329472
Zn12	Zn	0.004306	-0.496253	0.003861
O13	O	-0.564446	-1.220713	-0.564850
O14	O	-0.231113	-0.887380	-0.231516
O15	O	0.102221	-0.554047	0.101817
O16	O	-0.480497	-1.400975	-0.648828
O17	O	-0.147164	-1.067641	-0.315494
O18	O	0.186170	-0.734308	0.017839
O19	O	-0.664291	-1.260861	-0.275138
O20	O	-0.330958	-0.927527	0.058196
O21	O	0.002375	-0.594194	0.391529
O22	O	-0.286725	-1.154846	-0.508647
O23	O	0.046608	-0.821512	-0.175314
O24	O	0.379942	-0.488179	0.158019
O25	O	-0.648434	-1.400927	-0.480948
O26	O	-0.315100	-1.067594	-0.147615
O27	O	0.018233	-0.734260	0.185719
O28	O	-0.274710	-1.260972	-0.664587
O29	O	0.058623	-0.927638	-0.331253
O30	O	0.391957	-0.594305	0.002080
O31	O	-0.508370	-1.154783	-0.287078
O32	O	-0.175036	-0.821449	0.046255
O33	O	0.158297	-0.488116	0.379589
O34	O	-0.492484	-1.033416	-0.492833
O35	O	-0.159151	-0.700082	-0.159500
O36	O	0.174183	-0.366749	0.173834
O37	O	-0.620512	-1.187602	-0.842600
O38	O	-0.287178	-0.854269	-0.509267
O39	O	0.046155	-0.520936	-0.175934
O40	O	-0.636369	-1.047536	-0.636790
O41	O	-0.303036	-0.714203	-0.303456
O42	O	0.030297	-0.380869	0.029877
O43	O	-0.464611	-1.279608	-0.854583
O44	O	-0.131278	-0.946275	-0.521249
O45	O	0.202055	-0.612941	-0.187916
O46	O	-0.854193	-1.279497	-0.465133
O47	O	-0.520859	-0.946163	-0.131800
O48	O	-0.187526	-0.612830	0.201533
O49	O	-0.842156	-1.187539	-0.621031
O50	O	-0.508823	-0.854206	-0.287697
O51	O	-0.175490	-0.520872	0.045636
C52	C	-0.894228	-1.235619	-0.539577
C53	C	-0.560894	-0.902286	-0.206243
C54	C	-0.227561	-0.568953	0.127090
C55	C	-1.035307	-1.242072	-0.528807
C56	C	-0.701973	-0.908739	-0.195474
C57	C	-0.368640	-0.575405	0.137860
C58	C	-0.564424	-1.011219	-0.564806
C59	C	-0.231091	-0.677886	-0.231472
C60	C	0.102242	-0.344553	0.101861
C61	C	-0.564443	-0.921600	-0.564815
C62	C	-0.231110	-0.588266	-0.231482
C63	C	0.102223	-0.254933	0.101852
C64	C	-0.564438	-0.593426	-0.564853
C65	C	-0.231105	-0.260092	-0.231520
C66	C	0.102229	0.073241	0.101813
C67	C	-0.564436	-0.684733	-0.564839
C68	C	-0.231103	-0.351400	-0.231505
C69	C	0.102230	-0.018067	0.101828
C70	C	-0.564441	-0.757510	-0.564833
C71	C	-0.231108	-0.424176	-0.231500
C72	C	0.102225	-0.090843	0.101834
C73	C	-0.564438	-0.848823	-0.564821
C74	C	-0.231105	-0.515490	-0.231487
C75	C	0.102228	-0.182156	0.101846
C76	C	-0.233374	-1.205772	-0.590249
C77	C	0.099959	-0.872439	-0.256916
C78	C	0.433292	-0.539106	0.076418
C79	C	-0.092291	-1.199405	-0.601073
C80	C	0.241042	-0.866072	-0.267740
C81	C	0.574375	-0.532739	0.065594
C82	C	-0.538910	-1.235756	-0.895937
C83	C	-0.205576	-0.902423	-0.562604
C84	C	0.127757	-0.569089	-0.229270
C85	C	-0.528028	-1.242167	-1.037027
C86	C	-0.194694	-0.908833	-0.703693
C87	C	0.138639	-0.575500	-0.370360
C88	C	-0.564461	-0.431025	-0.564883
C89	C	-0.231128	-0.097691	-0.231549
C90	C	0.102206	0.235642	0.101784
C91	C	-0.564449	-0.520644	-0.564867
C92	C	-0.231115	-0.187311	-0.231534
C93	C	0.102218	0.146022	0.101800
C94	C	-0.589791	-1.205771	-0.235057
C95	C	-0.256458	-0.872438	0.098276
C96	C	0.076875	-0.539105	0.431609
C97	C	-0.600316	-1.199501	-0.093996
C98	C	-0.266982	-0.866168	0.239338
C99	C	0.066351	-0.532834	0.572671
H100	H	-1.094457	-1.283534	-0.458684
H101	H	-0.761123	-0.950200	-0.125350
H102	H	-0.427790	-0.616867	0.207983
O103	O	-0.693322	-1.144611	-1.015641
O104	O	-0.359988	-0.811278	-0.682307
O105	O	-0.026655	-0.477945	-0.348974
H106	H	-0.687553	-1.148014	-0.913403
H107	H	-0.354219	-0.814681	-0.580070
H108	H	-0.020886	-0.481347	-0.246737
O109	O	-1.013947	-1.144480	-0.693943
O110	O	-0.680614	-0.811147	-0.360610
O111	O	-0.347281	-0.477814	-0.027276
H112	H	-1.041085	-1.081366	-0.670141
H113	H	-0.707751	-0.748033	-0.336808
H114	H	-0.374418	-0.414699	-0.003474
H115	H	-0.457815	-1.283605	-1.096197
H116	H	-0.124481	-0.950271	-0.762864
H117	H	0.208852	-0.616938	-0.429531
