data_functionalizedCrystal
_audit_creation_method	'MofGen! by Chris Wilmer'
_symmetry_space_group_name_H-M	'P1'
_symmetry_Int_Tables_number	1
_symmetry_cell_setting	triclinic
loop_
_symmetry_equiv_pos_as_xyz
  x,y,z
_cell_length_a	13.339070
_cell_length_b	12.837943
_cell_length_c	11.892083
_cell_angle_alpha	85.686224
_cell_angle_beta	85.051828
_cell_angle_gamma	74.770883
loop_
_atom_site_label
_atom_site_type_symbol
_atom_site_fract_x
_atom_site_fract_y
_atom_site_fract_z
O1	O	0.264497	-1.458160	0.093975
O2	O	0.251135	-1.152511	0.093982
O3	O	0.107171	-1.270257	0.093976
O4	O	0.408461	-1.340414	0.093981
O5	O	0.119145	-1.260421	-0.094032
O6	O	0.263109	-1.142676	-0.094025
O7	O	0.276471	-1.448324	-0.094033
Zn8	Zn	0.271691	-1.293938	-0.123879
Zn9	Zn	0.255915	-1.306897	0.123828
O10	O	0.420435	-1.330579	-0.094026
C11	C	0.252608	-1.107675	-0.000021
C12	C	0.239146	-0.988726	-0.000018
C13	C	0.074327	-1.253488	-0.000026
C14	C	-0.041381	-1.218164	-0.000021
N15	N	0.282459	-1.285102	-0.292933
C16	C	-0.379696	-1.492830	-0.000028
C17	C	-0.270983	-1.526022	-0.000039
C18	C	-0.213577	-1.449060	-0.000034
C19	C	-0.264895	-1.338901	-0.000018
C20	C	-0.373618	-1.305705	-0.000016
C21	C	-0.207499	-1.261935	-0.000022
C22	C	-0.258817	-1.151776	-0.000007
C23	C	-0.367530	-1.118585	-0.000003
C24	C	-0.424936	-1.195547	-0.000008
C25	C	-0.098776	-1.295131	-0.000025
C26	C	-0.092698	-1.108006	-0.000013
C27	C	-0.201411	-1.074814	-0.000002
C28	C	0.453280	-1.347347	-0.000022
C29	C	0.568986	-1.382672	-0.000020
C30	C	0.274998	-1.493161	-0.000027
C31	C	0.288460	-1.612110	-0.000023
C32	C	0.400986	-0.794315	-0.000032
C33	C	0.388342	-0.682553	-0.000030
C34	C	0.201215	-0.653436	-0.000021
C35	C	0.213859	-0.765199	-0.000023
C36	C	0.313748	-0.835635	-0.000026
C37	C	0.326390	-0.947400	-0.000020
C38	C	0.139265	-0.918281	-0.000019
C39	C	0.126621	-0.806519	-0.000017
C40	C	0.357496	-1.223710	-0.470468
C41	C	0.349952	-1.229863	-0.352126
C42	C	0.222503	-1.334190	-0.352090
C43	C	0.230047	-1.328037	-0.470432
C44	C	0.297547	-1.272797	-0.529617
C45	C	0.305096	-1.266652	-0.647961
C46	C	0.177642	-1.370972	-0.647922
C47	C	0.170098	-1.377124	-0.529581
N48	N	0.245140	-1.315739	0.292882
H49	H	-0.057004	-1.384823	-0.000038
H50	H	0.167539	-1.379156	-0.303886
H51	H	0.482319	-0.851666	-0.000033
F52	F	0.046413	-0.962264	0.000001
H53	H	0.119896	-0.596064	-0.000111
F54	F	0.413755	-1.177615	-0.289180
F55	F	0.113843	-1.423222	-0.710884
H56	H	-0.125058	-1.476092	-0.000044
H57	H	0.045295	-0.749154	-0.000027
F58	F	0.376937	-1.207865	-0.710947
H59	H	0.115138	-1.422096	-0.481379
H60	H	-0.045958	-1.045336	-0.000015
H61	H	-0.229208	-1.615714	-0.000053
H62	H	-0.426445	-1.555480	-0.000041
F63	F	-0.540649	-1.160231	0.000110
H64	H	-0.409309	-1.028886	0.000001
F65	F	0.432699	-1.022362	-0.000020
H66	H	0.412464	-1.178741	-0.518657
H67	H	-0.243210	-0.985120	0.000010
F68	F	0.481193	-0.638582	-0.000039
