data_functionalizedCrystal
_audit_creation_method	'MofGen! by Chris Wilmer'
_symmetry_space_group_name_H-M	'P1'
_symmetry_Int_Tables_number	1
_symmetry_cell_setting	triclinic
loop_
_symmetry_equiv_pos_as_xyz
  x,y,z
_cell_length_a	17.699097
_cell_length_b	16.776229
_cell_length_c	10.654543
_cell_angle_alpha	89.996883
_cell_angle_beta	96.114698
_cell_angle_gamma	90.010738
loop_
_atom_site_label
_atom_site_type_symbol
_atom_site_fract_x
_atom_site_fract_y
_atom_site_fract_z
O1	O	1.005080	0.066348	-0.158889
O2	O	1.505080	0.566348	0.341111
O3	O	0.784834	0.066335	-0.179533
O4	O	1.284834	0.566335	0.320467
O5	O	0.900023	0.066344	0.013617
O6	O	1.400023	0.566344	0.513617
O7	O	0.889890	0.066339	-0.352039
O8	O	1.389890	0.566339	0.147961
O9	O	0.900008	-0.066233	0.013629
O10	O	1.400008	0.433767	0.513629
O11	O	0.784818	-0.066242	-0.179521
O12	O	1.284818	0.433758	0.320479
O13	O	1.005064	-0.066228	-0.158877
O14	O	1.505064	0.433772	0.341123
Zn15	Zn	0.894939	-0.087284	-0.169197
Zn16	Zn	1.394939	0.412716	0.330803
Zn17	Zn	0.894959	0.087391	-0.169212
Zn18	Zn	1.394959	0.587391	0.330788
O19	O	0.889875	-0.066237	-0.352027
O20	O	1.389875	0.433763	0.147973
C21	C	0.756625	0.000045	-0.178784
C22	C	1.256625	0.500045	0.321216
C23	C	0.672593	0.000040	-0.176556
C24	C	1.172593	0.500040	0.323444
C25	C	0.156797	0.072340	-0.162909
C26	C	0.656797	0.572340	0.337091
C27	C	0.235754	0.072336	-0.164993
C28	C	0.735754	0.572336	0.335007
C29	C	0.275218	0.000065	-0.166031
C30	C	0.775218	0.500065	0.333969
C31	C	0.235722	-0.072207	-0.164971
C32	C	0.735722	0.427793	0.335029
C33	C	0.156766	-0.072202	-0.162878
C34	C	0.656766	0.427798	0.337122
C35	C	0.554139	-0.072228	-0.173412
C36	C	1.054139	0.427772	0.326588
C37	C	0.633100	-0.072227	-0.175510
C38	C	1.133100	0.427773	0.324490
C39	C	0.633127	0.072310	-0.175528
C40	C	1.133127	0.572310	0.324472
C41	C	0.554172	0.072314	-0.173434
C42	C	1.054172	0.572314	0.326566
C43	C	0.514683	0.000044	-0.172368
C44	C	1.014683	0.500044	0.327632
C45	C	0.429068	0.000049	-0.170105
C46	C	0.929068	0.500049	0.329895
C47	C	0.360830	0.000059	-0.168302
C48	C	0.860830	0.500059	0.331698
N49	N	0.894931	-0.206496	-0.169185
N50	N	1.394931	0.293504	0.330815
C51	C	0.945952	-0.248209	-0.083694
C52	C	1.445952	0.251791	0.416306
C53	C	0.945957	-0.331661	-0.083693
C54	C	1.445957	0.168339	0.416307
C55	C	0.894942	-0.373399	-0.169190
C56	C	1.394942	0.126601	0.330810
C57	C	0.843915	-0.331680	-0.254686
C58	C	1.343915	0.168320	0.245314
C59	C	0.843908	-0.248229	-0.254680
C60	C	1.343908	0.251771	0.245320
C61	C	0.843942	-0.668227	-0.254711
C62	C	1.343942	-0.168227	0.245289
C63	C	0.843955	-0.751683	-0.254713
C64	C	1.343955	-0.251683	0.245287
C65	C	0.945991	-0.751659	-0.083723
C66	C	1.445991	-0.251659	0.416277
C67	C	0.945984	-0.668208	-0.083717
C68	C	1.445984	-0.168208	0.416283
C69	C	0.894955	-0.626496	-0.169208
C70	C	1.394955	-0.126496	0.330792
C71	C	0.894950	-0.536008	-0.169207
C72	C	1.394950	-0.036008	0.330793
C73	C	0.894950	-0.463885	-0.169199
C74	C	1.394950	0.036115	0.330801
C75	C	1.033274	0.000064	-0.159625
C76	C	1.533274	0.500064	0.340375
C77	C	1.117305	0.000074	-0.161853
C78	C	1.617305	0.500074	0.338147
C79	C	0.899273	0.000057	0.060409
C80	C	1.399273	0.500057	0.560409
C81	C	0.897050	0.000064	0.199813
C82	C	1.397050	0.500064	0.699813
N83	N	0.894974	0.206602	-0.169214
N84	N	1.394974	0.706602	0.330786
C85	C	0.964871	0.000071	0.280481
C86	C	1.464871	0.500071	0.780481
C87	C	0.962778	0.000085	0.411466
C88	C	1.462778	0.500085	0.911466
C89	C	0.825037	0.000082	0.381102
C90	C	1.325037	0.500082	0.881102
C91	C	0.827130	0.000073	0.250120
C92	C	1.327130	0.500073	0.750120
C93	C	0.890629	0.000060	0.601183
C94	C	1.390629	0.500060	1.101183
C95	C	0.892863	0.000087	0.461780
C96	C	1.392863	0.500087	0.961780
H97	H	0.521998	-0.131075	-0.172526
H98	H	1.021998	0.368925	0.327474
C99	C	0.676568	0.151808	-0.176685
C100	C	1.176568	0.651808	0.323315
H101	H	0.729244	0.141458	-0.178066
H102	H	1.229244	0.641458	0.321934
H103	H	0.658247	0.181500	-0.249549
H104	H	1.158247	0.681500	0.250451
H105	H	0.669020	0.181503	-0.103134
H106	H	1.169020	0.681503	0.396866
H107	H	1.018005	0.000093	0.477141
H108	H	1.518005	0.500093	0.977141
H109	H	0.665229	-0.131082	-0.176355
H110	H	1.165229	0.368918	0.323645
H111	H	0.124613	-0.131048	-0.162031
H112	H	0.624613	0.368952	0.337969
H113	H	0.987497	-0.214231	-0.014077
H114	H	1.487497	0.285769	0.485923
C115	C	0.748131	0.000081	0.436445
C116	C	1.248131	0.500081	0.936445
H117	H	0.756597	0.000079	0.526007
H118	H	1.256597	0.500079	1.026007
H119	H	0.720180	0.046310	0.408734
H120	H	1.220180	0.546310	0.908734
H121	H	0.720175	-0.046161	0.408749
H122	H	1.220175	0.453839	0.908749
C123	C	0.113389	0.151836	-0.161770
C124	C	0.613389	0.651836	0.338230
H125	H	0.060709	0.141492	-0.160384
H126	H	0.560709	0.641492	0.339616
H127	H	0.131723	0.181532	-0.088914
H128	H	0.631723	0.681532	0.411086
H129	H	0.120948	0.181526	-0.235329
H130	H	0.620948	0.681526	0.264671
C131	C	0.279129	-0.151705	-0.166078
C132	C	0.779129	0.348295	0.333922
H133	H	0.244301	-0.194743	-0.165128
H134	H	0.744301	0.305257	0.334872
H135	H	0.304549	-0.154728	-0.240088
H136	H	0.804549	0.345272	0.259912
H137	H	0.315311	-0.154695	-0.093672
H138	H	0.815311	0.345305	0.406328
C139	C	1.002097	-0.622301	0.010334
C140	C	1.502097	-0.122301	0.510334
H141	H	1.032481	-0.659097	0.061260
H142	H	1.532481	-0.159097	0.561260
H143	H	1.033833	-0.589732	-0.034772
H144	H	1.533833	-0.089732	0.465228
H145	H	0.974590	-0.589762	0.062560
H146	H	1.474590	-0.089762	0.562560
H147	H	0.987502	-0.365623	-0.014078
H148	H	1.487502	0.134377	0.485922
H149	H	0.771899	0.000070	0.184437
H150	H	1.271899	0.500070	0.684437
H151	H	0.267905	0.131182	-0.165845
H152	H	0.767905	0.631182	0.334155
H153	H	0.522043	0.131165	-0.172595
H154	H	1.022043	0.631165	0.327405
C155	C	1.002118	-0.797540	0.010331
C156	C	1.502118	-0.297540	0.510331
H157	H	1.032504	-0.760729	0.061240
H158	H	1.532504	-0.260729	0.561240
H159	H	0.974627	-0.830105	0.062556
H160	H	1.474627	-0.330105	0.562556
H161	H	1.033862	-0.830082	-0.034790
H162	H	1.533862	-0.330082	0.465210
C163	C	0.787823	-0.797593	-0.348742
C164	C	1.287823	-0.297593	0.151258
H165	H	0.757422	-0.760800	-0.399644
H166	H	1.257422	-0.260800	0.100356
H167	H	0.815310	-0.830141	-0.400976
H168	H	1.315310	-0.330141	0.099024
H169	H	0.756094	-0.830155	-0.303598
H170	H	1.256094	-0.330155	0.196402
C171	C	0.787819	-0.622354	-0.348757
C172	C	1.287819	-0.122354	0.151243
H173	H	0.757446	-0.659166	-0.399685
H174	H	1.257446	-0.159166	0.100315
H175	H	0.756074	-0.589813	-0.303649
H176	H	1.256074	-0.089813	0.196351
H177	H	0.815317	-0.589790	-0.400983
H178	H	1.315317	-0.089790	0.099017
C179	C	0.787776	-0.377585	-0.348697
C180	C	1.287776	0.122415	0.151303
H181	H	0.757376	-0.340788	-0.399594
H182	H	1.257376	0.159212	0.100406
H183	H	0.815251	-0.410140	-0.400939
H184	H	1.315251	0.089860	0.099061
H185	H	0.756047	-0.410138	-0.303541
H186	H	1.256047	0.089862	0.196459
C187	C	0.787787	-0.202344	-0.348726
C188	C	1.287787	0.297656	0.151274
H189	H	0.757410	-0.239152	-0.399655
H190	H	1.257410	0.260848	0.100345
H191	H	0.756045	-0.169802	-0.303612
H192	H	1.256045	0.330198	0.196388
H193	H	0.815285	-0.169780	-0.400951
H194	H	1.315285	0.330220	0.099049
H195	H	1.021804	0.000065	0.239526
H196	H	1.521804	0.500065	0.739526
