data_functionalizedCrystal
_audit_creation_method	'MofGen! by Chris Wilmer'
_symmetry_space_group_name_H-M	'P1'
_symmetry_Int_Tables_number	1
_symmetry_cell_setting	triclinic
loop_
_symmetry_equiv_pos_as_xyz
  x,y,z
_cell_length_a	14.519709
_cell_length_b	9.798715
_cell_length_c	10.723024
_cell_angle_alpha	90.001978
_cell_angle_beta	95.925993
_cell_angle_gamma	90.001928
loop_
_atom_site_label
_atom_site_type_symbol
_atom_site_fract_x
_atom_site_fract_y
_atom_site_fract_z
O1	O	1.224702	-0.113310	-0.163572
O2	O	1.724702	0.386690	0.336428
O3	O	0.956324	-0.113351	-0.182835
O4	O	1.456324	0.386649	0.317165
O5	O	1.096703	-0.113324	0.008431
O6	O	1.596703	0.386676	0.508431
O7	O	1.084322	-0.113336	-0.354837
O8	O	1.584322	0.386664	0.145163
O9	O	1.096693	0.113658	0.008431
O10	O	1.596693	0.613658	0.508431
O11	O	0.956313	0.113631	-0.182834
O12	O	1.456313	0.613631	0.317166
O13	O	1.224692	0.113673	-0.163571
O14	O	1.724692	0.613673	0.336429
Zn15	Zn	1.090501	0.149690	-0.173203
Zn16	Zn	1.590501	0.649690	0.326797
Zn17	Zn	1.090515	-0.149369	-0.173203
Zn18	Zn	1.590515	0.350631	0.326797
O19	O	1.084312	0.113646	-0.354837
O20	O	1.584312	0.613646	0.145163
C21	C	0.921954	0.000135	-0.181937
C22	C	1.421954	0.500135	0.318063
C23	C	0.819559	0.000119	-0.179246
C24	C	1.319559	0.500119	0.320754
N25	N	1.090498	0.353790	-0.173201
N26	N	1.590498	0.853790	0.326799
N27	N	1.090525	-0.353468	-0.173194
N28	N	1.590525	0.146532	0.326806
C29	C	0.444613	0.000182	-0.169343
C30	C	0.944613	0.500182	0.330657
C31	C	0.548935	0.000164	-0.172093
C32	C	1.048935	0.500164	0.327907
C33	C	0.632082	0.000149	-0.174294
C34	C	1.132082	0.500149	0.325706
C35	C	0.736411	0.000134	-0.177045
C36	C	1.236411	0.500134	0.322955
C37	C	1.259061	0.000184	-0.164469
C38	C	1.759061	0.500184	0.335531
C39	C	1.361456	0.000191	-0.167159
C40	C	1.861456	0.500191	0.332841
C41	C	1.095797	0.000165	0.054922
C42	C	1.595797	0.500165	0.554922
C43	C	1.093101	0.000160	0.193451
C44	C	1.593101	0.500160	0.693451
C45	C	1.149440	0.421578	-0.092543
C46	C	1.649440	0.921578	0.407457
C47	C	1.149454	0.578741	-0.092538
C48	C	1.649454	1.078741	0.407462
C49	C	1.085218	0.000154	-0.401328
C50	C	1.585218	0.500154	0.098672
C51	C	1.087914	0.000150	-0.539857
C52	C	1.587914	0.500150	-0.039857
C53	C	1.171651	0.000170	0.269169
C54	C	1.671651	0.500170	0.769169
C55	C	1.168866	0.000165	0.412346
C56	C	1.668866	0.500165	0.912346
H57	H	1.199920	0.637035	-0.023488
H58	H	1.699920	1.137035	0.476512
O59	O	1.030178	0.423287	-0.255459
O60	O	1.530178	0.923287	0.244541
C61	C	0.938667	0.388457	-0.235302
C62	C	1.438667	0.888457	0.264698
H63	H	0.937353	0.349086	-0.135463
H64	H	1.437353	0.849086	0.364537
H65	H	0.892560	0.482495	-0.249598
H66	H	1.392560	0.982495	0.250402
H67	H	0.912090	0.305628	-0.304545
H68	H	1.412090	0.805628	0.195455
O69	O	1.249118	0.000415	0.489903
O70	O	1.749118	0.500415	0.989903
C71	C	1.300827	0.117960	0.467108
C72	C	1.800827	0.617960	0.967108
H73	H	1.252454	0.200121	0.422660
H74	H	1.752454	0.700121	0.922660
H75	H	1.337145	0.157420	0.559421
H76	H	1.837145	0.657420	1.059421
H77	H	1.354695	0.091390	0.400813
H78	H	1.854695	0.591390	0.900813
H79	H	1.199888	0.363265	-0.023486
H80	H	1.699888	0.863265	0.476514
O81	O	1.007708	-0.000104	0.382491
O82	O	1.507708	0.499896	0.882491
C83	C	1.004240	-0.117639	0.306297
C84	C	1.504240	0.382361	0.806297
H85	H	1.051066	-0.199798	0.353925
H86	H	1.551066	0.300202	0.853925
H87	H	0.930051	-0.157113	0.291703
H88	H	1.430051	0.342887	0.791703
H89	H	1.028796	-0.091052	0.211653
H90	H	1.528796	0.408948	0.711653
O91	O	1.010354	0.000324	0.242411
O92	O	1.510354	0.500324	0.742411
C93	C	0.959889	0.117891	0.201790
C94	C	1.459889	0.617891	0.701790
H95	H	0.985498	0.157095	0.111406
H96	H	1.485498	0.657095	0.611406
H97	H	0.883198	0.091439	0.184032
H98	H	1.383198	0.591439	0.684032
H99	H	0.970164	0.200205	0.277081
H100	H	1.470164	0.700205	0.777081
O101	O	1.030445	0.576856	-0.255638
O102	O	1.530445	1.076856	0.244362
C103	C	1.080537	0.494223	-0.332513
C104	C	1.580537	0.994223	0.167487
H105	H	1.152317	0.472947	-0.282755
H106	H	1.652317	0.972947	0.217245
H107	H	1.042255	0.393692	-0.352195
H108	H	1.542255	0.893692	0.147805
H109	H	1.087545	0.549209	-0.424750
H110	H	1.587545	1.049209	0.075250
H111	H	1.240961	0.000189	0.227995
H112	H	1.740961	0.500189	0.727995
