data_functionalizedCrystal
_audit_creation_method	'MofGen! by Chris Wilmer'
_symmetry_space_group_name_H-M	'P1'
_symmetry_Int_Tables_number	1
_symmetry_cell_setting	triclinic
loop_
_symmetry_equiv_pos_as_xyz
  x,y,z
_cell_length_a	18.101395
_cell_length_b	12.759401
_cell_length_c	12.759393
_cell_angle_alpha	89.980324
_cell_angle_beta	89.967630
_cell_angle_gamma	90.031531
loop_
_atom_site_label
_atom_site_type_symbol
_atom_site_fract_x
_atom_site_fract_y
_atom_site_fract_z
Zn1	Zn	-0.294785	1.606147	-0.593971
Zn2	Zn	-0.418645	1.605987	-0.418285
Zn3	Zn	-0.294822	1.430445	-0.418310
Zn4	Zn	-0.418591	1.430387	-0.593926
O5	O	-0.356711	1.518242	-0.506123
O6	O	-0.311223	1.753146	-0.570674
O7	O	-0.402257	1.582659	-0.271268
O8	O	-0.191185	1.453844	-0.441641
O9	O	-0.402222	1.753030	-0.441599
O10	O	-0.191157	1.582931	-0.570698
O11	O	-0.311286	1.453689	-0.271286
O12	O	-0.311233	1.283417	-0.441598
O13	O	-0.402129	1.453744	-0.740953
O14	O	-0.402165	1.283374	-0.570622
O15	O	-0.311170	1.582874	-0.740986
O16	O	-0.522270	1.582603	-0.441556
O17	O	-0.522231	1.453590	-0.570598
C18	C	-0.356698	1.245274	-0.506108
C19	C	-0.356710	1.128498	-0.506127
C20	C	-0.309413	1.073697	-0.573440
C21	C	-0.309420	0.963973	-0.573447
C22	C	-0.404029	0.963860	-0.438825
C23	C	-0.404017	1.073582	-0.438813
C24	C	-0.549121	1.518101	-0.506092
C25	C	-0.631435	1.518137	-0.506114
C26	C	-0.930526	1.518368	-0.506171
C27	C	-0.899207	1.437384	-0.587563
C28	C	-0.813589	1.436999	-0.587308
C29	C	-0.782144	1.518253	-0.506144
C30	C	-0.813302	1.488270	-0.395419
C31	C	-0.898947	1.487748	-0.395906
C32	C	-0.898868	1.629510	-0.534529
C33	C	-0.813216	1.628857	-0.536958
C34	C	-0.698284	1.518190	-0.506121
C35	C	-1.014386	1.518428	-0.506186
C36	C	-0.163549	1.518411	-0.506177
C37	C	-0.081235	1.518484	-0.506200
C38	C	-0.356640	1.518320	-0.780157
C39	C	-0.356609	1.518354	-0.896933
C40	C	-0.356724	1.792275	-0.506139
C41	C	-0.356730	1.909051	-0.506145
C42	C	-0.309239	1.585597	-0.951814
C43	C	-0.309207	1.585614	-1.061538
C44	C	-0.403922	1.451143	-1.061491
C45	C	-0.403949	1.451121	-0.951769
C46	C	-0.356728	1.518224	-0.233156
C47	C	-0.356550	1.518394	-0.116380
H48	H	-0.442533	1.118201	-0.383993
Br49	Br	-0.244922	1.676884	-1.136016
Br50	Br	-0.777527	1.734752	-0.445362
Br51	Br	-0.933446	1.468333	-0.724854
Br52	Br	-0.468230	0.889324	-0.347477
Br53	Br	-0.932639	1.730079	-0.435743
Br54	Br	-0.778468	1.468264	-0.724150
Br55	Br	-0.468235	1.359847	-0.877281
Br56	Br	-0.935207	1.300914	-0.556678
H57	H	-0.270890	1.118406	-0.628248
Br58	Br	-0.245225	0.889605	-0.664801
H59	H	-0.270690	1.640339	-0.907170
Br60	Br	-0.779545	1.299689	-0.556008
Br61	Br	-0.468169	1.359908	-1.135918
H62	H	-0.918992	1.406503	-0.371882
Br63	Br	-0.777668	1.354289	-0.354656
Br64	Br	-0.933488	1.581781	-0.291378
H65	H	-0.920411	1.656845	-0.613894
Br66	Br	-0.779361	1.583486	-0.291581
H67	H	-0.792848	1.651467	-0.618445
