data_functionalizedCrystal
_audit_creation_method	'MofGen! by Chris Wilmer'
_symmetry_space_group_name_H-M	'P1'
_symmetry_Int_Tables_number	1
_symmetry_cell_setting	triclinic
loop_
_symmetry_equiv_pos_as_xyz
  x,y,z
_cell_length_a	14.519709
_cell_length_b	15.538191
_cell_length_c	14.750488
_cell_angle_alpha	97.575697
_cell_angle_beta	102.668122
_cell_angle_gamma	114.523881
loop_
_atom_site_label
_atom_site_type_symbol
_atom_site_fract_x
_atom_site_fract_y
_atom_site_fract_z
O1	O	-0.272513	-1.228996	0.079835
O2	O	-0.166087	-0.954916	0.079837
O3	O	-0.355986	-1.099225	0.079827
O4	O	-0.082614	-1.084687	0.079844
O5	O	-0.409673	-1.140033	-0.079833
O6	O	-0.219774	-0.995724	-0.079824
O7	O	-0.326201	-1.269804	-0.079825
Zn8	Zn	-0.281511	-1.139243	-0.105174
Zn9	Zn	-0.210776	-1.085477	0.105185
O10	O	-0.136302	-1.125495	-0.079816
C11	C	-0.181796	-0.940243	0.000007
C12	C	-0.148628	-0.835725	0.000007
C13	C	-0.416961	-1.118952	-0.000003
C14	C	-0.518660	-1.116922	-0.000004
N15	N	-0.329789	-1.175944	-0.248738
C16	C	-0.891034	-1.109444	0.000021
C17	C	-0.787427	-1.111521	0.000014
C18	C	-0.704851	-1.113183	0.000008
C19	C	-0.601236	-1.115260	0.000003
C20	C	-0.075325	-1.105768	0.000017
C21	C	0.026375	-1.107796	0.000024
C22	C	-0.310491	-1.284476	0.000007
C23	C	-0.343656	-1.388993	0.000013
C24	C	-0.478139	-0.547381	0.000001
C25	C	-0.446949	-0.449167	0.000004
C26	C	-0.271514	-0.427017	0.000015
C27	C	-0.302691	-0.525232	0.000007
C28	C	-0.406004	-0.585407	0.000002
C29	C	-0.230557	-0.563258	0.000008
C30	C	-0.261730	-0.661464	0.000005
C31	C	-0.365037	-0.721643	0.000003
C32	C	-0.437177	-0.683612	-0.000001
C33	C	-0.127242	-0.503080	0.000020
C34	C	-0.055108	-0.541106	0.000021
C35	C	-0.086282	-0.639315	0.000012
C36	C	-0.189590	-0.699494	0.000009
C37	C	-0.014142	-0.677346	0.000015
C38	C	-0.045315	-0.775551	0.000013
C39	C	-0.220763	-0.797700	0.000006
C40	C	-0.464553	-1.278410	-0.399487
C41	C	-0.430739	-1.252695	-0.298982
C42	C	-0.262616	-1.124874	-0.298988
C43	C	-0.296418	-1.150575	-0.399496
C44	C	-0.397387	-1.227344	-0.449737
C45	C	-0.229251	-1.099510	-0.449746
C46	C	-0.263049	-1.125213	-0.550244
C47	C	-0.364013	-1.201981	-0.600493
C48	C	-0.431185	-1.253047	-0.550236
C49	C	-0.128279	-1.022746	-0.399503
C50	C	-0.061113	-0.971681	-0.449753
C51	C	-0.094913	-0.997379	-0.550253
C52	C	-0.195877	-1.074146	-0.600502
C53	C	-0.027741	-0.946312	-0.600510
C54	C	-0.061539	-0.972015	-0.701009
C55	C	-0.229674	-1.099849	-0.701000
N56	N	-0.162508	-1.048784	0.248750
H57	H	-0.304892	-0.846699	-0.000004
H58	H	0.054473	-0.883812	-0.559591
H59	H	-0.006843	-0.930432	-0.741923
C60	C	-0.401197	-1.230260	-0.711039
H61	H	-0.470946	-1.283298	-0.733762
H62	H	-0.401359	-1.175890	-0.733790
H63	H	-0.354232	-1.249058	-0.733766
H64	H	-0.513408	-1.315553	-0.591144
C65	C	0.034029	-0.817383	0.000013
H66	H	0.100019	-0.767483	0.000008
H67	H	0.044236	-0.841003	0.055690
H68	H	0.006788	-0.869464	-0.055671
C69	C	0.099495	-0.611147	0.000025
H70	H	0.107727	-0.547214	0.000024
H71	H	0.149152	-0.608465	0.055701
H72	H	0.111704	-0.636918	-0.055660
H73	H	-0.521307	-0.732612	-0.000011
C74	C	-0.399335	-0.829668	0.000002
H75	H	-0.471191	-0.860055	0.000006
H76	H	-0.392713	-0.862028	-0.055672
H77	H	-0.355266	-0.833561	0.055689
H78	H	-0.546777	-1.340916	-0.440396
C79	C	-0.151560	-1.040429	-0.243718
H80	H	-0.141052	-1.032430	-0.176667
H81	H	-0.098989	-1.054951	-0.260180
H82	H	-0.146134	-0.981798	-0.260200
H83	H	-0.101863	-0.423115	0.000025
H84	H	-0.485443	-1.294286	-0.258073
C85	C	-0.591784	-0.613586	-0.000015
H86	H	-0.600016	-0.677520	-0.000023
H87	H	-0.604008	-0.587818	0.055656
H88	H	-0.641438	-0.616276	-0.055705
C89	C	-0.526305	-0.407343	0.000001
H90	H	-0.592297	-0.457250	-0.000008
H91	H	-0.499067	-0.355263	0.055679
H92	H	-0.536518	-0.383727	-0.055682
C93	C	0.049943	-0.887236	-0.394482
H94	H	0.060451	-0.879236	-0.327432
H95	H	0.102514	-0.901758	-0.410944
H96	H	0.055369	-0.828604	-0.410964
H97	H	0.029011	-0.492098	0.000029
H98	H	-0.187395	-0.378009	0.000023
H99	H	-0.311898	-1.162355	-0.741909
H100	H	-0.100764	-1.001825	-0.317670
