data_functionalizedCrystal
_audit_creation_method	'MofGen! by Chris Wilmer'
_symmetry_space_group_name_H-M	'P1'
_symmetry_Int_Tables_number	1
_symmetry_cell_setting	triclinic
loop_
_symmetry_equiv_pos_as_xyz
  x,y,z
_cell_length_a	27.732048
_cell_length_b	27.732048
_cell_length_c	16.776229
_cell_angle_alpha	89.988391
_cell_angle_beta	89.998347
_cell_angle_gamma	82.642655
loop_
_atom_site_label
_atom_site_type_symbol
_atom_site_fract_x
_atom_site_fract_y
_atom_site_fract_z
O1	O	0.640929	0.057518	-0.066194
O2	O	0.890929	0.307518	0.183806
O3	O	1.140929	0.557518	0.433806
O4	O	1.390929	0.807518	0.683806
O5	O	0.500135	0.066264	-0.066219
O6	O	0.750135	0.316264	0.183781
O7	O	1.000135	0.566264	0.433781
O8	O	1.250135	0.816264	0.683781
O9	O	0.574905	-0.008506	-0.066191
O10	O	0.824905	0.241494	0.183809
O11	O	1.074905	0.491494	0.433809
O12	O	1.324905	0.741494	0.683809
O13	O	0.566159	0.132288	-0.066223
O14	O	0.816159	0.382288	0.183777
O15	O	1.066159	0.632288	0.433777
O16	O	1.316159	0.882288	0.683777
O17	O	0.574895	-0.008510	0.066386
O18	O	0.824895	0.241490	0.316386
O19	O	1.074895	0.491490	0.566386
O20	O	1.324895	0.741490	0.816386
O21	O	0.500126	0.066259	0.066357
O22	O	0.750126	0.316259	0.316357
O23	O	1.000126	0.566259	0.566357
O24	O	1.250126	0.816259	0.816357
O25	O	0.640919	0.057514	0.066383
O26	O	0.890919	0.307514	0.316383
O27	O	1.140919	0.557514	0.566383
O28	O	1.390919	0.807514	0.816383
Zn29	Zn	0.570521	0.061886	0.087419
Zn30	Zn	0.820521	0.311886	0.337419
Zn31	Zn	1.070521	0.561886	0.587419
Zn32	Zn	1.320521	0.811886	0.837419
Zn33	Zn	0.570534	0.061892	-0.087256
Zn34	Zn	0.820534	0.311892	0.162744
Zn35	Zn	1.070534	0.561892	0.412744
Zn36	Zn	1.320534	0.811892	0.662744
O37	O	0.566150	0.132283	0.066354
O38	O	0.816150	0.382283	0.316354
O39	O	1.066150	0.632283	0.566354
O40	O	1.316150	0.882283	0.816354
C41	C	0.482124	0.066078	0.000066
C42	C	0.732124	0.316078	0.250066
C43	C	0.982124	0.566078	0.500066
C44	C	1.232124	0.816078	0.750066
C45	C	0.428469	0.065525	0.000057
C46	C	0.678469	0.315525	0.250057
C47	C	0.928469	0.565525	0.500057
C48	C	1.178469	0.815525	0.750057
C49	C	0.089654	0.106229	0.000082
C50	C	0.339654	0.356229	0.250082
C51	C	0.589654	0.606229	0.500082
C52	C	0.839654	0.856229	0.750082
C53	C	-0.112006	0.104178	0.000090
C54	C	0.137994	0.354178	0.250090
C55	C	0.387994	0.604178	0.500090
C56	C	0.637994	0.854178	0.750090
O57	O	-0.143262	0.141398	0.000116
O58	O	0.106738	0.391398	0.250116
O59	O	0.356738	0.641398	0.500116
O60	O	0.606738	0.891398	0.750116
N61	N	-0.131130	0.059843	0.000098
N62	N	0.118870	0.309843	0.250098
N63	N	0.368870	0.559843	0.500098
N64	N	0.618870	0.809843	0.750098
C65	C	-0.099835	0.016017	0.000110
C66	C	0.150165	0.266017	0.250110
C67	C	0.400165	0.516017	0.500110
C68	C	0.650165	0.766017	0.750110
O69	O	-0.120728	-0.021740	0.000126
O70	O	0.129272	0.228260	0.250126
O71	O	0.379272	0.478260	0.500126
O72	O	0.629272	0.728260	0.750126
C73	C	0.101824	0.018068	0.000109
C74	C	0.351824	0.268068	0.250109
C75	C	0.601824	0.518068	0.500109
C76	C	0.851824	0.768068	0.750109
C77	C	0.120944	0.062407	0.000092
C78	C	0.370944	0.312407	0.250092
C79	C	0.620944	0.562407	0.500092
C80	C	0.870944	0.812407	0.750092
C81	C	0.108775	0.150563	0.000066
C82	C	0.358775	0.400563	0.250066
C83	C	0.608775	0.650563	0.500066
C84	C	0.858775	0.900563	0.750066
C85	C	0.159187	0.151075	0.000060
C86	C	0.409187	0.401075	0.250060
C87	C	0.659187	0.651075	0.500060
C88	C	0.909187	0.901075	0.750060
C89	C	0.190477	0.107253	0.000070
C90	C	0.440477	0.357253	0.250070
C91	C	0.690477	0.607253	0.500070
C92	C	0.940477	0.857253	0.750070
C93	C	0.171356	0.062919	0.000086
C94	C	0.421356	0.312919	0.250086
C95	C	0.671356	0.562919	0.500086
C96	C	0.921356	0.812919	0.750086
C97	C	0.133117	-0.025757	0.000126
C98	C	0.383117	0.224243	0.250126
C99	C	0.633117	0.474243	0.500126
C100	C	0.883117	0.724243	0.750126
C101	C	0.183535	-0.025240	0.000128
C102	C	0.433535	0.224760	0.250128
C103	C	0.683535	0.474760	0.500128
C104	C	0.933535	0.724760	0.750128
C105	C	0.202655	0.019098	0.000111
C106	C	0.452655	0.269098	0.250111
C107	C	0.702655	0.519098	0.500111
C108	C	0.952655	0.769098	0.750111
C109	C	0.253059	0.019609	0.000089
C110	C	0.503059	0.269609	0.250089
C111	C	0.753059	0.519609	0.500089
C112	C	1.003059	0.769609	0.750089
N113	N	0.272183	0.063944	0.000080
N114	N	0.522183	0.313944	0.250080
N115	N	0.772183	0.563944	0.500080
N116	N	1.022183	0.813944	0.750080
C117	C	0.240892	0.107766	0.000071
C118	C	0.490892	0.357766	0.250071
C119	C	0.740892	0.607766	0.500071
C120	C	0.990892	0.857766	0.750071
C121	C	-0.205709	0.014943	0.000110
C122	C	0.044291	0.264943	0.250110
C123	C	0.294291	0.514943	0.500110
C124	C	0.544291	0.764943	0.750110
C125	C	-0.256124	0.014430	0.000109
C126	C	-0.006124	0.264430	0.250109
C127	C	0.243876	0.514430	0.500109
C128	C	0.493876	0.764430	0.750109
C129	C	-0.268291	0.102591	0.000090
C130	C	-0.018291	0.352591	0.250090
C131	C	0.231709	0.602591	0.500090
C132	C	0.481709	0.852591	0.750090
C133	C	-0.217876	0.103104	0.000085
C134	C	0.032124	0.353104	0.250085
C135	C	0.282124	0.603104	0.500085
C136	C	0.532124	0.853104	0.750085
C137	C	-0.186585	0.059278	0.000101
C138	C	0.063415	0.309278	0.250101
C139	C	0.313415	0.559278	0.500101
C140	C	0.563415	0.809278	0.750101
C141	C	0.346761	0.108839	0.000057
C142	C	0.596761	0.358839	0.250057
C143	C	0.846761	0.608839	0.500057
C144	C	1.096761	0.858839	0.750057
C145	C	0.397178	0.109347	0.000047
C146	C	0.647178	0.359347	0.250047
C147	C	0.897178	0.609347	0.500047
C148	C	1.147178	0.859347	0.750047
C149	C	0.409341	0.021186	0.000071
C150	C	0.659341	0.271186	0.250071
C151	C	0.909341	0.521186	0.500071
C152	C	1.159341	0.771186	0.750071
C153	C	0.358929	0.020678	0.000076
C154	C	0.608929	0.270678	0.250076
C155	C	0.858929	0.520678	0.500076
C156	C	1.108929	0.770678	0.750076
C157	C	0.327639	0.064508	0.000072
C158	C	0.577639	0.314508	0.250072
C159	C	0.827639	0.564508	0.500072
C160	C	1.077639	0.814508	0.750072
O161	O	0.284343	-0.017592	0.000072
O162	O	0.534343	0.232408	0.250072
O163	O	0.784343	0.482408	0.500072
O164	O	1.034343	0.732408	0.750072
O165	O	0.261794	0.145518	0.000073
O166	O	0.511794	0.395518	0.250073
O167	O	0.761794	0.645518	0.500073
O168	O	1.011794	0.895518	0.750073
C169	C	0.039242	0.105716	0.000088
C170	C	0.289242	0.355716	0.250088
C171	C	0.539242	0.605716	0.500088
C172	C	0.789242	0.855716	0.750088
C173	C	0.020120	0.061382	0.000104
C174	C	0.270120	0.311382	0.250104
C175	C	0.520120	0.561382	0.500104
C176	C	0.770120	0.811382	0.750104
C177	C	0.051411	0.017560	0.000114
C178	C	0.301411	0.267560	0.250114
C179	C	0.551411	0.517560	0.500114
C180	C	0.801411	0.767560	0.750114
C181	C	-0.030294	0.060869	0.000103
C182	C	0.219706	0.310869	0.250103
C183	C	0.469706	0.560869	0.500103
C184	C	0.719706	0.810869	0.750103
C185	C	-0.061585	0.104691	0.000094
C186	C	0.188415	0.354691	0.250094
C187	C	0.438415	0.604691	0.500094
C188	C	0.688415	0.854691	0.750094
C189	C	-0.042461	0.149026	0.000085
C190	C	0.207539	0.399026	0.250085
C191	C	0.457539	0.649026	0.500085
C192	C	0.707539	0.899026	0.750085
C193	C	0.007951	0.149539	0.000079
C194	C	0.257951	0.399539	0.250079
C195	C	0.507951	0.649539	0.500079
C196	C	0.757951	0.899539	0.750079
C197	C	0.032287	-0.026775	0.000123
C198	C	0.282287	0.223225	0.250123
C199	C	0.532287	0.473225	0.500123
C200	C	0.782287	0.723225	0.750123
C201	C	-0.018125	-0.027284	0.000128
C202	C	0.231875	0.222716	0.250128
C203	C	0.481875	0.472716	0.500128
C204	C	0.731875	0.722716	0.750128
C205	C	-0.049416	0.016538	0.000118
C206	C	0.200584	0.266538	0.250118
C207	C	0.450584	0.516538	0.500118
C208	C	0.700584	0.766538	0.750118
C209	C	0.574716	-0.026515	0.000100
C210	C	0.824716	0.223485	0.250100
C211	C	1.074716	0.473485	0.500100
C212	C	1.324716	0.723485	0.750100
C213	C	0.574164	-0.080170	0.000106
C214	C	0.824164	0.169830	0.250106
C215	C	1.074164	0.419830	0.500106
C216	C	1.324164	0.669830	0.750106
C217	C	0.614867	-0.418985	0.000073
C218	C	0.864867	-0.168985	0.250073
C219	C	1.114867	0.081015	0.500073
C220	C	1.364867	0.331015	0.750073
C221	C	0.612816	-0.620645	0.000061
C222	C	0.862816	-0.370645	0.250061
C223	C	1.112816	-0.120645	0.500061
C224	C	1.362816	0.129355	0.750061
O225	O	0.650037	-0.651900	0.000033
O226	O	0.900037	-0.401900	0.250033
O227	O	1.150037	-0.151900	0.500033
O228	O	1.400037	0.098100	0.750033
N229	N	0.568481	-0.639768	0.000054
N230	N	0.818481	-0.389768	0.250054
N231	N	1.068481	-0.139768	0.500054
N232	N	1.318481	0.110232	0.750054
C233	C	0.524656	-0.608474	0.000044
C234	C	0.774656	-0.358474	0.250044
C235	C	1.024656	-0.108474	0.500044
C236	C	1.274656	0.141526	0.750044
O237	O	0.486899	-0.629367	0.000030
O238	O	0.736899	-0.379367	0.250030
O239	O	0.986899	-0.129367	0.500030
O240	O	1.236899	0.120633	0.750030
C241	C	0.526707	-0.406815	0.000050
C242	C	0.776707	-0.156815	0.250050
C243	C	1.026707	0.093185	0.500050
C244	C	1.276707	0.343185	0.750050
C245	C	0.571045	-0.387694	0.000065
C246	C	0.821045	-0.137694	0.250065
C247	C	1.071045	0.112306	0.500065
C248	C	1.321045	0.362306	0.750065
C249	C	0.659202	-0.399864	0.000087
C250	C	0.909202	-0.149864	0.250087
C251	C	1.159202	0.100136	0.500087
C252	C	1.409202	0.350136	0.750087
C253	C	0.659714	-0.349452	0.000094
C254	C	0.909714	-0.099452	0.250094
C255	C	1.159714	0.150548	0.500094
C256	C	1.409714	0.400548	0.750094
C257	C	0.615892	-0.318161	0.000087
C258	C	0.865892	-0.068161	0.250087
C259	C	1.115892	0.181839	0.500087
C260	C	1.365892	0.431839	0.750087
C261	C	0.571557	-0.337282	0.000073
C262	C	0.821557	-0.087282	0.250073
C263	C	1.071557	0.162718	0.500073
C264	C	1.321557	0.412718	0.750073
C265	C	0.482882	-0.375521	0.000035
C266	C	0.732882	-0.125521	0.250035
C267	C	0.982882	0.124479	0.500035
C268	C	1.232882	0.374479	0.750035
C269	C	0.483399	-0.325104	0.000034
C270	C	0.733399	-0.075104	0.250034
C271	C	0.983399	0.174896	0.500034
C272	C	1.233399	0.424896	0.750034
C273	C	0.527737	-0.305983	0.000050
C274	C	0.777737	-0.055983	0.250050
C275	C	1.027737	0.194017	0.500050
C276	C	1.277737	0.444017	0.750050
C277	C	0.528247	-0.255580	0.000073
C278	C	0.778247	-0.005580	0.250073
C279	C	1.028247	0.244420	0.500073
C280	C	1.278247	0.494420	0.750073
N281	N	0.572583	-0.236456	0.000080
N282	N	0.822583	0.013544	0.250080
N283	N	1.072583	0.263544	0.500080
N284	N	1.322583	0.513544	0.750080
C285	C	0.616405	-0.267747	0.000087
C286	C	0.866405	-0.017747	0.250087
C287	C	1.116405	0.232253	0.500087
C288	C	1.366405	0.482253	0.750087
C289	C	0.523582	-0.714348	0.000043
C290	C	0.773582	-0.464348	0.250043
C291	C	1.023582	-0.214348	0.500043
C292	C	1.273582	0.035652	0.750043
C293	C	0.523069	-0.764762	0.000043
C294	C	0.773069	-0.514762	0.250043
C295	C	1.023069	-0.264762	0.500043
C296	C	1.273069	-0.014762	0.750043
C297	C	0.611230	-0.776930	0.000058
C298	C	0.861230	-0.526930	0.250058
C299	C	1.111230	-0.276930	0.500058
C300	C	1.361230	-0.026930	0.750058
C301	C	0.611742	-0.726514	0.000064
C302	C	0.861742	-0.476514	0.250064
C303	C	1.111742	-0.226514	0.500064
C304	C	1.361742	0.023486	0.750064
C305	C	0.567917	-0.695224	0.000050
C306	C	0.817917	-0.445224	0.250050
C307	C	1.067917	-0.195224	0.500050
C308	C	1.317917	0.054776	0.750050
C309	C	0.617477	-0.161878	0.000103
C310	C	0.867477	0.088122	0.250103
C311	C	1.117477	0.338122	0.500103
C312	C	1.367477	0.588122	0.750103
C313	C	0.617986	-0.111461	0.000113
C314	C	0.867986	0.138539	0.250113
C315	C	1.117986	0.388539	0.500113
C316	C	1.367986	0.638539	0.750113
C317	C	0.529825	-0.099298	0.000094
C318	C	0.779825	0.150702	0.250094
C319	C	1.029825	0.400702	0.500094
C320	C	1.279825	0.650702	0.750094
C321	C	0.529316	-0.149710	0.000088
C322	C	0.779316	0.100290	0.250088
C323	C	1.029316	0.350290	0.500088
C324	C	1.279316	0.600290	0.750088
C325	C	0.573147	-0.180999	0.000089
C326	C	0.823147	0.069001	0.250089
C327	C	1.073147	0.319001	0.500089
C328	C	1.323147	0.569001	0.750089
O329	O	0.491047	-0.224296	0.000092
O330	O	0.741047	0.025704	0.250092
O331	O	0.991047	0.275704	0.500092
O332	O	1.241047	0.525704	0.750092
O333	O	0.654156	-0.246844	0.000084
O334	O	0.904156	0.003156	0.250084
O335	O	1.154156	0.253156	0.500084
O336	O	1.404156	0.503156	0.750084
C337	C	0.614355	-0.469397	0.000065
C338	C	0.864355	-0.219397	0.250065
C339	C	1.114355	0.030603	0.500065
C340	C	1.364355	0.280603	0.750065
C341	C	0.570021	-0.488518	0.000051
C342	C	0.820021	-0.238518	0.250051
C343	C	1.070021	0.011482	0.500051
C344	C	1.320021	0.261482	0.750051
C345	C	0.526198	-0.457228	0.000044
C346	C	0.776198	-0.207228	0.250044
C347	C	1.026198	0.042772	0.500044
C348	C	1.276198	0.292772	0.750044
C349	C	0.569508	-0.538933	0.000051
C350	C	0.819508	-0.288933	0.250051
C351	C	1.069508	-0.038933	0.500051
C352	C	1.319508	0.211067	0.750051
C353	C	0.613330	-0.570223	0.000058
C354	C	0.863330	-0.320223	0.250058
C355	C	1.113330	-0.070223	0.500058
C356	C	1.363330	0.179777	0.750058
C357	C	0.657665	-0.551100	0.000065
C358	C	0.907665	-0.301100	0.250065
C359	C	1.157665	-0.051100	0.500065
C360	C	1.407665	0.198900	0.750065
C361	C	0.658177	-0.500688	0.000073
C362	C	0.908177	-0.250688	0.250073
C363	C	1.158177	-0.000688	0.500073
C364	C	1.408177	0.249312	0.750073
C365	C	0.481863	-0.476351	0.000037
C366	C	0.731863	-0.226351	0.250037
C367	C	0.981863	0.023649	0.500037
C368	C	1.231863	0.273649	0.750037
C369	C	0.481355	-0.526764	0.000030
C370	C	0.731355	-0.276764	0.250030
C371	C	0.981355	-0.026764	0.500030
C372	C	1.231355	0.223236	0.750030
C373	C	0.525177	-0.558054	0.000037
C374	C	0.775177	-0.308054	0.250037
C375	C	1.025177	-0.058054	0.500037
C376	C	1.275177	0.191946	0.750037
C377	C	0.658931	0.057699	0.000096
C378	C	0.908931	0.307699	0.250096
C379	C	1.158931	0.557699	0.500096
C380	C	1.408931	0.807699	0.750096
C381	C	0.712586	0.058252	0.000099
C382	C	0.962586	0.308252	0.250099
C383	C	1.212586	0.558252	0.500099
C384	C	1.462586	0.808252	0.750099
C385	C	0.566338	0.150292	0.000062
C386	C	0.816338	0.400292	0.250062
C387	C	1.066338	0.650292	0.500062
C388	C	1.316338	0.900292	0.750062
C389	C	0.566891	0.203947	0.000050
C390	C	0.816891	0.453947	0.250050
C391	C	1.066891	0.703947	0.500050
C392	C	1.316891	0.953947	0.750050
N393	N	0.570515	0.061881	0.206630
N394	N	0.820515	0.311881	0.456630
N395	N	1.070515	0.561881	0.706630
N396	N	1.320515	0.811881	0.956630
N397	N	0.570543	0.061892	-0.206467
N398	N	0.820543	0.311892	0.043533
N399	N	1.070543	0.561892	0.293533
N400	N	1.320543	0.811892	0.543533
C401	C	0.603633	0.028787	0.248360
C402	C	0.853633	0.278787	0.498360
C403	C	1.103633	0.528787	0.748360
C404	C	1.353633	0.778787	0.998360
C405	C	0.603636	0.028786	0.331812
C406	C	0.853636	0.278786	0.581812
C407	C	1.103636	0.528786	0.831812
C408	C	1.353636	0.778786	1.081812
C409	C	0.570523	0.061883	0.373533
C410	C	0.820523	0.311883	0.623533
C411	C	1.070523	0.561883	0.873533
C412	C	1.320523	0.811883	1.123533
C413	C	0.537401	0.094979	0.331798
C414	C	0.787401	0.344979	0.581798
C415	C	1.037401	0.594979	0.831798
C416	C	1.287401	0.844979	1.081798
C417	C	0.537397	0.094977	0.248347
C418	C	0.787397	0.344977	0.498347
C419	C	1.037397	0.594977	0.748347
C420	C	1.287397	0.844977	0.998347
C421	C	0.537419	0.094989	0.668345
C422	C	0.787419	0.344989	0.918345
C423	C	1.037419	0.594989	1.168345
C424	C	1.287419	0.844989	1.418345
C425	C	0.537427	0.094989	0.751801
C426	C	0.787427	0.344989	1.001801
C427	C	1.037427	0.594989	1.251801
C428	C	1.287427	0.844989	1.501801
C429	C	0.603658	0.028798	0.751810
C430	C	0.853658	0.278798	1.001810
C431	C	1.103658	0.528798	1.251810
C432	C	1.353658	0.778798	1.501810
C433	C	0.603653	0.028796	0.668360
C434	C	0.853653	0.278796	0.918360
C435	C	1.103653	0.528796	1.168360
C436	C	1.353653	0.778796	1.418360
C437	C	0.570531	0.061890	0.626631
C438	C	0.820531	0.311890	0.876631
C439	C	1.070531	0.561890	1.126631
C440	C	1.320531	0.811890	1.376631
C441	C	0.570527	0.061889	0.536143
C442	C	0.820527	0.311889	0.786143
C443	C	1.070527	0.561889	1.036143
C444	C	1.320527	0.811889	1.286143
C445	C	0.570528	0.061886	0.464020
C446	C	0.820528	0.311886	0.714020
C447	C	1.070528	0.561886	0.964020
C448	C	1.320528	0.811886	1.214020
H449	H	0.117558	-0.061861	0.000140
H450	H	0.367558	0.188139	0.250140
H451	H	0.617558	0.438139	0.500140
H452	H	0.867558	0.688139	0.750140
F453	F	0.216833	-0.071886	0.000147
F454	F	0.466833	0.178114	0.250147
F455	F	0.716833	0.428114	0.500147
F456	F	0.966833	0.678114	0.750147
F457	F	0.502181	0.130217	0.796203
F458	F	0.752181	0.380217	1.046203
F459	F	1.002181	0.630217	1.296203
F460	F	1.252181	0.880217	1.546203
H461	H	0.446177	-0.450879	0.000029
H462	H	0.696177	-0.200879	0.250029
H463	H	0.946177	0.049121	0.500029
H464	H	1.196177	0.299121	0.750029
F465	F	0.664126	-0.195171	0.000104
F466	F	0.914126	0.054829	0.250104
F467	F	1.164126	0.304829	0.500104
F468	F	1.414126	0.554829	0.750104
F469	F	0.502169	0.130211	0.623941
F470	F	0.752169	0.380211	0.873941
F471	F	1.002169	0.630211	1.123941
F472	F	1.252169	0.880211	1.373941
F473	F	0.436752	-0.291805	0.000018
F474	F	0.686752	-0.041805	0.250018
F475	F	0.936752	0.208195	0.500018
F476	F	1.186752	0.458195	0.750018
H477	H	0.343360	-0.015426	0.000078
H478	H	0.593360	0.234574	0.250078
H479	H	0.843360	0.484574	0.500078
H480	H	1.093360	0.734574	0.750078
H481	H	0.412743	0.145454	0.000033
H482	H	0.662743	0.395454	0.250033
H483	H	0.912743	0.645454	0.500033
H484	H	1.162743	0.895454	0.750033
H485	H	0.174750	0.187180	0.000046
H486	H	0.424750	0.437180	0.250046
H487	H	0.674750	0.687180	0.500046
H488	H	0.924750	0.937180	0.750046
H489	H	0.510428	0.121925	0.214371
H490	H	0.760428	0.371925	0.464371
H491	H	1.010428	0.621925	0.714371
H492	H	1.260428	0.871925	0.964371
F493	F	0.476933	-0.681052	0.000028
F494	F	0.726933	-0.431052	0.250028
F495	F	0.976933	-0.181052	0.500028
F496	F	1.226933	0.068948	0.750028
F497	F	0.442651	-0.025450	0.000082
F498	F	0.692651	0.224550	0.250082
F499	F	0.942651	0.474550	0.500082
F500	F	1.192651	0.724550	0.750082
H501	H	-0.293777	0.138273	0.000082
H502	H	-0.043777	0.388273	0.250082
H503	H	0.206223	0.638273	0.500082
H504	H	0.456223	0.888273	0.750082
F505	F	0.704304	-0.584410	0.000077
F506	F	0.954304	-0.334410	0.250077
F507	F	1.204304	-0.084410	0.500077
F508	F	1.454304	0.165590	0.750077
F509	F	0.638880	-0.006438	0.203966
F510	F	0.888880	0.243562	0.453966
F511	F	1.138880	0.493562	0.703966
F512	F	1.388880	0.743562	0.953966
F513	F	0.638898	-0.006428	0.623960
F514	F	0.888898	0.243572	0.873960
F515	F	1.138898	0.493572	1.123960
F516	F	1.388898	0.743572	1.373960
F517	F	0.502157	0.130202	0.376201
F518	F	0.752157	0.380202	0.626201
F519	F	1.002157	0.630202	0.876201
F520	F	1.252157	0.880202	1.126201
F521	F	0.638883	-0.006437	0.376225
F522	F	0.888883	0.243563	0.626225
F523	F	1.138883	0.493563	0.876225
F524	F	1.388883	0.743563	1.126225
F525	F	0.638909	-0.006426	0.796227
F526	F	0.888909	0.243574	1.046227
F527	F	1.138909	0.493574	1.296227
F528	F	1.388909	0.743574	1.546227
F529	F	0.075480	0.197209	0.000056
F530	F	0.325480	0.447209	0.250056
F531	F	0.575480	0.697209	0.500056
F532	F	0.825480	0.947209	0.750056
F533	F	0.482127	-0.170060	0.000086
F534	F	0.732127	0.079940	0.250086
F535	F	0.982127	0.329940	0.500086
F536	F	1.232127	0.579940	0.750086
F537	F	0.435691	-0.395860	0.000015
F538	F	0.685691	-0.145860	0.250015
F539	F	0.935691	0.104140	0.500015
F540	F	1.185691	0.354140	0.750015
F541	F	0.313468	0.155488	0.000053
F542	F	0.563468	0.405488	0.250053
F543	F	0.813468	0.655488	0.500053
F544	F	1.063468	0.905488	0.750053
H545	H	0.694282	-0.485125	0.000085
H546	H	0.944282	-0.235125	0.250085
H547	H	1.194282	0.014875	0.500085
H548	H	1.444282	0.264875	0.750085
F549	F	-0.197531	0.150294	0.000069
F550	F	0.052469	0.400294	0.250069
F551	F	0.302469	0.650294	0.500069
F552	F	0.552469	0.900294	0.750069
F553	F	-0.038469	-0.074478	0.000136
F554	F	0.211531	0.175522	0.250136
F555	F	0.461531	0.425522	0.500136
F556	F	0.711531	0.675522	0.750136
H557	H	0.494146	-0.073812	0.000091
H558	H	0.744146	0.176188	0.250091
H559	H	0.994146	0.426188	0.500091
H560	H	1.244146	0.676188	0.750091
H561	H	-0.180236	-0.020747	0.000123
H562	H	0.069764	0.229253	0.250123
H563	H	0.319764	0.479253	0.500123
H564	H	0.569764	0.729253	0.750123
F565	F	0.028294	0.196730	0.000061
F566	F	0.278294	0.446730	0.250061
F567	F	0.528294	0.696730	0.500061
F568	F	0.778294	0.946730	0.750061
F569	F	-0.276468	-0.032761	0.000109
F570	F	-0.026468	0.217239	0.250109
F571	F	0.223532	0.467239	0.500109
F572	F	0.473532	0.717239	0.750109
H573	H	-0.067947	0.184708	0.000074
H574	H	0.182053	0.434708	0.250074
H575	H	0.432053	0.684708	0.500074
H576	H	0.682053	0.934708	0.750074
F577	F	0.065583	-0.073420	0.000134
F578	F	0.315583	0.176580	0.250134
F579	F	0.565583	0.426580	0.500134
F580	F	0.815583	0.676580	0.750134
H581	H	0.647846	-0.710950	0.000076
H582	H	0.897846	-0.460950	0.250076
H583	H	1.147846	-0.210950	0.500076
H584	H	1.397846	0.039050	0.750076
H585	H	0.695819	-0.333889	0.000103
H586	H	0.945819	-0.083889	0.250103
H587	H	1.195819	0.166111	0.500103
H588	H	1.445819	0.416111	0.750103
H589	H	0.654093	-0.095896	0.000128
H590	H	0.904093	0.154104	0.250128
H591	H	1.154093	0.404104	0.500128
H592	H	1.404093	0.654104	0.750128
H593	H	0.694889	-0.425336	0.000090
H594	H	0.944889	-0.175336	0.250090
H595	H	1.194889	0.074664	0.500090
H596	H	1.444889	0.324664	0.750090
F597	F	0.475878	-0.785106	0.000041
F598	F	0.725878	-0.535106	0.250041
F599	F	0.975878	-0.285106	0.500041
F600	F	1.225878	-0.035106	0.750041
F601	F	0.657869	-0.810240	0.000064
F602	F	0.907869	-0.560240	0.250064
F603	F	1.157869	-0.310240	0.500064
F604	F	1.407869	-0.060240	0.750064
F605	F	0.434160	-0.547107	0.000019
F606	F	0.684160	-0.297107	0.250019
F607	F	0.934160	-0.047107	0.500019
F608	F	1.184160	0.202893	0.750019
