data_functionalizedCrystal
_audit_creation_method	'MofGen! by Chris Wilmer'
_symmetry_space_group_name_H-M	'P1'
_symmetry_Int_Tables_number	1
_symmetry_cell_setting	triclinic
loop_
_symmetry_equiv_pos_as_xyz
  x,y,z
_cell_length_a	12.645330
_cell_length_b	12.645331
_cell_length_c	14.908404
_cell_angle_alpha	93.273022
_cell_angle_beta	93.348999
_cell_angle_gamma	89.981897
loop_
_atom_site_label
_atom_site_type_symbol
_atom_site_fract_x
_atom_site_fract_y
_atom_site_fract_z
Zn1	Zn	-0.387163	-1.586222	0.510043
Zn2	Zn	-0.574760	-1.596310	0.359187
Zn3	Zn	-0.397511	-1.419142	0.359203
Zn4	Zn	-0.564387	-1.408920	0.510017
O5	O	-0.480955	-1.502649	0.434612
O6	O	-0.412058	-1.735907	0.490035
O7	O	-0.559920	-1.581309	0.232939
O8	O	-0.247790	-1.441362	0.379229
O9	O	-0.549885	-1.743319	0.379202
O10	O	-0.240187	-1.564114	0.490051
O11	O	-0.429696	-1.451144	0.232951
O12	O	-0.419638	-1.269439	0.379205
O13	O	-0.532206	-1.423939	0.636271
O14	O	-0.542241	-1.261929	0.490007
O15	O	-0.402000	-1.554202	0.636290
O16	O	-0.721733	-1.571397	0.379177
O17	O	-0.714112	-1.433722	0.489992
C18	C	-0.756386	-1.502572	0.434600
C19	C	-0.874214	-1.502634	0.434625
C20	C	-0.480938	-1.227219	0.434605
C21	C	-0.480954	-1.109388	0.434624
C22	C	-0.480974	-1.779153	0.434620
C23	C	-0.480982	-1.896983	0.434623
C24	C	-1.037013	-1.416346	0.504553
C25	C	-0.914469	-1.415944	0.504328
C26	C	-0.925306	-1.478822	0.339546
C27	C	-1.047876	-1.478295	0.339971
C28	C	-1.039637	-1.613286	0.459003
C29	C	-0.916888	-1.612457	0.461082
C30	C	-0.204448	-1.502753	0.434645
C31	C	-0.086617	-1.502797	0.434659
C32	C	-0.558230	-1.059824	0.504228
C33	C	-0.558581	-0.937278	0.504021
C34	C	-0.517298	-0.947875	0.339429
C35	C	-0.517850	-1.070446	0.339832
C36	C	-0.367216	-1.062567	0.459383
C37	C	-0.367692	-0.939820	0.461479
C38	C	-0.496980	-1.518491	0.200210
C39	C	-0.503569	-1.525448	0.099931
C40	C	-0.381307	-1.401996	-0.088403
C41	C	-0.387495	-1.408529	-0.182624
C42	C	-0.522127	-1.545052	-0.182731
C43	C	-0.515939	-1.538519	-0.088511
C44	C	-0.445528	-1.466987	-0.041350
C45	C	-0.439346	-1.460450	0.052872
C46	C	-0.573972	-1.596978	0.052763
C47	C	-0.580160	-1.603511	-0.041457
C48	C	-0.464791	-1.486805	0.669931
C49	C	-0.457903	-1.480054	0.770209
H50	H	-0.879497	-1.430098	0.574828
H51	H	-0.535010	-1.084552	0.575021
Br52	Br	-0.656726	-1.120420	0.304974
H53	H	-0.626260	-1.649904	0.091084
H54	H	-1.077977	-1.397719	0.319347
Br55	Br	-0.300329	-1.320328	-0.246480
Br56	Br	-0.271131	-1.116623	0.374892
Br57	Br	-0.285749	-1.304925	-0.024396
H58	H	-0.641894	-1.091699	0.488001
H59	H	-0.599752	-0.918586	0.318146
H60	H	-0.382014	-1.402204	0.091268
Br61	Br	-0.867570	-1.279201	0.477454
Br62	Br	-1.077979	-1.439612	0.622449
Br63	Br	-1.103447	-1.579259	0.250209
H64	H	-0.579445	-1.603297	-0.221145
Br65	Br	-0.698854	-0.890186	0.476673
H66	H	-0.882955	-1.630532	0.531055
Br67	Br	-1.090356	-1.280450	0.478040
H68	H	-1.065823	-1.636265	0.527156
Br69	Br	-0.426842	-0.905318	0.250612
H70	H	-0.899804	-1.540077	0.286047
H71	H	-0.340416	-0.906031	0.531537
H72	H	-0.896131	-1.399125	0.318549
H73	H	-0.889463	-1.679744	0.413882
H74	H	-1.072103	-1.677615	0.408096
H75	H	-0.535162	-0.902450	0.574595
Br76	Br	-0.428671	-1.125957	0.250404
Br77	Br	-0.675704	-1.700593	-0.105469
Br78	Br	-0.314042	-1.106463	0.573131
Br79	Br	-0.265788	-0.894060	0.383219
