data_functionalizedCrystal
_audit_creation_method	'MofGen! by Chris Wilmer'
_symmetry_space_group_name_H-M	'P1'
_symmetry_Int_Tables_number	1
_symmetry_cell_setting	triclinic
loop_
_symmetry_equiv_pos_as_xyz
  x,y,z
_cell_length_a	14.044220
_cell_length_b	14.044190
_cell_length_c	13.330367
_cell_angle_alpha	89.990836
_cell_angle_beta	89.997392
_cell_angle_gamma	93.190328
loop_
_atom_site_label
_atom_site_type_symbol
_atom_site_fract_x
_atom_site_fract_y
_atom_site_fract_z
O1	O	1.277178	0.230168	-0.083337
O2	O	1.777178	0.730168	0.416663
O3	O	1.000506	0.221862	-0.083362
O4	O	1.500506	0.721862	0.416638
O5	O	1.134686	0.087679	-0.083330
O6	O	1.634686	0.587679	0.416670
O7	O	1.142999	0.364351	-0.083369
O8	O	1.642999	0.864351	0.416631
O9	O	1.134664	0.087674	0.083517
O10	O	1.634664	0.587674	0.583517
O11	O	1.000485	0.221857	0.083485
O12	O	1.500485	0.721857	0.583485
O13	O	1.277157	0.230163	0.083510
O14	O	1.777157	0.730163	0.583510
Cu15	Cu	1.138819	0.226010	0.098732
Cu16	Cu	1.638819	0.726010	0.598732
Cu17	Cu	1.138844	0.226016	-0.098584
Cu18	Cu	1.638844	0.726016	0.401416
O19	O	1.142977	0.364346	0.083478
O20	O	1.642977	0.864346	0.583478
C21	C	0.964874	0.218224	0.000059
C22	C	1.464874	0.718224	0.500059
C23	C	0.858731	0.207380	0.000050
C24	C	1.358731	0.707380	0.500050
C25	C	0.664392	0.187553	0.000073
C26	C	1.164392	0.687553	0.500073
C27	C	0.613264	0.264468	0.000066
C28	C	1.113264	0.764468	0.500066
C29	C	0.505128	0.253436	0.000079
C30	C	1.005128	0.753436	0.500079
C31	C	0.772539	0.198583	0.000060
C32	C	1.272539	0.698583	0.500060
C33	C	1.131039	0.052054	0.000096
C34	C	1.631039	0.552054	0.500096
C35	C	1.120191	-0.054089	0.000104
C36	C	1.620191	0.445911	0.500104
C37	C	1.177292	-0.299547	0.000070
C38	C	1.677292	0.200453	0.500070
C39	C	1.100375	-0.248422	0.000070
C40	C	1.600375	0.251578	0.500070
C41	C	1.111404	-0.140285	0.000089
C42	C	1.611404	0.359715	0.500089
C43	C	1.166265	-0.407694	0.000051
C44	C	1.666265	0.092306	0.500051
C45	C	1.312789	0.233801	0.000087
C46	C	1.812789	0.733801	0.500087
C47	C	1.418932	0.244646	0.000089
C48	C	1.918932	0.744646	0.500089
C49	C	1.146624	0.399971	0.000050
C50	C	1.646624	0.899971	0.500050
C51	C	1.157472	0.506114	0.000036
C52	C	1.657472	1.006114	0.500036
N53	N	1.138808	0.226005	0.237514
N54	N	1.638808	0.726005	0.737514
N55	N	1.138862	0.226013	-0.237365
N56	N	1.638862	0.726013	0.262635
C57	C	1.079425	0.285406	0.710122
C58	C	1.579425	0.785406	1.210122
C59	C	1.198289	0.166620	0.710119
C60	C	1.698289	0.666620	1.210119
C61	C	1.198278	0.166616	0.605100
C62	C	1.698278	0.666616	1.105100
C63	C	1.138840	0.226009	0.552588
C64	C	1.638840	0.726009	1.052588
C65	C	1.079414	0.285406	0.605094
C66	C	1.579414	0.785406	1.105094
C67	C	1.257710	0.107227	0.552586
C68	C	1.757710	0.607227	1.052586
C69	C	1.257702	0.107221	0.447561
C70	C	1.757702	0.607221	0.947561
C71	C	1.198259	0.166610	0.395047
C72	C	1.698259	0.666610	0.895047
C73	C	1.138830	0.226009	0.447560
C74	C	1.638830	0.726009	0.947560
C75	C	1.079392	0.285403	0.395048
C76	C	1.579392	0.785403	0.895048
C77	C	1.019957	0.344797	0.447559
C78	C	1.519957	0.844797	0.947559
C79	C	1.019970	0.344796	0.552580
C80	C	1.519970	0.844796	1.052580
C81	C	1.198245	0.166612	0.290026
C82	C	1.698245	0.666612	0.790026
C83	C	1.079381	0.285403	0.290020
C84	C	1.579381	0.785403	0.790020
H85	H	1.026243	-0.285865	0.000057
H86	H	1.526243	0.214135	0.500057
Cl87	Cl	1.291740	-0.241740	0.000096
Cl88	Cl	1.791740	0.258260	0.500096
Cl89	Cl	0.671066	0.378926	0.000044
Cl90	Cl	1.171066	0.878926	0.500044
H91	H	1.246686	0.118268	0.752877
H92	H	1.746686	0.618268	1.252877
Cl93	Cl	1.004650	0.360068	0.224013
Cl94	Cl	1.504650	0.860068	0.724013
Cl95	Cl	0.945245	0.419467	0.381532
Cl96	Cl	1.445245	0.919467	0.881532
Cl97	Cl	1.332415	0.032553	0.381555
Cl98	Cl	1.832415	0.532553	0.881555
Cl99	Cl	0.606589	0.073103	0.000091
Cl100	Cl	1.106589	0.573103	0.500091
Cl101	Cl	0.945261	0.419460	0.618596
Cl102	Cl	1.445261	0.919460	1.118596
Cl103	Cl	1.272964	0.091957	0.224019
Cl104	Cl	1.772964	0.591957	0.724019
Cl105	Cl	1.004705	0.360067	0.776130
Cl106	Cl	1.504705	0.860067	1.276130
Cl107	Cl	1.332436	0.032570	0.618598
Cl108	Cl	1.832436	0.532570	1.118598
