data_functionalizedCrystal
_audit_creation_method	'MofGen! by Chris Wilmer'
_symmetry_space_group_name_H-M	'P1'
_symmetry_Int_Tables_number	1
_symmetry_cell_setting	triclinic
loop_
_symmetry_equiv_pos_as_xyz
  x,y,z
_cell_length_a	20.919287
_cell_length_b	21.606444
_cell_length_c	21.606444
_cell_angle_alpha	59.998557
_cell_angle_beta	86.843416
_cell_angle_gamma	58.224002
loop_
_atom_site_label
_atom_site_type_symbol
_atom_site_fract_x
_atom_site_fract_y
_atom_site_fract_z
Zr1	Zr	0.616926	0.677350	-0.114049
O2	O	0.514733	0.806450	-0.207417
O3	O	0.648230	0.548250	-0.085432
O4	O	0.648264	0.677352	-0.214545
O5	O	0.514699	0.677346	0.023548
O6	O	0.753621	0.677353	-0.220160
O7	O	0.514700	0.677348	-0.078305
O8	O	0.753561	0.446413	0.010799
O9	O	0.514759	0.908286	-0.207411
O10	O	0.740236	0.601351	-0.077411
O11	O	0.661608	0.601348	0.002791
O12	O	0.661648	0.753349	-0.149222
O13	O	0.583021	0.753347	-0.069019
Zr14	Zr	0.784957	0.677347	0.039439
Zr15	Zr	0.784958	0.677351	-0.123005
Zr16	Zr	0.616925	0.677346	0.048395
Zr17	Zr	0.616967	0.839765	-0.114038
Zr18	Zr	0.784916	0.514931	0.039428
O19	O	0.753652	0.806446	0.010823
O20	O	0.753654	0.806451	-0.220152
O21	O	0.514732	0.806445	0.023557
O22	O	0.887149	0.548246	0.132808
O23	O	0.887151	0.548252	-0.098166
O24	O	0.648229	0.548245	0.145542
O25	O	0.887184	0.677350	-0.098158
O26	O	0.753619	0.677344	0.139936
O27	O	0.648262	0.677344	0.145551
O28	O	0.887183	0.677348	0.003695
O29	O	0.648323	0.908286	-0.214529
O30	O	0.753560	0.446410	0.139920
O31	O	0.887124	0.446411	0.132801
O32	O	0.887124	0.446414	0.003680
O33	O	0.514758	0.908282	-0.078289
O34	O	0.648322	0.908283	-0.085408
O35	O	0.740235	0.601347	0.074613
O36	O	0.818862	0.601349	-0.005590
O37	O	0.740274	0.753348	-0.077401
O38	O	0.661647	0.753346	0.002802
C39	C	0.700890	0.474191	-0.037318
C40	C	0.700872	0.405241	-0.037323
C41	C	0.759028	-0.074228	0.015728
C42	C	0.759011	-0.009420	0.015721
C43	C	0.700973	0.079071	-0.037297
C44	C	0.642952	0.102753	-0.090317
C45	C	0.642973	0.037945	-0.090313
C46	C	0.642868	0.364116	-0.090336
C47	C	0.642851	0.428924	-0.090335
C48	C	0.758907	0.316751	0.015698
C49	C	0.758927	0.251943	0.015703
C50	C	0.700909	0.275631	-0.037319
C51	C	0.700929	0.205358	-0.037312
C52	C	0.700949	0.149343	-0.037302
C53	C	0.490758	0.677347	-0.026102
C54	C	0.419424	0.677347	-0.022300
C55	C	0.385911	0.677350	-0.076627
C56	C	0.318888	0.677346	-0.073051
C57	C	0.285375	0.677343	-0.015151
C58	C	0.318894	0.677337	0.039182
C59	C	0.385919	0.677336	0.035608
C60	C	0.083003	0.677342	-0.001550
C61	C	0.015971	0.677346	0.002018
C62	C	0.015971	0.677353	-0.110215
C63	C	0.082995	0.677357	-0.113786
C64	C	0.116511	0.677346	-0.059451
C65	C	0.216864	0.677341	-0.011495
C66	C	0.185023	0.677342	-0.063104
C67	C	0.911124	0.677349	-0.048507
C68	C	0.982459	0.677350	-0.052309
C69	C	0.700943	0.677353	-0.240497
C70	C	0.700943	0.677355	-0.309459
C71	C	0.700993	0.880505	-0.037291
C72	C	0.701010	0.949455	-0.037286
C73	C	0.758985	0.677357	-0.344951
C74	C	0.758987	0.677350	-0.409744
C75	C	0.700944	0.677349	-0.439047
C76	C	0.642899	0.677344	-0.403549
C77	C	0.642900	0.677344	-0.338754
C78	C	0.642892	0.677343	-0.664859
C79	C	0.642894	0.677346	-0.729660
C80	C	0.758979	0.677350	-0.735849
C81	C	0.758981	0.677350	-0.671054
C82	C	0.700938	0.677340	-0.635560
C83	C	0.700937	0.677345	-0.565303
C84	C	0.700941	0.677350	-0.509306
C85	C	0.700940	0.677343	0.165888
C86	C	0.700940	0.677342	0.234850
C87	C	0.911073	0.474192	-0.048521
C88	C	0.982389	0.405243	-0.052328
C89	C	0.700888	0.474186	0.165874
C90	C	0.700871	0.405235	0.234832
C91	C	0.911071	0.474187	0.154672
C92	C	0.982388	0.405236	0.219827
C93	C	0.490811	0.880509	-0.229281
C94	C	0.419495	0.949460	-0.294436
C95	C	0.490810	0.880504	-0.026089
C96	C	0.419493	0.949454	-0.022282
C97	C	0.700994	0.880510	-0.240484
C98	C	0.701012	0.949461	-0.309441
C99	C	0.974838	0.372864	-0.091612
C100	C	1.041842	0.308088	-0.095203
C101	C	1.116395	0.275687	-0.059506
C102	C	1.123945	0.308072	-0.020220
C103	C	1.056942	0.372852	-0.016633
C104	C	0.741904	0.372854	0.304711
C105	C	0.741884	0.308076	0.369510
C106	C	0.700835	0.275676	0.364427
C107	C	0.659796	0.308063	0.294540
C108	C	0.659812	0.372844	0.229743
C109	C	1.056928	0.372857	0.208559
C110	C	1.123944	0.308080	0.269773
C111	C	1.116417	0.275678	0.342254
C112	C	1.041869	0.308063	0.353520
C113	C	0.974855	0.372844	0.292307
C114	C	0.344954	0.981847	-0.283169
C115	C	0.277939	1.046645	-0.344382
C116	C	0.285466	1.079050	-0.416863
C117	C	0.360014	1.046661	-0.428130
C118	C	0.427028	0.981868	-0.366917
C119	C	0.427044	0.981839	0.016996
C120	C	0.360041	1.046633	0.020569
C121	C	0.285488	1.079036	-0.015131
C122	C	0.277938	1.046648	-0.054413
C123	C	0.344941	0.981860	-0.057991
C124	C	0.742070	0.981841	-0.304334
C125	C	0.742102	1.046620	-0.369122
C126	C	0.701071	1.079022	-0.439014
C127	C	0.660013	1.046636	-0.444119
C128	C	0.659986	0.981854	-0.379333
H129	H	0.806150	0.297469	0.058870
H130	H	1.170991	0.222929	0.392091
H131	H	0.338781	0.955493	-0.089973
N132	N	0.503167	0.948769	-0.378434
N133	N	0.549694	0.869237	-0.353633
H134	H	0.603467	0.845861	-0.361772
N135	N	0.818284	0.677347	-0.445986
N136	N	0.870102	0.677352	-0.419817
H137	H	0.911985	0.677349	-0.445412
N138	N	0.201789	1.079737	-0.090880
N139	N	0.181784	1.115889	-0.159770
H140	H	0.128002	1.139253	-0.185521
N141	N	-0.018246	0.677326	0.061177
N142	N	-0.023928	0.615973	0.104680
H143	H	-0.048093	0.615960	0.146459
H144	H	0.626607	1.073027	-0.501035
H145	H	0.338811	0.955466	-0.224156
H146	H	0.775306	0.281714	0.426408
N147	N	0.583619	0.677332	-0.433485
N148	N	0.583624	0.677333	-0.491337
H149	H	0.541756	0.677326	-0.512480
N150	N	0.818258	0.677361	-0.641114
N151	N	0.799483	0.738716	-0.634634
H152	H	0.841349	0.738722	-0.613487
H153	H	0.914163	0.399198	0.301492
N154	N	0.182605	0.677359	0.047630
N155	N	0.113477	0.738718	0.033140
H156	H	0.089276	0.738732	0.074896
H157	H	0.806257	-0.028711	0.058889
H158	H	0.595624	0.383414	-0.133508
H159	H	0.595583	0.500980	-0.133509
H160	H	0.806248	0.677364	-0.321100
H161	H	0.413190	0.677358	-0.123779
N162	N	1.200107	0.274960	0.016239
N163	N	1.259918	0.217117	0.013030
H164	H	1.313711	0.193724	0.038783
H165	H	0.366133	1.073054	-0.487151
H166	H	0.595626	0.677343	-0.753516
H167	H	0.487744	0.955461	0.046073
H168	H	0.217245	1.073005	-0.335194
H169	H	0.595638	0.677341	-0.309857
H170	H	0.230936	1.131791	-0.012212
N171	N	0.701114	1.145192	-0.505181
N172	N	0.737778	1.174091	-0.500603
H173	H	0.737810	1.220826	-0.547331
H174	H	0.626400	0.399200	0.172847
H175	H	0.700829	0.222927	0.417195
H176	H	1.184638	0.281718	0.260586
H177	H	1.063101	0.399206	0.015360
N178	N	0.617872	0.274953	0.289369
N179	N	0.617875	0.217109	0.347234
H180	H	0.588269	0.193718	0.343584
H181	H	0.775535	1.072982	-0.364950
H182	H	0.110280	0.677358	-0.160933
N183	N	1.064643	0.405933	0.134532
N184	N	1.131209	0.377007	0.124495
H185	H	1.136665	0.400364	0.072214
H186	H	0.212313	0.677339	-0.110245
N187	N	0.117215	0.677515	0.053814
N188	N	0.186363	0.616282	0.093317
H189	H	0.210518	0.616474	0.132372
N190	N	0.818304	-0.164621	0.069884
N191	N	0.799526	-0.213313	0.114090
H192	H	0.841393	-0.277154	0.152338
H193	H	1.035752	0.281672	0.412542
N194	N	0.217000	1.145236	-0.479378
N195	N	0.150452	1.174139	-0.469299
H196	H	0.102095	1.220882	-0.513448
N197	N	0.367778	1.079699	0.060699
N198	N	0.434351	1.050749	0.092575
H199	H	0.439818	1.074100	0.120917
H200	H	0.806243	0.677353	-0.764754
H201	H	0.775481	0.955469	-0.247430
N202	N	1.184817	0.209498	-0.063169
N203	N	1.233088	0.223908	-0.091423
H204	H	1.281401	0.177153	-0.094011
H205	H	0.626548	0.955497	-0.383501
H206	H	0.291607	0.677330	0.086329
H207	H	0.806186	0.179892	0.058878
H208	H	0.595699	0.174808	-0.133489
H209	H	0.291602	0.677348	-0.117288
N210	N	0.583707	0.062150	-0.144475
N211	N	0.531891	0.141161	-0.191811
H212	H	0.490034	0.158259	-0.230067
H213	H	0.914139	0.399244	-0.120691
N214	N	0.583590	0.677350	-0.628628
N215	N	0.513004	0.738706	-0.662787
H216	H	0.471116	0.738713	-0.637199
N217	N	-0.018275	0.677365	-0.165707
N218	N	-0.078120	0.677367	-0.162513
H219	H	-0.102306	0.677374	-0.201705
N220	N	0.420134	0.677345	0.091104
N221	N	0.380924	0.738700	0.100087
H222	H	0.405086	0.738705	0.139285
N223	N	1.034104	0.275013	-0.135324
N224	N	0.999126	0.238865	-0.116625
H225	H	0.993658	0.215507	-0.144959
N226	N	0.783846	0.405928	0.309928
N227	N	0.820475	0.377001	0.372333
H228	H	0.850097	0.400357	0.376024
