data_functionalizedCrystal
_audit_creation_method	'MofGen! by Chris Wilmer'
_symmetry_space_group_name_H-M	'P1'
_symmetry_Int_Tables_number	1
_symmetry_cell_setting	triclinic
loop_
_symmetry_equiv_pos_as_xyz
  x,y,z
_cell_length_a	12.811438
_cell_length_b	11.892095
_cell_length_c	12.837942
_cell_angle_alpha	94.302569
_cell_angle_beta	90.586849
_cell_angle_gamma	88.501043
loop_
_atom_site_label
_atom_site_type_symbol
_atom_site_fract_x
_atom_site_fract_y
_atom_site_fract_z
O1	O	1.403420	-0.049889	-0.143206
O2	O	1.101352	-0.018916	-0.156216
O3	O	1.245687	-0.033723	0.001268
O4	O	1.259084	-0.035083	-0.300691
O5	O	1.233651	-0.220496	-0.011842
O6	O	1.089315	-0.205689	-0.169327
O7	O	1.391383	-0.236662	-0.156317
Zn8	Zn	1.238438	-0.250830	-0.164903
Zn9	Zn	1.254297	-0.004749	-0.147630
O10	O	1.247048	-0.221855	-0.313801
C11	C	1.056401	-0.108311	-0.161639
C12	C	0.940395	-0.096416	-0.158254
C13	C	0.783448	0.022146	-0.146337
C14	C	0.892446	0.010980	-0.149516
C15	C	0.879338	-0.192652	-0.163810
C16	C	0.770340	-0.181485	-0.160630
C17	C	0.722398	-0.074083	-0.151895
C18	C	0.613397	-0.062917	-0.148723
C19	C	0.600292	-0.266547	-0.163009
C20	C	0.709290	-0.277714	-0.166188
N21	N	1.227623	-0.418774	-0.176691
C22	C	1.340373	-0.666989	-0.053747
C23	C	1.332821	-0.784556	-0.061995
C24	C	1.204963	-0.771478	-0.201428
C25	C	1.212515	-0.653910	-0.193180
C26	C	1.280223	-0.601670	-0.119339
C27	C	1.287779	-0.484102	-0.111097
C28	C	1.159916	-0.471025	-0.250525
C29	C	1.152365	-0.588592	-0.258772
C30	C	1.436334	-0.147265	-0.150893
C31	C	1.552340	-0.159153	-0.154278
C32	C	1.235144	-0.126645	0.033386
C33	C	1.221647	-0.125259	0.148619
N34	N	1.265120	0.163195	-0.135834
C35	C	1.257591	-0.128931	-0.345919
C36	C	1.271089	-0.130310	-0.461152
C37	C	1.383906	-0.141873	0.387704
C38	C	1.371229	-0.140571	0.495977
C39	C	1.183619	-0.121346	0.473439
C40	C	1.196295	-0.122648	0.365167
C41	C	1.296442	-0.132913	0.322303
C42	C	1.309117	-0.134223	0.214028
C43	C	1.121508	-0.114990	0.191493
C44	C	1.108831	-0.113688	0.299766
H45	H	0.748339	-0.365158	-0.173296
Br46	Br	0.718378	0.167901	-0.134503
Br47	Br	1.002798	-0.102849	0.102727
H48	H	0.550573	-0.344904	-0.167539
H49	H	0.574365	0.024536	-0.141615
Br50	Br	0.944420	-0.338400	-0.175659
Br51	Br	1.445027	-0.148166	0.155856
H52	H	0.942149	0.089339	-0.144990
H53	H	1.342914	-0.441569	-0.050974
Br54	Br	0.972926	-0.099743	0.357948
Br55	Br	1.489936	-0.152724	0.584734
H56	H	1.465448	-0.150242	0.352804
Br57	Br	1.432276	-0.596090	0.046450
H58	H	1.097235	-0.631139	-0.318890
Br59	Br	1.414451	-0.873200	0.027031
H60	H	1.149829	-0.814026	-0.261541
Br61	Br	1.078291	-0.382369	-0.339555
H62	H	1.102085	-0.112976	0.508359
