data_functionalizedCrystal
_audit_creation_method	'MofGen! by Chris Wilmer'
_symmetry_space_group_name_H-M	'P1'
_symmetry_Int_Tables_number	1
_symmetry_cell_setting	triclinic
loop_
_symmetry_equiv_pos_as_xyz
  x,y,z
_cell_length_a	17.640112
_cell_length_b	18.050589
_cell_length_c	17.640968
_cell_angle_alpha	101.226882
_cell_angle_beta	87.860920
_cell_angle_gamma	101.252307
loop_
_atom_site_label
_atom_site_type_symbol
_atom_site_fract_x
_atom_site_fract_y
_atom_site_fract_z
Zn1	Zn	1.247776	-0.021338	0.195082
Zn2	Zn	1.221993	-0.174558	0.068112
Zn3	Zn	1.095104	-0.069647	0.093732
Zn4	Zn	1.120735	-0.164782	0.220693
O5	O	1.171402	-0.107581	0.144405
O6	O	1.350627	-0.025537	0.156798
O7	O	1.183644	-0.184950	-0.034761
O8	O	1.115420	0.040699	0.107180
O9	O	1.331684	-0.138107	0.063514
O10	O	1.227588	0.076191	0.181641
O11	O	1.090420	-0.107872	-0.015938
O12	O	0.992234	-0.098393	0.132014
O13	O	1.159104	-0.121445	0.323567
O14	O	1.011064	-0.168289	0.225292
O15	O	1.252441	-0.016058	0.304750
O16	O	1.208498	-0.277199	0.088349
O17	O	1.134104	-0.270016	0.200449
C18	C	0.974094	-0.137523	0.184213
C19	C	0.889689	-0.150346	0.201261
C20	C	0.563038	-0.010153	0.014899
C21	C	0.483728	-0.022215	0.030928
C22	C	0.503357	-0.095166	0.127891
C23	C	0.582671	-0.083107	0.111873
C24	C	0.612505	-0.040601	0.055375
C25	C	0.632138	-0.113555	0.152349
C26	C	0.711444	-0.101501	0.136328
C27	C	0.741283	-0.058998	0.079832
C28	C	0.691811	-0.028547	0.039354
C29	C	0.602302	-0.156066	0.208842
C30	C	0.651768	-0.186514	0.249318
C31	C	0.731077	-0.174455	0.233302
C32	C	0.760916	-0.131952	0.176805
C33	C	0.780549	-0.204906	0.273779
C34	C	0.859855	-0.192852	0.257758
C35	C	0.840222	-0.119898	0.160785
C36	C	1.171308	-0.300550	0.144411
C37	C	1.171342	-0.383087	0.144424
C38	C	1.130933	-0.578655	0.205357
C39	C	1.098407	-0.646737	0.139793
C40	C	1.171419	-0.534204	0.144419
C41	C	1.203984	-0.613197	0.209983
C42	C	1.171493	-0.680174	0.144421
C43	C	1.138849	-0.601212	0.078826
C44	C	1.244468	-0.567652	0.149057
C45	C	1.211958	-0.635718	0.083440
C46	C	1.171375	-0.450114	0.144420
C47	C	1.171536	-0.764264	0.144412
C48	C	1.369481	-0.077524	0.104442
C49	C	1.453890	-0.064715	0.087412
C50	C	1.211508	-0.062272	0.342484
C51	C	1.228598	-0.042964	0.426893
C52	C	1.171521	0.086148	0.144411
C53	C	1.171572	0.168704	0.144414
C54	C	1.131497	-0.152654	-0.052913
C55	C	1.114553	-0.171730	-0.137352
C56	C	1.041859	-0.253814	0.753484
C57	C	1.057934	-0.235659	0.832796
C58	C	1.155117	-0.125928	0.813194
C59	C	1.139048	-0.144071	0.733879
C60	C	1.082418	-0.208016	0.704030
C61	C	1.179607	-0.098273	0.684425
C62	C	1.163541	-0.116418	0.605116
C63	C	1.106916	-0.180360	0.575261
C64	C	1.066352	-0.226160	0.624721
C65	C	1.236240	-0.034333	0.714274
C66	C	1.276799	0.011465	0.664820
C67	C	1.260730	-0.006676	0.585511
C68	C	1.204105	-0.070618	0.555656
C69	C	1.301293	0.039124	0.536051
C70	C	1.285228	0.020980	0.456742
C71	C	1.188039	-0.088763	0.476347
H72	H	0.587332	0.024473	-0.031096
C73	C	1.101580	-0.593404	0.003919
N74	N	1.073507	-0.587522	-0.052498
H75	H	1.318254	0.058274	0.416475
H76	H	1.020221	-0.278215	0.600421
C77	C	0.747720	-0.251666	0.335920
N78	N	0.722993	-0.286886	0.382726
H79	H	0.900133	-0.217645	0.290719
H80	H	0.864516	-0.085271	0.114790
C81	C	1.339083	0.081807	0.697665
N82	N	1.385992	0.134794	0.722403
C83	C	1.258239	-0.669227	0.013756
N84	N	1.293093	-0.694469	-0.038731
H85	H	0.995727	-0.305868	0.729184
H86	H	1.096620	-0.553748	0.256842
C87	C	1.241154	-0.621147	0.284888
N88	N	1.269145	-0.627132	0.341308
C89	C	1.014992	-0.693010	0.134487
N90	N	0.952164	-0.727861	0.130495
H91	H	1.093839	-0.195135	0.510682
C92	C	1.363583	0.109461	0.568896
N93	N	1.410498	0.162442	0.593635
C94	C	1.125743	-0.159104	0.443510
N95	N	1.078825	-0.212085	0.418776
C96	C	1.327862	-0.521339	0.154405
N97	N	1.390674	-0.486449	0.158443
C98	C	1.013309	-0.286044	0.887195
N99	N	0.979698	-0.323994	0.928167
H100	H	0.627466	-0.221125	0.295316
C101	C	1.217401	-0.055586	0.846038
N102	N	1.264311	-0.002600	0.870776
C103	C	0.470531	-0.141920	0.190038
N104	N	0.445808	-0.177133	0.236851
C105	C	0.828523	-0.045736	0.062210
N106	N	0.894233	-0.035745	0.048940
H107	H	0.716105	0.006080	-0.006640
H108	H	0.443455	0.002589	-0.002031
H109	H	0.537725	-0.165879	0.221884
H110	H	1.249320	-0.019563	0.778853
