data_functionalizedCrystal
_audit_creation_method	'MofGen! by Chris Wilmer'
_symmetry_space_group_name_H-M	'P1'
_symmetry_Int_Tables_number	1
_symmetry_cell_setting	triclinic
loop_
_symmetry_equiv_pos_as_xyz
  x,y,z
_cell_length_a	19.188964
_cell_length_b	19.288865
_cell_length_c	18.366186
_cell_angle_alpha	90.011479
_cell_angle_beta	89.997799
_cell_angle_gamma	96.852527
loop_
_atom_site_label
_atom_site_type_symbol
_atom_site_fract_x
_atom_site_fract_y
_atom_site_fract_z
O1	O	0.926128	-0.086830	-0.060442
O2	O	1.426128	0.413170	0.439558
O3	O	0.722819	-0.098479	-0.060470
O4	O	1.222819	0.401521	0.439530
O5	O	0.830348	0.008474	-0.060441
O6	O	1.330348	0.508474	0.439559
O7	O	0.818598	-0.193784	-0.060471
O8	O	1.318598	0.306216	0.439529
O9	O	0.830330	0.008480	0.060659
O10	O	1.330330	0.508480	0.560659
O11	O	0.722800	-0.098474	0.060629
O12	O	1.222800	0.401526	0.560629
O13	O	0.926109	-0.086825	0.060657
O14	O	1.426109	0.413175	0.560657
Zn15	Zn	0.824452	-0.092649	0.079870
Zn16	Zn	1.324452	0.407351	0.579870
Zn17	Zn	0.824476	-0.092656	-0.079683
Zn18	Zn	1.324476	0.407344	0.420317
O19	O	0.818580	-0.193779	0.060628
O20	O	1.318580	0.306221	0.560628
C21	C	0.696799	-0.098095	0.000076
C22	C	1.196799	0.401905	0.500076
C23	C	0.619296	-0.096951	0.000066
C24	C	1.119296	0.403049	0.500066
C25	C	0.829961	0.034353	0.000111
C26	C	1.329961	0.534353	0.500111
C27	C	0.828826	0.111457	0.000117
C28	C	1.328826	0.611457	0.500117
C29	C	0.952129	-0.087209	0.000109
C30	C	1.452129	0.412791	0.500109
C31	C	1.029632	-0.088353	0.000115
C32	C	1.529632	0.411647	0.500115
C33	C	1.066035	-0.088892	-0.065898
C34	C	1.566035	0.411108	0.434102
C35	C	1.138860	-0.089949	-0.065906
C36	C	1.638860	0.410051	0.434094
C37	C	1.175277	-0.090481	0.000103
C38	C	1.675277	0.409519	0.500103
C39	C	1.138866	-0.089937	0.066124
C40	C	1.638866	0.410063	0.566124
C41	C	1.066043	-0.088874	0.066130
C42	C	1.566043	0.411126	0.566130
N43	N	1.284303	-0.131675	0.049222
N44	N	1.784303	0.368325	0.549222
N45	N	1.353481	-0.132687	0.049211
N46	N	1.853481	0.367313	0.549211
C47	C	1.394688	-0.093684	0.000088
C48	C	1.894688	0.406316	0.500088
N49	N	1.364102	-0.053640	-0.049035
N50	N	1.864102	0.446360	0.450965
N51	N	1.294917	-0.052631	-0.049027
N52	N	1.794917	0.447369	0.450973
C53	C	1.254241	-0.091634	0.000103
C54	C	1.754241	0.408366	0.500103
C55	C	1.510057	-0.095368	-0.065938
C56	C	2.010057	0.404632	0.434062
C57	C	1.582884	-0.096421	-0.065943
C58	C	2.082884	0.403579	0.434057
C59	C	1.582887	-0.096416	0.066089
C60	C	2.082887	0.403584	0.566089
C61	C	1.510062	-0.095357	0.066092
C62	C	2.010062	0.404643	0.566092
C63	C	1.473651	-0.094836	0.000077
C64	C	1.973651	0.405164	0.500077
C65	C	0.818967	-0.219658	0.000075
C66	C	1.318967	0.280342	0.500075
C67	C	0.820102	-0.296762	0.000064
C68	C	1.320102	0.203238	0.500064
N69	N	0.824441	-0.092644	0.188762
N70	N	1.324441	0.407356	0.688762
C71	C	0.891919	0.156141	0.000130
C72	C	1.391919	0.656141	0.500130
C73	C	0.890853	0.228588	0.000118
C74	C	1.390853	0.728588	0.500118
C75	C	0.826690	0.256349	0.000109
C76	C	1.326690	0.756349	0.500109
C77	C	0.763588	0.211655	0.000092
C78	C	1.263588	0.711655	0.500092
C79	C	0.764656	0.139209	0.000097
C80	C	1.264656	0.639209	0.500097
C81	C	0.776244	0.364648	0.042520
C82	C	1.276244	0.864648	0.542520
C83	C	0.775179	0.437092	0.042520
C84	C	1.275179	0.937092	0.542520
C85	C	0.823393	0.479795	0.000092
C86	C	1.323393	0.979795	0.500092
C87	C	0.872685	0.450045	-0.042327
C88	C	1.372685	0.950045	0.457673
C89	C	0.873753	0.377600	-0.042323
C90	C	1.373753	0.877600	0.457677
C91	C	0.825525	0.334903	0.000103
C92	C	1.325525	0.834903	0.500103
C93	C	0.885335	0.603035	0.000090
C94	C	1.385335	1.103035	0.500090
C95	C	0.884266	0.675483	0.000074
C96	C	1.384266	1.175483	0.500074
C97	C	0.757000	0.658548	0.000056
C98	C	1.257000	1.158548	0.500056
C99	C	0.758070	0.586101	0.000065
C100	C	1.258070	1.086101	0.500065
C101	C	0.822240	0.558349	0.000085
C102	C	1.322240	1.058349	0.500085
N103	N	0.824493	-0.092655	-0.188574
N104	N	1.324493	0.407345	0.311426
C105	C	0.872070	-0.045308	0.226875
C106	C	1.372070	0.454692	0.726875
C107	C	0.872075	-0.045305	0.303103
C108	C	1.372075	0.454695	0.803103
C109	C	0.824456	-0.092649	0.341214
C110	C	1.324456	0.407351	0.841214
C111	C	0.776818	-0.139989	0.303092
C112	C	1.276818	0.360011	0.803092
C113	C	0.776810	-0.139986	0.226865
C114	C	1.276810	0.360014	0.726865
C115	C	0.815110	-0.155935	0.461964
C116	C	1.315110	0.344065	0.961964
C117	C	0.815122	-0.155939	0.538189
C118	C	1.315122	0.344061	1.038189
C119	C	0.824476	-0.092658	0.576322
C120	C	1.324476	0.407342	1.076322
C121	C	0.833832	-0.029370	0.538220
C122	C	1.333832	0.470630	1.038220
C123	C	0.833824	-0.029368	0.461994
C124	C	1.333824	0.470632	0.961994
C125	C	0.824459	-0.092657	0.423869
C126	C	1.324459	0.407343	0.923869
C127	C	0.872113	-0.045315	0.697090
C128	C	1.372113	0.454685	1.197090
C129	C	0.872112	-0.045311	0.773319
C130	C	1.372112	0.454689	1.273319
C131	C	0.776859	-0.140001	0.773307
C132	C	1.276859	0.359999	1.273307
C133	C	0.776856	-0.139999	0.697079
C134	C	1.276856	0.360001	1.197079
C135	C	0.824487	-0.092657	0.658975
C136	C	1.324487	0.407343	1.158975
H137	H	1.036394	-0.088466	-0.119653
H138	H	1.536394	0.411534	0.380347
H139	H	0.841440	0.022163	0.430974
H140	H	1.341440	0.522163	0.930974
Cl141	Cl	0.678748	0.529924	0.000053
Cl142	Cl	1.178748	1.029924	0.500053
Cl143	Cl	1.184647	-0.090603	0.149106
Cl144	Cl	1.684647	0.409397	0.649106
H145	H	0.711346	0.234262	0.000083
H146	H	1.211346	0.734262	0.500083
Cl147	Cl	1.184634	-0.090629	-0.148900
Cl148	Cl	1.684634	0.409371	0.351100
Cl149	Cl	0.931943	0.014210	0.178974
Cl150	Cl	1.431943	0.514210	0.678974
H151	H	0.738045	-0.178537	0.334126
H152	H	1.238045	0.321463	0.834126
H153	H	0.807481	-0.207470	0.430923
H154	H	1.307481	0.292530	0.930923
Cl155	Cl	1.020277	-0.088199	0.149124
Cl156	Cl	1.520277	0.411801	0.649124
Cl157	Cl	1.464280	-0.094709	-0.148926
Cl158	Cl	1.964280	0.405291	0.351074
Cl159	Cl	1.628649	-0.097092	-0.148938
Cl160	Cl	2.128649	0.402908	0.351062
Cl161	Cl	1.628663	-0.097073	0.149072
Cl162	Cl	2.128663	0.402927	0.649072
H163	H	0.738085	-0.178547	0.804337
H164	H	1.238085	0.321453	1.304337
H165	H	1.480422	-0.094920	0.119847
H166	H	1.980422	0.405080	0.619847
Cl167	Cl	0.931958	0.014208	0.351025
Cl168	Cl	1.431958	0.514208	0.851025
H169	H	0.735039	0.461308	0.077056
H170	H	1.235039	0.961308	0.577056
H171	H	0.841448	0.022159	0.569266
H172	H	1.341448	0.522159	1.069266
H173	H	0.910895	-0.006764	0.666065
H174	H	1.410895	0.493236	1.166065
H175	H	0.944171	0.133551	0.000144
H176	H	1.444171	0.633551	0.500144
H177	H	0.942232	0.264977	0.000125
H178	H	1.442232	0.764977	0.500125
H179	H	0.913887	0.353380	-0.076863
H180	H	1.413887	0.853380	0.423137
H181	H	0.713277	0.102827	0.000087
H182	H	1.213277	0.602827	0.500087
Cl183	Cl	0.963591	0.731659	0.000085
Cl184	Cl	1.463591	1.231659	0.500085
H185	H	0.704757	0.681149	0.000045
H186	H	1.204757	1.181149	0.500045
Cl187	Cl	0.933301	0.503720	-0.095671
Cl188	Cl	1.433301	1.003720	0.404329
H189	H	0.910896	-0.006761	0.804352
H190	H	1.410896	0.493239	1.304352
H191	H	0.738075	-0.178547	0.666045
H192	H	1.238075	0.321453	1.166045
Cl193	Cl	0.966003	0.568143	0.000121
Cl194	Cl	1.466003	1.068143	0.500121
H195	H	0.807509	-0.207472	0.569206
H196	H	1.307509	0.292528	1.069206
H197	H	0.736980	0.329884	0.077074
H198	H	1.236980	0.829884	0.577074
Cl199	Cl	0.716929	-0.199499	0.178948
Cl200	Cl	1.216929	0.300501	0.678948
