data_functionalizedCrystal
_audit_creation_method	'MofGen! by Chris Wilmer'
_symmetry_space_group_name_H-M	'P1'
_symmetry_Int_Tables_number	1
_symmetry_cell_setting	triclinic
loop_
_symmetry_equiv_pos_as_xyz
  x,y,z
_cell_length_a	19.188905
_cell_length_b	19.188930
_cell_length_c	11.804365
_cell_angle_alpha	101.784974
_cell_angle_beta	78.186848
_cell_angle_gamma	83.139668
loop_
_atom_site_label
_atom_site_type_symbol
_atom_site_fract_x
_atom_site_fract_y
_atom_site_fract_z
O1	O	0.940335	0.072913	-0.099237
O2	O	1.440335	0.572913	0.400763
O3	O	0.737015	0.084671	-0.099198
O4	O	1.237015	0.584671	0.400802
O5	O	0.844539	-0.022861	-0.099195
O6	O	1.344539	0.477139	0.400805
O7	O	0.832811	0.180445	-0.099240
O8	O	1.332811	0.680445	0.400760
O9	O	0.816232	0.005419	0.098860
O10	O	1.316232	0.505419	0.598860
O11	O	0.708709	0.112951	0.098857
O12	O	1.208709	0.612951	0.598857
O13	O	0.912028	0.101193	0.098818
O14	O	1.412028	0.601193	0.598818
Cu15	Cu	0.807784	0.109654	0.116922
Cu16	Cu	1.307784	0.609654	0.616922
Cu17	Cu	0.841260	0.076209	-0.117302
Cu18	Cu	1.341260	0.576209	0.382698
O19	O	0.804504	0.208725	0.098816
O20	O	1.304504	0.708725	0.598816
C21	C	0.696850	0.098434	-0.000165
C22	C	1.196850	0.598434	0.499835
C23	C	0.619342	0.097303	-0.000149
C24	C	1.119342	0.597303	0.499851
C25	C	0.830005	-0.034732	-0.000164
C26	C	1.330005	0.465268	0.499836
C27	C	0.828863	-0.112235	-0.000154
C28	C	1.328863	0.387765	0.499846
C29	C	0.598381	0.081342	-0.108112
C30	C	1.098381	0.581342	0.391888
C31	C	0.525559	0.080267	-0.108127
C32	C	1.025559	0.580267	0.391873
C33	C	0.473703	0.095139	-0.000172
C34	C	0.973703	0.595139	0.499828
C35	C	0.494670	0.111106	0.107805
C36	C	0.994670	0.611106	0.607805
C37	C	0.567490	0.112188	0.107816
C38	C	1.067490	0.612188	0.607816
N39	N	0.353199	0.065184	0.080177
N40	N	0.853199	0.565184	0.580177
N41	N	0.284024	0.064154	0.080158
N42	N	0.784024	0.564154	0.580158
C43	C	0.254300	0.091883	-0.000200
C44	C	0.754300	0.591883	0.499800
N45	N	0.296367	0.120669	-0.080558
N46	N	0.796367	0.620669	0.419442
N47	N	0.365549	0.121696	-0.080544
N48	N	0.865549	0.621696	0.419456
C49	C	0.394740	0.093968	-0.000173
C50	C	0.894740	0.593968	0.499827
C51	C	0.154378	0.074756	-0.108187
C52	C	0.654378	0.574756	0.391813
C53	C	0.081554	0.073686	-0.108197
C54	C	0.581554	0.573686	0.391803
C55	C	0.050667	0.104519	0.107738
C56	C	0.550667	0.604519	0.607738
C57	C	0.123489	0.105595	0.107745
C58	C	0.623489	0.605595	0.607745
C59	C	0.175342	0.090710	-0.000221
C60	C	0.675342	0.590710	0.499779
C61	C	0.891955	-0.157165	-0.000160
C62	C	1.391955	0.342835	0.499840
C63	C	0.890886	-0.229991	-0.000179
C64	C	1.390886	0.270009	0.499821
C65	C	0.826718	-0.257881	-0.000168
C66	C	1.326718	0.242119	0.499832
C67	C	0.763618	-0.212941	-0.000168
C68	C	1.263618	0.287059	0.499832
C69	C	0.764691	-0.140118	-0.000161
C70	C	1.264691	0.359882	0.499839
N71	N	0.768035	-0.356255	0.067244
N72	N	1.268035	0.143745	0.567244
N73	N	0.767020	-0.425435	0.067240
N74	N	1.267020	0.074565	0.567240
C75	C	0.823483	-0.477292	-0.000191
C76	C	1.323483	0.022708	0.499809
N77	N	0.881008	-0.457357	-0.067603
N78	N	1.381008	0.042643	0.432397
N79	N	0.882024	-0.388171	-0.067593
N80	N	1.382024	0.111829	0.432407
C81	C	0.825548	-0.336844	-0.000176
C82	C	1.325548	0.163156	0.499824
C83	C	0.885421	-0.601190	-0.000220
C84	C	1.385421	-0.101190	0.499780
C85	C	0.884351	-0.674019	-0.000246
C86	C	1.384351	-0.174019	0.499754
C87	C	0.757079	-0.656965	-0.000223
C88	C	1.257079	-0.156965	0.499777
C89	C	0.758153	-0.584140	-0.000209
C90	C	1.258153	-0.084140	0.499791
C91	C	0.822325	-0.556257	-0.000201
C92	C	1.322325	-0.056257	0.499799
C93	C	0.952194	0.087429	-0.000217
C94	C	1.452194	0.587429	0.499783
C95	C	1.029703	0.088560	-0.000241
C96	C	1.529703	0.588560	0.499759
C97	C	0.819038	0.220595	-0.000218
C98	C	1.319038	0.720595	0.499782
C99	C	0.820182	0.298097	-0.000237
C100	C	1.320182	0.798097	0.499763
N101	N	0.784243	0.133177	0.281662
N102	N	1.284243	0.633177	0.781662
N103	N	0.864805	0.052681	-0.282042
N104	N	1.364805	0.552681	0.217958
C105	C	0.921334	-0.003820	0.655614
C106	C	1.421334	0.496180	1.155614
C107	C	0.939141	-0.021618	0.530953
C108	C	1.439141	0.478382	1.030953
C109	C	0.900418	0.017079	0.468624
C110	C	1.400418	0.517079	0.968624
C111	C	0.843885	0.073578	0.530968
C112	C	1.343885	0.573578	1.030968
C113	C	0.826080	0.091381	0.655642
C114	C	1.326080	0.591381	1.155642
C115	C	0.805164	0.112280	0.468652
C116	C	1.305164	0.612280	0.968652
C117	C	0.748631	0.168779	0.530996
C118	C	1.248631	0.668779	1.030996
C119	C	0.730828	0.186580	0.655658
C120	C	1.230828	0.686580	1.155658
C121	C	0.769551	0.147882	0.717986
C122	C	1.269551	0.647882	1.217986
C123	C	0.822969	0.094477	0.343978
C124	C	1.322969	0.594477	0.843978
C125	C	0.727715	0.189678	0.344006
C126	C	1.227715	0.689678	0.844006
C127	C	0.709908	0.207477	0.468668
C128	C	1.209908	0.707477	0.968668
H129	H	0.640595	0.069221	-0.196026
H130	H	1.140595	0.569221	0.303974
H131	H	0.508489	0.067270	-0.196046
H132	H	1.008489	0.567270	0.303954
H133	H	0.452444	0.123217	0.195702
H134	H	0.952444	0.623217	0.695702
H135	H	0.868999	0.048476	0.293228
H136	H	1.368999	0.548476	0.793228
H137	H	0.952861	-0.035319	0.706370
H138	H	1.452861	0.464681	1.206370
H139	H	0.713311	-0.103535	-0.000156
H140	H	1.213311	0.396465	0.499844
H141	H	0.663877	0.253479	0.519444
H142	H	1.163877	0.753479	1.019444
H143	H	0.935731	-0.710602	-0.000258
H144	H	1.435731	-0.210602	0.499742
H145	H	0.696184	0.221191	0.293259
H146	H	1.196184	0.721191	0.793259
H147	H	0.584554	0.125186	0.195736
H148	H	1.084554	0.625186	0.695736
H149	H	0.914919	0.002585	0.367119
H150	H	1.414919	0.502585	0.867119
H151	H	0.684801	0.232589	0.706419
H152	H	1.184801	0.732589	1.206419
H153	H	0.196598	0.062643	-0.196099
H154	H	0.696598	0.562643	0.303901
H155	H	0.937675	-0.578487	-0.000219
H156	H	1.437675	-0.078487	0.499781
H157	H	0.985170	-0.067618	0.480196
H158	H	1.485170	0.432382	0.980196
H159	H	0.064491	0.060692	-0.196117
H160	H	0.564491	0.560692	0.303883
H161	H	0.944210	-0.134468	-0.000158
H162	H	1.444210	0.365532	0.499842
H163	H	0.704832	-0.679673	-0.000219
H164	H	1.204832	-0.179673	0.499781
H165	H	0.755051	0.162371	0.819496
H166	H	1.255051	0.662371	1.319496
H167	H	0.706775	-0.547555	-0.000197
H168	H	1.206775	-0.047555	0.499803
H169	H	0.008446	0.116632	0.195637
H170	H	0.508446	0.616632	0.695637
H171	H	0.140555	0.118588	0.195660
H172	H	0.640555	0.618588	0.695660
H173	H	0.711372	-0.235654	-0.000161
H174	H	1.211372	0.264346	0.499839
H175	H	0.942266	-0.266582	-0.000189
H176	H	1.442266	0.233418	0.499811
