data_functionalizedCrystal
_audit_creation_method	'MofGen! by Chris Wilmer'
_symmetry_space_group_name_H-M	'P1'
_symmetry_Int_Tables_number	1
_symmetry_cell_setting	triclinic
loop_
_symmetry_equiv_pos_as_xyz
  x,y,z
_cell_length_a	10.540510
_cell_length_b	10.540539
_cell_length_c	9.130313
_cell_angle_alpha	90.000859
_cell_angle_beta	89.999498
_cell_angle_gamma	84.519401
loop_
_atom_site_label
_atom_site_type_symbol
_atom_site_fract_x
_atom_site_fract_y
_atom_site_fract_z
O1	O	1.685902	0.178715	-0.121801
O2	O	1.316484	0.195610	-0.121801
O3	O	1.509621	0.002455	-0.121799
O4	O	1.492765	0.371870	-0.121803
O5	O	1.509619	0.002460	0.121800
O6	O	1.316482	0.195615	0.121798
O7	O	1.685900	0.178720	0.121798
Cu8	Cu	1.501190	0.187168	0.144040
Cu9	Cu	1.501193	0.187162	-0.144044
O10	O	1.492763	0.371875	0.121796
C11	C	1.269179	0.194354	-0.000002
C12	C	1.128229	0.190587	-0.000002
C13	C	0.910774	0.324771	-0.000563
C14	C	1.057370	0.328789	-0.000005
C15	C	1.083468	0.119844	0.139102
C16	C	0.936707	0.116804	0.139210
C17	C	0.936904	0.113920	-0.137808
C18	C	1.083245	0.120476	-0.139638
C19	C	1.508356	-0.044845	-0.000002
C20	C	1.504574	-0.185793	-0.000010
C21	C	1.359655	-0.369204	-0.000557
C22	C	1.363489	-0.222587	-0.000009
C23	C	1.572469	-0.247455	0.139097
C24	C	1.567654	-0.393999	0.139214
C25	C	1.570526	-0.394523	-0.137804
C26	C	1.571826	-0.247542	-0.139643
C27	C	1.733204	0.179976	-0.000005
C28	C	1.874154	0.183743	-0.000014
C29	C	1.494028	0.419175	-0.000004
C30	C	1.497810	0.560123	-0.000006
N31	N	1.501198	0.187172	0.346663
N32	N	1.501196	0.187148	-0.346666
C33	C	1.586741	0.101672	0.423316
C34	C	1.586737	0.101657	0.576653
C35	C	1.415644	0.272652	0.576670
C36	C	1.415642	0.272660	0.423336
C37	C	1.685525	0.002953	0.423307
C38	C	1.685521	0.002937	0.576644
H39	H	1.310065	-0.179980	-0.099726
N40	N	1.709726	-0.217911	0.145932
H41	H	1.729260	-0.164135	0.058717
H42	H	1.724289	-0.169798	0.239151
N43	N	1.506111	-0.193300	-0.275954
H44	H	1.568920	-0.150219	-0.337733
H45	H	1.472293	-0.264391	-0.333954
H46	H	1.672431	-0.441760	-0.138739
H47	H	0.896490	0.165155	0.243191
H48	H	1.303924	-0.397801	-0.100313
N49	N	1.501171	-0.431360	0.276935
H50	H	1.560884	-0.492028	0.336106
H51	H	1.475264	-0.352604	0.336890
H52	H	1.674687	-0.223331	-0.148043
H53	H	1.783082	0.024712	0.618260
H54	H	0.868821	0.378611	-0.100323
N55	N	1.096256	0.402096	-0.132090
H56	H	1.018103	0.432087	-0.191201
H57	H	1.140083	0.478185	-0.098760
H58	H	1.525303	-0.204848	0.242615
H59	H	1.111864	0.171948	-0.242546
H60	H	0.867266	0.378305	0.098630
N61	N	1.807620	0.043928	0.360286
H62	H	1.819524	0.133161	0.394422
H63	H	1.881905	-0.016442	0.394426
N64	N	1.124310	0.184912	0.276247
H65	H	1.220243	0.183530	0.277848
H66	H	1.084907	0.276089	0.277545
N67	N	1.286120	-0.409194	0.130837
H68	H	1.341910	-0.472891	0.190717
H69	H	1.259140	-0.331951	0.192841
H70	H	1.309689	-0.180823	0.099875
H71	H	1.345975	0.342270	0.360927
N72	N	1.323366	0.364851	0.659368
H73	H	1.336342	0.351870	0.768137
H74	H	1.338836	0.455053	0.632579
H75	H	1.663815	-0.094626	0.381688
H76	H	1.085772	0.384473	0.099877
N77	N	1.702049	-0.457565	0.147583
H78	H	1.764155	-0.390355	0.151188
H79	H	1.711712	-0.511878	0.238761
H80	H	0.913712	0.013438	0.145530
H81	H	1.130858	0.018102	0.144277
H82	H	1.654646	-0.089276	0.624191
N83	N	0.880690	0.171765	-0.277477
H84	H	0.813968	0.243825	-0.252838
H85	H	0.950361	0.205577	-0.337837
H86	H	0.914750	0.010158	-0.138747
N87	N	1.148231	-0.013179	-0.150776
H88	H	1.208017	-0.030253	-0.065077
H89	H	1.081903	-0.076273	-0.149587
N90	N	1.510051	-0.436316	-0.277466
H91	H	1.418455	-0.398372	-0.282063
H92	H	1.558279	-0.406214	-0.364406
