data_functionalizedCrystal
_audit_creation_method	'MofGen! by Chris Wilmer'
_symmetry_space_group_name_H-M	'P1'
_symmetry_Int_Tables_number	1
_symmetry_cell_setting	triclinic
loop_
_symmetry_equiv_pos_as_xyz
  x,y,z
_cell_length_a	14.853566
_cell_length_b	14.519709
_cell_length_c	13.930277
_cell_angle_alpha	89.994503
_cell_angle_beta	89.995631
_cell_angle_gamma	83.657280
loop_
_atom_site_label
_atom_site_type_symbol
_atom_site_fract_x
_atom_site_fract_y
_atom_site_fract_z
O1	O	1.196416	0.120399	-0.079770
O2	O	0.933962	0.134743	-0.079786
O3	O	1.072147	-0.006670	-0.079768
O4	O	1.058230	0.261813	-0.079787
O5	O	1.072128	-0.006673	0.079893
O6	O	0.933943	0.134740	0.079876
O7	O	1.196397	0.120396	0.079892
Zn8	Zn	1.065167	0.127568	0.105234
Zn9	Zn	1.065192	0.127572	-0.105127
O10	O	1.058211	0.261810	0.079875
C11	C	0.900363	0.134092	0.000043
C12	C	0.800279	0.132145	0.000037
C13	C	0.377101	0.123911	-0.086977
C14	C	0.377101	0.123909	0.087093
C15	C	0.471136	0.125737	0.087090
C16	C	0.518158	0.126654	0.000052
C17	C	0.471144	0.125743	-0.086983
C18	C	0.518156	0.126658	0.174123
C19	C	0.612196	0.128488	0.174123
C20	C	0.659220	0.129398	0.087084
C21	C	0.612201	0.128485	0.000046
C22	C	0.659222	0.129402	-0.086991
C23	C	0.612206	0.128483	-0.174030
C24	C	0.518168	0.126653	-0.174021
C25	C	0.753257	0.131228	0.087075
C26	C	0.753265	0.131234	-0.086997
C27	C	1.071489	-0.041031	0.000063
C28	C	1.069546	-0.143412	0.000063
C29	C	1.062390	-0.518304	0.000038
C30	C	1.064377	-0.413997	0.000045
C31	C	1.065968	-0.330861	0.000051
C32	C	1.067955	-0.226548	0.000057
C33	C	1.229995	0.121047	0.000061
C34	C	1.330080	0.122994	0.000061
C35	C	1.058869	0.296171	0.000042
C36	C	1.060813	0.398551	0.000035
N37	N	1.065156	0.127564	0.248800
N38	N	1.065210	0.127568	-0.248693
C39	C	1.004001	0.190165	0.701062
C40	C	1.126408	0.064971	0.701046
C41	C	1.126397	0.064968	0.600551
C42	C	1.065188	0.127566	0.550306
C43	C	1.003990	0.190166	0.600557
C44	C	1.187600	0.002376	0.550292
C45	C	1.187592	0.002371	0.449790
C46	C	1.126379	0.064965	0.399544
C47	C	1.065177	0.127567	0.449801
C48	C	1.003969	0.190164	0.399556
C49	C	0.942762	0.252762	0.449811
C50	C	0.942776	0.252760	0.550310
C51	C	1.126365	0.064967	0.299045
C52	C	1.003958	0.190165	0.299051
H53	H	0.479879	0.125904	-0.244884
H54	H	0.650469	0.129234	0.244996
O55	O	0.326395	0.122907	-0.180849
H56	H	0.374895	0.123842	-0.241369
O57	O	0.803965	0.132222	0.180943
H58	H	0.838868	0.195868	0.185094
O59	O	0.937941	0.257684	0.244858
H60	H	0.895392	0.301212	0.296690
O61	O	0.876772	0.320277	0.604515
H62	H	0.888368	0.392190	0.585206
H63	H	0.338810	0.123168	0.157955
H64	H	0.479863	0.125917	0.244984
H65	H	1.237439	-0.048585	0.591205
O66	O	1.253593	-0.065151	0.395587
H67	H	1.296151	-0.108683	0.447411
H68	H	0.954165	0.241129	0.741982
O69	O	0.803983	0.132211	-0.180875
H70	H	0.838898	0.195848	-0.185049
O71	O	1.192368	-0.002542	0.244837
H72	H	1.234930	-0.046072	0.296660
O73	O	0.876736	0.320260	0.395604
H74	H	0.914747	0.365150	0.349795
H75	H	0.650502	0.129236	-0.244896
O76	O	1.192425	-0.002542	0.755231
H77	H	1.182149	0.007972	0.833558
