data_functionalizedCrystal
_audit_creation_method	'MofGen! by Chris Wilmer'
_symmetry_space_group_name_H-M	'P1'
_symmetry_Int_Tables_number	1
_symmetry_cell_setting	triclinic
loop_
_symmetry_equiv_pos_as_xyz
  x,y,z
_cell_length_a	15.538191
_cell_length_b	13.448316
_cell_length_c	14.971486
_cell_angle_alpha	89.992514
_cell_angle_beta	114.556889
_cell_angle_gamma	90.003991
loop_
_atom_site_label
_atom_site_type_symbol
_atom_site_fract_x
_atom_site_fract_y
_atom_site_fract_z
O1	O	1.249580	0.082701	0.290396
O2	O	0.975438	0.082701	0.187155
O3	O	1.119857	0.082694	0.371369
O4	O	1.105161	0.082708	0.106182
O5	O	1.119853	-0.082690	0.371379
O6	O	0.975434	-0.082682	0.187166
O7	O	1.249577	-0.082683	0.290407
Cu8	Cu	1.112505	-0.097783	0.238787
Cu9	Cu	1.112509	0.097802	0.238774
O10	O	1.105158	-0.082675	0.106193
C11	C	0.940353	0.000009	0.176358
C12	C	0.835815	0.000009	0.144183
C13	C	1.119198	0.000003	0.404485
C14	C	1.117228	0.000004	0.503140
N15	N	1.112512	0.235366	0.238772
C16	C	0.547665	0.000008	0.463833
C17	C	0.449433	0.000010	0.433577
C18	C	0.427182	0.000019	0.263395
C19	C	0.525413	0.000012	0.293637
C20	C	0.585648	0.000007	0.393857
C21	C	0.563397	0.000011	0.223661
C22	C	0.661620	0.000009	0.253900
C23	C	0.721860	0.000008	0.354116
C24	C	0.683871	0.000005	0.424096
C25	C	0.503161	0.000023	0.123441
C26	C	0.541144	0.000022	0.053465
C27	C	0.639369	0.000013	0.083705
C28	C	0.699609	0.000012	0.183920
C29	C	0.677358	0.000016	0.013724
C30	C	0.775581	0.000014	0.043964
C31	C	0.797832	0.000010	0.214159
C32	C	1.284662	0.000012	0.301203
C33	C	1.389199	0.000018	0.333378
N34	N	1.112510	-0.235348	0.238799
C35	C	1.176581	0.287404	0.320261
C36	C	1.176585	0.391507	0.320265
C37	C	1.112515	0.443571	0.238782
C38	C	1.048444	0.391527	0.157285
C39	C	1.048445	0.287425	0.157280
C40	C	1.048444	0.608507	0.157304
C41	C	1.048442	0.712615	0.157310
C42	C	1.176584	0.712588	0.320289
C43	C	1.176585	0.608487	0.320284
C44	C	1.112512	0.556450	0.238788
C45	C	1.105817	0.000018	0.073077
C46	C	1.107786	0.000024	-0.025579
C47	C	1.202071	0.000003	0.587997
C48	C	1.200215	0.000013	0.680692
C49	C	1.113515	0.000016	0.688528
C50	C	1.028666	0.000020	0.603662
C51	C	1.030523	0.000017	0.510969
C52	C	1.024802	0.000024	0.796866
C53	C	1.022944	0.000025	0.889565
C54	C	1.194493	0.000019	0.966589
C55	C	1.196350	0.000016	0.873896
C56	C	1.111500	0.000018	0.789036
H57	H	0.846879	0.000000	0.295768
F58	F	0.409013	-0.000002	0.508063
H59	H	0.628301	0.000029	-0.067875
H60	H	0.996271	0.755000	0.090957
H61	H	0.801839	0.000019	0.378735
F62	F	0.980253	0.553129	0.070563
F63	F	0.980260	0.446938	0.070561
H64	H	0.996276	0.245057	0.090922
F65	F	0.611776	-0.000008	0.570499
F66	F	0.398622	0.000026	0.091260
H67	H	1.272671	-0.000006	0.581628
F68	F	0.363067	0.000030	0.156737
H69	H	1.266948	0.000006	0.867521
F70	F	0.477029	0.000033	-0.053193
F71	F	1.244768	0.553076	0.407009
F72	F	1.284796	0.000022	1.056904
H73	H	0.952346	0.000012	0.895939
F74	F	1.244773	0.767974	0.407023
F75	F	1.244774	0.446889	0.406994
F76	F	1.290516	0.000010	0.771001
H77	H	0.955708	0.000028	0.727771
F78	F	0.940223	0.000021	0.420656
F79	F	1.244769	0.232003	0.406991
F80	F	0.747983	-0.000011	0.530762
F81	F	0.816008	0.000015	-0.030512
F82	F	0.936394	0.000035	0.612004
