data_functionalizedCrystal
_audit_creation_method	'MofGen! by Chris Wilmer'
_symmetry_space_group_name_H-M	'P1'
_symmetry_Int_Tables_number	1
_symmetry_cell_setting	triclinic
loop_
_symmetry_equiv_pos_as_xyz
  x,y,z
_cell_length_a	23.532407
_cell_length_b	23.532409
_cell_length_c	22.610064
_cell_angle_alpha	90.007112
_cell_angle_beta	89.994501
_cell_angle_gamma	82.849153
loop_
_atom_site_label
_atom_site_type_symbol
_atom_site_fract_x
_atom_site_fract_y
_atom_site_fract_z
O1	O	0.755264	0.069127	-0.049144
O2	O	0.589401	0.079131	-0.049152
O3	O	0.677333	-0.008803	-0.049148
O4	O	0.667331	0.157061	-0.049147
O5	O	0.677318	-0.008790	0.049221
O6	O	0.589385	0.079143	0.049217
O7	O	0.755248	0.069140	0.049226
Zn8	Zn	0.672314	0.074144	0.064840
Zn9	Zn	0.672335	0.074127	-0.064766
O10	O	0.667316	0.157073	0.049222
C11	C	0.568177	0.078882	0.000031
C12	C	0.504960	0.078116	0.000028
C13	C	0.238792	0.022921	0.000043
C14	C	0.298192	0.023632	0.000043
O15	O	0.334936	-0.020153	0.000063
N16	N	0.320819	0.075909	0.000039
C17	C	0.284042	0.127477	0.000042
O18	O	0.308742	0.172007	0.000039
C19	C	0.224643	0.126765	0.000046
C20	C	0.202020	0.074485	0.000044
C21	C	0.216168	-0.029354	0.000042
C22	C	0.156772	-0.030066	0.000041
C23	C	0.120000	0.021499	0.000041
C24	C	0.142623	0.073774	0.000043
C25	C	0.187867	0.178332	0.000053
C26	C	0.128464	0.177616	0.000058
C27	C	0.105841	0.125336	0.000056
C28	C	0.046455	0.124627	0.000043
N29	N	0.023828	0.072351	0.000047
C30	C	0.060601	0.020787	0.000046
C31	C	0.408784	0.128968	0.000034
C32	C	0.468182	0.129681	0.000025
C33	C	0.482329	0.025836	0.000028
C34	C	0.422930	0.025124	0.000032
C35	C	0.386158	0.076692	0.000037
C36	C	-0.064136	0.019297	0.000043
C37	C	-0.123538	0.018590	0.000040
C38	C	-0.137680	0.122435	0.000041
C39	C	-0.078283	0.123142	0.000041
C40	C	-0.041512	0.071568	0.000044
O41	O	0.009676	0.168390	0.000025
O42	O	0.035892	-0.023736	0.000056
C43	C	0.677071	-0.030012	0.000035
C44	C	0.676304	-0.093229	0.000030
C45	C	0.673054	-0.366481	-0.053593
C46	C	0.673765	-0.307081	-0.053594
O47	O	0.674161	-0.276362	-0.099194
N48	N	0.674109	-0.277372	0.000028
C49	C	0.673747	-0.307067	0.053654
O50	O	0.674105	-0.276343	0.099264
C51	C	0.673040	-0.366467	0.053653
C52	C	0.672690	-0.396172	0.000028
C53	C	0.672705	-0.396187	-0.107215
C54	C	0.671992	-0.455583	-0.107214
C55	C	0.671628	-0.485273	-0.053593
C56	C	0.671977	-0.455568	0.000028
C57	C	0.672682	-0.396161	0.107278
C58	C	0.671974	-0.455565	0.107273
C59	C	0.671625	-0.485270	0.053648
C60	C	0.670901	-0.544654	0.053650
N61	N	0.670557	-0.574363	0.000028
C62	C	0.670921	-0.544673	-0.053593
C63	C	0.675234	-0.182324	0.053651
C64	C	0.675937	-0.122925	0.053652
C65	C	0.675957	-0.122943	-0.053596
C66	C	0.675249	-0.182343	-0.053596
C67	C	0.674890	-0.212033	0.000029
C68	C	0.669424	-0.669409	-0.053589
C69	C	0.668709	-0.728809	-0.053584
C70	C	0.668692	-0.728786	0.053664
C71	C	0.669404	-0.669390	0.053659
C72	C	0.669772	-0.639703	0.000028
O73	O	0.670508	-0.575411	0.099228
O74	O	0.670570	-0.575405	-0.099195
C75	C	0.776472	0.069389	0.000041
C76	C	0.839689	0.070154	0.000041
C77	C	0.667578	0.178283	0.000037
C78	C	0.668345	0.241500	0.000038
N79	N	0.672305	0.074155	0.153292
N80	N	0.672349	0.074111	-0.153219
C81	C	0.711273	0.035196	0.561935
C82	C	0.711276	0.035192	0.623855
O83	O	0.744384	0.002076	0.655875
N84	N	0.672334	0.074115	0.654829
C85	C	0.633383	0.113041	0.623880
O86	O	0.600261	0.146148	0.655912
C87	C	0.633378	0.113042	0.561961
C88	C	0.672326	0.074120	0.530990
C89	C	0.750217	-0.003723	0.530964
C90	C	0.750215	-0.003718	0.469049
C91	C	0.711268	0.035206	0.438104
C92	C	0.672324	0.074125	0.469075
C93	C	0.594425	0.151965	0.531013
C94	C	0.594423	0.151962	0.469090
C95	C	0.633371	0.113040	0.438120
C96	C	0.633375	0.113054	0.376214
N97	N	0.672316	0.074131	0.345240
C98	C	0.711263	0.035207	0.376185
C99	C	0.633397	0.113035	0.753914
C100	C	0.633404	0.113038	0.815831
C101	C	0.711296	0.035188	0.815802
C102	C	0.711291	0.035189	0.753883
C103	C	0.672338	0.074112	0.722940
C104	C	0.711256	0.035221	0.246158
C105	C	0.711251	0.035231	0.184237
C106	C	0.633358	0.113079	0.184271
C107	C	0.633364	0.113071	0.246187
C108	C	0.672315	0.074137	0.277129
O109	O	0.600282	0.146152	0.344155
O110	O	0.744376	0.002101	0.344146
H111	H	0.246103	-0.071347	0.000043
N112	N	0.399833	-0.028283	0.000028
N113	N	0.432679	-0.074315	0.000024
H114	H	0.416370	-0.112037	0.000023
N115	N	0.751071	-0.004579	0.722258
N116	N	0.786330	0.013285	0.687701
H117	H	0.814426	-0.014809	0.665374
N118	N	0.554628	0.191713	0.562637
N119	N	0.519378	0.173819	0.597183
H120	H	0.491267	0.201892	0.619515
H121	H	0.743008	0.003493	0.841008
N122	N	0.674893	-0.212693	-0.108367
N123	N	0.634353	-0.240375	-0.120337
H124	H	0.634103	-0.261809	-0.159020
H125	H	-0.141954	-0.023984	0.000037
N126	N	0.751024	-0.004539	0.152597
N127	N	0.733148	-0.039795	0.118044
H128	H	0.761234	-0.067883	0.095698
N129	N	0.090903	0.230293	0.000074
N130	N	0.092798	0.265139	0.041543
H131	H	0.066272	0.302342	0.041555
H132	H	0.672972	-0.371986	0.150946
N133	N	0.789995	-0.043488	0.562576
N134	N	0.790000	-0.043498	0.617860
H135	H	0.818094	-0.071586	0.640184
N136	N	0.593576	0.152821	0.277830
N137	N	0.558330	0.134920	0.312376
H138	H	0.530225	0.162989	0.334721
N139	N	0.669742	-0.639039	0.108433
N140	N	0.629504	-0.640192	0.144332
H141	H	0.629745	-0.618759	0.183017
N142	N	0.210956	0.231741	0.000052
N143	N	0.178106	0.277771	0.000055
H144	H	0.194411	0.315494	0.000054
N145	N	0.671661	-0.485933	-0.161987
N146	N	0.671039	-0.538970	-0.161990
H147	H	0.670812	-0.560404	-0.200676
N148	N	0.371223	0.181647	0.000021
N149	N	0.336504	0.192832	-0.041444
H150	H	0.309978	0.230036	-0.041453
H151	H	0.669724	-0.645244	-0.097260
N152	N	0.519905	-0.026832	0.000027
N153	N	0.572938	-0.026183	0.000026
H154	H	0.599479	-0.063377	0.000025
H155	H	0.668422	-0.752993	-0.097254
H156	H	0.601695	0.144737	0.841044
H157	H	0.742972	0.003517	0.271343
N158	N	0.593603	0.152804	0.722317
N159	N	0.558839	0.187551	0.749986
H160	H	0.530734	0.215637	0.727674
N161	N	0.676346	-0.092611	-0.108371
N162	N	0.716427	-0.104717	-0.144268
H163	H	0.716703	-0.083295	-0.182951
H164	H	0.676211	-0.098742	0.097319
N165	N	-0.026590	-0.033388	0.000051
N166	N	-0.046807	-0.080055	0.000051
H167	H	-0.020291	-0.117265	0.000054
H168	H	0.562701	0.183658	0.443899
N169	N	0.491277	0.183089	0.000027
N170	N	0.479894	0.217778	0.041492
H171	H	0.496202	0.255500	0.041497
N172	N	0.133677	-0.083474	0.000039
N173	N	0.166526	-0.129505	0.000039
H174	H	0.150219	-0.167227	0.000038
N175	N	-0.055180	0.176547	0.000035
N176	N	-0.088022	0.222583	0.000034
H177	H	-0.071709	0.260302	0.000035
N178	N	-0.175256	0.175099	0.000034
N179	N	-0.228288	0.174449	0.000033
H180	H	-0.254829	0.211643	0.000030
N181	N	0.673080	-0.365874	-0.161998
N182	N	0.672770	-0.392415	-0.209865
H183	H	0.673032	-0.371011	-0.248559
N184	N	0.593583	0.152836	0.152646
N185	N	0.593589	0.152828	0.097362
H186	H	0.565496	0.180904	0.075025
H187	H	0.674937	-0.206493	0.097322
N188	N	0.671598	-0.485882	0.162057
N189	N	0.631522	-0.473767	0.197958
H190	H	0.631254	-0.495177	0.236649
N191	N	0.668316	-0.759129	0.108429
N192	N	0.667683	-0.812164	0.108415
H193	H	0.667420	-0.833596	0.147093
H194	H	0.781928	-0.035413	0.443836
