data_functionalizedCrystal
_audit_creation_method	'MofGen! by Chris Wilmer'
_symmetry_space_group_name_H-M	'P1'
_symmetry_Int_Tables_number	1
_symmetry_cell_setting	triclinic
loop_
_symmetry_equiv_pos_as_xyz
  x,y,z
_cell_length_a	21.295418
_cell_length_b	25.639239
_cell_length_c	21.295412
_cell_angle_alpha	89.971450
_cell_angle_beta	89.957310
_cell_angle_gamma	90.054499
loop_
_atom_site_label
_atom_site_type_symbol
_atom_site_fract_x
_atom_site_fract_y
_atom_site_fract_z
Zn1	Zn	0.962314	-0.207943	-0.356243
Zn2	Zn	1.462314	0.292057	0.143757
Zn3	Zn	0.962203	-0.295377	-0.250972
Zn4	Zn	1.462203	0.204623	0.249028
Zn5	Zn	0.857039	-0.207981	-0.250953
Zn6	Zn	1.357039	0.292019	0.249047
Zn7	Zn	0.856991	-0.295373	-0.356169
Zn8	Zn	1.356991	0.204627	0.143831
O9	O	0.909637	-0.251669	-0.303584
O10	O	1.409637	0.248331	0.196416
O11	O	1.050388	-0.219527	-0.342318
O12	O	1.550388	0.280473	0.157682
O13	O	0.948226	-0.283801	-0.162880
O14	O	1.448226	0.216199	0.337120
O15	O	0.871070	-0.134811	-0.264943
O16	O	1.371070	0.365189	0.235057
O17	O	1.050307	-0.283764	-0.264976
O18	O	1.550307	0.216236	0.235024
O19	O	0.948415	-0.134783	-0.342299
O20	O	1.448415	0.365217	0.157701
O21	O	0.870962	-0.219592	-0.162866
O22	O	1.370962	0.280408	0.337134
O23	O	0.768943	-0.219589	-0.264871
O24	O	1.268943	0.280411	0.235129
O25	O	0.870989	-0.283758	-0.444268
O26	O	1.370989	0.216242	0.055732
O27	O	0.768908	-0.283795	-0.342172
O28	O	1.268908	0.216205	0.157828
O29	O	0.948369	-0.219523	-0.444322
O30	O	1.448369	0.280477	0.055678
O31	O	0.948180	-0.368542	-0.264904
O32	O	1.448180	0.131458	0.235096
O33	O	0.870881	-0.368539	-0.342191
O34	O	1.370881	0.131461	0.157809
C35	C	0.746085	-0.251696	-0.303512
C36	C	1.246085	0.248304	0.196488
C37	C	0.676117	-0.251721	-0.303496
C38	C	1.176117	0.248279	0.196504
C39	C	0.643248	-0.285197	-0.343686
C40	C	1.143248	0.214803	0.156314
C41	C	0.577506	-0.285184	-0.343715
C42	C	1.077506	0.214816	0.156285
C43	C	0.544634	-0.251700	-0.303541
C44	C	1.044634	0.248300	0.196459
C45	C	0.577511	-0.218217	-0.263347
C46	C	1.077511	0.281783	0.236653
C47	C	0.643252	-0.218227	-0.263325
C48	C	1.143252	0.281773	0.236675
N49	N	0.441360	-0.247615	-0.248483
N50	N	0.941360	0.252385	0.251517
N51	N	0.378909	-0.247609	-0.248506
N52	N	0.878909	0.252391	0.251494
C53	C	0.346560	-0.251667	-0.303608
C54	C	0.846560	0.248333	0.196392
N55	N	0.379021	-0.255742	-0.358686
N56	N	0.879021	0.244258	0.141314
N57	N	0.441479	-0.255752	-0.358662
N58	N	0.941479	0.244248	0.141338
C59	C	0.473349	-0.251685	-0.303561
C60	C	0.973349	0.248315	0.196439
C61	C	0.242406	-0.285131	-0.343832
C62	C	0.742406	0.214869	0.156168
C63	C	0.176662	-0.285115	-0.343862
C64	C	0.676662	0.214885	0.156138
C65	C	0.176668	-0.218150	-0.263489
C66	C	0.676668	0.281850	0.236511
C67	C	0.242410	-0.218164	-0.263465
C68	C	0.742410	0.281836	0.236535
C69	C	0.275275	-0.251657	-0.303636
C70	C	0.775275	0.248343	0.196364
C71	C	0.909531	-0.387511	-0.303555
C72	C	1.409531	0.112489	0.196445
C73	C	0.909543	-0.445625	-0.303564
C74	C	1.409543	0.054375	0.196436
C75	C	0.949991	-0.805977	-0.263409
C76	C	1.449991	-0.305977	0.236591
C77	C	0.950015	-0.860581	-0.263418
C78	C	1.450015	-0.360581	0.236582
O79	O	0.984296	-0.888808	-0.229245
O80	O	1.484296	-0.388808	0.270755
N81	N	0.909747	-0.887908	-0.303626
N82	N	1.409747	-0.387908	0.196374
C83	C	0.869456	-0.860627	-0.343833
C84	C	1.369456	-0.360627	0.156167
O85	O	0.835208	-0.888884	-0.378034
O86	O	1.335208	-0.388884	0.121966
C87	C	0.869436	-0.806024	-0.343827
C88	C	1.369436	-0.306024	0.156173
C89	C	0.909702	-0.778700	-0.303612
C90	C	1.409702	-0.278700	0.196388
C91	C	0.990255	-0.778653	-0.223198
C92	C	1.490255	-0.278653	0.276802
C93	C	0.990229	-0.724053	-0.223188
C94	C	1.490229	-0.224053	0.276812
C95	C	0.949940	-0.696776	-0.263391
C96	C	1.449940	-0.196776	0.236609
C97	C	0.909677	-0.724100	-0.303603
C98	C	1.409677	-0.224100	0.196397
C99	C	0.829149	-0.778744	-0.384037
C100	C	1.329149	-0.278744	0.115963
C101	C	0.829132	-0.724137	-0.384028
C102	C	1.329132	-0.224137	0.115972
C103	C	0.869398	-0.696813	-0.343812
C104	C	1.369398	-0.196813	0.156188
C105	C	0.869362	-0.642222	-0.343796
C106	C	1.369362	-0.142222	0.156204
N107	N	0.909631	-0.614896	-0.303588
N108	N	1.409631	-0.114896	0.196412
C109	C	0.949919	-0.642173	-0.263385
C110	C	1.449919	-0.142173	0.236615
C111	C	0.869504	-0.975298	-0.343842
C112	C	1.369504	-0.475298	0.156158
C113	C	0.869521	-1.029900	-0.343845
C114	C	1.369521	-0.529900	0.156155
C115	C	0.950081	-1.029850	-0.263431
C116	C	1.450081	-0.529850	0.236569
C117	C	0.950060	-0.975247	-0.263425
C118	C	1.450060	-0.475247	0.236575
C119	C	0.909772	-0.947971	-0.303634
C120	C	1.409772	-0.447971	0.196366
C121	C	0.949863	-0.527508	-0.263369
C122	C	1.449863	-0.027508	0.236631
C123	C	0.949832	-0.472902	-0.263361
C124	C	1.449832	0.027098	0.236639
C125	C	0.869275	-0.472956	-0.343778
C126	C	1.369275	0.027044	0.156222
C127	C	0.869303	-0.527557	-0.343783
C128	C	1.369303	-0.027557	0.156217
C129	C	0.909602	-0.554831	-0.303577
C130	C	1.409602	-0.054831	0.196423
O131	O	0.835101	-0.613960	-0.377953
O132	O	1.335101	-0.113960	0.122047
O133	O	0.984168	-0.613909	-0.229195
O134	O	1.484168	-0.113909	0.270805
C135	C	1.073827	-0.251641	-0.303657
C136	C	1.573827	0.248359	0.196343
C137	C	1.143795	-0.251630	-0.303688
C138	C	1.643795	0.248370	0.196312
C139	C	0.909686	-0.251636	-0.467774
C140	C	1.409686	0.248364	0.032226
C141	C	0.909707	-0.251622	-0.537743
C142	C	1.409707	0.248378	-0.037743
C143	C	0.909760	-0.115296	-0.303627
C144	C	1.409760	0.384704	0.196373
C145	C	0.909813	-0.057182	-0.303645
C146	C	1.409813	0.442818	0.196355
C147	C	0.869486	-0.218185	-0.570592
C148	C	1.369486	0.281815	-0.070592
C149	C	0.869484	-0.218175	-0.636334
C150	C	1.369484	0.281825	-0.136334
C151	C	0.909714	-0.251597	-0.669225
C152	C	1.409714	0.248403	-0.169225
C153	C	0.949937	-0.285041	-0.636368
C154	C	1.449937	0.214959	-0.136368
C155	C	0.949934	-0.285054	-0.570627
C156	C	1.449934	0.214946	-0.070627
N157	N	0.964817	-0.255578	-0.772482
N158	N	1.464817	0.244422	-0.272482
N159	N	0.964819	-0.255563	-0.834933
N160	N	1.464819	0.244437	-0.334933
C161	C	0.909725	-0.251563	-0.867300
C162	C	1.409725	0.248437	-0.367300
N163	N	0.854629	-0.247567	-0.834856
N164	N	1.354629	0.252433	-0.334856
N165	N	0.854628	-0.247580	-0.772398
N166	N	1.354628	0.252420	-0.272398
C167	C	0.909721	-0.251588	-0.740511
C168	C	1.409721	0.248412	-0.240511
C169	C	0.869499	-0.218113	-0.971435
C170	C	1.369499	0.281887	-0.471435
C171	C	0.869496	-0.218107	-1.037179
C172	C	1.369496	0.281893	-0.537179
C173	C	0.949954	-0.284970	-1.037211
C174	C	1.449954	0.215030	-0.537211
C175	C	0.949952	-0.284979	-0.971468
C176	C	1.449952	0.215021	-0.471468
C177	C	0.909725	-0.251547	-0.938584
C178	C	1.409725	0.248453	-0.438584
C179	C	0.909624	-0.251663	-0.140032
C180	C	1.409624	0.248337	0.359968
C181	C	0.909725	-0.251530	-0.070065
C182	C	1.409725	0.248470	0.429935
H183	H	0.550739	-0.312445	-0.376445
H184	H	1.050739	0.187555	0.123555
H185	H	1.023019	-0.701809	-0.190444
H186	H	1.523019	-0.201809	0.309556
H187	H	0.269166	-0.312401	-0.376545
H188	H	0.769166	0.187599	0.123455
H189	H	0.836739	-0.190880	-1.063923
H190	H	1.336739	0.309120	-0.563923
C191	C	0.156511	-0.310711	-0.450404
C192	C	0.656511	0.189289	0.049596
C193	C	0.140533	-0.321917	-0.388043
C194	C	0.640533	0.178083	0.111957
H195	H	0.134209	-0.333434	-0.477678
H196	H	0.634209	0.166566	0.022322
H197	H	0.145792	-0.275595	-0.459699
H198	H	0.645792	0.224405	0.040301
H199	H	0.200370	-0.315511	-0.456128
H200	H	0.700370	0.184489	0.043872
H201	H	0.096675	-0.317113	-0.382318
H202	H	0.596675	0.182887	0.117682
H203	H	0.151247	-0.357041	-0.378745
H204	H	0.651247	0.142959	0.121255
H205	H	0.982692	-0.312254	-0.663152
H206	H	1.482692	0.187746	-0.163152
C207	C	0.784833	-0.210878	-0.897438
C208	C	1.284833	0.289122	-0.397438
C209	C	0.825279	-0.181373	-0.935280
C210	C	1.325279	0.318627	-0.435280
H211	H	0.757537	-0.188196	-0.875115
H212	H	1.257537	0.311804	-0.375115
H213	H	0.760736	-0.233653	-0.923059
H214	H	1.260736	0.266347	-0.423059
H215	H	0.808800	-0.230791	-0.868467
H216	H	1.308800	0.269209	-0.368467
H217	H	0.801312	-0.161463	-0.964253
H218	H	1.301312	0.338537	-0.464253
H219	H	0.849378	-0.158589	-0.909656
H220	H	1.349378	0.341411	-0.409656
H221	H	0.982711	-0.312182	-1.063990
H222	H	1.482711	0.187818	-0.563990
C223	C	0.985651	-0.314761	-0.469866
C224	C	1.485651	0.185239	0.030134
C225	C	0.994149	-0.321809	-0.534514
C226	C	1.494149	0.178191	-0.034514
H227	H	1.012946	-0.337454	-0.447572
H228	H	1.512946	0.162546	0.052428
H229	H	0.994898	-0.279636	-0.459116
H230	H	1.494898	0.220364	0.040884
H231	H	0.943346	-0.322421	-0.459066
H232	H	1.443346	0.177579	0.040934
H233	H	1.036453	-0.314145	-0.545315
H234	H	1.536453	0.185855	-0.045315
H235	H	0.984906	-0.356942	-0.545268
H236	H	1.484906	0.143058	-0.045268
C237	C	1.029486	-0.351061	-0.978106
C238	C	1.529486	0.148939	-0.478106
C239	C	0.994172	-0.321728	-0.935356
C240	C	1.494172	0.178272	-0.435356
H241	H	1.056789	-0.373747	-0.955810
H242	H	1.556789	0.126253	-0.455810
H243	H	1.002044	-0.371061	-1.003718
H244	H	1.502044	0.128939	-0.503718
H245	H	1.053583	-0.328266	-1.003774
H246	H	1.553583	0.171734	-0.503774
H247	H	0.970072	-0.344523	-0.909690
H248	H	1.470072	0.155477	-0.409690
H249	H	1.021618	-0.301726	-0.909733
H250	H	1.521618	0.198274	-0.409733
H251	H	0.836733	-0.190944	-0.663086
H252	H	1.336733	0.309056	-0.163086
C253	C	0.663561	-0.310785	-0.450218
C254	C	1.163561	0.189215	0.049782
C255	C	0.679372	-0.322007	-0.387849
C256	C	1.179372	0.177993	0.112151
H257	H	0.685866	-0.333508	-0.477482
H258	H	1.185866	0.166492	0.022518
H259	H	0.619709	-0.315571	-0.455976
H260	H	1.119709	0.184429	0.044024
H261	H	0.674397	-0.275666	-0.459496
H262	H	1.174397	0.224334	0.040504
H263	H	0.668532	-0.357125	-0.378570
H264	H	1.168532	0.142875	0.121430
H265	H	0.723234	-0.317226	-0.382088
H266	H	1.223234	0.182774	0.117912
C267	C	0.503506	-0.210856	-0.178704
C268	C	1.003506	0.289144	0.321296
C269	C	0.541384	-0.181413	-0.219181
C270	C	1.041384	0.318587	0.280819
H271	H	0.481208	-0.188133	-0.151435
H272	H	0.981208	0.311867	0.348565
H273	H	0.474521	-0.230786	-0.202645
H274	H	0.974521	0.269214	0.297355
H275	H	0.529105	-0.233613	-0.154573
H276	H	1.029105	0.266387	0.345427
H277	H	0.515784	-0.158659	-0.243316
H278	H	1.015784	0.341341	0.256684
H279	H	0.570373	-0.161475	-0.195238
H280	H	1.070373	0.338525	0.304762
C281	C	0.636653	-0.152037	-0.183880
C282	C	1.136653	0.347963	0.316120
C283	C	0.679385	-0.181432	-0.219138
C284	C	1.179385	0.318568	0.280862
H285	H	0.658962	-0.129325	-0.156598
H286	H	1.158962	0.370675	0.343402
H287	H	0.611074	-0.132062	-0.211360
H288	H	1.111074	0.367938	0.288640
H289	H	0.610949	-0.174791	-0.159764
H290	H	1.110949	0.325209	0.340236
H291	H	0.705085	-0.158677	-0.243258
H292	H	1.205085	0.341323	0.256742
H293	H	0.704975	-0.201408	-0.191655
H294	H	1.204975	0.298592	0.308345
H295	H	1.023066	-0.800857	-0.190460
H296	H	1.523066	-0.300857	0.309540
H297	H	0.269172	-0.190906	-0.230734
H298	H	0.769172	0.309094	0.269266
C299	C	0.075898	-0.188426	-0.227806
C300	C	0.575898	0.311574	0.272194
C301	C	0.140543	-0.181360	-0.219309
C302	C	0.640543	0.318640	0.280691
H303	H	0.053595	-0.165718	-0.200523
H304	H	0.553595	0.334282	0.299477
H305	H	0.065175	-0.180802	-0.270110
H306	H	0.565175	0.319198	0.229890
H307	H	0.065081	-0.223551	-0.218538
H308	H	0.565081	0.276449	0.281462
H309	H	0.151360	-0.146236	-0.228581
H310	H	0.651360	0.353764	0.271419
H311	H	0.151270	-0.188980	-0.176995
H312	H	0.651270	0.311020	0.323005
H313	H	0.836726	-1.052142	-0.376587
H314	H	1.336726	-0.552142	0.123413
C315	C	1.029468	-0.478347	-0.183876
C316	C	1.529468	0.021653	0.316124
C317	C	0.994099	-0.442869	-0.219156
C318	C	1.494099	0.057131	0.280844
H319	H	1.056798	-0.459806	-0.156591
H320	H	1.556798	0.040194	0.343409
H321	H	1.002063	-0.499685	-0.159768
H322	H	1.502063	0.000315	0.340232
H323	H	1.053539	-0.499604	-0.211345
H324	H	1.553539	0.000396	0.288655
H325	H	0.970024	-0.421614	-0.191687
H326	H	1.470024	0.078386	0.308313
H327	H	1.021507	-0.421522	-0.243266
H328	H	1.521507	0.078478	0.256734
H329	H	0.982679	-0.549708	-0.230630
H330	H	1.482679	-0.049708	0.269370
H331	H	0.982889	-1.052069	-0.230698
H332	H	1.482889	-0.552069	0.269302
C333	C	1.029689	-0.980696	-0.183940
C334	C	1.529689	-0.480696	0.316060
C335	C	0.994326	-0.945216	-0.219224
C336	C	1.494326	-0.445216	0.280776
H337	H	1.057020	-0.962156	-0.156654
H338	H	1.557020	-0.462156	0.343346
H339	H	1.002280	-1.002031	-0.159832
H340	H	1.502280	-0.502031	0.340168
H341	H	1.053758	-1.001956	-0.211407
H342	H	1.553758	-0.501956	0.288593
H343	H	0.970253	-0.923958	-0.191756
H344	H	1.470253	-0.423958	0.308244
H345	H	1.021738	-0.923872	-0.243334
H346	H	1.521738	-0.423872	0.256666
H347	H	0.796356	-0.800981	-0.416781
H348	H	1.296356	-0.300981	0.083219
C349	C	0.789869	-0.980840	-0.423324
C350	C	1.289869	-0.480840	0.076676
C351	C	0.825207	-0.945318	-0.388037
C352	C	1.325207	-0.445318	0.111963
H353	H	0.762521	-0.962333	-0.450604
H354	H	1.262521	-0.462333	0.049396
H355	H	0.817293	-1.002094	-0.447438
H356	H	1.317293	-0.502094	0.052562
H357	H	0.765819	-1.002177	-0.395858
H358	H	1.265819	-0.502177	0.104142
H359	H	0.849261	-0.923983	-0.415502
H360	H	1.349261	-0.423983	0.084498
H361	H	0.797780	-0.924055	-0.363921
H362	H	1.297780	-0.424055	0.136079
H363	H	0.796325	-0.701931	-0.416773
H364	H	1.296325	-0.201931	0.083227
H365	H	0.836517	-0.549805	-0.376532
H366	H	1.336517	-0.049805	0.123468
H367	H	0.836470	-0.450739	-0.376509
H368	H	1.336470	0.049261	0.123491
H369	H	0.836728	-0.190964	-0.543822
H370	H	1.336728	0.309036	-0.043822
