data_functionalizedCrystal
_audit_creation_method	'MofGen! by Chris Wilmer'
_symmetry_space_group_name_H-M	'P1'
_symmetry_Int_Tables_number	1
_symmetry_cell_setting	triclinic
loop_
_symmetry_equiv_pos_as_xyz
  x,y,z
_cell_length_a	8.559649
_cell_length_b	14.750522
_cell_length_c	8.559649
_cell_angle_alpha	105.643499
_cell_angle_beta	69.778664
_cell_angle_gamma	105.645374
loop_
_atom_site_label
_atom_site_type_symbol
_atom_site_fract_x
_atom_site_fract_y
_atom_site_fract_z
O1	O	2.154443	0.079825	-0.027476
O2	O	1.678958	0.079827	0.056305
O3	O	1.958590	0.079824	-0.223329
O4	O	1.874811	0.079829	0.252158
O5	O	1.903445	-0.079834	-0.278454
O6	O	1.623813	-0.079831	0.001180
O7	O	2.099297	-0.079833	-0.082601
Zn8	Zn	1.852800	-0.105181	-0.049463
Zn9	Zn	1.925456	0.105175	0.023167
O10	O	1.819665	-0.079830	0.197033
C11	C	1.591077	-0.000002	0.035092
C12	C	1.411378	-0.000001	0.053991
N13	N	1.803225	-0.248744	-0.099033
C14	C	2.113358	-0.600518	0.211225
C15	C	2.078661	-0.701022	0.176460
C16	C	1.906076	-0.701009	0.003716
C17	C	1.940752	-0.600503	0.038473
C18	C	2.044396	-0.550266	0.142228
C19	C	1.871790	-0.550251	-0.030524
C20	C	1.906470	-0.449753	0.004223
C21	C	2.010113	-0.399509	0.107969
C22	C	2.079076	-0.449768	0.176975
C23	C	1.768156	-0.600490	-0.134288
C24	C	1.699194	-0.550238	-0.203286
C25	C	1.733864	-0.449738	-0.168529
C26	C	1.837507	-0.399494	-0.064783
C27	C	1.664902	-0.399479	-0.237535
C28	C	1.699582	-0.298982	-0.202787
C29	C	1.872188	-0.298996	-0.030035
C30	C	2.187180	-0.000002	-0.061387
C31	C	2.366881	0.000004	-0.080285
C32	C	1.937367	-0.000004	-0.311200
C33	C	1.956268	0.000000	-0.490898
N34	N	1.975044	0.248738	0.072722
C35	C	1.840889	0.000000	0.284905
C36	C	1.821991	0.000002	0.464604
H37	H	1.312003	0.000010	0.183415
H38	H	2.197735	-0.559612	0.295732
H39	H	2.134826	-0.741934	0.232656
H40	H	1.466269	0.000003	-0.209713
Br41	Br	1.606259	-0.000010	-0.369759
H42	H	2.038352	-0.317677	0.136256
Br43	Br	2.012866	-0.230807	0.110760
Br44	Br	2.219754	-0.381579	0.317771
Br45	Br	1.721110	-0.736881	-0.181469
Br46	Br	1.558541	-0.618426	-0.344093
Br47	Br	1.524269	-0.467670	-0.378360
Br48	Br	1.606038	-0.230775	-0.296473
H49	H	1.821695	-0.741927	-0.080767
H50	H	2.085686	-0.000003	-0.590277
