data_functionalizedCrystal
_audit_creation_method	'MofGen! by Chris Wilmer'
_symmetry_space_group_name_H-M	'P1'
_symmetry_Int_Tables_number	1
_symmetry_cell_setting	triclinic
loop_
_symmetry_equiv_pos_as_xyz
  x,y,z
_cell_length_a	14.560438
_cell_length_b	31.640172
_cell_length_c	14.560438
_cell_angle_alpha	90.003598
_cell_angle_beta	59.995857
_cell_angle_gamma	59.999585
loop_
_atom_site_label
_atom_site_type_symbol
_atom_site_fract_x
_atom_site_fract_y
_atom_site_fract_z
Zr1	Zr	1.005204	0.407185	-0.120473
O2	O	1.196834	0.339696	-0.267153
O3	O	0.813590	0.427874	-0.075499
O4	O	1.005201	0.427874	-0.267116
O5	O	1.005219	0.339696	0.075604
O6	O	1.005182	0.497431	-0.267095
O7	O	1.005222	0.339696	-0.075537
O8	O	0.662424	0.497431	0.075672
O9	O	1.347977	0.339697	-0.267163
O10	O	0.892384	0.488608	-0.056313
O11	O	0.892396	0.436698	0.056466
O12	O	1.117994	0.436699	-0.169138
O13	O	1.118006	0.384789	-0.056358
Zr14	Zr	1.005170	0.518121	0.120612
Zr15	Zr	1.005174	0.518121	-0.120441
Zr16	Zr	1.005200	0.407185	0.120579
Zr17	Zr	1.246261	0.407186	-0.120488
Zr18	Zr	0.764113	0.518120	0.120627
O19	O	1.196784	0.497432	0.075638
O20	O	1.196790	0.497432	-0.267108
O21	O	1.196828	0.339696	0.075592
O22	O	0.813541	0.585610	0.267292
O23	O	0.813547	0.585610	-0.075453
O24	O	0.813584	0.427874	0.267246
O25	O	1.005155	0.585610	-0.075465
O26	O	1.005173	0.497432	0.267254
O27	O	1.005192	0.427875	0.267234
O28	O	1.005152	0.585611	0.075675
O29	O	1.347953	0.427876	-0.267138
O30	O	0.662421	0.497431	0.267276
O31	O	0.662397	0.585610	0.267302
O32	O	0.662400	0.585609	0.075697
O33	O	1.347974	0.339697	-0.075559
O34	O	1.347950	0.427876	-0.075533
O35	O	0.892380	0.488608	0.169276
O36	O	0.892368	0.540517	0.056497
O37	O	1.117978	0.488608	-0.056328
O38	O	1.117990	0.436699	0.056452
C39	C	0.703662	0.462652	0.000089
C40	C	0.601327	0.462652	0.000095
C41	C	0.636553	0.424331	-0.083198
C42	C	0.540413	0.424333	-0.083227
C43	C	0.373822	0.500979	0.083341
C44	C	0.469961	0.500978	0.083365
C45	C	1.005225	0.323890	0.000029
C46	C	1.005238	0.276795	0.000016
C47	C	0.887409	0.011885	0.058985
C48	C	0.887386	-0.165100	0.059007
O49	O	0.787230	-0.164942	0.109135
N50	N	1.005151	-0.214326	0.000113
C51	C	1.122931	-0.219305	-0.058786
O52	O	1.223097	-0.265235	-0.108869
C53	C	1.122952	-0.042320	-0.058800
C54	C	1.005179	0.006905	0.000089
C55	C	0.769645	0.061108	0.117871
C56	C	0.769652	0.105351	0.117859
C57	C	0.887422	0.100371	0.058963
C58	C	1.005186	0.051148	0.000078
C59	C	1.240730	-0.047299	-0.117692
C60	C	1.240725	-0.003048	-0.117688
C61	C	1.122952	0.046177	-0.058799
C62	C	1.122963	0.090412	-0.058830
N63	N	1.005197	0.139638	0.000064
C64	C	0.887427	0.144617	0.058961
C65	C	1.122911	-0.312222	-0.058775
C66	C	1.122906	-0.356468	-0.058773
C67	C	0.887361	-0.302261	0.059022
C68	C	0.887368	-0.258014	0.059012
C69	C	1.005146	-0.262997	0.000119
C70	C	0.887450	0.237530	0.058932
C71	C	0.887468	0.281774	0.058912
C72	C	1.123012	0.227563	-0.058878
C73	C	1.122996	0.183322	-0.058863
C74	C	1.005204	0.188309	0.000051
O75	O	1.223067	0.090293	-0.108921
O76	O	0.787276	0.190552	0.109057
C77	C	0.887402	-0.032359	0.058996
C78	C	1.005165	-0.081582	0.000111
C79	C	1.122935	-0.086561	-0.058786
C80	C	1.005160	-0.125828	0.000113
C81	C	0.887390	-0.120848	0.059009
C82	C	0.769625	-0.071622	0.117904
C83	C	0.769632	-0.027379	0.117893
C84	C	1.240701	-0.135787	-0.117680
C85	C	1.240684	-0.180028	-0.117665
C86	C	1.122914	-0.175048	-0.058769
C87	C	1.306713	0.462654	0.000050
C88	C	1.409048	0.462654	0.000043
C89	C	1.005192	0.462653	-0.301450
C90	C	1.005194	0.462653	-0.403783
C91	C	1.005149	0.601416	0.000110
C92	C	1.005136	0.648511	0.000123
C93	C	1.005185	0.500972	-0.451848
C94	C	1.005173	0.500974	-0.547994
C95	C	1.005185	0.424332	-0.548005
C96	C	1.005188	0.424333	-0.451856
C97	C	1.005182	0.462653	0.301589
C98	C	1.005180	0.462653	0.403922
C99	C	0.703624	0.601415	0.000129
C100	C	0.601276	0.648510	0.000149
C101	C	0.703656	0.462652	0.301608
C102	C	0.601319	0.462652	0.403948
C103	C	0.703618	0.601416	0.301649
C104	C	0.601269	0.648510	0.404002
C105	C	1.306756	0.323891	-0.301510
C106	C	1.409106	0.276796	-0.403863
C107	C	1.306751	0.323891	0.000010
C108	C	1.409098	0.276796	-0.000010
C109	C	1.306718	0.462654	-0.301470
C110	C	1.409055	0.462654	-0.403809
C111	C	0.553220	0.643530	-0.058737
C112	C	0.457067	0.687776	-0.058741
C113	C	0.408964	0.737002	0.000149
C114	C	0.457029	0.741981	0.059037
C115	C	0.553187	0.697735	0.059034
C116	C	0.553198	0.697727	0.393198
C117	C	0.457043	0.741982	0.489361
C118	C	0.408954	0.737019	0.596326
C119	C	0.457034	0.687796	0.607127
C120	C	0.553194	0.643543	0.510966
C121	C	1.457188	0.227579	-0.393059
C122	C	1.553373	0.183324	-0.489222
C123	C	1.601467	0.188288	-0.596187
C124	C	1.553381	0.237510	-0.606988
C125	C	1.457204	0.281763	-0.510827
C126	C	1.457164	0.281776	0.058866
C127	C	1.553344	0.237530	0.058843
C128	C	1.601450	0.188304	-0.000051
C129	C	1.553381	0.183325	-0.058934
C130	C	1.457209	0.227571	-0.058917
C131	C	0.553231	0.489748	0.510913
C132	C	0.457084	0.489742	0.607068
C133	C	0.457118	0.435543	0.489279
C134	C	0.553270	0.435547	0.393127
H135	H	0.791559	0.321856	0.106870
H136	H	1.592465	0.241594	0.106797
H137	H	1.592551	0.241545	-0.694091
O138	O	0.232134	0.542311	0.173152
H139	H	0.210653	0.580946	0.169064
H140	H	1.336636	-0.007110	-0.165632
O141	O	1.705215	0.140552	-0.699896
H142	H	1.668319	0.117184	-0.699834
H143	H	0.592301	0.701798	0.106992
O144	O	0.405231	0.682401	-0.122253
H145	H	0.361415	0.660921	-0.088209
O146	O	0.605070	0.703087	0.277834
H147	H	0.555491	0.744749	0.286496
O148	O	1.405338	0.222213	-0.277701
H149	H	1.299269	0.241066	-0.231069
O150	O	0.305240	0.784723	0.000160
H151	H	0.279903	0.772985	-0.050675
O152	O	1.005200	0.382999	-0.599870
H153	H	1.093260	0.344365	-0.625446
H154	H	0.417905	0.782057	0.480546
O155	O	0.405135	0.795078	0.122549
H156	H	0.454705	0.791114	0.163495
O157	O	1.005164	0.542303	-0.599840
H158	H	1.093212	0.523873	-0.687688
O159	O	0.305223	0.784751	0.700041
H160	H	0.279871	0.819807	0.674546
H161	H	0.791534	0.241597	0.106906
H162	H	1.418056	0.321837	-0.519637
O163	O	1.705142	0.140583	-0.000029
H164	H	1.730455	0.152321	0.050830
O165	O	0.405145	0.682445	0.722499
H166	H	0.330189	0.721489	0.787541
O167	O	0.605005	0.590460	0.522635
H168	H	0.648794	0.585960	0.569335
O169	O	1.605205	0.130238	-0.477560
H170	H	1.555575	0.134226	-0.387024
O171	O	1.005204	0.383000	-0.400006
H172	H	1.005221	0.356348	-0.449596
H173	H	1.418003	0.321855	0.106831
H174	H	0.592385	0.603452	-0.106706
H175	H	1.418077	0.223509	-0.106858
O176	O	1.605272	0.130230	-0.122454
H177	H	1.680210	0.100305	-0.112557
O178	O	1.249938	-0.409557	-0.122310
H179	H	1.230163	-0.439492	-0.112431
O180	O	0.605067	0.518978	0.522576
H181	H	0.555479	0.537814	0.613113
O182	O	0.431979	0.542312	0.173202
H183	H	0.373586	0.540428	0.257157
O184	O	0.405198	0.518973	0.722440
H185	H	0.454757	0.537825	0.713804
H186	H	0.592427	0.413480	0.306025
O187	O	0.405291	0.406312	0.477600
H188	H	0.361502	0.421971	0.430904
H189	H	0.743513	0.393120	-0.150995
H190	H	0.673749	0.145429	0.165808
H191	H	1.218826	-0.316287	-0.106741
H192	H	0.673737	0.065171	0.165837
O193	O	0.578402	0.383001	-0.173061
H194	H	0.685899	0.356350	-0.230950
H195	H	0.791466	-0.217936	0.106975
O196	O	0.760332	-0.296892	0.122557
H197	H	0.780127	-0.335931	0.112666
H198	H	1.336633	-0.087374	-0.165644
O199	O	0.642605	0.025712	0.181414
H200	H	0.560723	0.021732	0.222372
H201	H	1.336597	-0.220108	-0.165631
O202	O	1.250016	0.130226	-0.122379
H203	H	1.331909	0.134199	-0.163331
O204	O	1.249991	0.222230	-0.122485
H205	H	1.255678	0.241104	-0.063104
O206	O	0.642596	-0.066254	0.181432
H207	H	0.662392	-0.105293	0.171545
H208	H	1.336606	-0.139850	-0.165644
H209	H	1.005187	0.532175	-0.412708
