data_functionalizedCrystal
_audit_creation_method	'MofGen! by Chris Wilmer'
_symmetry_space_group_name_H-M	'P1'
_symmetry_Int_Tables_number	1
_symmetry_cell_setting	triclinic
loop_
_symmetry_equiv_pos_as_xyz
  x,y,z
_cell_length_a	14.560432
_cell_length_b	23.196402
_cell_length_c	23.196402
_cell_angle_alpha	60.004943
_cell_angle_beta	59.999859
_cell_angle_gamma	90.005927
loop_
_atom_site_label
_atom_site_type_symbol
_atom_site_fract_x
_atom_site_fract_y
_atom_site_fract_z
Zr1	Zr	0.884718	-0.075641	0.631033
O2	O	0.738056	-0.167689	0.751299
O3	O	0.929681	-0.047425	0.510765
O4	O	0.929661	-0.167691	0.631032
O5	O	0.738089	0.047447	0.631033
O6	O	1.080798	-0.167692	0.631035
O7	O	0.738076	-0.047423	0.631031
O8	O	1.080834	0.047442	0.415898
O9	O	0.738053	-0.167687	0.846169
O10	O	1.061646	-0.035390	0.560236
O11	O	0.948863	0.035411	0.560235
O12	O	0.948839	-0.106187	0.701835
O13	O	0.836056	-0.035387	0.701834
Zr14	Zr	1.125786	0.075665	0.631039
Zr15	Zr	1.125765	-0.075641	0.631037
Zr16	Zr	0.884739	0.075665	0.631035
Zr17	Zr	0.884713	-0.075638	0.782341
Zr18	Zr	1.125791	0.075662	0.479732
O19	O	1.080823	0.047449	0.751308
O20	O	1.080794	-0.167689	0.751304
O21	O	0.738085	0.047450	0.751302
O22	O	1.272448	0.167713	0.510774
O23	O	1.272419	-0.047426	0.510770
O24	O	0.929710	0.167713	0.510768
O25	O	1.272415	-0.047423	0.631040
O26	O	1.080843	0.167715	0.631040
O27	O	0.929706	0.167716	0.631038
O28	O	1.272427	0.047447	0.631041
O29	O	0.929654	-0.167687	0.846172
O30	O	1.080850	0.167711	0.415900
O31	O	1.272451	0.167711	0.415903
O32	O	1.272435	0.047442	0.415901
O33	O	0.738069	-0.047418	0.846171
O34	O	0.929670	-0.047418	0.846174
O35	O	1.061665	0.106211	0.560238
O36	O	1.174448	0.035410	0.560239
O37	O	1.061641	-0.035387	0.701837
O38	O	0.948858	0.035414	0.701837
C39	C	0.703739	0.000012	0.631031
C40	C	0.601408	0.000012	0.631030
C41	C	1.005258	0.000008	0.441773
C42	C	1.005260	0.000007	0.377539
C43	C	1.005278	0.189273	0.631039
C44	C	1.005286	0.253507	0.631040
C45	C	0.719162	0.073919	0.483199
C46	C	0.729962	0.110868	0.409286
C47	C	0.633810	0.110866	0.409290
C48	C	0.526848	0.073913	0.483214
C49	C	0.516048	0.036963	0.557127
C50	C	0.612209	0.036967	0.557115
C51	C	0.398296	-0.036938	0.704956
C52	C	0.494447	-0.036941	0.704954
C53	C	0.291335	-0.073892	0.778880
C54	C	0.280533	-0.110847	0.852794
C55	C	0.376694	-0.110844	0.852788
C56	C	0.483647	-0.073891	0.778867
C57	C	1.306765	0.000012	0.631041
C58	C	1.409096	0.000011	0.631043
C59	C	1.005226	-0.189250	0.631033
C60	C	1.005218	-0.253483	0.631032
C61	C	0.946407	0.246727	0.704951
C62	C	0.946391	0.307081	0.704952
C63	C	1.005275	0.374215	0.631038
C64	C	1.064157	0.380993	0.557117
C65	C	1.064162	0.320639	0.557118
C66	C	1.103893	0.498151	0.574411
C67	C	1.103890	0.558503	0.574413
C68	C	1.005256	0.560369	0.631032
C69	C	0.906625	0.501870	0.687663
C70	C	0.906631	0.441516	0.687664
C71	C	1.005275	0.439663	0.631029
C72	C	0.946354	0.619029	0.704949
C73	C	0.946334	0.679386	0.704947
C74	C	1.064111	0.753298	0.557110
C75	C	1.064120	0.692942	0.557114
C76	C	1.005244	0.625810	0.631036
C77	C	1.064126	-0.036933	-0.085303
C78	C	1.064123	-0.036939	-0.024945
C79	C	1.005253	0.000018	0.005237
C80	C	0.946358	0.036970	-0.024930
C81	C	0.946353	0.036969	-0.085282
C82	C	1.013674	0.061922	0.067265
C83	C	1.013686	0.061925	0.127613
C84	C	1.005261	0.000019	0.191385
C85	C	0.996846	-0.061890	0.194796
C86	C	0.996841	-0.061890	0.134444
C87	C	1.005251	0.000022	0.070679
C88	C	1.064143	-0.036942	0.286997
C89	C	1.064132	-0.036950	0.347361
C90	C	0.946375	0.036966	0.347368
C91	C	0.946378	0.036967	0.287012
C92	C	1.005269	0.000015	0.256827
C93	C	1.005246	0.000016	0.820299
C94	C	1.005244	0.000017	0.884533
C95	C	1.306771	0.000008	0.441778
C96	C	1.409104	0.000006	0.377546
C97	C	1.005284	0.189269	0.441776
C98	C	1.005294	0.253502	0.377543
C99	C	1.306797	0.189269	0.441781
C100	C	1.409138	0.253501	0.377550
C101	C	0.703707	-0.189245	0.820291
C102	C	0.601366	-0.253477	0.884523
C103	C	0.703733	0.000016	0.820294
C104	C	0.601400	0.000018	0.884527
C105	C	1.005220	-0.189246	0.820296
C106	C	1.005210	-0.253478	0.884529
C107	C	1.398279	-0.036958	0.347380
C108	C	1.494423	-0.036973	0.287035
C109	C	1.601390	-0.000020	0.256853
C110	C	1.612213	0.036945	0.287025
C111	C	1.516070	0.036956	0.347373
C112	C	1.064181	0.320629	0.347380
C113	C	1.064187	0.380988	0.287035
C114	C	1.005312	0.374218	0.256849
C115	C	0.946418	0.307083	0.287018
C116	C	0.946407	0.246726	0.347367
C117	C	1.516081	0.246708	0.347386
C118	C	1.612251	0.307055	0.287043
C119	C	1.601476	0.374195	0.256859
C120	C	1.494522	0.380986	0.287028
C121	C	1.398355	0.320640	0.347375
C122	C	0.494423	-0.246684	0.914693
C123	C	0.398253	-0.307031	0.975056
C124	C	0.409028	-0.374171	1.005243
C125	C	0.515982	-0.380963	0.975069
C126	C	0.612149	-0.320616	0.914712
C127	C	0.612225	0.036975	0.914699
C128	C	0.516081	0.036974	0.975060
C129	C	0.409114	0.000019	1.005244
C130	C	0.398291	-0.036943	0.975070
C131	C	0.494434	-0.036946	0.914714
C132	C	1.064096	-0.246685	0.914696
C133	C	1.064108	-0.307032	0.975041
C134	C	1.005226	-0.374172	1.005224
C135	C	0.946338	-0.380963	0.975052
C136	C	0.946333	-0.320617	0.914703
H137	H	0.797460	0.073918	0.483189
H138	H	1.005239	-0.423304	1.054364
H139	H	1.524900	0.067060	0.371926
H140	H	0.699224	-0.326156	0.890148
H141	H	1.485766	0.435660	0.262444
H142	H	0.898458	0.192070	0.371918
H143	H	1.311281	0.326181	0.371926
H144	H	0.485629	-0.192021	0.890119
H145	H	1.679666	-0.000034	0.207713
H146	H	0.989987	-0.112298	0.137225
H147	H	1.699328	0.301513	0.262485
H148	H	0.898398	-0.435636	0.999636
H149	H	1.699318	0.067030	0.262442
H150	H	0.642608	0.140957	0.349103
H151	H	0.898381	0.673859	0.765137
H152	H	0.826308	0.503385	0.733768
H153	H	1.112124	0.326155	0.371950
H154	H	0.898376	-0.326157	0.890148
H155	H	1.485589	-0.067075	0.262477
H156	H	0.311177	-0.301488	0.999613
H157	H	0.826322	0.393888	0.733773
H158	H	0.524741	-0.435635	0.999655
H159	H	1.112073	-0.067029	-0.000381
H160	H	0.898440	0.301560	0.765141
H161	H	1.112149	0.435646	0.262478
H162	H	0.311186	-0.067031	0.999655
H163	H	1.112049	0.807959	0.496928
H164	H	0.330713	-0.423303	1.054389
H165	H	1.112044	-0.192022	0.890130
H166	H	0.817059	0.140957	0.349099
H167	H	1.005331	0.423370	0.207710
H168	H	1.112059	-0.301489	0.999601
H169	H	0.898484	0.301581	0.262432
H170	H	0.699314	0.067073	0.890127
H171	H	1.524875	0.192045	0.371953
H172	H	0.485604	-0.067039	0.890149
H173	H	1.679791	0.423327	0.207721
H174	H	1.311190	-0.067058	0.371954
H175	H	0.448561	0.073922	0.483210
H176	H	0.524915	0.067076	0.999618
H177	H	1.112071	0.698466	0.496928
H178	H	0.330838	0.000027	1.054390
H179	H	0.898424	0.067059	-0.000351
H180	H	0.193443	-0.140928	0.912977
H181	H	0.213047	-0.073887	0.778877
H182	H	0.561947	-0.073887	0.778854
H183	H	0.367888	-0.140924	0.912977
H184	H	0.898463	0.192069	0.765144
H185	H	0.898408	0.564367	0.765140
H186	H	1.184203	0.606128	0.528304
H187	H	1.112098	0.435658	0.496936
H188	H	1.184216	0.496644	0.528296
H189	H	1.112109	0.326165	0.496929
H190	H	1.112074	-0.067023	-0.109876
H191	H	0.898436	0.067060	0.262449
H192	H	0.989983	-0.112300	0.246722
H193	H	1.112091	-0.067033	0.262423
H194	H	1.112076	-0.067043	0.371924
H195	H	0.898436	0.067053	0.371945
H196	H	1.020549	0.112336	0.124825
H197	H	1.020529	0.112337	0.015343
H198	H	0.898403	0.067059	-0.109841
