data_functionalizedCrystal
_audit_creation_method	'MofGen! by Chris Wilmer'
_symmetry_space_group_name_H-M	'P1'
_symmetry_Int_Tables_number	1
_symmetry_cell_setting	triclinic
loop_
_symmetry_equiv_pos_as_xyz
  x,y,z
_cell_length_a	15.995350
_cell_length_b	16.992695
_cell_length_c	15.455438
_cell_angle_alpha	92.856553
_cell_angle_beta	87.331181
_cell_angle_gamma	87.080299
loop_
_atom_site_label
_atom_site_type_symbol
_atom_site_fract_x
_atom_site_fract_y
_atom_site_fract_z
O1	O	-1.114320	-0.104494	-0.072057
O2	O	-0.614320	0.395506	0.427943
O3	O	-0.871379	-0.116975	-0.072075
O4	O	-0.371379	0.383025	0.427925
O5	O	-0.991876	0.003409	-0.072059
O6	O	-0.491876	0.503409	0.427941
O7	O	-0.993823	-0.224877	-0.072073
O8	O	-0.493823	0.275123	0.427927
O9	O	-0.998728	0.010269	0.072201
O10	O	-0.498728	0.510269	0.572201
O11	O	-0.878231	-0.110115	0.072185
O12	O	-0.378231	0.389885	0.572185
O13	O	-1.121172	-0.097633	0.072203
O14	O	-0.621172	0.402367	0.572203
Cu15	Cu	-1.000327	-0.103248	0.085366
Cu16	Cu	-0.500327	0.396752	0.585366
Cu17	Cu	-0.992224	-0.111361	-0.085238
Cu18	Cu	-0.492224	0.388639	0.414762
O19	O	-1.000675	-0.218017	0.072187
O20	O	-0.500675	0.281983	0.572187
C21	C	-0.843576	-0.113029	0.000053
C22	C	-0.343576	0.386971	0.500053
C23	C	-0.750522	-0.111482	0.000046
C24	C	-0.250522	0.388518	0.500046
C25	C	-0.992796	0.036051	0.000071
C26	C	-0.492796	0.536051	0.500071
C27	C	-0.985320	0.123095	0.000070
C28	C	-0.485320	0.623095	0.500070
C29	C	-1.148975	-0.101579	0.000073
C30	C	-0.648975	0.398421	0.500073
C31	C	-1.242029	-0.103126	0.000074
C32	C	-0.742029	0.396874	0.500074
C33	C	-0.412403	-0.105926	0.000065
C34	C	0.087597	0.394074	0.500065
C35	C	-0.454116	-0.020176	0.000391
C36	C	0.045884	0.479824	0.500391
C37	C	-0.550894	-0.021739	0.000060
C38	C	-0.050894	0.478261	0.500060
C39	C	-0.580148	-0.108682	0.000056
C40	C	-0.080148	0.391318	0.500056
C41	C	-0.537977	-0.154887	-0.082323
C42	C	-0.037977	0.345113	0.417677
C43	C	-0.441194	-0.152736	-0.082386
C44	C	0.058806	0.347264	0.417614
C45	C	-0.448766	-0.146706	0.081665
C46	C	0.051234	0.353294	0.581665
C47	C	-0.545762	-0.146634	0.082748
C48	C	-0.045762	0.353366	0.582748
C49	C	-0.674949	-0.110245	0.000048
C50	C	-0.174949	0.389755	0.500048
C51	C	-0.317601	-0.104367	0.000066
C52	C	0.182399	0.395633	0.500066
C53	C	-0.999755	-0.250660	0.000056
C54	C	-0.499755	0.249340	0.500056
C55	C	-1.007231	-0.337704	0.000051
C56	C	-0.507231	0.162296	0.500051
N57	N	-1.006033	-0.097541	0.205360
N58	N	-0.506033	0.402459	0.705360
C59	C	-1.057456	0.173336	0.000076
C60	C	-0.557456	0.673336	0.500076
C61	C	-1.050426	0.255122	0.000067
C62	C	-0.550426	0.755122	0.500067
C63	C	-0.971259	0.286667	0.000058
C64	C	-0.471259	0.786667	0.500058
C65	C	-0.899118	0.236419	0.000050
C66	C	-0.399118	0.736419	0.500050
C67	C	-0.906149	0.154634	0.000052
C68	C	-0.406149	0.654634	0.500052
C69	C	-0.942120	0.530264	0.000044
C70	C	-0.442120	1.030264	0.500044
C71	C	-0.935095	0.612055	0.000044
C72	C	-0.435095	1.112055	0.500044
C73	C	-1.086403	0.630753	0.000060
C74	C	-0.586403	1.130753	0.500060
C75	C	-1.093427	0.548966	0.000068
C76	C	-0.593427	1.048966	0.500068
C77	C	-1.021286	0.498725	0.000055
C78	C	-0.521286	0.998725	0.500055
N79	N	-0.964072	0.370265	0.000052
N80	N	-0.464072	0.870265	0.500052
N81	N	-1.028474	0.415128	0.000055
N82	N	-0.528474	0.915128	0.500055
N83	N	-0.986525	-0.117061	-0.205232
N84	N	-0.486525	0.382939	0.294768
C85	C	-0.954830	-0.148664	0.250769
C86	C	-0.454830	0.351336	0.750769
C87	C	-0.959169	-0.144346	0.341576
C88	C	-0.459169	0.355654	0.841576
C89	C	-1.014707	-0.088899	0.386972
C90	C	-0.514707	0.411101	0.886972
C91	C	-1.065915	-0.037773	0.341557
C92	C	-0.565915	0.462227	0.841557
C93	C	-1.061580	-0.042096	0.250752
C94	C	-0.561580	0.457904	0.750752
C95	C	-1.033398	-0.070259	0.658548
C96	C	-0.533398	0.429741	1.158548
C97	C	-1.037727	-0.065938	0.749359
C98	C	-0.537727	0.434062	1.249359
C99	C	-0.930982	-0.172512	0.749372
C100	C	-0.430982	0.327488	1.249372
C101	C	-0.926648	-0.176827	0.658565
C102	C	-0.426648	0.323173	1.158565
C103	C	-0.977860	-0.125704	0.613158
C104	C	-0.477860	0.374296	1.113158
N105	N	-1.019141	-0.084481	0.479791
N106	N	-0.519141	0.415519	0.979791
N107	N	-0.973429	-0.130126	0.520341
N108	N	-0.473429	0.369874	1.020341
H109	H	-0.579904	0.014309	0.059113
H110	H	-0.079904	0.514309	0.559113
H111	H	-1.103276	-0.000467	0.213781
H112	H	-0.603276	0.499533	0.713781
C113	C	-1.089725	-0.014014	0.608612
C114	C	-0.589725	0.485986	1.108612
N115	N	-1.132151	0.028354	0.570997
N116	N	-0.632151	0.528354	1.070997
C117	C	-0.826794	0.099369	0.000047
C118	C	-0.326794	0.599369	0.500047
N119	N	-0.767021	0.057744	0.000042
N120	N	-0.267021	0.557744	0.500042
H121	H	-0.573908	-0.112867	0.143691
H122	H	-0.073908	0.387133	0.643691
C123	C	-1.144545	0.138646	0.000086
C124	C	-0.644545	0.638646	0.500086
N125	N	-1.210144	0.112520	0.000089
N126	N	-0.710144	0.612520	0.500089
C127	C	-0.569713	-0.119143	-0.165145
C128	C	-0.069713	0.380857	0.334855
N129	N	-0.593615	-0.092216	-0.227524
N130	N	-0.093615	0.407784	0.272476
H131	H	-1.109166	0.296026	0.000074
H132	H	-0.609166	0.796026	0.500074
H133	H	-0.889289	-0.214135	0.786351
H134	H	-0.389289	0.285865	1.286351
C135	C	-1.180516	0.514274	0.000079
C136	C	-0.680516	1.014274	0.500079
N137	N	-1.246113	0.488144	0.000090
N138	N	-0.746113	0.988144	0.500090
C139	C	-1.165753	0.686022	0.000067
C140	C	-0.665753	1.186022	0.500067
N141	N	-1.225522	0.727652	0.000068
N142	N	-0.725522	1.227652	0.500068
H143	H	-1.111139	0.007371	0.378523
H144	H	-0.611139	0.507371	0.878523
H145	H	-0.883377	0.489367	0.000034
H146	H	-0.383377	0.989367	0.500034
H147	H	-0.565606	-0.209799	0.087720
H148	H	-0.065606	0.290201	0.587720
H149	H	-0.870626	0.637735	0.000051
H150	H	-0.370626	1.137735	0.500051
H151	H	-0.834659	0.262109	0.000037
H152	H	-0.334659	0.762109	0.500037
C153	C	-0.420781	0.022142	-0.078963
C154	C	0.079219	0.522142	0.421037
N155	N	-0.395669	0.054015	-0.138733
N156	N	0.104331	0.554015	0.361267
C157	C	-0.865680	-0.237934	0.608636
C158	C	-0.365680	0.262066	1.108636
N159	N	-0.819801	-0.284000	0.571030
N160	N	-0.319801	0.216000	1.071030
H161	H	-0.556231	-0.218908	-0.085389
H162	H	-0.056231	0.281092	0.414611
C163	C	-0.893746	-0.209671	0.200841
C164	C	-0.393746	0.290329	0.700841
N165	N	-0.847742	-0.255629	0.163238
N166	N	-0.347742	0.244371	0.663238
C167	C	-0.902837	-0.200582	0.391521
C168	C	-0.402837	0.299418	0.891521
N169	N	-0.860404	-0.242941	0.429139
N170	N	-0.360404	0.257059	0.929139
H171	H	-0.436107	0.016903	0.059469
H172	H	0.063893	0.516903	0.559469
C173	C	-0.581711	0.019666	-0.079854
C174	C	-0.081711	0.519666	0.420146
N175	N	-0.604922	0.050854	-0.140050
N176	N	-0.104922	0.550854	0.359950
H177	H	-1.082955	-0.020783	0.786317
H178	H	-0.582955	0.479217	1.286317
H179	H	-0.417898	-0.124827	-0.143963
H180	H	0.082102	0.375173	0.356037
H181	H	-0.412980	-0.215859	-0.086127
H182	H	0.087020	0.284141	0.413873
C183	C	-0.422505	-0.104823	0.166021
C184	C	0.077495	0.395177	0.666021
N185	N	-0.402727	-0.073268	0.229553
N186	N	0.097273	0.426732	0.729553
H187	H	-0.421261	-0.209891	0.082219
H188	H	0.078739	0.290109	0.582219
