data_functionalizedCrystal
_audit_creation_method	'MofGen! by Chris Wilmer'
_symmetry_space_group_name_H-M	'P1'
_symmetry_Int_Tables_number	1
_symmetry_cell_setting	triclinic
loop_
_symmetry_equiv_pos_as_xyz
  x,y,z
_cell_length_a	8.597340
_cell_length_b	8.634740
_cell_length_c	15.455313
_cell_angle_alpha	93.083765
_cell_angle_beta	94.965168
_cell_angle_gamma	92.880176
loop_
_atom_site_label
_atom_site_type_symbol
_atom_site_fract_x
_atom_site_fract_y
_atom_site_fract_z
O1	O	2.110314	0.238577	0.085590
O2	O	1.658812	0.253161	0.051845
O3	O	1.863190	0.020922	0.067122
O4	O	1.905935	0.470816	0.070314
O5	O	1.851494	0.034146	0.210510
O6	O	1.647116	0.266385	0.195233
O7	O	2.098618	0.251802	0.228978
Cu8	Cu	1.871799	0.260301	0.225198
Cu9	Cu	1.885631	0.244662	0.055625
O10	O	1.894240	0.484041	0.213702
C11	C	1.594561	0.257470	0.119174
C12	C	1.420538	0.250589	0.106168
C13	C	1.847659	-0.030130	0.138091
C14	C	1.818787	-0.201951	0.135928
C15	C	2.162869	0.247492	0.161647
C16	C	2.336893	0.254373	0.174648
C17	C	1.909771	0.535092	0.142731
C18	C	1.938643	0.706913	0.144887
N19	N	1.862082	0.271300	0.344467
N20	N	1.895358	0.233650	-0.063643
C21	C	1.948950	0.172675	0.396354
C22	C	1.941618	0.181008	0.486614
C23	C	1.847426	0.287975	0.524986
C24	C	1.760547	0.386604	0.473092
C25	C	1.767872	0.378263	0.382833
C26	C	1.815804	0.323938	0.794204
C27	C	1.808490	0.332276	0.884470
C28	C	1.989560	0.126676	0.897986
C29	C	1.996883	0.118350	0.807725
C30	C	1.909998	0.216974	0.755839
N31	N	1.839933	0.296498	0.617246
N32	N	1.917484	0.208442	0.663579
H33	H	1.359009	0.242082	0.037580
H34	H	1.745063	0.404245	0.751965
C35	C	2.038901	-0.136517	0.929632
C36	C	2.085037	0.018255	0.955021
H37	H	2.097850	-0.203457	0.964841
H38	H	1.930840	-0.154292	0.936454
H39	H	2.056753	-0.156771	0.870386
H40	H	2.067175	0.038512	1.014266
H41	H	2.193124	0.036037	0.948207
H42	H	2.025659	0.085578	0.365120
H43	H	2.012352	0.100698	0.528861
C44	C	1.308190	0.267979	0.327982
C45	C	1.419931	0.265843	0.267237
H46	H	1.359465	0.275050	0.385142
H47	H	1.246296	0.355063	0.320129
H48	H	1.243045	0.175257	0.319877
H49	H	1.485070	0.358572	0.275337
H50	H	1.481852	0.178752	0.275093
C51	C	2.137023	-0.135858	0.085552
C52	C	2.107001	-0.220972	0.157468
H53	H	2.240955	-0.091330	0.093323
H54	H	2.124797	-0.202834	0.034342
H55	H	2.065690	-0.055667	0.080228
H56	H	2.178326	-0.301171	0.162789
H57	H	2.119242	-0.153991	0.208692
C58	C	2.006343	-0.101463	0.706833
C59	C	2.099901	0.000040	0.765744
H60	H	2.069798	-0.174708	0.680971
H61	H	1.929742	-0.154562	0.736706
H62	H	1.956060	-0.043953	0.662859
H63	H	2.150175	-0.057469	0.809722
H64	H	2.176530	0.053143	0.735870
C65	C	1.566343	-0.219066	0.191217
C66	C	1.650435	-0.274051	0.123345
H67	H	1.462405	-0.263579	0.183443
H68	H	1.615245	-0.247141	0.245170
H69	H	1.564327	-0.109186	0.191057
H70	H	1.652461	-0.383931	0.123509
H71	H	1.601520	-0.245987	0.069378
H72	H	1.683845	0.473694	0.504338
H73	H	1.731784	0.419388	0.915706
C74	C	1.588175	0.582340	0.378534
C75	C	1.672392	0.486683	0.325795
H76	H	1.529234	0.649278	0.343320
H77	H	1.519413	0.519919	0.408822
H78	H	1.658773	0.642716	0.419217
H79	H	1.601794	0.426298	0.285116
H80	H	1.741161	0.549110	0.295492
