data_functionalizedCrystal
_audit_creation_method	'MofGen! by Chris Wilmer'
_symmetry_space_group_name_H-M	'P1'
_symmetry_Int_Tables_number	1
_symmetry_cell_setting	triclinic
loop_
_symmetry_equiv_pos_as_xyz
  x,y,z
_cell_length_a	10.654541
_cell_length_b	14.044220
_cell_length_c	9.130307
_cell_angle_alpha	89.995545
_cell_angle_beta	89.999822
_cell_angle_gamma	88.836403
loop_
_atom_site_label
_atom_site_type_symbol
_atom_site_fract_x
_atom_site_fract_y
_atom_site_fract_z
O1	O	1.681226	0.133219	-0.121759
O2	O	1.317023	0.145915	-0.121772
O3	O	1.493658	0.001547	-0.121751
O4	O	1.504591	0.277588	-0.121780
O5	O	1.493651	0.001545	0.121848
O6	O	1.317016	0.145914	0.121827
O7	O	1.681220	0.133218	0.121840
Cu8	Cu	1.499117	0.139565	0.144076
Cu9	Cu	1.499125	0.139567	-0.144008
O10	O	1.504585	0.277586	0.121819
C11	C	1.270128	0.144983	0.000026
C12	C	1.130404	0.142195	0.000021
C13	C	1.488869	-0.033800	0.000049
C14	C	1.474593	-0.139120	0.000050
C15	C	1.119781	0.314827	-0.000015
C16	C	1.048829	0.399829	-0.000039
C17	C	0.917547	0.397204	-0.000040
C18	C	0.857215	0.309567	-0.000013
C19	C	0.928167	0.224565	0.000011
C20	C	1.059452	0.227199	0.000008
C21	C	0.938790	0.051935	0.000058
C22	C	1.070072	0.054558	0.000049
C23	C	0.878458	-0.035701	0.000085
C24	C	0.949411	-0.120706	0.000098
C25	C	1.080701	-0.118077	0.000098
C26	C	1.141025	-0.030444	0.000072
C27	C	1.448494	-0.331952	0.000028
C28	C	1.549742	-0.388921	0.000027
C29	C	1.535221	-0.496219	0.000015
C30	C	1.463014	-0.224644	0.000040
C31	C	1.728114	0.134150	0.000039
C32	C	1.867838	0.136938	0.000034
C33	C	1.509374	0.312933	0.000016
C34	C	1.523649	0.418252	0.000005
N35	N	1.499121	0.139564	0.346699
N36	N	1.499130	0.139561	-0.346631
C37	C	1.655605	0.011763	0.346707
C38	C	1.733855	-0.052134	0.423378
C39	C	1.733868	-0.052135	0.576712
C40	C	1.655619	0.011767	0.653378
C41	C	1.577368	0.075664	0.576707
C42	C	1.577367	0.075660	0.423370
C43	C	1.420880	0.203459	0.576698
C44	C	1.420872	0.203466	0.423365
C45	C	1.342631	0.267361	0.653364
C46	C	1.264385	0.331265	0.576693
C47	C	1.264377	0.331263	0.423351
C48	C	1.342621	0.267363	0.346694
H49	H	1.226677	0.316973	-0.000046
C50	C	1.251383	-0.344663	0.125254
C51	C	1.316757	-0.374885	0.000026
H52	H	1.170053	-0.371172	0.125248
H53	H	1.295750	-0.365176	0.210182
H54	H	1.243994	-0.277142	0.125244
H55	H	1.324155	-0.442406	0.000042
H56	H	1.272380	-0.354378	-0.084924
C57	C	0.711578	0.469818	-0.000056
C58	C	0.839547	0.490637	-0.000063
H59	H	0.663427	0.527501	-0.000061
H60	H	0.692258	0.433923	-0.084991
H61	H	0.692261	0.433924	0.084906
H62	H	0.858866	0.526526	-0.085031
H63	H	0.858874	0.526547	0.084881
H64	H	0.900278	-0.192053	0.000119
C65	C	0.693299	-0.086476	-0.125130
C66	C	0.734152	-0.038592	0.000081
H67	H	0.604210	-0.088266	-0.125129
H68	H	0.721037	-0.054005	-0.210070
H69	H	0.726931	-0.149639	-0.125092
H70	H	0.700528	0.024574	0.000037
H71	H	0.706401	-0.071061	0.085042
C72	C	1.888545	-0.178460	0.438786
C73	C	1.819865	-0.122374	0.339107
H74	H	1.941635	-0.221827	0.386761
H75	H	1.938166	-0.138652	0.498579
H76	H	1.832406	-0.212950	0.498604
H77	H	1.876003	-0.087879	0.279296
H78	H	1.770240	-0.162187	0.279289
H79	H	1.200674	0.383285	0.639124
C80	C	1.902605	-0.071510	0.749150
C81	C	1.819878	-0.122373	0.660997
H82	H	1.955697	-0.114874	0.801188
H83	H	1.952223	-0.031716	0.689321
H84	H	1.855996	-0.033455	0.816744
H85	H	1.866487	-0.160423	0.593395
H86	H	1.770254	-0.162183	0.720831
C87	C	1.078002	-0.288983	0.000137
C88	C	1.158687	-0.211516	0.000117
H89	H	1.126147	-0.346669	0.000138
H90	H	1.026584	-0.286412	0.085083
H91	H	1.026569	-0.286413	-0.084814
H92	H	1.210114	-0.214083	0.085074
H93	H	1.210127	-0.214089	-0.084839
H94	H	1.200651	0.383293	0.360933
C95	C	1.222099	0.247378	0.873029
C96	C	1.342641	0.267358	0.821911
H97	H	1.222110	0.247373	0.977083
H98	H	1.164311	0.294576	0.838344
H99	H	1.198135	0.186624	0.838343
H100	H	1.366600	0.328116	0.856588
H101	H	1.400448	0.220158	0.856610
C102	C	1.746845	-0.376235	0.125284
C103	C	1.681486	-0.345985	0.000054
H104	H	1.828176	-0.349728	0.125297
H105	H	1.702470	-0.355738	0.210210
H106	H	1.754230	-0.443756	0.125259
H107	H	1.674093	-0.278464	0.000085
H108	H	1.725872	-0.366477	-0.084895
C109	C	1.331983	-0.073676	-0.125142
C110	C	1.285331	-0.027551	0.000069
H111	H	1.421072	-0.071881	-0.125142
H112	H	1.306216	-0.138025	-0.125110
H113	H	1.300313	-0.042392	-0.210091
H114	H	1.316994	-0.058840	0.085018
H115	H	1.311110	0.036809	0.000050
C116	C	1.377962	0.356914	0.127022
C117	C	1.342619	0.267361	0.178147
H118	H	1.377968	0.356905	0.022968
H119	H	1.320162	0.404104	0.161695
H120	H	1.459738	0.370458	0.161714
H121	H	1.260838	0.253819	0.143464
H122	H	1.400421	0.220156	0.143460
H123	H	0.750318	0.307437	0.000004
C124	C	1.190305	0.502933	-0.125298
C125	C	1.115147	0.496157	-0.000070
H126	H	1.231238	0.562405	-0.125315
H127	H	1.251344	0.452693	-0.125274
H128	H	1.139299	0.498314	-0.210235
H129	H	1.166156	0.500769	0.084868
H130	H	1.054102	0.546412	-0.000081
H131	H	1.655622	0.011755	0.778230
H132	H	1.655614	0.011765	0.221855
