data_functionalizedCrystal
_audit_creation_method	'MofGen! by Chris Wilmer'
_symmetry_space_group_name_H-M	'P1'
_symmetry_Int_Tables_number	1
_symmetry_cell_setting	triclinic
loop_
_symmetry_equiv_pos_as_xyz
  x,y,z
_cell_length_a	21.295417
_cell_length_b	17.077404
_cell_length_c	17.077396
_cell_angle_alpha	89.982756
_cell_angle_beta	89.965973
_cell_angle_gamma	90.030732
loop_
_atom_site_label
_atom_site_type_symbol
_atom_site_fract_x
_atom_site_fract_y
_atom_site_fract_z
Zn1	Zn	-0.250600	1.199996	-0.443817
Zn2	Zn	-0.000600	1.449996	-0.193817
Zn3	Zn	0.249400	1.699996	0.056183
Zn4	Zn	0.499400	1.949996	0.306183
Zn5	Zn	-0.355875	1.199890	-0.312540
Zn6	Zn	-0.105875	1.449890	-0.062540
Zn7	Zn	0.144125	1.699890	0.187460
Zn8	Zn	0.394125	1.949890	0.437460
Zn9	Zn	-0.250624	1.068733	-0.312565
Zn10	Zn	-0.000624	1.318733	-0.062565
Zn11	Zn	0.249376	1.568733	0.187435
Zn12	Zn	0.499376	1.818733	0.437435
Zn13	Zn	-0.355836	1.068678	-0.443764
Zn14	Zn	-0.105836	1.318678	-0.193764
Zn15	Zn	0.144164	1.568678	0.056236
Zn16	Zn	0.394164	1.818678	0.306236
O17	O	-0.303234	1.134324	-0.378171
O18	O	-0.053234	1.384324	-0.128171
O19	O	0.196766	1.634324	0.121829
O20	O	0.446766	1.884324	0.371829
O21	O	-0.264572	1.309829	-0.426415
O22	O	-0.014572	1.559829	-0.176415
O23	O	0.235428	1.809829	0.073585
O24	O	0.485428	2.059829	0.323585
O25	O	-0.341939	1.182471	-0.202697
O26	O	-0.091939	1.432471	0.047303
O27	O	0.158061	1.682471	0.297303
O28	O	0.408061	1.932471	0.547303
O29	O	-0.162531	1.086212	-0.330008
O30	O	0.087469	1.336212	-0.080008
O31	O	0.337469	1.586212	0.169992
O32	O	0.587469	1.836212	0.419992
O33	O	-0.341916	1.309751	-0.329966
O34	O	-0.091916	1.559751	-0.079966
O35	O	0.158084	1.809751	0.170034
O36	O	0.408084	2.059751	0.420034
O37	O	-0.162514	1.182650	-0.426439
O38	O	0.087486	1.432650	-0.176439
O39	O	0.337486	1.682650	0.073561
O40	O	0.587486	1.932650	0.323561
O41	O	-0.264612	1.086110	-0.202715
O42	O	-0.014612	1.336110	0.047285
O43	O	0.235388	1.586110	0.297285
O44	O	0.485388	1.836110	0.547285
O45	O	-0.264574	0.958878	-0.329957
O46	O	-0.014574	1.208878	-0.079957
O47	O	0.235426	1.458878	0.170043
O48	O	0.485426	1.708878	0.420043
O49	O	-0.341850	1.086119	-0.553618
O50	O	-0.091850	1.336119	-0.303618
O51	O	0.158150	1.586119	-0.053618
O52	O	0.408150	1.836119	0.196382
O53	O	-0.341873	0.958838	-0.426348
O54	O	-0.091873	1.208838	-0.176348
O55	O	0.158127	1.458838	0.073652
O56	O	0.408127	1.708838	0.323652
O57	O	-0.264534	1.182597	-0.553657
O58	O	-0.014534	1.432597	-0.303657
O59	O	0.235466	1.682597	-0.053657
O60	O	0.485466	1.932597	0.196343
O61	O	-0.443959	1.182418	-0.329915
O62	O	-0.193959	1.432418	-0.079915
O63	O	0.056041	1.682418	0.170085
O64	O	0.306041	1.932418	0.420085
O65	O	-0.443931	1.086017	-0.426324
O66	O	-0.193931	1.336017	-0.176324
O67	O	0.056069	1.586017	0.073676
O68	O	0.306069	1.836017	0.323676
C69	C	-0.303222	0.930376	-0.378150
C70	C	-0.053222	1.180376	-0.128150
C71	C	0.196778	1.430376	0.121850
C72	C	0.446778	1.680376	0.371850
C73	C	-0.303233	0.843126	-0.378159
C74	C	-0.053233	1.093126	-0.128159
C75	C	0.196767	1.343126	0.121841
C76	C	0.446767	1.593126	0.371841
C77	C	-0.343543	0.802136	-0.428270
C78	C	-0.093543	1.052136	-0.178270
C79	C	0.156457	1.302136	0.071730
C80	C	0.406457	1.552136	0.321730
C81	C	-0.343544	0.720155	-0.428282
C82	C	-0.093544	0.970155	-0.178282
C83	C	0.156456	1.220155	0.071718
C84	C	0.406456	1.470155	0.321718
C85	C	-0.303238	0.679167	-0.378180
C86	C	-0.053238	0.929167	-0.128180
C87	C	0.196762	1.179167	0.121820
C88	C	0.446762	1.429167	0.371820
C89	C	-0.262923	0.720163	-0.328067
C90	C	-0.012923	0.970163	-0.078067
C91	C	0.237077	1.220163	0.171933
C92	C	0.487077	1.470163	0.421933
C93	C	-0.262919	0.802142	-0.328059
C94	C	-0.012919	1.052142	-0.078059
C95	C	0.237081	1.302142	0.171941
C96	C	0.487081	1.552142	0.421941
C97	C	-0.262936	0.549293	-0.328086
C98	C	-0.012936	0.799293	-0.078086
C99	C	0.237064	1.049293	0.171914
C100	C	0.487064	1.299293	0.421914
C101	C	-0.262940	0.467309	-0.328093
C102	C	-0.012940	0.717309	-0.078093
C103	C	0.237060	0.967309	0.171907
C104	C	0.487060	1.217309	0.421907
C105	C	-0.343561	0.467306	-0.428309
C106	C	-0.093561	0.717306	-0.178309
C107	C	0.156439	0.967306	0.071691
C108	C	0.406439	1.217306	0.321691
C109	C	-0.343557	0.549285	-0.428301
C110	C	-0.093557	0.799285	-0.178301
C111	C	0.156443	1.049285	0.071699
C112	C	0.406443	1.299285	0.321699
C113	C	-0.303243	0.590276	-0.378187
C114	C	-0.053243	0.840276	-0.128187
C115	C	0.196757	1.090276	0.121813
C116	C	0.446757	1.340276	0.371813
C117	C	-0.466785	1.134221	-0.378128
C118	C	-0.216785	1.384221	-0.128128
C119	C	0.033215	1.634221	0.121872
C120	C	0.283215	1.884221	0.371872
C121	C	-0.536753	1.134249	-0.378136
C122	C	-0.286753	1.384249	-0.128136
C123	C	-0.036753	1.634249	0.121864
C124	C	0.213247	1.884249	0.371864
C125	C	-0.569614	1.184490	-0.327987
C126	C	-0.319614	1.434490	-0.077987
C127	C	-0.069614	1.684490	0.172013
C128	C	0.180386	1.934490	0.422013
C129	C	-0.635357	1.184526	-0.328004
C130	C	-0.385357	1.434526	-0.078004
C131	C	-0.135357	1.684526	0.171996
C132	C	0.114643	1.934526	0.421996
C133	C	-0.668236	1.134309	-0.378163
C134	C	-0.418236	1.384309	-0.128163
C135	C	-0.168236	1.634309	0.121837
C136	C	0.081764	1.884309	0.371837
C137	C	-0.635367	1.084064	-0.428321
C138	C	-0.385367	1.334064	-0.178321
C139	C	-0.135367	1.584064	0.071679
C140	C	0.114633	1.834064	0.321679
C141	C	-0.569626	1.084035	-0.428308
C142	C	-0.319626	1.334035	-0.178308
C143	C	-0.069626	1.584035	0.071692
C144	C	0.180374	1.834035	0.321692
N145	N	-0.771502	1.065640	-0.384140
N146	N	-0.521502	1.315640	-0.134140
N147	N	-0.271502	1.565640	0.115860
N148	N	-0.021502	1.815640	0.365860
N149	N	-0.833953	1.065670	-0.384148
N150	N	-0.583953	1.315670	-0.134148
N151	N	-0.333953	1.565670	0.115852
N152	N	-0.083953	1.815670	0.365852
C153	C	-0.866311	1.134396	-0.378208
C154	C	-0.616311	1.384396	-0.128208
C155	C	-0.366311	1.634396	0.121792
C156	C	-0.116311	1.884396	0.371792
N157	N	-0.833857	1.203093	-0.372244
N158	N	-0.583857	1.453093	-0.122244
N159	N	-0.333857	1.703093	0.127756
N160	N	-0.083857	1.953093	0.377756
N161	N	-0.771400	1.203061	-0.372231
N162	N	-0.521400	1.453061	-0.122231
N163	N	-0.271400	1.703061	0.127769
N164	N	-0.021400	1.953061	0.377769
C165	C	-0.739521	1.134336	-0.378183
C166	C	-0.489521	1.384336	-0.128183
C167	C	-0.239521	1.634336	0.121817
C168	C	0.010479	1.884336	0.371817
C169	C	-0.970457	1.184681	-0.328075
C170	C	-0.720457	1.434681	-0.078075
C171	C	-0.470457	1.684681	0.171925
C172	C	-0.220457	1.934681	0.421925
C173	C	-1.036200	1.184719	-0.328098
C174	C	-0.786200	1.434719	-0.078098
C175	C	-0.536200	1.684719	0.171902
C176	C	-0.286200	1.934719	0.421902
C177	C	-1.036210	1.084250	-0.428411
C178	C	-0.786210	1.334250	-0.178411
C179	C	-0.536210	1.584250	0.071589
C180	C	-0.286210	1.834250	0.321589
C181	C	-0.970468	1.084219	-0.428392
C182	C	-0.720468	1.334219	-0.178392
C183	C	-0.470468	1.584219	0.071608
C184	C	-0.220468	1.834219	0.321608
C185	C	-0.937595	1.134434	-0.378220
C186	C	-0.687595	1.384434	-0.128220
C187	C	-0.437595	1.634434	0.121780
C188	C	-0.187595	1.884434	0.371780
C189	C	-0.139043	1.134449	-0.378232
C190	C	0.110957	1.384449	-0.128232
C191	C	0.360957	1.634449	0.121768
C192	C	0.610957	1.884449	0.371768
C193	C	-0.069075	1.134502	-0.378258
C194	C	0.180925	1.384502	-0.128258
C195	C	0.430925	1.634502	0.121742
C196	C	0.680925	1.884502	0.371742
C197	C	-0.303185	1.134364	-0.582916
C198	C	-0.053185	1.384364	-0.332916
C199	C	0.196815	1.634364	-0.082916
C200	C	0.446815	1.884364	0.167084
C201	C	-0.303164	1.134380	-0.670166
C202	C	-0.053164	1.384380	-0.420166
C203	C	0.196836	1.634380	-0.170166
C204	C	0.446836	1.884380	0.079834
C205	C	-0.303246	1.339068	-0.378194
C206	C	-0.053246	1.589068	-0.128194
C207	C	0.196754	1.839068	0.121806
C208	C	0.446754	2.089068	0.371806
C209	C	-0.303251	1.426318	-0.378203
C210	C	-0.053251	1.676318	-0.128203
C211	C	0.196749	1.926318	0.121797
C212	C	0.446749	2.176318	0.371797
C213	C	-0.262895	1.084220	-0.711165
C214	C	-0.012895	1.334220	-0.461165
C215	C	0.237105	1.584220	-0.211165
C216	C	0.487105	1.834220	0.038835
C217	C	-0.262881	1.084233	-0.793145
C218	C	-0.012881	1.334233	-0.543145
C219	C	0.237119	1.584233	-0.293145
C220	C	0.487119	1.834233	-0.043145
C221	C	-0.303133	1.134411	-0.834125
C222	C	-0.053133	1.384411	-0.584125
C223	C	0.196867	1.634411	-0.334125
C224	C	0.446867	1.884411	-0.084125
C225	C	-0.343407	1.184573	-0.793120
C226	C	-0.093407	1.434573	-0.543120
C227	C	0.156593	1.684573	-0.293120
C228	C	0.406593	1.934573	-0.043120
C229	C	-0.343424	1.184555	-0.711141
C230	C	-0.093424	1.434555	-0.461141
C231	C	0.156576	1.684555	-0.211141
C232	C	0.406576	1.934555	0.038859
C233	C	-0.343367	1.184607	-0.963991
C234	C	-0.093367	1.434607	-0.713991
C235	C	0.156633	1.684607	-0.463991
C236	C	0.406633	1.934607	-0.213991
C237	C	-0.343350	1.184625	-1.045975
C238	C	-0.093350	1.434625	-0.795975
C239	C	0.156650	1.684625	-0.545975
C240	C	0.406650	1.934625	-0.295975
C241	C	-0.262824	1.084285	-1.045994
C242	C	-0.012824	1.334285	-0.795994
C243	C	0.237176	1.584285	-0.545994
C244	C	0.487176	1.834285	-0.295994
C245	C	-0.262841	1.084267	-0.964015
C246	C	-0.012841	1.334267	-0.714015
C247	C	0.237159	1.584267	-0.464015
C248	C	0.487159	1.834267	-0.214015
C249	C	-0.303114	1.134431	-0.923016
C250	C	-0.053114	1.384431	-0.673016
C251	C	0.196886	1.634431	-0.423016
C252	C	0.446886	1.884431	-0.173016
C253	C	-0.303237	1.134330	-0.174224
C254	C	-0.053237	1.384330	0.075776
C255	C	0.196763	1.634330	0.325776
C256	C	0.446763	1.884330	0.575776
C257	C	-0.303080	1.134465	-0.086974
C258	C	-0.053080	1.384465	0.163026
C259	C	0.196920	1.634465	0.413026
C260	C	0.446920	1.884465	0.663026
H261	H	-0.376369	0.686785	-0.469086
H262	H	-0.126369	0.936785	-0.219086
H263	H	0.123631	1.186785	0.030914
H264	H	0.373631	1.436785	0.280914
H265	H	-0.230062	1.043412	-0.930652
H266	H	0.019938	1.293412	-0.680652
H267	H	0.269938	1.543412	-0.430652
H268	H	0.519938	1.793412	-0.180652
Cl269	Cl	-0.528313	1.020869	-0.491357
Cl270	Cl	-0.278313	1.270869	-0.241357
Cl271	Cl	-0.028313	1.520869	0.008643
Cl272	Cl	0.221687	1.770869	0.258643
H273	H	-0.943691	1.225572	-0.287224
H274	H	-0.693691	1.475572	-0.037224
H275	H	-0.443691	1.725572	0.212776
H276	H	-0.193691	1.975572	0.462776
Cl277	Cl	-0.212194	1.021224	-1.097535
Cl278	Cl	0.037806	1.271224	-0.847535
Cl279	Cl	0.287806	1.521224	-0.597535
Cl280	Cl	0.537806	1.771224	-0.347535
H281	H	-0.376126	1.225484	-1.079339
H282	H	-0.126126	1.475484	-0.829339
H283	H	0.123874	1.725484	-0.579339
H284	H	0.373874	1.975484	-0.329339
Cl285	Cl	-0.528292	1.247628	-0.264925
Cl286	Cl	-0.278292	1.497628	-0.014925
Cl287	Cl	-0.028292	1.747628	0.235075
Cl288	Cl	0.221708	1.997628	0.485075
Cl289	Cl	-0.393999	1.247667	-0.912450
Cl290	Cl	-0.143999	1.497667	-0.662450
Cl291	Cl	0.106001	1.747667	-0.412450
Cl292	Cl	0.356001	1.997667	-0.162450
Cl293	Cl	-0.212254	0.600823	-0.265085
Cl294	Cl	0.037746	0.850823	-0.015085
Cl295	Cl	0.287746	1.100823	0.234915
Cl296	Cl	0.537746	1.350823	0.484915
Cl297	Cl	-0.394014	1.247648	-0.844638
Cl298	Cl	-0.144014	1.497648	-0.594638
Cl299	Cl	0.105986	1.747648	-0.344638
Cl300	Cl	0.355986	1.997648	-0.094638
H301	H	-0.943711	1.043305	-0.469225
H302	H	-0.693711	1.293305	-0.219225
H303	H	-0.443711	1.543305	0.030775
H304	H	-0.193711	1.793305	0.280775
H305	H	-0.230092	1.043385	-0.826523
H306	H	0.019908	1.293385	-0.576523
H307	H	0.269908	1.543385	-0.326523
H308	H	0.519908	1.793385	-0.076523
H309	H	-0.662117	1.225441	-0.287167
H310	H	-0.412117	1.475441	-0.037167
H311	H	-0.162117	1.725441	0.212833
H312	H	0.087883	1.975441	0.462833
Cl313	Cl	-0.676700	1.020937	-0.491381
Cl314	Cl	-0.426700	1.270937	-0.241381
Cl315	Cl	-0.176700	1.520937	0.008619
Cl316	Cl	0.073300	1.770937	0.258619
H317	H	-0.376367	0.835503	-0.469066
H318	H	-0.126367	1.085503	-0.219066
H319	H	0.123633	1.335503	0.030934
H320	H	0.373633	1.585503	0.280934
Cl321	Cl	-0.394232	0.600813	-0.491282
Cl322	Cl	-0.144232	0.850813	-0.241282
Cl323	Cl	0.105768	1.100813	0.008718
Cl324	Cl	0.355768	1.350813	0.258718
H325	H	-0.376210	1.225407	-0.677761
H326	H	-0.126210	1.475407	-0.427761
H327	H	0.123790	1.725407	-0.177761
H328	H	0.373790	1.975407	0.072239
H329	H	-1.062980	1.043365	-0.469255
H330	H	-0.812980	1.293365	-0.219255
H331	H	-0.562980	1.543365	0.030745
H332	H	-0.312980	1.793365	0.280745
H333	H	-0.230113	1.043365	-0.677805
H334	H	0.019887	1.293365	-0.427805
H335	H	0.269887	1.543365	-0.177805
H336	H	0.519887	1.793365	0.072195
Cl337	Cl	-0.394232	0.415776	-0.491320
Cl338	Cl	-0.144232	0.665776	-0.241320
Cl339	Cl	0.105768	0.915776	0.008680
Cl340	Cl	0.355768	1.165776	0.258680
Cl341	Cl	-1.077512	1.247891	-0.265054
Cl342	Cl	-0.827512	1.497891	-0.015054
Cl343	Cl	-0.577512	1.747891	0.234946
Cl344	Cl	-0.327512	1.997891	0.484946
H345	H	-0.230103	0.686784	-0.287276
H346	H	0.019897	0.936784	-0.037276
H347	H	0.269897	1.186784	0.212724
H348	H	0.519897	1.436784	0.462724
Cl349	Cl	-0.212240	0.853673	-0.265062
Cl350	Cl	0.037760	1.103673	-0.015062
Cl351	Cl	0.287760	1.353673	0.234938
Cl352	Cl	0.537760	1.603673	0.484938
Cl353	Cl	-0.212272	0.415781	-0.265102
Cl354	Cl	0.037728	0.665781	-0.015102
Cl355	Cl	0.287728	0.915781	0.234898
Cl356	Cl	0.537728	1.165781	0.484898
