data_functionalizedCrystal
_audit_creation_method	'MofGen! by Chris Wilmer'
_symmetry_space_group_name_H-M	'P1'
_symmetry_Int_Tables_number	1
_symmetry_cell_setting	triclinic
loop_
_symmetry_equiv_pos_as_xyz
  x,y,z
_cell_length_a	14.971506
_cell_length_b	19.188924
_cell_length_c	14.048226
_cell_angle_alpha	89.991497
_cell_angle_beta	89.993237
_cell_angle_gamma	83.382176
loop_
_atom_site_label
_atom_site_type_symbol
_atom_site_fract_x
_atom_site_fract_y
_atom_site_fract_z
O1	O	1.186452	0.091055	-0.079172
O2	O	1.686452	0.591055	0.420828
O3	O	0.925996	0.101937	-0.079173
O4	O	1.425996	0.601937	0.420827
O5	O	1.063744	-0.005135	-0.079161
O6	O	1.563744	0.494865	0.420839
O7	O	1.048705	0.198127	-0.079184
O8	O	1.548705	0.698127	0.420816
O9	O	1.063727	-0.005142	0.079160
O10	O	1.563727	0.494858	0.579160
O11	O	0.925980	0.101930	0.079149
O12	O	1.425980	0.601930	0.579149
O13	O	1.186435	0.091049	0.079150
O14	O	1.686435	0.591049	0.579150
Zn15	Zn	1.056205	0.096489	0.104286
Zn16	Zn	1.556205	0.596489	0.604286
Zn17	Zn	1.056227	0.096497	-0.104309
Zn18	Zn	1.556227	0.596497	0.395691
O19	O	1.048688	0.198121	0.079138
O20	O	1.548688	0.698121	0.579138
C21	C	0.892666	0.101444	-0.000012
C22	C	1.392666	0.601444	0.499988
C23	C	0.793378	0.099978	-0.000012
C24	C	1.293378	0.599978	0.499988
C25	C	0.354791	0.157287	-0.000028
C26	C	0.854791	0.657287	0.499972
C27	C	0.448084	0.158659	-0.000032
C28	C	0.948084	0.658659	0.499968
C29	C	0.505638	0.095750	-0.000021
C30	C	1.005638	0.595750	0.499979
C31	C	0.469895	0.031465	-0.000015
C32	C	0.969895	0.531465	0.499985
C33	C	0.376604	0.030094	-0.000018
C34	C	0.876604	0.530094	0.499982
C35	C	0.664343	0.034328	-0.000008
C36	C	1.164343	0.534328	0.499992
C37	C	0.757641	0.035698	-0.000003
C38	C	1.257641	0.535698	0.499997
C39	C	0.735823	0.162892	-0.000022
C40	C	1.235823	0.662892	0.499978
C41	C	0.642532	0.161521	-0.000025
C42	C	1.142532	0.661521	0.499975
C43	C	0.606795	0.097236	-0.000017
C44	C	1.106795	0.597236	0.499983
C45	C	1.063249	-0.031151	0.000001
C46	C	1.563249	0.468849	0.500001
C47	C	1.061791	-0.108661	0.000003
C48	C	1.561791	0.391339	0.500003
C49	C	1.061119	-0.145058	-0.086298
C50	C	1.561119	0.354942	0.413702
C51	C	1.059735	-0.217886	-0.086305
C52	C	1.559735	0.282114	0.413695
C53	C	1.059042	-0.254314	-0.000006
C54	C	1.559042	0.245686	0.499994
C55	C	1.059709	-0.217907	0.086306
C56	C	1.559709	0.282093	0.586306
C57	C	1.061083	-0.145081	0.086311
C58	C	1.561083	0.354919	0.586311
N59	N	1.107777	-0.373820	0.064224
N60	N	1.607777	0.126180	0.564224
N61	N	1.106473	-0.443003	0.064213
N62	N	1.606473	0.056997	0.564213
C63	C	1.054899	-0.473737	-0.000016
C64	C	1.554899	0.026263	0.499984
N65	N	1.004689	-0.432676	-0.064249
N66	N	1.504689	0.067324	0.435751
N67	N	1.005996	-0.363488	-0.064241
N68	N	1.505996	0.136512	0.435759
C69	C	1.057551	-0.333283	-0.000002
C70	C	1.557551	0.166717	0.499998
C71	C	1.052725	-0.589102	-0.086331
C72	C	1.552725	-0.089102	0.413669
C73	C	1.051336	-0.661930	-0.086334
C74	C	1.551336	-0.161930	0.413666
C75	C	1.051319	-0.661951	0.086280
C76	C	1.551319	-0.161951	0.586280
C77	C	1.052699	-0.589124	0.086281
C78	C	1.552699	-0.089124	0.586281
C79	C	1.053406	-0.552704	-0.000027
C80	C	1.553406	-0.052704	0.499973
C81	C	1.219766	0.091541	-0.000013
C82	C	1.719766	0.591541	0.499987
C83	C	1.319054	0.093007	-0.000020
C84	C	1.819054	0.593007	0.499980
C85	C	1.049183	0.224137	-0.000026
C86	C	1.549183	0.724137	0.499974
C87	C	1.050641	0.301646	-0.000035
C88	C	1.550641	0.801646	0.499965
N89	N	1.056197	0.096483	0.246647
N90	N	1.556197	0.596483	0.746647
N91	N	1.056242	0.096498	-0.246670
N92	N	1.556242	0.596498	0.253330
C93	C	1.117210	0.049091	0.296470
C94	C	1.617210	0.549091	0.796470
C95	C	1.117216	0.049090	0.396128
C96	C	1.617216	0.549090	0.896128
C97	C	1.056212	0.096486	0.445960
C98	C	1.556212	0.596486	0.945960
C99	C	0.995193	0.143880	0.396130
C100	C	1.495193	0.643880	0.896130
C101	C	0.995183	0.143876	0.296474
C102	C	1.495183	0.643876	0.796474
C103	C	0.995218	0.143885	0.603844
C104	C	1.495218	0.643885	1.103844
C105	C	0.995229	0.143889	0.703507
C106	C	1.495229	0.643889	1.203507
C107	C	1.117252	0.049099	0.703498
C108	C	1.617252	0.549099	1.203498
C109	C	1.117242	0.049095	0.603842
C110	C	1.617242	0.549095	1.103842
C111	C	1.056223	0.096491	0.554018
C112	C	1.556223	0.596491	1.054018
H113	H	0.347509	-0.022249	-0.000013
H114	H	0.847509	0.477751	0.499987
H115	H	1.059183	-0.247526	-0.156584
H116	H	1.559183	0.252474	0.343416
C117	C	0.928102	0.196021	0.549040
C118	C	1.428102	0.696021	1.049040
H119	H	0.891779	0.224255	0.592990
H120	H	1.391779	0.724255	1.092990
H121	H	0.890967	0.170858	0.510177
H122	H	1.390967	0.670858	1.010177
H123	H	0.960166	0.225129	0.510153
H124	H	1.460166	0.725129	1.010153
H125	H	1.050747	-0.691610	0.156546
H126	H	1.550747	-0.191610	0.656546
H127	H	1.053296	-0.559447	-0.156608
H128	H	1.553296	-0.059447	0.343392
H129	H	1.053253	-0.559489	0.156557
H130	H	1.553253	-0.059489	0.656557
H131	H	0.945518	0.182468	0.436709
H132	H	1.445518	0.682468	0.936709
H133	H	0.307936	0.208515	-0.000030
H134	H	0.807936	0.708515	0.499970
H135	H	1.061692	-0.115410	-0.156577
H136	H	1.561692	0.384590	0.343423
C137	C	0.487391	0.229367	-0.000030
C138	C	0.987391	0.729367	0.499970
H139	H	0.439753	0.266636	-0.000022
H140	H	0.939753	0.766636	0.499978
H141	H	0.523338	0.232554	-0.055238
H142	H	1.023338	0.732554	0.444762
H143	H	0.523322	0.232539	0.055190
H144	H	1.023322	0.732539	0.555190
H145	H	1.050785	-0.691563	-0.156614
H146	H	1.550785	-0.191563	0.343386
H147	H	0.804500	-0.015528	-0.000002
H148	H	1.304500	0.484472	0.499998
H149	H	1.166890	0.010499	0.255903
H150	H	1.666890	0.510499	0.755903
H151	H	0.595673	0.212747	-0.000028
H152	H	1.095673	0.712747	0.499972
C153	C	0.775129	0.233605	-0.000043
C154	C	1.275129	0.733605	0.499957
H155	H	0.838932	0.225414	-0.000053
H156	H	1.338932	0.725414	0.499947
H157	H	0.755355	0.259512	0.055162
H158	H	1.255355	0.759512	0.555162
H159	H	0.755361	0.259507	-0.055265
H160	H	1.255361	0.759507	0.444735
H161	H	1.059141	-0.247572	0.156571
H162	H	1.559141	0.252428	0.656571
C163	C	0.928072	0.196007	0.241664
C164	C	1.428072	0.696007	0.741664
H165	H	0.936797	0.189213	0.175176
H166	H	1.436797	0.689213	0.675176
H167	H	0.937596	0.242620	0.257979
H168	H	1.437596	0.742620	0.757979
H169	H	0.868410	0.188338	0.258014
H170	H	1.368410	0.688338	0.758014
C171	C	1.061831	-0.105042	0.181246
C172	C	1.561831	0.394958	0.681246
H173	H	1.061224	-0.137166	0.232644
H174	H	1.561224	0.362834	0.732644
H175	H	1.010223	-0.071350	0.184836
H176	H	1.510223	0.428650	0.684836
H177	H	1.114524	-0.081918	0.184833
H178	H	1.614524	0.418082	0.684833
C179	C	1.184373	-0.003036	0.758294
C180	C	1.684373	0.496964	1.258294
H181	H	1.220711	-0.031257	0.714343
H182	H	1.720711	0.468743	1.214343
H183	H	1.152327	-0.032147	0.797187
H184	H	1.652327	0.467853	1.297187
H185	H	1.221506	0.022140	0.797153
H186	H	1.721506	0.522140	1.297153
C187	C	0.625034	-0.036385	0.000003
C188	C	1.125034	0.463615	0.500003
H189	H	0.672672	-0.073655	0.000020
H190	H	1.172672	0.426345	0.500020
H191	H	0.589101	-0.039565	-0.055207
H192	H	1.089101	0.460435	0.444793
H193	H	0.589089	-0.039561	0.055221
H194	H	1.089089	0.460439	0.555221
C195	C	1.184339	-0.003034	0.450929
C196	C	1.684339	0.496966	0.950929
H197	H	1.220679	-0.031254	0.406978
H198	H	1.720679	0.468746	0.906978
H199	H	1.152296	-0.032146	0.489823
H200	H	1.652296	0.467854	0.989823
H201	H	1.221472	0.022144	0.489786
H202	H	1.721472	0.522144	0.989786
C203	C	0.928070	0.195978	0.758321
C204	C	1.428070	0.695978	1.258321
H205	H	0.891703	0.224186	0.714377
H206	H	1.391703	0.724186	1.214377
H207	H	0.960074	0.225107	0.797212
H208	H	1.460074	0.725107	1.297212
H209	H	0.890970	0.170762	0.797183
H210	H	1.390970	0.670762	1.297183
H211	H	1.166920	0.010506	0.563268
H212	H	1.666920	0.510506	1.063268
H213	H	0.516763	-0.019756	-0.000012
H214	H	1.016763	0.480244	0.499988
