data_functionalizedCrystal
_audit_creation_method	'MofGen! by Chris Wilmer'
_symmetry_space_group_name_H-M	'P1'
_symmetry_Int_Tables_number	1
_symmetry_cell_setting	triclinic
loop_
_symmetry_equiv_pos_as_xyz
  x,y,z
_cell_length_a	10.540510
_cell_length_b	17.019330
_cell_length_c	15.500361
_cell_angle_alpha	91.049433
_cell_angle_beta	87.137040
_cell_angle_gamma	96.044559
loop_
_atom_site_label
_atom_site_type_symbol
_atom_site_fract_x
_atom_site_fract_y
_atom_site_fract_z
O1	O	0.174055	-1.040040	-0.149432
O2	O	0.193261	-0.811350	-0.132393
O3	O	-0.001104	-0.930925	-0.141302
O4	O	0.368421	-0.920465	-0.140523
O5	O	-0.012860	-0.938143	0.002046
O6	O	0.181505	-0.818569	0.010955
O7	O	0.162300	-1.047259	-0.006084
Cu8	Cu	0.170829	-0.933573	0.015524
Cu9	Cu	0.184732	-0.925036	-0.154001
O10	O	0.356665	-0.927684	0.002825
C11	C	0.186420	-0.785676	-0.058538
C12	C	0.183534	-0.698421	-0.052037
C13	C	0.166936	-0.205117	-0.011351
C14	C	0.169647	-0.287102	-0.017461
C15	C	0.177401	-0.324161	-0.098656
C16	C	0.182457	-0.279229	-0.173747
C17	C	0.179755	-0.197244	-0.167636
C18	C	0.185888	-0.571504	-0.121016
C19	C	0.188586	-0.653495	-0.127121
C20	C	0.175778	-0.661363	0.029165
C21	C	0.173069	-0.579377	0.035268
C22	C	0.178132	-0.534451	-0.039822
C23	C	0.180168	-0.407963	-0.104904
C24	C	0.175374	-0.450649	-0.033573
C25	C	-0.054278	-0.933754	-0.069572
C26	C	-0.195203	-0.931422	-0.069403
C27	C	-0.413539	-1.014507	-0.075264
C28	C	-0.266942	-1.016978	-0.075777
C29	C	-0.232799	-0.883504	-0.147997
C30	C	-0.379535	-0.881619	-0.147921
C31	C	-0.392694	-0.888047	0.015225
C32	C	-0.246483	-0.892159	0.016000
C33	C	0.409839	-0.924854	-0.068907
C34	C	0.550765	-0.927186	-0.069082
N35	N	0.161050	-0.939583	0.134759
C36	C	0.169131	-0.072933	-0.079938
C37	C	0.171988	-0.160191	-0.086436
N38	N	0.194501	-0.919032	-0.273236
C39	C	0.243378	-0.888905	0.183832
C40	C	0.235977	-0.893473	0.274063
C41	C	0.146242	-0.948715	0.315219
C42	C	0.063911	-0.999398	0.266138
C43	C	0.071318	-0.994834	0.175909
C44	C	0.119577	-0.965150	0.587454
C45	C	0.112173	-0.969709	0.677690
C46	C	0.284242	-0.863785	0.685608
C47	C	0.291637	-0.859222	0.595377
C48	C	0.209310	-0.909908	0.546305
C49	C	0.138672	-0.953384	0.407449
C50	C	0.216886	-0.905242	0.454076
H51	H	0.186478	-0.438146	-0.171013
F52	F	0.338881	-0.830105	0.140040
F53	F	0.196840	-0.692933	-0.213544
F54	F	0.164276	-0.334912	0.062455
F55	F	-0.235331	-1.065615	-0.002406
H56	H	0.160627	-0.174950	0.054767
H57	H	-0.452598	-1.044707	-0.136104
F58	F	0.043168	-1.012175	0.451255
F59	F	-0.186353	-0.919249	-0.230585
F60	F	-0.425948	-0.916717	-0.230812
F61	F	0.190713	-0.318671	-0.260161
F62	F	-0.420843	-0.804123	0.022204
H63	H	0.183872	-0.160666	-0.228778
H64	H	0.166727	-0.549212	0.101386
F65	F	0.371857	-0.809847	0.737840
F66	F	-0.215996	-0.937793	0.092052
H67	H	-0.440244	-0.918360	0.075247
H68	H	0.169067	-0.420472	0.032535
F69	F	-0.475115	-1.061941	-0.001779
F70	F	0.016656	-1.028508	0.721485
F71	F	0.323601	-0.839538	0.326291
H72	H	0.171659	-0.697949	0.090299
H73	H	0.289954	-0.860267	0.420564
F74	F	-0.223970	-1.058157	-0.155963
F75	F	-0.408338	-0.797737	-0.146550
F76	F	-0.169683	-0.800979	-0.145848
H77	H	-0.197180	-0.829946	0.025597
H78	H	0.052541	-1.006419	0.547506
F79	F	0.191272	-0.523701	-0.200935
H80	H	0.364706	-0.814240	0.561870
F81	F	-0.031588	-1.058195	0.309940
F82	F	-0.016303	-1.048774	0.123682
