data_functionalizedCrystal
_audit_creation_method	'MofGen! by Chris Wilmer'
_symmetry_space_group_name_H-M	'P1'
_symmetry_Int_Tables_number	1
_symmetry_cell_setting	triclinic
loop_
_symmetry_equiv_pos_as_xyz
  x,y,z
_cell_length_a	11.792241
_cell_length_b	11.792241
_cell_length_c	10.268362
_cell_angle_alpha	89.999703
_cell_angle_beta	90.000374
_cell_angle_gamma	95.806585
loop_
_atom_site_label
_atom_site_type_symbol
_atom_site_fract_x
_atom_site_fract_y
_atom_site_fract_z
O1	O	-1.506909	0.155569	-0.108158
O2	O	-1.006909	0.655569	0.391842
O3	O	-1.176568	0.171602	-0.108187
O4	O	-0.676568	0.671602	0.391813
O5	O	-1.349755	-0.001585	-0.108180
O6	O	-0.849755	0.498415	0.391820
O7	O	-1.333722	0.328756	-0.108166
O8	O	-0.833722	0.828756	0.391834
O9	O	-1.349740	-0.001593	0.108421
O10	O	-0.849740	0.498407	0.608421
O11	O	-1.176553	0.171594	0.108414
O12	O	-0.676553	0.671594	0.608414
O13	O	-1.506894	0.155561	0.108442
O14	O	-1.006894	0.655561	0.608442
Cu15	Cu	-1.341722	0.163577	0.128205
Cu16	Cu	-0.841722	0.663577	0.628205
Cu17	Cu	-1.341740	0.163586	-0.127950
Cu18	Cu	-0.841740	0.663586	0.372050
O19	O	-1.333707	0.328748	0.108435
O20	O	-0.833707	0.828748	0.608435
C21	C	-1.134269	0.170591	0.000109
C22	C	-0.634269	0.670591	0.500109
C23	C	-1.008255	0.167576	0.000098
C24	C	-0.508255	0.667576	0.500098
C25	C	-1.348740	-0.043880	0.000116
C26	C	-0.848740	0.456120	0.500116
C27	C	-1.345726	-0.169894	0.000101
C28	C	-0.845726	0.330106	0.500101
N29	N	-1.341717	0.163571	0.308371
N30	N	-0.841717	0.663571	0.808371
C31	C	-1.549192	0.156572	0.000143
C32	C	-1.049192	0.656572	0.500143
C33	C	-1.675206	0.159587	0.000146
C34	C	-1.175206	0.659587	0.500146
C35	C	-0.777543	0.162034	0.000135
C36	C	-0.277543	0.662034	0.500135
C37	C	-0.905928	0.165113	0.000114
C38	C	-0.405928	0.665113	0.500114
C39	C	-1.334721	0.371043	0.000137
C40	C	-0.834721	0.871043	0.500137
C41	C	-1.337736	0.497057	0.000143
C42	C	-0.837736	0.997057	0.500143
C43	C	-1.343279	0.727769	0.000110
C44	C	-0.843279	1.227769	0.500110
C45	C	-1.340199	0.599384	0.000128
C46	C	-0.840199	1.099384	0.500128
N47	N	-1.341753	0.163584	-0.308116
N48	N	-0.841753	0.663584	0.191884
C49	C	-1.341734	0.163583	0.574042
C50	C	-0.841734	0.663583	1.074042
C51	C	-1.341721	0.163580	0.426204
C52	C	-0.841721	0.663580	0.926204
