data_functionalizedCrystal
_audit_creation_method	'MofGen! by Chris Wilmer'
_symmetry_space_group_name_H-M	'P1'
_symmetry_Int_Tables_number	1
_symmetry_cell_setting	triclinic
loop_
_symmetry_equiv_pos_as_xyz
  x,y,z
_cell_length_a	21.395362
_cell_length_b	12.645330
_cell_length_c	12.645323
_cell_angle_alpha	90.026844
_cell_angle_beta	90.040991
_cell_angle_gamma	90.033572
loop_
_atom_site_label
_atom_site_type_symbol
_atom_site_fract_x
_atom_site_fract_y
_atom_site_fract_z
Zn1	Zn	0.957898	-0.421561	0.599990
Zn2	Zn	0.957830	-0.598855	0.422730
Zn3	Zn	0.853118	-0.421655	0.422674
Zn4	Zn	0.853106	-0.598832	0.599886
O5	O	0.905488	-0.510226	0.511320
O6	O	1.045567	-0.445050	0.576542
O7	O	0.943916	-0.575398	0.274375
O8	O	0.867051	-0.273295	0.446216
O9	O	1.045517	-0.575307	0.446310
O10	O	0.944032	-0.273226	0.576489
O11	O	0.866985	-0.445210	0.274334
O12	O	0.765439	-0.445188	0.446115
O13	O	0.867030	-0.575267	0.748247
O14	O	0.765430	-0.575359	0.576312
O15	O	0.944020	-0.445027	0.748323
O16	O	0.943904	-0.747199	0.446209
O17	O	0.866964	-0.747182	0.576365
C18	C	0.742700	-0.510282	0.511197
C19	C	0.673059	-0.510331	0.511169
C20	C	0.640358	-0.578201	0.578861
C21	C	0.574922	-0.578175	0.578908
C22	C	0.542191	-0.510290	0.511245
C23	C	0.574900	-0.442407	0.443548
C24	C	0.640334	-0.442428	0.443511
C25	C	0.438468	-0.501775	0.415809
C26	C	0.373035	-0.501762	0.415845
C27	C	0.340370	-0.510221	0.511362
C28	C	0.373146	-0.518716	0.606846
C29	C	0.438580	-0.518737	0.606808
C30	C	0.471238	-0.510260	0.511279
C31	C	0.236716	-0.578067	0.579111
C32	C	0.171279	-0.578033	0.579160
C33	C	0.171259	-0.442271	0.443790
C34	C	0.236694	-0.442299	0.443751
C35	C	0.269419	-0.510202	0.511409
C36	C	0.905442	-0.785655	0.511305
C37	C	0.905480	-0.903485	0.511334
C38	C	0.857277	-1.071083	0.593468
C39	C	0.857030	-0.948524	0.593203
C40	C	0.887605	-0.948092	0.399602
C41	C	0.887311	-1.070690	0.400100
C42	C	0.971853	-1.070543	0.540027
C43	C	0.971446	-0.947936	0.542469
C44	C	1.068911	-0.510170	0.511444
C45	C	1.138553	-0.510147	0.511497
C46	C	0.905532	-0.510134	0.787825
C47	C	0.905550	-0.510095	0.905655
C48	C	0.905551	-0.233720	0.511358
C49	C	0.905578	-0.115890	0.511374
C50	C	0.905481	-0.510240	0.235890
C51	C	0.905583	-0.509981	0.118061
C52	C	0.857118	-0.592013	0.950489
C53	C	0.856948	-0.591705	1.073049
C54	C	0.887896	-0.398205	1.073548
C55	C	0.887526	-0.398746	0.950949
C56	C	0.971798	-0.538952	0.950884
C57	C	0.971462	-0.541350	1.073490
H58	H	0.666998	-0.633492	0.633956
O59	O	0.341489	-0.526781	0.699717
C60	C	0.357553	-0.441184	0.765876
H61	H	0.405067	-0.408559	0.741393
H62	H	0.320759	-0.376450	0.758308
C63	C	0.302263	-0.519271	0.911507
C64	C	0.360623	-0.479205	0.881443
H65	H	0.304154	-0.542721	0.982795
H66	H	0.291438	-0.576937	0.866934
H67	H	0.271607	-0.465318	0.905192
H68	H	0.391277	-0.533161	0.887745
H69	H	0.371454	-0.421548	0.926020
O70	O	0.798382	-0.569040	1.108056
C71	C	0.776027	-0.653693	1.169948
H72	H	0.801994	-0.729178	1.147693
H73	H	0.784124	-0.635543	1.257208
C74	C	0.673699	-0.576004	1.177077
C75	C	0.705588	-0.668717	1.149737
H76	H	0.630249	-0.585269	1.164615
H77	H	0.688761	-0.518969	1.135382
H78	H	0.680454	-0.560888	1.249792
H79	H	0.698840	-0.683824	1.077020
H80	H	0.690524	-0.725755	1.191419
O81	O	0.543205	-0.376367	0.377784
C82	C	0.586103	-0.316484	0.318006
H83	H	0.632775	-0.312879	0.361409
H84	H	0.592996	-0.355208	0.237424
C85	C	0.503283	-0.208061	0.249624
C86	C	0.560604	-0.203625	0.302936
H87	H	0.487553	-0.138446	0.240323
H88	H	0.474380	-0.248407	0.289894
H89	H	0.509035	-0.240335	0.182478
H90	H	0.554850	-0.171364	0.370086
H91	H	0.589505	-0.163271	0.262677
O92	O	0.672172	-0.376649	0.377694
C93	C	0.709936	-0.436938	0.309082
H94	H	0.719723	-0.517326	0.346329
H95	H	0.684662	-0.448479	0.230517
C96	C	0.760089	-0.279882	0.244199
C97	C	0.772113	-0.378612	0.289951
H98	H	0.798442	-0.243903	0.232394
H99	H	0.734646	-0.239263	0.290421
H100	H	0.739026	-0.289513	0.178734
H101	H	0.793169	-0.368979	0.355421
H102	H	0.797562	-0.419228	0.243739
O103	O	0.470266	-0.493706	0.323073
C104	C	0.508054	-0.583962	0.309240
H105	H	0.517885	-0.621569	0.389455
H106	H	0.482777	-0.643311	0.256459
C107	C	0.558120	-0.505390	0.158548
C108	C	0.570199	-0.551575	0.257071
H109	H	0.596453	-0.485415	0.126363
H110	H	0.532660	-0.444584	0.167864
H111	H	0.537055	-0.554855	0.114577
H112	H	0.591257	-0.502106	0.301044
H113	H	0.595664	-0.612372	0.247761
H114	H	0.840020	-0.373331	1.104222
O115	O	0.870419	-1.106025	0.692706
C116	C	0.826306	-1.064508	0.764323
H117	H	0.804903	-0.989515	0.729855
H118	H	0.787920	-1.125390	0.778664
C119	C	0.885171	-1.130326	0.912078
C120	C	0.858888	-1.038214	0.869747
H121	H	0.905267	-1.114111	0.977111
H122	H	0.914890	-1.158301	0.863829
H123	H	0.853178	-1.181052	0.924020
H124	H	0.890882	-0.987495	0.857794
H125	H	0.829175	-1.010230	0.917997
O126	O	0.139608	-0.644067	0.644951
C127	C	0.182527	-0.703984	0.704672
H128	H	0.229141	-0.707612	0.661215
H129	H	0.189555	-0.665275	0.785251
C130	C	0.099693	-0.812366	0.773134
C131	C	0.156944	-0.816829	0.719756
H132	H	0.083912	-0.881973	0.782444
H133	H	0.070777	-0.771997	0.732903
H134	H	0.105558	-0.780104	0.840278
H135	H	0.151077	-0.849078	0.652609
H136	H	0.185859	-0.857206	0.759976
H137	H	1.007880	-0.479283	0.921900
H138	H	0.548291	-0.633443	0.634035
O139	O	0.268536	-0.644129	0.644688
C140	C	0.306326	-0.712525	0.584199
H141	H	0.286550	-0.718967	0.500707
H142	H	0.355931	-0.679764	0.580571
C143	C	0.331598	-0.814879	0.738354
C144	C	0.307307	-0.822798	0.635810
H145	H	0.332206	-0.882899	0.770191
H146	H	0.306141	-0.768797	0.779108
H147	H	0.372934	-0.787574	0.735317
H148	H	0.265970	-0.850090	0.638849
H149	H	0.332757	-0.868887	0.595057
O150	O	0.341271	-0.493648	0.323013
C151	C	0.357175	-0.579241	0.256818
H152	H	0.404684	-0.611914	0.281253
H153	H	0.320324	-0.643944	0.264398
C154	C	0.301799	-0.501066	0.111253
C155	C	0.360153	-0.541190	0.141259
H156	H	0.303633	-0.477597	0.039970
H157	H	0.291082	-0.443402	0.155851
H158	H	0.271096	-0.554992	0.117578
H159	H	0.390853	-0.487260	0.134946
H160	H	0.370875	-0.598845	0.096657
H161	H	0.868214	-0.918361	0.676051
O162	O	0.990939	-0.634618	0.913963
C163	C	0.944725	-0.676938	0.846575
H164	H	0.897550	-0.640013	0.866266
H165	H	0.957222	-0.658795	0.760854
C166	C	0.999028	-0.842906	0.837976
C167	C	0.941086	-0.797561	0.862167
H168	H	0.996785	-0.917313	0.847589
H169	H	1.030165	-0.814394	0.883373
H170	H	1.009436	-0.827776	0.766543
H171	H	0.930683	-0.812680	0.933602
H172	H	0.909947	-0.826079	0.816782
H173	H	0.920965	-1.100334	0.336847
O174	O	0.928737	-0.323479	1.108463
C175	C	0.974053	-0.371295	1.173784
H176	H	0.954602	-0.448237	1.207296
H177	H	1.017781	-0.388821	1.125400
C178	C	1.014649	-0.201415	1.224068
C179	C	0.990757	-0.295912	1.265235
H180	H	1.024955	-0.154915	1.280477
H181	H	0.984120	-0.169200	1.180058
H182	H	1.051086	-0.216035	1.183749
H183	H	0.954316	-0.281293	1.305542
H184	H	1.021280	-0.328123	1.309255
O185	O	0.829764	-0.369770	0.916663
C186	C	0.803779	-0.452080	0.855533
H187	H	0.842874	-0.503838	0.822863
H188	H	0.771554	-0.502019	0.907090
C189	C	0.718097	-0.341049	0.803372
C190	C	0.766114	-0.404613	0.763238
H191	H	0.694861	-0.311770	0.746442
H192	H	0.735601	-0.285595	0.844559
H193	H	0.691249	-0.382674	0.846336
H194	H	0.792965	-0.362985	0.720286
H195	H	0.748613	-0.460058	0.722042
H196	H	0.807896	-0.919312	0.574218
O197	O	0.139549	-0.376378	0.377902
C198	C	0.155460	-0.399455	0.272204
H199	H	0.202946	-0.440232	0.269930
H200	H	0.118584	-0.453896	0.236421
C201	C	0.100184	-0.245955	0.210946
C202	C	0.158510	-0.296030	0.208152
H203	H	0.102063	-0.182160	0.171433
H204	H	0.089462	-0.230410	0.282156
H205	H	0.069461	-0.291333	0.181128
H206	H	0.189230	-0.250657	0.237981
H207	H	0.169237	-0.311566	0.136945
H208	H	0.988159	-1.101376	0.620119
O209	O	0.268493	-0.376267	0.378136
C210	C	0.306425	-0.307901	0.438581
H211	H	0.286760	-0.301444	0.522097
H212	H	0.356002	-0.340701	0.442150
C213	C	0.331602	-0.205566	0.284397
C214	C	0.307447	-0.197629	0.386970
H215	H	0.332236	-0.137546	0.252560
H216	H	0.306049	-0.251628	0.243673
H217	H	0.372915	-0.232904	0.287386
H218	H	0.266133	-0.170304	0.383979
H219	H	0.332994	-0.151560	0.427693
H220	H	1.009470	-0.486035	1.104137
H221	H	0.465264	-0.525651	0.684555
H222	H	0.808450	-1.102007	0.574725
O223	O	0.987298	-0.639478	1.108328
C224	C	0.939028	-0.679664	1.172677
H225	H	0.910425	-0.611292	1.205939
H226	H	0.907453	-0.733242	1.123555
C227	C	1.002718	-0.827520	1.223537
C228	C	0.967592	-0.743544	1.264398
H229	H	1.020337	-0.866929	1.280113
H230	H	1.035239	-0.800449	1.180182
H231	H	0.976401	-0.872157	1.182603
H232	H	0.993911	-0.698902	1.305320
H233	H	0.935076	-0.770609	1.307763
H234	H	0.921670	-0.918920	0.336763
O235	O	0.798845	-0.569621	0.913809
C236	C	0.755921	-0.643674	0.954708
H237	H	0.781761	-0.719031	0.977792
H238	H	0.731982	-0.608989	1.027378
C239	C	0.674726	-0.577068	0.841685
C240	C	0.706463	-0.669627	0.870029
H241	H	0.644216	-0.593074	0.789454
H242	H	0.703644	-0.527174	0.814133
H243	H	0.654782	-0.548173	0.902251
H244	H	0.726412	-0.698512	0.809466
H245	H	0.677547	-0.719526	0.897569
O246	O	0.830357	-0.911737	0.370253
C247	C	0.785344	-0.944662	0.444684
H248	H	0.803147	-1.017600	0.488231
H249	H	0.776617	-0.878291	0.503896
C250	C	0.702051	-0.882175	0.333695
C251	C	0.723914	-0.971764	0.387173
H252	H	0.664156	-0.898888	0.298221
H253	H	0.732376	-0.859988	0.283550
H254	H	0.694783	-0.826874	0.383048
H255	H	0.731188	-1.027058	0.337819
H256	H	0.693588	-0.993961	0.437308
H257	H	0.838863	-1.099405	0.375833
O258	O	1.014862	-1.104975	0.468769
C259	C	1.074114	-1.063858	0.495238
H260	H	1.068097	-0.989286	0.544880
H261	H	1.101403	-1.125238	0.542417
C262	C	1.117495	-1.128357	0.332392
C263	C	1.110104	-1.036760	0.393355
H264	H	1.139697	-1.111645	0.269547
H265	H	1.077577	-1.156062	0.314561
H266	H	1.140233	-1.179498	0.371720
H267	H	1.087360	-0.985626	0.354033
H268	H	1.150020	-1.009046	0.411178
O269	O	1.016683	-0.911245	0.476479
C270	C	1.061467	-0.854339	0.535357
H271	H	1.039454	-0.825148	0.612068
H272	H	1.102725	-0.908076	0.554435
C273	C	1.111427	-0.794874	0.376062
C274	C	1.084389	-0.759013	0.470276
H275	H	1.125569	-0.736075	0.335916
H276	H	1.081257	-0.833215	0.336394
H277	H	1.145805	-0.839655	0.391974
H278	H	1.050007	-0.714244	0.454363
H279	H	1.114554	-0.720662	0.509940
H280	H	0.984927	-0.918776	0.624698
H281	H	0.867990	-0.674578	1.103145
H282	H	0.868021	-0.675178	0.921019
H283	H	0.921279	-0.335608	0.921291
