data_functionalizedCrystal
_audit_creation_method	'MofGen! by Chris Wilmer'
_symmetry_space_group_name_H-M	'P1'
_symmetry_Int_Tables_number	1
_symmetry_cell_setting	triclinic
loop_
_symmetry_equiv_pos_as_xyz
  x,y,z
_cell_length_a	11.792254
_cell_length_b	11.792241
_cell_length_c	7.540329
_cell_angle_alpha	90.001242
_cell_angle_beta	89.999160
_cell_angle_gamma	95.803994
loop_
_atom_site_label
_atom_site_type_symbol
_atom_site_fract_x
_atom_site_fract_y
_atom_site_fract_z
O1	O	-0.155565	1.506913	-0.147291
O2	O	0.177768	1.840247	0.186042
O3	O	0.511101	2.173580	0.519375
O4	O	-0.171598	1.176573	-0.147331
O5	O	0.161735	1.509906	0.186002
O6	O	0.495069	1.843240	0.519336
O7	O	0.001588	1.349752	-0.147318
O8	O	0.334921	1.683086	0.186015
O9	O	0.668255	2.016419	0.519348
O10	O	-0.328751	1.333734	-0.147304
O11	O	0.004582	1.667068	0.186029
O12	O	0.337915	2.000401	0.519363
O13	O	0.001590	1.349742	0.147647
O14	O	0.334923	1.683075	0.480980
O15	O	0.668257	2.016409	0.814313
O16	O	-0.171596	1.176563	0.147634
O17	O	0.161737	1.509896	0.480968
O18	O	0.495071	1.843229	0.814301
O19	O	-0.155563	1.506903	0.147674
O20	O	0.177770	1.840236	0.481007
O21	O	0.511104	2.173570	0.814340
Cu22	Cu	-0.163579	1.341732	0.174587
Cu23	Cu	0.169754	1.675065	0.507920
Cu24	Cu	0.503087	2.008399	0.841253
Cu25	Cu	-0.163582	1.341744	-0.174244
Cu26	Cu	0.169751	1.675078	0.159090
Cu27	Cu	0.503085	2.008411	0.492423
O28	O	-0.328749	1.333724	0.147661
O29	O	0.004584	1.667057	0.480994
O30	O	0.337918	2.000391	0.814328
C31	C	-0.170590	1.134277	0.000146
C32	C	0.162743	1.467610	0.333480
C33	C	0.496077	1.800944	0.666813
C34	C	-0.167576	1.008263	0.000130
C35	C	0.165758	1.341596	0.333464
C36	C	0.499091	1.674930	0.666797
C37	C	-0.162033	0.777551	0.000181
C38	C	0.171301	1.110884	0.333515
C39	C	0.504634	1.444217	0.666848
C40	C	-0.165112	0.905936	0.000153
C41	C	0.168221	1.239269	0.333487
C42	C	0.501554	1.572603	0.666820
C43	C	-0.371041	1.334738	0.000181
C44	C	-0.037708	1.668071	0.333514
C45	C	0.295626	2.001405	0.666847
C46	C	-0.497054	1.337758	0.000187
C47	C	-0.163721	1.671092	0.333520
C48	C	0.169613	2.004425	0.666854
C49	C	-0.599390	1.340212	0.000177
C50	C	-0.266057	1.673546	0.333511
C51	C	0.067276	2.006879	0.666844
C52	C	-0.727777	1.343281	0.000157
C53	C	-0.394444	1.676614	0.333490
C54	C	-0.061110	2.009947	0.666824
C55	C	0.043880	1.348738	0.000158
C56	C	0.377213	1.682071	0.333491
C57	C	0.710546	2.015405	0.666825
C58	C	0.169893	1.345718	0.000140
C59	C	0.503226	1.679051	0.333474
C60	C	0.836559	2.012385	0.666807
C61	C	-0.156571	1.549199	0.000192
C62	C	0.176762	1.882533	0.333526
C63	C	0.510095	2.215866	0.666859
C64	C	-0.159586	1.675213	0.000197
C65	C	0.173748	2.008546	0.333530
C66	C	0.507081	2.341880	0.666863
N67	N	-0.163577	1.341732	0.419935
N68	N	0.169756	1.675065	0.753268
N69	N	0.503090	2.008398	1.086602
N70	N	-0.163575	1.341754	-0.419592
N71	N	0.169758	1.675087	-0.086259
N72	N	0.503091	2.008420	0.247074
