data_functionalizedCrystal
_audit_creation_method	'MofGen! by Chris Wilmer'
_symmetry_space_group_name_H-M	'P1'
_symmetry_Int_Tables_number	1
_symmetry_cell_setting	triclinic
loop_
_symmetry_equiv_pos_as_xyz
  x,y,z
_cell_length_a	17.699083
_cell_length_b	8.559649
_cell_length_c	16.176319
_cell_angle_alpha	89.994559
_cell_angle_beta	89.998611
_cell_angle_gamma	76.530840
loop_
_atom_site_label
_atom_site_type_symbol
_atom_site_fract_x
_atom_site_fract_y
_atom_site_fract_z
O1	O	0.992507	0.202110	-0.068628
O2	O	0.770623	0.228405	-0.068655
O3	O	0.901113	-0.017421	-0.068638
O4	O	0.862017	0.447935	-0.068645
O5	O	0.901098	-0.017436	0.068855
O6	O	0.770608	0.228389	0.068838
O7	O	0.992492	0.202094	0.068865
Cu8	Cu	0.881549	0.215240	0.081406
Cu9	Cu	0.881566	0.215259	-0.081196
O10	O	0.862002	0.447920	0.068849
C11	C	0.742473	0.227455	0.000088
C12	C	0.658616	0.224628	0.000078
C13	C	0.601734	0.368922	0.000076
C14	C	0.522943	0.366257	0.000087
C15	C	0.501037	0.219296	0.000094
C16	C	0.557926	0.074990	0.000098
C17	C	0.636715	0.077657	0.000093
C18	C	0.240179	0.064231	0.000118
C19	C	0.161383	0.061575	0.000121
C20	C	0.126407	0.352831	0.000112
C21	C	0.205196	0.355498	0.000108
C22	C	0.262078	0.211193	0.000116
C23	C	0.347512	0.214085	0.000106
C24	C	0.415605	0.216402	0.000098
C25	C	0.904069	-0.076970	0.000107
C26	C	0.912888	-0.254384	0.000104
C27	C	1.020643	0.203044	0.000120
C28	C	1.104499	0.205871	0.000125
C29	C	0.859047	0.507469	0.000101
C30	C	0.850227	0.684883	0.000099
N31	N	0.881542	0.215226	0.195771
N32	N	0.881580	0.215260	-0.195561
C33	C	0.939336	0.106419	0.239043
C34	C	0.939340	0.106417	0.325590
C35	C	0.881552	0.215232	0.368864
C36	C	0.823752	0.324044	0.325586
C37	C	0.823746	0.324037	0.239041
C38	C	0.823776	0.324074	0.674614
C39	C	0.823789	0.324076	0.761166
C40	C	0.939370	0.106455	0.761164
C41	C	0.939364	0.106447	0.674618
C42	C	0.881562	0.215253	0.631348
C43	C	0.881558	0.215252	0.537504
C44	C	0.881559	0.215242	0.462706
H45	H	0.143552	-0.058106	0.000127
H46	H	0.683029	-0.039842	0.000094
C47	C	0.301814	-0.092610	0.000082
C48	C	0.265761	-0.221877	0.000064
C49	C	0.322519	-0.366390	0.000020
H50	H	0.333306	-0.097860	0.048016
H51	H	0.333272	-0.097715	-0.047884
H52	H	0.234317	-0.216775	0.048026
H53	H	0.234273	-0.216680	-0.047866
H54	H	0.353977	-0.371494	-0.047946
H55	H	0.354008	-0.371623	0.047955
H56	H	0.298065	-0.454114	0.000001
H57	H	0.986422	0.017846	0.639387
H58	H	0.540084	-0.044668	0.000115
C59	C	0.769648	-0.203669	-0.000044
C60	C	0.729361	-0.232476	-0.070775
C61	C	0.655125	-0.129846	-0.070930
H62	H	0.774113	-0.095210	-0.000091
H63	H	0.742147	-0.222993	0.047875
H64	H	0.756855	-0.213139	-0.118682
H65	H	0.724875	-0.340915	-0.070744
H66	H	0.627624	-0.149170	-0.023011
H67	H	0.659598	-0.021393	-0.070975
H68	H	0.627779	-0.149387	-0.118916
C69	C	0.064680	0.509561	-0.000059
C70	C	0.073279	0.598048	-0.070813
C71	C	0.016427	0.742420	-0.071007
H72	H	0.070354	0.570026	0.047828
H73	H	0.014602	0.487000	-0.000097
H74	H	0.123345	0.620613	-0.070767
H75	H	0.067597	0.537631	-0.118710
H76	H	-0.033650	0.719859	-0.071045
H77	H	0.022106	0.802871	-0.023118
H78	H	0.022249	0.802470	-0.119017
H79	H	0.973285	-0.338124	0.000118
C80	C	1.002209	-0.011776	0.807995
C81	C	1.052826	-0.107040	0.751572
C82	C	1.110725	-0.215952	0.794679
H83	H	0.978947	-0.078388	0.841764
H84	H	1.030423	0.045587	0.841734
H85	H	1.024615	-0.164399	0.717847
H86	H	1.076106	-0.040471	0.717801
H87	H	1.138939	-0.158589	0.828418
H88	H	1.087457	-0.282553	0.828447
H89	H	1.145080	-0.280592	0.756403
C90	C	1.002122	-0.011905	0.192213
C91	C	1.052724	-0.107223	0.248637
C92	C	1.110566	-0.216261	0.205531
H93	H	1.030370	0.045312	0.158440
H94	H	0.978784	-0.078455	0.158478
H95	H	1.076061	-0.040681	0.282358
H96	H	1.024499	-0.164474	0.282412
H97	H	1.087227	-0.282811	0.171796
H98	H	1.138808	-0.159031	0.171759
H99	H	1.144902	-0.280957	0.243808
C100	C	0.760982	0.442391	0.627792
C101	C	0.710392	0.537715	0.684217
C102	C	0.652540	0.646747	0.641111
H103	H	0.732727	0.385170	0.594038
H104	H	0.784313	0.508938	0.594039
H105	H	0.687062	0.471177	0.717956
H106	H	0.738624	0.594972	0.717973
H107	H	0.675872	0.713293	0.607358
H108	H	0.624292	0.589512	0.607358
H109	H	0.618213	0.711447	0.679388
H110	H	0.986399	0.017818	0.360821
H111	H	0.776728	0.412689	0.796398
C112	C	0.760989	0.441930	0.372675
C113	C	0.719623	0.356917	0.422391
C114	C	0.661807	0.465464	0.465788
H115	H	0.726489	0.506777	0.334604
H116	H	0.784334	0.508368	0.406475
H117	H	0.696278	0.290506	0.388595
H118	H	0.754102	0.292075	0.460478
H119	H	0.685152	0.531902	0.499588
H120	H	0.627313	0.530305	0.427711
H121	H	0.633738	0.407799	0.499532
C122	C	0.461301	0.523094	0.000042
C123	C	0.497349	0.652366	0.000009
C124	C	0.440589	0.796875	-0.000042
H125	H	0.429811	0.528338	0.047979
H126	H	0.429840	0.528198	-0.047921
H127	H	0.528796	0.647265	0.047966
H128	H	0.528834	0.647176	-0.047925
H129	H	0.409128	0.801978	-0.048005
H130	H	0.409102	0.802101	0.047896
H131	H	0.465039	0.884603	-0.000072
C132	C	0.760955	0.442355	0.192206
C133	C	0.710360	0.537683	0.248625
C134	C	0.652510	0.646708	0.205513
H135	H	0.732704	0.385128	0.158451
H136	H	0.784288	0.508900	0.158453
H137	H	0.687028	0.471147	0.282364
H138	H	0.738588	0.594946	0.282382
H139	H	0.675843	0.713253	0.171760
H140	H	0.624265	0.589467	0.171759
H141	H	0.618179	0.711411	0.243786
H142	H	0.223027	0.475168	0.000099
H143	H	0.619562	0.488595	0.000070
