data_functionalizedCrystal
_audit_creation_method	'MofGen! by Chris Wilmer'
_symmetry_space_group_name_H-M	'P1'
_symmetry_Int_Tables_number	1
_symmetry_cell_setting	triclinic
loop_
_symmetry_equiv_pos_as_xyz
  x,y,z
_cell_length_a	16.992697
_cell_length_b	10.489746
_cell_length_c	16.053948
_cell_angle_alpha	92.855182
_cell_angle_beta	87.287587
_cell_angle_gamma	92.395124
loop_
_atom_site_label
_atom_site_type_symbol
_atom_site_fract_x
_atom_site_fract_y
_atom_site_fract_z
O1	O	-1.038957	0.265523	-0.069308
O2	O	-0.810654	0.262551	-0.069336
O3	O	-0.929999	0.078892	-0.069316
O4	O	-0.919612	0.449182	-0.069329
O5	O	-0.935928	0.089087	0.069541
O6	O	-0.816584	0.272746	0.069520
O7	O	-1.044887	0.275718	0.069548
Zn8	Zn	-0.931677	0.275851	0.091580
Zn9	Zn	-0.923864	0.262418	-0.091369
O10	O	-0.925542	0.459377	0.069527
C11	C	-0.784385	0.263829	0.000088
C12	C	-0.697275	0.252433	0.000078
C13	C	-0.932178	0.036390	0.000112
C14	C	-0.929829	-0.105444	0.000111
C15	C	-0.647657	0.362382	0.000073
C16	C	-0.565810	0.351667	0.000084
C17	C	-0.533583	0.231003	0.000093
C18	C	-0.583208	0.121046	0.000099
C19	C	-0.665054	0.131762	0.000095
C20	C	-0.289735	0.186591	0.000113
C21	C	-0.207883	0.175883	0.000115
C22	C	-0.190491	0.406505	0.000101
C23	C	-0.272338	0.417210	0.000092
C24	C	-0.321956	0.307254	0.000103
N25	N	-0.449923	0.220048	0.000101
N26	N	-0.405615	0.318210	0.000100
C27	C	-0.852502	-0.265031	0.000092
C28	C	-0.888239	-0.189301	-0.068365
C29	C	-0.894103	-0.179289	0.068536
C30	C	-0.961415	-0.282430	-0.068421
C31	C	-0.967272	-0.272420	0.068542
C32	C	-1.003061	-0.196736	0.000068
C33	C	-0.071156	0.274439	0.000118
C34	C	-0.158265	0.285832	0.000111
C35	C	-0.923363	0.501880	0.000097
C36	C	-0.925712	0.643713	0.000093
N37	N	-0.937015	0.285018	0.216438
N38	N	-0.918533	0.253242	-0.216227
C39	C	-0.890880	0.205929	0.260153
C40	C	-0.894633	0.212359	0.347558
C41	C	-0.944526	0.297871	0.391247
C42	C	-0.990663	0.376968	0.347526
C43	C	-0.986905	0.370544	0.260122
C44	C	-0.960911	0.325915	0.652649
C45	C	-0.964668	0.332330	0.740058
C46	C	-0.868636	0.167722	0.740085
C47	C	-0.864886	0.161300	0.652680
C48	C	-0.911019	0.240402	0.608966
N49	N	-0.948366	0.304443	0.480589
N50	N	-0.907175	0.233836	0.519626
H51	H	-0.673889	0.460640	0.000066
H52	H	-1.066766	-0.166721	0.000039
F53	F	-0.173588	0.047450	0.000139
F54	F	-0.342532	0.069563	0.000125
F55	F	-0.548908	-0.007375	0.000114
F56	F	-0.717862	0.014739	0.000102
F57	F	-1.010862	-0.320214	0.144204
H58	H	-0.525413	0.441200	0.000080
F59	F	-0.856921	-0.120464	0.144183
F60	F	-0.769294	-0.304592	-0.000006
F61	F	-0.844615	-0.141548	-0.144026
H62	H	-0.989825	-0.327278	-0.126362
H63	H	-0.850254	0.136292	0.224588
F64	F	-0.845526	0.128186	0.394079
F65	F	-0.811758	0.070323	0.606189
H66	H	-0.831075	0.103324	0.775686
F67	F	-0.306630	0.545637	0.000078
F68	F	-0.137679	0.523520	0.000091
H69	H	-1.005298	0.401970	0.775627
F70	F	-1.009992	0.410133	0.606137
H71	H	-1.031284	0.446600	0.383104
F72	F	-1.036010	0.454719	0.213598
