data_functionalizedCrystal
_audit_creation_method	'MofGen! by Chris Wilmer'
_symmetry_space_group_name_H-M	'P1'
_symmetry_Int_Tables_number	1
_symmetry_cell_setting	triclinic
loop_
_symmetry_equiv_pos_as_xyz
  x,y,z
_cell_length_a	19.188933
_cell_length_b	16.974813
_cell_length_c	16.053802
_cell_angle_alpha	88.912550
_cell_angle_beta	87.428887
_cell_angle_gamma	83.270760
loop_
_atom_site_label
_atom_site_type_symbol
_atom_site_fract_x
_atom_site_fract_y
_atom_site_fract_z
O1	O	0.929536	0.095076	-0.075824
O2	O	1.429536	0.595076	0.424176
O3	O	0.726286	0.108320	-0.076726
O4	O	1.226286	0.608320	0.423274
O5	O	0.833249	-0.013052	-0.068518
O6	O	1.333249	0.486948	0.431482
O7	O	0.822573	0.216448	-0.084032
O8	O	1.322573	0.716448	0.415968
O9	O	0.827361	-0.006399	0.069891
O10	O	1.327361	0.493601	0.569891
O11	O	0.720398	0.114973	0.061683
O12	O	1.220398	0.614973	0.561683
O13	O	0.923648	0.101729	0.062585
O14	O	1.423648	0.601729	0.562585
Zn15	Zn	0.821089	0.109408	0.084109
Zn16	Zn	1.321089	0.609408	0.584109
Zn17	Zn	0.828846	0.100642	-0.098250
Zn18	Zn	1.328846	0.600642	0.401750
O19	O	0.816686	0.223101	0.054377
O20	O	1.316686	0.723101	0.554377
C21	C	0.697329	0.111217	-0.007494
C22	C	1.197329	0.611217	0.492506
C23	C	0.619819	0.109929	-0.007410
C24	C	1.119819	0.609929	0.492590
C25	C	0.829789	-0.039087	0.002670
C26	C	1.329789	0.460913	0.502670
C27	C	0.828245	-0.126575	0.008578
C28	C	1.328245	0.373425	0.508578
C29	C	0.069730	0.097108	-0.082226
C30	C	0.569730	0.597108	0.417774
C31	C	0.142560	0.098314	-0.082311
C32	C	0.642560	0.598314	0.417689
C33	C	0.175771	0.102547	-0.006905
C34	C	0.675771	0.602547	0.493095
C35	C	0.136147	0.105555	0.068592
C36	C	0.636147	0.605555	0.568592
C37	C	0.063320	0.104341	0.068675
C38	C	0.563320	0.604341	0.568675
N39	N	0.282618	0.152000	0.046093
N40	N	0.782618	0.652000	0.546093
N41	N	0.351801	0.153154	0.046008
N42	N	0.851801	0.653154	0.546008
C43	C	0.395196	0.106202	-0.007151
C44	C	0.895196	0.606202	0.492849
N45	N	0.366794	0.058061	-0.060236
N46	N	0.866794	0.558061	0.439764
N47	N	0.297604	0.056910	-0.060154
N48	N	0.797604	0.556910	0.439846
C49	C	0.254740	0.103863	-0.006987
C50	C	0.754740	0.603863	0.493013
C51	C	0.513782	0.104496	-0.082735
C52	C	1.013782	0.604496	0.417265
C53	C	0.586614	0.105697	-0.082816
C54	C	1.086614	0.605697	0.417184
C55	C	0.580198	0.112946	0.068088
C56	C	1.080198	0.612946	0.568088
C57	C	0.507369	0.111737	0.068168
C58	C	1.007369	0.611737	0.568168
C59	C	0.474165	0.107516	-0.007246
C60	C	0.974165	0.607516	0.492754
C61	C	0.830731	-0.171299	-0.064092
C62	C	1.330731	0.328701	0.435908
C63	C	0.829275	-0.253503	-0.058537
C64	C	1.329275	0.246497	0.441463
C65	C	0.825339	-0.290982	0.019688
C66	C	1.325339	0.209018	0.519688
C67	C	0.822851	-0.246251	0.092364
C68	C	1.322851	0.253749	0.592364
C69	C	0.824302	-0.164048	0.086809
C70	C	1.324302	0.335952	0.586809
C71	C	0.820652	-0.536442	0.044393
C72	C	1.320652	-0.036442	0.544393
C73	C	0.819204	-0.618652	0.049943
C74	C	1.319204	-0.118652	0.549943
C75	C	0.825626	-0.625898	-0.100959
C76	C	1.325626	-0.125898	0.399041
C77	C	0.827081	-0.543694	-0.106507
C78	C	1.327081	-0.043694	0.393493
C79	C	0.824589	-0.498970	-0.033831
C80	C	1.324589	0.001030	0.466169
N81	N	0.823854	-0.375007	0.025368
N82	N	1.323854	0.124993	0.525368
N83	N	0.826070	-0.414945	-0.039512
N84	N	1.326070	0.085055	0.460488
C85	C	0.952605	0.098832	-0.006649
C86	C	1.452605	0.598832	0.493351
C87	C	1.030115	0.100120	-0.006739
C88	C	1.530115	0.600120	0.493261
C89	C	0.820145	0.249136	-0.016813
C90	C	1.320145	0.749136	0.483187
C91	C	0.821689	0.336624	-0.022727
C92	C	1.321689	0.836624	0.477273
N93	N	0.815800	0.115390	0.208565
N94	N	1.315800	0.615390	0.708565
N95	N	0.834140	0.094653	-0.222706
N96	N	1.334140	0.594653	0.277294
C97	C	0.861329	0.063764	0.255750
C98	C	1.361329	0.563764	0.755750
C99	C	0.857636	0.067956	0.342874
C100	C	1.357636	0.567956	0.842874
C101	C	0.808416	0.123778	0.382810
C102	C	1.308416	0.623778	0.882810
C103	C	0.762882	0.175406	0.335618
C104	C	1.262882	0.675406	0.835618
C105	C	0.766572	0.171209	0.248497
C106	C	1.266572	0.671209	0.748497
C107	C	0.792296	0.142085	0.642981
C108	C	1.292296	0.642085	1.142981
C109	C	0.788611	0.146279	0.730109
C110	C	1.288611	0.646279	1.230109
C111	C	0.883364	0.038828	0.737359
C112	C	1.383364	0.538828	1.237359
C113	C	0.887053	0.034640	0.650235
C114	C	1.387053	0.534640	1.150235
C115	C	0.841516	0.086265	0.603051
C116	C	1.341516	0.586265	1.103051
N117	N	0.804641	0.128066	0.471863
N118	N	1.304641	0.628066	0.971863
N119	N	0.845288	0.081973	0.513999
N120	N	1.345288	0.581973	1.013999
H121	H	0.042700	0.093668	-0.143634
H122	H	0.542700	0.593668	0.356366
Br123	Br	0.196335	0.094226	-0.184764
Br124	Br	0.696335	0.594226	0.315236
H125	H	0.920437	-0.003204	0.775784
H126	H	1.420437	0.496796	1.275784
Br127	Br	0.953854	-0.041116	0.596034
Br128	Br	1.453854	0.458884	1.096034
Br129	Br	0.832647	-0.314198	-0.157166
Br130	Br	1.332647	0.185802	0.342834
H131	H	0.031065	0.106797	0.130147
H132	H	0.531065	0.606797	0.630147
H133	H	0.748528	0.191739	0.762620
H134	H	1.248528	0.691739	1.262620
H135	H	0.163192	0.109000	0.129988
H136	H	0.663192	0.609000	0.629988
H137	H	0.486746	0.101057	-0.144141
H138	H	0.986746	0.601057	0.355859
Br139	Br	0.928136	-0.011993	0.201561
Br140	Br	1.428136	0.488007	0.701561
Br141	Br	0.832427	-0.492836	-0.212674
Br142	Br	1.332427	0.007164	0.287326
Br143	Br	0.829008	-0.686598	-0.199584
Br144	Br	1.329008	-0.186598	0.300416
H145	H	0.618868	0.103239	-0.144289
H146	H	1.118868	0.603239	0.355711
H147	H	0.722803	0.220855	0.368139
H148	H	1.222803	0.720855	0.868139
Br149	Br	0.813869	-0.669516	0.156114
Br150	Br	1.313869	-0.169516	0.656114
Br151	Br	0.625263	0.118674	0.170428
Br152	Br	1.125263	0.618674	0.670428
H153	H	0.729497	0.213247	0.210079
H154	H	1.229497	0.713247	0.710079
Br155	Br	0.817256	-0.475754	0.143025
Br156	Br	1.317256	0.024246	0.643025
Br157	Br	0.817498	-0.297112	0.198529
Br158	Br	1.317498	0.202888	0.698529
H159	H	0.475113	0.114192	0.129638
H160	H	0.975113	0.614192	0.629638
H161	H	0.833939	-0.140791	-0.127791
H162	H	1.333939	0.359209	0.372209
Br163	Br	0.730500	0.212147	0.578951
Br164	Br	1.230500	0.712147	1.078951
Br165	Br	0.820925	-0.103349	0.185436
Br166	Br	1.320925	0.396651	0.685436
Br167	Br	0.919424	-0.002111	0.406914
Br168	Br	1.419424	0.497889	0.906914
