data_functionalizedCrystal
_audit_creation_method	'MofGen! by Chris Wilmer'
_symmetry_space_group_name_H-M	'P1'
_symmetry_Int_Tables_number	1
_symmetry_cell_setting	triclinic
loop_
_symmetry_equiv_pos_as_xyz
  x,y,z
_cell_length_a	19.076806
_cell_length_b	19.077105
_cell_length_c	18.215399
_cell_angle_alpha	87.683665
_cell_angle_beta	87.669684
_cell_angle_gamma	89.926089
loop_
_atom_site_label
_atom_site_type_symbol
_atom_site_fract_x
_atom_site_fract_y
_atom_site_fract_z
Zn1	Zn	-0.322999	1.063009	-0.447122
Zn2	Zn	-0.440515	1.058203	-0.318909
Zn3	Zn	-0.318293	0.945501	-0.319338
Zn4	Zn	-0.435747	0.940750	-0.437207
O5	O	-0.379389	1.001866	-0.380644
O6	O	-0.342553	1.160703	-0.434085
O7	O	-0.424328	1.043229	-0.215980
O8	O	-0.220582	0.965088	-0.340617
O9	O	-0.428891	1.157172	-0.339887
O10	O	-0.224039	1.051420	-0.434500
O11	O	-0.334532	0.960428	-0.216294
O12	O	-0.329909	0.846539	-0.331003
O13	O	-0.420765	0.956991	-0.541509
O14	O	-0.416202	0.843049	-0.417601
O15	O	-0.337930	1.046814	-0.548793
O16	O	-0.538218	1.038623	-0.330273
O17	O	-0.534715	0.952331	-0.417186
C18	C	-0.372028	0.819298	-0.373273
C19	C	-0.368896	0.741193	-0.370137
C20	C	-0.412421	0.702699	-0.413673
C21	C	-0.409469	0.629312	-0.410730
C22	C	-0.362995	0.594421	-0.364246
C23	C	-0.319466	0.632921	-0.320708
C24	C	-0.322415	0.706307	-0.323655
C25	C	-0.349347	0.375136	-0.350607
C26	C	-0.346403	0.301745	-0.347661
C27	C	-0.436405	0.298140	-0.437685
C28	C	-0.439353	0.371527	-0.440625
C29	C	-0.395821	0.410021	-0.397090
N30	N	-0.359978	0.519408	-0.361234
N31	N	-0.398835	0.485033	-0.400106
C32	C	-0.561965	0.994459	-0.372624
C33	C	-0.640074	0.991355	-0.369220
C34	C	-1.079560	0.969042	-0.344832
C35	C	-1.006168	0.971960	-0.348030
C36	C	-0.971211	1.018337	-0.398544
C37	C	-1.009651	1.061794	-0.445869
C38	C	-1.083041	1.058871	-0.442673
C39	C	-0.751904	1.031890	-0.413349
C40	C	-0.678508	1.034810	-0.416539
C41	C	-0.675031	0.944975	-0.318701
C42	C	-0.748423	0.942060	-0.315507
C43	C	-0.786855	0.985514	-0.362834
N44	N	-0.896193	1.021322	-0.401813
N45	N	-0.861872	0.982524	-0.359568
C46	C	-0.196100	1.009320	-0.388713
C47	C	-0.117994	1.012497	-0.392151
C48	C	-0.379341	1.001909	-0.572601
C49	C	-0.379320	1.001927	-0.654402
C50	C	-0.386778	1.185146	-0.388044
C51	C	-0.389927	1.263250	-0.391198
C52	C	-0.336128	1.048726	-0.923257
C53	C	-0.336147	1.048717	-0.846397
C54	C	-0.422413	0.955189	-0.838801
C55	C	-0.422397	0.955202	-0.915660
C56	C	-0.379251	1.001970	-0.957886
C57	C	-0.379285	1.001948	-0.804167
C58	C	-0.379305	1.001938	-0.720832
C59	C	-0.379231	1.001981	-1.041226
C60	C	-0.379388	1.001865	-0.189438
C61	C	-0.379216	1.001991	-0.107652
H62	H	-0.281623	0.604508	-0.282862
F63	F	-0.468301	0.905439	-0.952516
H64	H	-0.471845	0.266791	-0.473130
F65	F	-0.461888	0.739825	-0.463145
F66	F	-0.488818	0.408655	-0.490098
H67	H	-0.457540	0.917112	-0.804412
H68	H	-0.444912	0.597972	-0.446181
F69	F	-0.641306	1.084175	-0.470304
F70	F	-0.785621	0.892698	-0.261743
F71	F	-0.972445	1.111146	-0.499637
F72	F	-0.296942	0.264613	-0.298180
F73	F	-0.303015	0.416094	-0.304275
H74	H	-0.643732	0.909596	-0.280170
F75	F	-0.792797	1.078132	-0.463724
F76	F	-0.965267	0.925701	-0.297673
F77	F	-0.276089	0.747276	-0.277319
F78	F	-1.123945	1.105121	-0.493038
H79	H	-0.301033	1.086792	-0.818206
F80	F	-1.116757	0.919684	-0.291063
F81	F	-0.290207	1.098499	-0.968195
