data_functionalizedCrystal
_audit_creation_method	'MofGen! by Chris Wilmer'
_symmetry_space_group_name_H-M	'P1'
_symmetry_Int_Tables_number	1
_symmetry_cell_setting	triclinic
loop_
_symmetry_equiv_pos_as_xyz
  x,y,z
_cell_length_a	9.065215
_cell_length_b	10.540539
_cell_length_c	8.140239
_cell_angle_alpha	89.998610
_cell_angle_beta	89.997810
_cell_angle_gamma	84.770094
loop_
_atom_site_label
_atom_site_type_symbol
_atom_site_fract_x
_atom_site_fract_y
_atom_site_fract_z
O1	O	1.959471	0.186126	-0.136586
O2	O	1.530109	0.201398	-0.136592
O3	O	1.754586	0.009092	-0.136587
O4	O	1.734994	0.378432	-0.136591
O5	O	1.754573	0.009089	0.136640
O6	O	1.530097	0.201396	0.136635
O7	O	1.959458	0.186123	0.136641
Zn8	Zn	1.744775	0.193759	0.180019
Zn9	Zn	1.744792	0.193762	-0.179970
O10	O	1.734982	0.378430	0.136636
C11	C	1.475123	0.199930	0.000020
C12	C	1.311302	0.195544	0.000017
C13	C	1.753110	-0.038218	0.000024
C14	C	1.748714	-0.179182	0.000015
C15	C	1.580280	-0.363230	-0.000601
C16	C	1.584736	-0.216596	0.000014
C17	C	1.827621	-0.240550	0.156042
C18	C	1.822025	-0.387115	0.156173
C19	C	1.825374	-0.387619	-0.154537
C20	C	1.826884	-0.240631	-0.156600
C21	C	2.014444	0.187592	0.000025
C22	C	2.178265	0.191978	0.000017
C23	C	1.736457	0.425740	0.000022
C24	C	1.740853	0.566704	0.000020
N25	N	1.744775	0.193756	0.425701
N26	N	1.744804	0.193755	-0.425652
H27	H	1.515510	-0.392068	-0.112491
C28	C	1.446202	-0.257186	-0.242782
C29	C	1.500901	-0.159379	-0.150959
H30	H	1.394431	-0.221862	-0.335979
H31	H	1.526327	-0.315195	-0.277891
H32	H	1.380731	-0.300817	-0.176751
H33	H	1.566381	-0.115753	-0.216986
H34	H	1.420766	-0.101347	-0.115851
H35	H	1.946437	-0.215969	-0.166020
H36	H	1.772308	-0.419366	-0.272795
H37	H	1.948042	-0.217752	0.161845
H38	H	1.522202	-0.175071	0.112045
C39	C	1.701563	-0.316489	0.406922
C40	C	1.743269	-0.425484	0.313607
H41	H	1.652931	-0.340174	0.504110
H42	H	1.787196	-0.275699	0.435424
H43	H	1.636255	-0.259685	0.344522
H44	H	1.808586	-0.482284	0.376003
H45	H	1.657624	-0.466293	0.285108
H46	H	1.769149	-0.199985	-0.272024
C47	C	1.983005	-0.583359	-0.161889
C48	C	1.985262	-0.450786	-0.155976
H49	H	2.081709	-0.622356	-0.162779
H50	H	1.932501	-0.611310	-0.068235
H51	H	1.933293	-0.606319	-0.258683
H52	H	2.034965	-0.427824	-0.059175
H53	H	2.035787	-0.422824	-0.249638
C54	C	1.483817	-0.536119	0.144179
C55	C	1.493186	-0.404320	0.149605
H56	H	1.430061	-0.561486	0.236919
H57	H	1.434340	-0.557387	0.046489
H58	H	1.580702	-0.578870	0.145476
H59	H	1.396300	-0.361569	0.148295
H60	H	1.542660	-0.383040	0.247320
C61	C	2.081208	-0.357669	0.171369
C62	C	1.981219	-0.451294	0.165762
H63	H	2.179484	-0.397288	0.177305
H64	H	2.070577	-0.306659	0.075167
H65	H	2.061389	-0.305576	0.265456
H66	H	2.001031	-0.503381	0.071667
H67	H	1.991857	-0.502325	0.261973
H68	H	1.772798	-0.198154	0.272151
