data_functionalizedCrystal
_audit_creation_method	'MofGen! by Chris Wilmer'
_symmetry_space_group_name_H-M	'P1'
_symmetry_Int_Tables_number	1
_symmetry_cell_setting	triclinic
loop_
_symmetry_equiv_pos_as_xyz
  x,y,z
_cell_length_a	18.760492
_cell_length_b	12.477989
_cell_length_c	12.477989
_cell_angle_alpha	89.511470
_cell_angle_beta	64.367972
_cell_angle_gamma	64.367773
loop_
_atom_site_label
_atom_site_type_symbol
_atom_site_fract_x
_atom_site_fract_y
_atom_site_fract_z
Zr1	Zr	0.849018	-0.193202	0.984888
O2	O	0.971336	-0.345139	0.832952
O3	O	0.708397	-0.146620	1.031470
O4	O	0.839867	-0.358149	1.044481
O5	O	0.853467	0.033241	0.809673
O6	O	0.853467	-0.368417	1.211332
O7	O	0.839867	-0.133610	0.819942
O8	O	0.618292	0.009969	1.188058
O9	O	1.088642	-0.345145	0.832947
O10	O	0.783165	-0.134423	1.175850
O11	O	0.783165	-0.002240	1.043667
O12	O	0.937953	-0.251288	1.058985
O13	O	0.937953	-0.119105	0.926803
Zr14	Zr	0.892400	0.056530	1.234620
Zr15	Zr	0.870709	-0.209578	1.250997
Zr16	Zr	0.870709	0.072907	0.968511
Zr17	Zr	1.036107	-0.193211	0.984880
Zr18	Zr	0.705311	0.056540	1.234629
O19	O	1.033021	0.009948	1.188039
O20	O	1.002179	-0.368424	1.211325
O21	O	1.002178	0.033234	0.809666
O22	O	0.770082	0.208467	1.386556
O23	O	0.739239	-0.169905	1.409842
O24	O	0.739239	0.231752	1.008183
O25	O	0.887951	-0.169913	1.409835
O26	O	0.901551	0.221477	1.175028
O27	O	0.887951	0.231745	1.008176
O28	O	0.901551	-0.003061	1.399567
O29	O	1.105884	-0.358162	1.044468
O30	O	0.635534	0.221490	1.175041
O31	O	0.652776	0.208473	1.386562
O32	O	0.635534	-0.003048	1.399579
O33	O	1.105884	-0.133624	0.819929
O34	O	1.123126	-0.146641	1.031450
O35	O	0.803465	0.114616	1.160523
O36	O	0.803465	-0.017566	1.292706
O37	O	0.958253	-0.134431	1.175841
O38	O	0.958253	-0.002249	1.043659
C39	C	0.636688	-0.068324	1.109765
C40	C	0.557264	-0.068320	1.109769
C41	C	0.843576	-0.047851	0.776893
C42	C	0.834368	-0.040899	0.663922
C43	C	0.897841	0.264526	1.089269
C44	C	0.907050	0.377496	1.082316
C45	C	0.221464	0.000652	1.040741
C46	C	0.221469	-0.137349	1.178742
C47	C	0.296086	-0.137342	1.178751
C48	C	0.333396	-0.068339	1.109752
C49	C	0.296090	0.000658	1.040745
C50	C	0.333403	-0.206347	1.247747
C51	C	0.408025	-0.206345	1.247758
C52	C	0.445333	-0.137333	1.178765
C53	C	0.408022	-0.068333	1.109756
C54	C	0.445332	0.000671	1.040758
C55	C	0.408018	0.069679	0.971754
C56	C	0.333398	0.069669	0.971752
C57	C	0.519953	-0.137324	1.178768
C58	C	0.519957	0.000677	1.040762
C59	C	1.104730	-0.068347	1.109743
C60	C	1.184154	-0.068351	1.109739
C61	C	0.843576	-0.401197	1.130240
C62	C	0.834368	-0.514168	1.137192
C63	C	0.897842	-0.088820	1.442616
C64	C	0.907050	-0.095773	1.555586
C65	C	0.663821	-0.088809	1.442627
C66	C	0.593605	-0.095757	1.555601
C67	C	0.663821	0.264537	1.089280
C68	C	0.593605	0.377512	1.082331
C69	C	0.690954	0.244053	1.422141
C70	C	0.629946	0.350075	1.528163
C71	C	1.050464	-0.380725	0.797367
C72	C	1.111472	-0.486746	0.691346
C73	C	1.077597	-0.047863	0.776881
C74	C	1.147813	-0.040915	0.663907
C75	C	1.077597	-0.401209	1.130229
C76	C	1.147813	-0.514183	1.137177
C77	C	0.550034	-0.160029	1.547658
C78	C	0.484066	-0.166582	1.653800
C79	C	0.461666	-0.108855	1.767884
C80	C	0.505245	-0.044581	1.775825
C81	C	0.571216	-0.038036	1.669684
C82	C	0.571228	0.491574	1.140065
C83	C	0.505264	0.597736	1.133530
C84	C	0.461673	0.589832	1.069269
C85	C	0.484055	0.475757	1.011528
C86	C	0.550023	0.369598	1.018056
C87	C	0.601297	0.330865	1.646961
C88	C	0.543985	0.430473	1.746590
C89	C	0.515317	0.549290	1.727419
C90	C	0.543972	0.568498	1.608608
C91	C	0.601289	0.468891	1.508982
C92	C	1.140129	-0.467537	0.572548
C93	C	1.197465	-0.567145	0.472918
C94	C	1.226137	-0.685961	0.492090
C95	C	1.197477	-0.705169	0.610900
C96	C	1.140148	-0.605562	0.710527
C97	C	1.191391	0.023346	0.671851
C98	C	1.257377	0.029870	0.565711
C99	C	1.279779	-0.027861	0.451627
C100	C	1.236197	-0.092130	0.443686
C101	C	1.170217	-0.098660	0.549826
C102	C	1.191384	-0.506240	1.201449
C103	C	1.257353	-0.612382	1.208002
C104	C	1.279752	-0.726466	1.150275
C105	C	1.236174	-0.734407	1.086001
C106	C	1.170202	-0.628266	1.079456
H107	H	0.550329	0.056870	0.984576
Br108	Br	1.236395	-0.866429	0.636898
H109	H	1.333506	-0.022534	0.365211
Br110	Br	1.303943	-0.821131	0.356868
Br111	Br	1.111083	-0.639068	0.992211
Br112	Br	0.372146	0.733918	1.060421
Br113	Br	1.101257	-0.631655	0.871750
H114	H	1.220790	-0.551482	0.376187
H115	H	1.173158	-0.413357	1.248458
H116	H	0.438409	0.125855	0.915570
Br117	Br	1.161008	0.101703	0.826666
Br118	Br	1.022519	0.366943	0.995153
Br119	Br	0.282744	0.163331	0.878130
Br120	Br	0.424887	0.465050	0.924320
H121	H	0.976321	-0.148079	0.549261
H122	H	0.765097	0.492158	1.189494
Br123	Br	0.630338	0.049206	1.680486
Br124	Br	0.630370	0.502335	1.227292
Br125	Br	0.718900	0.046269	0.674475
Br126	Br	0.580379	0.214803	0.939698
Br127	Br	0.640197	0.169625	1.673013
H128	H	1.333473	-0.812884	1.155613
H129	H	0.568269	-0.207054	1.454776
H130	H	0.191078	0.056841	0.984564
H131	H	0.520659	0.414812	1.843322
H132	H	0.468646	0.630386	1.808552
H133	H	0.448591	-0.218920	1.647311
Br134	Br	1.316486	-0.601576	1.295230
H135	H	0.407946	-0.114192	1.854301
Br136	Br	1.111077	-0.185873	0.539022
H137	H	1.254422	-0.827309	1.039002
Br138	Br	0.170842	-0.231006	1.272364
H139	H	0.520622	0.665251	1.593016
H140	H	1.254447	-0.139132	0.350785
H141	H	0.303027	-0.262535	1.303917
H142	H	0.486997	0.002417	1.868726
Br143	Br	0.640158	0.494983	1.347758
Br144	Br	1.101228	-0.306297	0.546495
H145	H	0.438401	-0.262533	1.303945
Br146	Br	0.570598	-0.230980	1.272396
H147	H	0.487049	0.690610	1.180555
Br148	Br	1.316509	0.117100	0.576516
