data_functionalizedCrystal
_audit_creation_method	'MofGen! by Chris Wilmer'
_symmetry_space_group_name_H-M	'P1'
_symmetry_Int_Tables_number	1
_symmetry_cell_setting	triclinic
loop_
_symmetry_equiv_pos_as_xyz
  x,y,z
_cell_length_a	14.044220
_cell_length_b	14.519709
_cell_length_c	13.596369
_cell_angle_alpha	89.998664
_cell_angle_beta	89.998669
_cell_angle_gamma	88.434511
loop_
_atom_site_label
_atom_site_type_symbol
_atom_site_fract_x
_atom_site_fract_y
_atom_site_fract_z
O1	O	-1.258086	-0.222362	0.081691
O2	O	-0.924753	0.110971	0.415024
O3	O	-0.591420	0.444304	0.748358
O4	O	-0.982103	-0.214338	0.081716
O5	O	-0.648770	0.118995	0.415049
O6	O	-0.315437	0.452328	0.748382
O7	O	-1.127412	-0.084702	0.081694
O8	O	-0.794079	0.248631	0.415027
O9	O	-0.460745	0.581965	0.748360
O10	O	-1.112778	-0.351999	0.081713
O11	O	-0.779444	-0.018665	0.415046
O12	O	-0.446111	0.314668	0.748380
O13	O	-1.127394	-0.084708	-0.081889
O14	O	-0.794061	0.248625	0.251444
O15	O	-0.460728	0.581958	0.584778
O16	O	-0.982086	-0.214345	-0.081867
O17	O	-0.648752	0.118989	0.251466
O18	O	-0.315419	0.452322	0.584799
O19	O	-1.258068	-0.222369	-0.081892
O20	O	-0.924735	0.110965	0.251441
O21	O	-0.591402	0.444298	0.584775
Zn22	Zn	-1.120074	-0.218358	-0.107852
Zn23	Zn	-0.786741	0.114976	0.225481
Zn24	Zn	-0.453407	0.448309	0.558815
Zn25	Zn	-1.120098	-0.218349	0.107676
Zn26	Zn	-0.786764	0.114984	0.441009
Zn27	Zn	-0.453431	0.448317	0.774342
O28	O	-1.112760	-0.352005	-0.081870
O29	O	-0.779426	-0.018672	0.251463
O30	O	-0.446093	0.314662	0.584797
C31	C	-1.126721	-0.050290	-0.000098
C32	C	-0.793388	0.283043	0.333236
C33	C	-0.460054	0.616376	0.666569
C34	C	-1.124677	0.052256	-0.000098
C35	C	-0.791344	0.385589	0.333235
C36	C	-0.458011	0.718922	0.666569
C37	C	-0.946774	-0.210829	-0.000073
C38	C	-0.613441	0.122504	0.333261
C39	C	-0.280107	0.455838	0.666594
C40	C	-0.841531	-0.200352	-0.000064
C41	C	-0.508197	0.132982	0.333270
C42	C	-0.174864	0.466315	0.666603
C43	C	-1.293398	-0.225878	-0.000101
C44	C	-0.960064	0.107455	0.333232
C45	C	-0.626731	0.440789	0.666565
C46	C	-1.398641	-0.236355	-0.000104
C47	C	-1.065308	0.096978	0.333229
C48	C	-0.731975	0.430311	0.666563
C49	C	-0.648837	-0.181197	-0.000084
C50	C	-0.315503	0.152136	0.333249
C51	C	0.017830	0.485469	0.666582
C52	C	-0.591329	-0.255505	-0.000083
C53	C	-0.257996	0.077828	0.333250
C54	C	0.075337	0.411161	0.666583
C55	C	-0.484108	-0.244848	-0.000095
C56	C	-0.150775	0.088486	0.333238
C57	C	0.182559	0.421819	0.666572
C58	C	-0.756068	-0.191854	-0.000073
C59	C	-0.422735	0.141480	0.333261
C60	C	-0.089402	0.474813	0.666594
C61	C	-1.113451	-0.386417	-0.000076
C62	C	-0.780117	-0.053083	0.333257
C63	C	-0.446784	0.280250	0.666590
C64	C	-1.115494	-0.488963	-0.000070
C65	C	-0.782161	-0.155629	0.333264
C66	C	-0.448828	0.177704	0.666597
N67	N	-1.120065	-0.218363	-0.254944
N68	N	-0.786732	0.114970	0.078390
N69	N	-0.453398	0.448303	0.411723
C70	C	-1.117153	0.427758	-0.000072
C71	C	-0.783820	0.761092	0.333261
C72	C	-0.450487	1.094425	0.666595
C73	C	-1.119243	0.323282	-0.000079
C74	C	-0.785909	0.656615	0.333254
C75	C	-0.452576	0.989949	0.666587
C76	C	-1.120915	0.240010	-0.000086
C77	C	-0.787582	0.573344	0.333247
C78	C	-0.454248	0.906677	0.666581
C79	C	-1.123005	0.135527	-0.000092
C80	C	-0.789672	0.468861	0.333242
C81	C	-0.456338	0.802194	0.666575
C82	C	-1.120070	-0.218366	-0.343942
C83	C	-0.786736	0.114967	-0.010608
C84	C	-0.453403	0.448301	0.322725
C85	C	-1.120079	-0.218360	-0.455593
C86	C	-0.786746	0.114973	-0.122260
C87	C	-0.453412	0.448306	0.211074
C88	C	-1.120091	-0.218351	-0.544583
C89	C	-0.786758	0.114982	-0.211250
C90	C	-0.453425	0.448316	0.122083
C91	C	-1.120102	-0.218346	-0.656242
C92	C	-0.786769	0.114987	-0.322909
C93	C	-0.453435	0.448320	0.010425
N94	N	-1.120114	-0.218337	0.254767
N95	N	-0.786781	0.114996	0.588101
N96	N	-0.453448	0.448330	0.921434
H97	H	-0.622622	-0.327127	-0.000073
H98	H	-0.289289	0.006206	0.333260
H99	H	0.044045	0.339540	0.666593
Br100	Br	-0.596683	-0.061830	-0.000098
Br101	Br	-0.263350	0.271504	0.333236
Br102	Br	0.069983	0.604837	0.666569
