data_functionalizedCrystal
_audit_creation_method	'MofGen! by Chris Wilmer'
_symmetry_space_group_name_H-M	'P1'
_symmetry_Int_Tables_number	1
_symmetry_cell_setting	triclinic
loop_
_symmetry_equiv_pos_as_xyz
  x,y,z
_cell_length_a	14.519731
_cell_length_b	17.038272
_cell_length_c	13.596369
_cell_angle_alpha	89.993837
_cell_angle_beta	89.994584
_cell_angle_gamma	87.400204
loop_
_atom_site_label
_atom_site_type_symbol
_atom_site_fract_x
_atom_site_fract_y
_atom_site_fract_z
O1	O	1.231705	0.102582	-0.081795
O2	O	0.964153	0.114636	-0.081796
O3	O	1.096339	-0.005209	-0.081788
O4	O	1.099519	0.222427	-0.081803
O5	O	1.096324	-0.005215	0.081795
O6	O	0.964138	0.114629	0.081787
O7	O	1.231690	0.102576	0.081788
Zn8	Zn	1.097912	0.108602	0.107760
Zn9	Zn	1.097931	0.108610	-0.107768
O10	O	1.099505	0.222421	0.081780
C11	C	0.929743	0.114068	-0.000005
C12	C	0.827233	0.112375	-0.000005
C13	C	0.743984	0.111000	-0.000009
C14	C	0.639544	0.109282	-0.000010
C15	C	0.556300	0.107918	-0.000009
C16	C	0.451854	0.106200	-0.000011
C17	C	1.093439	-0.034345	0.000004
C18	C	1.084809	-0.121153	0.000003
C19	C	1.164041	-0.171133	0.000005
C20	C	1.155927	-0.252698	-0.000005
C21	C	1.068580	-0.284280	-0.000008
C22	C	0.989342	-0.234293	-0.000013
C23	C	0.997457	-0.152730	-0.000011
C24	C	1.039911	-0.530086	-0.000022
C25	C	1.031802	-0.611655	-0.000021
C26	C	1.198388	-0.630054	-0.000015
C27	C	1.206496	-0.548489	-0.000007
C28	C	1.127257	-0.498509	-0.000016
C29	C	1.060284	-0.367651	-0.000015
C30	C	1.135554	-0.415140	-0.000017
C31	C	1.266100	0.103144	-0.000005
C32	C	1.368610	0.104836	-0.000011
C33	C	1.102404	0.251557	-0.000014
C34	C	1.111034	0.338364	-0.000020
N35	N	1.097906	0.108595	0.254852
N36	N	1.097945	0.108610	-0.254860
C37	C	1.097930	0.108611	0.656143
C38	C	1.097921	0.108609	0.544491
C39	C	1.097918	0.108604	0.455501
C40	C	1.097908	0.108601	0.343842
H41	H	1.235169	-0.145426	0.000014
O42	O	0.920585	-0.104064	-0.000052
C43	C	0.946476	-0.025304	-0.000027
H44	H	1.019170	-0.022070	-0.030994
H45	H	0.944822	-0.001727	0.078452
C46	C	0.789511	0.020545	-0.026148
C47	C	0.878793	0.024516	-0.064190
H48	H	0.747759	0.051278	-0.065722
H49	H	0.772067	-0.032518	-0.026161
H50	H	0.788146	0.040190	0.039250
H51	H	0.880160	0.004862	-0.129582
H52	H	0.896236	0.077577	-0.064189
O53	O	1.291416	-0.517943	-0.000043
C54	C	1.359611	-0.579549	-0.000015
H55	H	1.329417	-0.634988	-0.030995
H56	H	1.384341	-0.591063	0.078467
C57	C	1.478567	-0.488308	-0.026101
C58	C	1.441485	-0.556398	-0.064159
H59	H	1.529073	-0.474027	-0.065665
H60	H	1.432624	-0.446802	-0.026117
H61	H	1.499169	-0.497912	0.039299
H62	H	1.420873	-0.546790	-0.129554
H63	H	1.487427	-0.597901	-0.064156
O64	O	0.975488	-0.398426	-0.000141
C65	C	0.965812	-0.445030	-0.084876
H66	H	1.036917	-0.465225	-0.113128
H67	H	0.927831	-0.409053	-0.144197
C68	C	0.823165	-0.492452	-0.024443
C69	C	0.910498	-0.517262	-0.059137
H70	H	0.789042	-0.537007	-0.008569
H71	H	0.829682	-0.461052	0.032643
H72	H	0.791527	-0.462471	-0.073883
H73	H	0.942139	-0.547234	-0.009694
H74	H	0.903985	-0.548669	-0.116215
O75	O	1.275261	-0.678716	-0.000058
C76	C	1.249374	-0.757479	-0.000037
H77	H	1.176686	-0.760709	-0.031005
H78	H	1.251016	-0.781069	0.078441
C79	C	1.406346	-0.803316	-0.026156
C80	C	1.317072	-0.807284	-0.064200
H81	H	1.448106	-0.834040	-0.065731
H82	H	1.423788	-0.750253	-0.026167
H83	H	1.407701	-0.822973	0.039241
H84	H	1.315716	-0.787617	-0.129591
H85	H	1.299631	-0.860345	-0.064201
O86	O	1.232988	-0.301137	0.000047
C87	C	1.311822	-0.255772	0.000035
H88	H	1.293181	-0.194937	0.031005
H89	H	1.338311	-0.249919	-0.078440
C90	C	1.410231	-0.371022	0.026158
C91	C	1.387337	-0.296305	0.064203
H92	H	1.456814	-0.396025	0.065736
H93	H	1.357120	-0.401586	0.026163
H94	H	1.432300	-0.366134	-0.039237
H95	H	1.365258	-0.301195	0.129592
H96	H	1.440447	-0.265743	0.064211
H97	H	0.975389	-0.489401	-0.000030
O98	O	0.946929	-0.642300	-0.000208
C99	C	0.898247	-0.616756	-0.084924
H100	H	0.949221	-0.599708	-0.144133
H101	H	0.851009	-0.563681	-0.065778
C102	C	0.777412	-0.704515	-0.050626
C103	C	0.840021	-0.683583	-0.123350
H104	H	0.741492	-0.745735	-0.074327
H105	H	0.810208	-0.721723	0.006451
H106	H	0.738057	-0.660281	-0.034677
H107	H	0.879382	-0.727815	-0.139288
H108	H	0.807230	-0.666385	-0.180431
O109	O	0.904543	-0.265062	-0.000148
C110	C	0.894865	-0.311669	-0.084881
H111	H	0.965969	-0.331874	-0.113125
H112	H	0.856894	-0.275691	-0.144207
C113	C	0.752205	-0.359071	-0.024455
C114	C	0.839537	-0.383893	-0.059140
H115	H	0.718073	-0.403620	-0.008580
H116	H	0.758723	-0.327669	0.032629
H117	H	0.720575	-0.329088	-0.073899
H118	H	0.871170	-0.413866	-0.009692
H119	H	0.833023	-0.415302	-0.116216
H120	H	1.206672	-0.389422	-0.000035
