data_functionalizedCrystal
_audit_creation_method	'MofGen! by Chris Wilmer'
_symmetry_space_group_name_H-M	'P1'
_symmetry_Int_Tables_number	1
_symmetry_cell_setting	triclinic
loop_
_symmetry_equiv_pos_as_xyz
  x,y,z
_cell_length_a	19.121063
_cell_length_b	12.759401
_cell_length_c	12.759393
_cell_angle_alpha	90.020566
_cell_angle_beta	92.404035
_cell_angle_gamma	87.532891
loop_
_atom_site_label
_atom_site_type_symbol
_atom_site_fract_x
_atom_site_fract_y
_atom_site_fract_z
Zn1	Zn	-0.279612	-1.588330	-0.611802
Zn2	Zn	0.220388	-1.088330	-0.111802
Zn3	Zn	-0.397079	-1.580686	-0.443597
Zn4	Zn	0.102921	-1.080686	0.056403
Zn5	Zn	-0.279643	-1.412627	-0.436140
Zn6	Zn	0.220357	-0.912627	0.063860
Zn7	Zn	-0.397023	-1.405089	-0.619232
Zn8	Zn	0.102977	-0.905089	-0.119232
O9	O	-0.338339	-1.496683	-0.527693
O10	O	0.161661	-0.996683	-0.027693
O11	O	-0.295205	-1.734336	-0.589501
O12	O	0.204795	-1.234336	-0.089501
O13	O	-0.381537	-1.558348	-0.295589
O14	O	0.118463	-1.058348	0.204411
O15	O	-0.181355	-1.442288	-0.453212
O16	O	0.318645	-0.942288	0.046788
O17	O	-0.381507	-1.728720	-0.465921
O18	O	0.118493	-1.228720	0.034079
O19	O	-0.181332	-1.571376	-0.582270
O20	O	0.318668	-1.071376	-0.082270
O21	O	-0.295257	-1.434875	-0.290111
O22	O	0.204743	-0.934875	0.209889
O23	O	-0.295203	-1.264606	-0.460417
O24	O	0.204797	-0.764606	0.039583
O25	O	-0.381412	-1.429441	-0.765265
O26	O	0.118588	-0.929441	-0.265265
O27	O	-0.381441	-1.259068	-0.594933
O28	O	0.118559	-0.759068	-0.094933
O29	O	-0.295151	-1.564067	-0.759807
O30	O	0.204849	-1.064067	-0.259807
O31	O	-0.495355	-1.551039	-0.473125
O32	O	0.004645	-1.051039	0.026875
O33	O	-0.495314	-1.422028	-0.602163
O34	O	0.004686	-0.922028	-0.102163
C35	C	-0.338320	-1.223717	-0.527673
C36	C	0.161680	-0.723717	-0.027673
C37	C	-0.338329	-1.106939	-0.527690
C38	C	0.161671	-0.606939	-0.027690
C39	C	-0.293471	-1.054997	-0.592146
C40	C	0.206529	-0.554997	-0.092146
C41	C	-0.293475	-0.945273	-0.592151
C42	C	0.206525	-0.445273	-0.092151
C43	C	-0.383201	-0.939442	-0.463243
C44	C	0.116799	-0.439442	0.036757
C45	C	-0.383193	-1.049165	-0.463232
C46	C	0.116807	-0.549165	0.036768
C47	C	-0.520819	-1.484915	-0.539283
C48	C	-0.020819	-0.984915	-0.039283
C49	C	-0.598884	-1.479976	-0.544276
C50	C	-0.098884	-0.979976	-0.044276
C51	C	-0.635558	-1.544877	-0.479494
C52	C	-0.135558	-1.044877	0.020506
C53	C	-0.708909	-1.540239	-0.484197
C54	C	-0.208909	-1.040239	0.015803
C55	C	-0.745585	-1.470694	-0.553676
C56	C	-0.245585	-0.970694	-0.053676
C57	C	-0.708906	-1.405790	-0.618465
C58	C	-0.208906	-0.905790	-0.118465
C59	C	-0.635557	-1.410434	-0.613767
C60	C	-0.135557	-0.910434	-0.113767
C61	C	-0.967053	-1.453313	-0.571224
C62	C	-0.467053	-0.953313	-0.071224
C63	C	-1.040408	-1.448671	-0.575914
C64	C	-0.540408	-0.948671	-0.075914
C65	C	-1.040405	-1.583122	-0.441647
C66	C	-0.540405	-1.083122	0.058353
C67	C	-0.967054	-1.587755	-0.436951
C68	C	-0.467054	-1.087755	0.063049
C69	C	-0.930382	-1.522856	-0.501743
C70	C	-0.430382	-1.022856	-0.001743
C71	C	-0.820561	-1.465949	-0.558482
C72	C	-0.320561	-0.965949	-0.058482
C73	C	-0.855407	-1.527607	-0.496942
C74	C	-0.355407	-1.027607	0.003058
C75	C	-0.155147	-1.508525	-0.516081
C76	C	0.344853	-1.008525	-0.016081
C77	C	-0.077081	-1.513572	-0.511132
C78	C	0.422919	-1.013572	-0.011132
C79	C	-0.338272	-1.496766	-0.801722
C80	C	0.161728	-0.996766	-0.301722
C81	C	-0.338243	-1.496801	-0.918497
C82	C	0.161757	-0.996801	-0.418497
C83	C	-0.338352	-0.770715	-0.527710
C84	C	0.161648	-0.270715	-0.027710
C85	C	-0.338341	-0.887492	-0.527706
C86	C	0.161659	-0.387492	-0.027706
C87	C	-0.293320	-1.566906	-0.970518
C88	C	0.206680	-1.066906	-0.470518
C89	C	-0.293289	-1.566926	-1.080240
C90	C	0.206711	-1.066926	-0.580240
C91	C	-0.383112	-1.426732	-1.085911
C92	C	0.116888	-0.926732	-0.585911
C93	C	-0.383138	-1.426708	-0.976191
C94	C	0.116862	-0.926708	-0.476191
C95	C	-0.338355	-1.496664	-0.254727
C96	C	0.161645	-0.996664	0.245273
C97	C	-0.338186	-1.496845	-0.137940
C98	C	0.161814	-0.996845	0.362060
H99	H	-0.605701	-1.601504	-0.422912
H100	H	-0.105701	-1.101504	0.077088
H101	H	-0.256707	-1.624011	-1.122590
H102	H	0.243293	-1.124011	-0.622590
H103	H	-0.419665	-1.369666	-1.132899
H104	H	0.080335	-0.869666	-0.632899
H105	H	-0.738774	-1.349169	-0.675041
H106	H	-0.238774	-0.849169	-0.175041
O107	O	-0.431580	-1.351058	-0.920086
O108	O	0.068420	-0.851058	-0.420086
H109	H	-0.486705	-1.365494	-0.944624
H110	H	0.013295	-0.865494	-0.444624
O111	O	-0.245075	-1.117317	-0.661648
O112	O	0.254925	-0.617317	-0.161648
H113	H	-0.213877	-1.062760	-0.706459
H114	H	0.286123	-0.562760	-0.206459
H115	H	-0.738765	-1.593087	-0.431444
H116	H	-0.238765	-1.093087	0.068556
O117	O	-0.927496	-1.662774	-0.362022
O118	O	-0.427496	-1.162774	0.137978
H119	H	-0.965321	-1.707135	-0.317772
H120	H	-0.465321	-1.207135	0.182228
O121	O	-0.431590	-0.877128	-0.393724
O122	O	0.068410	-0.377128	0.106276
H123	H	-0.467370	-0.824865	-0.442933
H124	H	0.032630	-0.324865	0.057067
O125	O	-1.079956	-1.653149	-0.371795
O126	O	-0.579956	-1.153149	0.128205
H127	H	-1.137123	-1.638254	-0.386745
H128	H	-0.637123	-1.138254	0.113255
H129	H	-0.605698	-1.357586	-0.666521
H130	H	-0.105698	-0.857586	-0.166521
O131	O	-0.244893	-1.642500	-0.908295
O132	O	0.255107	-1.142500	-0.408295
H133	H	-0.276345	-1.693918	-0.860317
H134	H	0.223655	-1.193918	-0.360317
O135	O	-0.245095	-0.889245	-0.661673
O136	O	0.254905	-0.389245	-0.161673
H137	H	-0.213902	-0.947857	-0.706493
H138	H	0.286098	-0.447857	-0.206493
H139	H	-1.070267	-1.392052	-0.632511
H140	H	-0.570267	-0.892052	-0.132511
O141	O	-0.431574	-1.105201	-0.393706
O142	O	0.068426	-0.605201	0.106294
H143	H	-0.462779	-1.046594	-0.348896
H144	H	0.037221	-0.546594	0.151104
O145	O	-0.927503	-1.383285	-0.641071
O146	O	-0.427503	-0.883285	-0.141071
H147	H	-0.965331	-1.334130	-0.690153
H148	H	-0.465331	-0.834130	-0.190153
H149	H	-0.825543	-1.584235	-0.440376
H150	H	-0.325543	-1.084235	0.059624
O151	O	-0.860126	-1.390923	-0.633397
O152	O	-0.360126	-0.890923	-0.133397
H153	H	-0.893498	-1.435799	-0.689023
H154	H	-0.393498	-0.935799	-0.189023
