data_functionalizedCrystal
_audit_creation_method	'MofGen! by Chris Wilmer'
_symmetry_space_group_name_H-M	'P1'
_symmetry_Int_Tables_number	1
_symmetry_cell_setting	triclinic
loop_
_symmetry_equiv_pos_as_xyz
  x,y,z
_cell_length_a	10.654562
_cell_length_b	10.654550
_cell_length_c	14.586319
_cell_angle_alpha	89.997374
_cell_angle_beta	89.993678
_cell_angle_gamma	84.487503
loop_
_atom_site_label
_atom_site_type_symbol
_atom_site_fract_x
_atom_site_fract_y
_atom_site_fract_z
O1	O	1.667830	0.176473	-0.076298
O2	O	1.302354	0.193263	-0.076287
O3	O	1.493495	0.002129	-0.076289
O4	O	1.476689	0.367607	-0.076295
O5	O	1.493482	0.002126	0.076192
O6	O	1.302340	0.193260	0.076194
O7	O	1.667817	0.176470	0.076183
Cu8	Cu	1.485077	0.184865	0.090111
Cu9	Cu	1.485093	0.184868	-0.090215
O10	O	1.476676	0.367604	0.076185
C11	C	1.255549	0.192025	-0.000045
C12	C	1.116107	0.188327	-0.000040
C13	C	1.050569	0.186600	0.083070
C14	C	0.919547	0.183135	0.083055
C15	C	0.919611	0.183129	-0.083188
C16	C	1.050632	0.186585	-0.083172
C17	C	1.116044	0.188342	0.166202
C18	C	1.050505	0.186617	0.249319
C19	C	0.919483	0.183152	0.249303
C20	C	0.853999	0.181412	0.166171
C21	C	1.492254	-0.044671	-0.000050
C22	C	1.488563	-0.184114	-0.000053
C23	C	1.601103	-0.263595	-0.000054
C24	C	1.597627	-0.394615	-0.000060
C25	C	1.369059	-0.366662	-0.000061
C26	C	1.372537	-0.235644	-0.000061
C27	C	1.717129	-0.212064	-0.000046
C28	C	1.829680	-0.291546	-0.000045
C29	C	1.826203	-0.422567	-0.000052
C30	C	1.710176	-0.474106	-0.000058
C31	C	1.714621	0.177708	-0.000061
C32	C	1.854064	0.181406	-0.000072
C33	C	1.477916	0.414403	-0.000056
C34	C	1.481608	0.553847	-0.000059
N35	N	1.485075	0.184861	0.216943
N36	N	1.485105	0.184861	-0.217047
C37	C	1.569741	0.100256	0.451948
C38	C	1.569745	0.100253	0.547929
C39	C	1.400430	0.269471	0.547941
C40	C	1.400422	0.269466	0.451962
C41	C	1.485084	0.184861	0.403968
C42	C	1.485096	0.184862	0.595928
C43	C	1.485100	0.184859	0.699996
C44	C	1.485080	0.184862	0.299894
H45	H	0.747312	0.178588	0.166166
N46	N	1.661067	0.009011	0.599677
H47	H	1.648227	0.021845	0.667763
H48	H	1.645790	-0.080222	0.582905
N49	N	1.121119	0.188488	0.338981
H50	H	1.184976	0.112211	0.342698
H51	H	1.165900	0.267693	0.342637
H52	H	1.924144	-0.249574	-0.000063
H53	H	1.222728	0.191167	0.166223
N54	N	0.848793	0.181274	0.338944
H55	H	0.910157	0.182901	0.391606
H56	H	0.784934	0.257556	0.342555
N57	N	1.251167	-0.149893	-0.000035
H58	H	1.247518	-0.094898	-0.056555
H59	H	1.177196	-0.202488	0.000008
N60	N	0.848989	0.181251	-0.172847
H61	H	0.756043	0.178802	-0.160245
H62	H	0.862412	0.259573	-0.209146
H63	H	1.638677	0.031364	0.412874
N64	N	1.121332	0.188441	-0.172810
H65	H	1.059974	0.186823	-0.225476
H66	H	1.166206	0.267593	-0.176426
H67	H	1.719973	-0.105382	-0.000038
N68	N	1.706422	-0.615421	-0.000078
H69	H	1.795323	-0.657956	-0.000082
H70	H	1.660654	-0.641398	0.056448
N71	N	1.947587	-0.508297	-0.000060
H72	H	2.021611	-0.455767	-0.000054
H73	H	1.951111	-0.563271	0.056466
N74	N	1.309096	0.360720	0.400211
H75	H	1.324331	0.449997	0.416903
H76	H	1.321975	0.347768	0.332142
H77	H	1.274595	-0.408637	-0.000065
N78	N	1.309120	0.360720	0.599706
H79	H	1.321971	0.347889	0.667790
H80	H	1.324398	0.449952	0.582921
