data_functionalizedCrystal
_audit_creation_method	'MofGen! by Chris Wilmer'
_symmetry_space_group_name_H-M	'P1'
_symmetry_Int_Tables_number	1
_symmetry_cell_setting	triclinic
loop_
_symmetry_equiv_pos_as_xyz
  x,y,z
_cell_length_a	18.101395
_cell_length_b	12.827893
_cell_length_c	12.827885
_cell_angle_alpha	90.020999
_cell_angle_beta	89.967625
_cell_angle_gamma	89.970686
loop_
_atom_site_label
_atom_site_type_symbol
_atom_site_fract_x
_atom_site_fract_y
_atom_site_fract_z
Zn1	Zn	-0.294829	-1.597556	-0.590878
Zn2	Zn	-0.418688	-1.597402	-0.416130
Zn3	Zn	-0.294861	-1.422797	-0.416146
Zn4	Zn	-0.418629	-1.422734	-0.590825
O5	O	-0.356752	-1.510122	-0.503495
O6	O	-0.311270	-1.743771	-0.567713
O7	O	-0.402301	-1.574202	-0.269896
O8	O	-0.191224	-1.446070	-0.439354
O9	O	-0.402269	-1.743658	-0.439326
O10	O	-0.191200	-1.574464	-0.567728
O11	O	-0.311325	-1.445920	-0.269908
O12	O	-0.311268	-1.276553	-0.439302
O13	O	-0.402169	-1.445963	-0.737068
O14	O	-0.402200	-1.276507	-0.567638
O15	O	-0.311213	-1.574403	-0.737107
O16	O	-0.522313	-1.574141	-0.439275
O17	O	-0.522270	-1.445814	-0.567623
C18	C	-0.356732	-1.238612	-0.503467
C19	C	-0.356741	-1.122459	-0.503480
C20	C	-0.401815	-0.950635	-0.566896
C21	C	-0.401806	-1.070685	-0.566885
C22	C	-0.549163	-1.509982	-0.503464
C23	C	-0.631477	-1.510018	-0.503486
C24	C	-0.930568	-1.510247	-0.503542
C25	C	-0.899246	-1.429695	-0.584495
C26	C	-0.813628	-1.429312	-0.584242
C27	C	-0.782185	-1.510134	-0.503515
C28	C	-0.813343	-1.480314	-0.393380
C29	C	-0.898988	-1.479795	-0.393864
C30	C	-0.898912	-1.620796	-0.531755
C31	C	-0.813261	-1.620146	-0.534170
C32	C	-0.698326	-1.510071	-0.503493
C33	C	-1.014427	-1.510307	-0.503557
C34	C	-0.163590	-1.510291	-0.503549
C35	C	-0.081276	-1.510363	-0.503572
C36	C	-0.356681	-1.510193	-0.776065
C37	C	-0.356651	-1.510224	-0.892218
C38	C	-0.356767	-0.782692	-0.503515
C39	C	-0.356758	-0.898845	-0.503503
C40	C	-0.311634	-1.573787	-0.944022
C41	C	-0.311602	-1.573820	-1.064073
C42	C	-0.356769	-1.510111	-0.231985
C43	C	-0.356591	-1.510284	-0.115832
H44	H	-0.440399	-0.906097	-0.621174
O45	O	-0.310827	-1.069301	-0.438602
C46	C	-0.352984	-1.006096	-0.371086
H47	H	-0.411283	-1.039015	-0.364471
H48	H	-0.326142	-1.004740	-0.290725
H49	H	-0.355616	-0.923426	-0.403464
H50	H	-0.440377	-1.115223	-0.621163
H51	H	-0.273064	-1.628242	-1.108623
H52	H	-0.792559	-1.447969	-0.665906
H53	H	-0.792978	-1.537139	-0.331419
H54	H	-0.919789	-1.448166	-0.666424
H55	H	-0.791958	-1.400359	-0.369053
O56	O	-0.310626	-0.951853	-0.438789
C57	C	-0.236818	-0.925334	-0.461803
H58	H	-0.235270	-0.846081	-0.501918
H59	H	-0.203548	-0.921693	-0.386461
H60	H	-0.211955	-0.986783	-0.515637
O61	O	-0.925031	-1.332590	-0.562312
C62	C	-0.971298	-1.337139	-0.473975
H63	H	-0.956961	-1.409089	-0.425921
H64	H	-0.962930	-1.264215	-0.424564
H65	H	-1.031415	-1.341789	-0.500008
O66	O	-0.402611	-1.445504	-1.062582
C67	C	-0.450435	-1.505004	-0.999462
H68	H	-0.424315	-1.584232	-0.983237
H69	H	-0.460327	-1.462484	-0.922656
H70	H	-0.505332	-1.516410	-1.041449
O71	O	-0.402525	-1.445180	-0.945282
C72	C	-0.386372	-1.341010	-0.918664
H73	H	-0.327237	-1.335746	-0.888604
H74	H	-0.392682	-1.289463	-0.990486
H75	H	-0.426134	-1.313585	-0.855380
O76	O	-0.789347	-1.331488	-0.562064
C77	C	-0.815590	-1.261519	-0.638281
H78	H	-0.867004	-1.295371	-0.676794
H79	H	-0.829981	-1.183936	-0.599928
H80	H	-0.771009	-1.248669	-0.699752
O81	O	-0.922943	-1.383458	-0.365192
C82	C	-0.966364	-1.391591	-0.274277
H83	H	-0.951303	-1.466154	-0.230867
H84	H	-0.955595	-1.321432	-0.221882
H85	H	-1.027303	-1.393764	-0.296564
O86	O	-0.923693	-1.546618	-0.319324
C87	C	-0.897515	-1.514341	-0.220981
H88	H	-0.883962	-1.427603	-0.223529
H89	H	-0.941811	-1.529054	-0.159524
H90	H	-0.845605	-1.560263	-0.200367
O91	O	-0.924650	-1.653055	-0.625971
C92	C	-0.971741	-1.576165	-0.667836
H93	H	-0.958034	-1.497349	-0.631626
H94	H	-0.963643	-1.571951	-0.755872
H95	H	-1.031623	-1.597019	-0.649866
H96	H	-0.919167	-1.680811	-0.472794
O97	O	-0.788866	-1.646846	-0.630853
C98	C	-0.743929	-1.566415	-0.670675
H99	H	-0.720746	-1.518463	-0.603397
H100	H	-0.696460	-1.601780	-0.717231
H101	H	-0.778241	-1.513964	-0.723596
H102	H	-0.791853	-1.683337	-0.479506
O103	O	-0.265648	-1.638540	-0.890797
C104	C	-0.217856	-1.579013	-0.827686
H105	H	-0.243980	-1.499774	-0.811430
H106	H	-0.208009	-1.621496	-0.750895
H107	H	-0.162934	-1.567635	-0.869698
