data_functionalizedCrystal
_audit_creation_method	'MofGen! by Chris Wilmer'
_symmetry_space_group_name_H-M	'P1'
_symmetry_Int_Tables_number	1
_symmetry_cell_setting	triclinic
loop_
_symmetry_equiv_pos_as_xyz
  x,y,z
_cell_length_a	23.532407
_cell_length_b	9.065218
_cell_length_c	7.540329
_cell_angle_alpha	90.001757
_cell_angle_beta	89.997614
_cell_angle_gamma	83.932281
loop_
_atom_site_label
_atom_site_type_symbol
_atom_site_fract_x
_atom_site_fract_y
_atom_site_fract_z
O1	O	-0.756573	-0.179072	-0.147254
O2	O	-0.590900	-0.204983	-0.147305
O3	O	-0.677161	0.022784	-0.147275
O4	O	-0.670312	-0.406838	-0.147285
O5	O	-0.677156	0.022786	0.147690
O6	O	-0.590895	-0.204980	0.147660
O7	O	-0.756568	-0.179069	0.147711
Cu8	Cu	-0.673731	-0.192024	0.174618
Cu9	Cu	-0.673737	-0.192028	-0.174213
O10	O	-0.670307	-0.406836	0.147680
C11	C	-0.676500	0.077739	0.000204
C12	C	-0.674532	0.241485	0.000195
C13	C	-0.569676	-0.204321	0.000170
C14	C	-0.506445	-0.202338	0.000151
C15	C	-0.777791	-0.179731	0.000231
C16	C	-0.841023	-0.181714	0.000239
C17	C	-0.108240	-0.324683	0.000228
C18	C	-0.048826	-0.322840	0.000239
O19	O	-0.012914	-0.436255	0.000301
N20	N	-0.025206	-0.187433	0.000239
C21	C	-0.061003	-0.053860	0.000247
O22	O	-0.035456	0.061484	0.000249
C23	C	-0.120415	-0.055704	0.000248
C24	C	-0.144032	-0.191120	0.000230
C25	C	-0.131857	-0.460088	0.000212
C26	C	-0.191267	-0.461930	0.000198
C27	C	-0.227059	-0.328367	0.000200
C28	C	-0.203442	-0.192962	0.000216
C29	C	-0.156211	0.077867	0.000268
C30	C	-0.215627	0.076011	0.000271
C31	C	-0.239244	-0.059405	0.000253
C32	C	-0.298644	-0.061242	0.000204
N33	N	-0.322264	-0.196649	0.000204
C34	C	-0.286472	-0.330211	0.000202
C35	C	0.063768	-0.049997	0.000246
C36	C	0.123180	-0.048151	0.000231
C37	C	0.135352	-0.317131	0.000228
C38	C	0.075939	-0.318976	0.000229
C39	C	0.040148	-0.185404	0.000246
C40	C	-0.411237	-0.334070	0.000171
C41	C	-0.470653	-0.335900	0.000149
C42	C	-0.482820	-0.066921	0.000162
C43	C	-0.423410	-0.065089	0.000174
C44	C	-0.387619	-0.198676	0.000185
O45	O	-0.334591	0.052114	0.000149
O46	O	-0.312027	-0.445536	0.000223
C47	C	-0.670968	-0.461791	0.000197
C48	C	-0.672936	-0.625537	0.000195
N49	N	-0.673731	-0.192021	0.419966
N50	N	-0.673742	-0.192019	-0.419561
H51	H	-0.489878	-0.446177	0.000133
O52	O	-0.400399	0.066360	0.000415
C53	C	-0.366419	0.075495	0.153220
H54	H	-0.352233	-0.040994	0.204149
H55	H	-0.392330	0.141146	0.260184
C56	C	-0.330888	0.297223	0.044300
C57	C	-0.313460	0.154148	0.106842
H58	H	-0.298221	0.345745	0.015696
H59	H	-0.353782	0.291073	-0.058646
H60	H	-0.352480	0.351913	0.133447
H61	H	-0.291874	0.099455	0.017688
H62	H	-0.290560	0.160291	0.209772
H63	H	-0.511972	0.041822	0.000157
H64	H	-0.382103	-0.442849	0.000184
H65	H	-0.210490	-0.572199	0.000183
H66	H	-0.102721	-0.568857	0.000217
O67	O	0.170069	-0.446974	0.000476
C68	C	0.159265	-0.529222	0.153264
H69	H	0.114394	-0.492336	0.204186
H70	H	0.191854	-0.509521	0.260241
C71	C	0.219168	-0.740810	0.044321
C72	C	0.164053	-0.695515	0.106856
H73	H	0.222124	-0.843388	0.015700
H74	H	0.226449	-0.685397	-0.058612
H75	H	0.246319	-0.724380	0.133479
H76	H	0.136904	-0.711928	0.017691
H77	H	0.156768	-0.750935	0.209774
H78	H	-0.244767	0.184784	0.000286
O79	O	0.052932	-0.450423	0.000455
C80	C	0.018941	-0.459568	0.153244
H81	H	0.004751	-0.343081	0.204186
H82	H	0.044845	-0.525224	0.260207
C83	C	-0.016581	-0.681291	0.044266
C84	C	-0.034014	-0.538220	0.106827
H85	H	-0.049246	-0.729813	0.015639
H86	H	0.006320	-0.675135	-0.058668
H87	H	0.005005	-0.735986	0.133414
H88	H	-0.055594	-0.483523	0.017672
H89	H	-0.056921	-0.544369	0.209745
H90	H	0.142403	0.062118	0.000218
H91	H	-0.136993	0.188137	0.000284
H92	H	0.034629	0.058781	0.000243
