data_functionalizedCrystal
_audit_creation_method	'MofGen! by Chris Wilmer'
_symmetry_space_group_name_H-M	'P1'
_symmetry_Int_Tables_number	1
_symmetry_cell_setting	triclinic
loop_
_symmetry_equiv_pos_as_xyz
  x,y,z
_cell_length_a	10.654550
_cell_length_b	19.288865
_cell_length_c	18.366186
_cell_angle_alpha	90.011479
_cell_angle_beta	89.987444
_cell_angle_gamma	96.189425
loop_
_atom_site_label
_atom_site_type_symbol
_atom_site_fract_x
_atom_site_fract_y
_atom_site_fract_z
O1	O	1.665761	-0.097556	-0.060619
O2	O	1.300084	-0.106850	-0.060608
O3	O	1.493489	-0.001142	-0.060599
O4	O	1.472356	-0.203264	-0.060628
O5	O	1.493456	-0.001136	0.060500
O6	O	1.300051	-0.106845	0.060491
O7	O	1.665728	-0.097550	0.060481
Zn8	Zn	1.482884	-0.102196	0.079713
Zn9	Zn	1.482928	-0.102204	-0.079841
O10	O	1.472323	-0.203258	0.060472
C11	C	1.253284	-0.106165	-0.000057
C12	C	1.113884	-0.104123	-0.000052
C13	C	1.492792	0.024742	-0.000047
C14	C	1.490751	0.101859	-0.000041
N15	N	1.482864	-0.102191	0.188604
C16	C	1.033066	-0.166362	-0.000071
C17	C	0.902087	-0.164440	-0.000084
C18	C	0.932756	-0.038033	-0.000060
C19	C	1.063733	-0.039956	-0.000043
C20	C	1.015359	-0.239343	-0.000088
C21	C	0.884379	-0.237420	-0.000100
C22	C	1.712528	-0.098235	-0.000072
C23	C	1.851928	-0.100277	-0.000082
C24	C	1.473020	-0.229142	-0.000082
C25	C	1.475061	-0.306259	-0.000093
C26	C	1.604232	0.145812	-0.000041
C27	C	1.602315	0.218272	-0.000052
C28	C	1.486909	0.246775	-0.000049
C29	C	1.373413	0.202812	-0.000054
C30	C	1.375334	0.130354	-0.000049
C31	C	1.396176	0.355658	0.042372
C32	C	1.394260	0.428115	0.042372
C33	C	1.480980	0.470259	-0.000065
C34	C	1.569638	0.439939	-0.042494
C35	C	1.571559	0.367481	-0.042490
C36	C	1.484814	0.325343	-0.000054
C37	C	1.592390	0.592782	-0.000079
C38	C	1.590467	0.665243	-0.000095
C39	C	1.361562	0.649781	-0.000089
C40	C	1.363488	0.577322	-0.000080
C41	C	1.478905	0.548827	-0.000072
N42	N	1.482958	-0.102203	-0.188732
C43	C	1.568532	-0.055407	0.226708
C44	C	1.568540	-0.055404	0.302936
C45	C	1.482892	-0.102197	0.341057
C46	C	1.397208	-0.148985	0.302944
C47	C	1.397194	-0.148982	0.226717
C48	C	1.466081	-0.165375	0.461809
C49	C	1.466104	-0.165379	0.538034
C50	C	1.482928	-0.102206	0.576164
C51	C	1.499755	-0.039027	0.538061
C52	C	1.499741	-0.039024	0.461835
C53	C	1.482897	-0.102205	0.423712
C54	C	1.568609	-0.055415	0.696924
C55	C	1.568608	-0.055411	0.773153
C56	C	1.397282	-0.148998	0.773159
C57	C	1.397277	-0.148996	0.696931
C58	C	1.482947	-0.102205	0.658818
H59	H	0.891906	0.014210	-0.000064
H60	H	1.682881	0.701030	-0.000098
C61	C	1.432813	-0.290271	0.530350
C62	C	1.447607	-0.234823	0.579913
H63	H	1.421386	-0.333143	0.556205
H64	H	1.505928	-0.289243	0.500606
H65	H	1.361077	-0.286035	0.500634
H66	H	1.519349	-0.239056	0.609626
H67	H	1.374485	-0.235852	0.609670
H68	H	1.638286	-0.017306	0.195679
C69	C	0.923612	-0.298974	-0.110014
C70	C	0.827253	-0.274542	-0.068524
H71	H	0.888343	-0.321888	-0.152254
H72	H	0.965411	-0.330814	-0.081857
H73	H	0.982422	-0.260787	-0.124078
H74	H	0.768448	-0.312730	-0.054454
H75	H	0.785434	-0.242699	-0.096686
H76	H	1.279449	0.226024	-0.000053
C77	C	1.256980	0.753985	-0.000093
C78	C	1.234704	0.681104	-0.000088
H79	H	1.178659	0.773323	-0.000091
H80	H	1.303695	0.769020	-0.042322
H81	H	1.303677	0.769040	0.042138
H82	H	1.188015	0.666048	-0.042322
H83	H	1.187970	0.666063	0.042146
C84	C	1.739210	0.073289	-0.062292
C85	C	1.731098	0.114491	-0.000042
H86	H	1.817530	0.053950	-0.062291
H87	H	1.733717	0.101227	-0.104515
H88	H	1.671895	0.036739	-0.062282
H89	H	1.798408	0.151044	-0.000055
H90	H	1.736603	0.086552	0.042191
C91	C	1.732907	0.308743	0.062204
C92	C	1.727061	0.266598	-0.000047
H93	H	1.809917	0.338578	0.062205
H94	H	1.728886	0.280162	0.104426
H95	H	1.663890	0.336081	0.062192
H96	H	1.796072	0.239256	-0.000032
H97	H	1.731094	0.295182	-0.042280
C98	C	1.018765	-0.242808	0.130572
C99	C	1.054129	-0.277865	0.068325
H100	H	1.042709	-0.266588	0.172805
H101	H	0.929903	-0.241507	0.130558
H102	H	1.059720	-0.196556	0.130572
H103	H	1.013166	-0.324116	0.068322
H104	H	1.143008	-0.279174	0.068340
H105	H	1.643745	0.342797	-0.077038
H106	H	1.452360	-0.216821	0.430769
H107	H	1.640254	0.474252	-0.077051
C108	C	1.174823	0.435650	0.067002
C109	C	1.296806	0.461438	0.089007
H110	H	1.114659	0.456224	0.095792
H111	H	1.163565	0.386472	0.073077
H112	H	1.163513	0.446777	0.017216
H113	H	1.308120	0.450307	0.138793
H114	H	1.308069	0.510627	0.082939
H115	H	1.325554	0.321350	0.076934
H116	H	1.686369	0.569580	-0.000075
C117	C	1.179598	-0.188648	0.326451
C118	C	1.303060	-0.200419	0.344845
H119	H	1.121472	-0.220398	0.352323
H120	H	1.167334	-0.195346	0.275607
H121	H	1.166253	-0.142220	0.338962
H122	H	1.316408	-0.246846	0.332329
H123	H	1.315330	-0.193727	0.395701
C124	C	0.760570	-0.215650	0.105060
C125	C	0.822070	-0.267179	0.070479
H126	H	0.722114	-0.234017	0.148637
H127	H	0.697718	-0.201066	0.073606
H128	H	0.820177	-0.176924	0.116401
H129	H	0.762461	-0.305903	0.059133
H130	H	0.884929	-0.281773	0.101940
H131	H	1.271079	0.541534	-0.000076
H132	H	1.050531	-0.262583	-0.052375
H133	H	1.638303	-0.017305	0.333966
H134	H	1.513440	0.012419	0.430814
C135	C	1.148881	0.122351	-0.000044
C136	C	1.250586	0.082036	-0.000042
H137	H	1.071868	0.092519	-0.000034
H138	H	1.152902	0.150919	-0.042275
H139	H	1.152889	0.150948	0.042185
H140	H	1.246583	0.053442	-0.042275
H141	H	1.246563	0.053455	0.042193
H142	H	1.513454	0.012415	0.569105
H143	H	1.638363	-0.017312	0.665891
C144	C	1.322763	-0.268845	0.203233
C145	C	1.303032	-0.200416	0.184828
H146	H	1.264636	-0.300598	0.177367
H147	H	1.310503	-0.275537	0.254079
H148	H	1.406529	-0.276809	0.190722
H149	H	1.219268	-0.192450	0.197344
H150	H	1.315281	-0.193722	0.133970
H151	H	1.638365	-0.017309	0.804178
C152	C	1.226319	-0.163194	0.858905
C153	C	1.303133	-0.200433	0.815052
H154	H	1.168196	-0.194950	0.884773
H155	H	1.181316	-0.134056	0.829182
H156	H	1.277353	-0.135332	0.892508
H157	H	1.252099	-0.228292	0.781445
H158	H	1.348139	-0.229584	0.844778
C159	C	1.322859	-0.268860	0.673446
C160	C	1.303122	-0.200432	0.655042
H161	H	1.264731	-0.300614	0.647582
H162	H	1.310605	-0.275552	0.724293
H163	H	1.406624	-0.276823	0.660932
H164	H	1.219359	-0.192467	0.667561
H165	H	1.315365	-0.193737	0.604184
H166	H	1.129532	0.010725	-0.000017
