data_functionalizedCrystal
_audit_creation_method	'MofGen! by Chris Wilmer'
_symmetry_space_group_name_H-M	'P1'
_symmetry_Int_Tables_number	1
_symmetry_cell_setting	triclinic
loop_
_symmetry_equiv_pos_as_xyz
  x,y,z
_cell_length_a	12.645331
_cell_length_b	19.077114
_cell_length_c	19.077174
_cell_angle_alpha	85.340755
_cell_angle_beta	87.684354
_cell_angle_gamma	87.672623
loop_
_atom_site_label
_atom_site_type_symbol
_atom_site_fract_x
_atom_site_fract_y
_atom_site_fract_z
Zn1	Zn	1.627424	0.296698	-0.409870
Zn2	Zn	2.127424	0.796698	0.090130
Zn3	Zn	1.613598	0.409853	-0.296717
Zn4	Zn	2.113598	0.909853	0.203283
Zn5	Zn	1.443312	0.291981	-0.291998
Zn6	Zn	1.943312	0.791981	0.208002
Zn7	Zn	1.443238	0.414546	-0.414561
Zn8	Zn	1.943238	0.914546	0.085439
O9	O	1.531893	0.353269	-0.353286
O10	O	2.031893	0.853269	0.146714
O11	O	1.773937	0.311718	-0.394871
O12	O	2.273937	0.811718	0.105129
O13	O	1.585254	0.390279	-0.197443
O14	O	2.085254	0.890279	0.302557
O15	O	1.473553	0.193958	-0.303695
O16	O	1.973553	0.693958	0.196305
O17	O	1.763779	0.394852	-0.311739
O18	O	2.263779	0.894852	0.188261
O19	O	1.608819	0.197423	-0.390295
O20	O	2.108819	0.697423	0.109705
O21	O	1.460146	0.303679	-0.193975
O22	O	1.960146	0.803679	0.306025
O23	O	1.294955	0.308230	-0.308244
O24	O	1.794955	0.808230	0.191756
O25	O	1.473426	0.402851	-0.512587
O26	O	1.973426	0.902851	-0.012587
O27	O	1.294900	0.398278	-0.398292
O28	O	1.794900	0.898278	0.101708
O29	O	1.608746	0.316269	-0.509140
O30	O	2.108746	0.816269	-0.009140
O31	O	1.585181	0.509125	-0.316288
O32	O	2.085181	1.009125	0.183712
O33	O	1.460019	0.512573	-0.402868
O34	O	1.960019	1.012573	0.097132
C35	C	1.256463	0.353252	-0.353265
C36	C	1.756463	0.853252	0.146735
C37	C	1.138633	0.353262	-0.353274
C38	C	1.638633	0.853262	0.146726
C39	C	1.521121	0.536428	-0.360615
C40	C	2.021121	1.036428	0.139385
C41	C	1.516612	0.614785	-0.363773
C42	C	2.016612	1.114785	0.136227
C43	C	1.542620	0.360610	-0.537157
C44	C	2.042620	0.860610	-0.037157
C45	C	1.547191	0.363738	-0.615512
C46	C	2.047191	0.863738	-0.115512
C47	C	0.971100	0.296375	-0.296916
C48	C	1.471100	0.796375	0.203084
C49	C	1.093638	0.296507	-0.296683
C50	C	1.593638	0.796507	0.203317
C51	C	1.088602	0.426708	-0.335957
C52	C	1.588602	0.926708	0.164043
C53	C	0.965999	0.426395	-0.335575
C54	C	1.465999	0.926395	0.164425
C55	C	0.976907	0.337418	-0.427186
C56	C	1.476907	0.837418	0.072814
C57	C	1.099585	0.335743	-0.426705
C58	C	1.599585	0.835743	0.073295
C59	C	1.808398	0.353288	-0.353308
C60	C	2.308398	0.853288	0.146692
C61	C	1.926228	0.353295	-0.353317
C62	C	2.426228	0.853295	0.146683
C63	C	1.579713	0.649780	-0.320217
C64	C	2.079713	1.149780	0.179783
C65	C	1.575478	0.723405	-0.323192
C66	C	2.075478	1.223405	0.176808
C67	C	1.508135	0.762033	-0.369720
C68	C	2.008135	1.262033	0.130280
C69	C	1.445031	0.727033	-0.413281
C70	C	1.945031	1.227033	0.086719
C71	C	1.449272	0.653410	-0.410309
C72	C	1.949272	1.153410	0.089691
C73	C	1.488461	0.982419	-0.383441
C74	C	1.988461	1.482419	0.116559
C75	C	1.484222	1.056047	-0.386409
C76	C	1.984222	1.556047	0.113591
C77	C	1.614671	1.052414	-0.296320
C78	C	2.114671	1.552414	0.203680
C79	C	1.618902	0.978789	-0.293349
C80	C	2.118902	1.478789	0.206651
C81	C	1.555802	0.943795	-0.336913
C82	C	2.055802	1.443795	0.163087
N83	N	1.503802	0.837290	-0.372761
N84	N	2.003802	1.337290	0.127239
N85	N	1.560141	0.868540	-0.333876
N86	N	2.060141	1.368540	0.166124
C87	C	1.542728	1.169397	-0.345954
C88	C	2.042728	1.669397	0.154046
C89	C	1.547324	1.091042	-0.342852
C90	C	2.047324	1.591042	0.157148
C91	C	1.484205	0.320120	-0.650517
C92	C	1.984205	0.820120	-0.150517
C93	C	1.488495	0.323065	-0.724140
C94	C	1.988495	0.823065	-0.224140
C95	C	1.555779	0.369624	-0.762756
C96	C	2.055779	0.869624	-0.262756
C97	C	1.618768	0.413246	-0.727746
C98	C	2.118768	0.913246	-0.227746
C99	C	1.614471	0.410305	-0.654125
C100	C	2.114471	0.910305	-0.154125
C101	C	1.575609	0.383261	-0.983135
C102	C	2.075609	0.883261	-0.483135
C103	C	1.579904	0.386198	-1.056761
C104	C	2.079904	0.886198	-0.556761
C105	C	1.449630	0.296017	-1.053150
C106	C	1.949630	0.796017	-0.553150
C107	C	1.445343	0.293076	-0.979528
C108	C	1.945343	0.793076	-0.479528
C109	C	1.508328	0.336701	-0.944524
C110	C	2.008328	0.836701	-0.444524
N111	N	1.560169	0.372634	-0.838011
N112	N	2.060169	0.872634	-0.338011
N113	N	1.503932	0.333694	-0.869271
N114	N	2.003932	0.833694	-0.369271
C115	C	1.521272	0.345907	-0.170129
C116	C	2.021272	0.845907	0.329871
C117	C	1.516918	0.342580	-0.091767
C118	C	2.016918	0.842580	0.408233
H119	H	1.127690	0.241950	-0.307195
H120	H	1.627690	0.741950	0.192805
C121	C	1.371329	0.241866	-0.937052
C122	C	1.871329	0.741866	-0.437052
H123	H	1.377798	0.246357	-0.888192
H124	H	1.877798	0.746357	-0.388192
H125	H	1.300197	0.252659	-0.949523
H126	H	1.800197	0.752659	-0.449523
H127	H	1.390348	0.194981	-0.947228
H128	H	1.890348	0.694981	-0.447228
H129	H	1.437081	0.953933	-0.418911
H130	H	1.937081	1.453933	0.081089
C131	C	1.653914	0.437416	-1.099241
C132	C	2.153914	0.937416	-0.599241
H133	H	1.647459	0.432912	-1.148100
H134	H	2.147459	0.932912	-0.648100
H135	H	1.634900	0.484299	-1.089069
H136	H	2.134900	0.984299	-0.589069
H137	H	1.725050	0.426621	-1.086768
H138	H	2.225050	0.926621	-0.586768
C139	C	0.940815	0.266543	-0.449238
C140	C	1.440815	0.766543	0.050762
H141	H	0.894497	0.245970	-0.413595
H142	H	1.394497	0.745970	0.086405
H143	H	0.904797	0.274066	-0.492100
H144	H	1.404797	0.774066	0.007900
H145	H	1.000892	0.235859	-0.455605
H146	H	1.500892	0.735859	0.044395
C147	C	1.692786	0.464457	-0.770218
C148	C	2.192786	0.964457	-0.270218
H149	H	1.729678	0.490016	-0.738824
H150	H	2.229678	0.990016	-0.238824
H151	H	1.742241	0.438638	-0.797862
H152	H	2.242241	0.938638	-0.297862
H153	H	1.652099	0.496322	-0.800163
H154	H	2.152099	0.996322	-0.300163
H155	H	1.390204	0.758490	-0.451168
H156	H	1.890204	1.258490	0.048832
H157	H	1.665769	0.445817	-0.625624
H158	H	2.165769	0.945817	-0.125624
C159	C	1.144409	0.262751	-0.444423
C160	C	1.644409	0.762751	0.055577
H161	H	1.186750	0.243031	-0.407232
H162	H	1.686750	0.743031	0.092768
H163	H	1.087665	0.232829	-0.450149
H164	H	1.587665	0.732829	0.049851
H165	H	1.186492	0.267366	-0.486818
H166	H	1.686492	0.767366	0.013182
C167	C	1.684082	1.090908	-0.248410
C168	C	2.184082	1.590908	0.251590
H169	H	1.671921	1.140288	-0.256846
H170	H	2.171921	1.640288	0.243154
H171	H	1.666560	1.076980	-0.200550
H172	H	2.166560	1.576980	0.299450
H173	H	1.756602	1.079213	-0.258290
H174	H	2.256602	1.579213	0.241710
H175	H	0.945589	0.241647	-0.307285
H176	H	1.445589	0.741647	0.192715
H177	H	1.626884	0.418791	-0.954644
H178	H	2.126884	0.918791	-0.454644
C179	C	1.379863	0.614915	-0.458222
C180	C	1.879863	1.114915	0.041778
H181	H	1.339142	0.648464	-0.486355
H182	H	1.839142	1.148464	0.013645
H183	H	1.423832	0.587388	-0.487800
H184	H	1.923832	1.087388	0.012200
H185	H	1.333778	0.585152	-0.430068
H186	H	1.833778	1.085152	0.069932
H187	H	1.398350	0.260501	-1.081659
H188	H	1.898350	0.760501	-0.581659
H189	H	1.626861	0.751894	-0.287723
H190	H	2.126861	1.251894	0.212277
C191	C	1.410183	0.268910	-0.608046
C192	C	1.910183	0.768910	-0.108046
H193	H	1.373276	0.243362	-0.639442
H194	H	1.873276	0.743362	-0.139442
H195	H	1.450859	0.237047	-0.578100
H196	H	1.950859	0.737047	-0.078100
H197	H	1.360725	0.294737	-0.580404
H198	H	1.860725	0.794737	-0.080404
H199	H	1.437201	0.287550	-0.752638
H200	H	1.937201	0.787550	-0.252638
C201	C	0.924162	0.310054	-0.223315
C202	C	1.424162	0.810054	0.276685
H203	H	0.877341	0.350305	-0.226810
H204	H	1.377341	0.850305	0.273190
H205	H	0.886424	0.270321	-0.204510
H206	H	1.386424	0.770321	0.295490
H207	H	0.979775	0.317993	-0.193221
H208	H	1.479775	0.817993	0.306779
H209	H	0.933261	0.440210	-0.281662
H210	H	1.433261	0.940210	0.218338
C211	C	1.127889	0.310351	-0.222652
C212	C	1.627889	0.810351	0.277348
H213	H	1.066880	0.315924	-0.192605
H214	H	1.566880	0.815924	0.307395
H215	H	1.170830	0.271686	-0.204300
H216	H	1.670830	0.771686	0.295700
H217	H	1.167074	0.351993	-0.225375
H218	H	1.667074	0.851993	0.274625
H219	H	1.429397	1.087497	-0.424310
H220	H	1.929397	1.587497	0.075690
H221	H	0.936079	0.470080	-0.375026
H222	H	1.436079	0.970080	0.124974
H223	H	1.115182	0.440822	-0.282640
H224	H	1.615182	0.940822	0.217360
C225	C	1.127699	0.485361	-0.389879
C226	C	1.627699	0.985361	0.110121
H227	H	1.175000	0.465530	-0.423511
H228	H	1.675000	0.965530	0.076489
H229	H	1.068892	0.507800	-0.413096
H230	H	1.568892	1.007800	0.086904
H231	H	1.163350	0.518933	-0.366295
H232	H	1.663350	1.018933	0.133705
C233	C	1.141404	0.387984	-0.486191
C234	C	1.641404	0.887984	0.013809
H235	H	1.116600	0.376138	-0.529910
H236	H	1.616600	0.876138	-0.029910
H237	H	1.116780	0.434337	-0.477654
H238	H	1.616780	0.934337	0.022346
H239	H	1.216641	0.385700	-0.487715
H240	H	1.716641	0.885700	0.012285
C241	C	0.937772	0.393469	-0.483909
C242	C	1.437772	0.893469	0.016091
H243	H	0.890777	0.426390	-0.462716
H244	H	1.390777	0.926390	0.037284
H245	H	0.996599	0.417233	-0.505615
H246	H	1.496599	0.917233	-0.005615
H247	H	0.901769	0.371362	-0.518384
H248	H	1.401769	0.871362	-0.018384
C249	C	1.653782	0.607292	-0.269032
C250	C	2.153782	1.107292	0.230968
H251	H	1.647264	0.558431	-0.273493
H252	H	2.147264	1.058431	0.226507
H253	H	1.724910	0.619727	-0.279873
H254	H	2.224910	1.119727	0.220127
H255	H	1.634851	0.617499	-0.222145
H256	H	2.134851	1.117499	0.277855
C257	C	1.692986	0.936303	-0.242173
C258	C	2.192986	1.436303	0.257827
H259	H	1.729969	0.967690	-0.216662
H260	H	2.229969	1.467690	0.283338
H261	H	1.652334	0.906389	-0.210275
H262	H	2.152334	1.406389	0.289725
H263	H	1.742377	0.908626	-0.268014
H264	H	2.242377	1.408626	0.231986
