data_functionalizedCrystal
_audit_creation_method	'MofGen! by Chris Wilmer'
_symmetry_space_group_name_H-M	'P1'
_symmetry_Int_Tables_number	1
_symmetry_cell_setting	triclinic
loop_
_symmetry_equiv_pos_as_xyz
  x,y,z
_cell_length_a	10.654549
_cell_length_b	15.995350
_cell_length_c	9.130307
_cell_angle_alpha	89.998938
_cell_angle_beta	89.997449
_cell_angle_gamma	83.989646
loop_
_atom_site_label
_atom_site_type_symbol
_atom_site_fract_x
_atom_site_fract_y
_atom_site_fract_z
O1	O	1.666297	0.117621	-0.121827
O2	O	1.300673	0.128821	-0.121821
O3	O	1.493479	0.001391	-0.121823
O4	O	1.473490	0.245050	-0.121825
O5	O	1.493473	0.001390	0.121776
O6	O	1.300666	0.128819	0.121778
O7	O	1.666291	0.117619	0.121772
Cu8	Cu	1.483478	0.123219	0.144017
Cu9	Cu	1.483485	0.123221	-0.144067
O10	O	1.473484	0.245049	0.121773
C11	C	1.253882	0.127997	-0.000021
C12	C	1.114471	0.125534	-0.000019
C13	C	1.492650	-0.029809	-0.000026
C14	C	1.490172	-0.122774	-0.000035
C15	C	0.822557	0.273287	-0.000062
C16	C	0.873083	0.350635	-0.000057
C17	C	1.004071	0.352952	-0.000038
C18	C	1.084537	0.277913	-0.000028
C19	C	1.034010	0.200565	-0.000033
C20	C	0.903018	0.198256	-0.000048
C21	C	1.063945	0.048186	-0.000025
C22	C	0.932957	0.045867	-0.000033
C23	C	1.144411	-0.026853	-0.000015
C24	C	1.093884	-0.104203	-0.000010
C25	C	0.962888	-0.106517	-0.000028
C26	C	0.882431	-0.031481	-0.000039
C27	C	1.481275	-0.460573	-0.000030
C28	C	1.343962	-0.413938	-0.000574
C29	C	1.346440	-0.317233	-0.000025
C30	C	1.485688	-0.292987	-0.000033
C31	C	1.553412	-0.333671	0.139070
C32	C	1.549963	-0.430327	0.139187
C33	C	1.552807	-0.430667	-0.137831
C34	C	1.552774	-0.333722	-0.139669
C35	C	1.488190	-0.198275	-0.000030
C36	C	1.478777	-0.555285	-0.000023
C37	C	1.713081	0.118443	-0.000032
C38	C	1.852492	0.120906	-0.000043
C39	C	1.474313	0.276249	-0.000026
C40	C	1.476791	0.369214	-0.000028
N41	N	1.483482	0.123218	0.346640
N42	N	1.483491	0.123216	-0.346690
C43	C	1.654281	0.010412	0.346629
C44	C	1.739689	-0.045988	0.423290
C45	C	1.739702	-0.045989	0.576623
C46	C	1.654295	0.010415	0.653299
C47	C	1.568887	0.066816	0.576638
C48	C	1.568886	0.066812	0.423301
C49	C	1.398083	0.179616	0.576649
C50	C	1.398075	0.179622	0.423316
C51	C	1.312676	0.236020	0.653325
C52	C	1.227272	0.292426	0.576664
C53	C	1.227264	0.292425	0.423322
C54	C	1.312666	0.236023	0.346655
H55	H	0.715898	0.271408	-0.000052
H56	H	1.289081	-0.432789	-0.100327
C57	C	1.270155	-0.440812	0.133471
N58	N	1.214573	-0.461047	0.234447
H59	H	1.251067	-0.024961	-0.000007
C60	C	0.738339	-0.034019	-0.000060
N61	N	0.629806	-0.035927	-0.000083
C62	C	1.274510	-0.279251	-0.134728
N63	N	1.220323	-0.250647	-0.236187
C64	C	1.483225	-0.455441	0.279660
N65	N	1.432952	-0.474352	0.385466
H66	H	1.809244	-0.091918	0.639041
C67	C	1.833614	-0.108043	0.338935
N68	N	1.904349	-0.154789	0.275403
C69	C	1.312676	0.236007	0.821996
N70	N	1.312673	0.235998	0.949041
H71	H	1.157734	0.338343	0.639103
H72	H	1.654300	0.010405	0.778151
C73	C	0.784562	0.433174	-0.000061
N74	N	0.717891	0.495342	-0.000063
H75	H	1.157709	0.338350	0.360912
H76	H	1.045208	0.415935	-0.000031
C77	C	1.182403	-0.186736	0.000006
N78	N	1.249080	-0.248902	0.000025
H79	H	1.191193	0.279806	-0.000030
C80	C	1.274034	-0.280008	0.134922
N81	N	1.219497	-0.251971	0.236571
C82	C	0.907321	-0.191607	-0.000031
N83	N	0.865473	-0.255699	-0.000030
H84	H	1.650776	-0.461988	0.145493
H85	H	1.655715	-0.318950	0.144238
H86	H	1.312672	0.236020	0.221803
H87	H	1.506369	-0.305564	0.242592
C88	C	1.492156	-0.458763	-0.280266
N89	N	1.446459	-0.479923	-0.387541
H90	H	1.503259	-0.306761	-0.242574
H91	H	1.654047	-0.461839	-0.138771
C92	C	1.689965	-0.312177	-0.151020
N93	N	1.793304	-0.295953	-0.159556
H94	H	1.654290	0.010414	0.221776
