data_functionalizedCrystal
_audit_creation_method	'MofGen! by Chris Wilmer'
_symmetry_space_group_name_H-M	'P1'
_symmetry_Int_Tables_number	1
_symmetry_cell_setting	triclinic
loop_
_symmetry_equiv_pos_as_xyz
  x,y,z
_cell_length_a	19.121241
_cell_length_b	29.839131
_cell_length_c	19.120969
_cell_angle_alpha	87.468974
_cell_angle_beta	90.055598
_cell_angle_gamma	92.469032
loop_
_atom_site_label
_atom_site_type_symbol
_atom_site_fract_x
_atom_site_fract_y
_atom_site_fract_z
Zn1	Zn	1.055075	-0.137812	-0.442186
Zn2	Zn	1.555075	0.362188	0.057814
Zn3	Zn	1.059910	-0.216076	-0.324916
Zn4	Zn	1.559910	0.283924	0.175084
Zn5	Zn	0.942773	-0.144289	-0.319944
Zn6	Zn	1.442773	0.355711	0.180056
Zn7	Zn	0.937780	-0.216251	-0.437112
Zn8	Zn	1.437780	0.283749	0.062888
O9	O	0.998885	-0.178607	-0.381040
O10	O	1.498885	0.321393	0.118960
O11	O	1.153827	-0.145410	-0.430835
O12	O	1.653827	0.354590	0.069165
O13	O	1.048484	-0.209190	-0.226144
O14	O	1.548484	0.290810	0.273856
O15	O	0.957736	-0.080559	-0.336203
O16	O	1.457736	0.419441	0.163797
O17	O	1.157379	-0.202910	-0.344677
O18	O	1.657379	0.297090	0.155323
O19	O	1.040244	-0.075801	-0.426013
O20	O	1.540244	0.424199	0.073987
O21	O	0.962424	-0.156449	-0.222491
O22	O	1.462424	0.343551	0.277509
O23	O	0.844000	-0.156619	-0.331282
O24	O	1.344000	0.343381	0.168718
O25	O	0.949227	-0.203209	-0.535897
O26	O	1.449227	0.296791	-0.035897
O27	O	0.840332	-0.209489	-0.417365
O28	O	1.340332	0.290511	0.082635
O29	O	1.035403	-0.145580	-0.539626
O30	O	1.535403	0.354420	-0.039626
O31	O	1.043643	-0.278969	-0.339756
O32	O	1.543643	0.221031	0.160244
O33	O	0.953915	-0.279098	-0.422186
O34	O	1.453915	0.220902	0.077814
C35	C	0.816727	-0.183776	-0.373234
C36	C	1.316727	0.316224	0.126766
C37	C	0.738799	-0.185998	-0.369911
C38	C	1.238799	0.314002	0.130089
C39	C	0.700336	-0.157148	-0.413276
C40	C	1.200336	0.342852	0.086724
C41	C	0.627114	-0.159234	-0.410148
C42	C	1.127114	0.340766	0.089852
C43	C	0.592356	-0.190171	-0.363658
C44	C	1.092356	0.309829	0.136342
C45	C	0.630824	-0.219022	-0.320288
C46	C	1.130824	0.280978	0.179712
C47	C	0.704045	-0.216934	-0.323413
C48	C	1.204045	0.283066	0.176587
C49	C	0.371370	-0.197969	-0.351971
C50	C	0.871370	0.302031	0.148029
C51	C	0.298144	-0.200056	-0.348851
C52	C	0.798144	0.299944	0.151149
C53	C	0.294439	-0.140267	-0.438710
C54	C	0.794439	0.359733	0.061290
C55	C	0.367661	-0.138183	-0.441834
C56	C	0.867661	0.361817	0.058166
C57	C	0.406123	-0.167033	-0.398462
C58	C	0.906123	0.332967	0.101538
C59	C	0.517512	-0.192305	-0.360461
C60	C	1.017512	0.307695	0.139539
C61	C	0.480966	-0.164897	-0.401656
C62	C	0.980966	0.335103	0.098344
C63	C	0.998780	-0.295334	-0.380976
C64	C	1.498780	0.204666	0.119024
C65	C	0.998799	-0.345268	-0.380975
C66	C	1.498799	0.154732	0.119025
C67	C	1.041834	-0.652393	-0.427867
C68	C	1.541834	-0.152393	0.072133
C69	C	1.041909	-0.840063	-0.427913
C70	C	1.541909	-0.340063	0.072087
O71	O	1.078396	-0.862191	-0.467734
O72	O	1.578396	-0.362191	0.032266
N73	N	0.999000	-0.866043	-0.381122
N74	N	1.499000	-0.366043	0.118878
C75	C	0.956067	-0.845104	-0.334321
C76	C	1.456067	-0.345104	0.165679
O77	O	0.919568	-0.871508	-0.294529
O78	O	1.419568	-0.371508	0.205471
C79	C	0.955990	-0.657435	-0.334279
C80	C	1.455990	-0.157435	0.165721
C81	C	0.998906	-0.631457	-0.381068
C82	C	1.498906	-0.131457	0.118932
C83	C	1.084746	-0.626415	-0.474653
C84	C	1.584746	-0.126415	0.025347
C85	C	1.084730	-0.579500	-0.474638
C86	C	1.584730	-0.079500	0.025362
C87	C	1.041802	-0.558564	-0.427839
C88	C	1.541802	-0.058564	0.072161
C89	C	0.998890	-0.584542	-0.381053
C90	C	1.498890	-0.084542	0.118947
C91	C	0.913054	-0.636496	-0.287481
C92	C	1.413054	-0.136496	0.212519
C93	C	0.913037	-0.589576	-0.287476
C94	C	1.413037	-0.089576	0.212524
C95	C	0.955953	-0.563597	-0.334265
C96	C	1.455953	-0.063597	0.165735
C97	C	0.955945	-0.516691	-0.334239
C98	C	1.455945	-0.016691	0.165761
N99	N	0.998853	-0.490710	-0.381030
N100	N	1.498853	0.009290	0.118970
C101	C	1.041782	-0.511647	-0.427829
C102	C	1.541782	-0.011647	0.072171
C103	C	0.956112	-0.943632	-0.334345
C104	C	1.456112	-0.443632	0.165655
C105	C	0.956132	-0.990549	-0.334354
C106	C	1.456132	-0.490549	0.165646
C107	C	1.041973	-0.985505	-0.427947
C108	C	1.541973	-0.485505	0.072053
C109	C	1.041956	-0.938587	-0.427934
C110	C	1.541956	-0.438587	0.072066
C111	C	0.999020	-0.917652	-0.381135
C112	C	1.499020	-0.417652	0.118865
C113	C	1.041745	-0.413123	-0.427795
C114	C	1.541745	0.086877	0.072205
C115	C	1.041727	-0.366204	-0.427775
C116	C	1.541727	0.133796	0.072225
C117	C	0.955884	-0.371253	-0.334184
C118	C	1.455884	0.128747	0.165816
C119	C	0.955904	-0.418167	-0.334202
C120	C	1.455904	0.081833	0.165798
C121	C	0.998837	-0.439101	-0.381013
C122	C	1.498837	0.060899	0.118987
O123	O	0.919471	-0.494533	-0.294444
O124	O	1.419471	0.005467	0.205556
O125	O	1.078264	-0.485235	-0.467626
O126	O	1.578264	0.014765	0.032374
C127	C	1.041850	-0.699308	-0.427882
C128	C	1.541850	-0.199308	0.072118
C129	C	0.998938	-0.725286	-0.381097
C130	C	1.498938	-0.225286	0.118903
C131	C	0.956010	-0.704349	-0.334297
C132	C	1.456010	-0.204349	0.165703
C133	C	0.998959	-0.772203	-0.381106
C134	C	1.498959	-0.272203	0.118894
C135	C	1.041887	-0.793139	-0.427906
C136	C	1.541887	-0.293139	0.072094
C137	C	1.084795	-0.767159	-0.474696
C138	C	1.584795	-0.267159	0.025304
C139	C	1.084779	-0.720244	-0.474681
C140	C	1.584779	-0.220244	0.025319
C141	C	0.913102	-0.730330	-0.287507
C142	C	1.413102	-0.230330	0.212493
C143	C	0.913122	-0.777244	-0.287524
C144	C	1.413122	-0.277244	0.212476
C145	C	0.956051	-0.798181	-0.334324
C146	C	1.456051	-0.298181	0.165676
C147	C	1.181754	-0.173418	-0.388876
C148	C	1.681754	0.326582	0.111124
C149	C	1.259681	-0.171207	-0.392216
C150	C	1.759681	0.328793	0.107784
C151	C	0.991219	-0.173691	-0.563912
C152	C	1.491219	0.326309	-0.063912
C153	C	0.987953	-0.171597	-0.641842
C154	C	1.487953	0.328403	-0.141842
C155	C	0.999008	-0.061423	-0.381120
C156	C	1.499008	0.438577	0.118880
C157	C	0.999061	-0.011486	-0.381154
C158	C	1.499061	0.488514	0.118846
C159	C	1.006561	-0.183470	-0.198880
C160	C	1.506561	0.316530	0.301120
C161	C	1.009963	-0.185434	-0.120957
C162	C	1.509963	0.314566	0.379043
C163	C	0.966430	-0.159117	-0.082465
C164	C	1.466430	0.340883	0.417535
C165	C	0.969633	-0.160962	-0.009248
C166	C	1.469633	0.339038	0.490752
C167	C	1.016367	-0.189127	0.025476
C168	C	1.516367	0.310873	0.525476
C169	C	1.059905	-0.215445	-0.013021
C170	C	1.559905	0.284555	0.486979
C171	C	1.056704	-0.213597	-0.086236
C172	C	1.556704	0.286403	0.413764
C173	C	1.028290	-0.196067	0.246446
C174	C	1.528290	0.303933	0.746446
C175	C	1.031486	-0.197914	0.319667
C176	C	1.531486	0.302086	0.819667
C177	C	0.941215	-0.143430	0.323434
C178	C	1.441215	0.356570	0.823434
C179	C	0.938016	-0.141586	0.250217
C180	C	1.438016	0.358414	0.750217
C181	C	0.981556	-0.167903	0.211726
C182	C	1.481556	0.332097	0.711726
C183	C	1.019640	-0.191015	0.100315
C184	C	1.519640	0.308985	0.600315
C185	C	0.978286	-0.166012	0.136888
C186	C	1.478286	0.333988	0.636888
H187	H	0.489203	-0.217494	-0.322608
H188	H	0.989203	0.282506	0.177392
H189	H	1.119703	-0.643456	-0.512767
H190	H	1.619703	-0.143456	-0.012767
H191	H	0.509270	-0.139705	-0.439505
H192	H	1.009270	0.360295	0.060495
C193	C	1.126576	-0.365938	-0.520295
C194	C	1.626576	0.134062	-0.020295
C195	C	1.088899	-0.337650	-0.479212
C196	C	1.588899	0.162350	0.020788
H197	H	1.155692	-0.348310	-0.552053
H198	H	1.655692	0.151690	-0.052053
H199	H	1.154704	-0.384290	-0.490925
H200	H	1.654704	0.115710	0.009075
H201	H	1.094881	-0.384395	-0.545779
H202	H	1.594881	0.115605	-0.045779
H203	H	1.120595	-0.319196	-0.453725
H204	H	1.620595	0.180804	0.046275
H205	H	1.060769	-0.319290	-0.508586
H206	H	1.560769	0.180710	-0.008586
H207	H	1.069557	-0.220841	0.347936
H208	H	1.569557	0.279159	0.847936
H209	H	1.097959	-0.238376	0.015257
H210	H	1.597959	0.261624	0.515257
H211	H	1.119725	-0.699096	-0.512781
H212	H	1.619725	-0.199096	-0.012781
C213	C	0.819242	-0.832998	-0.273684
C214	C	1.319242	-0.332998	0.226316
C215	C	0.865941	-0.805797	-0.236092
C216	C	1.365941	-0.305797	0.263908
H217	H	0.790115	-0.850625	-0.241935
H218	H	1.290115	-0.350625	0.258065
H219	H	0.791125	-0.814637	-0.303053
H220	H	1.291125	-0.314637	0.196947
H221	H	0.844817	-0.852184	-0.301550
H222	H	1.344817	-0.352184	0.198450
H223	H	0.840366	-0.786608	-0.208229
H224	H	1.340366	-0.286608	0.291771
H225	H	0.894061	-0.824159	-0.206711
H226	H	1.394061	-0.324159	0.293289
C227	C	1.047484	-0.463026	-0.522556
C228	C	1.547484	0.036974	-0.022556
C229	C	1.088936	-0.436130	-0.479248
C230	C	1.588936	0.063870	0.020752
H231	H	1.076621	-0.477227	-0.554321
H232	H	1.576621	0.022773	-0.054321
H233	H	1.021939	-0.485213	-0.494697
H234	H	1.521939	0.014787	0.005303
H235	H	1.015787	-0.444874	-0.548032
H236	H	1.515787	0.055126	-0.048032
H237	H	1.120630	-0.454283	-0.453769
H238	H	1.620630	0.045717	0.046231
H239	H	1.114493	-0.413940	-0.507111
H240	H	1.614493	0.086060	-0.007111
C241	C	1.047687	-1.035421	-0.522687
C242	C	1.547687	-0.535421	-0.022687
C243	C	1.089156	-1.008524	-0.479397
C244	C	1.589156	-0.508524	0.020603
H245	H	1.076812	-1.049630	-0.554453
H246	H	1.576812	-0.549630	-0.054453
H247	H	1.022142	-1.057602	-0.494816
H248	H	1.522142	-0.557602	0.005184
H249	H	1.015989	-1.017269	-0.548161
H250	H	1.515989	-0.517269	-0.048161
H251	H	1.120850	-1.026676	-0.453919
H252	H	1.620850	-0.526676	0.046081
H253	H	1.114712	-0.986340	-0.507271
H254	H	1.614712	-0.486340	-0.007271
C255	C	0.950212	-0.473780	-0.239476
C256	C	1.450212	0.026220	0.260524
C257	C	0.908738	-0.446723	-0.282764
C258	C	1.408738	0.053277	0.217236
H259	H	0.921088	-0.491404	-0.207720
H260	H	1.421088	0.008596	0.292280
H261	H	0.975768	-0.492965	-0.267351
H262	H	1.475768	0.007035	0.232649
H263	H	0.981899	-0.455319	-0.213992
H264	H	1.481899	0.044681	0.286008
H265	H	0.877054	-0.465185	-0.308252
H266	H	1.377054	0.034815	0.191748
H267	H	0.883170	-0.427536	-0.254885
H268	H	1.383170	0.072464	0.245115
H269	H	0.735360	-0.240426	-0.288100
H270	H	1.235360	0.259574	0.211900
H271	H	1.092155	-0.235027	-0.117575
H272	H	1.592155	0.264973	0.382425
C273	C	0.478257	-0.108439	-0.486527
C274	C	0.978257	0.391561	0.013473
C275	C	0.405866	-0.104176	-0.492939
C276	C	0.905866	0.395824	0.007061
H277	H	0.501841	-0.087447	-0.518083
H278	H	1.001841	0.412553	-0.018083
H279	H	0.492224	-0.102737	-0.439958
H280	H	0.992224	0.397263	0.060042
H281	H	0.489800	-0.138021	-0.497204
H282	H	0.989800	0.361979	0.002796
H283	H	0.394322	-0.074594	-0.482256
H284	H	0.894322	0.425406	0.017744
H285	H	0.391894	-0.109874	-0.539518
H286	H	0.891894	0.390126	-0.039518
H287	H	0.402676	-0.221461	-0.316655
H288	H	0.902676	0.278539	0.183345
C289	C	0.180553	-0.116916	-0.473817
C290	C	0.680553	0.383084	0.026183
C291	C	0.252161	-0.108553	-0.486376
C292	C	0.752161	0.391447	0.013624
H293	H	0.154454	-0.097333	-0.503242
H294	H	0.654454	0.402667	-0.003242
H295	H	0.168109	-0.147176	-0.483477
H296	H	0.668109	0.352824	0.016523
H297	H	0.170531	-0.111902	-0.426215
H298	H	0.670531	0.388098	0.073785
H299	H	0.262184	-0.113570	-0.533978
H300	H	0.762184	0.386430	-0.033978
H301	H	0.264609	-0.078286	-0.476722
H302	H	0.764609	0.421714	0.023278
H303	H	0.934183	-0.139532	0.022088
H304	H	1.434183	0.360468	0.522088
C305	C	0.309157	-0.258945	-0.260332
C306	C	0.809157	0.241055	0.239668
C307	C	0.259936	-0.234065	-0.297744
C308	C	0.759936	0.265935	0.202256
H309	H	0.285567	-0.279938	-0.228782
H310	H	0.785567	0.220062	0.271218
H311	H	0.336432	-0.274526	-0.292041
H312	H	0.836432	0.225474	0.207959
H313	H	0.338845	-0.239244	-0.234792
H314	H	0.838845	0.260756	0.265208
H315	H	0.230251	-0.253766	-0.323288
H316	H	0.730251	0.246234	0.176712
H317	H	0.232649	-0.218483	-0.266030
H318	H	0.732649	0.281517	0.233970
H319	H	0.602518	-0.244210	-0.282431
H320	H	1.102518	0.255790	0.217569
H321	H	1.119674	-0.558351	-0.512739
H322	H	1.619674	-0.058351	-0.012739
C323	C	1.126801	-0.938325	-0.520450
C324	C	1.626801	-0.438325	-0.020450
C325	C	1.089121	-0.910034	-0.479373
C326	C	1.589121	-0.410034	0.020627
H327	H	1.155915	-0.920698	-0.552211
H328	H	1.655915	-0.420698	-0.052211
H329	H	1.154932	-0.956673	-0.491076
H330	H	1.654932	-0.456673	0.008924
H331	H	1.095107	-0.956785	-0.545929
H332	H	1.595107	-0.456785	-0.045929
H333	H	1.120815	-0.891577	-0.453890
H334	H	1.620815	-0.391577	0.046110
H335	H	1.060988	-0.891679	-0.508750
H336	H	1.560988	-0.391679	-0.008750
C337	C	0.871273	-0.953341	-0.241825
C338	C	1.371273	-0.453341	0.258175
C339	C	0.908921	-0.920624	-0.282891
C340	C	1.408921	-0.420624	0.217109
H341	H	0.842146	-0.939137	-0.210055
H342	H	1.342146	-0.439137	0.289945
H343	H	0.843159	-0.971585	-0.271205
H344	H	1.343159	-0.471585	0.228795
H345	H	0.902986	-0.971485	-0.216356
H346	H	1.402986	-0.471485	0.283644
H347	H	0.877208	-0.902483	-0.308364
H348	H	1.377208	-0.402483	0.191636
H349	H	0.937038	-0.902373	-0.253507
H350	H	1.437038	-0.402373	0.246493
C351	C	0.862262	-1.046308	-0.320504
C352	C	1.362262	-0.546308	0.179496
C353	C	0.908961	-1.019102	-0.282920
C354	C	1.408961	-0.519102	0.217080
H355	H	0.833141	-1.063935	-0.288750
H356	H	1.333141	-0.563935	0.211250
H357	H	0.834140	-1.027951	-0.349872
H358	H	1.334140	-0.527951	0.150128
H359	H	0.887838	-1.065494	-0.348370
H360	H	1.387838	-0.565494	0.151630
H361	H	0.883385	-0.999913	-0.255057
H362	H	1.383385	-0.499913	0.244943
H363	H	0.937087	-1.037461	-0.253539
H364	H	1.437087	-0.537461	0.246461
C365	C	1.117830	-0.250113	0.250087
C366	C	1.617830	0.249887	0.750087
C367	C	1.076142	-0.224999	0.204144
C368	C	1.576142	0.275001	0.704144
H369	H	1.147368	-0.267977	0.223968
H370	H	1.647368	0.232023	0.723968
H371	H	1.145688	-0.230377	0.277365
H372	H	1.645688	0.269623	0.777365
H373	H	1.088703	-0.269022	0.280080
H374	H	1.588703	0.230978	0.780080
H375	H	1.105269	-0.206087	0.174154
H376	H	1.605269	0.293913	0.674154
H377	H	1.048281	-0.244737	0.176854
H378	H	1.548281	0.255263	0.676854
H379	H	1.119751	-0.784213	-0.512800
H380	H	1.619751	-0.284213	-0.012800
C381	C	0.828189	-0.636749	-0.194987
C382	C	1.328189	-0.136749	0.305013
C383	C	0.865872	-0.665043	-0.236054
C384	C	1.365872	-0.165043	0.263946
H385	H	0.799055	-0.654373	-0.163240
H386	H	1.299055	-0.154373	0.336760
H387	H	0.859874	-0.618297	-0.169498
H388	H	1.359874	-0.118297	0.330502
H389	H	0.800071	-0.618393	-0.224373
H390	H	1.300071	-0.118393	0.275627
H391	H	0.893994	-0.683397	-0.206668
H392	H	1.393994	-0.183397	0.293332
H393	H	0.834183	-0.683503	-0.261545
H394	H	1.334183	-0.183503	0.238455
H395	H	0.899958	-0.118653	0.221949
H396	H	1.399958	0.381347	0.721949
C397	C	0.889376	-0.112342	0.147965
C398	C	1.389376	0.387658	0.647965
C399	C	0.926917	-0.135053	0.098722
C400	C	1.426917	0.364947	0.598722
H401	H	0.857665	-0.093229	0.124396
H402	H	1.357665	0.406771	0.624396
H403	H	0.864014	-0.133519	0.177796
H404	H	1.364014	0.366481	0.677796
H405	H	0.920991	-0.094869	0.175090
H406	H	1.420991	0.405131	0.675090
H407	H	0.895302	-0.152529	0.071600
H408	H	1.395302	0.347471	0.571600
H409	H	0.952280	-0.113873	0.068878
H410	H	1.452280	0.386127	0.568878
C411	C	0.819120	-0.539818	-0.273604
C412	C	1.319120	-0.039818	0.226396
C413	C	0.865840	-0.566564	-0.236032
C414	C	1.365840	-0.066564	0.263968
H415	H	0.789982	-0.525614	-0.241843
H416	H	1.289982	-0.025614	0.258157
H417	H	0.844674	-0.517632	-0.301457
H418	H	1.344674	-0.017632	0.198543
H419	H	0.791010	-0.558071	-0.302985
H420	H	1.291010	-0.058071	0.197015
H421	H	0.893954	-0.548310	-0.206655
H422	H	1.393954	-0.048310	0.293345
H423	H	0.840283	-0.588753	-0.208167
H424	H	1.340283	-0.088753	0.291833
C425	C	0.917744	-0.301567	-0.292625
C426	C	1.417744	0.198433	0.207375
C427	C	0.908695	-0.348233	-0.282747
C428	C	1.408695	0.151767	0.217253
H429	H	0.888605	-0.287356	-0.260875
H430	H	1.388605	0.212644	0.239125
H431	H	0.965279	-0.292795	-0.284413
H432	H	1.465279	0.207205	0.215587
H433	H	0.905474	-0.292901	-0.339287
H434	H	1.405474	0.207099	0.160713
H435	H	0.920971	-0.356899	-0.236086
H436	H	1.420971	0.143101	0.263914
H437	H	0.861150	-0.357008	-0.290953
H438	H	1.361150	0.142992	0.209047
C439	C	0.877529	-0.105444	-0.071380
C440	C	1.377529	0.394556	0.428620
C441	C	0.915060	-0.128155	-0.120631
C442	C	1.415060	0.371845	0.379369
H443	H	0.845819	-0.086327	-0.094942
H444	H	1.345819	0.413673	0.405058
H445	H	0.852167	-0.126621	-0.041548
H446	H	1.352167	0.373379	0.458452
H447	H	0.909151	-0.087975	-0.044256
H448	H	1.409151	0.412025	0.455744
H449	H	0.883438	-0.145627	-0.147752
H450	H	1.383438	0.354373	0.352248
H451	H	0.940423	-0.106975	-0.150475
H452	H	1.440423	0.393025	0.349525
H453	H	0.878144	-0.713287	-0.249397
H454	H	1.378144	-0.213287	0.250603
H455	H	1.057690	-0.213948	0.128596
H456	H	1.557690	0.286052	0.628596
H457	H	0.905768	-0.122004	0.354781
H458	H	1.405768	0.377996	0.854781
C459	C	0.689312	-0.098257	-0.501780
C460	C	1.189312	0.401743	-0.001780
C461	C	0.738539	-0.123140	-0.464381
C462	C	1.238539	0.376860	0.035619
H463	H	0.712897	-0.077260	-0.533327
H464	H	1.212897	0.422740	-0.033327
H465	H	0.659624	-0.117953	-0.527318
H466	H	1.159624	0.382047	-0.027318
H467	H	0.662038	-0.082678	-0.470058
H468	H	1.162038	0.417322	0.029942
H469	H	0.765809	-0.138722	-0.496102
H470	H	1.265809	0.361278	0.003898
H471	H	0.768239	-0.103441	-0.438842
H472	H	1.268239	0.396559	0.061158
H473	H	0.595801	-0.135742	-0.445462
H474	H	1.095801	0.364258	0.054538
