data_functionalizedCrystal
_audit_creation_method	'MofGen! by Chris Wilmer'
_symmetry_space_group_name_H-M	'P1'
_symmetry_Int_Tables_number	1
_symmetry_cell_setting	triclinic
loop_
_symmetry_equiv_pos_as_xyz
  x,y,z
_cell_length_a	19.077068
_cell_length_b	19.077105
_cell_length_c	19.076919
_cell_angle_alpha	89.923776
_cell_angle_beta	85.529249
_cell_angle_gamma	90.115316
loop_
_atom_site_label
_atom_site_type_symbol
_atom_site_fract_x
_atom_site_fract_y
_atom_site_fract_z
Zn1	Zn	-0.340450	1.044048	0.453500
Zn2	Zn	-0.453600	1.043962	0.340340
Zn3	Zn	-0.331023	0.931660	0.330931
Zn4	Zn	-0.453176	0.921801	0.453077
O5	O	-0.394562	0.985368	0.394462
O6	O	-0.359583	1.142196	0.442604
O7	O	-0.433572	1.033154	0.240616
O8	O	-0.233799	0.950731	0.343429
O9	O	-0.442714	1.142133	0.359466
O10	O	-0.240725	1.033302	0.433479
O11	O	-0.343516	0.950647	0.233703
O12	O	-0.343104	0.832193	0.343019
O13	O	-0.441990	0.933928	0.551609
O14	O	-0.432849	0.824949	0.432759
O15	O	-0.359171	1.023742	0.551919
O16	O	-0.552019	1.023594	0.359056
O17	O	-0.551707	0.933844	0.441883
C18	C	-0.386908	0.803119	0.386822
C19	C	-0.383651	0.725151	0.383571
C20	C	-0.428912	0.684769	0.428699
C21	C	-0.425842	0.611510	0.425647
C22	C	-0.377515	0.578634	0.377464
C23	C	-0.332250	0.619022	0.332335
C24	C	-0.335317	0.692280	0.335390
C25	C	-0.363323	0.359940	0.363326
C26	C	-0.360262	0.286677	0.360273
C27	C	-0.453853	0.279170	0.453586
C28	C	-0.456918	0.352429	0.456635
C29	C	-0.411651	0.392810	0.411508
N30	N	-0.374378	0.503752	0.374342
N31	N	-0.414785	0.467691	0.414634
C32	C	-0.577398	0.977658	0.401461
C33	C	-0.655619	0.974423	0.404482
C34	C	-0.692509	1.019665	0.362816
C35	C	-0.766007	1.016626	0.365661
C36	C	-0.802612	0.968342	0.410169
C37	C	-0.765717	0.923098	0.451839
C38	C	-0.692221	0.926141	0.448997
C39	C	-1.022406	0.954231	0.423292
C40	C	-1.095907	0.951190	0.426130
C41	C	-1.096192	1.044720	0.339952
C42	C	-1.022695	1.047755	0.337111
C43	C	-0.985806	1.002514	0.378784
N44	N	-0.877738	0.965233	0.413077
N45	N	-0.910681	1.005627	0.375880
C46	C	-0.211015	0.993126	0.387451
C47	C	-0.132798	0.996432	0.384464
C48	C	-0.401585	0.977745	0.578012
C49	C	-0.404578	0.974497	0.656230
C50	C	-0.402247	1.168328	0.402132
C51	C	-0.405522	1.246295	0.405400
C52	C	-0.387518	0.993003	0.211626
C53	C	-0.384333	0.996396	0.133406
C54	C	-0.362866	1.019730	0.693140
C55	C	-0.365675	1.016669	0.766634
C56	C	-0.410200	0.968378	0.803216
C57	C	-0.451913	0.923140	0.766301
C58	C	-0.449100	0.926198	0.692809
C59	C	-0.423233	0.954216	1.022998
C60	C	-0.426044	0.951163	1.096496
C61	C	-0.339805	1.044691	1.096823
C62	C	-0.337000	1.047748	1.023329
C63	C	-0.378710	1.002507	0.986421
N64	N	-0.413073	0.965250	0.878339
N65	N	-0.375832	1.005632	0.911299
H66	H	-0.490707	0.246283	0.490327
C67	C	-0.510085	0.388586	0.509637
N68	N	-0.550134	0.415820	0.549556
H69	H	-0.468267	0.711530	0.467932
C70	C	-0.307095	0.250516	0.307266
N71	N	-0.267053	0.223279	0.267343
H72	H	-0.326612	1.059056	0.663360
H73	H	-0.305846	1.081523	1.126882
C74	C	-0.285528	0.736700	0.285745
N75	N	-0.248024	0.770157	0.248351
H76	H	-0.488163	0.883818	0.796093
C77	C	-0.313531	0.404350	0.313681
N78	N	-0.276027	0.437802	0.276284
C79	C	-0.319790	1.066431	0.807231
N80	N	-0.285227	1.103913	0.837809
C81	C	-0.475645	0.567092	0.475278
N82	N	-0.513164	0.533637	0.512659
C83	C	-0.279088	0.582857	0.279334
N84	N	-0.239047	0.555617	0.239412
H85	H	-0.483058	0.889357	0.662757
H86	H	-0.662710	1.058980	0.326570
H87	H	-1.125710	0.911879	0.462386
C88	C	-0.651642	0.876371	0.494833
N89	N	-0.621079	0.838885	0.529360
H90	H	-0.796040	1.053467	0.331732
H91	H	-0.992892	1.087072	0.300869
H92	H	-0.992377	0.917392	0.457223
C93	C	-0.805985	0.869982	0.500796
N94	N	-0.836315	0.829971	0.537668
H95	H	-1.126235	1.081554	0.306026
C96	C	-0.288012	1.100865	0.983093
N97	N	-0.251113	1.140872	0.952787
C98	C	-0.475024	0.898035	1.136736
N99	N	-0.511915	0.858021	1.167044
C100	C	-0.469114	0.904447	0.982408
N101	N	-0.503672	0.866958	0.951832
