data_functionalizedCrystal
_audit_creation_method	'MofGen! by Chris Wilmer'
_symmetry_space_group_name_H-M	'P1'
_symmetry_Int_Tables_number	1
_symmetry_cell_setting	triclinic
loop_
_symmetry_equiv_pos_as_xyz
  x,y,z
_cell_length_a	17.019311
_cell_length_b	10.654550
_cell_length_c	15.500373
_cell_angle_alpha	86.849758
_cell_angle_beta	89.295003
_cell_angle_gamma	96.060175
loop_
_atom_site_label
_atom_site_type_symbol
_atom_site_fract_x
_atom_site_fract_y
_atom_site_fract_z
O1	O	1.040716	-0.149229	-0.149471
O2	O	0.811942	-0.170853	-0.132429
O3	O	0.931589	0.022809	-0.141339
O4	O	0.921069	-0.342891	-0.140562
O5	O	0.938139	0.012444	0.002058
O6	O	0.818492	-0.181218	0.010968
O7	O	1.047266	-0.159594	-0.006074
Cu8	Cu	0.933477	-0.171353	0.015540
Cu9	Cu	0.925731	-0.159095	-0.154043
O10	O	0.927619	-0.353256	0.002836
C11	C	0.785924	-0.175418	-0.058549
C12	C	0.698638	-0.173564	-0.052047
C13	C	0.205145	-0.163404	-0.011353
C14	C	0.287159	-0.165145	-0.017464
C15	C	0.324596	-0.160357	-0.098687
C16	C	0.280014	-0.153839	-0.173803
C17	C	0.198001	-0.152106	-0.167691
C18	C	0.572043	-0.165313	-0.121051
C19	C	0.654063	-0.167043	-0.127158
C20	C	0.661201	-0.178352	0.029182
C21	C	0.579187	-0.176611	0.035287
C22	C	0.534612	-0.170100	-0.039829
C23	C	0.408428	-0.162133	-0.104935
C24	C	0.450781	-0.168333	-0.033580
C25	C	0.934092	0.064408	-0.069584
C26	C	0.931780	0.203803	-0.069415
C27	C	1.073284	-0.155029	-0.079956
C28	C	1.160569	-0.156882	-0.086464
C29	C	0.925116	-0.394855	-0.068921
C30	C	0.927427	-0.534249	-0.069096
N31	N	0.938931	-0.179973	0.134816
C32	C	1.002227	0.284772	-0.074660
C33	C	1.000050	0.415747	-0.074504
C34	C	0.856975	0.384771	-0.063853
C35	C	0.859152	0.253799	-0.064016
C36	C	1.084830	0.302656	-0.080805
C37	C	1.082654	0.433632	-0.080649
N38	N	0.920283	-0.150464	-0.273319
C39	C	0.892917	-0.107369	0.183546
C40	C	0.897060	-0.113903	0.273808
C41	C	0.947223	-0.193036	0.315337
C42	C	0.993239	-0.265649	0.266600
C43	C	0.989090	-0.259120	0.176341
C44	C	0.962151	-0.216549	0.587684
C45	C	0.966297	-0.223069	0.677950
C46	C	0.870118	-0.071324	0.685152
C47	C	0.865977	-0.064797	0.594889
C48	C	0.911990	-0.137415	0.546161
C49	C	0.951462	-0.199714	0.407599
C50	C	0.907746	-0.130743	0.453901
H51	H	0.535760	-0.160007	-0.182217
C52	C	1.126912	0.138783	-0.165208
C53	C	1.124738	0.269781	-0.165061
H54	H	1.151551	0.118491	-0.217222
H55	H	1.074564	0.097736	-0.161310
H56	H	1.156107	0.111287	-0.117198
H57	H	1.095537	0.297276	-0.213068
H58	H	1.177094	0.310843	-0.168968
C59	C	0.717512	0.236343	-0.053477
C60	C	0.781716	0.164797	-0.058255
H61	H	0.669705	0.181393	-0.049915
H62	H	0.717359	0.291681	-0.103639
H63	H	0.721925	0.284462	-0.003626
H64	H	0.777306	0.116684	-0.108109
H65	H	0.781867	0.109437	-0.008088
H66	H	1.026557	-0.318247	0.136665
H67	H	0.859591	-0.054780	0.313481
H68	H	0.797844	0.425495	-0.059458
C69	C	0.359866	-0.257168	-0.270759
C70	C	0.321168	-0.148576	-0.263084
H71	H	0.385275	-0.253909	-0.325877
H72	H	0.322429	-0.329940	-0.264719
H73	H	0.398148	-0.261285	-0.226894
H74	H	0.282881	-0.144464	-0.306946
H75	H	0.358609	-0.075783	-0.269133
H76	H	0.174669	-0.167309	0.054787
H77	H	0.420295	-0.172239	0.032551
H78	H	0.992307	-0.264140	0.441422
C79	C	1.147448	0.347686	0.053635
C80	C	1.123938	0.249198	0.000258
H81	H	1.171528	0.314664	0.103715
H82	H	1.102552	0.387179	0.070247
H83	H	1.184219	0.408000	0.023143
H84	H	1.087163	0.188889	0.030747
H85	H	1.168840	0.209685	-0.016354
C86	C	1.052353	0.566326	-0.203356
C87	C	1.112535	0.502005	-0.166740
H88	H	1.070798	0.608528	-0.256507
H89	H	1.037540	0.626471	-0.164888
H90	H	1.007909	0.507591	-0.213519
H91	H	1.156977	0.560741	-0.156570
H92	H	1.127359	0.441853	-0.205216
C93	C	0.199178	-0.141096	-0.322839
C94	C	0.149001	-0.144937	-0.250256
H95	H	0.168926	-0.136668	-0.373811
H96	H	0.225723	-0.215226	-0.321556
H97	H	0.236908	-0.068773	-0.322381
H98	H	0.111275	-0.217265	-0.250711
H99	H	0.122443	-0.070798	-0.251539
H100	H	0.438919	-0.158230	-0.171067
C101	C	1.057646	-0.367176	0.589644
C102	C	1.012737	-0.296354	0.534128
H103	H	1.088882	-0.416438	0.556576
H104	H	1.023367	-0.421405	0.627529
H105	H	1.091158	-0.311710	0.622467
H106	H	0.979221	-0.351821	0.501309
H107	H	1.047020	-0.242120	0.496228
C108	C	0.798258	0.041955	0.199740
C109	C	0.837774	-0.020385	0.137902
H110	H	0.764210	0.095647	0.171562
H111	H	0.835774	0.091092	0.232259
H112	H	0.767981	-0.018600	0.237331
H113	H	0.868056	0.040170	0.100315
H114	H	0.800253	-0.069525	0.105369
H115	H	1.007147	-0.287513	0.711760
H116	H	1.116518	0.471709	-0.022957
C117	C	0.771316	0.084528	0.611078
C118	C	0.810832	0.022182	0.549243
H119	H	0.737270	0.138221	0.582896
H120	H	0.808831	0.133665	0.643597
H121	H	0.741036	0.023976	0.648669
H122	H	0.841117	0.082734	0.511657
H123	H	0.773312	-0.026958	0.516710
H124	H	0.832656	-0.012205	0.724836
C125	C	1.103678	-0.280174	0.360183
C126	C	1.048380	-0.352632	0.312247
H127	H	1.137724	-0.333874	0.388357
H128	H	1.076866	-0.237880	0.402121
H129	H	1.133954	-0.219640	0.322577
H130	H	1.018100	-0.413161	0.349854
H131	H	1.075194	-0.394947	0.270304
C132	C	0.285978	-0.176134	0.137682
C133	C	0.336157	-0.172309	0.065100
H134	H	0.316229	-0.180550	0.188655
H135	H	0.248249	-0.248442	0.137229
H136	H	0.259435	-0.101988	0.136391
H137	H	0.362696	-0.246459	0.066387
H138	H	0.373899	-0.099993	0.065554
C139	C	0.568287	-0.077778	0.169816
C140	C	0.538047	-0.181878	0.124575
H141	H	0.542894	-0.081032	0.224942
H142	H	0.558964	-0.001958	0.138289
H143	H	0.623512	-0.079758	0.176911
H144	H	0.482824	-0.179893	0.117475
H145	H	0.547365	-0.257717	0.156110
C146	C	0.684287	-0.296469	0.161165
C147	C	0.710196	-0.185519	0.111749
H148	H	0.714531	-0.300890	0.212142
H149	H	0.690675	-0.367641	0.128458
H150	H	0.630084	-0.296109	0.176418
H151	H	0.764398	-0.185884	0.096490
H152	H	0.703815	-0.114329	0.144462
C153	C	0.638769	-0.155740	-0.281087
C154	C	0.695214	-0.161806	-0.216444
H155	H	0.664175	-0.152518	-0.336204
H156	H	0.612525	-0.082073	-0.275880
H157	H	0.601334	-0.228528	-0.275023
H158	H	0.732646	-0.089012	-0.222504
H159	H	0.721470	-0.235481	-0.221654
H160	H	0.866901	-0.066319	0.420084
