data_functionalizedCrystal
_audit_creation_method	'MofGen! by Chris Wilmer'
_symmetry_space_group_name_H-M	'P1'
_symmetry_Int_Tables_number	1
_symmetry_cell_setting	triclinic
loop_
_symmetry_equiv_pos_as_xyz
  x,y,z
_cell_length_a	19.077105
_cell_length_b	12.759393
_cell_length_c	19.077068
_cell_angle_alpha	87.739017
_cell_angle_beta	89.884684
_cell_angle_gamma	87.682028
loop_
_atom_site_label
_atom_site_type_symbol
_atom_site_fract_x
_atom_site_fract_y
_atom_site_fract_z
Zn1	Zn	1.063002	-0.677055	0.322927
Zn2	Zn	1.058186	-0.508114	0.440449
Zn3	Zn	0.945491	-0.494065	0.318236
Zn4	Zn	0.940737	-0.676424	0.435669
O5	O	1.001854	-0.588914	0.379320
O6	O	1.160695	-0.660788	0.342481
O7	O	1.043211	-0.359230	0.424275
O8	O	0.965084	-0.512724	0.220529
O9	O	1.157156	-0.536667	0.428824
O10	O	1.051419	-0.647166	0.223976
O11	O	0.960414	-0.348908	0.334485
O12	O	0.846529	-0.512112	0.329850
O13	O	0.956982	-0.823528	0.420676
O14	O	0.843036	-0.646090	0.416127
O15	O	1.046809	-0.823992	0.337845
O16	O	1.038601	-0.536055	0.538145
O17	O	0.952312	-0.659712	0.534633
C18	C	0.819286	-0.577509	0.371961
C19	C	0.741182	-0.572655	0.368830
C20	C	0.702686	-0.640029	0.412347
C21	C	0.629299	-0.635473	0.409395
C22	C	0.594410	-0.563538	0.362930
C23	C	0.632912	-0.496161	0.319409
C24	C	0.706297	-0.500723	0.322357
C25	C	0.375125	-0.542430	0.349284
C26	C	0.301734	-0.537872	0.346341
C27	C	0.298127	-0.677185	0.436327
C28	C	0.371514	-0.681736	0.439274
C29	C	0.410009	-0.614363	0.395750
N30	N	0.519397	-0.558877	0.359914
N31	N	0.485021	-0.619030	0.398763
C32	C	1.001903	-0.862947	0.379251
C33	C	1.001923	-0.979723	0.379221
C34	C	0.958830	-1.029217	0.332460
C35	C	0.958853	-1.138942	0.332440
C36	C	1.045066	-1.149668	0.425944
C37	C	1.045040	-1.039945	0.425967
C38	C	0.915714	-0.968995	0.285714
C39	C	0.872618	-1.018489	0.238949
C40	C	0.872640	-1.128213	0.238929
C41	C	0.915758	-1.188443	0.285674
C42	C	1.185135	-0.600365	0.386709
C43	C	1.263238	-0.605245	0.389857
C44	C	0.994437	-0.599364	0.561885
C45	C	0.991328	-0.603873	0.639990
C46	C	1.001848	-0.315948	0.379341
C47	C	1.001972	-0.199169	0.379178
C48	C	1.009319	-0.578448	0.196044
C49	C	1.012500	-0.573988	0.117942
C50	C	1.034829	-0.541668	0.678490
C51	C	1.031909	-0.545916	0.751878
C52	C	0.985485	-0.612364	0.786763
C53	C	0.941982	-0.674576	0.748258
C54	C	0.944906	-0.670333	0.674872
C55	C	0.971922	-0.631957	1.006050
C56	C	0.969000	-0.636193	1.079442
C57	C	1.058928	-0.507534	1.083056
C58	C	1.061845	-0.503292	1.009669
C59	C	1.018345	-0.565508	0.971170
N60	N	0.982497	-0.616706	0.861777
N61	N	1.021336	-0.561172	0.896157
H62	H	0.737640	-0.445866	0.286917
O63	O	0.599097	-0.426146	0.274309
C64	C	0.616363	-0.323381	0.290312
H65	H	0.668550	-0.325993	0.319461
H66	H	0.620917	-0.273647	0.239662
H67	H	0.573585	-0.287405	0.324752
H68	H	1.080140	-0.999646	0.464035
O69	O	0.929689	-0.692532	0.968740
C70	C	0.944299	-0.799255	0.987209
H71	H	0.969197	-0.806231	1.041552
H72	H	0.893462	-0.843268	0.987704
H73	H	0.982050	-0.834563	0.947307
O74	O	1.087032	-1.208217	0.471247
C75	C	1.134050	-1.272248	0.433055
H76	H	1.140634	-1.236294	0.377896
H77	H	1.187093	-1.278313	0.460647
H78	H	1.112443	-1.353913	0.429740
O79	O	0.915583	-0.862399	0.285663
C80	C	0.868302	-0.819856	0.234366
H81	H	0.827661	-0.879962	0.222854
H82	H	0.840758	-0.745993	0.254505
H83	H	0.898253	-0.799209	0.184259
O84	O	0.405371	-0.751764	0.484333
C85	C	0.388075	-0.854524	0.468350
H86	H	0.370185	-0.855500	0.411408
H87	H	0.436103	-0.909767	0.476385
H88	H	0.343954	-0.881402	0.504331
O89	O	1.079986	-0.477094	0.644716
C90	C	1.117741	-0.423083	0.694438
H91	H	1.118076	-0.469296	0.746821
H92	H	1.173956	-0.414170	0.675424
H93	H	1.091724	-0.342109	0.701276
O94	O	1.074334	-0.485725	0.789262
C95	C	1.117999	-0.550998	0.833401
H96	H	1.123044	-0.632744	0.811403
H97	H	1.172112	-0.516644	0.836288
H98	H	1.094150	-0.556385	0.888204
H99	H	0.915771	-1.277788	0.285656
O100	O	0.902581	-0.730798	0.637576
C101	C	0.860992	-0.790379	0.684102
H102	H	0.856483	-0.750214	0.736341
H103	H	0.806469	-0.796849	0.660707
H104	H	0.886392	-0.872251	0.692881
O105	O	0.830630	-0.960031	0.193617
C106	C	0.759977	-0.983366	0.206134
H107	H	0.754149	-1.016505	0.262119
H108	H	0.725493	-0.908697	0.198695
H109	H	0.743157	-1.043763	0.167708
H110	H	0.904186	-0.728685	0.776668
H111	H	1.099647	-0.449185	0.981266
H112	H	0.731087	-0.698603	0.450186
H113	H	1.094344	-0.456883	1.114410
O114	O	0.923825	-0.700596	1.113357
C115	C	0.876777	-0.640352	1.154061
H116	H	0.873344	-0.556057	1.131818
H117	H	0.822653	-0.674960	1.152741
H118	H	0.896287	-0.641324	1.210538
O119	O	0.591987	-0.701061	0.451645
C120	C	0.610560	-0.806056	0.437092
H121	H	0.664937	-0.810069	0.412216
H122	H	0.611032	-0.856089	0.487949
H123	H	0.570731	-0.836913	0.399343
O124	O	0.260627	-0.742588	0.478528
C125	C	0.188373	-0.723124	0.465978
H126	H	0.180540	-0.685116	0.411321
H127	H	0.160312	-0.800354	0.469684
H128	H	0.165840	-0.668165	0.506778
H129	H	0.273330	-0.479299	0.308495
O130	O	0.830874	-1.176417	0.193480
C131	C	0.872742	-1.239780	0.149687
H132	H	0.924988	-1.260950	0.176613
H133	H	0.844520	-1.314615	0.139105
H134	H	0.882574	-1.195014	0.097932
H135	H	0.406459	-0.487563	0.313849
