data_functionalizedCrystal
_audit_creation_method	'MofGen! by Chris Wilmer'
_symmetry_space_group_name_H-M	'P1'
_symmetry_Int_Tables_number	1
_symmetry_cell_setting	triclinic
loop_
_symmetry_equiv_pos_as_xyz
  x,y,z
_cell_length_a	18.050589
_cell_length_b	19.077142
_cell_length_c	19.077271
_cell_angle_alpha	90.085571
_cell_angle_beta	87.709704
_cell_angle_gamma	92.276109
loop_
_atom_site_label
_atom_site_type_symbol
_atom_site_fract_x
_atom_site_fract_y
_atom_site_fract_z
Zn1	Zn	-0.359418	-1.058164	0.440470
Zn2	Zn	0.140582	-0.558164	0.940470
Zn3	Zn	-0.478794	-1.062818	0.322971
Zn4	Zn	0.021206	-0.562818	0.822971
Zn5	Zn	-0.349434	-0.945405	0.318260
Zn6	Zn	0.150566	-0.445405	0.818260
Zn7	Zn	-0.478375	-0.940619	0.435719
Zn8	Zn	0.021625	-0.440619	0.935719
O9	O	-0.416505	-1.001752	0.379355
O10	O	0.083495	-0.501752	0.879355
O11	O	-0.379607	-1.157112	0.428844
O12	O	0.120393	-0.657112	0.928844
O13	O	-0.457632	-1.051194	0.224016
O14	O	0.042368	-0.551194	0.724016
O15	O	-0.246837	-0.960418	0.334488
O16	O	0.253163	-0.460418	0.834488
O17	O	-0.467313	-1.160531	0.342518
O18	O	0.032687	-0.660531	0.842518
O19	O	-0.254172	-1.043262	0.424275
O20	O	0.245828	-0.543262	0.924275
O21	O	-0.362592	-0.964931	0.220554
O22	O	0.137408	-0.464931	0.720554
O23	O	-0.362185	-0.846440	0.329881
O24	O	0.137815	-0.346440	0.829881
O25	O	-0.466598	-0.952261	0.534680
O26	O	0.033402	-0.452261	1.034680
O27	O	-0.456917	-0.842923	0.416178
O28	O	0.043083	-0.342923	0.916178
O29	O	-0.379200	-1.038621	0.538170
O30	O	0.120800	-0.538621	1.038170
O31	O	-0.582660	-1.046553	0.337911
O32	O	-0.082660	-0.546553	0.837911
O33	O	-0.582352	-0.956774	0.420746
O34	O	-0.082352	-0.456774	0.920746
C35	C	-0.408423	-0.819185	0.372003
C36	C	0.091577	-0.319185	0.872003
C37	C	-0.404983	-0.741082	0.368874
C38	C	0.095017	-0.241082	0.868874
C39	C	-0.452758	-0.702579	0.412264
C40	C	0.047242	-0.202579	0.912264
C41	C	-0.449517	-0.629193	0.409328
C42	C	0.050483	-0.129193	0.909328
C43	C	-0.398504	-0.594311	0.362998
C44	C	0.101496	-0.094311	0.862998
C45	C	-0.350724	-0.632819	0.319607
C46	C	0.149276	-0.132819	0.819607
C47	C	-0.353962	-0.706204	0.322547
C48	C	0.146038	-0.206204	0.822547
C49	C	-0.383520	-0.375027	0.349397
C50	C	0.116480	0.124973	0.849397
C51	C	-0.380287	-0.301637	0.346459
C52	C	0.119713	0.198363	0.846459
C53	C	-0.479079	-0.298017	0.436181
C54	C	0.020921	0.201983	0.936181
C55	C	-0.482316	-0.371403	0.439114
C56	C	0.017684	0.128597	0.939114
C57	C	-0.434533	-0.409905	0.395726
C58	C	0.065467	0.090095	0.895726
N59	N	-0.395191	-0.519298	0.359994
N60	N	0.104809	-0.019298	0.859994
N61	N	-0.437843	-0.484916	0.398734
N62	N	0.062157	0.015084	0.898734
C63	C	-0.609453	-1.001667	0.379340
C64	C	-0.109453	-0.501667	0.879340
C65	C	-0.692001	-1.001694	0.379360
C66	C	-0.192001	-0.501694	0.879360
C67	C	-0.891312	-0.952919	0.424391
C68	C	-0.391312	-0.452919	0.924391
C69	C	-0.937369	-0.938381	0.359584
C70	C	-0.437369	-0.438381	0.859584
C71	C	-0.843135	-1.001763	0.379372
C72	C	-0.343135	-0.501763	0.879372
C73	C	-0.944162	-1.016335	0.444187
C74	C	-0.444162	-0.516335	0.944187
C75	C	-0.989123	-1.001828	0.379389
C76	C	-0.489123	-0.501828	0.879389
C77	C	-0.888101	-0.987193	0.314529
C78	C	-0.388101	-0.487193	0.814529
C79	C	-0.894893	-1.065175	0.399177
C80	C	-0.394893	-0.565175	0.899177
C81	C	-0.940926	-1.050663	0.334327
C82	C	-0.440926	-0.550663	0.834327
C83	C	-0.759035	-1.001724	0.379363
C84	C	-0.259035	-0.501724	0.879363
C85	C	-1.073222	-1.001867	0.379390
C86	C	-0.573222	-0.501867	0.879390
C87	C	-0.222806	-1.001855	0.379386
C88	C	0.277194	-0.501855	0.879386
C89	C	-0.140262	-1.001899	0.379400
C90	C	0.359738	-0.501899	0.879400
C91	C	-0.423966	-0.994388	0.562634
C92	C	0.076034	-0.494388	1.062634
C93	C	-0.427145	-0.991250	0.640736
C94	C	0.072855	-0.491250	1.140736
C95	C	-0.424616	-0.185031	0.386728
C96	C	0.075384	0.314969	0.886728
C97	C	-0.428061	-0.263134	0.389848
C98	C	0.071939	0.236866	0.889848
C99	C	-0.383138	-1.034736	0.679248
C100	C	0.116862	-0.534736	1.179248
C101	C	-0.386122	-1.031779	0.752633
C102	C	0.113878	-0.531779	1.252633
C103	C	-0.433117	-0.985338	0.787506
C104	C	0.066883	-0.485338	1.287506
C105	C	-0.477126	-0.941847	0.748989
C106	C	0.022874	-0.441847	1.248989
C107	C	-0.474138	-0.944801	0.675605
C108	C	0.025862	-0.444801	1.175605
C109	C	-0.446930	-0.971679	1.006786
C110	C	0.053070	-0.471679	1.506786
C111	C	-0.449917	-0.968730	1.080175
C112	C	0.050083	-0.468730	1.580175
C113	C	-0.358911	-1.058661	1.083813
C114	C	0.141089	-0.558661	1.583813
C115	C	-0.355930	-1.061613	1.010428
C116	C	0.144070	-0.561613	1.510428
C117	C	-0.399936	-1.018120	0.971918
C118	C	0.100064	-0.518120	1.471918
N119	N	-0.436170	-0.982316	0.862517
N120	N	0.063830	-0.482316	1.362517
N121	N	-0.396879	-1.021139	0.896907
N122	N	0.103121	-0.521139	1.396907
C123	C	-0.409090	-1.009081	1.196789
C124	C	0.090910	-0.509081	1.696789
C125	C	-0.405910	-1.012216	1.118686
C126	C	0.094090	-0.512216	1.618686
H127	H	-0.309185	-0.604412	0.281887
H128	H	0.190815	-0.104412	0.781887
N129	N	-0.334730	-0.414352	0.305064
N130	N	0.165270	0.085648	0.805064
N131	N	-0.360771	-0.457081	0.261886
N132	N	0.139229	0.042919	0.761886
H133	H	-0.326313	-0.484859	0.230572
H134	H	0.173687	0.015141	0.730572
N135	N	-0.974905	-1.031777	0.512941
N136	N	-0.474905	-0.531777	1.012941
N137	N	-0.961756	-1.088408	0.541951
N138	N	-0.461756	-0.588408	1.041951
H139	H	-0.983466	-1.099310	0.590510
H140	H	-0.483466	-0.599310	1.090510
N141	N	-0.498319	-0.589874	0.453658
N142	N	0.001681	-0.089874	0.953658
N143	N	-0.543864	-0.621027	0.495020
N144	N	-0.043864	-0.121027	0.995020
H145	H	-0.578332	-0.593259	0.526332
H146	H	-0.078332	-0.093259	1.026332
H147	H	-0.869528	-0.911558	0.462404
H148	H	-0.369528	-0.411558	0.962404
H149	H	-0.517980	-0.266661	0.471507
H150	H	-0.017980	0.233339	0.971507
H151	H	-0.488188	-0.930910	1.108566
H152	H	0.011812	-0.430910	1.608566
N153	N	-0.491885	-0.927248	0.967465
N154	N	0.008115	-0.427248	1.467465
N155	N	-0.533843	-0.885790	0.998613
N156	N	-0.033843	-0.385790	1.498613
H157	H	-0.565596	-0.854408	0.970841
H158	H	-0.065596	-0.354408	1.470841
N159	N	-0.960922	-0.871151	0.338557
N160	N	-0.460922	-0.371151	0.838557
N161	N	-0.940723	-0.846883	0.279724
N162	N	-0.440723	-0.346883	0.779724
H163	H	-0.957355	-0.799400	0.264876
H164	H	-0.457355	-0.299400	0.764876
N165	N	-0.504869	-0.738219	0.459580
N166	N	-0.004869	-0.238219	0.959580
N167	N	-0.552948	-0.780140	0.436420
N168	N	-0.052948	-0.280140	0.936420
H169	H	-0.589752	-0.805311	0.469838
H170	H	-0.089752	-0.305311	0.969838
H171	H	-0.338737	-0.273238	0.308736
H172	H	0.161263	0.226762	0.808736
N173	N	-0.871302	-1.132382	0.420218
N174	N	-0.371302	-0.632382	0.920218
N175	N	-0.803650	-1.143236	0.423068
N176	N	-0.303650	-0.643236	0.923068
H177	H	-0.786985	-1.190700	0.437936
H178	H	-0.286985	-0.690700	0.937936
H179	H	-0.344871	-1.072555	0.650860
H180	H	0.155129	-0.572555	1.150860
H181	H	-0.515389	-0.904032	0.777388
H182	H	-0.015389	-0.404032	1.277388
H183	H	-0.523857	-0.399799	0.476839
H184	H	-0.023857	0.100201	0.976839
H185	H	-0.315055	-0.737552	0.287218
H186	H	0.184945	-0.237552	0.787218
N187	N	-0.857453	-0.971676	0.245757
N188	N	-0.357453	-0.471676	0.745757
N189	N	-0.788681	-0.969113	0.234658
N190	N	-0.288681	-0.469113	0.734658
H191	H	-0.767033	-0.958148	0.186090
H192	H	-0.267033	-0.458148	0.686090
H193	H	-0.350288	-1.067192	0.783986
H194	H	0.149712	-0.567192	1.283986
H195	H	-0.962569	-1.091998	0.296217
H196	H	-0.462569	-0.591998	0.796217
N197	N	-0.307927	-1.109062	0.974820
N198	N	0.192073	-0.609062	1.474820
N199	N	-0.268641	-1.147889	1.009214
N200	N	0.231359	-0.647889	1.509214
H201	H	-0.234742	-1.181404	0.984067
H202	H	0.265258	-0.681404	1.484067
N203	N	-0.313968	-1.103081	1.123162
N204	N	0.186032	-0.603081	1.623162
N205	N	-0.316641	-1.100441	1.188682
N206	N	0.183359	-0.600441	1.688682
H207	H	-0.284898	-1.131814	1.216473
H208	H	0.215102	-0.631814	1.716473
N209	N	-0.519090	-0.900372	0.636275
N210	N	-0.019090	-0.400372	1.136275
N211	N	-0.561046	-0.858908	0.667418
N212	N	-0.061046	-0.358908	1.167418
H213	H	-0.592793	-0.827525	0.639642
H214	H	-0.092793	-0.327525	1.139642
