data_functionalizedCrystal
_audit_creation_method	'MofGen! by Chris Wilmer'
_symmetry_space_group_name_H-M	'P1'
_symmetry_Int_Tables_number	1
_symmetry_cell_setting	triclinic
loop_
_symmetry_equiv_pos_as_xyz
  x,y,z
_cell_length_a	9.065218
_cell_length_b	12.503552
_cell_length_c	9.065218
_cell_angle_alpha	93.573739
_cell_angle_beta	94.984115
_cell_angle_gamma	93.575569
loop_
_atom_site_label
_atom_site_type_symbol
_atom_site_fract_x
_atom_site_fract_y
_atom_site_fract_z
O1	O	1.968806	0.089319	-0.207941
O2	O	2.302139	0.422652	0.125392
O3	O	2.635473	0.755986	0.458725
O4	O	1.539521	0.089320	-0.225688
O5	O	1.872855	0.422654	0.107646
O6	O	2.206188	0.755987	0.440979
O7	O	1.763037	0.089317	-0.002172
O8	O	2.096370	0.422651	0.331161
O9	O	2.429703	0.755984	0.664494
O10	O	1.745291	0.089322	-0.431457
O11	O	2.078624	0.422655	-0.098123
O12	O	2.411957	0.755988	0.235210
O13	O	1.746208	-0.089325	-0.018997
O14	O	2.079541	0.244008	0.314337
O15	O	2.412874	0.577342	0.647670
O16	O	1.522692	-0.089322	-0.242512
O17	O	1.856026	0.244011	0.090821
O18	O	2.189359	0.577345	0.424155
O19	O	1.951977	-0.089323	-0.224766
O20	O	2.285310	0.244010	0.108568
O21	O	2.618644	0.577343	0.441901
Cu22	Cu	1.735798	-0.105634	-0.235175
Cu23	Cu	2.069131	0.227699	0.098158
Cu24	Cu	2.402465	0.561033	0.431492
Cu25	Cu	1.755700	0.105631	-0.215278
Cu26	Cu	2.089034	0.438964	0.118055
Cu27	Cu	2.422367	0.772298	0.451388
O28	O	1.728462	-0.089320	-0.448281
O29	O	2.061795	0.244013	-0.114948
O30	O	2.395128	0.577346	0.218386
C31	C	1.476120	-0.000001	-0.232394
C32	C	1.809454	0.333333	0.100939
C33	C	2.142787	0.666666	0.434272
C34	C	1.312277	-0.000000	-0.227294
C35	C	1.645611	0.333333	0.106039
C36	C	1.978944	0.666666	0.439372
N37	N	1.721810	-0.254227	-0.249168
N38	N	2.055144	0.079107	0.084165
N39	N	2.388477	0.412440	0.417498
C40	C	1.790268	-0.526661	-0.180683
C41	C	2.123601	-0.193327	0.152650
C42	C	2.456935	0.140006	0.485983
C43	C	1.701247	-0.473335	-0.269754
C44	C	2.034580	-0.140002	0.063580
C45	C	2.367913	0.193331	0.396913
C46	C	1.712691	-0.351412	-0.258297
C47	C	2.046025	-0.018079	0.075036
C48	C	2.379358	0.315255	0.408370
C49	C	1.778825	-0.648595	-0.192138
C50	C	2.112158	-0.315262	0.141195
C51	C	2.445492	0.018072	0.474529
C52	C	2.015378	0.000000	-0.218059
C53	C	2.348712	0.333333	0.115275
C54	C	2.682045	0.666667	0.448608
C55	C	2.179222	0.000007	-0.223158
C56	C	2.512555	0.333340	0.110176
C57	C	2.845889	0.666673	0.443509
C58	C	1.752917	-0.000002	0.044402
C59	C	2.086250	0.333331	0.377736
C60	C	2.419583	0.666665	0.711069
C61	C	1.747818	0.000003	0.208246
C62	C	2.081151	0.333336	0.541579
C63	C	2.414484	0.666670	0.874912
N64	N	1.769699	0.254224	-0.201273
N65	N	2.103033	0.587557	0.132060
N66	N	2.436366	0.920890	0.465394
C67	C	1.738582	0.000001	-0.494855
C68	C	2.071915	0.333335	-0.161522
C69	C	2.405248	0.666668	0.171811
C70	C	1.743682	0.000003	-0.658698
C71	C	2.077015	0.333337	-0.325365
C72	C	2.410348	0.666670	0.007969
H73	H	1.616439	-0.519250	-0.354614
H74	H	1.949773	-0.185917	-0.021281
H75	H	2.283106	0.147416	0.312053
H76	H	1.875072	-0.480751	-0.095830
H77	H	2.208405	-0.147418	0.237503
H78	H	2.541738	0.185915	0.570836
