data_functionalizedCrystal
_audit_creation_method	'MofGen! by Chris Wilmer'
_symmetry_space_group_name_H-M	'P1'
_symmetry_Int_Tables_number	1
_symmetry_cell_setting	triclinic
loop_
_symmetry_equiv_pos_as_xyz
  x,y,z
_cell_length_a	19.288859
_cell_length_b	19.288857
_cell_length_c	18.366186
_cell_angle_alpha	89.991598
_cell_angle_beta	89.990083
_cell_angle_gamma	83.133417
loop_
_atom_site_label
_atom_site_type_symbol
_atom_site_fract_x
_atom_site_fract_y
_atom_site_fract_z
O1	O	0.921353	0.086629	-0.060567
O2	O	0.719091	0.098322	-0.060566
O3	O	0.826069	-0.008656	-0.060558
O4	O	0.814375	0.193606	-0.060575
O5	O	0.826051	-0.008661	0.060541
O6	O	0.719073	0.098317	0.060533
O7	O	0.921335	0.086623	0.060532
Zn8	Zn	0.820201	0.092469	0.079760
Zn9	Zn	0.820225	0.092476	-0.079794
O10	O	0.814357	0.193601	0.060524
C11	C	0.693206	0.097944	-0.000016
C12	C	0.616102	0.096816	-0.000015
C13	C	0.052060	0.151960	-0.000021
C14	C	0.124506	0.153025	-0.000025
C15	C	0.169215	0.090256	-0.000018
C16	C	0.141472	0.026416	-0.000026
C17	C	0.069026	0.025353	-0.000030
C18	C	0.290480	0.043441	0.042415
C19	C	0.362924	0.044507	0.042423
C20	C	0.392661	0.093533	-0.000011
C21	C	0.349943	0.141505	-0.042444
C22	C	0.277498	0.140442	-0.042447
C23	C	0.247771	0.091402	-0.000015
C24	C	0.498950	0.158524	-0.000013
C25	C	0.571399	0.159587	-0.000021
C26	C	0.588363	0.032976	-0.000015
C27	C	0.515916	0.031915	-0.000014
C28	C	0.471214	0.094691	-0.000009
C29	C	0.825685	-0.034535	-0.000008
C30	C	0.824558	-0.111639	-0.000006
C31	C	0.824042	-0.147846	-0.066017
C32	C	0.822973	-0.220292	-0.066022
C33	C	0.822435	-0.256530	-0.000013
C34	C	0.822947	-0.220313	0.066007
C35	C	0.824009	-0.147867	0.066011
C36	C	0.861429	-0.376764	0.050555
C37	C	0.860371	-0.449209	0.050548
C38	C	0.819157	-0.479975	-0.000021
C39	C	0.779009	-0.438289	-0.050596
C40	C	0.780071	-0.365844	-0.050592
C41	C	0.821283	-0.335085	-0.000009
C42	C	0.817481	-0.594737	-0.066043
C43	C	0.816408	-0.667184	-0.066045
C44	C	0.816389	-0.667204	0.065986
C45	C	0.817455	-0.594758	0.065987
C46	C	0.818004	-0.558529	-0.000029
C47	C	0.947220	0.087001	-0.000020
C48	C	1.024324	0.088129	-0.000025
C49	C	0.814741	0.219480	-0.000028
C50	C	0.815868	0.296584	-0.000035
N51	N	0.820190	0.092464	0.188651
N52	N	0.820242	0.092476	-0.188685
C53	C	0.867575	0.045118	0.226755
C54	C	0.867580	0.045114	0.302983
C55	C	0.820205	0.092470	0.341104
C56	C	0.772811	0.139820	0.302990
C57	C	0.772804	0.139817	0.226764
C58	C	0.810905	0.155758	0.461859
C59	C	0.810918	0.155762	0.538083
C60	C	0.820225	0.092478	0.576211
C61	C	0.829535	0.029188	0.538104
C62	C	0.829527	0.029186	0.461878
C63	C	0.820208	0.092478	0.423758
C64	C	0.867618	0.045125	0.696970
C65	C	0.867617	0.045121	0.773199
C66	C	0.772852	0.139832	0.773206
C67	C	0.772849	0.139830	0.696978
C68	C	0.820236	0.092477	0.658865
H69	H	0.397698	0.005448	0.076978
H70	H	0.837113	-0.022343	0.569146
C71	C	0.822409	-0.260133	-0.138636
H72	H	0.821694	-0.308467	-0.129181
H73	H	0.863086	-0.253682	-0.165756
H74	H	0.782088	-0.242833	-0.165763
H75	H	0.374153	0.181429	-0.076995
C76	C	0.919714	-0.006950	0.184831
H77	H	0.912934	-0.000162	0.133975
H78	H	0.912346	-0.053297	0.197324
H79	H	0.966038	0.000505	0.197321
C80	C	0.800679	0.225374	0.579997
H81	H	0.802025	0.216314	0.630855
H82	H	0.756791	0.250252	0.567514
H83	H	0.836916	0.252501	0.567487
H84	H	0.906201	0.006565	0.665937
C85	C	0.818027	-0.554924	0.138599
H86	H	0.818730	-0.506588	0.129147
H87	H	0.858343	-0.572225	0.165726
H88	H	0.777346	-0.561376	0.165717
H89	H	0.906202	0.006562	0.804224
H90	H	0.462552	0.209640	-0.000010
C91	C	0.601908	0.229805	-0.000015
H92	H	0.564907	0.267036	-0.000005
H93	H	0.629823	0.232861	-0.042244
H94	H	0.629808	0.232841	0.042222
H95	H	0.624764	-0.018133	-0.000015
H96	H	0.177878	-0.024691	-0.000023
H97	H	0.147093	0.205006	-0.000015
C98	C	0.230513	0.193198	-0.089127
H99	H	0.258594	0.222548	-0.114405
H100	H	0.198485	0.220827	-0.058547
H101	H	0.205482	0.168762	-0.123243
H102	H	0.747379	-0.331906	-0.091771
C103	C	0.839756	-0.040426	0.419961
H104	H	0.845395	-0.078116	0.453579
H105	H	0.880141	-0.041894	0.390131
H106	H	0.800027	-0.044216	0.390320
C107	C	0.733665	-0.472118	-0.106223
H108	H	0.709911	-0.436917	-0.136343
H109	H	0.700532	-0.495997	-0.081180
H110	H	0.762587	-0.504307	-0.135474
C111	C	0.815839	-0.707016	-0.138660
H112	H	0.815119	-0.755350	-0.129209
H113	H	0.856515	-0.700567	-0.165780
H114	H	0.775518	-0.689710	-0.165785
C115	C	0.822353	-0.260167	0.138618
H116	H	0.822807	-0.228223	0.177934
H117	H	0.862435	-0.293854	0.141364
H118	H	0.781437	-0.283001	0.141357
H119	H	0.734277	0.178387	0.804243
H120	H	0.046446	-0.026628	-0.000033
H121	H	0.803314	0.207294	0.430821
C122	C	0.485405	-0.038300	-0.000006
H123	H	0.522405	-0.075532	0.000004
H124	H	0.457503	-0.041346	-0.042235
H125	H	0.457490	-0.041347	0.042230
H126	H	0.734267	0.178387	0.665951
C127	C	0.919707	-0.006964	0.344909
H128	H	0.912921	-0.000182	0.395766
H129	H	0.966034	0.000464	0.332402
H130	H	0.912313	-0.053308	0.332432
H131	H	0.734237	0.178376	0.334032
C132	C	0.257777	-0.010491	0.089096
H133	H	0.293590	-0.038900	0.114375
H134	H	0.233279	-0.038950	0.058512
H135	H	0.226292	0.013112	0.123211
C136	C	0.720682	0.191905	0.184848
H137	H	0.692470	0.220111	0.218466
H138	H	0.691849	0.166994	0.155121
H139	H	0.745579	0.220757	0.155104
H140	H	0.015667	0.203077	-0.000021
C141	C	0.824634	-0.107997	-0.138632
H142	H	0.824167	-0.139940	-0.177947
H143	H	0.865542	-0.085157	-0.141379
H144	H	0.784545	-0.074313	-0.141373
C145	C	0.818077	-0.554879	-0.138654
H146	H	0.818793	-0.506548	-0.129198
H147	H	0.777410	-0.561318	-0.165778
H148	H	0.858407	-0.572176	-0.165778
H149	H	0.815945	-0.696707	0.119733
H150	H	0.894990	-0.351721	0.091740
C151	C	0.904509	-0.495057	0.106194
H152	H	0.897975	-0.542609	0.098950
H153	H	0.890350	-0.481264	0.154108
H154	H	0.952434	-0.489589	0.099850
C155	C	0.824583	-0.108038	0.138627
H156	H	0.824112	-0.139993	0.177941
H157	H	0.784503	-0.074348	0.141373
H158	H	0.865501	-0.085208	0.141370
