data_functionalizedCrystal
_audit_creation_method	'MofGen! by Chris Wilmer'
_symmetry_space_group_name_H-M	'P1'
_symmetry_Int_Tables_number	1
_symmetry_cell_setting	triclinic
loop_
_symmetry_equiv_pos_as_xyz
  x,y,z
_cell_length_a	12.759401
_cell_length_b	18.050590
_cell_length_c	12.759401
_cell_angle_alpha	90.013733
_cell_angle_beta	90.003191
_cell_angle_gamma	90.017597
loop_
_atom_site_label
_atom_site_type_symbol
_atom_site_fract_x
_atom_site_fract_y
_atom_site_fract_z
Zn1	Zn	1.606068	-0.295796	0.593952
Zn2	Zn	2.106068	0.204204	1.093952
Zn3	Zn	1.605997	-0.419958	0.418260
Zn4	Zn	2.105997	0.080042	0.918260
Zn5	Zn	1.430417	-0.295785	0.418292
Zn6	Zn	1.930417	0.204215	0.918292
Zn7	Zn	1.430347	-0.419947	0.593901
Zn8	Zn	1.930347	0.080053	1.093901
O9	O	1.518207	-0.357871	0.506101
O10	O	2.018207	0.142129	1.006101
O11	O	1.753079	-0.312276	0.570654
O12	O	2.253079	0.187724	1.070654
O13	O	1.582706	-0.403487	0.271243
O14	O	2.082706	0.096513	0.771243
O15	O	1.453776	-0.191862	0.441628
O16	O	1.953776	0.308138	0.941628
O17	O	1.753028	-0.403498	0.441574
O18	O	2.253028	0.096502	0.941574
O19	O	1.582826	-0.191870	0.570685
O20	O	2.082826	0.308130	1.070685
O21	O	1.453708	-0.312257	0.271266
O22	O	1.953708	0.187743	0.771266
O23	O	1.283387	-0.312245	0.441578
O24	O	1.783387	0.187755	0.941578
O25	O	1.453656	-0.403477	0.740929
O26	O	1.953656	0.096523	1.240929
O27	O	1.283335	-0.403467	0.570598
O28	O	1.783335	0.096533	1.070598
O29	O	1.582758	-0.312265	0.740966
O30	O	2.082758	0.187735	1.240966
O31	O	1.582638	-0.523881	0.441524
O32	O	2.082638	-0.023881	0.941524
O33	O	1.453588	-0.523873	0.570567
O34	O	1.953588	-0.023873	1.070567
C35	C	1.245240	-0.357854	0.506086
C36	C	1.745240	0.142146	1.006086
C37	C	1.128463	-0.357864	0.506105
C38	C	1.628463	0.142136	1.006105
C39	C	1.073621	-0.310455	0.573422
C40	C	1.573621	0.189545	1.073422
C41	C	0.963897	-0.310469	0.573428
C42	C	1.463897	0.189531	1.073428
C43	C	0.963867	-0.405309	0.438799
C44	C	1.463867	0.094691	0.938799
C45	C	1.073589	-0.405290	0.438788
C46	C	1.573589	0.094710	0.938788
C47	C	1.128495	-0.263029	0.640739
C48	C	1.628495	0.236971	1.140739
C49	C	1.073653	-0.215617	0.708061
C50	C	1.573653	0.284383	1.208061
C51	C	0.963929	-0.215631	0.708068
C52	C	1.463929	0.284369	1.208068
C53	C	0.909047	-0.263058	0.640752
C54	C	1.409047	0.236942	1.140752
C55	C	1.518126	-0.550824	0.506059
C56	C	2.018126	-0.050824	1.006059
C57	C	1.518188	-0.633369	0.506076
C58	C	2.018188	-0.133369	1.006076
C59	C	1.588511	-0.832798	0.436001
C60	C	2.088511	-0.332798	0.936001
C61	C	1.614153	-0.882148	0.531887
C62	C	2.114153	-0.382148	1.031887
C63	C	1.518248	-0.784500	0.506118
C64	C	2.018248	-0.284500	1.006118
C65	C	1.492713	-0.882231	0.410275
C66	C	1.992713	-0.382231	0.910275
C67	C	1.518307	-0.930485	0.506150
C68	C	2.018307	-0.430485	1.006150
C69	C	1.543938	-0.832763	0.602055
C70	C	2.043938	-0.332763	1.102055
C71	C	1.422454	-0.832841	0.480378
C72	C	1.922454	-0.332841	0.980378
C73	C	1.448059	-0.882169	0.576331
C74	C	1.948059	-0.382169	1.076331
C75	C	1.518216	-0.700401	0.506098
C76	C	2.018216	-0.200401	1.006098
C77	C	1.518339	-1.014581	0.506181
C78	C	2.018339	-0.514581	1.006181
C79	C	1.792240	-0.357889	0.506116
C80	C	2.292240	0.142111	1.006116
C81	C	1.909017	-0.357897	0.506123
C82	C	2.409017	0.142103	1.006123
C83	C	1.518207	-0.357871	0.780134
C84	C	2.018207	0.142129	1.280134
C85	C	1.518207	-0.357871	0.896911
C86	C	2.018207	0.142129	1.396911
C87	C	1.518317	-0.164166	0.506166
C88	C	2.018317	0.335834	1.006166
C89	C	1.518364	-0.081620	0.506194
C90	C	2.018364	0.418380	1.006194
C91	C	1.585425	-0.310387	0.951794
C92	C	2.085425	0.189613	1.451794
C93	C	1.585420	-0.310390	1.061518
C94	C	2.085420	0.189610	1.561518
C95	C	1.450978	-0.405367	1.061466
C96	C	1.950978	0.094633	1.561466
C97	C	1.450978	-0.405360	0.951744
C98	C	1.950978	0.094640	1.451744
C99	C	1.652655	-0.262897	0.896961
C100	C	2.152655	0.237103	1.396961
C101	C	1.719879	-0.215410	0.951845
C102	C	2.219879	0.284590	1.451845
C103	C	1.719874	-0.215413	1.061569
C104	C	2.219874	0.284587	1.561569
C105	C	1.652646	-0.262903	1.116409
C106	C	2.152646	0.237097	1.616409
C107	C	1.518200	-0.357887	1.233134
C108	C	2.018200	0.142113	1.733134
C109	C	1.518203	-0.357881	1.116357
C110	C	2.018203	0.142119	1.616357
H111	H	1.118242	-0.443895	0.383973
H112	H	1.618242	0.056105	0.883973
N113	N	1.369378	-0.910718	0.654965
N114	N	1.869378	-0.410718	1.154965
H115	H	1.297210	-0.891984	0.636151
H116	H	1.797210	-0.391984	1.136151
H117	H	1.388905	-0.892621	0.727284
H118	H	1.888905	-0.392621	1.227284
N119	N	1.652636	-0.262898	1.234755
N120	N	2.152636	0.237102	1.734755
H121	H	1.724699	-0.276554	1.261187
H122	H	2.224699	0.223446	1.761187
H123	H	1.599806	-0.300182	1.261083
H124	H	2.099806	0.199818	1.761083
N125	N	0.904779	-0.164498	0.780680
N126	N	1.404779	0.335502	1.280680
H127	H	0.826943	-0.171702	0.770474
H128	H	1.326943	0.328298	1.270474
H129	H	0.923963	-0.111437	0.764468
H130	H	1.423963	0.388563	1.264468
H131	H	1.652668	-0.262891	0.807619
H132	H	2.152668	0.237109	1.307619
N133	N	1.667244	-0.804074	0.357545
N134	N	2.167244	-0.304074	0.857545
H135	H	1.666192	-0.748126	0.357617
H136	H	2.166192	-0.248126	0.857617
H137	H	1.648635	-0.822893	0.285353
H138	H	2.148635	-0.322893	0.785353
H139	H	1.565480	-0.811126	0.683192
H140	H	2.065480	-0.311126	1.183192
H141	H	1.396243	-0.444031	1.106126
H142	H	1.896243	0.055969	1.606126
N143	N	1.315152	-0.804114	0.451471
N144	N	1.815152	-0.304114	0.951471
H145	H	1.286472	-0.773321	0.511018
H146	H	1.786472	-0.273321	1.011018
H147	H	1.266679	-0.847268	0.437653
H148	H	1.766679	-0.347268	0.937653
N149	N	1.721488	-0.910845	0.560760
N150	N	2.221488	-0.410845	1.060760
H151	H	1.774495	-0.892891	0.507741
H152	H	2.274495	-0.392891	1.007741
H153	H	1.720442	-0.966790	0.561241
H154	H	2.220442	-0.466790	1.061241
N155	N	1.378478	-0.456575	0.892545
N156	N	1.878478	0.043425	1.392545
H157	H	1.394763	-0.509641	0.911612
H158	H	1.894763	-0.009641	1.411612
H159	H	1.388710	-0.449299	0.814736
H160	H	1.888710	0.050701	1.314736
N161	N	1.464065	-0.911018	0.302899
N162	N	1.964065	-0.411018	0.802899
H163	H	1.517171	-0.893058	0.249985
H164	H	2.017171	-0.393058	0.749985
H165	H	1.392183	-0.892306	0.282991
H166	H	1.892183	-0.392306	0.782991
N167	N	1.792394	-0.164199	0.892699
N168	N	2.292394	0.335801	1.392699
H169	H	1.749732	-0.129777	0.847175
H170	H	2.249732	0.370223	1.347175
H171	H	1.841044	-0.194447	0.847237
H172	H	2.341044	0.305553	1.347237
H173	H	1.774603	-0.176741	1.106252
H174	H	2.274603	0.323259	1.606252
H175	H	0.819702	-0.263050	0.640740
H176	H	1.319702	0.236950	1.140740
N177	N	1.246839	-0.263040	0.640767
N178	N	1.746839	0.236960	1.140767
H179	H	1.273282	-0.225812	0.693637
H180	H	1.773282	0.274188	1.193637
H181	H	1.273218	-0.249333	0.568706
H182	H	1.773218	0.250667	1.068706
H183	H	0.919173	-0.443923	0.383995
H184	H	1.419173	0.056077	0.883995
N185	N	1.132839	-0.164471	0.780670
N186	N	1.632839	0.335529	1.280670
H187	H	1.210670	-0.171659	0.770460
H188	H	1.710670	0.328341	1.270460
H189	H	1.113657	-0.176127	0.855670
H190	H	1.613657	0.323873	1.355670
