data_functionalizedCrystal
_audit_creation_method	'MofGen! by Chris Wilmer'
_symmetry_space_group_name_H-M	'P1'
_symmetry_Int_Tables_number	1
_symmetry_cell_setting	triclinic
loop_
_symmetry_equiv_pos_as_xyz
  x,y,z
_cell_length_a	18.215407
_cell_length_b	13.032721
_cell_length_c	18.215399
_cell_angle_alpha	97.154261
_cell_angle_beta	89.980650
_cell_angle_gamma	97.205008
loop_
_atom_site_label
_atom_site_type_symbol
_atom_site_fract_x
_atom_site_fract_y
_atom_site_fract_z
Zn1	Zn	1.087877	-0.416036	-0.453320
Zn2	Zn	1.587877	0.083964	0.046680
Zn3	Zn	1.072164	-0.590801	-0.345882
Zn4	Zn	1.572164	-0.090801	0.154118
Zn5	Zn	0.964808	-0.416072	-0.330270
Zn6	Zn	1.464808	0.083928	0.169730
Zn7	Zn	0.949158	-0.590741	-0.468902
Zn8	Zn	1.449158	-0.090741	0.031098
O9	O	1.018502	-0.503413	-0.399593
O10	O	1.518502	-0.003413	0.100407
O11	O	1.188776	-0.439229	-0.439081
O12	O	1.688776	0.060771	0.060919
O13	O	1.057896	-0.567662	-0.240830
O14	O	1.557896	-0.067662	0.259170
O15	O	0.994259	-0.269828	-0.333539
O16	O	1.494259	0.230172	0.166461
O17	O	1.177232	-0.567628	-0.360146
O18	O	1.677232	-0.067628	0.139854
O19	O	1.084677	-0.269802	-0.423943
O20	O	1.584677	0.230198	0.076057
O21	O	0.979022	-0.439290	-0.229361
O22	O	1.479022	0.060710	0.270639
O23	O	0.859749	-0.439232	-0.348648
O24	O	1.359749	0.060768	0.151352
O25	O	0.967586	-0.567527	-0.569815
O26	O	1.467586	-0.067527	-0.069815
O27	O	0.848251	-0.567561	-0.450499
O28	O	1.348251	-0.067561	0.049501
O29	O	1.069503	-0.439172	-0.558368
O30	O	1.569503	0.060828	-0.058368
O31	O	1.042722	-0.737032	-0.375255
O32	O	1.542722	-0.237032	0.124745
O33	O	0.952350	-0.736989	-0.465637
O34	O	1.452350	-0.236989	0.034363
C35	C	0.827297	-0.503395	-0.399571
C36	C	1.327297	-0.003395	0.100429
C37	C	0.745497	-0.503412	-0.399581
C38	C	1.245497	-0.003412	0.100419
C39	C	0.551326	-0.570338	-0.452565
C40	C	1.051326	-0.070338	0.047435
C41	C	0.474467	-0.570341	-0.452575
C42	C	0.974467	-0.070341	0.047425
C43	C	0.486428	-0.436506	-0.346639
C44	C	0.986428	0.063494	0.153361
C45	C	0.563286	-0.436498	-0.346634
C46	C	1.063286	0.063502	0.153366
C47	C	0.595733	-0.503420	-0.399596
C48	C	1.095733	-0.003420	0.100404
C49	C	0.442016	-0.503431	-0.399611
C50	C	0.942016	-0.003431	0.100389
C51	C	0.358682	-0.503434	-0.399621
C52	C	0.858682	-0.003434	0.100379
C53	C	0.679072	-0.503416	-0.399587
C54	C	1.179072	-0.003416	0.100413
C55	C	0.994152	-0.774929	-0.423847
C56	C	1.494152	-0.274929	0.076153
C57	C	0.983803	-0.891084	-0.434247
C58	C	1.483803	-0.391084	0.065753
C59	C	1.023943	-0.942857	-0.394199
C60	C	1.523943	-0.442857	0.105801
C61	C	1.013247	-1.062910	-0.404947
C62	C	1.513247	-0.562910	0.095053
C63	C	1.210453	-0.503431	-0.399617
C64	C	1.710453	-0.003431	0.100383
C65	C	1.292251	-0.503439	-0.399627
C66	C	1.792251	-0.003439	0.100373
C67	C	1.018552	-0.503339	-0.591540
C68	C	1.518552	-0.003339	-0.091540
C69	C	1.018573	-0.503307	-0.673336
C70	C	1.518573	-0.003307	-0.173336
C71	C	1.042967	-0.230836	-0.375261
C72	C	1.542967	0.269164	0.124739
C73	C	1.053392	-0.114680	-0.364892
C74	C	1.553392	0.385320	0.135108
C75	C	1.071676	-0.436382	-0.932426
C76	C	1.571676	0.063618	-0.432426
C77	C	1.071665	-0.436411	-0.855570
C78	C	1.571665	0.063589	-0.355570
C79	C	0.965543	-0.570080	-0.867481
C80	C	1.465543	-0.070080	-0.367481
C81	C	0.965558	-0.570056	-0.944336
C82	C	1.465558	-0.070056	-0.444336
C83	C	1.018624	-0.503202	-0.976806
C84	C	1.518624	-0.003202	-0.476806
C85	C	1.018598	-0.503254	-0.823095
C86	C	1.518598	-0.003254	-0.323095
C87	C	1.018585	-0.503285	-0.739764
C88	C	1.518585	-0.003285	-0.239764
C89	C	1.018638	-0.503171	-1.060143
C90	C	1.518638	-0.003171	-0.560143
C91	C	1.018501	-0.503411	-0.208387
C92	C	1.518501	-0.003411	0.291613
C93	C	1.018649	-0.503148	-0.126565
C94	C	1.518649	-0.003148	0.373435
H95	H	0.599444	-0.381999	-0.303499
H96	H	1.099444	0.118001	0.196501
H97	H	0.922338	-0.624509	-0.841034
H98	H	1.422338	-0.124509	-0.341034
H99	H	1.114885	-0.381944	-0.958860
H100	H	1.614885	0.118056	-0.458860
Br101	Br	0.893560	-0.660757	-1.004573
Br102	Br	1.393560	-0.160757	-0.504573
Br103	Br	0.414203	-0.661158	-0.524468
Br104	Br	0.914203	-0.161158	-0.024468
H105	H	0.577741	-0.624828	-0.495692
H106	H	1.077741	-0.124828	0.004308
H107	H	1.095681	-1.070132	-0.322647
H108	H	1.595681	-0.570132	0.177353
H109	H	0.941523	-0.935638	-0.476495
H110	H	1.441523	-0.435638	0.023505
H111	H	1.114866	-0.382001	-0.819438
H112	H	1.614866	0.117999	-0.319438
H113	H	0.460001	-0.382022	-0.303518
H114	H	0.960001	0.117978	0.196482
Br115	Br	1.094428	-0.868609	-0.323792
Br116	Br	1.594428	-0.368609	0.176208
Br117	Br	0.942772	-1.137155	-0.475370
Br118	Br	1.442772	-0.637155	0.024630
