data_functionalizedCrystal
_audit_creation_method	'MofGen! by Chris Wilmer'
_symmetry_space_group_name_H-M	'P1'
_symmetry_Int_Tables_number	1
_symmetry_cell_setting	triclinic
loop_
_symmetry_equiv_pos_as_xyz
  x,y,z
_cell_length_a	10.654551
_cell_length_b	15.995292
_cell_length_c	9.730223
_cell_angle_alpha	90.001861
_cell_angle_beta	90.000351
_cell_angle_gamma	83.976943
loop_
_atom_site_label
_atom_site_type_symbol
_atom_site_fract_x
_atom_site_fract_y
_atom_site_fract_z
O1	O	1.666260	0.117605	-0.114262
O2	O	1.300632	0.128809	-0.114267
O3	O	1.493479	0.001375	-0.114266
O4	O	1.473413	0.245040	-0.114262
O5	O	1.493477	0.001378	0.114314
O6	O	1.300630	0.128812	0.114313
O7	O	1.666258	0.117609	0.114318
Zn8	Zn	1.483443	0.123211	0.150608
Zn9	Zn	1.483446	0.123207	-0.150556
O10	O	1.473411	0.245043	0.114317
C11	C	1.253844	0.127988	0.000022
C12	C	1.114434	0.125526	0.000019
C13	C	0.917947	0.122049	0.124620
C14	C	1.048936	0.124370	0.124620
C15	C	1.048933	0.124371	-0.124590
C16	C	0.917945	0.122056	-0.124589
C17	C	0.852458	0.120884	0.249229
C18	C	0.917950	0.122041	0.373839
C19	C	1.048939	0.124362	0.373839
C20	C	1.114437	0.125525	0.249230
C21	C	1.492661	-0.029824	0.000020
C22	C	1.490213	-0.122791	0.000010
C23	C	1.481212	-0.460582	0.000022
C24	C	1.620404	-0.436461	0.000535
C25	C	1.623049	-0.339770	0.000015
C26	C	1.485678	-0.293000	0.000017
C27	C	1.416090	-0.322507	-0.130510
C28	C	1.414414	-0.419308	-0.130615
C29	C	1.411570	-0.419177	0.129324
C30	C	1.416728	-0.322655	0.131044
C31	C	1.488195	-0.198289	0.000009
C32	C	1.478691	-0.555292	0.000021
C33	C	1.713046	0.118430	0.000026
C34	C	1.852456	0.120891	0.000020
C35	C	1.474229	0.276242	0.000028
C36	C	1.476677	0.369209	0.000029
N37	N	1.483451	0.123213	0.356144
N38	N	1.483449	0.123198	-0.356093
C39	C	1.568865	0.066805	0.428070
C40	C	1.568862	0.066794	0.571953
C41	C	1.398026	0.179609	0.571971
C42	C	1.398024	0.179615	0.428090
C43	C	1.654291	0.010403	0.356124
C44	C	1.739714	-0.046009	0.428050
C45	C	1.739710	-0.046019	0.571933
C46	C	1.654285	0.010383	0.643890
H47	H	1.221095	0.127425	0.249240
C48	C	1.833660	-0.108059	0.348896
N49	N	1.904419	-0.154799	0.289278
H50	H	1.809256	-0.091958	0.630495
C51	C	1.273163	-0.438895	0.130528
N52	N	1.168922	-0.453755	0.131429
H53	H	0.864611	0.121101	0.475291
C54	C	1.654287	0.010369	0.802166
N55	N	1.654295	0.010361	0.921378
H56	H	1.328477	0.225531	0.630567
C57	C	1.120975	0.125638	0.510911
N58	N	1.175231	0.126594	0.614158
H59	H	1.328471	0.225547	0.369527
H60	H	1.674054	-0.464145	0.094142
C61	C	0.708367	0.118335	0.249239
N62	N	0.599837	0.116415	0.249246
H63	H	1.102272	0.125317	-0.226041
C64	C	0.845901	0.120781	-0.261656
N65	N	0.791637	0.119822	-0.364898
C66	C	1.696676	-0.313637	0.126417
N67	N	1.752140	-0.293958	0.221625
H68	H	1.673757	-0.465170	-0.092545
H69	H	1.677872	-0.321048	-0.093714
C70	C	1.479543	-0.455162	-0.262420
N71	N	1.528608	-0.482165	-0.361695
C72	C	1.654300	0.010408	0.197850
N73	N	1.654305	0.010412	0.078638
H74	H	1.315003	-0.291227	-0.135362
H75	H	1.312358	-0.434451	-0.136527
C76	C	1.481382	-0.295039	-0.261743
N77	N	1.530569	-0.274353	-0.360585
H78	H	1.455403	-0.447010	0.228263
C79	C	1.485151	-0.297146	0.261500
N80	N	1.536681	-0.277918	0.359759
H81	H	1.316461	-0.290268	0.138928
