data_functionalizedCrystal
_audit_creation_method	'MofGen! by Chris Wilmer'
_symmetry_space_group_name_H-M	'P1'
_symmetry_Int_Tables_number	1
_symmetry_cell_setting	triclinic
loop_
_symmetry_equiv_pos_as_xyz
  x,y,z
_cell_length_a	6.817900
_cell_length_b	17.078472
_cell_length_c	23.753277
_cell_angle_alpha	97.001198
_cell_angle_beta	100.072504
_cell_angle_gamma	99.306020
loop_
_atom_site_label
_atom_site_type_symbol
_atom_site_fract_x
_atom_site_fract_y
_atom_site_fract_z
V1	V	-3.967846	-0.110807	-0.178335
O2	O	-3.977904	0.004255	-0.175000
O3	O	-3.899162	-0.218682	-0.177059
O4	O	-3.903150	-0.109572	-0.256139
O5	O	-3.973888	-0.105611	-0.095372
V6	V	-4.456214	-0.096989	-0.168419
O7	O	-4.218477	-0.141118	-0.200087
O8	O	-4.655780	-0.066677	-0.146667
O9	O	-4.301691	0.010887	-0.169696
O10	O	-4.563553	-0.212050	-0.171755
O11	O	-4.567569	-0.102185	-0.251383
O12	O	-4.297703	-0.098224	-0.090615
C13	C	-3.739755	-0.244965	-0.174231
C14	C	-3.764776	-0.333158	-0.173706
C15	C	-3.957262	-0.378648	-0.176311
C16	C	-3.980762	-0.461515	-0.175821
C17	C	-3.811771	-0.498889	-0.172721
C18	C	-3.619270	-0.453393	-0.170118
C19	C	-3.595775	-0.370528	-0.170612
C20	C	-3.862660	-0.746282	-0.170941
C21	C	-3.886170	-0.829152	-0.170446
C22	C	-4.247662	-0.837269	-0.176150
C23	C	-4.224148	-0.754402	-0.176640
C24	C	-4.031652	-0.708914	-0.174040
N25	N	-3.835786	-0.583591	-0.172219
N26	N	-4.007641	-0.624214	-0.174547
C27	C	-3.744843	-0.105783	-0.275105
C28	C	-3.773096	-0.105487	-0.338710
C29	C	-3.919827	-0.176889	-0.621758
C30	C	-3.893283	-0.177172	-0.561995
O31	O	-3.900470	-0.239144	-0.537998
N32	N	-3.855344	-0.104612	-0.523976
C33	C	-3.843929	-0.031763	-0.545721
O34	O	-3.809220	0.029930	-0.507895
C35	C	-3.870458	-0.031480	-0.605483
C36	C	-3.908417	-0.104046	-0.643500
C37	C	-3.957781	-0.249449	-0.659775
C38	C	-3.984327	-0.249166	-0.719533
C39	C	-3.972918	-0.176322	-0.741276
C40	C	-3.934963	-0.103763	-0.703259
C41	C	-3.859029	0.041368	-0.627228
C42	C	-3.885560	0.041644	-0.686994
C43	C	-3.923519	-0.030921	-0.725011
C44	C	-3.950099	-0.030636	-0.784760
N45	N	-3.988038	-0.103197	-0.822780
C46	C	-3.999447	-0.176040	-0.801037
C47	C	-3.788214	-0.032362	-0.420218
C48	C	-3.761700	-0.032644	-0.360458
C49	C	-3.811051	-0.178053	-0.376736
C50	C	-3.837581	-0.177771	-0.436497
C51	C	-3.826153	-0.104922	-0.458238
C52	C	-4.055194	-0.175439	-0.926535
C53	C	-4.081748	-0.175150	-0.986298
C54	C	-4.032384	-0.029741	-0.970015
C55	C	-4.005842	-0.030030	-0.910257
C56	C	-4.017244	-0.102886	-0.888519
O57	O	-3.942931	0.031305	-0.808798
O58	O	-4.034129	-0.237721	-0.838869
C59	C	-4.124440	0.037166	-0.172522
C60	C	-4.078656	0.125357	-0.173051
C61	C	-4.119353	-0.102015	-0.071646
C62	C	-4.070339	-0.102307	-0.008041
H63	H	-4.404386	-0.874314	-0.178267
H64	H	-3.730824	0.026446	-0.329509
H65	H	-4.023108	0.029566	-0.987729
O66	O	-3.821964	-0.248742	-0.355511
C67	C	-3.790449	-0.233424	-0.294613
H68	H	-3.702854	-0.169596	-0.278452
H69	H	-3.699845	-0.277838	-0.275540
H70	H	-3.943158	-0.240451	-0.280602
H71	H	-3.439035	-0.333491	-0.168493
O72	O	-3.455309	-0.489816	-0.167085
C73	C	-3.517323	-0.572712	-0.167220
H74	H	-3.666519	-0.583479	-0.151408
H75	H	-3.396487	-0.595413	-0.137306
H76	H	-3.539108	-0.606277	-0.213054
O77	O	-3.722189	-0.865563	-0.167516
C78	C	-3.750523	-0.924297	-0.216842
H79	H	-3.919498	-0.943922	-0.235837
H80	H	-3.684799	-0.978362	-0.204092
H81	H	-3.670186	-0.898103	-0.250484
O82	O	-4.118514	-0.245714	-1.023146
C83	C	-4.122932	-0.310066	-0.991136
H84	H	-4.034000	-0.287568	-0.945140
H85	H	-4.051597	-0.358716	-1.012541
H86	H	-4.286768	-0.335950	-0.989843
O87	O	-4.066461	-0.246186	-0.905387
C88	C	-4.224332	-0.254560	-0.874085
H89	H	-4.256212	-0.192760	-0.858943
H90	H	-4.177462	-0.284733	-0.834912
H91	H	-4.366978	-0.292958	-0.903086
H92	H	-3.778927	0.026963	-0.437915
O93	O	-4.167737	-0.505766	-0.178438
C94	C	-4.217732	-0.565018	-0.228087
H95	H	-4.126014	-0.545471	-0.261422
H96	H	-4.386454	-0.573270	-0.247297
H97	H	-4.181158	-0.624222	-0.215691
O98	O	-4.021067	-0.319726	-0.756377
C99	C	-4.025477	-0.384072	-0.724361
H100	H	-3.936566	-0.361565	-0.678363
H101	H	-3.954115	-0.432719	-0.745758
H102	H	-4.189313	-0.409963	-0.723072
H103	H	-3.974959	0.029059	-0.879302
H104	H	-3.705920	-0.709255	-0.168821
O105	O	-3.968505	-0.320187	-0.638627
C106	C	-3.782942	-0.320933	-0.601764
H107	H	-3.656887	-0.276949	-0.613211
H108	H	-3.746847	-0.383973	-0.607362
H109	H	-3.795038	-0.302481	-0.554911
O110	O	-3.874339	-0.248330	-0.473343
C111	C	-3.878777	-0.312680	-0.441330
H112	H	-3.789858	-0.290180	-0.395332
H113	H	-3.807438	-0.361333	-0.462731
H114	H	-4.042618	-0.338562	-0.440041
H115	H	-3.876263	0.100968	-0.704691
O116	O	-4.121649	-0.342478	-0.179345
C117	C	-4.296573	-0.400400	-0.181525
H118	H	-4.269681	-0.462318	-0.198535
H119	H	-4.430533	-0.385495	-0.211564
H120	H	-4.330955	-0.400224	-0.136239
O121	O	-4.388540	-0.718234	-0.179689
C122	C	-4.563473	-0.776154	-0.181873
H123	H	-4.536571	-0.838074	-0.198873
H124	H	-4.697414	-0.761253	-0.211922
H125	H	-4.597890	-0.775969	-0.136590
O126	O	-3.822070	0.111934	-0.590386
C127	C	-3.817731	0.176276	-0.622405
H128	H	-3.781131	0.156528	-0.666379
H129	H	-3.696519	0.229161	-0.597904
H130	H	-3.972027	0.195170	-0.628822
