data_functionalizedCrystal
_audit_creation_method	'MofGen! by Chris Wilmer'
_symmetry_space_group_name_H-M	'P1'
_symmetry_Int_Tables_number	1
_symmetry_cell_setting	triclinic
loop_
_symmetry_equiv_pos_as_xyz
  x,y,z
_cell_length_a	9.065218
_cell_length_b	15.021413
_cell_length_c	9.065218
_cell_angle_alpha	89.994080
_cell_angle_beta	94.984115
_cell_angle_gamma	89.992497
loop_
_atom_site_label
_atom_site_type_symbol
_atom_site_fract_x
_atom_site_fract_y
_atom_site_fract_z
O1	O	1.960410	-0.074030	-0.216337
O2	O	1.531125	-0.074031	-0.234084
O3	O	1.754640	-0.074029	-0.010568
O4	O	1.736894	-0.074033	-0.439853
O5	O	1.754605	0.074035	-0.010600
O6	O	1.531089	0.074033	-0.234116
O7	O	1.960374	0.074034	-0.216369
Zn8	Zn	1.745726	0.097542	-0.225247
Zn9	Zn	1.745773	-0.097539	-0.225205
O10	O	1.736858	0.074032	-0.439885
C11	C	1.476120	0.000001	-0.232394
C12	C	1.312277	0.000000	-0.227294
N13	N	1.745705	0.230679	-0.225275
N14	N	1.745806	-0.230677	-0.225166
C15	C	2.015378	-0.000000	-0.218059
C16	C	2.179221	-0.000005	-0.223158
C17	C	1.642334	0.470362	-0.328580
C18	C	1.776049	0.529696	-0.359000
C19	C	1.745742	0.412286	-0.225239
C20	C	1.612064	0.529693	-0.194852
C21	C	1.745766	0.587710	-0.225207
C22	C	1.879524	0.470314	-0.255727
C23	C	1.715451	0.470307	-0.091520
C24	C	1.849261	0.529614	-0.121885
C25	C	1.745726	0.311229	-0.225261
C26	C	1.745797	0.688766	-0.225184
C27	C	1.752917	0.000002	0.044403
C28	C	1.747817	-0.000003	0.208245
C29	C	1.738582	-0.000001	-0.494855
C30	C	1.743681	-0.000003	-0.658698
H31	H	1.801690	0.555782	-0.472070
H32	H	1.992610	0.444341	-0.281549
N33	N	1.965225	0.563869	-0.006099
H34	H	2.066111	0.542152	-0.029234
H35	H	1.963889	0.631099	-0.006188
N36	N	1.681447	0.435723	0.058212
H37	H	1.580383	0.457285	0.081065
H38	H	1.682740	0.368496	0.057258
N39	N	1.462315	0.564253	-0.160819
H40	H	1.384279	0.542700	-0.238963
H41	H	1.438749	0.541717	-0.060556
H42	H	1.554976	0.444345	-0.416044
