data_functionalizedCrystal
_audit_creation_method	'MofGen! by Chris Wilmer'
_symmetry_space_group_name_H-M	'P1'
_symmetry_Int_Tables_number	1
_symmetry_cell_setting	triclinic
loop_
_symmetry_equiv_pos_as_xyz
  x,y,z
_cell_length_a	16.120530
_cell_length_b	18.101395
_cell_length_c	16.120297
_cell_angle_alpha	87.127310
_cell_angle_beta	89.871860
_cell_angle_gamma	87.126665
loop_
_atom_site_label
_atom_site_type_symbol
_atom_site_fract_x
_atom_site_fract_y
_atom_site_fract_z
Zn1	Zn	1.247384	-0.375190	0.534565
Zn2	Zn	1.497384	-0.125190	0.784565
Zn3	Zn	1.747384	0.124810	1.034565
Zn4	Zn	1.997384	0.374810	1.284565
Zn5	Zn	1.254317	-0.493082	0.395508
Zn6	Zn	1.504317	-0.243082	0.645508
Zn7	Zn	1.754317	0.006918	0.895508
Zn8	Zn	2.004317	0.256918	1.145508
Zn9	Zn	1.115376	-0.362676	0.388483
Zn10	Zn	1.365376	-0.112676	0.638483
Zn11	Zn	1.615376	0.137324	0.888483
Zn12	Zn	1.865376	0.387324	1.138483
Zn13	Zn	1.108274	-0.492400	0.527477
Zn14	Zn	1.358274	-0.242400	0.777477
Zn15	Zn	1.608274	0.007600	1.027477
Zn16	Zn	1.858274	0.257600	1.277477
O17	O	1.181338	-0.430837	0.461508
O18	O	1.431338	-0.180837	0.711508
O19	O	1.681338	0.069163	0.961508
O20	O	1.931338	0.319163	1.211508
O21	O	1.364669	-0.396351	0.522025
O22	O	1.614669	-0.146351	0.772025
O23	O	1.864669	0.103649	1.022025
O24	O	2.114669	0.353649	1.272025
O25	O	1.241761	-0.470832	0.278211
O26	O	1.491761	-0.220832	0.528211
O27	O	1.741761	0.029168	0.778211
O28	O	1.991761	0.279168	1.028211
O29	O	1.132958	-0.260707	0.407888
O30	O	1.382958	-0.010707	0.657888
O31	O	1.632958	0.239293	0.907888
O32	O	1.882958	0.489293	1.157888
O33	O	1.369763	-0.482966	0.419860
O34	O	1.619763	-0.232966	0.669860
O35	O	1.869763	0.017034	0.919860
O36	O	2.119763	0.267034	1.169860
O37	O	1.229944	-0.269901	0.515214
O38	O	1.479944	-0.019901	0.765214
O39	O	1.729944	0.230099	1.015214
O40	O	1.979944	0.480099	1.265214
O41	O	1.139681	-0.375023	0.273050
O42	O	1.389681	-0.125023	0.523050
O43	O	1.639681	0.124977	0.773050
O44	O	1.889681	0.374977	1.023050
O45	O	0.998069	-0.374361	0.401015
O46	O	1.248069	-0.124361	0.651015
O47	O	1.498069	0.125639	0.901015
O48	O	1.748069	0.375639	1.151015
O49	O	1.120853	-0.481804	0.644783
O50	O	1.370853	-0.231804	0.894783
O51	O	1.620853	0.018196	1.144783
O52	O	1.870853	0.268196	1.394783
O53	O	0.992851	-0.469669	0.503133
O54	O	1.242851	-0.219669	0.753133
O55	O	1.492851	0.030331	1.003133
O56	O	1.742851	0.280331	1.253133
O57	O	1.223057	-0.395690	0.649990
O58	O	1.473057	-0.145690	0.899990
O59	O	1.723057	0.104310	1.149990
O60	O	1.973057	0.354310	1.399990
O61	O	1.234873	-0.596620	0.412987
O62	O	1.484873	-0.346620	0.662987
O63	O	1.734873	-0.096620	0.912987
O64	O	1.984873	0.153380	1.162987
O65	O	1.127576	-0.596119	0.509945
O66	O	1.377576	-0.346119	0.759945
O67	O	1.627576	-0.096119	1.009945
O68	O	1.877576	0.153881	1.259945
C69	C	0.965287	-0.420584	0.450543
C70	C	1.215287	-0.170584	0.700543
C71	C	1.465287	0.079416	0.950543
C72	C	1.715287	0.329416	1.200543
C73	C	0.872859	-0.416216	0.445872
C74	C	1.122859	-0.166216	0.695872
C75	C	1.372859	0.083784	0.945872
C76	C	1.622859	0.333784	1.195872
C77	C	0.703631	-0.408225	0.437350
C78	C	0.953631	-0.158225	0.687350
C79	C	1.203631	0.091775	0.937350
C80	C	1.453631	0.341775	1.187350
C81	C	0.659883	-0.453506	0.485727
C82	C	0.909883	-0.203506	0.735727
C83	C	1.159883	0.046494	0.985727
C84	C	1.409883	0.296494	1.235727
C85	C	0.565718	-0.449060	0.480986
C86	C	0.815718	-0.199060	0.730986
C87	C	1.065718	0.050940	0.980986
C88	C	1.315718	0.300940	1.230986
C89	C	0.797804	-0.412671	0.442091
C90	C	1.047804	-0.162671	0.692091
C91	C	1.297804	0.087329	0.942091
C92	C	1.547804	0.337329	1.192091
C93	C	1.181228	-0.623241	0.461478
C94	C	1.431228	-0.373241	0.711478
C95	C	1.681228	-0.123241	0.961478
C96	C	1.931228	0.126759	1.211478
C97	C	1.181256	-0.705558	0.461497
C98	C	1.431256	-0.455558	0.711497
C99	C	1.681256	-0.205558	0.961497
C100	C	1.931256	0.044442	1.211497
C101	C	1.181436	-1.004659	0.461551
C102	C	1.431436	-0.754659	0.711551
C103	C	1.681436	-0.504659	0.961551
C104	C	1.931436	-0.254659	1.211551
C105	C	1.114068	-0.973063	0.522721
C106	C	1.364068	-0.723063	0.772721
C107	C	1.614068	-0.473063	1.022721
C108	C	1.864068	-0.223063	1.272721
C109	C	1.113774	-0.887422	0.522504
C110	C	1.363774	-0.637422	0.772504
C111	C	1.613774	-0.387422	1.022504
C112	C	1.863774	-0.137422	1.272504
C113	C	1.181346	-0.856271	0.461525
C114	C	1.431346	-0.606271	0.711525
C115	C	1.681346	-0.356271	0.961525
C116	C	1.931346	-0.106271	1.211525
C117	C	1.162064	-0.882548	0.372686
C118	C	1.412064	-0.632548	0.622686
C119	C	1.662064	-0.382548	0.872686
C120	C	1.912064	-0.132548	1.122686
C121	C	1.161632	-0.968190	0.373050
C122	C	1.411632	-0.718190	0.623050
C123	C	1.661632	-0.468190	0.873050
C124	C	1.911632	-0.218190	1.123050
C125	C	1.268265	-0.978132	0.488456
C126	C	1.518265	-0.728132	0.738456
C127	C	1.768265	-0.478132	0.988456
C128	C	2.018265	-0.228132	1.238456
C129	C	1.267650	-0.892539	0.490352
C130	C	1.517650	-0.642539	0.740352
C131	C	1.767650	-0.392539	0.990352
C132	C	2.017650	-0.142539	1.240352
C133	C	1.181297	-0.772409	0.461505
C134	C	1.431297	-0.522409	0.711505
C135	C	1.681297	-0.272409	0.961505
C136	C	1.931297	-0.022409	1.211505
C137	C	1.181483	-1.088521	0.461565
C138	C	1.431483	-0.838521	0.711565
C139	C	1.681483	-0.588521	0.961565
C140	C	1.931483	-0.338521	1.211565
C141	C	1.398232	-0.441131	0.472517
C142	C	1.648232	-0.191131	0.722517
C143	C	1.898232	0.058869	0.972517
C144	C	2.148232	0.308869	1.222517
C145	C	1.490660	-0.445517	0.477208
C146	C	1.740660	-0.195517	0.727208
C147	C	1.990660	0.054483	0.977208
C148	C	2.240660	0.304483	1.227208
C149	C	1.170389	-0.440067	0.678403
C150	C	1.420389	-0.190067	0.928403
C151	C	1.670389	0.059933	1.178403
C152	C	1.920389	0.309933	1.428403
C153	C	1.165724	-0.444000	0.770830
C154	C	1.415724	-0.194000	1.020830
C155	C	1.665724	0.056000	1.270830
C156	C	1.915724	0.306000	1.520830
C157	C	1.181470	-0.237683	0.461558
C158	C	1.431470	0.012317	0.711558
C159	C	1.681470	0.262317	0.961558
C160	C	1.931470	0.512317	1.211558
C161	C	1.181526	-0.155373	0.461579
C162	C	1.431526	0.094627	0.711579
C163	C	1.681526	0.344627	0.961579
C164	C	1.931526	0.594627	1.211579
C165	C	1.192292	-0.421592	0.245460
C166	C	1.442292	-0.171592	0.495460
C167	C	1.692292	0.078408	0.745460
C168	C	1.942292	0.328408	0.995460
C169	C	1.197119	-0.417458	0.153042
C170	C	1.447119	-0.167458	0.403042
C171	C	1.697119	0.082542	0.653042
C172	C	1.947119	0.332542	0.903042
C173	C	1.157175	-0.451163	0.940055
C174	C	1.407175	-0.201163	1.190055
C175	C	1.657175	0.048837	1.440055
C176	C	1.907175	0.298837	1.690055
C177	C	1.205665	-0.410297	0.983822
C178	C	1.455665	-0.160297	1.233822
C179	C	1.705665	0.089703	1.483822
C180	C	1.955665	0.339703	1.733822
C181	C	1.200908	-0.414283	1.077985
C182	C	1.450908	-0.164283	1.327985
C183	C	1.700908	0.085717	1.577985
C184	C	1.950908	0.335717	1.827985
C185	C	1.161931	-0.447178	0.845884
C186	C	1.411931	-0.197178	1.095884
C187	C	1.661931	0.052822	1.345884
C188	C	1.911931	0.302822	1.595884
H189	H	0.693149	-0.495611	0.530706
H190	H	0.943149	-0.245611	0.780706
H191	H	1.193149	0.004389	1.030706
H192	H	1.443149	0.254389	1.280706
H193	H	1.050005	-0.990950	0.504755
H194	H	1.300005	-0.740950	0.754755
H195	H	1.550005	-0.490950	1.004755
H196	H	1.800005	-0.240950	1.254755
C197	C	0.658692	-0.351350	0.376587
C198	C	0.908692	-0.101350	0.626587
C199	C	1.158692	0.148650	0.876587
C200	C	1.408692	0.398650	1.126587
N201	N	0.624834	-0.308514	0.330819
N202	N	0.874834	-0.058514	0.580819
N203	N	1.124834	0.191486	0.830819
N204	N	1.374834	0.441486	1.080819
C205	C	1.129372	-0.863671	0.611309
C206	C	1.379372	-0.613671	0.861309
C207	C	1.629372	-0.363671	1.111309
C208	C	1.879372	-0.113671	1.361309
N209	N	1.141118	-0.845785	0.678202
N210	N	1.391118	-0.595785	0.928202
N211	N	1.641118	-0.345785	1.178202
N212	N	1.891118	-0.095785	1.428202
C213	C	1.129450	-1.005537	0.611801
C214	C	1.379450	-0.755537	0.861801
C215	C	1.629450	-0.505537	1.111801
C216	C	1.879450	-0.255537	1.361801
N217	N	1.141035	-1.030004	0.678897
N218	N	1.391035	-0.780004	0.928897
N219	N	1.641035	-0.530004	1.178897
N220	N	1.891035	-0.280004	1.428897
H221	H	1.049324	-0.863273	0.504331
H222	H	1.299324	-0.613273	0.754331
H223	H	1.549324	-0.363273	1.004331
H224	H	1.799324	-0.113273	1.254331
H225	H	1.250750	-0.372317	0.950575
H226	H	1.500750	-0.122317	1.200575
H227	H	1.750750	0.127683	1.450575
H228	H	2.000750	0.377683	1.700575
H229	H	1.098292	-0.984372	0.350776
H230	H	1.348292	-0.734372	0.600776
H231	H	1.598292	-0.484372	0.850776
H232	H	1.848292	-0.234372	1.100776
C233	C	1.225360	-0.996170	0.309048
C234	C	1.475360	-0.746170	0.559048
C235	C	1.725360	-0.496170	0.809048
C236	C	1.975360	-0.246170	1.059048
N237	N	1.273354	-1.017240	0.260837
N238	N	1.523354	-0.767240	0.510837
N239	N	1.773354	-0.517240	0.760837
N240	N	2.023354	-0.267240	1.010837
C241	C	1.226526	-0.855068	0.309168
C242	C	1.476526	-0.605068	0.559168
C243	C	1.726526	-0.355068	0.809168
C244	C	1.976526	-0.105068	1.059168
N245	N	1.275078	-0.834367	0.261327
N246	N	1.525078	-0.584367	0.511327
N247	N	1.775078	-0.334367	0.761327
N248	N	2.025078	-0.084367	1.011327
H249	H	1.099423	-0.857320	0.350105
H250	H	1.349423	-0.607320	0.600105
H251	H	1.599423	-0.357320	0.850105
H252	H	1.849423	-0.107320	1.100105
H253	H	1.286711	-1.003393	0.552368
H254	H	1.536711	-0.753393	0.802368
H255	H	1.786711	-0.503393	1.052368
H256	H	2.036711	-0.253393	1.302368
C257	C	1.335999	-1.005838	0.428346
C258	C	1.585999	-0.755838	0.678346
C259	C	1.835999	-0.505838	0.928346
C260	C	2.085999	-0.255838	1.178346
N261	N	1.387010	-1.026711	0.383068
N262	N	1.637010	-0.776711	0.633068
N263	N	1.887010	-0.526711	0.883068
N264	N	2.137010	-0.276711	1.133068
H265	H	1.282271	-0.875783	0.555755
H266	H	1.532271	-0.625783	0.805755
H267	H	1.782271	-0.375783	1.055755
H268	H	2.032271	-0.125783	1.305755
C269	C	1.338565	-0.864319	0.435027
C270	C	1.588565	-0.614319	0.685027
C271	C	1.838565	-0.364319	0.935027
C272	C	2.088565	-0.114319	1.185027
N273	N	1.391977	-0.843065	0.393348
N274	N	1.641977	-0.593065	0.643348
N275	N	1.891977	-0.343065	0.893348
N276	N	2.141977	-0.093065	1.143348
C277	C	1.096269	-0.502467	0.984969
C278	C	1.346269	-0.252467	1.234969
C279	C	1.596269	-0.002467	1.484969
C280	C	1.846269	0.247533	1.734969
N281	N	1.050395	-0.541110	1.018807
N282	N	1.300395	-0.291110	1.268807
N283	N	1.550395	-0.041110	1.518807
N284	N	1.800395	0.208890	1.768807
