data_functionalizedCrystal
_audit_creation_method	'MofGen! by Chris Wilmer'
_symmetry_space_group_name_H-M	'P1'
_symmetry_Int_Tables_number	1
_symmetry_cell_setting	triclinic
loop_
_symmetry_equiv_pos_as_xyz
  x,y,z
_cell_length_a	11.792254
_cell_length_b	23.532357
_cell_length_c	22.610064
_cell_angle_alpha	90.003876
_cell_angle_beta	90.014024
_cell_angle_gamma	83.513444
loop_
_atom_site_label
_atom_site_type_symbol
_atom_site_fract_x
_atom_site_fract_y
_atom_site_fract_z
O1	O	1.505051	0.078084	0.049192
O2	O	2.005051	0.578084	0.549192
O3	O	1.174520	0.086121	0.049194
O4	O	1.674520	0.586121	0.549194
O5	O	1.349782	-0.000771	0.049181
O6	O	1.849782	0.499229	0.549181
O7	O	1.329789	0.164977	0.049205
O8	O	1.829789	0.664977	0.549205
O9	O	1.349733	-0.000762	-0.049188
O10	O	1.849733	0.499238	0.450812
O11	O	1.174471	0.086131	-0.049175
O12	O	1.674471	0.586131	0.450825
O13	O	1.505002	0.078094	-0.049177
O14	O	2.005002	0.578094	0.450823
Zn15	Zn	1.339729	0.082114	-0.064794
Zn16	Zn	1.839729	0.582114	0.435206
Zn17	Zn	1.339794	0.082101	0.064811
Zn18	Zn	1.839794	0.582101	0.564811
O19	O	1.329740	0.164987	-0.049164
O20	O	1.829740	0.664987	0.450836
C21	C	1.132217	0.085620	0.000009
C22	C	1.632217	0.585620	0.500009
C23	C	1.006240	0.084105	0.000010
C24	C	1.506240	0.584105	0.500010
C25	C	0.903933	0.082873	0.000012
C26	C	1.403933	0.582873	0.500012
C27	C	0.775583	0.081334	0.000012
C28	C	1.275583	0.581334	0.500012
C29	C	1.349258	-0.021986	-0.000006
C30	C	1.849258	0.478014	0.499994
C31	C	1.347754	-0.085214	-0.000011
C32	C	1.847754	0.414786	0.499989
C33	C	1.338342	-0.477286	0.053642
C34	C	1.838342	0.022714	0.553642
C35	C	1.336913	-0.536694	0.053645
C36	C	1.836913	-0.036694	0.553645
O37	O	1.336158	-0.567420	0.099248
O38	O	1.836158	-0.067420	0.599248
N39	N	1.336177	-0.566404	0.000025
N40	N	1.836177	-0.066404	0.500025
C41	C	1.336859	-0.536703	-0.053602
C42	C	1.836859	-0.036703	0.446398
O43	O	1.336101	-0.567428	-0.099210
O44	O	1.836101	-0.067428	0.400790
C45	C	1.338280	-0.477295	-0.053605
C46	C	1.838280	0.022705	0.446395
C47	C	1.339027	-0.447589	0.000019
C48	C	1.839027	0.052411	0.500019
C49	C	1.339088	-0.447580	0.107261
C50	C	1.839088	0.052420	0.607261
C51	C	1.340519	-0.388176	0.107258
C52	C	1.840519	0.111824	0.607258
C53	C	1.341205	-0.358479	0.053635
C54	C	1.841205	0.141521	0.553635
C55	C	1.340459	-0.388185	0.000015
C56	C	1.840459	0.111815	0.500015
C57	C	1.338954	-0.447594	-0.107232
C58	C	1.838954	0.052406	0.392768
C59	C	1.340374	-0.388183	-0.107230
C60	C	1.840374	0.111817	0.392770
C61	C	1.341122	-0.358476	-0.053606
C62	C	1.841122	0.141524	0.446394
C63	C	1.342575	-0.299084	-0.053612
C64	C	1.842575	0.200916	0.446388
N65	N	1.343311	-0.269374	0.000009
N66	N	1.843311	0.230626	0.500009
C67	C	1.342626	-0.299072	0.053632
C68	C	1.842626	0.200928	0.553632
C69	C	1.333873	-0.661462	-0.053592
C70	C	1.833873	-0.161462	0.446408
C71	C	1.332460	-0.720869	-0.053590
C72	C	1.832460	-0.220869	0.446410
C73	C	1.332511	-0.720856	0.053657
C74	C	1.832511	-0.220856	0.553657
C75	C	1.333932	-0.661449	0.053655
C76	C	1.833932	-0.161449	0.553655
C77	C	1.334608	-0.631752	0.000028
C78	C	1.834608	-0.131752	0.500028
C79	C	1.345633	-0.174320	0.053620
C80	C	1.845633	0.325680	0.553620
C81	C	1.347069	-0.114911	0.053612
C82	C	1.847069	0.385089	0.553612
C83	C	1.347011	-0.114928	-0.053636
C84	C	1.847011	0.385072	0.446364
C85	C	1.345581	-0.174332	-0.053628
C86	C	1.845581	0.325668	0.446372
C87	C	1.344888	-0.204026	0.000005
C88	C	1.844888	0.295974	0.500005
O89	O	1.343326	-0.268321	-0.099191
O90	O	1.843326	0.231679	0.400809
O91	O	1.343369	-0.268338	0.099232
O92	O	1.843369	0.231662	0.599232
C93	C	1.547305	0.078596	0.000009
C94	C	2.047305	0.578596	0.500009
C95	C	1.673282	0.080111	0.000012
C96	C	2.173282	0.580111	0.500012
C97	C	1.330264	0.186202	0.000024
C98	C	1.830264	0.686202	0.500024
C99	C	1.331768	0.249429	0.000033
C100	C	1.831768	0.749429	0.500033
N101	N	1.339692	0.082123	-0.153247
N102	N	1.839692	0.582123	0.346753
C103	C	1.271338	0.047323	-0.438093
C104	C	1.771338	0.547323	0.061907
C105	C	1.271327	0.047325	-0.376173
C106	C	1.771327	0.547325	0.123827
O107	O	1.213163	0.017739	-0.344153
O108	O	1.713163	0.517739	0.155847
N109	N	1.339740	0.082105	-0.345199
N110	N	1.839740	0.582105	0.154801
C111	C	1.408177	0.116879	-0.376148
C112	C	1.908177	0.616879	0.123852
O113	O	1.466367	0.146461	-0.344117
O114	O	1.966367	0.646461	0.155883
C115	C	1.408193	0.116873	-0.438067
C116	C	1.908193	0.616873	0.061933
C117	C	1.339767	0.082096	-0.469038
C118	C	1.839767	0.582096	0.030962
C119	C	1.202918	0.012548	-0.469064
C120	C	1.702918	0.512548	0.030936
C121	C	1.202928	0.012546	-0.530980
C122	C	1.702928	0.512546	-0.030980
C123	C	1.271357	0.047319	-0.561924
C124	C	1.771357	0.547319	-0.061924
C125	C	1.339776	0.082094	-0.530954
C126	C	1.839776	0.582094	-0.030954
C127	C	1.476635	0.151644	-0.469015
C128	C	1.976635	0.651644	0.030985
C129	C	1.476646	0.151634	-0.530938
C130	C	1.976646	0.651634	-0.030938
C131	C	1.408220	0.116857	-0.561909
C132	C	1.908220	0.616857	-0.061909
C133	C	1.408215	0.116865	-0.623814
C134	C	1.908215	0.616865	-0.123814
N135	N	1.339802	0.082086	-0.654788
N136	N	1.839802	0.582086	-0.154788
C137	C	1.271373	0.047313	-0.623843
C138	C	1.771373	0.547313	-0.123843
C139	C	1.408139	0.116888	-0.246115
C140	C	1.908139	0.616888	0.253885
C141	C	1.408117	0.116898	-0.184197
C142	C	1.908117	0.616898	0.315803
C143	C	1.271269	0.047344	-0.184226
C144	C	1.771269	0.547344	0.315774
C145	C	1.271285	0.047337	-0.246145
C146	C	1.771285	0.547337	0.253855
C147	C	1.339726	0.082109	-0.277089
C148	C	1.839726	0.582109	0.222911
C149	C	1.271398	0.047312	-0.753870
C150	C	1.771398	0.547312	-0.253870
C151	C	1.271410	0.047315	-0.815792
C152	C	1.771410	0.547315	-0.315792
C153	C	1.408262	0.116867	-0.815757
C154	C	1.908262	0.616867	-0.315757
C155	C	1.408246	0.116867	-0.753841
C156	C	1.908246	0.616867	-0.253841
C157	C	1.339811	0.082085	-0.722900
C158	C	1.839811	0.582085	-0.222900
O159	O	1.466353	0.146435	-0.655874
O160	O	1.966353	0.646435	-0.155874
O161	O	1.213204	0.017730	-0.655882
O162	O	1.713204	0.517730	-0.155882
N163	N	1.339839	0.082088	0.153264
N164	N	1.839839	0.582088	0.653264
H165	H	1.345063	-0.198489	0.097293
H166	H	1.845063	0.301511	0.597293
H167	H	1.331949	-0.745046	0.097320
H168	H	1.831949	-0.245046	0.597320
N169	N	1.331722	-0.751202	-0.108371
N170	N	1.831722	-0.251202	0.391629
N171	N	1.332340	-0.724673	-0.156242
N172	N	1.832340	-0.224673	0.343758
H173	H	1.331815	-0.746093	-0.194934
H174	H	1.831815	-0.246093	0.305066
H175	H	1.347574	-0.090738	-0.097294
H176	H	1.847574	0.409262	0.402706
H177	H	1.463823	0.145224	-0.158986
H178	H	1.963823	0.645224	0.341014
H179	H	1.341123	-0.363994	0.150924
H180	H	1.841123	0.136006	0.650924
N181	N	1.338380	-0.477900	0.162046
N182	N	1.838380	0.022100	0.662046
N183	N	1.339043	-0.451357	0.209912
N184	N	1.839043	0.048643	0.709912
H185	H	1.338550	-0.472767	0.248608
H186	H	1.838550	0.027233	0.748608
N187	N	1.334700	-0.631116	0.108435
N188	N	1.834700	-0.131116	0.608435
N189	N	1.334097	-0.657647	0.156306
N190	N	1.834097	-0.157647	0.656306
H191	H	1.334639	-0.636227	0.194997
H192	H	1.834639	-0.136227	0.694997
N193	N	1.334568	-0.631139	-0.108380
N194	N	1.834568	-0.131139	0.391620
N195	N	1.333909	-0.657678	-0.156248
N196	N	1.833909	-0.157678	0.343752
H197	H	1.334397	-0.636265	-0.194942
H198	H	1.834397	-0.136265	0.305058
H199	H	1.338347	-0.471771	-0.150898
H200	H	1.838347	0.028229	0.349102
N201	N	1.201392	0.011811	-0.152611
N202	N	1.701392	0.511811	0.347389
N203	N	1.215613	-0.041218	-0.159520
N204	N	1.715613	0.458782	0.340480
H205	H	1.166265	-0.066312	-0.137190
H206	H	1.666265	0.433688	0.362810
H207	H	1.340908	-0.364006	-0.150900
H208	H	1.840908	0.135994	0.349100
H209	H	1.532382	0.179950	-0.556129
H210	H	2.032382	0.679950	-0.056129
H211	H	1.215671	0.018990	-0.728685
H212	H	1.715671	0.518990	-0.228685
N213	N	1.133028	-0.022983	-0.562601
N214	N	1.633028	0.477017	-0.062601
N215	N	1.071944	-0.054026	-0.534955
N216	N	1.571944	0.445974	-0.034955
H217	H	1.022575	-0.079122	-0.557283
H218	H	1.522575	0.420878	-0.057283
H219	H	1.463948	0.145193	-0.728624
H220	H	1.963948	0.645193	-0.228624
H221	H	1.532357	0.179962	-0.443809
H222	H	2.032357	0.679962	0.056191
H223	H	1.344983	-0.198521	-0.097292
H224	H	1.844983	0.301479	0.402708
N225	N	1.478039	0.152426	-0.277709
N226	N	1.978039	0.652426	0.222291
N227	N	1.463814	0.205452	-0.270786
N228	N	1.963814	0.705452	0.229214
H229	H	1.513182	0.230552	-0.293096
H230	H	2.013182	0.730552	0.206904
H231	H	1.463973	0.145180	-0.840964
H232	H	1.963973	0.645180	-0.340964
N233	N	1.133011	-0.022981	-0.437470
N234	N	1.633011	0.477019	0.062530
N235	N	1.071936	-0.054025	-0.465142
N236	N	1.571936	0.445975	0.034858
H237	H	1.022554	-0.079117	-0.442833
H238	H	1.522554	0.420883	0.057167
H239	H	1.215567	0.019019	-0.271357
H240	H	1.715567	0.519019	0.228643
N241	N	1.347841	-0.084577	0.108395
N242	N	1.847841	0.415423	0.608395
N243	N	1.347228	-0.111104	0.156268
N244	N	1.847228	0.388896	0.656268
H245	H	1.347773	-0.089683	0.194958
H246	H	1.847773	0.410317	0.694958
N247	N	1.201497	0.011790	-0.847417
N248	N	1.701497	0.511790	-0.347417
N249	N	1.140407	-0.019255	-0.819776
N250	N	1.640407	0.480745	-0.319776
H251	H	1.091032	-0.044344	-0.842109
H252	H	1.591032	0.455656	-0.342109
