data_functionalizedCrystal
_audit_creation_method	'MofGen! by Chris Wilmer'
_symmetry_space_group_name_H-M	'P1'
_symmetry_Int_Tables_number	1
_symmetry_cell_setting	triclinic
loop_
_symmetry_equiv_pos_as_xyz
  x,y,z
_cell_length_a	18.215407
_cell_length_b	18.050583
_cell_length_c	18.215405
_cell_angle_alpha	90.038858
_cell_angle_beta	89.977656
_cell_angle_gamma	89.986780
loop_
_atom_site_label
_atom_site_type_symbol
_atom_site_fract_x
_atom_site_fract_y
_atom_site_fract_z
Zn1	Zn	1.125045	-0.419844	0.292981
Zn2	Zn	1.458379	-0.086510	0.626315
Zn3	Zn	1.791712	0.246823	0.959648
Zn4	Zn	1.124962	-0.295648	0.416071
Zn5	Zn	1.458295	0.037685	0.749404
Zn6	Zn	1.791628	0.371019	1.082737
Zn7	Zn	1.001986	-0.295674	0.293017
Zn8	Zn	1.335319	0.037659	0.626350
Zn9	Zn	1.668652	0.370993	0.959684
Zn10	Zn	1.001944	-0.419803	0.416005
Zn11	Zn	1.335277	-0.086469	0.749339
Zn12	Zn	1.668610	0.246864	1.082672
O13	O	1.063484	-0.357742	0.354519
O14	O	1.396817	-0.024409	0.687852
O15	O	1.730151	0.308925	1.021185
O16	O	1.228018	-0.403375	0.309322
O17	O	1.561352	-0.070042	0.642655
O18	O	1.894685	0.263291	0.975989
O19	O	1.108631	-0.191727	0.399789
O20	O	1.441964	0.141606	0.733123
O21	O	1.775298	0.474940	1.066456
O22	O	1.018362	-0.312173	0.190028
O23	O	1.351696	0.021160	0.523361
O24	O	1.685029	0.354493	0.856695
O25	O	1.227957	-0.312129	0.399755
O26	O	1.561290	0.021204	0.733088
O27	O	1.894624	0.354537	1.066422
O28	O	1.108774	-0.403400	0.190002
O29	O	1.442107	-0.070067	0.523335
O30	O	1.775440	0.263266	0.856669
O31	O	1.018281	-0.191746	0.309382
O32	O	1.351615	0.141587	0.642716
O33	O	1.684948	0.474921	0.976049
O34	O	0.898996	-0.312133	0.309319
O35	O	1.232329	0.021200	0.642653
O36	O	1.565663	0.354533	0.975986
O37	O	1.018291	-0.523733	0.399644
O38	O	1.351624	-0.190399	0.732977
O39	O	1.684957	0.142934	1.066310
O40	O	0.898965	-0.403330	0.399678
O41	O	1.232298	-0.069997	0.733012
O42	O	1.565632	0.263336	1.066345
O43	O	1.108733	-0.523763	0.309259
O44	O	1.442066	-0.190430	0.642592
O45	O	1.775400	0.142904	0.975925
O46	O	1.108590	-0.312090	0.519046
O47	O	1.441924	0.021244	0.852380
O48	O	1.775257	0.354577	1.185713
O49	O	1.018210	-0.403305	0.518998
O50	O	1.351543	-0.069972	0.852332
O51	O	1.684876	0.263361	1.185665
C52	C	0.872278	-0.357731	0.354496
C53	C	1.205611	-0.024397	0.687829
C54	C	1.538944	0.308936	1.021163
C55	C	0.790479	-0.357743	0.354504
C56	C	1.123812	-0.024410	0.687837
C57	C	1.457146	0.308923	1.021171
C58	C	0.525424	-0.405163	0.401646
C59	C	0.858758	-0.071830	0.734979
C60	C	1.192091	0.261503	1.068312
C61	C	0.602283	-0.405160	0.401640
C62	C	0.935617	-0.071826	0.734973
C63	C	1.268950	0.261507	1.068306
C64	C	0.602285	-0.310334	0.307408
C65	C	0.935618	0.022999	0.640741
C66	C	1.268951	0.356333	0.974075
C67	C	0.525427	-0.310335	0.307418
C68	C	0.858761	0.022999	0.640752
C69	C	1.192094	0.356332	0.974085
C70	C	0.486999	-0.357753	0.354536
C71	C	0.820333	-0.024420	0.687870
C72	C	1.153666	0.308913	1.021203
C73	C	0.640715	-0.357749	0.354519
C74	C	0.974049	-0.024416	0.687853
C75	C	1.307382	0.308917	1.021186
C76	C	0.724049	-0.357745	0.354512
C77	C	1.057382	-0.024412	0.687846
C78	C	1.390716	0.308922	1.021179
C79	C	0.403660	-0.357757	0.354545
C80	C	0.736994	-0.024423	0.687878
C81	C	1.070327	0.308910	1.021211
C82	C	1.063517	-0.551448	0.354440
C83	C	1.396850	-0.218115	0.687773
C84	C	1.730183	0.115219	1.021107
C85	C	1.063530	-0.633994	0.354407
C86	C	1.396864	-0.300660	0.687740
C87	C	1.730197	0.032673	1.021073
C88	C	1.112762	-0.833461	0.305231
C89	C	1.446095	-0.500127	0.638565
C90	C	1.779429	-0.166794	0.971898
C91	C	1.045640	-0.882860	0.287217
C92	C	1.378974	-0.549526	0.620550
C93	C	1.712307	-0.216193	0.953883
C94	C	1.063560	-0.785124	0.354394
C95	C	1.396893	-0.451791	0.687727
C96	C	1.730227	-0.118457	1.021061
C97	C	1.130709	-0.882807	0.372362
C98	C	1.464042	-0.549474	0.705695
C99	C	1.797375	-0.216140	1.039029
C100	C	1.063594	-0.931109	0.354380
C101	C	1.396928	-0.597776	0.687714
C102	C	1.730261	-0.264443	1.021047
C103	C	0.996402	-0.833436	0.336344
C104	C	1.329736	-0.500103	0.669678
C105	C	1.663069	-0.166769	1.003011
C106	C	1.081516	-0.833379	0.421521
C107	C	1.414850	-0.500045	0.754854
C108	C	1.748183	-0.166712	1.088188
C109	C	1.014348	-0.882755	0.403532
C110	C	1.347681	-0.549422	0.736865
C111	C	1.681015	-0.216089	1.070199
C112	C	1.063541	-0.701026	0.354400
C113	C	1.396874	-0.367692	0.687733
C114	C	1.730208	-0.034359	1.021067
C115	C	1.063606	-1.015206	0.354374
C116	C	1.396939	-0.681873	0.687708
C117	C	1.730272	-0.348539	1.021041
C118	C	1.255437	-0.357754	0.354542
C119	C	1.588770	-0.024421	0.687875
C120	C	1.922104	0.308913	1.021208
C121	C	1.337236	-0.357759	0.354552
C122	C	1.670569	-0.024426	0.687885
C123	C	2.003902	0.308908	1.021218
C124	C	1.063406	-0.357706	0.545725
C125	C	1.396740	-0.024373	0.879058
C126	C	1.730073	0.308960	1.212392
C127	C	1.063440	-0.357716	0.627524
C128	C	1.396774	-0.024383	0.960857
C129	C	1.730107	0.308951	1.294190
C130	C	1.063494	-0.164790	0.354544
C131	C	1.396827	0.168543	0.687877
C132	C	1.730161	0.501877	1.021210
C133	C	1.063623	-0.082245	0.354370
C134	C	1.396956	0.251089	0.687703
C135	C	1.730289	0.584422	1.021037
C136	C	1.063582	-0.357794	0.162566
C137	C	1.396915	-0.024461	0.495899
C138	C	1.730249	0.308872	0.829232
C139	C	1.063624	-0.357816	0.080767
C140	C	1.396957	-0.024483	0.414100
C141	C	1.730291	0.308850	0.747433
C142	C	1.110612	-0.310307	0.815718
C143	C	1.443945	0.023026	1.149051
C144	C	1.777279	0.356359	1.482385
C145	C	1.110645	-0.310325	0.892577
C146	C	1.443978	0.023008	1.225910
C147	C	1.777312	0.356341	1.559244
C148	C	1.016450	-0.405230	0.892567
C149	C	1.349783	-0.071897	1.225900
C150	C	1.683117	0.261436	1.559234
C151	C	1.016421	-0.405216	0.815710
C152	C	1.349755	-0.071882	1.149043
C153	C	1.683088	0.261451	1.482376
C154	C	1.063501	-0.357750	0.777287
C155	C	1.396835	-0.024416	1.110621
C156	C	1.730168	0.308917	1.443954
C157	C	1.063563	-0.357783	0.931003
C158	C	1.396896	-0.024449	1.264337
C159	C	1.730230	0.308884	1.597670
C160	C	1.063598	-0.357802	1.014337
C161	C	1.396932	-0.024469	1.347670
C162	C	1.730265	0.308864	1.681004
C163	C	1.063467	-0.357731	0.693948
C164	C	1.396801	-0.024397	1.027282
C165	C	1.730134	0.308936	1.360615
H166	H	0.494141	-0.271724	0.269055
H167	H	0.827474	0.061609	0.602388
H168	H	1.160807	0.394943	0.935722
H169	H	0.494139	-0.443774	0.440012
H170	H	0.827472	-0.110441	0.773346
H171	H	1.160805	0.222892	1.106679
H172	H	1.154303	-0.811814	0.263630
H173	H	1.487636	-0.478480	0.596963
H174	H	1.820969	-0.145147	0.930297
H175	H	0.978058	-0.443853	0.784417
H176	H	1.311391	-0.110519	1.117750
H177	H	1.644725	0.222814	1.451084
H178	H	0.939614	-0.811840	0.321075
H179	H	1.272947	-0.478506	0.654409
H180	H	1.606280	-0.145173	0.987742
H181	H	0.633566	-0.443765	0.440002
H182	H	0.966899	-0.110431	0.773335
H183	H	1.300232	0.222902	1.106668
H184	H	0.633582	-0.271729	0.269045
H185	H	0.966916	0.061605	0.602378
H186	H	1.300249	0.394938	0.935712
H187	H	0.972706	-0.904263	0.445101
H188	H	1.306040	-0.570930	0.778435
H189	H	1.639373	-0.237597	1.111768
H190	H	1.030463	-0.904594	0.230443
H191	H	1.363797	-0.571261	0.563776
H192	H	1.697130	-0.237928	0.897110
Br193	Br	1.106846	-0.797124	0.516122
Br194	Br	1.440179	-0.463791	0.849456
Br195	Br	1.773512	-0.130458	1.182789
H196	H	1.187481	-0.904497	0.387564
H197	H	1.520814	-0.571163	0.720897
H198	H	1.854148	-0.237830	1.054231
H199	H	1.148948	-0.271659	0.784436
H200	H	1.482282	0.061674	1.117770
H201	H	1.815615	0.395008	1.451103
H202	H	1.149008	-0.271694	0.923864
H203	H	1.482342	0.061640	1.257197
H204	H	1.815675	0.394973	1.590531
H205	H	0.978118	-0.443874	0.923860
H206	H	1.311452	-0.110541	1.257193
H207	H	1.644785	0.222792	1.590526
