data_functionalizedCrystal
_audit_creation_method	'MofGen! by Chris Wilmer'
_symmetry_space_group_name_H-M	'P1'
_symmetry_Int_Tables_number	1
_symmetry_cell_setting	triclinic
loop_
_symmetry_equiv_pos_as_xyz
  x,y,z
_cell_length_a	6.817900
_cell_length_b	9.109307
_cell_length_c	9.170709
_cell_angle_alpha	89.144140
_cell_angle_beta	112.460645
_cell_angle_gamma	111.764999
loop_
_atom_site_label
_atom_site_type_symbol
_atom_site_fract_x
_atom_site_fract_y
_atom_site_fract_z
V1	V	-4.150291	-0.152525	-0.506779
V2	V	-3.650291	0.347475	-0.006779
O3	O	-4.074222	0.077898	-0.466671
O4	O	-3.574222	0.577898	0.033329
O5	O	-4.159852	-0.370301	-0.532609
O6	O	-3.659852	0.129699	-0.032609
O7	O	-4.128898	-0.119214	-0.714436
O8	O	-3.628898	0.380786	-0.214436
O9	O	-4.105390	-0.174927	-0.283584
O10	O	-3.605390	0.325073	0.216416
V11	V	-4.622909	-0.128622	-0.476524
V12	V	-4.122909	0.371378	0.023476
O13	O	-4.435470	-0.204957	-0.573145
O14	O	-3.935470	0.295043	-0.073145
O15	O	-4.787926	-0.076190	-0.410158
O16	O	-4.287926	0.423810	0.089842
O17	O	-4.390140	0.089154	-0.450694
O18	O	-3.890140	0.589154	0.049306
O19	O	-4.816374	-0.359045	-0.516632
O20	O	-4.316374	0.140955	-0.016632
O21	O	-4.785206	-0.106220	-0.699718
O22	O	-4.285206	0.393780	-0.199718
O23	O	-4.421095	-0.161933	-0.268866
O24	O	-3.921095	0.338067	0.231134
C25	C	-4.018080	-0.424358	-0.532173
C26	C	-3.518080	0.075642	-0.032173
C27	C	-4.107364	-0.602193	-0.554677
C28	C	-3.607364	-0.102193	-0.054677
C29	C	-3.978593	-0.104070	-0.764111
C30	C	-3.478593	0.395930	-0.264111
C31	C	-4.042769	-0.078276	-0.934064
C32	C	-3.542769	0.421724	-0.434064
C33	C	-4.195257	0.143202	-0.451126
C34	C	-3.695257	0.643202	0.048874
C35	C	-4.085212	0.321037	-0.428633
C36	C	-3.585212	0.821037	0.071367
C37	C	-4.234742	-0.177083	-0.219184
C38	C	-3.734742	0.322917	0.280816
C39	C	-4.149802	-0.202869	-0.049228
C40	C	-3.649802	0.297131	0.450772
H41	H	-3.997980	-0.608640	-0.303472
H42	H	-3.497980	-0.108640	0.196528
H43	H	-4.000236	0.048140	-0.965492
H44	H	-3.500236	0.548140	-0.465492
H45	H	-4.194620	-0.672525	-0.679846
H46	H	-3.694620	-0.172525	-0.179846
N47	N	-4.206187	-0.370319	-1.007625
N48	N	-3.706187	0.129681	-0.507625
H49	H	-4.150823	-0.365635	-0.888044
H50	H	-3.650823	0.134365	-0.388044
H51	H	-4.126733	-0.424008	-1.047546
H52	H	-3.626733	0.075992	-0.547546
