data_functionalizedCrystal
_audit_creation_method	'MofGen! by Chris Wilmer'
_symmetry_space_group_name_H-M	'P1'
_symmetry_Int_Tables_number	1
_symmetry_cell_setting	triclinic
loop_
_symmetry_equiv_pos_as_xyz
  x,y,z
_cell_length_a	14.519731
_cell_length_b	17.699083
_cell_length_c	16.776229
_cell_angle_alpha	89.995692
_cell_angle_beta	89.993130
_cell_angle_gamma	83.485934
loop_
_atom_site_label
_atom_site_type_symbol
_atom_site_fract_x
_atom_site_fract_y
_atom_site_fract_z
O1	O	-1.223435	-0.099289	0.066310
O2	O	-0.723435	0.400711	0.566310
O3	O	-0.954911	-0.110956	0.066308
O4	O	-0.454911	0.389044	0.566308
O5	O	-1.096760	0.005045	0.066302
O6	O	-0.596760	0.505045	0.566302
O7	O	-1.081587	-0.215289	0.066316
O8	O	-0.581587	0.284711	0.566316
O9	O	-1.096744	0.005045	-0.066274
O10	O	-0.596744	0.505045	0.433726
O11	O	-0.954895	-0.110955	-0.066269
O12	O	-0.454895	0.389045	0.433731
O13	O	-1.223419	-0.099288	-0.066266
O14	O	-0.723419	0.400712	0.433734
Zn15	Zn	-1.089155	-0.105122	-0.087317
Zn16	Zn	-0.589155	0.394878	0.412683
Zn17	Zn	-1.089176	-0.105122	0.087358
Zn18	Zn	-0.589176	0.394878	0.587358
O19	O	-1.081571	-0.215289	-0.066261
O20	O	-0.581571	0.284711	0.433739
C21	C	-0.920546	-0.110409	0.000019
C22	C	-0.420546	0.389591	0.500019
C23	C	-0.818173	-0.108771	0.000018
C24	C	-0.318173	0.391229	0.500018
C25	C	-0.735035	-0.107440	0.000020
C26	C	-0.235035	0.392560	0.500020
C27	C	-0.630733	-0.105776	0.000018
C28	C	-0.130733	0.394224	0.500018
C29	C	-0.547599	-0.104456	0.000017
C30	C	-0.047599	0.395544	0.500017
C31	C	-0.443291	-0.102793	0.000017
C32	C	0.056709	0.397207	0.500017
N33	N	-1.089147	-0.105121	-0.206528
N34	N	-0.589147	0.394879	0.293472
C35	C	-0.257784	-0.099835	0.000020
C36	C	0.242216	0.400165	0.500020
C37	C	-0.360158	-0.101473	0.000015
C38	C	0.139842	0.398527	0.500015
C39	C	-1.096208	0.033244	0.000014
C40	C	-0.596208	0.533244	0.500014
C41	C	-1.094577	0.117266	0.000013
C42	C	-0.594577	0.617266	0.500013
C43	C	-1.082123	-0.243488	0.000030
C44	C	-0.582123	0.256512	0.500030
C45	C	-1.083754	-0.327510	0.000035
C46	C	-0.583754	0.172490	0.500035
C47	C	-1.177839	0.165644	0.000013
C48	C	-0.677839	0.665644	0.500013
C49	C	-1.176301	0.244592	0.000020
C50	C	-0.676301	0.744592	0.500020
C51	C	-1.091500	0.275161	0.000022
C52	C	-0.591500	0.775161	0.500022
C53	C	-1.008232	0.226777	0.000024
C54	C	-0.508232	0.726777	0.500024
C55	C	-1.009771	0.147831	0.000023
C56	C	-0.509771	0.647831	0.500023
C57	C	-1.002023	0.545158	0.000031
C58	C	-0.502023	1.045158	0.500031
C59	C	-1.000491	0.624111	0.000030
C60	C	-0.500491	1.124111	0.500030
C61	C	-1.168554	0.641919	0.000028
C62	C	-0.668554	1.141919	0.500028
C63	C	-1.170093	0.562973	0.000026
C64	C	-0.670093	1.062973	0.500026
C65	C	-1.086825	0.514596	0.000033
C66	C	-0.586825	1.014596	0.500033
C67	C	-1.088493	0.428992	0.000027
C68	C	-0.588493	0.928992	0.500027
C69	C	-1.089830	0.360763	0.000022
C70	C	-0.589830	0.860763	0.500022
C71	C	-1.144971	-0.151133	-0.248238
C72	C	-0.644971	0.348867	0.251762
C73	C	-1.144981	-0.151130	-0.331690
C74	C	-0.644981	0.348870	0.168310
C75	C	-1.089162	-0.105119	-0.373431
C76	C	-0.589162	0.394881	0.126569
C77	C	-1.033336	-0.059102	-0.331715
C78	C	-0.533336	0.440898	0.168285
C79	C	-1.033331	-0.059101	-0.248265
C80	C	-0.533331	0.440899	0.251735
C81	C	-1.033354	-0.059103	-0.668262
C82	C	-0.533354	0.440897	-0.168262
C83	C	-1.033361	-0.059109	-0.751719
C84	C	-0.533361	0.440891	-0.251719
C85	C	-1.145005	-0.151132	-0.751688
C86	C	-0.645005	0.348868	-0.251688
C87	C	-1.145000	-0.151131	-0.668237
C88	C	-0.645000	0.348869	-0.168237
C89	C	-1.089178	-0.105111	-0.626529
C90	C	-0.589178	0.394889	-0.126529
C91	C	-1.089169	-0.105114	-0.536041
C92	C	-0.589169	0.394886	-0.036041
C93	C	-1.089166	-0.105120	-0.463918
C94	C	-0.589166	0.394880	0.036082
N95	N	-1.089191	-0.105117	0.206570
N96	N	-0.589191	0.394883	0.706570
H97	H	-1.244102	0.283978	0.000018
H98	H	-0.744102	0.783978	0.500018
N99	N	-1.261559	0.530008	0.000020
N100	N	-0.761559	1.030008	0.500020
H101	H	-1.298035	0.547636	0.049167
H102	H	-0.798035	1.047636	0.549167
H103	H	-1.249825	0.472660	-0.000012
H104	H	-0.749825	0.972660	0.499988
H105	H	-0.987901	-0.021630	-0.634313
H106	H	-0.487901	0.478370	-0.134313
N107	N	-1.258368	0.694097	0.000020
N108	N	-0.758368	1.194097	0.500020
H109	H	-1.244531	0.748748	0.000024
H110	H	-0.744531	1.248748	0.500024
H111	H	-1.295345	0.684182	0.049165
H112	H	-0.795345	1.184182	0.549165
H113	H	-0.941970	0.108442	0.000023
H114	H	-0.441970	0.608442	0.500023
H115	H	-0.931431	0.648996	0.000029
H116	H	-0.431431	1.148996	0.500029
H117	H	-0.934221	0.505779	0.000036
H118	H	-0.434221	1.005779	0.500036
N119	N	-0.916766	0.259743	0.000031
N120	N	-0.416766	0.759743	0.500031
H121	H	-0.928423	0.317096	0.000029
H122	H	-0.428423	0.817096	0.500029
H123	H	-0.880332	0.242056	-0.049116
H124	H	-0.380332	0.742056	0.450884
H125	H	-1.190420	-0.188605	-0.214259
H126	H	-0.690420	0.311395	0.285741
N127	N	-0.973131	-0.009478	-0.376739
N128	N	-0.473131	0.490522	0.123261
H129	H	-0.906001	-0.024280	-0.362223
H130	H	-0.406001	0.475720	0.137777
H131	H	-0.991526	0.045540	-0.362205
H132	H	-0.491526	0.545540	0.137795
H133	H	-1.190441	-0.188596	-0.365647
H134	H	-0.690441	0.311404	0.134353
H135	H	-1.190450	-0.188601	-0.634256
H136	H	-0.690450	0.311399	-0.134256
H137	H	-0.987904	-0.021638	-0.785702
H138	H	-0.487904	0.478362	-0.285702
N139	N	-1.205228	-0.200766	-0.796665
N140	N	-0.705228	0.299234	-0.296665
H141	H	-1.165000	-0.237736	-0.831294
H142	H	-0.665000	0.262264	-0.331294
H143	H	-1.250442	-0.167849	-0.831236
H144	H	-0.750442	0.332151	-0.331236
N145	N	-1.269304	0.132676	0.000004
N146	N	-0.769304	0.632676	0.500004
H147	H	-1.321816	0.175305	0.000006
H148	H	-0.821816	0.675305	0.500006
H149	H	-1.273611	0.100304	0.049150
H150	H	-0.773611	0.600304	0.549150
N151	N	-0.973126	-0.009470	-0.203273
N152	N	-0.473126	0.490530	0.296727
H153	H	-0.937764	0.019677	-0.242377
H154	H	-0.437764	0.519677	0.257623
H155	H	-0.927967	-0.042382	-0.168650
H156	H	-0.427967	0.457618	0.331350
