data_functionalizedCrystal
_audit_creation_method	'MofGen! by Chris Wilmer'
_symmetry_space_group_name_H-M	'P1'
_symmetry_Int_Tables_number	1
_symmetry_cell_setting	triclinic
loop_
_symmetry_equiv_pos_as_xyz
  x,y,z
_cell_length_a	14.044209
_cell_length_b	13.101039
_cell_length_c	14.044190
_cell_angle_alpha	86.336293
_cell_angle_beta	86.810135
_cell_angle_gamma	86.340786
loop_
_atom_site_label
_atom_site_type_symbol
_atom_site_fract_x
_atom_site_fract_y
_atom_site_fract_z
O1	O	-1.281975	0.085110	0.225339
O2	O	-1.005305	0.085139	0.217034
O3	O	-1.139482	0.085105	0.082851
O4	O	-1.147797	0.085144	0.359521
O5	O	-1.129857	-0.085323	0.092496
O6	O	-0.995679	-0.085289	0.226678
O7	O	-1.272349	-0.085317	0.234983
Zn8	Zn	-1.132486	-0.112362	0.232362
Zn9	Zn	-1.145168	0.112184	0.219655
O10	O	-1.138171	-0.085283	0.369166
C11	C	-0.964870	-0.000071	0.218220
C12	C	-0.858728	-0.000061	0.207376
N13	N	-1.123837	-0.265608	0.241035
C14	C	-0.664388	-0.000082	0.187553
C15	C	-0.613260	-0.000075	0.264467
C16	C	-0.505123	-0.000087	0.253437
C17	C	-0.772535	-0.000071	0.198581
C18	C	-1.112072	-0.474648	0.252843
C19	C	-1.165586	-0.525537	0.199170
C20	C	-1.159039	-0.641854	0.205740
C21	C	-1.118617	-0.358320	0.246274
C22	C	-0.312784	-0.000101	0.233798
C23	C	-0.418927	-0.000096	0.244648
C24	C	-1.131033	-0.000111	0.052052
C25	C	-1.120185	-0.000119	-0.054091
N26	N	-1.153823	0.265430	0.210975
C27	C	-1.177287	-0.000085	-0.299552
C28	C	-1.100371	-0.000084	-0.248426
C29	C	-1.111398	-0.000104	-0.140288
C30	C	-1.166262	-0.000065	-0.407700
C31	C	-1.146621	-0.000064	0.399965
C32	C	-1.157469	-0.000050	0.506107
H33	H	-0.650702	-0.000060	0.338600
H34	H	-1.026239	-0.000071	-0.285869
H35	H	-1.216318	-0.481748	0.148286
H36	H	-1.061344	-0.518432	0.303725
H37	H	-0.626948	-0.000098	0.113426
H38	H	-1.251413	-0.000103	-0.262110
