data_functionalizedCrystal
_audit_creation_method	'MofGen! by Chris Wilmer'
_symmetry_space_group_name_H-M	'P1'
_symmetry_Int_Tables_number	1
_symmetry_cell_setting	triclinic
loop_
_symmetry_equiv_pos_as_xyz
  x,y,z
_cell_length_a	12.594517
_cell_length_b	25.639239
_cell_length_c	12.594517
_cell_angle_alpha	90.009264
_cell_angle_beta	90.002075
_cell_angle_gamma	90.038486
loop_
_atom_site_label
_atom_site_type_symbol
_atom_site_fract_x
_atom_site_fract_y
_atom_site_fract_z
Zn1	Zn	1.626897	-0.208266	0.601816
Zn2	Zn	1.626778	-0.295670	0.423819
Zn3	Zn	1.448961	-0.208251	0.423845
Zn4	Zn	1.448813	-0.295672	0.601749
O5	O	1.537862	-0.251965	0.512807
O6	O	1.775827	-0.219866	0.578221
O7	O	1.603202	-0.284067	0.274877
O8	O	1.472676	-0.135087	0.447492
O9	O	1.775739	-0.284082	0.447448
O10	O	1.603406	-0.135099	0.578246
O11	O	1.472560	-0.219840	0.274896
O12	O	1.299996	-0.219841	0.447427
O13	O	1.472424	-0.284085	0.750704
O14	O	1.299887	-0.284070	0.578132
O15	O	1.603262	-0.219868	0.750753
O16	O	1.603058	-0.368836	0.447383
O17	O	1.472308	-0.368837	0.578107
C18	C	1.261321	-0.251954	0.512776
C19	C	1.143016	-0.251962	0.512788
C20	C	1.537683	-0.387807	0.512758
C21	C	1.537704	-0.445921	0.512773
C22	C	1.073791	-0.216981	0.441833
C23	C	1.002950	-0.264667	0.415643
C24	C	1.003057	-0.204299	0.538996
C25	C	1.073733	-0.299674	0.486547
C26	C	1.073847	-0.239274	0.609945
C27	C	1.003038	-0.286993	0.583792
C28	C	1.606121	-0.806271	0.444855
C29	C	1.606162	-0.860876	0.444869
O30	O	1.664147	-0.889101	0.387069
N31	N	1.538049	-0.888204	0.512878
C32	C	1.469898	-0.860925	0.580884
O33	O	1.411967	-0.889184	0.638733
C34	C	1.469863	-0.806322	0.580874
C35	C	1.537973	-0.778996	0.512854
C36	C	1.674226	-0.778946	0.376841
C37	C	1.674184	-0.724345	0.376826
C38	C	1.606035	-0.697070	0.444824
C39	C	1.537930	-0.724396	0.512838
C40	C	1.401718	-0.779044	0.648885
C41	C	1.401689	-0.724437	0.648870
C42	C	1.469799	-0.697111	0.580850
C43	C	1.469739	-0.642520	0.580822
N44	N	1.537852	-0.615192	0.512813
C45	C	1.606000	-0.642467	0.444815
C46	C	1.469978	-0.975596	0.580900
C47	C	1.470007	-1.030198	0.580906
C48	C	1.606273	-1.030145	0.444892
C49	C	1.606238	-0.975541	0.444882
C50	C	1.538091	-0.948267	0.512892
C51	C	1.605904	-0.527802	0.444787
C52	C	1.605852	-0.473197	0.444774
C53	C	1.469591	-0.473254	0.580792
C54	C	1.469638	-0.527855	0.580800
C55	C	1.537804	-0.555127	0.512795
O56	O	1.411786	-0.614260	0.638595
O57	O	1.663931	-0.614201	0.386986
C58	C	1.815483	-0.251976	0.512839
C59	C	1.933788	-0.251980	0.512853
C60	C	1.537840	-0.251978	0.790428
C61	C	1.537831	-0.251984	0.908733
C62	C	1.538071	-0.115592	0.512879
C63	C	1.538160	-0.057478	0.512910
C64	C	1.466667	-0.286906	0.977960
C65	C	1.563754	-0.299696	1.048748
C66	C	1.440749	-0.239207	1.048745
C67	C	1.634968	-0.264799	0.977963
C68	C	1.511898	-0.204288	0.977954
C69	C	1.609052	-0.217059	1.048710
C70	C	1.537861	-0.251967	1.236266
C71	C	1.537825	-0.251974	1.117961
H72	H	1.104856	-0.187427	0.381754
H73	H	0.971810	-0.275411	0.333506
N74	N	1.332163	-0.806948	0.718386
N75	N	1.369577	-0.837385	0.786258
H76	H	1.320453	-0.857093	0.835349
H77	H	1.669300	-0.187522	1.079578
N78	N	1.400367	-0.947739	0.650381
N79	N	1.407344	-0.953826	0.748602
H80	H	1.358184	-0.934155	0.797676
N81	N	1.400439	-1.058115	0.650378
N82	N	1.400477	-1.106867	0.650393
H83	H	1.351346	-1.126583	0.699464
H84	H	1.104650	-0.340001	0.464316
H85	H	0.972168	-0.316617	0.643824
N86	N	1.332076	-0.696586	0.718356
N87	N	1.271277	-0.720995	0.779080
H88	H	1.222112	-0.701327	0.828154
H89	H	1.414181	-0.550105	0.636192
N90	N	1.675895	-1.058002	0.375423
N91	N	1.668928	-1.051924	0.277199
H92	H	1.718096	-1.071599	0.228138
N93	N	1.112934	-0.225774	0.712956
N94	N	1.090351	-0.182518	0.752756
H95	H	1.117957	-0.172978	0.825509
N96	N	0.964109	-0.153723	0.566758
N97	N	0.986801	-0.115167	0.510407
H98	H	0.959296	-0.079447	0.530006
H99	H	1.489931	-0.163967	0.946834
N100	N	1.337767	-0.225640	1.087747
N101	N	1.326202	-0.186053	1.144507
H102	H	1.253469	-0.176473	1.172050
H103	H	1.585692	-0.340028	1.079844
N104	N	1.737998	-0.278400	0.939136
N105	N	1.788187	-0.247167	0.881764
H106	H	1.860951	-0.256772	0.854342
N107	N	1.675429	-0.445293	0.375277
N108	N	1.736270	-0.469657	0.314571
H109	H	1.785408	-0.449952	0.265490
H110	H	1.414102	-0.451039	0.636152
H111	H	1.729648	-0.702100	0.321441
N112	N	1.675537	-0.555647	0.375313
N113	N	1.736332	-0.531234	0.314593
H114	H	1.785505	-0.550898	0.265521
H115	H	1.729727	-0.801147	0.321468
H116	H	1.406564	-0.316466	0.946896
N117	N	1.675814	-0.947640	0.375392
N118	N	1.736647	-0.972006	0.314683
H119	H	1.785790	-0.952303	0.265602
