data_functionalizedCrystal
_audit_creation_method	'MofGen! by Chris Wilmer'
_symmetry_space_group_name_H-M	'P1'
_symmetry_Int_Tables_number	1
_symmetry_cell_setting	triclinic
loop_
_symmetry_equiv_pos_as_xyz
  x,y,z
_cell_length_a	18.215407
_cell_length_b	10.686203
_cell_length_c	18.215399
_cell_angle_alpha	94.390030
_cell_angle_beta	89.985640
_cell_angle_gamma	94.368033
loop_
_atom_site_label
_atom_site_type_symbol
_atom_site_fract_x
_atom_site_fract_y
_atom_site_fract_z
Zn1	Zn	1.147607	0.502418	-0.393667
Zn2	Zn	1.647607	1.002418	0.106333
Zn3	Zn	1.156997	0.713445	-0.261192
Zn4	Zn	1.656997	1.213445	0.238808
Zn5	Zn	1.024548	0.502457	-0.270618
Zn6	Zn	1.524548	1.002457	0.229382
Zn7	Zn	1.033976	0.713354	-0.384226
Zn8	Zn	1.533976	1.213354	0.115774
O9	O	1.090782	0.607919	-0.327426
O10	O	1.590782	1.107919	0.172574
O11	O	1.251838	0.530433	-0.376100
O12	O	1.751838	1.030433	0.123900
O13	O	1.139411	0.685511	-0.159455
O14	O	1.639411	1.185511	0.340545
O15	O	1.032997	0.325876	-0.294836
O16	O	1.532997	0.825876	0.205164
O17	O	1.258737	0.685473	-0.278771
O18	O	1.758737	1.185473	0.221229
O19	O	1.123408	0.325847	-0.385240
O20	O	1.623408	0.825847	0.114760
O21	O	1.042102	0.530499	-0.166381
O22	O	1.542102	1.030499	0.333619
O23	O	0.922814	0.530412	-0.285682
O24	O	1.422814	1.030412	0.214318
O25	O	1.049066	0.685319	-0.488465
O26	O	1.549066	1.185319	0.011535
O27	O	0.929741	0.685357	-0.369149
O28	O	1.429741	1.185357	0.130851
O29	O	1.132550	0.530345	-0.495401
O30	O	1.632550	1.030345	0.004599
O31	O	1.148553	0.890009	-0.269617
O32	O	1.648553	1.390009	0.230383
O33	O	1.058171	0.889943	-0.360009
O34	O	1.558171	1.389943	0.139991
C35	C	0.899574	0.607880	-0.327414
C36	C	1.399574	1.107880	0.172586
C37	C	0.817776	0.607894	-0.327426
C38	C	1.317776	1.107894	0.172574
C39	C	0.625996	0.527331	-0.378172
C40	C	1.125996	1.027331	0.121828
C41	C	0.549138	0.527341	-0.378174
C42	C	1.049138	1.027341	0.121826
C43	C	0.556322	0.688542	-0.276691
C44	C	1.056322	1.188542	0.223309
C45	C	0.633178	0.688524	-0.276686
C46	C	1.133178	1.188524	0.223314
C47	C	0.668014	0.607920	-0.327430
C48	C	1.168014	1.107920	0.172570
C49	C	0.514299	0.607949	-0.327437
C50	C	1.014299	1.107949	0.172563
C51	C	0.430966	0.607961	-0.327439
C52	C	0.930966	1.107961	0.172561
C53	C	0.751352	0.607906	-0.327428
C54	C	1.251352	1.107906	0.172572
C55	C	1.105424	0.935760	-0.312782
C56	C	1.605424	1.435760	0.187218
C57	C	1.111755	1.076012	-0.306542
C58	C	1.611755	1.576012	0.193458
C59	C	1.282737	0.607959	-0.327437
C60	C	1.782737	1.107959	0.172563
C61	C	1.364537	0.607976	-0.327442
C62	C	1.864537	1.107976	0.172558
C63	C	1.090812	0.607818	-0.519383
C64	C	1.590812	1.107818	-0.019383
C65	C	1.090825	0.607775	-0.601184
C66	C	1.590825	1.107775	-0.101184
C67	C	1.076096	1.278797	-0.342150
C68	C	1.576096	1.778797	0.157850
C69	C	1.069820	1.138545	-0.348445
C70	C	1.569820	1.638545	0.151555
C71	C	1.040194	0.527006	-0.792987
C72	C	1.540194	1.027006	-0.292987
C73	C	1.040205	0.526981	-0.869847
C74	C	1.540205	1.026981	-0.369847
C75	C	1.141538	0.688393	-0.862625
C76	C	1.641538	1.188393	-0.362625
C77	C	1.141523	0.688424	-0.785766
C78	C	1.641523	1.188424	-0.285766
C79	C	1.090851	0.607723	-0.750950
C80	C	1.590851	1.107723	-0.250950
C81	C	1.090878	0.607667	-0.904668
C82	C	1.590878	1.107667	-0.404668
C83	C	1.090891	0.607640	-0.988003
C84	C	1.590891	1.107640	-0.488003
C85	C	1.090837	0.607752	-0.667609
C86	C	1.590837	1.107752	-0.167609
C87	C	1.090790	0.607928	-0.136219
C88	C	1.590790	1.107928	0.363781
C89	C	1.090904	0.607616	-0.054434
C90	C	1.590904	1.107616	0.445566
H91	H	0.514931	0.461715	-0.419491
H92	H	1.014931	0.961715	0.080509
H93	H	0.998933	0.461295	-0.764642
H94	H	1.498933	0.961295	-0.264642
H95	H	1.029075	1.084787	-0.389095
H96	H	1.529075	1.584787	0.110905
H97	H	1.152498	1.129778	-0.265884
H98	H	1.652498	1.629778	0.234116
F99	F	1.195465	0.774274	-0.899686
F100	F	1.695465	1.274274	-0.399686
H101	H	1.182776	0.754159	-0.751538
H102	H	1.682776	1.254159	-0.251538
H103	H	0.998954	0.461254	-0.904071
H104	H	1.498954	0.961254	-0.404071
F105	F	0.519241	0.774325	-0.222689
F106	F	1.019241	1.274325	0.277311
H107	H	0.667390	0.754151	-0.235362
H108	H	1.167390	1.254151	0.264638
F109	F	0.663068	0.441541	-0.432177
F110	F	1.163068	0.941541	0.067823
