data_functionalizedCrystal
_audit_creation_method	'MofGen! by Chris Wilmer'
_symmetry_space_group_name_H-M	'P1'
_symmetry_Int_Tables_number	1
_symmetry_cell_setting	triclinic
loop_
_symmetry_equiv_pos_as_xyz
  x,y,z
_cell_length_a	10.654562
_cell_length_b	15.712078
_cell_length_c	9.730223
_cell_angle_alpha	89.999452
_cell_angle_beta	89.996961
_cell_angle_gamma	102.035626
loop_
_atom_site_label
_atom_site_type_symbol
_atom_site_fract_x
_atom_site_fract_y
_atom_site_fract_z
O1	O	1.722227	0.121790	-0.114381
O2	O	1.361927	0.133377	-0.114364
O3	O	1.494145	0.001467	-0.114363
O4	O	1.590009	0.253700	-0.114382
O5	O	1.494144	0.001470	0.114217
O6	O	1.361926	0.133380	0.114216
O7	O	1.722226	0.121793	0.114199
Zn8	Zn	1.542076	0.127587	0.150499
Zn9	Zn	1.542077	0.127583	-0.150664
O10	O	1.590008	0.253703	0.114198
C11	C	1.314747	0.132525	-0.000072
C12	C	1.174165	0.129973	-0.000065
C13	C	1.108102	0.128784	0.124523
C14	C	0.976012	0.126393	0.124500
C15	C	0.976060	0.126383	-0.124710
C16	C	1.108146	0.128768	-0.124686
C17	C	1.174121	0.129989	0.249144
C18	C	1.108058	0.128802	0.373742
C19	C	0.975968	0.126410	0.373720
C20	C	0.909940	0.125207	0.249098
C21	C	1.478483	-0.030829	-0.000074
C22	C	1.431803	-0.127066	-0.000075
C23	C	1.828127	-0.491774	-0.000107
C24	C	1.784235	-0.582200	-0.000105
C25	C	1.564304	-0.562909	-0.000095
C26	C	1.608178	-0.472480	-0.000091
C27	C	1.740090	-0.436919	-0.000099
C28	C	1.520141	-0.417625	-0.000082
C29	C	1.564012	-0.327203	-0.000085
C30	C	1.695919	-0.291636	-0.000097
C31	C	1.783961	-0.346498	-0.000102
C32	C	1.388229	-0.453187	-0.000084
C33	C	1.300192	-0.398333	-0.000075
C34	C	1.344062	-0.307909	-0.000069
C35	C	1.475969	-0.272342	-0.000081
C36	C	1.256020	-0.253048	-0.000064
C37	C	1.299891	-0.162626	-0.000067
C38	C	1.519840	-0.181920	-0.000084
C39	C	1.769406	0.122644	-0.000096
C40	C	1.909988	0.125197	-0.000112
C41	C	1.605670	0.285999	-0.000094
C42	C	1.652350	0.382235	-0.000102
N43	N	1.542084	0.127590	0.356036
N44	N	1.542075	0.127573	-0.356201
C45	C	1.600661	0.069200	0.427962
C46	C	1.600653	0.069189	0.571845
C47	C	1.483491	0.185966	0.571863
C48	C	1.483491	0.185972	0.427982
C49	C	1.659254	0.010818	0.356016
C50	C	1.717837	-0.047576	0.427942
C51	C	1.717829	-0.047587	0.571825
C52	C	1.659238	0.010797	0.643782
H53	H	1.627256	-0.152965	-0.000076
H54	H	1.435790	0.233500	0.630459
H55	H	1.659269	0.010823	0.238859
O56	O	1.179414	0.130039	-0.259056
H57	H	1.255516	0.190089	-0.265012
O58	O	1.157918	-0.436687	-0.000048
H59	H	1.142199	-0.508779	-0.000035
H60	H	1.281676	0.131939	0.249176
O61	O	1.420323	0.248952	0.350388
H62	H	1.379599	0.289558	0.424587
H63	H	1.161825	0.129775	0.475204
O64	O	1.113750	-0.291415	-0.000057
H65	H	1.069436	-0.269438	-0.093224
O66	O	1.970408	-0.453414	-0.000109
H67	H	1.986117	-0.381323	-0.000103
H68	H	1.891377	-0.317543	-0.000094
O69	O	1.204946	-0.103451	-0.000044
H70	H	1.105849	-0.143369	-0.000021
O71	O	1.780991	-0.110567	0.350345
H72	H	1.771154	-0.100753	0.238211
O73	O	0.767458	0.122582	0.249120
H74	H	0.716770	0.062960	0.195355
H75	H	1.456900	-0.591875	-0.000094
O76	O	0.904707	0.125130	0.508097
H77	H	0.972812	0.126376	0.594751
H78	H	1.731636	-0.218008	-0.000100
H79	H	1.352513	-0.526815	-0.000090
O80	O	1.879194	-0.641370	-0.000101
H81	H	1.978287	-0.601447	-0.000096
H82	H	1.659225	0.010777	0.760941
O83	O	0.904856	0.125097	-0.259118
H84	H	0.801912	0.123249	-0.238203
O85	O	1.781021	-0.110558	0.649411
H86	H	1.821775	-0.151144	0.575205
