data_functionalizedCrystal
_audit_creation_method	'MofGen! by Chris Wilmer'
_symmetry_space_group_name_H-M	'P1'
_symmetry_Int_Tables_number	1
_symmetry_cell_setting	triclinic
loop_
_symmetry_equiv_pos_as_xyz
  x,y,z
_cell_length_a	27.440280
_cell_length_b	14.809436
_cell_length_c	14.809374
_cell_angle_alpha	60.797024
_cell_angle_beta	89.995799
_cell_angle_gamma	67.418630
loop_
_atom_site_label
_atom_site_type_symbol
_atom_site_fract_x
_atom_site_fract_y
_atom_site_fract_z
Zr1	Zr	0.538300	0.955115	-0.203718
O2	O	0.478598	1.113050	-0.350878
O3	O	0.548152	0.777343	-0.145637
O4	O	0.568085	0.926490	-0.332182
O5	O	0.452553	0.993401	-0.031937
O6	O	0.648286	0.926474	-0.332185
O7	O	0.458665	0.963904	-0.164334
O8	O	0.612630	0.659678	0.001508
O9	O	0.488210	1.260197	-0.365630
O10	O	0.622416	0.857799	-0.136537
O11	O	0.558002	0.879824	-0.037728
O12	O	0.581470	1.055424	-0.257359
O13	O	0.517056	1.077449	-0.158550
Zr14	Zr	0.656465	1.002135	0.007435
Zr15	Zr	0.666212	0.955090	-0.203724
Zr16	Zr	0.528553	1.002160	0.007441
Zr17	Zr	0.553630	1.189797	-0.227245
Zr18	Zr	0.641134	0.767453	0.030963
O19	O	0.646613	1.179907	-0.050645
O20	O	0.660472	1.113015	-0.350886
O21	O	0.464738	1.179942	-0.050638
O22	O	0.716167	0.844200	0.154596
O23	O	0.730026	0.777308	-0.145645
O24	O	0.534293	0.844235	0.154603
O25	O	0.742211	0.963849	-0.164346
O26	O	0.626679	1.030761	0.135899
O27	O	0.546478	1.030776	0.135902
O28	O	0.736100	0.993346	-0.031948
O29	O	0.589883	1.260177	-0.365634
O30	O	0.604882	0.697073	0.169352
O31	O	0.706555	0.697053	0.169347
O32	O	0.714302	0.659659	0.001504
O33	O	0.480462	1.297591	-0.197787
O34	O	0.582135	1.297572	-0.197791
O35	O	0.613294	0.901826	0.061077
O36	O	0.677708	0.879801	-0.037733
O37	O	0.636763	1.077426	-0.158555
O38	O	0.572348	1.099452	-0.059746
C39	C	0.578206	0.685074	-0.068712
C40	C	0.571698	0.585445	-0.058724
C41	C	0.594017	0.427146	-0.092990
C42	C	0.600751	0.530105	-0.103299
C43	C	0.437384	0.978656	-0.098135
C44	C	0.383082	0.978666	-0.098132
C45	C	0.049748	0.962346	-0.171079
C46	C	-0.001271	0.962337	-0.171079
O47	O	-0.024786	0.948474	-0.233085
N48	N	-0.030155	0.978589	-0.098141
C49	C	-0.008016	0.994841	-0.025192
O50	O	-0.037269	1.008663	0.036848
C51	C	0.043003	0.994841	-0.025188
C52	C	0.071882	0.978599	-0.098138
C53	C	0.078627	0.946104	-0.244022
C54	C	0.129642	0.946116	-0.244023
C55	C	0.151777	0.962369	-0.171082
C56	C	0.122897	0.978611	-0.098139
C57	C	0.065142	1.011084	0.047765
C58	C	0.116166	1.011083	0.047763
C59	C	0.145045	0.994841	-0.025186
C60	C	0.196046	0.994875	-0.025199
N61	N	0.224931	0.978623	-0.098137
C62	C	0.202796	0.962370	-0.171078
C63	C	-0.115160	0.994836	-0.025204
C64	C	-0.166180	0.994843	-0.025212
C65	C	-0.159430	0.962337	-0.171098
C66	C	-0.108411	0.962338	-0.171094
C67	C	-0.086275	0.978583	-0.098142
C68	C	0.309930	0.962396	-0.171076
C69	C	0.360947	0.962413	-0.171074
C70	C	0.354195	0.994913	-0.025185
C71	C	0.303180	0.994901	-0.025190
C72	C	0.281050	0.978637	-0.098140
O73	O	0.219597	1.008727	0.036779
O74	O	0.232058	0.948535	-0.233098
C75	C	0.757380	0.978594	-0.098148
C76	C	0.811682	0.978584	-0.098150
C77	C	0.609574	0.919779	-0.362269
C78	C	0.613712	0.899807	-0.451911
C79	C	0.616558	1.272176	-0.127570
C80	C	0.623066	1.371805	-0.137558
C81	C	0.595245	0.988939	-0.551813
C82	C	0.599522	0.968299	-0.644465
C83	C	0.585190	1.037471	0.165986
C84	C	0.581052	1.057443	0.255629
C85	C	0.738205	0.685043	-0.068719
C86	C	0.785998	0.585404	-0.058733
C87	C	0.566014	0.743920	0.195415
C88	C	0.555368	0.664263	0.295046
C89	C	0.726012	0.743889	0.195409
C90	C	0.769668	0.664222	0.295037
C91	C	0.468752	1.213361	-0.391691
C92	C	0.425096	1.293028	-0.491319
C93	C	0.456560	1.272207	-0.127564
C94	C	0.408766	1.371846	-0.137549
C95	C	0.628750	1.213330	-0.391698
C96	C	0.639396	1.292987	-0.491328
C97	C	0.779581	0.527125	-0.105628
C98	C	0.824486	0.433512	-0.096266
C99	C	0.875806	0.398175	-0.040004
C100	C	0.882222	0.456463	0.006891
C101	C	0.837319	0.550079	-0.002477
C102	C	0.579230	0.638342	0.393417
C103	C	0.569226	0.563511	0.487037
C104	C	0.535362	0.514595	0.482284
C105	C	0.511497	0.540523	0.383902
C106	C	0.521499	0.615360	0.290284
C107	C	0.823799	0.615312	0.290246
C108	C	0.864824	0.540468	0.383847
C109	C	0.851718	0.514528	0.482240
C110	C	0.797582	0.563446	0.487028
C111	C	0.756558	0.638295	0.393427
C112	C	0.370967	1.341949	-0.486529
C113	C	0.329943	1.416823	-0.580134
C114	C	0.343050	1.442768	-0.678527
C115	C	0.397185	1.393844	-0.683315
C116	C	0.438208	1.318978	-0.589712
C117	C	0.415184	1.430133	-0.090665
C118	C	0.370283	1.523766	-0.100052
C119	C	0.318963	1.559107	-0.156318
C120	C	0.312546	1.500815	-0.203209
C121	C	0.357448	1.407188	-0.193827
C122	C	0.673263	1.341880	-0.486541
C123	C	0.683276	1.416715	-0.580145
C124	C	0.659420	1.442663	-0.678536
C125	C	0.625551	1.393761	-0.683320
C126	C	0.615541	1.318921	-0.589717
H127	H	0.630610	0.558941	-0.149087
F128	F	0.496101	0.642931	0.185594
F129	F	0.837760	0.642910	0.185538
H130	H	0.375518	1.571214	-0.061862
F131	F	0.624330	0.848576	-0.622313
F132	F	0.594631	0.535928	0.591731
F133	F	0.844156	0.612089	0.047446
F134	F	0.698659	1.314280	-0.381836
F135	F	0.299383	1.522449	-0.778140
F136	F	0.570445	1.108656	-0.573957
H137	H	0.282405	1.635345	-0.163949
H138	H	0.360284	1.320829	-0.406421
F139	F	0.555001	0.389437	-0.033123
F140	F	0.615275	0.690386	0.398500
H141	H	0.885127	0.453578	0.558448
H142	H	0.562076	1.149039	-0.761317
F143	F	0.524722	0.434948	0.581932
H144	H	0.541841	0.556606	-0.012932
F145	F	0.662092	0.409497	-0.197403
F146	F	0.475457	0.488453	0.378861
F147	F	0.391680	0.945129	-0.248721
H148	H	0.291918	0.949150	-0.230477
F149	F	0.272332	1.468876	-0.575016
H150	H	0.456967	1.401368	-0.044841
H151	H	0.153154	0.932885	-0.303422
F152	F	0.922435	0.488413	0.378730
F153	F	0.495816	1.266912	-0.594825
F154	F	0.783642	0.535827	0.591754
H155	H	0.407850	1.414978	-0.763437
H156	H	0.060611	0.932864	-0.303419
H157	H	0.270755	1.529604	-0.249020
H158	H	0.632690	0.808218	-0.434975
F159	F	0.698948	0.690336	0.398543
H160	H	0.352214	1.359734	-0.232004
F161	F	0.724967	0.564718	-0.165515
F162	F	0.936845	0.418837	0.066771
F163	F	0.719320	1.468753	-0.575031
H164	H	0.667575	1.503605	-0.754746
F165	F	0.600161	1.421396	-0.788046
F166	F	-0.077679	0.945050	-0.248735
H167	H	0.587962	1.279120	-0.593630
H168	H	-0.177461	0.949101	-0.230489
H169	H	0.819250	0.386064	-0.134455
H170	H	-0.189694	1.008087	0.034179
H171	H	0.279662	1.008143	0.034202
F172	F	-0.091608	1.012138	0.052440
F173	F	0.139721	1.028370	0.125414
F174	F	0.377759	1.012213	0.052440
F175	F	0.034416	1.028369	0.125409
H176	H	0.912364	0.321944	-0.032382
