data_functionalizedCrystal
_audit_creation_method	'MofGen! by Chris Wilmer'
_symmetry_space_group_name_H-M	'P1'
_symmetry_Int_Tables_number	1
_symmetry_cell_setting	triclinic
loop_
_symmetry_equiv_pos_as_xyz
  x,y,z
_cell_length_a	14.908520
_cell_length_b	19.805407
_cell_length_c	19.805399
_cell_angle_alpha	89.980427
_cell_angle_beta	93.270609
_cell_angle_gamma	93.320773
loop_
_atom_site_label
_atom_site_type_symbol
_atom_site_fract_x
_atom_site_fract_y
_atom_site_fract_z
Zn1	Zn	-0.359181	1.019204	-0.398269
Zn2	Zn	0.140819	1.519204	0.101731
Zn3	Zn	-0.510047	1.012594	-0.291612
Zn4	Zn	-0.010047	1.512594	0.208388
Zn5	Zn	-0.359206	0.906017	-0.285095
Zn6	Zn	0.140794	1.406017	0.214905
Zn7	Zn	-0.509999	0.899460	-0.404757
Zn8	Zn	-0.009999	1.399460	0.095243
O9	O	-0.434608	0.959319	-0.344934
O10	O	0.065392	1.459319	0.155066
O11	O	-0.379203	1.113043	-0.384134
O12	O	0.120797	1.613043	0.115866
O13	O	-0.490068	0.998435	-0.196033
O14	O	0.009932	1.498435	0.303967
O15	O	-0.232958	0.926542	-0.294665
O16	O	0.267042	1.426542	0.205335
O17	O	-0.490044	1.108187	-0.305773
O18	O	0.009956	1.608187	0.194227
O19	O	-0.232939	1.009699	-0.377814
O20	O	0.267061	1.509699	0.122186
O21	O	-0.379246	0.920133	-0.191244
O22	O	0.120754	1.420133	0.308756
O23	O	-0.379199	0.810431	-0.300956
O24	O	0.120801	1.310431	0.199044
O25	O	-0.489962	0.915366	-0.498612
O26	O	0.010038	1.415366	0.001388
O27	O	-0.489986	0.805614	-0.388871
O28	O	0.010014	1.305614	0.111129
O29	O	-0.379157	1.003341	-0.493845
O30	O	0.120843	1.503341	0.006155
O31	O	-0.636286	0.992077	-0.312064
O32	O	-0.136286	1.492077	0.187936
O33	O	-0.636250	0.908957	-0.395191
O34	O	-0.136250	1.408957	0.104809
C35	C	-0.434591	0.783463	-0.344911
C36	C	0.065409	1.283463	0.155089
C37	C	-0.434605	0.708231	-0.344918
C38	C	0.065395	1.208231	0.155082
C39	C	-0.492379	0.670392	-0.390629
C40	C	0.007621	1.170392	0.109371
C41	C	-0.492380	0.599704	-0.390639
C42	C	0.007620	1.099704	0.109361
C43	C	-0.434612	0.566855	-0.344934
C44	C	0.065388	1.066855	0.155066
C45	C	-0.376832	0.604699	-0.299220
C46	C	0.123168	1.104699	0.200780
C47	C	-0.376827	0.675386	-0.299214
C48	C	0.123173	1.175386	0.200786
C49	C	-0.376852	0.319625	-0.299244
C50	C	0.123148	0.819625	0.200756
C51	C	-0.376864	0.248932	-0.299252
C52	C	0.123136	0.748932	0.200748
C53	C	-0.492406	0.243942	-0.390668
C54	C	0.007594	0.743942	0.109332
C55	C	-0.492400	0.314629	-0.390662
C56	C	0.007600	0.814629	0.109338
C57	C	-0.434618	0.352467	-0.344952
C58	C	0.065382	0.852467	0.155048
C59	C	-0.434615	0.429116	-0.344943
C60	C	0.065385	0.929116	0.155057
C61	C	-0.434618	0.490208	-0.344939
C62	C	0.065382	0.990208	0.155061
C63	C	-0.669002	0.949107	-0.355053
C64	C	-0.169002	1.449107	0.144947
C65	C	-0.769277	0.944800	-0.359405
C66	C	-0.269277	1.444800	0.140595
C67	C	-0.957679	1.023348	-0.281093
C68	C	-0.457679	1.523348	0.218907
C69	C	-1.051896	1.019304	-0.285180
C70	C	-0.551896	1.519304	0.214820
C71	C	-1.051929	0.932671	-0.371669
C72	C	-0.551929	1.432671	0.128331
C73	C	-0.957712	0.936715	-0.367582
C74	C	-0.457712	1.436715	0.132418
C75	C	-0.910590	0.982055	-0.322292
C76	C	-0.410590	1.482055	0.177708
C77	C	-0.816372	0.986095	-0.318202
C78	C	-0.316372	1.486095	0.181798
C79	C	-0.816407	0.899466	-0.404694
C80	C	-0.316407	1.399466	0.095306
C81	C	-0.910624	0.895421	-0.408781
C82	C	-0.410624	1.395421	0.091219
C83	C	-0.199299	0.969589	-0.334789
C84	C	0.300701	1.469589	0.165211
C85	C	-0.099024	0.973966	-0.330466
C86	C	0.400976	1.473966	0.169534
C87	C	-0.434551	0.959359	-0.521474
C88	C	0.065449	1.459359	-0.021474
C89	C	-0.434527	0.959376	-0.596705
C90	C	0.065473	1.459376	-0.096705
C91	C	-0.434626	1.135861	-0.344957
C92	C	0.065374	1.635861	0.155043
C93	C	-0.434634	1.211092	-0.344967
C94	C	0.065366	1.711092	0.155033
C95	C	-0.376828	1.005186	-0.629568
C96	C	0.123172	1.505186	-0.129568
C97	C	-0.376802	1.005194	-0.700255
C98	C	0.123198	1.505194	-0.200255
C99	C	-0.434480	0.959395	-0.738078
C100	C	0.065520	1.459395	-0.238078
C101	C	-0.492182	0.913581	-0.705210
C102	C	0.007818	1.413581	-0.205210
C103	C	-0.492203	0.913570	-0.634524
C104	C	0.007797	1.413570	-0.134524
C105	C	-0.492098	0.913622	-0.990280
C106	C	0.007902	1.413622	-0.490280
C107	C	-0.492074	0.913638	-1.060971
C108	C	0.007926	1.413638	-0.560971
C109	C	-0.376697	1.005247	-1.056011
C110	C	0.123303	1.505247	-0.556011
C111	C	-0.376718	1.005236	-0.985325
C112	C	0.123282	1.505236	-0.485325
C113	C	-0.434416	0.959419	-0.952463
C114	C	0.065584	1.459419	-0.452463
C115	C	-0.434442	0.959410	-0.875816
C116	C	0.065558	1.459410	-0.375816
C117	C	-0.434459	0.959407	-0.814725
C118	C	0.065541	1.459407	-0.314725
C119	C	-0.434600	0.959320	-0.169077
C120	C	0.065400	1.459320	0.330923
C121	C	-0.434370	0.959445	-0.093836
C122	C	0.065630	1.459445	0.406164
H123	H	-0.539452	0.213126	-0.427890
H124	H	-0.039452	0.713126	0.072110
C125	C	-0.764612	0.854036	-0.450013
C126	C	-0.264612	1.354036	0.049987
H127	H	-0.806173	0.826452	-0.477565
H128	H	-0.306173	1.326452	0.022435
H129	H	-0.727798	0.881483	-0.477934
H130	H	-0.227798	1.381483	0.022066
H131	H	-0.727921	0.826135	-0.422491
H132	H	-0.227921	1.326135	0.077509
C133	C	-0.313300	0.361240	-0.248963
C134	C	0.186700	0.861240	0.251037
H135	H	-0.321558	0.408045	-0.255507
H136	H	0.178442	0.908045	0.244493
H137	H	-0.326422	0.349066	-0.204037
H138	H	0.173578	0.849066	0.295963
H139	H	-0.252701	0.352295	-0.256334
H140	H	0.247299	0.852295	0.243666
C141	C	-0.313275	0.717009	-0.248933
C142	C	0.186725	1.217009	0.251067
H143	H	-0.278875	0.687323	-0.221710
H144	H	0.221125	1.187323	0.278290
H145	H	-0.274012	0.746303	-0.273179
H146	H	0.225988	1.246303	0.226821
H147	H	-0.347732	0.743072	-0.220882
H148	H	0.152268	1.243072	0.279118
H149	H	-0.329862	1.042483	-0.598777
H150	H	0.170138	1.542483	-0.098777
H151	H	-0.539426	0.568898	-0.427861
H152	H	-0.039426	1.068898	0.072139
H153	H	-0.949003	0.858509	-0.445657
H154	H	-0.449003	1.358509	0.054343
C155	C	-0.555957	0.350762	-0.440926
C156	C	-0.055957	0.850762	0.059074
H157	H	-0.547688	0.398280	-0.434369
H158	H	-0.047688	0.898280	0.065631
H159	H	-0.542849	0.339774	-0.485858
H160	H	-0.042849	0.839774	0.014142
H161	H	-0.616555	0.336530	-0.433550
H162	H	-0.116555	0.836530	0.066450
C163	C	-0.764539	1.035968	-0.268388
C164	C	-0.264539	1.535968	0.231612
H165	H	-0.806081	1.059987	-0.244443
H166	H	-0.306081	1.559987	0.255557
H167	H	-0.727837	1.011675	-0.237277
H168	H	-0.227837	1.511675	0.262723
H169	H	-0.727732	1.067024	-0.292720
H170	H	-0.227732	1.567024	0.207280
C171	C	-0.555923	0.706520	-0.440907
C172	C	-0.055923	1.206520	0.059093
H173	H	-0.590325	0.673858	-0.468136
H174	H	-0.090325	1.173858	0.031864
H175	H	-0.595185	0.732375	-0.416663
H176	H	-0.095185	1.232375	0.083337
H177	H	-0.521455	0.735606	-0.468952
H178	H	-0.021455	1.235606	0.031048
C179	C	-1.103774	0.882801	-0.421481
C180	C	-0.603774	1.382801	0.078519
H181	H	-1.166629	0.886306	-0.418010
H182	H	-0.666629	1.386306	0.081990
H183	H	-1.088287	0.893336	-0.466298
H184	H	-0.588287	1.393336	0.033702
H185	H	-1.088399	0.837988	-0.410855
H186	H	-0.588399	1.337988	0.089145
H187	H	-0.329820	1.042499	-0.727009
H188	H	0.170180	1.542499	-0.227009
H189	H	-0.329793	0.577948	-0.262009
H190	H	0.170207	1.077948	0.237991
C191	C	-0.313272	1.055612	-0.943720
C192	C	0.186728	1.555612	-0.443720
H193	H	-0.321554	1.049048	-0.896915
H194	H	0.178446	1.549048	-0.396915
H195	H	-0.252653	1.048354	-0.952690
H196	H	0.247347	1.548354	-0.452690
H197	H	-0.326481	1.100518	-0.955882
H198	H	0.173519	1.600518	-0.455882
C199	C	-0.313309	0.212800	-0.248979
C200	C	0.186691	0.712800	0.251021
H201	H	-0.278888	0.245459	-0.221759
H202	H	0.221112	0.745459	0.278241
H203	H	-0.347766	0.183712	-0.220933
H204	H	0.152234	0.683712	0.279067
H205	H	-0.274052	0.186946	-0.273236
H206	H	0.225948	0.686946	0.226764
C207	C	-0.555567	0.863232	-0.954138
C208	C	-0.055567	1.363232	-0.454138
H209	H	-0.547317	0.869777	-0.906622
H210	H	-0.047317	1.369777	-0.406622
H211	H	-0.616179	0.870495	-0.968337
H212	H	-0.116179	1.370495	-0.468337
H213	H	-0.542350	0.818332	-0.965147
H214	H	-0.042350	1.318332	-0.465147
C215	C	-0.313223	1.055641	-1.092161
C216	C	0.186777	1.555641	-0.592161
H217	H	-0.321461	1.049086	-1.139676
H218	H	0.178539	1.549086	-0.639676
H219	H	-0.326438	1.100539	-1.081155
H220	H	0.173562	1.600539	-0.581155
H221	H	-0.252607	1.048377	-1.077960
H222	H	0.247393	1.548377	-0.577960
C223	C	-0.555516	0.863252	-1.102576
C224	C	-0.055516	1.363252	-0.602576
H225	H	-0.589876	0.835959	-1.072881
H226	H	-0.089876	1.335959	-0.572881
H227	H	-0.594821	0.887430	-1.131850
H228	H	-0.094821	1.387430	-0.631850
H229	H	-0.520982	0.835275	-1.128656
H230	H	-0.020982	1.335275	-0.628656
H231	H	-0.539141	0.876288	-0.736011
H232	H	-0.039141	1.376288	-0.236011
H233	H	-0.919312	1.060261	-0.244211
H234	H	-0.419312	1.560261	0.255789
C235	C	-1.103691	1.064723	-0.239858
C236	C	-0.603691	1.564723	0.260142
H237	H	-1.062130	1.092300	-0.212298
H238	H	-0.562130	1.592300	0.287702
H239	H	-1.140392	1.092622	-0.267369
H240	H	-0.640392	1.592622	0.232631
H241	H	-1.140495	1.037265	-0.211935
H242	H	-0.640495	1.537265	0.288065
C243	C	-0.555694	0.863195	-0.598376
C244	C	-0.055694	1.363195	-0.098376
H245	H	-0.590054	0.835928	-0.631025
H246	H	-0.090054	1.335928	-0.131025
H247	H	-0.521207	0.835201	-0.569300
H248	H	-0.021207	1.335201	-0.069300
H249	H	-0.595010	0.887385	-0.572509
H250	H	-0.095010	1.387385	-0.072509
