data_functionalizedCrystal
_audit_creation_method	'MofGen! by Chris Wilmer'
_symmetry_space_group_name_H-M	'P1'
_symmetry_Int_Tables_number	1
_symmetry_cell_setting	triclinic
loop_
_symmetry_equiv_pos_as_xyz
  x,y,z
_cell_length_a	17.019282
_cell_length_b	10.723023
_cell_length_c	9.798715
_cell_angle_alpha	89.998183
_cell_angle_beta	93.877539
_cell_angle_gamma	83.926927
loop_
_atom_site_label
_atom_site_type_symbol
_atom_site_fract_x
_atom_site_fract_y
_atom_site_fract_z
O1	O	1.047540	0.158884	0.009670
O2	O	0.817985	0.179175	-0.017321
O3	O	0.938058	-0.012628	-0.003199
O4	O	0.927467	0.350687	-0.004453
O5	O	0.938049	-0.012629	0.223783
O6	O	0.817976	0.179174	0.209660
O7	O	1.047531	0.158884	0.236651
Zn8	Zn	0.932752	0.169029	0.259194
Zn9	Zn	0.932764	0.169030	-0.039864
O10	O	0.927458	0.350687	0.222528
C11	C	0.788587	0.178408	0.092714
C12	C	0.701004	0.176110	0.082416
C13	C	0.937283	-0.059116	0.110200
C14	C	0.934977	-0.197635	0.109923
C15	C	0.933945	-0.259397	0.227383
C16	C	0.931562	-0.402564	0.227100
C17	C	0.659857	0.175027	0.201308
C18	C	0.577565	0.172848	0.191637
C19	C	0.536421	0.171760	0.063071
C20	C	0.577574	0.172839	-0.055831
C21	C	0.659865	0.175010	-0.046158
C22	C	0.287956	0.165199	0.027674
C23	C	0.205659	0.163032	0.018009
C24	C	0.205656	0.163038	0.265478
C25	C	0.287948	0.165216	0.275140
C26	C	0.329094	0.166288	0.156238
C27	C	0.452305	0.169536	0.053181
C28	C	0.413209	0.168503	0.166129
C29	C	1.076929	0.159651	0.126613
C30	C	1.164512	0.161949	0.136902
C31	C	0.928233	0.397175	0.109127
C32	C	0.930539	0.535694	0.109394
N33	N	0.932750	0.169028	0.463293
N34	N	0.932772	0.169021	-0.243963
C35	C	0.983165	0.088144	0.536999
C36	C	0.983178	0.088139	0.694164
H37	H	0.930669	-0.455677	0.327661
O38	O	0.537713	0.171861	0.307265
C39	C	0.546399	0.172037	0.553740
C40	C	0.591627	0.173186	0.422895
H41	H	0.589971	0.173081	0.647261
H42	H	0.501140	0.258324	0.554691
H43	H	0.514602	0.083755	0.556127
H44	H	0.623471	0.261409	0.420422
H45	H	0.636841	0.086840	0.421997
H46	H	0.889593	0.238268	0.516542
O47	O	0.881354	0.251814	0.680537
C48	C	0.836659	0.468930	0.631377
C49	C	0.894947	0.375305	0.716960
H50	H	0.847617	0.568792	0.660814
H51	H	0.845823	0.454326	0.518075
H52	H	0.773340	0.452972	0.651952
H53	H	0.958289	0.391206	0.696503
H54	H	0.885713	0.389932	0.830235
H55	H	0.321443	0.166095	0.379832
H56	H	1.026344	0.018895	0.757526
H57	H	1.026316	0.018894	0.483752
H58	H	0.934829	-0.206285	0.328154
O59	O	0.931693	-0.401099	-0.010651
C60	C	1.000597	-0.375167	-0.213968
C61	C	0.999382	-0.446891	-0.078080
H62	H	1.055326	-0.412144	-0.268510
H63	H	0.945101	-0.389187	-0.281637
H64	H	1.002287	-0.270995	-0.192306
H65	H	0.997719	-0.551086	-0.099615
H66	H	1.054875	-0.432767	-0.010453
O67	O	0.933784	-0.261019	-0.010280
C68	C	0.863138	-0.393935	-0.161943
C69	C	0.864383	-0.322187	-0.025789
H70	H	0.807042	-0.443430	-0.174512
H71	H	0.864233	-0.325220	-0.250405
H72	H	0.917258	-0.466348	-0.161661
H73	H	0.810273	-0.249774	-0.025937
H74	H	0.863329	-0.390978	0.062613
H75	H	0.693350	0.175923	0.306001
H76	H	0.172146	0.162162	0.362281
H77	H	0.172161	0.162150	-0.086690
O78	O	0.327792	0.166295	-0.087959
C79	C	0.319109	0.165975	-0.334434
C80	C	0.273891	0.164764	-0.203583
H81	H	0.275552	0.164711	-0.427948
H82	H	0.350866	0.254289	-0.336996
H83	H	0.364403	0.079722	-0.335217
H84	H	0.228559	0.250956	-0.202713
H85	H	0.242188	0.076393	-0.201072
H86	H	0.544068	0.171945	-0.160512
H87	H	0.418796	0.168650	-0.051498
O88	O	0.699711	0.176123	-0.161787
C89	C	0.691039	0.175824	-0.408261
C90	C	0.645815	0.174594	-0.277418
H91	H	0.647486	0.174562	-0.501782
H92	H	0.722791	0.264144	-0.410809
H93	H	0.736337	0.089578	-0.409047
H94	H	0.600478	0.260780	-0.276545
H95	H	0.614117	0.086218	-0.274921
H96	H	0.446713	0.169382	0.270807
