data_functionalizedCrystal
_audit_creation_method	'MofGen! by Chris Wilmer'
_symmetry_space_group_name_H-M	'P1'
_symmetry_Int_Tables_number	1
_symmetry_cell_setting	triclinic
loop_
_symmetry_equiv_pos_as_xyz
  x,y,z
_cell_length_a	21.395364
_cell_length_b	21.395361
_cell_length_c	21.395355
_cell_angle_alpha	90.021511
_cell_angle_beta	90.025677
_cell_angle_gamma	90.024740
loop_
_atom_site_label
_atom_site_type_symbol
_atom_site_fract_x
_atom_site_fract_y
_atom_site_fract_z
Zn1	Zn	-0.957859	0.249611	-0.354267
Zn2	Zn	-0.957761	0.354371	-0.249484
Zn3	Zn	-0.853074	0.249600	-0.249502
Zn4	Zn	-0.853043	0.354344	-0.354222
O5	O	-0.905434	0.301981	-0.301869
O6	O	-1.045524	0.263523	-0.340379
O7	O	-0.943847	0.340479	-0.161809
O8	O	-0.867028	0.161924	-0.263425
O9	O	-1.045452	0.340490	-0.263395
O10	O	-0.944013	0.161932	-0.340396
O11	O	-0.866933	0.263505	-0.161822
O12	O	-0.765392	0.263479	-0.263382
O13	O	-0.866975	0.340444	-0.441906
O14	O	-0.765369	0.340433	-0.340320
O15	O	-0.943983	0.263497	-0.441939
O16	O	-0.943817	0.442045	-0.263352
O17	O	-0.866881	0.442025	-0.340302
C18	C	-0.742647	0.301952	-0.301848
C19	C	-0.673006	0.301955	-0.301854
C20	C	-0.905486	0.301969	-0.465292
C21	C	-0.905509	0.301963	-0.534933
C22	C	-0.905352	0.464769	-0.301834
C23	C	-0.905374	0.534410	-0.301840
C24	C	-0.171246	0.261977	-0.342013
C25	C	-0.236681	0.261975	-0.342015
C26	C	-0.269367	0.301981	-0.301870
C27	C	-0.236612	0.342005	-0.261733
C28	C	-0.171178	0.342011	-0.261737
C29	C	-0.373004	0.306836	-0.245405
C30	C	-0.438437	0.306826	-0.245399
C31	C	-0.471188	0.301966	-0.301857
C32	C	-0.438498	0.297104	-0.358322
C33	C	-0.373064	0.297110	-0.358326
C34	C	-0.340320	0.301980	-0.301861
C35	C	-0.574888	0.261945	-0.341996
C36	C	-0.640324	0.261947	-0.341998
C37	C	-0.640254	0.341974	-0.261711
C38	C	-0.574818	0.341976	-0.261714
C39	C	-0.542139	0.301958	-0.301856
C40	C	-0.068858	0.302003	-0.301885
C41	C	-0.138499	0.301993	-0.301879
C42	C	-0.905535	0.138558	-0.301918
C43	C	-0.905577	0.068917	-0.301938
C44	C	-0.945470	0.567113	-0.261813
C45	C	-0.945499	0.632548	-0.261827
C46	C	-0.905421	0.665279	-0.301861
C47	C	-0.865322	0.632568	-0.341896
C48	C	-0.865298	0.567134	-0.341886
C49	C	-0.849006	0.768988	-0.306770
C50	C	-0.849029	0.834421	-0.306777
C51	C	-0.905494	0.867099	-0.301898
C52	C	-0.961938	0.834337	-0.297000
C53	C	-0.961915	0.768903	-0.296990
C54	C	-0.905442	0.736231	-0.301878
C55	C	-0.945625	0.970754	-0.261884
C56	C	-0.945655	1.036191	-0.261903
C57	C	-0.865472	1.036209	-0.341969
C58	C	-0.865448	0.970774	-0.341954
C59	C	-0.905523	0.938051	-0.301908
C60	C	-0.945605	0.261895	-0.567665
C61	C	-0.945604	0.261868	-0.633100
C62	C	-0.905513	0.301921	-0.665802
C63	C	-0.865409	0.341991	-0.633063
C64	C	-0.865407	0.342013	-0.567629
C65	C	-0.900538	0.358335	-0.769464
C66	C	-0.900544	0.358315	-0.834897
C67	C	-0.905517	0.301854	-0.867623
C68	C	-0.910497	0.245412	-0.834907
C69	C	-0.910494	0.245434	-0.769473
C70	C	-0.905511	0.301902	-0.736754
C71	C	-0.945615	0.261754	-0.971307
C72	C	-0.945610	0.261726	-1.036743
C73	C	-0.865418	0.341854	-1.036704
C74	C	-0.865420	0.341877	-0.971269
C75	C	-0.905522	0.301827	-0.938574
C76	C	-0.905419	0.301949	-0.139081
C77	C	-0.905518	0.301778	-0.069440
H78	H	-0.144643	0.229394	-0.374703
H79	H	-0.465163	0.293144	-0.404295
H80	H	-0.978103	0.540471	-0.229207
N81	N	-0.541495	0.221092	-0.383013
N82	N	-0.504995	0.243210	-0.422894
H83	H	-0.481409	0.214361	-0.451864
H84	H	-0.263349	0.229386	-0.374696
H85	H	-0.978254	0.229237	-0.659755
H86	H	-0.978152	0.659180	-0.229232
N87	N	-0.339682	0.292144	-0.416004
N88	N	-0.368924	0.287803	-0.466411
H89	H	-0.345349	0.284297	-0.507147
N90	N	-0.824534	1.069625	-0.382872
N91	N	-0.828658	1.062280	-0.440689
H92	H	-0.799746	1.085882	-0.469581
H93	H	-0.832795	0.944146	-0.374545
N94	N	-0.673624	0.382841	-0.220695
N95	N	-0.644373	0.418564	-0.184858
H96	H	-0.667942	0.447429	-0.155890
H97	H	-1.007873	0.742229	-0.293003
H98	H	-0.832753	0.374640	-0.540979
H99	H	-0.465048	0.310781	-0.199422
H100	H	-0.548155	0.374559	-0.229029
N101	N	-0.339562	0.311803	-0.187725
N102	N	-0.368754	0.316136	-0.137316
H103	H	-0.345137	0.319645	-0.096581
N104	N	-0.673767	0.221072	-0.383008
N105	N	-0.644579	0.185350	-0.418845
H106	H	-0.668198	0.156481	-0.447810
N107	N	-0.986560	0.220793	-1.070189
N108	N	-0.964542	0.180849	-1.106692
H109	H	-0.993464	0.151939	-1.130315
N110	N	-0.270006	0.382871	-0.220734
N111	N	-0.328429	0.382860	-0.220734
H112	H	-0.352014	0.411725	-0.191779
N113	N	-0.791369	0.867874	-0.311776
N114	N	-0.740959	0.838692	-0.316141
H115	H	-0.700235	0.862316	-0.319673
N116	N	-0.791319	0.735621	-0.311761
N117	N	-0.740929	0.764877	-0.316129
H118	H	-0.700188	0.741313	-0.319655
H119	H	-0.832773	0.374508	-0.944619
H120	H	-0.832691	0.659221	-0.374494
H121	H	-0.896494	0.404274	-0.861529
N122	N	-0.137734	0.382894	-0.220736
N123	N	-0.166921	0.418617	-0.184899
H124	H	-0.143301	0.447491	-0.155940
H125	H	-1.007918	0.860942	-0.293028
H126	H	-0.978264	0.229140	-0.944685
N127	N	-0.986578	0.937327	-0.220998
N128	N	-1.026479	0.900773	-0.243080
H129	H	-1.055406	0.877167	-0.214205
H130	H	-0.978310	1.062816	-0.229309
N131	N	-0.824337	0.533735	-0.382780
N132	N	-0.788559	0.562962	-0.418528
H133	H	-0.759629	0.539374	-0.447411
H134	H	-0.978258	0.229283	-0.541049
H135	H	-0.914547	0.199476	-0.742838
H136	H	-0.832770	0.374459	-1.063330
H137	H	-0.914547	0.199436	-0.861551
N138	N	-0.895451	0.416018	-0.736049
N139	N	-0.891011	0.466406	-0.765264
H140	H	-0.887417	0.507144	-0.741666
N141	N	-0.824458	0.382896	-0.666473
N142	N	-0.824465	0.382872	-0.724896
H143	H	-0.795540	0.411759	-0.748493
