data_functionalizedCrystal
_audit_creation_method	'MofGen! by Chris Wilmer'
_symmetry_space_group_name_H-M	'P1'
_symmetry_Int_Tables_number	1
_symmetry_cell_setting	triclinic
loop_
_symmetry_equiv_pos_as_xyz
  x,y,z
_cell_length_a	16.974897
_cell_length_b	16.053789
_cell_length_c	16.992695
_cell_angle_alpha	87.278479
_cell_angle_beta	92.972799
_cell_angle_gamma	96.538804
loop_
_atom_site_label
_atom_site_type_symbol
_atom_site_fract_x
_atom_site_fract_y
_atom_site_fract_z
O1	O	1.061874	0.141104	-0.105972
O2	O	1.561874	0.641104	0.394028
O3	O	0.831767	0.125574	-0.118029
O4	O	1.331767	0.625574	0.381971
O5	O	0.945897	0.133270	0.002144
O6	O	1.445897	0.633270	0.502144
O7	O	0.947743	0.133408	-0.226145
O8	O	1.447743	0.633408	0.273855
O9	O	0.939548	-0.006018	0.008056
O10	O	1.439548	0.493982	0.508056
O11	O	0.825417	-0.013714	-0.112117
O12	O	1.325417	0.486286	0.387883
O13	O	1.055524	0.001816	-0.100060
O14	O	1.555524	0.501816	0.399940
Zn15	Zn	0.939462	-0.028064	-0.105150
Zn16	Zn	1.439462	0.471936	0.394850
Zn17	Zn	0.947828	0.155454	-0.112939
Zn18	Zn	1.447828	0.655454	0.387061
O19	O	0.941393	-0.005880	-0.220233
O20	O	1.441393	0.494120	0.279767
C21	C	0.799012	0.053934	-0.114503
C22	C	1.299012	0.553934	0.385497
C23	C	0.710874	0.047985	-0.112794
C24	C	1.210874	0.547985	0.387206
C25	C	0.672920	0.121110	-0.115215
C26	C	1.172920	0.621110	0.384785
C27	C	0.590103	0.115509	-0.113621
C28	C	1.090103	0.615509	0.386379
C29	C	0.545242	0.036781	-0.109600
C30	C	1.045242	0.536781	0.390400
C31	C	0.583201	-0.036350	-0.107181
C32	C	1.083201	0.463650	0.392819
C33	C	0.666016	-0.030747	-0.108781
C34	C	1.166016	0.469253	0.391219
C35	C	0.297191	0.011884	-0.104476
C36	C	0.797191	0.511884	0.395524
C37	C	0.214371	0.006287	-0.102874
C38	C	0.714371	0.506287	0.397126
C39	C	0.221278	0.158146	-0.109316
C40	C	0.721278	0.658146	0.390684
C41	C	0.304095	0.163741	-0.110911
C42	C	0.804095	0.663741	0.389089
C43	C	0.342046	0.090611	-0.108495
C44	C	0.842046	0.590611	0.391505
N45	N	0.460590	0.031054	-0.107968
N46	N	0.960590	0.531054	0.392032
N47	N	0.426697	0.096339	-0.110133
N48	N	0.926697	0.596339	0.389867
N49	N	0.933758	-0.153310	-0.099833
N50	N	1.433758	0.346690	0.400167
C51	C	0.982876	-0.193683	-0.145653
C52	C	1.482876	0.306317	0.354347
C53	C	0.978897	-0.281359	-0.141929
C54	C	1.478897	0.218641	0.358071
C55	C	0.925795	-0.328660	-0.092389
C56	C	1.425795	0.171340	0.407611
C57	C	0.876675	-0.288282	-0.046563
C58	C	1.376675	0.211718	0.453437
C59	C	0.880659	-0.200607	-0.050284
C60	C	1.380659	0.299393	0.449716
C61	C	0.908402	-0.591246	-0.076145
C62	C	1.408402	-0.091246	0.423855
C63	C	0.904420	-0.678927	-0.072430
C64	C	1.404420	-0.178927	0.427570
C65	C	1.006643	-0.671997	-0.167795
C66	C	1.506643	-0.171997	0.332205
C67	C	1.010619	-0.584322	-0.171514
C68	C	1.510619	-0.084322	0.328486
C69	C	0.961503	-0.543950	-0.125686
C70	C	1.461503	-0.043950	0.374314
N71	N	0.921724	-0.418279	-0.088583
N72	N	1.421724	0.081721	0.411417
N73	N	0.965578	-0.454333	-0.129488
N74	N	1.465578	0.045667	0.370512
C75	C	1.088278	0.073458	-0.103587
C76	C	1.588278	0.573458	0.396413
C77	C	1.176417	0.079412	-0.105296
C78	C	1.676417	0.579412	0.394704
C79	C	0.940349	0.063466	0.034317
C80	C	1.440349	0.563466	0.534317
C81	C	0.933268	0.062988	0.121374
C82	C	1.433268	0.562988	0.621374
N83	N	0.953538	0.280701	-0.118250
N84	N	1.453538	0.780701	0.381750
C85	C	0.946941	0.063926	-0.252406
C86	C	1.446941	0.563926	0.247594
C87	C	0.954023	0.064409	-0.339464
C88	C	1.454023	0.564409	0.160536
C89	C	1.001593	0.067599	0.171489
C90	C	1.501593	0.567599	0.671489
C91	C	0.994935	0.067157	0.253287
C92	C	1.494935	0.567157	0.753287
C93	C	0.919951	0.062100	0.284970
C94	C	1.419951	0.562100	0.784970
C95	C	0.851621	0.057491	0.234849
C96	C	1.351621	0.557491	0.734849
C97	C	0.858280	0.057939	0.153051
C98	C	1.358280	0.557939	0.653051
C99	C	0.892352	0.060248	0.528618
C100	C	1.392352	0.560248	1.028618
C101	C	0.885698	0.059799	0.610422
C102	C	1.385698	0.559799	1.110422
C103	C	1.029012	0.069466	0.628855
C104	C	1.529012	0.569466	1.128855
C105	C	1.035665	0.069908	0.547055
C106	C	1.535665	0.569908	1.047055
C107	C	0.967335	0.065305	0.496941
C108	C	1.467335	0.565305	0.996941
N109	N	0.913143	0.061646	0.368581
N110	N	1.413143	0.561646	0.868581
N111	N	0.974143	0.065765	0.413331
N112	N	1.474143	0.565765	0.913331
H113	H	0.696917	-0.090294	-0.106812
H114	H	1.196917	0.409706	0.393188
C115	C	0.825129	-0.425757	0.001441
C116	C	1.325129	0.074243	0.501441
C117	C	0.818301	-0.340272	0.007892
C118	C	1.318301	0.159728	0.507892
H119	H	0.789085	-0.457849	0.035056
H120	H	1.289085	0.042151	0.535056
H121	H	0.877805	-0.436547	0.016468
H122	H	1.377805	0.063453	0.516468
H123	H	0.813113	-0.440851	-0.051578
H124	H	1.313113	0.059149	0.448422
H125	H	0.830322	-0.325176	0.060910
H126	H	1.330322	0.174824	0.560910
H127	H	0.765613	-0.329476	-0.007131
H128	H	1.265613	0.170524	0.492869
C129	C	0.811859	0.054809	0.727629
C130	C	1.311859	0.554809	1.227629
C131	C	0.803270	0.054238	0.645250
C132	C	1.303270	0.554238	1.145250
H133	H	0.760974	0.051368	0.749129
H134	H	1.260974	0.551368	1.249129
H135	H	0.842421	0.105290	0.742754
H136	H	1.342421	0.605290	1.242754
H137	H	0.837997	0.008144	0.746873
H138	H	1.337997	0.508144	1.246873
H139	H	0.777137	0.100906	0.626005
H140	H	1.277137	0.600906	1.126005
H141	H	0.772696	0.003751	0.630118
H142	H	1.272696	0.503751	1.130118
H143	H	0.840662	-0.167737	-0.012972
H144	H	1.340662	0.332263	0.487028
C145	C	1.094327	-0.087843	-0.155000
C146	C	1.594327	0.412157	0.345000
C147	C	1.041246	-0.141690	-0.200111
C148	C	1.541246	0.358310	0.299889
H149	H	1.130360	-0.055743	-0.188622
H150	H	1.630360	0.444257	0.311378
H151	H	1.122984	-0.120004	-0.117546
H152	H	1.622984	0.379996	0.382454
H153	H	1.065635	-0.051253	-0.128248
H154	H	1.565635	0.448747	0.371752
H155	H	1.069938	-0.178285	-0.226858
H156	H	1.569938	0.321715	0.273142
H157	H	1.012587	-0.109526	-0.237579
H158	H	1.512587	0.390474	0.262421
H159	H	0.802643	0.054185	0.112248
H160	H	1.302643	0.554185	0.612248
H161	H	1.096724	0.074027	0.521266
H162	H	1.596724	0.574027	1.021266
H163	H	1.018895	-0.314226	-0.179239
H164	H	1.518895	0.185774	0.320761
C165	C	1.067314	0.000668	0.359026
C166	C	1.567314	0.500668	0.859026
C167	C	1.070035	0.072227	0.308380
C168	C	1.570035	0.572227	0.808380
H169	H	1.113678	0.003804	0.393041
H170	H	1.613678	0.503804	0.893041
H171	H	1.064724	-0.047925	0.328801
H172	H	1.564724	0.452075	0.828801
H173	H	1.021698	-0.002397	0.389592
H174	H	1.521698	0.497603	0.889592
H175	H	1.115648	0.075288	0.277808
H176	H	1.615648	0.575288	0.777808
H177	H	1.072633	0.120832	0.338607
H178	H	1.572633	0.620832	0.838607
C179	C	0.750025	0.050628	0.518627
C180	C	1.250025	0.550628	1.018627
C181	C	0.817244	0.055172	0.473540
C182	C	1.317244	0.555172	0.973540
H183	H	0.703655	0.047486	0.484620
H184	H	1.203655	0.547486	0.984620
H185	H	0.752621	0.099226	0.548845
H186	H	1.252621	0.599226	1.048845
H187	H	0.748207	0.002080	0.552984
H188	H	1.248207	0.502080	1.052984
H189	H	0.819065	0.103723	0.439187
H190	H	1.319065	0.603723	0.939187
H191	H	0.814648	0.006569	0.443308
H192	H	1.314648	0.506569	0.943308
H193	H	0.340616	0.227850	-0.114179
H194	H	0.840616	0.727850	0.385821
H195	H	1.062652	0.071712	0.145700
H196	H	1.562652	0.571712	0.645700
C197	C	0.671420	0.270652	-0.121436
C198	C	1.171420	0.770652	0.378564
C199	C	0.722227	0.207652	-0.119641
C200	C	1.222227	0.707652	0.380359
H201	H	0.701859	0.324079	-0.124176
H202	H	1.201859	0.824079	0.375824
H203	H	0.642127	0.265522	-0.074989
H204	H	1.142127	0.765522	0.425011
H205	H	0.635824	0.265086	-0.166369
H206	H	1.135824	0.765086	0.333631
H207	H	0.757819	0.213213	-0.074704
H208	H	1.257819	0.713213	0.425296
H209	H	0.751533	0.212784	-0.166092
H210	H	1.251533	0.712784	0.333908
C211	C	1.082443	0.073082	0.762428
C212	C	1.582443	0.573082	1.262428
C213	C	1.104117	0.074538	0.683941
C214	C	1.604117	0.574538	1.183941
H215	H	1.128814	0.076221	0.796435
H216	H	1.628814	0.576221	1.296435
H217	H	1.049705	0.022451	0.774110
H218	H	1.549705	0.522451	1.274110
H219	H	1.054122	0.119596	0.769972
H220	H	1.554122	0.619596	1.269972
H221	H	1.132433	0.028020	0.676397
H222	H	1.632433	0.528020	1.176397
H223	H	1.136869	0.125175	0.672256
H224	H	1.636869	0.625175	1.172256
H225	H	0.790568	0.053378	0.260651
H226	H	1.290568	0.553378	0.760651
H227	H	0.559205	0.175055	-0.115593
H228	H	1.059205	0.675055	0.384407
C229	C	0.282034	-0.138782	-0.097941
C230	C	0.782034	0.361218	0.402059
C231	C	0.338901	-0.068501	-0.101814
C232	C	0.838901	0.431499	0.398186
H233	H	0.307788	-0.188409	-0.096292
H234	H	0.807788	0.311591	0.403708
H235	H	0.246730	-0.138016	-0.143137
H236	H	0.746730	0.361984	0.356863
H237	H	0.253025	-0.137589	-0.051757
H238	H	0.753025	0.362411	0.448243
H239	H	0.367906	-0.069690	-0.148001
H240	H	0.867906	0.430310	0.351999
H241	H	0.374219	-0.069267	-0.056613
H242	H	0.874219	0.430733	0.443387
C243	C	0.236425	0.308812	-0.115850
C244	C	0.736425	0.808812	0.384150
C245	C	0.179560	0.238528	-0.111981
C246	C	0.679560	0.738528	0.388019
H247	H	0.210669	0.358438	-0.117494
H248	H	0.710669	0.858438	0.382506
H249	H	0.265435	0.307624	-0.162025
H250	H	0.765435	0.807624	0.337975
H251	H	0.271730	0.308044	-0.070645
H252	H	0.771730	0.808044	0.429355
H253	H	0.144259	0.239292	-0.157190
H254	H	0.644259	0.739292	0.342810
H255	H	0.150537	0.239717	-0.065801
H256	H	0.650537	0.739717	0.434199
H257	H	0.177845	-0.057826	-0.099622
H258	H	0.677845	0.442174	0.400378
H259	H	1.053863	-0.545814	-0.211853
H260	H	1.553863	-0.045814	0.288147
C261	C	0.490709	-0.130440	-0.034288
C262	C	0.990709	0.369560	0.465712
C263	C	0.533892	-0.122890	-0.102760
C264	C	1.033892	0.377110	0.397240
H265	H	0.460273	-0.183870	-0.031557
H266	H	0.960273	0.316130	0.468443
H267	H	0.456254	-0.087697	-0.035507
H268	H	0.956254	0.412303	0.464493
H269	H	0.526317	-0.124888	0.010637
H270	H	1.026317	0.375112	0.510637
H271	H	0.498284	-0.128436	-0.147686
H272	H	0.998284	0.371564	0.352314
H273	H	0.568350	-0.165645	-0.101549
H274	H	1.068350	0.334355	0.398451
C275	C	0.863741	-0.708613	0.060169
C276	C	1.363741	-0.208613	0.560169
C277	C	0.846049	-0.730922	-0.017967
C278	C	1.346049	-0.230922	0.482033
H279	H	0.827708	-0.740716	0.093788
H280	H	1.327708	-0.240716	0.593788
H281	H	0.859082	-0.650627	0.064510
H282	H	1.359082	-0.150627	0.564510
H283	H	0.916430	-0.719380	0.075204
H284	H	1.416430	-0.219380	0.575204
H285	H	0.793361	-0.720149	-0.033003
H286	H	1.293361	-0.220149	0.466997
H287	H	0.850701	-0.788921	-0.022311
H288	H	1.350701	-0.288921	0.477689
C289	C	0.774819	-0.573416	-0.046191
C290	C	1.274819	-0.073416	0.453809
C291	C	0.854394	-0.546891	-0.025780
C292	C	1.354394	-0.046891	0.474220
H293	H	0.741472	-0.546031	-0.015100
H294	H	1.241472	-0.046031	0.484900
H295	H	0.764866	-0.632396	-0.036893
H296	H	1.264866	-0.132396	0.463107
H297	H	0.764150	-0.559797	-0.100422
H298	H	1.264150	-0.059797	0.399578
H299	H	0.865065	-0.560516	0.028450
H300	H	1.365065	-0.060516	0.528450
H301	H	0.864352	-0.487898	-0.035072
H302	H	1.364352	0.012102	0.464928
C303	C	1.044878	-0.696311	-0.298095
C304	C	1.544878	-0.196311	0.201905
C305	C	1.060636	-0.716376	-0.218161
C306	C	1.560636	-0.216376	0.281839
H307	H	1.078212	-0.723713	-0.329186
H308	H	1.578212	-0.223713	0.170814
H309	H	1.054851	-0.637333	-0.307393
H310	H	1.554851	-0.137333	0.192607
H311	H	0.990884	-0.714294	-0.311916
H312	H	1.490884	-0.214294	0.188084
H313	H	1.114629	-0.698387	-0.204338
H314	H	1.614629	-0.198387	0.295662
H315	H	1.050669	-0.775366	-0.208857
H316	H	1.550669	-0.275366	0.291143
