data_functionalizedCrystal
_audit_creation_method	'MofGen! by Chris Wilmer'
_symmetry_space_group_name_H-M	'P1'
_symmetry_Int_Tables_number	1
_symmetry_cell_setting	triclinic
loop_
_symmetry_equiv_pos_as_xyz
  x,y,z
_cell_length_a	10.654546
_cell_length_b	10.654550
_cell_length_c	9.730223
_cell_angle_alpha	90.004253
_cell_angle_beta	89.995791
_cell_angle_gamma	95.515793
loop_
_atom_site_label
_atom_site_type_symbol
_atom_site_fract_x
_atom_site_fract_y
_atom_site_fract_z
O1	O	1.667842	-0.176377	-0.114320
O2	O	2.167842	0.323623	0.385680
O3	O	1.302363	-0.193188	-0.114316
O4	O	1.802363	0.306812	0.385684
O5	O	1.493505	-0.002043	-0.114309
O6	O	1.993505	0.497957	0.385691
O7	O	1.476699	-0.367522	-0.114326
O8	O	1.976699	0.132478	0.385674
O9	O	1.493493	-0.002038	0.114271
O10	O	1.993493	0.497962	0.614271
O11	O	1.302350	-0.193183	0.114264
O12	O	1.802350	0.306817	0.614264
O13	O	1.667829	-0.176372	0.114260
O14	O	2.167829	0.323628	0.614260
Zn15	Zn	1.485088	-0.184777	0.150554
Zn16	Zn	1.985088	0.315223	0.650554
Zn17	Zn	1.485104	-0.184784	-0.150610
Zn18	Zn	1.985104	0.315216	0.349390
O19	O	1.476687	-0.367517	0.114254
O20	O	1.976687	0.132483	0.614254
C21	C	1.255558	-0.191952	-0.000025
C22	C	1.755558	0.308048	0.499975
C23	C	1.116115	-0.188262	-0.000024
C24	C	1.616115	0.311738	0.499976
C25	C	1.050627	-0.186519	-0.124629
C26	C	1.550627	0.313481	0.375371
C27	C	0.919606	-0.183041	-0.124640
C28	C	1.419606	0.316959	0.375360
C29	C	0.919574	-0.183046	0.124571
C30	C	1.419574	0.316954	0.624571
C31	C	1.050591	-0.186532	0.124580
C32	C	1.550591	0.313468	0.624580
C33	C	1.050645	-0.186511	-0.268509
C34	C	1.550645	0.313489	0.231491
C35	C	0.919625	-0.183033	-0.268520
C36	C	1.419625	0.316967	0.231480
C37	C	1.492265	0.044757	-0.000020
C38	C	1.992265	0.544757	0.499980
C39	C	1.488573	0.184200	-0.000022
C40	C	1.988573	0.684200	0.499978
C41	C	1.714633	-0.177608	-0.000033
C42	C	2.214633	0.322392	0.499967
C43	C	1.854077	-0.181298	-0.000044
C44	C	2.354077	0.318702	0.499956
C45	C	1.477927	-0.414317	-0.000039
C46	C	1.977927	0.085683	0.499961
C47	C	1.481619	-0.553761	-0.000046
C48	C	1.981619	-0.053761	0.499954
N49	N	1.485086	-0.184771	0.356091
N50	N	1.985086	0.315229	0.856091
C51	C	1.601115	0.263687	-0.000024
C52	C	2.101115	0.763687	0.499976
C53	C	1.597638	0.394708	-0.000040
C54	C	2.097638	0.894708	0.499960
C55	C	1.369068	0.366742	-0.000048
C56	C	1.869068	0.866742	0.499952
C57	C	1.372546	0.235724	-0.000041
C58	C	1.872546	0.735724	0.499959
N59	N	1.485116	-0.184779	-0.356146
N60	N	1.985116	0.315221	0.143854
C61	C	1.569753	-0.100168	0.428019
C62	C	2.069753	0.399832	0.928019
C63	C	1.569765	-0.100169	0.571902
C64	C	2.069765	0.399831	1.071902
C65	C	1.400440	-0.269386	0.571915
C66	C	1.900440	0.230614	1.071915
C67	C	1.400422	-0.269379	0.428035
C68	C	1.900422	0.230621	0.928035
H69	H	1.075467	-0.275190	-0.323755
H70	H	1.575467	0.224810	0.176245
H71	H	1.274603	0.408709	-0.000061
H72	H	1.774603	0.908709	0.499939
H73	H	0.867915	-0.272475	-0.313182
H74	H	1.367915	0.227525	0.186818
H75	H	1.695591	0.221742	-0.000011
H76	H	2.195591	0.721742	0.499989
F77	F	1.252757	0.151122	-0.000049
F78	F	1.752757	0.651122	0.499951
F79	F	1.659856	-0.010118	0.351457
F80	F	2.159856	0.489882	0.851457
F81	F	0.887187	-0.067120	-0.340710
F82	F	1.387187	0.432880	0.159290
H83	H	1.638707	-0.031276	0.630463
H84	H	2.138707	0.468724	1.130463
H85	H	1.331510	-0.338273	0.630506
H86	H	1.831510	0.161727	1.130506
F87	F	1.120281	-0.188412	0.257201
F88	F	1.620281	0.311588	0.757201
F89	F	0.849827	-0.181206	0.257175
F90	F	1.349827	0.318794	0.757175
H91	H	1.102370	-0.097070	-0.313139
H92	H	1.602370	0.402930	0.186861
F93	F	1.717421	0.479299	-0.000045
F94	F	2.217421	0.979299	0.499955
F95	F	1.310299	-0.359424	0.351477
F96	F	1.810299	0.140576	0.851477
