data_functionalizedCrystal
_audit_creation_method	'MofGen! by Chris Wilmer'
_symmetry_space_group_name_H-M	'P1'
_symmetry_Int_Tables_number	1
_symmetry_cell_setting	triclinic
loop_
_symmetry_equiv_pos_as_xyz
  x,y,z
_cell_length_a	14.519731
_cell_length_b	10.654541
_cell_length_c	9.730217
_cell_angle_alpha	90.003041
_cell_angle_beta	89.998497
_cell_angle_gamma	95.913609
loop_
_atom_site_label
_atom_site_type_symbol
_atom_site_fract_x
_atom_site_fract_y
_atom_site_fract_z
O1	O	1.224705	-0.164749	-0.114292
O2	O	0.956331	-0.184107	-0.114294
O3	O	1.096689	0.008370	-0.114285
O4	O	1.084346	-0.357226	-0.114302
O5	O	1.096685	0.008372	0.114295
O6	O	0.956326	-0.184106	0.114286
O7	O	1.224700	-0.164747	0.114288
Zn8	Zn	1.090513	-0.174426	0.150579
Zn9	Zn	1.090518	-0.174428	-0.150585
O10	O	1.084342	-0.357225	0.114278
C11	C	0.921964	-0.183199	-0.000005
C12	C	0.819570	-0.180481	-0.000005
C13	C	0.736414	-0.178273	-0.000011
C14	C	0.632091	-0.175513	-0.000011
C15	C	0.548941	-0.173323	-0.000011
C16	C	0.444611	-0.170563	-0.000014
C17	C	1.095781	0.055161	0.000004
C18	C	1.093071	0.194578	0.000002
C19	C	1.259067	-0.165655	-0.000005
C20	C	1.361461	-0.168373	-0.000013
C21	C	1.085250	-0.404015	-0.000014
C22	C	1.087960	-0.543432	-0.000021
N23	N	1.090515	-0.174424	0.356115
C24	C	1.260908	0.224145	0.000021
C25	C	1.343549	0.304426	0.000033
C26	C	1.340997	0.435419	0.000028
C27	C	1.255795	0.486134	0.000008
C28	C	1.173153	0.405854	-0.000004
C29	C	1.175714	0.274859	0.000004
C30	C	1.005318	0.376287	-0.000033
C31	C	1.007868	0.245293	-0.000019
C32	C	0.920116	0.427002	-0.000053
C33	C	0.837472	0.346721	-0.000056
C34	C	0.840028	0.215720	-0.000050
C35	C	0.925227	0.165013	-0.000031
N36	N	1.090523	-0.174421	-0.356122
C37	C	1.214854	-0.004034	0.356114
C38	C	1.277030	0.081157	0.428054
C39	C	1.277039	0.081158	0.571933
C40	C	1.214864	-0.004039	0.643877
C41	C	1.152689	-0.089230	0.571938
C42	C	1.152688	-0.089224	0.428055
C43	C	1.028347	-0.259612	0.571939
C44	C	1.028341	-0.259621	0.428059
C45	C	0.966172	-0.344809	0.643882
C46	C	0.904000	-0.430008	0.571943
C47	C	0.903994	-0.430006	0.428055
C48	C	0.966165	-0.344812	0.356120
H49	H	1.262994	0.117485	0.000043
H50	H	0.772731	0.150362	-0.000065
C51	C	1.214850	-0.004046	0.197851
H52	H	1.168922	-0.066991	0.165311
H53	H	1.201730	0.076263	0.165299
H54	H	1.273901	-0.021443	0.165304
H55	H	0.853377	-0.499364	0.630529
C56	C	0.928042	0.020925	-0.000033
H57	H	0.990619	0.002224	-0.000032
H58	H	0.897619	-0.014175	0.079667
H59	H	0.897639	-0.014165	-0.079765
H60	H	1.327664	0.150532	0.630507
H61	H	1.327650	0.150527	0.369465
C62	C	0.835601	-0.523721	0.348932
H63	H	0.798582	-0.574461	0.412390
H64	H	0.796928	-0.478422	0.292807
H65	H	0.869105	-0.576118	0.292803
C66	C	1.214860	-0.004026	0.802141
H67	H	1.168924	-0.066957	0.834684
H68	H	1.273906	-0.021398	0.834699
H69	H	1.201724	0.076292	0.834678
H70	H	0.768107	0.388025	-0.000081
H71	H	0.966179	-0.344800	0.761037
H72	H	1.408291	0.500785	0.000028
H73	H	0.966169	-0.344807	0.238965
C74	C	1.437265	0.248637	0.000061
H75	H	1.426953	0.159125	0.000075
H76	H	1.471337	0.276173	-0.079642
H77	H	1.471315	0.276186	0.079790
H78	H	1.253724	0.592798	-0.000012
H79	H	0.918044	0.533665	-0.000065
