data_functionalizedCrystal
_audit_creation_method	'MofGen! by Chris Wilmer'
_symmetry_space_group_name_H-M	'P1'
_symmetry_Int_Tables_number	1
_symmetry_cell_setting	triclinic
loop_
_symmetry_equiv_pos_as_xyz
  x,y,z
_cell_length_a	6.817900
_cell_length_b	15.301126
_cell_length_c	11.102193
_cell_angle_alpha	93.597841
_cell_angle_beta	108.604059
_cell_angle_gamma	104.177575
loop_
_atom_site_label
_atom_site_type_symbol
_atom_site_fract_x
_atom_site_fract_y
_atom_site_fract_z
V1	V	-4.088935	-0.124765	-0.396644
O2	O	-4.071631	0.005989	-0.388696
O3	O	-4.043521	-0.247382	-0.394313
O4	O	-4.066056	-0.122849	-0.569459
O5	O	-4.048941	-0.119406	-0.212337
V6	V	-4.568869	-0.109125	-0.374553
O7	O	-4.358066	-0.159073	-0.445102
O8	O	-4.749935	-0.074818	-0.326094
O9	O	-4.391076	0.013492	-0.376883
O10	O	-4.703569	-0.239879	-0.382501
O11	O	-4.726260	-0.114484	-0.558859
O12	O	-4.368541	-0.111041	-0.201737
C13	C	-3.888423	-0.277273	-0.388155
C14	C	-3.932748	-0.377514	-0.387401
C15	C	-3.917167	-0.118418	-0.611569
C16	C	-3.979764	-0.117663	-0.752850
C17	C	-4.136748	-0.429200	-0.393401
C18	C	-4.178389	-0.523388	-0.392700
C19	C	-4.016023	-0.565887	-0.385991
C20	C	-3.812007	-0.514194	-0.379995
C21	C	-3.770374	-0.420009	-0.380705
C22	C	-3.898796	-0.710505	-0.378513
C23	C	-3.940430	-0.804696	-0.377801
C24	C	-4.306811	-0.813884	-0.390508
C25	C	-4.265177	-0.719699	-0.391218
C26	C	-4.061163	-0.668012	-0.385220
C27	C	-4.070203	-0.282820	-0.789688
C28	C	-4.144822	-0.365040	-0.874478
C29	C	-4.203638	-0.364325	-1.007222
C30	C	-4.187836	-0.281381	-1.055177
C31	C	-4.113217	-0.199161	-0.970386
C32	C	-4.054399	-0.199885	-0.837641
C33	C	-4.022793	-0.034006	-0.933549
C34	C	-3.963962	-0.034719	-0.800804
C35	C	-4.006992	0.048938	-0.981503
C36	C	-3.932357	0.131160	-0.896711
C37	C	-3.873537	0.130442	-0.763960
C38	C	-3.889343	0.047501	-0.716013
C39	C	-4.209516	0.043378	-0.383038
C40	C	-4.144430	0.143618	-0.383800
C41	C	-4.180772	-0.115476	-0.159621
C42	C	-4.097413	-0.116226	-0.018339
H43	H	-4.268966	-0.394604	-0.398852
H44	H	-4.344503	-0.565467	-0.397588
H45	H	-3.812790	0.197395	-0.694930
H46	H	-4.397390	-0.685099	-0.396674
H47	H	-4.022285	-0.283410	-0.681602
H48	H	-4.157687	-0.432571	-0.835419
H49	H	-4.264402	-0.431276	-1.076260
H50	H	-3.679813	-0.548805	-0.374540
H51	H	-3.732674	-0.668425	-0.373638
H52	H	-3.919513	0.198686	-0.935768
H53	H	-4.235757	-0.280807	-1.163266
H54	H	-3.841441	0.046909	-0.607928
H55	H	-4.054902	0.049513	-1.089592
H56	H	-4.472918	-0.855969	-0.395374
H57	H	-3.604262	-0.377928	-0.375824
H58	H	-3.808233	-0.839299	-0.372375
