data_functionalizedCrystal
_audit_creation_method	'MofGen! by Chris Wilmer'
_symmetry_space_group_name_H-M	'P1'
_symmetry_Int_Tables_number	1
_symmetry_cell_setting	triclinic
loop_
_symmetry_equiv_pos_as_xyz
  x,y,z
_cell_length_a	14.472310
_cell_length_b	14.519709
_cell_length_c	14.519709
_cell_angle_alpha	96.319855
_cell_angle_beta	90.002001
_cell_angle_gamma	89.992582
loop_
_atom_site_label
_atom_site_type_symbol
_atom_site_fract_x
_atom_site_fract_y
_atom_site_fract_z
O1	O	0.076723	-1.223880	0.120885
O2	O	0.410056	-0.890546	0.454218
O3	O	0.743389	-0.557213	0.787552
O4	O	0.076751	-0.955403	0.135121
O5	O	0.410084	-0.622069	0.468455
O6	O	0.743418	-0.288736	0.801788
O7	O	0.076728	-1.096759	-0.006235
O8	O	0.410061	-0.763426	0.327098
O9	O	0.743394	-0.430093	0.660431
O10	O	0.076746	-1.082523	0.262242
O11	O	0.410079	-0.749190	0.595575
O12	O	0.743413	-0.415856	0.928908
O13	O	-0.076954	-1.096723	-0.006227
O14	O	0.256379	-0.763390	0.327106
O15	O	0.589712	-0.430056	0.660440
O16	O	-0.076931	-0.955366	0.135130
O17	O	0.256402	-0.622033	0.468463
O18	O	0.589736	-0.288700	0.801796
O19	O	-0.076959	-1.223843	0.120893
O20	O	0.256374	-0.890510	0.454226
O21	O	0.589707	-0.557176	0.787560
Cu22	Cu	-0.090978	-1.089601	0.128012
Cu23	Cu	0.242356	-0.756268	0.461345
Cu24	Cu	0.575689	-0.422935	0.794679
Cu25	Cu	0.090769	-1.089644	0.128002
Cu26	Cu	0.424103	-0.756311	0.461336
Cu27	Cu	0.757436	-0.422978	0.794669
O28	O	-0.076936	-1.082486	0.262250
O29	O	0.256397	-0.749153	0.595583
O30	O	0.589731	-0.415820	0.928916
C31	C	-0.000086	-0.921025	0.134462
C32	C	0.333247	-0.587691	0.467795
C33	C	0.666580	-0.254358	0.801129
C34	C	-0.000076	-0.818643	0.132474
C35	C	0.333258	-0.485310	0.465807
C36	C	0.666591	-0.151977	0.799141
N37	N	-0.218808	-1.089578	0.128018
N38	N	0.114525	-0.756244	0.461352
N39	N	0.447858	-0.422911	0.794685
C40	C	-0.000113	-1.096078	-0.040591
C41	C	0.333220	-0.762744	0.292742
C42	C	0.666553	-0.429411	0.626076
C43	C	-0.000114	-1.094089	-0.142972
C44	C	0.333220	-0.760756	0.190361
C45	C	0.666553	-0.427423	0.523694
C46	C	-0.592900	-1.089643	0.127999
C47	C	-0.259566	-0.756310	0.461332
C48	C	0.073767	-0.422977	0.794665
C49	C	-0.553721	-1.013752	0.203381
C50	C	-0.220388	-0.680418	0.536715
C51	C	0.112945	-0.347085	0.870048
C52	C	-0.446633	-1.013927	0.203657
C53	C	-0.113300	-0.680594	0.536990
C54	C	0.220033	-0.347261	0.870324
C55	C	-0.407309	-1.089610	0.128009
C56	C	-0.073975	-0.756277	0.461342
C57	C	0.259358	-0.422943	0.794675
C58	C	-0.446154	-1.185870	0.149184
C59	C	-0.112821	-0.852537	0.482518
C60	C	0.220512	-0.519204	0.815851
C61	C	-0.553276	-1.185444	0.149720
C62	C	-0.219942	-0.852111	0.483054
C63	C	0.113391	-0.518778	0.816387
C64	C	-0.553433	-1.070132	0.031218
C65	C	-0.220100	-0.736799	0.364551
C66	C	0.113234	-0.403466	0.697884
C67	C	-0.446305	-1.067927	0.031859
C68	C	-0.112972	-0.734593	0.365193
C69	C	0.220361	-0.401260	0.698526
C70	C	-0.302420	-1.089597	0.128012
C71	C	0.030913	-0.756264	0.461345
C72	C	0.364246	-0.422931	0.794679
C73	C	-0.697788	-1.089662	0.127997
C74	C	-0.364454	-0.756329	0.461330
C75	C	-0.031121	-0.422996	0.794664
N76	N	0.218600	-1.089675	0.127989
N77	N	0.551933	-0.756342	0.461322
N78	N	0.885267	-0.423009	0.794656
C79	C	-0.000120	-1.258221	0.121553
C80	C	0.333213	-0.924888	0.454886
C81	C	0.666547	-0.591554	0.788219
C82	C	-0.000124	-1.360602	0.123541
C83	C	0.333209	-1.027269	0.456874
C84	C	0.666542	-0.693936	0.790207
C85	C	-0.000118	-0.443748	0.125154
C86	C	0.333215	-0.110414	0.458488
C87	C	0.666548	0.222919	0.791821
C88	C	-0.000106	-0.548056	0.127187
C89	C	0.333227	-0.214722	0.460520
C90	C	0.666561	0.118611	0.793854
C91	C	-0.000096	-0.631192	0.128814
C92	C	0.333237	-0.297859	0.462147
C93	C	0.666571	0.035474	0.795481
C94	C	-0.000086	-0.735507	0.130847
C95	C	0.333248	-0.402173	0.464180
C96	C	0.666581	-0.068840	0.797514
C97	C	-0.000089	-1.086770	-0.517868
C98	C	0.333245	-0.753437	-0.184535
C99	C	0.666578	-0.420103	0.148799
C100	C	-0.000096	-1.088803	-0.413560
C101	C	0.333237	-0.755469	-0.080227
C102	C	0.666571	-0.422136	0.253107
C103	C	-0.000102	-1.090430	-0.330423
C104	C	0.333231	-0.757096	0.002910
C105	C	0.666565	-0.423763	0.336243
C106	C	-0.000108	-1.092463	-0.226109
C107	C	0.333226	-0.759129	0.107224
C108	C	0.666559	-0.425796	0.440558
C109	C	-0.000093	-1.083168	0.296606
C110	C	0.333240	-0.749835	0.629939
C111	C	0.666574	-0.416501	0.963272
C112	C	-0.000087	-1.085156	0.398987
C113	C	0.333247	-0.751823	0.732320
C114	C	0.666580	-0.418490	1.065653
H115	H	-0.420371	-0.942380	0.191017
H116	H	-0.087037	-0.609047	0.524350
H117	H	0.246296	-0.275714	0.857684
N118	N	-0.412666	-1.030464	0.298780
N119	N	-0.079333	-0.697131	0.632114
N120	N	0.254001	-0.363798	0.965447
H121	H	-0.342881	-1.030647	0.299356
H122	H	-0.009547	-0.697313	0.632689
H123	H	0.323786	-0.363980	0.966022
H124	H	-0.436185	-0.979570	0.345978
H125	H	-0.102852	-0.646237	0.679311
H126	H	0.230481	-0.312903	1.012644
H127	H	-0.578249	-1.202613	0.220307
H128	H	-0.244915	-0.869280	0.553640
H129	H	0.088418	-0.535946	0.886974
H130	H	-0.579502	-0.941973	0.190947
H131	H	-0.246169	-0.608640	0.524280
H132	H	0.087164	-0.275306	0.857614
N133	N	-0.587636	-1.262499	0.079782
N134	N	-0.254302	-0.929166	0.413115
N135	N	0.079031	-0.595832	0.746448
H136	H	-0.626434	-1.235483	0.031545
H137	H	-0.293100	-0.902150	0.364878
H138	H	0.040233	-0.568816	0.698211
H139	H	-0.533150	-1.296582	0.048795
H140	H	-0.199817	-0.963249	0.382129
H141	H	0.133517	-0.629915	0.715462
H142	H	-0.419540	-1.119600	-0.026878
H143	H	-0.086207	-0.786267	0.306456
H144	H	0.247126	-0.452933	0.639789
N145	N	-0.412423	-1.262479	0.078402
N146	N	-0.079089	-0.929145	0.411736
N147	N	0.254244	-0.595812	0.745069
H148	H	-0.371536	-1.235457	0.031818
H149	H	-0.038203	-0.902124	0.365151
H150	H	0.295131	-0.568791	0.698484
H151	H	-0.376089	-1.308959	0.110608
H152	H	-0.042756	-0.975626	0.443942
H153	H	0.290578	-0.642293	0.777275
N154	N	-0.589313	-1.030072	0.297985
N155	N	-0.255980	-0.696739	0.631318
N156	N	0.077354	-0.363405	0.964652
H157	H	-0.630710	-1.086408	0.292224
H158	H	-0.297377	-0.753075	0.625557
H159	H	0.035956	-0.419741	0.958890
H160	H	-0.535436	-1.040539	0.339804
H161	H	-0.202103	-0.707206	0.673138
H162	H	0.131231	-0.373872	1.006471
H163	H	-0.578768	-1.125475	-0.024881
H164	H	-0.245435	-0.792142	0.308452
H165	H	0.087898	-0.458808	0.641785
H166	H	-0.419314	-1.203446	0.218967
H167	H	-0.085981	-0.870112	0.552301
H168	H	0.247352	-0.536779	0.885634
N169	N	-0.589250	-0.979146	0.004312
N170	N	-0.255917	-0.645812	0.337646
N171	N	0.077416	-0.312479	0.670979
H172	H	-0.569763	-0.927176	0.052377
H173	H	-0.236430	-0.593842	0.385710
H174	H	0.096903	-0.260509	0.719044
H175	H	-0.563059	-0.968081	-0.057997
H176	H	-0.229725	-0.634748	0.275337
H177	H	0.103608	-0.301415	0.608670
N178	N	-0.412742	-0.974098	0.010603
N179	N	-0.079408	-0.640765	0.343936
N180	N	0.253925	-0.307432	0.677269
H181	H	-0.372435	-0.945752	0.063025
H182	H	-0.039102	-0.612419	0.396358
H183	H	0.294232	-0.279085	0.729692
H184	H	-0.375848	-0.981351	-0.048795
H185	H	-0.042514	-0.648017	0.284538
H186	H	0.290819	-0.314684	0.617871
