data_functionalizedCrystal
_audit_creation_method	'MofGen! by Chris Wilmer'
_symmetry_space_group_name_H-M	'P1'
_symmetry_Int_Tables_number	1
_symmetry_cell_setting	triclinic
loop_
_symmetry_equiv_pos_as_xyz
  x,y,z
_cell_length_a	11.892095
_cell_length_b	12.837943
_cell_length_c	12.837942
_cell_angle_alpha	94.828940
_cell_angle_beta	94.302569
_cell_angle_gamma	85.689438
loop_
_atom_site_label
_atom_site_type_symbol
_atom_site_fract_x
_atom_site_fract_y
_atom_site_fract_z
O1	O	0.093982	-1.408367	-0.266110
O2	O	0.093989	-1.105234	-0.252667
O3	O	0.093979	-1.250078	-0.107822
O4	O	0.093992	-1.263522	-0.410955
O5	O	-0.094028	-1.237999	-0.119879
O6	O	-0.094018	-1.093155	-0.264723
O7	O	-0.094025	-1.396288	-0.278167
Zn8	Zn	-0.123871	-1.242803	-0.273359
Zn9	Zn	0.123836	-1.258718	-0.257474
O10	O	-0.094014	-1.251443	-0.423011
C11	C	-0.000014	-1.060125	-0.254153
C12	C	-0.000011	-0.943710	-0.240609
N13	N	-0.292925	-1.231950	-0.284200
C14	C	-0.000024	-1.239497	-0.074781
C15	C	-0.000022	-1.225953	0.041634
C16	C	-0.529580	-1.345098	-0.171130
C17	C	-0.647922	-1.337519	-0.178716
C18	C	-0.647951	-1.209210	-0.306952
C19	C	-0.529610	-1.216788	-0.299366
C20	C	-0.470428	-1.284736	-0.231454
C21	C	-0.352085	-1.292319	-0.223874
C22	C	-0.352116	-1.164005	-0.352104
C23	C	-0.470458	-1.156426	-0.359690
N24	N	0.292889	-1.269579	-0.246626
C25	C	-0.000020	-1.441397	-0.276680
C26	C	-0.000015	-1.557812	-0.290224
C27	C	-0.000020	-0.718835	-0.403439
C28	C	-0.000019	-0.609453	-0.390717
C29	C	-0.000015	-0.615561	-0.202446
C30	C	-0.000017	-0.724943	-0.215167
C31	C	-0.000017	-0.776577	-0.315667
C32	C	-0.000011	-0.885961	-0.328387
C33	C	-0.000015	-0.892066	-0.140117
C34	C	-0.000014	-0.782684	-0.127395
C35	C	-0.000009	-1.262024	-0.456052
C36	C	-0.000004	-1.275569	-0.572467
C37	C	-0.000002	-1.388784	0.266509
C38	C	0.000000	-1.376062	0.375892
C39	C	-0.000007	-1.187791	0.369784
C40	C	-0.000009	-1.200512	0.260402
C41	C	-0.000008	-1.301011	0.208768
C42	C	-0.000019	-1.313731	0.099383
C43	C	-0.000018	-1.125461	0.093278
C44	C	-0.000016	-1.112740	0.202660
H45	H	-0.303901	-1.347647	-0.168579
H46	H	-0.000005	-0.939091	-0.068646
H47	H	-0.518656	-1.101102	-0.414980
F48	F	-0.000007	-0.773791	-0.510395
H49	H	-0.000024	-0.562444	-0.462191
F50	F	-0.710872	-1.401763	-0.114509
F51	F	-0.000008	-0.940913	-0.435345
F52	F	-0.710948	-1.136890	-0.379215
H53	H	-0.000108	-0.573495	-0.120630
F54	F	0.000011	-1.469482	0.437341
H55	H	-0.000026	-0.740628	-0.045572
F56	F	-0.466595	-1.417421	-0.098864
F57	F	-0.289151	-1.099766	-0.416313
H58	H	-0.000012	-1.030916	0.244716
F59	F	-0.000025	-1.420690	0.044432
H60	H	-0.000012	-1.470613	0.224468
F61	F	-0.000037	-1.032041	0.031817
H62	H	0.000004	-1.105969	0.411844
