data_functionalizedCrystal
_audit_creation_method	'MofGen! by Chris Wilmer'
_symmetry_space_group_name_H-M	'P1'
_symmetry_Int_Tables_number	1
_symmetry_cell_setting	triclinic
loop_
_symmetry_equiv_pos_as_xyz
  x,y,z
_cell_length_a	17.639929
_cell_length_b	17.639123
_cell_length_c	17.637464
_cell_angle_alpha	92.193406
_cell_angle_beta	92.143398
_cell_angle_gamma	92.177189
loop_
_atom_site_label
_atom_site_type_symbol
_atom_site_fract_x
_atom_site_fract_y
_atom_site_fract_z
Zn1	Zn	-0.215294	-1.124399	-0.631234
Zn2	Zn	-0.309263	-1.171963	-0.489714
Zn3	Zn	-0.205659	-1.020848	-0.480041
Zn4	Zn	-0.356766	-1.030438	-0.583572
O5	O	-0.271746	-1.086912	-0.546140
O6	O	-0.211912	-1.233274	-0.636457
O7	O	-0.271607	-1.167809	-0.385877
O8	O	-0.104372	-1.010666	-0.515996
O9	O	-0.280951	-1.268219	-0.532482
O10	O	-0.111451	-1.086744	-0.627077
O11	O	-0.195489	-1.056786	-0.378770
O12	O	-0.241551	-0.919555	-0.469780
O13	O	-0.361912	-1.027009	-0.692449
O14	O	-0.352568	-0.926600	-0.545843
O15	O	-0.257973	-1.096043	-0.727466
O16	O	-0.418130	-1.177108	-0.486266
O17	O	-0.453030	-1.073130	-0.555223
C18	C	-0.301169	-0.896483	-0.501590
C19	C	-0.313778	-0.815018	-0.482546
C20	C	-0.367403	-0.718383	-0.401514
C21	C	-0.355550	-0.794929	-0.419415
C22	C	-0.283846	-0.758562	-0.527803
C23	C	-0.295696	-0.682011	-0.509913
C24	C	-0.337474	-0.661928	-0.446767
C25	C	-0.265767	-0.625557	-0.555166
C26	C	-0.277613	-0.549013	-0.537275
C27	C	-0.319387	-0.528923	-0.474131
C28	C	-0.349320	-0.585384	-0.428876
C29	C	-0.223984	-0.645641	-0.618308
C30	C	-0.194056	-0.589187	-0.663562
C31	C	-0.205906	-0.512641	-0.645674
C32	C	-0.247680	-0.492551	-0.582530
C33	C	-0.175973	-0.456180	-0.690929
C34	C	-0.187819	-0.379635	-0.673038
C35	C	-0.259526	-0.416007	-0.564639
C36	C	-0.462174	-1.131338	-0.516643
C37	C	-0.543636	-1.150407	-0.504063
C38	C	-0.640262	-1.231442	-0.450487
C39	C	-0.563719	-1.213517	-0.462311
C40	C	-0.600096	-1.105199	-0.534012
C41	C	-0.676644	-1.123117	-0.522197
C42	C	-0.696721	-1.186239	-0.480433
C43	C	-0.733102	-1.077914	-0.552144
C44	C	-0.809644	-1.095828	-0.540327
C45	C	-0.829727	-1.158945	-0.498563
C46	C	-0.773262	-1.204153	-0.468616
C47	C	-0.713024	-1.014789	-0.593903
C48	C	-0.769482	-0.969586	-0.623850
C49	C	-0.846025	-0.987503	-0.612037
C50	C	-0.866108	-1.050620	-0.570273
C51	C	-0.902490	-0.942295	-0.641984
C52	C	-0.979031	-0.960210	-0.630167
C53	C	-0.942650	-1.068535	-0.558456
C54	C	-0.080574	-1.042330	-0.575774
C55	C	0.000892	-1.023331	-0.588403
C56	C	-0.316316	-1.057290	-0.737292
C57	C	-0.335310	-1.044667	-0.818750
C58	C	-0.242202	-0.278085	-0.590857
C59	C	-0.229597	-0.359552	-0.609892
C60	C	-0.416191	-0.990938	-0.915332
C61	C	-0.398337	-1.002803	-0.838792
C62	C	-0.290113	-1.074687	-0.875247
C63	C	-0.307960	-1.062831	-0.951791
C64	C	-0.370999	-1.020955	-0.971827
C65	C	-0.262768	-1.092848	-1.008286
C66	C	-0.280611	-1.080989	-1.084824
C67	C	-0.343646	-1.039114	-1.104866
C68	C	-0.388842	-1.009096	-1.048365
C69	C	-0.199726	-1.134719	-0.988249
C70	C	-0.154535	-1.164736	-1.044744
C71	C	-0.172381	-1.152882	-1.121283
C72	C	-0.235416	-1.111006	-1.141326
C73	C	-0.127185	-1.182899	-1.177785
C74	C	-0.145028	-1.171041	-1.254322
C75	C	-0.253259	-1.099148	-1.217863
C76	C	-0.227289	-1.116448	-0.355750
C77	C	-0.208067	-1.129165	-0.274358
H78	H	-0.329018	-0.466594	-0.459556
H79	H	-0.383348	-0.569033	-0.377462
N80	N	-0.912282	-1.178264	-0.485812
H81	H	-0.940337	-1.188214	-0.536397
H82	H	-0.916368	-1.225094	-0.454785
H83	H	-0.440179	-0.975003	-1.064679
N84	N	-0.096287	-1.203412	-1.315262
H85	H	-0.053647	-1.231741	-1.290956
H86	H	-0.128288	-1.239365	-1.350329
H87	H	-0.304596	-1.065054	-1.234177
H88	H	-0.141951	-0.472543	-0.742337
H89	H	-0.379925	-0.840895	-0.382560
H90	H	-0.789609	-1.255559	-0.434616
H91	H	-0.238785	-1.108780	-0.858922
H92	H	-0.467528	-0.956844	-0.931646
N93	N	-0.238805	-0.780227	-0.595919
H94	H	-0.235847	-0.837284	-0.600392
H95	H	-0.264584	-0.761431	-0.643324
H96	H	-0.401431	-0.702032	-0.350100
N97	N	-0.180484	-1.147512	-0.905697
H98	H	-0.181887	-1.203791	-0.896939
H99	H	-0.127997	-1.125127	-0.891953
H100	H	-0.435131	-0.978339	-0.792792
N101	N	-1.039928	-0.911454	-0.662464
H102	H	-1.037038	-0.911556	-0.719551
H103	H	-1.091431	-0.932409	-0.648582
H104	H	-0.293554	-0.399655	-0.513225
H105	H	-0.214338	-0.707970	-0.632871
H106	H	-0.160037	-0.605549	-0.714973
N107	N	-0.086560	-1.209918	-1.023125
H108	H	-0.049785	-1.177147	-0.989661
H109	H	-0.103784	-1.255738	-0.994731
N110	N	-0.155538	-0.318739	-0.721842
H111	H	-0.127277	-0.343076	-0.764560
H112	H	-0.198238	-0.288716	-0.743654
N113	N	-0.964300	-1.136616	-0.513405
H114	H	-0.992769	-1.119561	-0.467548
H115	H	-0.997694	-1.173337	-0.546310
N116	N	-0.059205	-1.228077	-1.156171
H117	H	-0.054762	-1.231038	-1.099112
H118	H	-0.065666	-1.281009	-1.180027
N119	N	-0.362887	-1.026319	-1.187418
H120	H	-0.372892	-1.076882	-1.215529
H121	H	-0.409662	-0.995210	-1.191474
N122	N	-0.661935	-1.299524	-0.405447
H123	H	-0.643142	-1.346986	-0.431184
H124	H	-0.638190	-1.293124	-0.352479
N125	N	-0.502821	-1.262271	-0.430003
H126	H	-0.527158	-1.304973	-0.401751
H127	H	-0.472742	-1.284099	-0.472696
N128	N	-0.880822	-0.874217	-0.687023
H129	H	-0.904564	-0.880551	-0.739999
H130	H	-0.899620	-0.826792	-0.661226
N131	N	-0.578430	-1.037125	-0.579058
H132	H	-0.602175	-1.043465	-0.632032
H133	H	-0.597227	-0.989696	-0.553265
N134	N	-0.630468	-0.995464	-0.606645
H135	H	-0.621646	-0.996774	-0.662924
H136	H	-0.616756	-0.942995	-0.584164
N137	N	-0.747825	-0.901503	-0.668887
H138	H	-0.690769	-0.897011	-0.671828
H139	H	-0.771619	-0.907882	-0.721836
