data_functionalizedCrystal
_audit_creation_method	'MofGen! by Chris Wilmer'
_symmetry_space_group_name_H-M	'P1'
_symmetry_Int_Tables_number	1
_symmetry_cell_setting	triclinic
loop_
_symmetry_equiv_pos_as_xyz
  x,y,z
_cell_length_a	8.559649
_cell_length_b	14.519731
_cell_length_c	12.996460
_cell_angle_alpha	89.998729
_cell_angle_beta	89.994340
_cell_angle_gamma	76.733759
loop_
_atom_site_label
_atom_site_type_symbol
_atom_site_fract_x
_atom_site_fract_y
_atom_site_fract_z
O1	O	2.120040	-0.031286	-0.085555
O2	O	1.654978	0.016331	-0.085560
O3	O	1.899822	-0.142598	-0.085548
O4	O	1.875196	0.127644	-0.085567
O5	O	1.899790	-0.142588	0.085586
O6	O	1.654947	0.016342	0.085573
O7	O	2.120008	-0.031275	0.085579
Cu8	Cu	1.887474	-0.007466	0.101202
Cu9	Cu	1.887512	-0.007478	-0.101184
O10	O	1.875165	0.127654	0.085567
C11	C	1.595443	0.019945	0.000006
C12	C	1.418095	0.030686	0.000004
C13	C	1.898652	-0.176870	0.000019
C14	C	1.895194	-0.279002	0.000019
C15	C	1.892385	-0.361944	0.000017
C16	C	1.888874	-0.466001	0.000009
C17	C	1.886088	-0.548940	0.000002
C18	C	1.882578	-0.653003	-0.000003
C19	C	2.179543	-0.034889	0.000010
C20	C	2.356891	-0.045630	0.000005
C21	C	1.876334	0.161925	-0.000003
C22	C	1.879792	0.264057	-0.000010
N23	N	1.887460	-0.007459	0.243549
N24	N	1.887539	-0.007494	-0.243531
C25	C	1.887467	-0.007457	0.336655
C26	C	1.887482	-0.007464	0.453460
C27	C	1.887502	-0.007476	0.546558
C28	C	1.887519	-0.007482	0.663371
H29	H	2.440177	-0.119191	0.000008
H30	H	2.334818	0.104242	-0.000009
