data_functionalizedCrystal
_audit_creation_method	'MofGen! by Chris Wilmer'
_symmetry_space_group_name_H-M	'P1'
_symmetry_Int_Tables_number	1
_symmetry_cell_setting	triclinic
loop_
_symmetry_equiv_pos_as_xyz
  x,y,z
_cell_length_a	19.077105
_cell_length_b	29.839131
_cell_length_c	19.077569
_cell_angle_alpha	92.326321
_cell_angle_beta	94.700723
_cell_angle_gamma	87.737628
loop_
_atom_site_label
_atom_site_type_symbol
_atom_site_fract_x
_atom_site_fract_y
_atom_site_fract_z
Zn1	Zn	1.093625	-0.195626	0.441828
Zn2	Zn	1.426958	0.137707	0.775162
Zn3	Zn	1.760292	0.471041	1.108495
Zn4	Zn	1.088771	-0.273652	0.323930
Zn5	Zn	1.422104	0.059681	0.657263
Zn6	Zn	1.755438	0.393015	0.990596
Zn7	Zn	0.971007	-0.195633	0.319224
Zn8	Zn	1.304341	0.137701	0.652557
Zn9	Zn	1.637674	0.471034	0.985891
Zn10	Zn	0.975670	-0.267822	0.437050
Zn11	Zn	1.309004	0.065511	0.770383
Zn12	Zn	1.642337	0.398844	1.103717
O13	O	1.032268	-0.233183	0.380508
O14	O	1.365602	0.100150	0.713841
O15	O	1.698935	0.433483	1.047175
O16	O	1.191630	-0.208413	0.430158
O17	O	1.524964	0.124920	0.763491
O18	O	1.858297	0.458253	1.096825
O19	O	1.069167	-0.265745	0.224654
O20	O	1.402500	0.067588	0.557987
O21	O	1.735833	0.400922	0.891321
O22	O	0.987353	-0.132766	0.335518
O23	O	1.320686	0.200568	0.668851
O24	O	1.654019	0.533901	1.002185
O25	O	1.188064	-0.265739	0.343538
O26	O	1.521397	0.067595	0.676872
O27	O	1.854731	0.400928	1.010205
O28	O	1.077440	-0.132761	0.425595
O29	O	1.410773	0.200572	0.758928
O30	O	1.744106	0.533906	1.092262
O31	O	0.982646	-0.208424	0.221196
O32	O	1.315979	0.124909	0.554530
O33	O	1.649313	0.458242	0.887863
O34	O	0.872977	-0.202772	0.330885
O35	O	1.206310	0.130562	0.664218
O36	O	1.539643	0.463895	0.997551
O37	O	0.995300	-0.255803	0.536336
O38	O	1.328633	0.077530	0.869669
O39	O	1.661967	0.410864	1.203002
O40	O	0.876403	-0.255809	0.417451
O41	O	1.209736	0.077524	0.750784
O42	O	1.543069	0.410857	1.084118
O43	O	1.081961	-0.202761	0.539846
O44	O	1.415294	0.130573	0.873180
O45	O	1.748628	0.463906	1.206513
O46	O	1.073688	-0.335745	0.338905
O47	O	1.407021	-0.002411	0.672238
O48	O	1.740355	0.330922	1.005572
O49	O	0.990593	-0.331462	0.422014
O50	O	1.323927	0.001872	0.755348
O51	O	1.657260	0.335205	1.088681
C52	C	0.849111	-0.228659	0.373139
C53	C	1.182444	0.104674	0.706472
C54	C	1.515778	0.438008	1.039806
C55	C	0.770756	-0.226734	0.370003
C56	C	1.104090	0.106599	0.703337
C57	C	1.437423	0.439933	1.036670
C58	C	0.735744	-0.253488	0.413530
C59	C	1.069077	0.079845	0.746863
C60	C	1.402411	0.413178	1.080197
C61	C	0.662122	-0.251674	0.410587
C62	C	0.995455	0.081660	0.743920
C63	C	1.328788	0.414993	1.077254
C64	C	0.623512	-0.223106	0.364113
C65	C	0.956846	0.110227	0.697447
C66	C	1.290179	0.443560	1.030780
C67	C	0.658529	-0.196349	0.320585
C68	C	0.991863	0.136985	0.653919
C69	C	1.325196	0.470318	0.987252
C70	C	0.732151	-0.198162	0.323532
C71	C	1.065484	0.135172	0.656866
C72	C	1.398817	0.468505	0.990199
C73	C	0.403135	-0.214716	0.350478
C74	C	0.736468	0.118617	0.683811
C75	C	1.069802	0.451950	1.017144
C76	C	0.329509	-0.212907	0.347532
C77	C	0.662842	0.120427	0.680866
C78	C	0.996175	0.453760	1.014199
C79	C	0.333106	-0.268231	0.437535
C80	C	0.666439	0.065102	0.770869
C81	C	0.999772	0.398436	1.104202
C82	C	0.406728	-0.270043	0.440475
C83	C	0.740062	0.063290	0.773809
C84	C	1.073395	0.396623	1.107142
C85	C	0.441739	-0.243284	0.396950
C86	C	0.775072	0.090049	0.730283
C87	C	1.108406	0.423383	1.063616
N88	N	0.548258	-0.221252	0.361103
N89	N	0.881591	0.112082	0.694436
N90	N	1.214925	0.445415	1.027769
N91	N	0.516992	-0.245137	0.399965
N92	N	0.850326	0.088197	0.733298
N93	N	1.183659	0.421530	1.066631
C94	C	1.032140	-0.349904	0.380468
C95	C	1.365473	-0.016570	0.713801
C96	C	1.698806	0.316763	1.047135
C97	C	1.032150	-0.399838	0.380477
C98	C	1.365483	-0.066505	0.713810
C99	C	1.698817	0.266829	1.047144
C100	C	1.075620	-0.711701	0.337302
C101	C	1.408954	-0.378368	0.670636
C102	C	1.742287	-0.045035	1.003969
C103	C	1.075709	-0.899376	0.337333
C104	C	1.409042	-0.566043	0.670667
C105	C	1.742375	-0.232709	1.004000
O106	O	1.112566	-0.925527	0.300594
O107	O	1.445900	-0.592193	0.633927
O108	O	1.779233	-0.258860	0.967260
N109	N	1.032417	-0.920628	0.380567
N110	N	1.365750	-0.587294	0.713900
N111	N	1.699083	-0.253961	1.047234
C112	C	0.989103	-0.894957	0.423800
C113	C	1.322437	-0.561624	0.757133
C114	C	1.655770	-0.228291	1.090466
O115	O	0.952288	-0.917340	0.460579
O116	O	1.285622	-0.584006	0.793912
O117	O	1.618955	-0.250673	1.127245
C118	C	0.989019	-0.707284	0.423772
C119	C	1.322353	-0.373951	0.757105
C120	C	1.655686	-0.040617	1.090439
C121	C	1.032309	-0.686035	0.380530
C122	C	1.365642	-0.352702	0.713863
C123	C	1.698975	-0.019368	1.047197
C124	C	1.118907	-0.690452	0.294064
C125	C	1.452240	-0.357119	0.627398
C126	C	1.785574	-0.023786	0.960731
C127	C	1.118882	-0.643536	0.294054
C128	C	1.452215	-0.310203	0.627388
C129	C	1.785548	0.023130	0.960721
C130	C	1.075570	-0.617870	0.337282
C131	C	1.408903	-0.284536	0.670615
C132	C	1.742237	0.048797	1.003949
C133	C	1.032283	-0.639119	0.380520
C134	C	1.365617	-0.305786	0.713853
C135	C	1.698950	0.027548	1.047187
C136	C	0.945710	-0.681615	0.467008
C137	C	1.279043	-0.348281	0.800341
C138	C	1.612377	-0.014948	1.133675
C139	C	0.945694	-0.634693	0.466998
C140	C	1.279027	-0.301360	0.800332
C141	C	1.612361	0.031973	1.133665
C142	C	0.988984	-0.613444	0.423757
C143	C	1.322317	-0.280111	0.757090
C144	C	1.655650	0.053222	1.090423
C145	C	0.988946	-0.566537	0.423738
C146	C	1.322280	-0.233203	0.757071
C147	C	1.655613	0.100130	1.090404
N148	N	1.032238	-0.545285	0.380504
N149	N	1.365572	-0.211952	0.713837
N150	N	1.698905	0.121382	1.047170
C151	C	1.075550	-0.570952	0.337276
C152	C	1.408883	-0.237618	0.670609
C153	C	1.742217	0.095715	1.003943
C154	C	0.989149	-0.993489	0.423810
C155	C	1.322483	-0.660156	0.757143
C156	C	1.655816	-0.326822	1.090477
C157	C	0.989169	-1.040407	0.423816
C158	C	1.322503	-0.707074	0.757150
C159	C	1.655836	-0.373741	1.090483
C160	C	1.075776	-1.044822	0.337351
C161	C	1.409109	-0.711489	0.670684
C162	C	1.742442	-0.378156	1.004017
C163	C	1.075752	-0.997903	0.337341
C164	C	1.409085	-0.664570	0.670675
C165	C	1.742418	-0.331237	1.004008
C166	C	1.032441	-0.972237	0.380576
C167	C	1.365774	-0.638904	0.713910
C168	C	1.699108	-0.305571	1.047243
C169	C	1.075493	-0.472425	0.337258
C170	C	1.408826	-0.139091	0.670591
C171	C	1.742160	0.194242	1.003924
C172	C	1.075462	-0.425505	0.337249
C173	C	1.408795	-0.092171	0.670583
C174	C	1.742128	0.241162	1.003916
C175	C	0.988858	-0.421093	0.423717
C176	C	1.322192	-0.087760	0.757051
C177	C	1.655525	0.245573	1.090384
C178	C	0.988887	-0.468010	0.423723
C179	C	1.322220	-0.134676	0.757057
C180	C	1.655553	0.198657	1.090390
C181	C	1.032210	-0.493674	0.380491
C182	C	1.365543	-0.160341	0.713825
C183	C	1.698876	0.172992	1.047158
O184	O	0.952114	-0.540358	0.460464
O185	O	1.285447	-0.207025	0.793797
O186	O	1.618780	0.126309	1.127130
O187	O	1.112371	-0.548561	0.300514
O188	O	1.445704	-0.215228	0.633847
O189	O	1.779038	0.118106	0.967181
C190	C	1.075646	-0.758617	0.337312
C191	C	1.408979	-0.425284	0.670646
C192	C	1.742312	-0.091951	1.003979
C193	C	1.032359	-0.779867	0.380550
C194	C	1.365693	-0.446533	0.713884
C195	C	1.699026	-0.113200	1.047217
C196	C	0.989047	-0.754200	0.423778
C197	C	1.322381	-0.420867	0.757111
C198	C	1.655714	-0.087533	1.090445
C199	C	1.032379	-0.826785	0.380556
C200	C	1.365712	-0.493451	0.713890
C201	C	1.699046	-0.160118	1.047223
C202	C	1.075691	-0.852451	0.337329
C203	C	1.409024	-0.519118	0.670662
C204	C	1.742358	-0.185785	1.003995
C205	C	1.118983	-0.831200	0.294095
C206	C	1.452316	-0.497866	0.627428
C207	C	1.785649	-0.164533	0.960761
C208	C	1.118957	-0.784284	0.294085
C209	C	1.452291	-0.450951	0.627418
C210	C	1.785624	-0.117617	0.960751
C211	C	0.945756	-0.775451	0.467012
C212	C	1.279089	-0.442118	0.800345
C213	C	1.612422	-0.108785	1.133679
C214	C	0.945784	-0.822368	0.467018
C215	C	1.279117	-0.489034	0.800351
C216	C	1.612451	-0.155701	1.133685
C217	C	0.989096	-0.848034	0.423790
C218	C	1.322429	-0.514701	0.757123
C219	C	1.655762	-0.181367	1.090457
C220	C	1.216141	-0.237725	0.387906
C221	C	1.549474	0.095608	0.721239
C222	C	1.882808	0.428941	1.054573
C223	C	1.294496	-0.239661	0.391059
C224	C	1.627830	0.093672	0.724392
C225	C	1.961163	0.427006	1.057725
C226	C	1.039692	-0.228631	0.564385
C227	C	1.373025	0.104702	0.897719
C228	C	1.706359	0.438036	1.231052
C229	C	1.042856	-0.226691	0.642743
C230	C	1.376189	0.106642	0.976076
C231	C	1.709522	0.439976	1.309410
C232	C	1.032417	-0.116007	0.380564
C233	C	1.365751	0.217326	0.713898
C234	C	1.699084	0.550659	1.047231
C235	C	1.032481	-0.066074	0.380589
C236	C	1.365814	0.267260	0.713922
C237	C	1.699148	0.600593	1.047255
C238	C	1.024914	-0.237686	0.197348
C239	C	1.358247	0.095647	0.530681
C240	C	1.691581	0.428980	0.864014
C241	C	1.021887	-0.239503	0.118996
C242	C	1.355221	0.093830	0.452329
C243	C	1.688554	0.427163	0.785663
C244	C	0.999223	-0.253394	0.677729
C245	C	1.332557	0.079940	1.011062
C246	C	1.665890	0.413273	1.344396
C247	C	1.002202	-0.251571	0.751354
C248	C	1.335535	0.081762	1.084688
C249	C	1.668868	0.415096	1.418021
C250	C	1.048809	-0.223043	0.789993
C251	C	1.382143	0.110290	1.123326
C252	C	1.715476	0.443624	1.456659
C253	C	1.092447	-0.196339	0.755002
C254	C	1.425780	0.136994	1.088335
C255	C	1.759113	0.470328	1.421668
C256	C	1.089471	-0.198164	0.681378
C257	C	1.422805	0.135169	1.014711
C258	C	1.756138	0.468502	1.348044
C259	C	1.062549	-0.214625	1.010381
C260	C	1.395883	0.118709	1.343714
C261	C	1.729216	0.452042	1.677048
C262	C	1.065520	-0.212800	1.084010
C263	C	1.398853	0.120533	1.417343
C264	C	1.732186	0.453866	1.750677
C265	C	0.975275	-0.268033	1.080358
C266	C	1.308609	0.065300	1.413691
C267	C	1.641942	0.398633	1.747024
C268	C	0.972301	-0.269854	1.006732
C269	C	1.305634	0.063479	1.340066
C270	C	1.638968	0.396813	1.673399
C271	C	1.015941	-0.243152	0.971748
C272	C	1.349274	0.090181	1.305081
C273	C	1.682608	0.423515	1.638415
N274	N	1.051853	-0.221178	0.865250
N275	N	1.385187	0.112155	1.198583
N276	N	1.718520	0.445489	1.531916
N277	N	1.012900	-0.245019	0.896492
N278	N	1.346233	0.088314	1.229826
N279	N	1.679567	0.421647	1.563159
H280	H	0.627088	-0.173087	0.282749
H281	H	0.960421	0.160247	0.616082
H282	H	1.293755	0.493580	0.949415
H283	H	0.633618	-0.273460	0.446030
H284	H	0.966952	0.059873	0.779363
H285	H	1.300285	0.393206	1.112697
H286	H	0.438159	-0.293307	0.478317
H287	H	0.771493	0.040027	0.811651
H288	H	1.104826	0.373360	1.144984
H289	H	0.304592	-0.290016	0.472972
H290	H	0.637925	0.043317	0.806306
H291	H	0.971259	0.376650	1.139639
Br292	Br	0.930364	-0.958663	0.482492
Br293	Br	1.263698	-0.625330	0.815825
Br294	Br	1.597031	-0.291996	1.149159
H295	H	1.110713	-0.408205	0.302034
H296	H	1.444046	-0.074872	0.635367
H297	H	1.777380	0.258461	0.968701
Br298	Br	0.788135	-0.292264	0.476599
Br299	Br	1.121469	0.041070	0.809932
Br300	Br	1.454802	0.374403	1.143266
H301	H	0.760657	-0.176373	0.288092
H302	H	1.093990	0.156961	0.621425
H303	H	1.427323	0.490294	0.954759
Br304	Br	1.155707	-0.157625	0.807438
Br305	Br	1.489040	0.175708	1.140772
Br306	Br	1.822373	0.509041	1.474105
Br307	Br	1.134289	-0.507248	0.278585
Br308	Br	1.467622	-0.173915	0.611919
Br309	Br	1.800956	0.159418	0.945252
Br310	Br	0.916055	-0.304271	1.127840
Br311	Br	1.249388	0.029062	1.461174
Br312	Br	1.582722	0.362396	1.794507
Br313	Br	0.450641	-0.178398	0.291411
Br314	Br	0.783974	0.154936	0.624744
Br315	Br	1.117307	0.488269	0.958077
Br316	Br	0.909039	-0.308568	0.954300
Br317	Br	1.242373	0.024765	1.287633
Br318	Br	1.575706	0.358099	1.620966
Br319	Br	1.134553	-1.079665	0.278682
Br320	Br	1.467887	-0.746331	0.612015
Br321	Br	1.801220	-0.412998	0.945349
Br322	Br	1.177645	-0.614706	0.235376
Br323	Br	1.510979	-0.281373	0.568710
Br324	Br	1.844312	0.051961	0.902043
Br325	Br	0.277110	-0.174139	0.284449
Br326	Br	0.610443	0.159194	0.617783
Br327	Br	0.943776	0.492527	0.951116
H328	H	1.154208	-0.766987	0.258873
H329	H	1.487541	-0.433653	0.592207
H330	H	1.820875	-0.100320	0.925540
H331	H	1.103471	-0.189565	1.115467
H332	H	1.436804	0.143768	1.448801
H333	H	1.770138	0.477101	1.782134
H334	H	0.953639	-0.485311	0.458937
H335	H	1.286972	-0.151978	0.792270
H336	H	1.620306	0.181355	1.125603
Br337	Br	0.935961	-0.292109	0.625298
Br338	Br	1.269295	0.041224	0.958632
Br339	Br	1.602628	0.374558	1.291965
Br340	Br	1.121773	-0.178385	0.962911
Br341	Br	1.455107	0.154949	1.296245
Br342	Br	1.788440	0.488282	1.629578
Br343	Br	1.148694	-0.161927	0.633896
Br344	Br	1.482027	0.171407	0.967229
Br345	Br	1.815361	0.504740	1.300562
Br346	Br	1.177697	-0.725277	0.235392
Br347	Br	1.511030	-0.391944	0.568725
Br348	Br	1.844364	-0.058610	0.902058
Br349	Br	0.886964	-0.710440	0.525705
Br350	Br	1.220297	-0.377107	0.859039
Br351	Br	1.553631	-0.043774	1.192372
H352	H	1.111002	-0.980605	0.302130
H353	H	1.444335	-0.647272	0.635464
H354	H	1.777669	-0.313939	0.968797
H355	H	0.953912	-1.057704	0.459021
H356	H	1.287245	-0.724371	0.792355
H357	H	1.620578	-0.391037	1.125688
Br358	Br	0.886915	-0.599864	0.525681
Br359	Br	1.220248	-0.266530	0.859014
Br360	Br	1.553582	0.066803	1.192348
H361	H	1.154247	-0.852106	0.258895
H362	H	1.487580	-0.518772	0.592228
H363	H	1.820913	-0.185439	0.925562
H364	H	0.910526	-0.839664	0.502230
H365	H	1.243860	-0.506331	0.835563
H366	H	1.577193	-0.172997	1.168897
Br367	Br	0.930084	-0.386251	0.482384
Br368	Br	1.263417	-0.052918	0.815717
Br369	Br	1.596750	0.280415	1.149050
H370	H	0.910487	-0.754557	0.502214
H371	H	1.243820	-0.421224	0.835548
H372	H	1.577154	-0.087890	1.168881
Br373	Br	0.942992	-0.287818	0.798833
Br374	Br	1.276325	0.045515	1.132167
Br375	Br	1.609659	0.378849	1.465500
