data_functionalizedCrystal
_audit_creation_method	'MofGen! by Chris Wilmer'
_symmetry_space_group_name_H-M	'P1'
_symmetry_Int_Tables_number	1
_symmetry_cell_setting	triclinic
loop_
_symmetry_equiv_pos_as_xyz
  x,y,z
_cell_length_a	10.065918
_cell_length_b	16.992694
_cell_length_c	16.974813
_cell_angle_alpha	92.975366
_cell_angle_beta	103.455396
_cell_angle_gamma	80.737870
loop_
_atom_site_label
_atom_site_type_symbol
_atom_site_fract_x
_atom_site_fract_y
_atom_site_fract_z
O1	O	0.133260	-1.052249	0.180554
O2	O	0.633260	-0.552249	0.680554
O3	O	0.133095	-0.823950	0.178699
O4	O	0.633095	-0.323950	0.678699
O5	O	0.120365	-0.943306	0.063685
O6	O	0.620365	-0.443306	0.563685
O7	O	0.145990	-0.932893	0.295569
O8	O	0.645990	-0.432893	0.795569
O9	O	-0.109076	-0.922569	0.041461
O10	O	0.390924	-0.422569	0.541461
O11	O	-0.096345	-0.803214	0.156476
O12	O	0.403655	-0.303214	0.656476
O13	O	-0.096180	-1.031512	0.158331
O14	O	0.403820	-0.531512	0.658331
Zn15	Zn	-0.132691	-0.914071	0.153875
Zn16	Zn	0.367309	-0.414071	0.653875
Zn17	Zn	0.169606	-0.941392	0.183155
Zn18	Zn	0.669606	-0.441392	0.683155
O19	O	-0.083450	-0.912157	0.273345
O20	O	0.416550	-0.412157	0.773345
C21	C	0.018116	-0.784349	0.165196
C22	C	0.518116	-0.284349	0.665196
C23	C	0.017343	-0.697242	0.158062
C24	C	0.517343	-0.197242	0.658062
C25	C	0.002354	-0.932156	0.022765
C26	C	0.502354	-0.432156	0.522765
C27	C	-0.007452	-0.929818	-0.066053
C28	C	0.492548	-0.429818	0.433947
N29	N	-0.339002	-0.895430	0.133891
N30	N	0.160998	-0.395430	0.633891
C31	C	-0.560973	-0.920568	0.160822
C32	C	-0.060973	-0.420568	0.660822
C33	C	-0.402108	-0.934907	0.176209
C34	C	0.097892	-0.434907	0.676209
N35	N	0.375916	-0.960038	0.203133
N36	N	0.875916	-0.460038	0.703133
C37	C	0.018802	-1.071114	0.171834
C38	C	0.518802	-0.571114	0.671834
C39	C	0.019584	-1.158221	0.178969
C40	C	0.519584	-0.658221	0.678969
C41	C	0.024951	-0.647616	0.226914
C42	C	0.524951	-0.147616	0.726914
C43	C	0.024191	-0.565768	0.220203
C44	C	0.524191	-0.065768	0.720203
C45	C	0.015832	-0.533549	0.144639
C46	C	0.515832	-0.033549	0.644639
C47	C	0.008220	-0.583181	0.075781
C48	C	0.508220	-0.083181	0.575781
C49	C	0.008970	-0.665027	0.082492
C50	C	0.508970	-0.165027	0.582492
C51	C	0.012722	-0.289699	0.116823
C52	C	0.512722	0.210301	0.616823
C53	C	0.011976	-0.207848	0.110117
C54	C	0.511976	0.292152	0.610117
C55	C	0.027944	-0.190440	0.254539
C56	C	0.527944	0.309560	0.754539
C57	C	0.028703	-0.272288	0.261245
C58	C	0.528703	0.227712	0.761245
C59	C	0.021083	-0.321913	0.192386
C60	C	0.521083	0.178087	0.692386
N61	N	0.015059	-0.449887	0.137777
N62	N	0.515059	0.050113	0.637777
N63	N	0.021846	-0.405572	0.199248
N64	N	0.521846	0.094428	0.699248
C65	C	0.113009	-0.940025	-0.095662
C66	C	0.613009	-0.440025	0.404338
C67	C	0.103791	-0.937823	-0.179116
C68	C	0.603791	-0.437823	0.320884
C69	C	-0.025888	-0.925419	-0.232961
C70	C	0.474112	-0.425419	0.267039
C71	C	-0.146358	-0.915209	-0.203347
C72	C	0.353642	-0.415209	0.296653
C73	C	-0.137139	-0.917406	-0.119894
C74	C	0.362861	-0.417406	0.380106
C75	C	-0.066872	-0.917632	-0.483849
C76	C	0.433128	-0.417632	0.016151
C77	C	-0.076082	-0.915439	-0.567307
C78	C	0.423918	-0.415439	-0.067307
C79	C	0.174068	-0.938051	-0.543070
C80	C	0.674068	-0.438051	-0.043070
C81	C	0.183276	-0.940251	-0.459617
C82	C	0.683276	-0.440251	0.040383
C83	C	0.062807	-0.930037	-0.430010
C84	C	0.562807	-0.430037	0.069990
N85	N	-0.035313	-0.923171	-0.318265
N86	N	0.464687	-0.423171	0.181735
N87	N	0.072233	-0.932280	-0.344707
N88	N	0.572233	-0.432280	0.155293
C89	C	0.034564	-0.923307	0.314265
C90	C	0.534564	-0.423307	0.814265
C91	C	0.044379	-0.925645	0.403084
C92	C	0.544379	-0.425645	0.903084
H93	H	-0.624554	-0.876163	0.113203
H94	H	-0.124554	-0.376163	0.613203
H95	H	0.201883	-0.946138	-0.203218
H96	H	0.701883	-0.446138	0.296782
H97	H	0.006516	-0.330095	0.060753
H98	H	0.506516	0.169905	0.560753
H99	H	-0.402575	-0.851020	0.086272
H100	H	0.097425	-0.351020	0.586272
H101	H	0.288875	-0.950352	-0.415781
H102	H	0.788875	-0.450352	0.084219
H103	H	-0.338533	-0.979320	0.223825
H104	H	0.161467	-0.479320	0.723825
H105	H	0.272147	-0.946365	-0.567185
H106	H	0.772147	-0.446365	-0.067185
H107	H	-0.560504	-1.004449	0.250746
H108	H	-0.060504	-0.504449	0.750746
H109	H	0.218608	-0.950129	-0.051826
H110	H	0.718608	-0.450129	0.448174
H111	H	-0.164967	-0.909331	-0.459755
H112	H	0.335033	-0.409331	0.040245
H113	H	0.031759	-0.673842	0.288446
H114	H	0.531759	-0.173842	0.788446
H115	H	0.002776	-0.705433	0.026425
H116	H	0.502776	-0.205433	0.526425
H117	H	-0.181688	-0.905334	-0.611147
H118	H	0.318312	-0.405334	-0.111147
H119	H	0.005170	-0.181619	0.048581
H120	H	0.505170	0.318381	0.548581
H121	H	0.030388	-0.525365	0.276270
H122	H	0.530388	-0.025365	0.776270
H123	H	0.035525	-0.298516	0.322778
H124	H	0.535525	0.201484	0.822778
H125	H	0.034145	-0.150027	0.310599
H126	H	0.534145	0.349973	0.810599
H127	H	0.001394	-0.556940	0.014253
H128	H	0.501394	-0.056940	0.514253
H129	H	-0.251946	-0.905106	-0.247194
H130	H	0.248054	-0.405106	0.252806
H131	H	-0.235231	-0.909084	-0.095788
H132	H	0.264769	-0.409084	0.404212
