data_functionalizedCrystal
_audit_creation_method	'MofGen! by Chris Wilmer'
_symmetry_space_group_name_H-M	'P1'
_symmetry_Int_Tables_number	1
_symmetry_cell_setting	triclinic
loop_
_symmetry_equiv_pos_as_xyz
  x,y,z
_cell_length_a	21.295420
_cell_length_b	21.295417
_cell_length_c	12.594509
_cell_angle_alpha	89.967280
_cell_angle_beta	90.021167
_cell_angle_gamma	89.973890
loop_
_atom_site_label
_atom_site_type_symbol
_atom_site_fract_x
_atom_site_fract_y
_atom_site_fract_z
Zn1	Zn	0.962345	0.250620	0.601822
Zn2	Zn	1.462345	0.750620	1.101822
Zn3	Zn	0.962259	0.355898	0.423830
Zn4	Zn	1.462259	0.855898	0.923830
Zn5	Zn	0.857075	0.250644	0.423852
Zn6	Zn	1.357075	0.750644	0.923852
Zn7	Zn	0.857043	0.355852	0.601760
Zn8	Zn	1.357043	0.855852	1.101760
O9	O	0.909680	0.303253	0.512816
O10	O	1.409680	0.803253	1.012816
O11	O	1.050423	0.264594	0.578228
O12	O	1.550423	0.764594	1.078228
O13	O	0.948283	0.341966	0.274887
O14	O	1.448283	0.841966	0.774887
O15	O	0.871089	0.162551	0.447495
O16	O	1.371089	0.662551	0.947495
O17	O	1.050360	0.341942	0.447458
O18	O	1.550360	0.841942	0.947458
O19	O	0.948430	0.162533	0.578249
O20	O	1.448430	0.662533	1.078249
O21	O	0.871005	0.264635	0.274903
O22	O	1.371005	0.764635	0.774903
O23	O	0.768981	0.264590	0.447435
O24	O	1.268981	0.764590	0.947435
O25	O	0.871034	0.341863	0.750714
O26	O	1.371034	0.841863	1.250714
O27	O	0.768957	0.341886	0.578144
O28	O	1.268957	0.841886	1.078144
O29	O	0.948399	0.264549	0.750760
O30	O	1.448399	0.764549	1.250760
O31	O	0.948252	0.443981	0.447398
O32	O	1.448252	0.943981	0.947398
O33	O	0.870950	0.443947	0.578122
O34	O	1.370950	0.943947	1.078122
C35	C	0.746129	0.303236	0.512785
C36	C	1.246129	0.803236	1.012785
C37	C	0.676161	0.303244	0.512798
C38	C	1.176161	0.803244	1.012798
C39	C	0.176707	0.343575	0.580810
C40	C	0.676707	0.843575	1.080810
C41	C	0.242449	0.343576	0.580799
C42	C	0.742449	0.843576	1.080799
C43	C	0.275321	0.303268	0.512849
C44	C	0.775321	0.803268	1.012849
C45	C	0.242445	0.262968	0.444887
C46	C	0.742445	0.762968	0.944887
C47	C	0.176704	0.262973	0.444892
C48	C	0.676704	0.762973	0.944892
N49	N	0.378560	0.248151	0.504842
N50	N	0.878560	0.748151	1.004842
N51	N	0.441011	0.248148	0.504842
N52	N	0.941011	0.748148	1.004842
C53	C	0.473396	0.303250	0.512827
C54	C	0.973396	0.803250	1.012827
N55	N	0.440970	0.358356	0.520831
N56	N	0.940970	0.858356	1.020831
N57	N	0.378513	0.358359	0.520836
N58	N	0.878513	0.858359	1.020836
C59	C	0.346606	0.303258	0.512835
C60	C	0.846606	0.803258	1.012835
C61	C	0.577550	0.343551	0.580768
C62	C	1.077550	0.843551	1.080768
C63	C	0.643293	0.343552	0.580749
C64	C	1.143293	0.843552	1.080749
C65	C	0.643288	0.262938	0.444843
C66	C	1.143288	0.762938	0.944843
C67	C	0.577545	0.262943	0.444856
C68	C	1.077545	0.762943	0.944856
C69	C	0.544680	0.303248	0.512824
C70	C	1.044680	0.803248	1.012824
C71	C	0.909605	0.466805	0.512774
C72	C	1.409605	0.966805	1.012774
C73	C	0.909631	0.536773	0.512792
C74	C	1.409631	1.036773	1.012792
C75	C	0.950077	1.036228	0.444959
C76	C	1.450077	1.536228	0.944959
C77	C	0.950053	0.970485	0.444930
C78	C	1.450053	1.470485	0.944930
C79	C	0.909764	0.937612	0.512925
C80	C	1.409764	1.437612	1.012925
C81	C	0.869483	0.970487	0.580934
C82	C	1.369483	1.470487	1.080934
C83	C	0.869504	1.036229	0.580953
C84	C	1.369504	1.536229	1.080953
N85	N	0.904872	0.834355	0.606056
N86	N	1.404872	1.334355	1.106056
N87	N	0.904857	0.771904	0.606035
N88	N	1.404857	1.271904	1.106035
C89	C	0.909700	0.739538	0.512869
C90	C	1.409700	1.239538	1.012869
N91	N	0.914571	0.771982	0.419724
N92	N	1.414571	1.271982	0.919724
N93	N	0.914590	0.834439	0.419747
N94	N	1.414590	1.334439	0.919747
C95	C	0.909737	0.866327	0.512911
C96	C	1.409737	1.366327	1.012911
C97	C	0.949949	0.635385	0.444828
C98	C	1.449949	1.135385	0.944828
C99	C	0.949921	0.569641	0.444798
C100	C	1.449921	1.069641	0.944798
C101	C	0.869355	0.569645	0.580811
C102	C	1.369355	1.069645	1.080811
C103	C	0.869379	0.635387	0.580832
C104	C	1.369379	1.135387	1.080832
C105	C	0.909680	0.668253	0.512842
C106	C	1.409680	1.168253	1.012842
C107	C	1.073871	0.303271	0.512847
C108	C	1.573871	0.803271	1.012847
C109	C	1.143839	0.303278	0.512861
C110	C	1.643839	0.803278	1.012861
C111	C	0.909722	0.303198	0.790437
C112	C	1.409722	0.803198	1.290437
C113	C	0.909740	0.303175	0.908743
C114	C	1.409740	0.803175	1.408743
C115	C	0.909771	1.139063	0.512895
C116	C	1.409771	1.639063	1.012895
C117	C	0.909804	1.069095	0.512963
C118	C	1.409804	1.569095	1.012963
C119	C	0.909675	0.303263	0.236275
C120	C	1.409675	0.803263	0.736275
C121	C	0.909779	0.303109	0.117970
C122	C	1.409779	0.803109	0.617970
C123	C	0.867675	0.345202	0.977971
C124	C	1.367675	0.845202	1.477971
C125	C	0.925110	0.360584	1.048759
C126	C	1.425110	0.860584	1.548759
C127	C	0.852349	0.287754	1.048754
C128	C	1.352349	0.787754	1.548754
C129	C	0.967206	0.318587	0.977972
C130	C	1.467206	0.818587	1.477972
C131	C	0.894406	0.245731	0.977961
C132	C	1.394406	0.745731	1.477961
C133	C	0.951882	0.261091	1.048717
C134	C	1.451882	0.761091	1.548717
H135	H	0.550784	0.230126	0.389527
H136	H	1.050784	0.730126	0.889527
N137	N	1.028135	0.334974	0.939146
N138	N	1.528135	0.834974	1.439146
N139	N	1.057799	0.297386	0.881773
N140	N	1.557799	0.797386	1.381773
H141	H	1.100830	0.308959	0.854351
H142	H	1.600830	0.808959	1.354351
H143	H	0.982849	0.943720	0.389551
H144	H	1.482849	1.443720	0.889551
N145	N	0.676857	0.221756	0.375447
N146	N	1.176857	0.721756	0.875447
N147	N	0.669540	0.163675	0.382681
N148	N	1.169540	0.663675	0.882681
H149	H	0.693250	0.134589	0.333666
H150	H	1.193250	0.634589	0.833666
H151	H	0.938101	0.409135	1.079858
H152	H	1.438101	0.909135	1.579858
N153	N	0.828357	1.069805	0.650411
N154	N	1.328357	1.569805	1.150411
N155	N	0.770271	1.062514	0.643247
N156	N	1.270271	1.562514	1.143247
H157	H	0.741211	1.086228	0.692302
H158	H	1.241211	1.586228	1.192302
N159	N	0.543983	0.384733	0.650180
N160	N	1.043983	0.884733	1.150180
N161	N	0.551301	0.442813	0.642943
N162	N	1.051301	0.942813	1.142943
H163	H	0.527596	0.471900	0.691965
H164	H	1.027596	0.971900	1.191965
N165	N	0.991249	1.069789	0.375512
N166	N	1.491249	1.569789	0.875512
N167	N	1.027208	1.040430	0.314801
N168	N	1.527208	1.540430	0.814801
H169	H	1.056288	1.064133	0.265755
H170	H	1.556288	1.564133	0.765755
H171	H	0.982714	0.542881	0.389414
H172	H	1.482714	1.042881	0.889414
H173	H	0.832129	0.380798	0.946909
H174	H	1.332129	0.880798	1.446909
N175	N	0.991110	0.668952	0.375363
N176	N	1.491110	1.168952	0.875363
N177	N	1.027058	0.639595	0.314633
N178	N	1.527058	1.139595	0.814633
H179	H	1.056126	0.663300	0.265568
H180	H	1.556126	1.163300	0.765568
N181	N	0.676860	0.384726	0.650159
N182	N	1.176860	0.884726	1.150159
N183	N	0.647505	0.420708	0.710833
N184	N	1.147505	0.920708	1.210833
H185	H	0.671211	0.449789	0.759856
H186	H	1.171211	0.949789	1.259856
H187	H	0.836678	0.943719	0.636295
H188	H	1.336678	1.443719	1.136295
H189	H	0.836587	0.662148	0.636212
H190	H	1.336587	1.162148	1.136212
H191	H	0.836548	0.542880	0.636169
H192	H	1.336548	1.042880	1.136169
N193	N	0.276034	0.384746	0.650198
N194	N	0.776034	0.884746	1.150198
N195	N	0.268675	0.442829	0.642977
N196	N	0.768675	0.942829	1.142977
H197	H	0.292394	0.471905	0.691990
H198	H	0.792394	0.971905	1.191990
H199	H	0.987513	0.225522	1.079584
H200	H	1.487513	0.725522	1.579584
N201	N	0.878085	0.184841	0.938926
N202	N	1.378085	0.684841	1.438926
N203	N	0.825981	0.161388	0.961563
N204	N	1.325981	0.661388	1.461563
H205	H	0.814447	0.118383	0.933995
H206	H	1.314447	0.618383	1.433995
N207	N	0.791440	0.271427	1.087739
N208	N	1.291440	0.771427	1.587739
N209	N	0.747826	0.260255	1.024053
N210	N	1.247826	0.760255	1.524053
H211	H	0.704806	0.248729	1.051581
H212	H	1.204806	0.748729	1.551581
N213	N	0.143147	0.384748	0.650243
N214	N	0.643147	0.884748	1.150243
N215	N	0.172507	0.420726	0.710908
N216	N	0.672507	0.920726	1.210908
H217	H	0.148804	0.449805	0.759946
H218	H	0.648804	0.949805	1.259946
N219	N	0.276031	0.221793	0.375496
N220	N	0.776031	0.721793	0.875496
N221	N	0.312738	0.181704	0.413066
N222	N	0.812738	0.681704	0.913066
H223	H	0.336459	0.152624	0.364055
H224	H	0.836459	0.652624	0.864055
N225	N	0.143136	0.221806	0.375471
N226	N	0.643136	0.721806	0.875471
N227	N	0.172490	0.185823	0.314798
N228	N	0.672490	0.685823	0.814798
H229	H	0.148782	0.156747	0.265768
H230	H	0.648782	0.656747	0.765768
