data_functionalizedCrystal
_audit_creation_method	'MofGen! by Chris Wilmer'
_symmetry_space_group_name_H-M	'P1'
_symmetry_Int_Tables_number	1
_symmetry_cell_setting	triclinic
loop_
_symmetry_equiv_pos_as_xyz
  x,y,z
_cell_length_a	16.992694
_cell_length_b	16.974813
_cell_length_c	16.053802
_cell_angle_alpha	88.912550
_cell_angle_beta	92.750953
_cell_angle_gamma	92.975366
loop_
_atom_site_label
_atom_site_type_symbol
_atom_site_fract_x
_atom_site_fract_y
_atom_site_fract_z
O1	O	-1.044046	0.164036	-0.080405
O2	O	-0.815757	0.162201	-0.080306
O3	O	-0.935897	0.048765	-0.072625
O4	O	-0.923906	0.277473	-0.088087
O5	O	-0.929284	0.054981	0.065813
O6	O	-0.809145	0.168418	0.058132
O7	O	-1.037433	0.170253	0.058033
Zn8	Zn	-0.922239	0.170322	0.080062
Zn9	Zn	-0.930951	0.162132	-0.102336
O10	O	-0.917293	0.283689	0.050351
C11	C	-0.783234	0.162951	-0.010931
C12	C	-0.696175	0.155912	-0.010465
C13	C	-1.069957	0.169503	-0.011344
C14	C	-1.157016	0.176542	-0.011816
C15	C	-0.932011	0.022473	-0.001420
C16	C	-0.930277	-0.065130	0.004496
C17	C	-0.646080	0.223821	-0.015055
C18	C	-0.564279	0.217204	-0.014596
C19	C	-0.532574	0.142676	-0.009553
C20	C	-0.582675	0.074762	-0.004959
C21	C	-0.664475	0.081380	-0.005412
C22	C	-0.288916	0.115246	-0.007676
C23	C	-0.207111	0.108632	-0.007226
C24	C	-0.188719	0.251075	-0.016861
C25	C	-0.270522	0.257687	-0.017318
C26	C	-0.320615	0.189773	-0.012721
N27	N	-0.448960	0.135910	-0.009086
N28	N	-0.404227	0.196540	-0.013181
C29	C	-0.933069	-0.109669	-0.068186
C30	C	-0.931434	-0.191981	-0.062625
C31	C	-0.927013	-0.229752	0.015620
C32	C	-0.924219	-0.185206	0.088308
C33	C	-0.925848	-0.102895	0.082746
C34	C	-0.921749	-0.475560	0.040348
C35	C	-0.920122	-0.557877	0.045906
C36	C	-0.927336	-0.564647	-0.105028
C37	C	-0.928969	-0.482334	-0.110584
C38	C	-0.926171	-0.437795	-0.037896
N39	N	-0.925344	-0.313887	0.021307
N40	N	-0.927834	-0.353661	-0.043583
C41	C	-0.921179	0.309981	-0.020855
C42	C	-0.922914	0.397583	-0.026777
N43	N	-0.916298	0.175912	0.204544
N44	N	-0.936898	0.156536	-0.226817
C45	C	-0.967436	0.127664	0.251505
C46	C	-0.963288	0.131582	0.338647
C47	C	-0.908005	0.183752	0.378825
C48	C	-0.856862	0.232002	0.331858
C49	C	-0.861007	0.228080	0.244718
C50	C	-0.889899	0.200864	0.639076
C51	C	-0.885760	0.204784	0.726222
C52	C	-0.992186	0.104363	0.733005
C53	C	-0.996329	0.100448	0.645863
C54	C	-0.945183	0.148695	0.598903
N55	N	-0.903765	0.187760	0.467898
N56	N	-0.949419	0.144683	0.509833
H57	H	-0.671887	0.284510	-0.019162
H58	H	-0.916518	-0.588626	0.109625
N59	N	-1.023897	0.074370	0.210455
N60	N	-1.027591	0.070871	0.132652
H61	H	-1.067466	0.033229	0.103661
N62	N	-0.340087	0.045882	-0.002978
N63	N	-0.385003	0.036301	0.056201
H64	H	-0.421146	-0.012691	0.059520
H65	H	-0.556854	0.014080	-0.000841
N66	N	-0.937602	-0.071092	-0.148112
N67	N	-0.995064	-0.086339	-0.197756
H68	H	-0.998266	-0.059095	-0.254206
N69	N	-0.934322	-0.237471	-0.136874
N70	N	-0.989457	-0.287931	-0.150337
H71	H	-0.991504	-0.320056	-0.202781
N72	N	-0.933486	-0.443768	-0.190516
N73	N	-0.935977	-0.483546	-0.255407
H74	H	-0.939170	-0.456309	-0.311861
N75	N	-0.837678	0.250156	0.591102
N76	N	-0.841384	0.246655	0.513300
H77	H	-0.804503	0.281472	0.479413
N78	N	-0.715636	0.012005	-0.000714
N79	N	-0.687321	-0.054534	0.003793
H80	H	-0.723453	-0.103533	0.007117
H81	H	-0.920614	-0.215965	0.152017
N82	N	-0.513114	0.286578	-0.019267
N83	N	-0.513326	0.337622	0.035815
H84	H	-0.477194	0.386623	0.032520
H85	H	-0.919486	-0.439307	0.099536
N86	N	-1.015490	0.082272	0.386630
N87	N	-1.011759	0.085752	0.464434
H88	H	-1.048614	0.050910	0.498325
H89	H	-0.811845	0.274478	0.364576
H90	H	-0.147925	0.306367	-0.020602
N91	N	-0.808761	0.277366	0.196759
N92	N	-0.759404	0.323943	0.232640
H93	H	-0.722501	0.358752	0.198770
N94	N	-1.044421	0.055088	0.780985
N95	N	-1.040717	0.058595	0.858787
H96	H	-1.077609	0.023791	0.892675
H97	H	-0.181301	0.047940	-0.003120
N98	N	-0.302892	0.333821	-0.022481
N99	N	-0.258155	0.394450	-0.026584
H100	H	-0.281016	0.448222	-0.030236
N101	N	-1.052923	0.047222	0.604912
N102	N	-1.051384	-0.025277	0.619586
H103	H	-1.091404	-0.062838	0.590692
N104	N	-0.922987	-0.057407	0.156997
N105	N	-0.919037	-0.091138	0.226855
H106	H	-0.917011	-0.059013	0.279298
H107	H	-0.840739	0.247271	0.758931
N108	N	-0.930195	-0.610154	-0.179264
N109	N	-0.928742	-0.683645	-0.174291
H110	H	-0.930760	-0.715786	-0.226723
