data_functionalizedCrystal
_audit_creation_method	'MofGen! by Chris Wilmer'
_symmetry_space_group_name_H-M	'P1'
_symmetry_Int_Tables_number	1
_symmetry_cell_setting	triclinic
loop_
_symmetry_equiv_pos_as_xyz
  x,y,z
_cell_length_a	11.792241
_cell_length_b	15.538191
_cell_length_c	10.268362
_cell_angle_alpha	90.002247
_cell_angle_beta	90.000374
_cell_angle_gamma	65.732755
loop_
_atom_site_label
_atom_site_type_symbol
_atom_site_fract_x
_atom_site_fract_y
_atom_site_fract_z
O1	O	1.452873	0.128843	0.108165
O2	O	1.116963	0.142122	0.108194
O3	O	1.350305	-0.001313	0.108180
O4	O	1.219530	0.272278	0.108179
O5	O	1.350293	-0.001319	-0.108421
O6	O	1.116950	0.142116	-0.108407
O7	O	1.452860	0.128837	-0.108436
Cu8	Cu	1.284904	0.135476	-0.128199
Cu9	Cu	1.284919	0.135483	0.127957
O10	O	1.219517	0.272272	-0.108422
C11	C	1.363982	-0.036342	-0.000117
C12	C	1.404737	-0.140707	-0.000108
C13	C	1.075015	0.141285	-0.000102
C14	C	0.950049	0.138788	-0.000091
C15	C	0.999839	-0.430566	-0.000101
C16	C	1.038164	-0.528636	-0.000107
C17	C	1.253732	-0.549978	-0.000125
C18	C	1.215426	-0.451907	-0.000112
C19	C	1.088477	-0.392209	-0.000102
C20	C	1.304064	-0.413551	-0.000114
C21	C	1.265760	-0.315489	-0.000108
C22	C	1.138817	-0.255784	-0.000101
C23	C	1.050173	-0.294147	-0.000096
C24	C	1.431011	-0.473251	-0.000134
C25	C	1.519649	-0.434894	-0.000135
C26	C	1.481346	-0.336831	-0.000120
C27	C	1.354403	-0.277126	-0.000113
C28	C	1.569990	-0.298468	-0.000125
C29	C	1.531685	-0.200406	-0.000119
C30	C	1.316099	-0.179064	-0.000107
C31	C	0.721262	0.134197	-0.000128
C32	C	0.848577	0.136748	-0.000108
C33	C	1.494808	0.129674	-0.000137
C34	C	1.619774	0.132171	-0.000140
C35	C	1.205841	0.307301	-0.000122
C36	C	1.165085	0.411666	-0.000123
N37	N	1.284902	0.135470	-0.308365
C38	C	1.284914	0.135481	-0.574035
C39	C	1.284902	0.135478	-0.426197
N40	N	1.284933	0.135481	0.308123
H41	H	1.212725	-0.130453	-0.000088
Br42	Br	1.651980	-0.148344	-0.000153
Br43	Br	1.742270	-0.379497	-0.000171
Br44	Br	1.086827	-0.122698	-0.000111
H45	H	0.896466	-0.381955	-0.000082
H46	H	0.946800	-0.245536	-0.000077
Br47	Br	0.917854	-0.580689	-0.000119
Br48	Br	1.426013	-0.631005	-0.000155
H49	H	1.462194	-0.553099	-0.000127
H50	H	1.623011	-0.483514	-0.000149
