data_functionalizedCrystal
_audit_creation_method	'MofGen! by Chris Wilmer'
_symmetry_space_group_name_H-M	'P1'
_symmetry_Int_Tables_number	1
_symmetry_cell_setting	triclinic
loop_
_symmetry_equiv_pos_as_xyz
  x,y,z
_cell_length_a	12.759401
_cell_length_b	29.839131
_cell_length_c	12.759393
_cell_angle_alpha	89.962110
_cell_angle_beta	89.981504
_cell_angle_gamma	90.041581
loop_
_atom_site_label
_atom_site_type_symbol
_atom_site_fract_x
_atom_site_fract_y
_atom_site_fract_z
Zn1	Zn	1.606060	-0.178825	-0.593935
Zn2	Zn	1.605873	-0.253963	-0.418236
Zn3	Zn	1.430362	-0.178848	-0.418275
Zn4	Zn	1.430269	-0.253929	-0.593877
O5	O	1.518141	-0.216391	-0.506081
O6	O	1.753056	-0.188797	-0.570636
O7	O	1.582551	-0.244024	-0.271220
O8	O	1.453787	-0.115978	-0.441617
O9	O	1.752919	-0.244001	-0.441551
O10	O	1.582871	-0.115961	-0.570674
O11	O	1.453605	-0.188837	-0.271248
O12	O	1.283329	-0.188803	-0.441561
O13	O	1.453628	-0.243942	-0.740906
O14	O	1.283260	-0.243965	-0.570575
O15	O	1.582781	-0.188763	-0.740949
O16	O	1.582461	-0.316826	-0.441495
O17	O	1.453446	-0.316801	-0.570538
C18	C	1.245174	-0.216383	-0.506066
C19	C	1.128397	-0.216390	-0.506085
C20	C	1.517951	-0.333114	-0.506029
C21	C	1.517966	-0.383048	-0.506041
C22	C	1.073527	-0.245159	-0.573152
C23	C	0.963803	-0.245165	-0.573163
C24	C	0.963829	-0.187632	-0.439032
C25	C	1.073551	-0.187624	-0.439027
C26	C	1.128373	-0.273925	-0.640210
C27	C	1.073503	-0.302696	-0.707282
C28	C	0.963779	-0.302702	-0.707293
C29	C	0.908925	-0.273936	-0.640233
C30	C	1.585441	-0.692692	-0.438986
C31	C	1.585571	-0.880365	-0.439027
O32	O	1.642790	-0.904631	-0.381974
N33	N	1.518359	-0.903833	-0.506160
C34	C	1.451114	-0.880380	-0.573292
O35	O	1.393957	-0.904648	-0.630402
C36	C	1.450991	-0.692708	-0.573256
C37	C	1.518200	-0.669243	-0.506111
C38	C	1.652646	-0.669227	-0.371848
C39	C	1.652609	-0.622311	-0.371834
C40	C	1.585367	-0.598861	-0.438959
C41	C	1.518163	-0.622327	-0.506098
C42	C	1.383752	-0.669256	-0.640393
C43	C	1.383729	-0.622335	-0.640380
C44	C	1.450938	-0.598869	-0.573235
C45	C	1.450884	-0.551962	-0.573209
N46	N	1.518096	-0.528494	-0.506076
C47	C	1.585338	-0.551944	-0.438951
C48	C	1.451183	-0.978911	-0.573305
C49	C	1.451212	-1.025829	-0.573313
C50	C	1.585670	-1.025811	-0.439049
C51	C	1.585635	-0.978892	-0.439036
C52	C	1.518395	-0.955443	-0.506172
C53	C	1.585254	-0.453418	-0.438927
C54	C	1.585208	-0.406498	-0.438916
C55	C	1.450754	-0.406521	-0.573184
C56	C	1.450796	-0.453436	-0.573191
C57	C	1.518054	-0.476884	-0.506059
O58	O	1.393703	-0.527668	-0.630240
O59	O	1.642503	-0.527668	-0.381867
C60	C	1.585479	-0.739608	-0.439000
C61	C	1.518274	-0.763073	-0.506138
C62	C	1.451033	-0.739624	-0.573263
C63	C	1.518304	-0.809991	-0.506146
C64	C	1.585545	-0.833441	-0.439021
C65	C	1.652757	-0.809973	-0.371888
C66	C	1.652720	-0.763058	-0.371875
C67	C	1.383820	-0.763092	-0.640396
C68	C	1.383862	-0.810007	-0.640404
C69	C	1.451104	-0.833457	-0.573279
C70	C	1.792174	-0.216400	-0.506096
C71	C	1.908951	-0.216404	-0.506102
C72	C	1.518215	-0.216346	-0.780114
C73	C	1.518246	-0.216327	-0.896891
C74	C	1.518360	-0.099213	-0.506156
C75	C	1.518454	-0.049279	-0.506188
C76	C	1.585505	-0.187593	-0.951777
C77	C	1.585530	-0.187576	-1.061501
C78	C	1.451034	-0.245032	-1.061444
C79	C	1.451004	-0.245046	-0.951722
C80	C	1.652747	-0.158873	-0.896946
C81	C	1.720013	-0.130137	-0.951832
C82	C	1.720038	-0.130121	-1.061556
C83	C	1.652797	-0.158841	-1.116394
C84	C	1.518128	-0.216404	-0.233113
C85	C	1.518301	-0.216297	-0.116337
H86	H	1.118172	-0.326113	-0.761886
H87	H	1.774751	-0.106752	-0.907176
C88	C	1.727098	-1.078482	-0.424701
C89	C	1.659662	-1.051575	-0.365308
H90	H	1.772802	-1.094382	-0.379193
H91	H	1.687066	-1.099181	-0.464639
H92	H	1.767172	-1.060130	-0.470540
H93	H	1.619582	-1.069928	-0.319474
H94	H	1.699699	-1.030874	-0.325352
C95	C	1.718125	-0.411200	-0.306203
C96	C	1.659094	-0.380706	-0.365110
H97	H	1.763742	-0.395277	-0.260647
H98	H	1.672385	-0.429533	-0.265984
H99	H	1.758295	-0.429467	-0.352033
H100	H	1.618917	-0.362441	-0.319280
H101	H	1.704840	-0.362365	-0.405333
C102	C	1.318266	-0.983652	-0.706007
C103	C	1.377252	-0.953140	-0.647096
H104	H	1.272618	-0.967742	-0.751553
H105	H	1.364032	-1.001916	-0.746238
H106	H	1.278131	-1.001985	-0.660179
H107	H	1.417393	-0.934808	-0.692923
H108	H	1.331481	-0.934867	-0.606861
C109	C	1.391375	-0.270527	-1.229617
C110	C	1.377139	-0.276605	-1.121720
H111	H	1.345760	-0.290022	-1.266826
H112	H	1.376054	-0.240343	-1.247620
H113	H	1.461963	-0.277101	-1.247581
H114	H	1.306552	-0.270028	-1.103755
H115	H	1.392452	-0.306795	-1.103710
C116	C	0.974871	-0.130763	-0.306449
C117	C	0.903537	-0.156017	-0.365317
H118	H	0.937648	-0.111244	-0.260943
H119	H	1.017624	-0.150313	-0.266177
H120	H	1.017707	-0.113598	-0.352307
H121	H	0.860706	-0.173184	-0.319460
H122	H	0.860766	-0.136465	-0.405592
C123	C	1.318108	-0.301857	-0.962677
C124	C	1.377101	-0.276643	-0.891383
H125	H	1.272493	-0.321368	-0.925424
H126	H	1.277946	-0.282281	-1.005473
H127	H	1.363879	-0.319028	-1.005476
H128	H	1.331330	-0.259469	-0.848589
H129	H	1.417265	-0.296222	-0.848569
C130	C	1.196914	-0.181309	-0.297738
C131	C	1.133881	-0.156005	-0.365306
H132	H	1.234165	-0.161787	-0.252233
H133	H	1.154068	-0.200859	-0.257466
H134	H	1.245270	-0.198437	-0.337694
H135	H	1.085520	-0.138880	-0.325350
H136	H	1.176731	-0.136448	-0.405582
H137	H	1.640025	-0.472503	-0.384264
H138	H	1.329065	-0.744003	-0.695059
C139	C	1.600283	-0.926171	-0.297707
C140	C	1.659517	-0.953101	-0.365234
H141	H	1.645900	-0.910253	-0.252140
H142	H	1.560250	-0.905488	-0.337682
H143	H	1.554540	-0.944510	-0.257490
H144	H	1.705255	-0.934761	-0.405457
H145	H	1.699568	-0.973786	-0.325254
H146	H	1.217716	-0.273924	-0.640207
H147	H	1.707408	-0.688315	-0.317186
C148	C	0.974779	-0.359571	-0.839869
C149	C	0.903463	-0.334325	-0.781017
H150	H	0.937542	-0.379097	-0.885376
H151	H	1.017615	-0.340016	-0.880138
H152	H	1.017535	-0.376727	-0.794001
H153	H	0.860712	-0.317166	-0.826884
H154	H	0.860610	-0.353882	-0.740744
C155	C	0.751732	-0.305244	-0.713330
C156	C	0.788314	-0.273927	-0.640282
H157	H	0.677273	-0.305236	-0.713362
H158	H	0.776626	-0.297511	-0.781138
H159	H	0.776475	-0.334228	-0.695016
H160	H	0.763577	-0.244942	-0.658600
H161	H	0.763409	-0.281658	-0.572459
C162	C	1.785530	-0.627021	-0.239141
C163	C	1.726504	-0.596522	-0.298041
H164	H	1.831159	-0.611101	-0.193591
H165	H	1.739788	-0.645349	-0.198915
H166	H	1.825688	-0.645291	-0.284976
H167	H	1.686340	-0.578254	-0.252206
H168	H	1.772251	-0.578185	-0.338270
H169	H	1.396474	-1.044931	-0.627979
H170	H	1.652737	-0.158884	-0.807603
C171	C	1.250871	-0.664541	-0.773124
C172	C	1.309879	-0.695041	-0.714210
H173	H	1.205269	-0.680460	-0.818703
H174	H	1.210696	-0.646277	-0.727308
H175	H	1.296634	-0.646206	-0.813330
H176	H	1.264117	-0.713374	-0.673998
H177	H	1.350058	-0.713313	-0.760031
H178	H	1.328975	-0.603245	-0.695053
C179	C	1.436163	-0.506160	-0.714511
C180	C	1.376915	-0.479235	-0.646987
H181	H	1.390554	-0.522087	-0.760069
H182	H	1.481887	-0.487821	-0.754729
H183	H	1.476215	-0.526839	-0.674527
H184	H	1.336868	-0.458554	-0.686971
H185	H	1.331172	-0.497577	-0.606765
C186	C	1.771378	-0.054045	-1.095387
C187	C	1.793971	-0.098533	-1.121883
H188	H	1.817031	-0.034545	-1.132624
H189	H	1.700815	-0.047466	-1.113377
H190	H	1.780983	-0.049952	-1.022190
H191	H	1.784359	-0.102626	-1.195080
H192	H	1.864551	-0.105113	-1.103901
H193	H	1.396003	-0.387420	-0.627834
C194	C	1.785630	-0.767767	-0.239171
C195	C	1.726608	-0.737268	-0.298074
H196	H	1.831253	-0.751847	-0.193614
H197	H	1.739886	-0.786098	-0.198952
H198	H	1.825795	-0.786035	-0.285003
H199	H	1.686437	-0.719002	-0.252242
H200	H	1.772358	-0.718930	-0.338296
H201	H	1.707505	-0.829074	-0.317230
H202	H	1.329123	-0.829109	-0.695080
C203	C	1.726065	-0.127539	-1.273605
C204	C	1.652829	-0.158825	-1.237006
H205	H	1.726091	-0.127534	-1.348064
H206	H	1.707939	-0.098554	-1.248814
H207	H	1.793837	-0.135316	-1.248770
H208	H	1.585055	-0.151046	-1.261834
H209	H	1.670949	-0.187816	-1.261807
