data_functionalizedCrystal
_audit_creation_method	'MofGen! by Chris Wilmer'
_symmetry_space_group_name_H-M	'P1'
_symmetry_Int_Tables_number	1
_symmetry_cell_setting	triclinic
loop_
_symmetry_equiv_pos_as_xyz
  x,y,z
_cell_length_a	14.446369
_cell_length_b	12.970454
_cell_length_c	12.970454
_cell_angle_alpha	59.999776
_cell_angle_beta	89.998261
_cell_angle_gamma	60.001048
loop_
_atom_site_label
_atom_site_type_symbol
_atom_site_fract_x
_atom_site_fract_y
_atom_site_fract_z
Zr1	Zr	0.891723	1.128575	-0.135358
O2	O	0.743923	1.343656	-0.299974
O3	O	0.937032	0.913487	-0.084894
O4	O	0.937033	1.128577	-0.299985
O5	O	0.743920	1.128567	0.084783
O6	O	1.089362	1.128586	-0.299994
O7	O	0.743921	1.128566	-0.084883
O8	O	1.089359	0.743830	0.084765
O9	O	0.743923	1.513323	-0.299975
O10	O	1.070036	1.001965	-0.063379
O11	O	0.956354	1.001959	0.063248
O12	O	0.956356	1.255199	-0.189994
O13	O	0.842674	1.255193	-0.063367
Zr14	Zr	1.134668	1.128591	0.135226
Zr15	Zr	1.134670	1.128590	-0.135373
Zr16	Zr	0.891721	1.128576	0.135240
Zr17	Zr	0.891723	1.399175	-0.135360
Zr18	Zr	1.134668	0.857991	0.135227
O19	O	1.089359	1.343679	0.084762
O20	O	1.089362	1.343677	-0.299995
O21	O	0.743920	1.343658	0.084782
O22	O	1.282468	0.913510	0.299842
O23	O	1.282471	0.913508	-0.084914
O24	O	0.937029	0.913489	0.299863
O25	O	1.282471	1.128599	-0.084915
O26	O	1.089358	1.128589	0.299852
O27	O	0.937029	1.128580	0.299861
O28	O	1.282470	1.128600	0.084751
O29	O	0.937033	1.513335	-0.299987
O30	O	1.089358	0.743831	0.299854
O31	O	1.282468	0.743843	0.299843
O32	O	1.282469	0.743842	0.084753
O33	O	0.743921	1.513324	-0.084885
O34	O	0.937032	1.513336	-0.084897
O35	O	1.070035	1.001966	0.189862
O36	O	1.183717	1.001973	0.063235
O37	O	1.070036	1.255207	-0.063380
O38	O	0.956354	1.255201	0.063247
C39	C	1.013195	0.790104	-0.000064
C40	C	1.013195	0.675227	-0.000064
C41	C	0.709306	1.128564	-0.000048
C42	C	0.606169	1.128558	-0.000042
C43	C	0.531186	0.968860	0.079400
C44	C	0.638514	0.968752	0.079855
C45	C	0.531609	1.207890	0.058209
C46	C	0.424750	1.206876	0.058783
C47	C	0.423177	1.210164	-0.137862
C48	C	0.531849	1.207154	-0.137637
C49	C	1.317085	1.128601	-0.000084
C50	C	1.420222	1.128608	-0.000090
C51	C	1.013198	1.128581	-0.338544
C52	C	1.013198	1.128580	-0.453420
C53	C	1.013195	1.467062	-0.000068
C54	C	1.013195	1.581939	-0.000068
C55	C	1.013193	1.128585	0.338411
C56	C	1.013193	1.128585	0.453288
C57	C	1.317085	0.790122	-0.000082
C58	C	1.420222	0.675252	-0.000088
C59	C	1.013193	0.790105	0.338413
C60	C	1.013193	0.675229	0.453290
C61	C	1.317083	0.790124	0.338395
C62	C	1.420219	0.675254	0.453266
C63	C	0.709308	1.467042	-0.338527
C64	C	0.606172	1.581912	-0.453398
C65	C	0.709306	1.467044	-0.000050
C66	C	0.606169	1.581914	-0.000044
C67	C	1.013198	1.467060	-0.338545
C68	C	1.013198	1.581936	-0.453422
C69	C	1.468657	0.527822	0.093386
C70	C	1.565555	0.419874	0.093385
C71	C	1.614022	0.459359	-0.000086
C72	C	1.565579	0.606803	-0.093569
C73	C	1.468677	0.714748	-0.093572
C74	C	1.468661	0.527825	0.507210
C75	C	1.565580	0.419876	0.615131
C76	C	1.614050	0.459359	0.669111
C77	C	1.565603	0.606803	0.615157
C78	C	1.468691	0.714749	0.507233
C79	C	0.557738	1.729341	-0.507352
C80	C	0.460841	1.837290	-0.615297
C81	C	0.412375	1.797806	-0.669281
C82	C	0.460817	1.650362	-0.615322
C83	C	0.557717	1.542416	-0.507384
C84	C	0.557733	1.542384	0.093443
C85	C	0.460834	1.650302	0.093474
C86	C	0.412368	1.797749	0.000011
C87	C	0.460813	1.837279	-0.093481
C88	C	0.557715	1.729362	-0.093505
H89	H	0.533520	0.906158	0.040530
O90	O	1.617822	0.260856	0.673311
H91	H	1.617624	0.207189	0.771916
H92	H	0.419058	1.159046	-0.186526
O93	O	1.718575	0.342911	0.785519
H94	H	1.788510	0.354781	0.764561
H95	H	0.597177	1.422332	0.169551
H96	H	1.692923	0.371448	-0.000071
H97	H	0.333472	1.885717	-0.757171
O98	O	1.617879	0.649381	0.673391
H99	H	1.693395	0.549540	0.757509
O100	O	0.408524	1.607798	-0.673555
H101	H	0.471475	1.542272	-0.702283
O102	O	0.609943	1.383401	-0.449181
H103	H	0.559947	1.374096	-0.504853
O104	O	0.710413	0.886308	0.028103
H105	H	0.735789	0.772373	0.087966
O106	O	0.307839	1.914136	0.000035
H107	H	0.326656	1.902228	0.089816
O108	O	1.416504	0.873764	0.448988
H109	H	1.466515	0.883068	0.504644
H110	H	0.421402	1.618088	0.169606
O111	O	1.416409	0.485213	0.448992
H112	H	1.390656	0.419644	0.519131
O113	O	0.319567	1.366039	-0.216701
H114	H	0.266194	1.385403	-0.158124
O115	O	0.408526	1.996317	-0.194281
H116	H	0.458483	2.005694	-0.259299
H117	H	0.597184	1.761517	-0.463409
O118	O	0.599934	1.134902	0.191244
H119	H	0.674441	1.139918	0.189879
O120	O	0.408656	1.996311	-0.673544
H121	H	0.458652	2.005618	-0.617876
O122	O	0.609950	1.771966	-0.194359
H123	H	0.635729	1.837521	-0.189807
O124	O	0.532560	0.886197	0.213211
H125	H	0.454557	0.958396	0.223351
H126	H	0.692376	0.905935	0.181500
H127	H	0.425018	1.150498	0.160165
H128	H	0.504378	1.325390	0.003104
O129	O	0.320654	1.362117	-0.012929
H130	H	0.346791	1.437581	-0.047857
H131	H	1.429208	0.495645	0.169504
H132	H	0.583272	1.149311	-0.181154
H133	H	1.604986	0.299826	0.169513
H134	H	1.605055	0.638932	-0.169670
O135	O	0.498017	1.361602	-0.222692
H136	H	0.533799	1.384864	-0.167976
H137	H	1.429252	0.834791	-0.169688
