data_functionalizedCrystal
_audit_creation_method	'MofGen! by Chris Wilmer'
_symmetry_space_group_name_H-M	'P1'
_symmetry_Int_Tables_number	1
_symmetry_cell_setting	triclinic
loop_
_symmetry_equiv_pos_as_xyz
  x,y,z
_cell_length_a	8.597226
_cell_length_b	8.597249
_cell_length_c	14.048226
_cell_angle_alpha	82.302515
_cell_angle_beta	82.290086
_cell_angle_gamma	93.638849
loop_
_atom_site_label
_atom_site_type_symbol
_atom_site_fract_x
_atom_site_fract_y
_atom_site_fract_z
O1	O	-2.086080	0.234366	0.231064
O2	O	-1.586080	0.734366	0.731064
O3	O	-1.629412	0.252327	0.192130
O4	O	-1.129412	0.752327	0.692130
O5	O	-1.866735	0.015019	0.231059
O6	O	-1.366735	0.515019	0.731059
O7	O	-1.848756	0.471674	0.192134
O8	O	-1.348756	0.971674	0.692134
O9	O	-1.866706	0.015005	0.072737
O10	O	-1.366706	0.515005	0.572737
O11	O	-1.629382	0.252313	0.033807
O12	O	-1.129382	0.752313	0.533807
O13	O	-2.086050	0.234351	0.072741
O14	O	-1.586050	0.734351	0.572741
Zn15	Zn	-1.857712	0.243330	0.028137
Zn16	Zn	-1.357712	0.743330	0.528137
Zn17	Zn	-1.857750	0.243349	0.236734
Zn18	Zn	-1.357750	0.743349	0.736734
O19	O	-1.848727	0.471659	0.033812
O20	O	-1.348727	0.971659	0.533812
C21	C	-1.570895	0.250388	0.108328
C22	C	-1.070895	0.750388	0.608328
C23	C	-1.396575	0.244612	0.094502
C24	C	-0.896575	0.744612	0.594502
C25	C	-1.864791	-0.043489	0.156539
C26	C	-1.364791	0.456511	0.656539
C27	C	-1.859022	-0.217803	0.170368
C28	C	-1.359022	0.282197	0.670368
C29	C	-1.144568	0.236286	0.156541
C30	C	-0.644568	0.736286	0.656541
C31	C	-1.318888	0.242050	0.170360
C32	C	-0.818888	0.742050	0.670360
C33	C	-1.850671	0.530167	0.108334
C34	C	-1.350671	1.030167	0.608334
C35	C	-1.856440	0.704481	0.094512
C36	C	-1.356440	1.204481	0.594512
N37	N	-1.857697	0.243316	-0.114224
N38	N	-1.357697	0.743316	0.385776
C39	C	-1.962818	0.138280	-0.146805
C40	C	-1.462818	0.638280	0.353195
C41	C	-1.962829	0.138279	-0.246461
C42	C	-1.462829	0.638279	0.253539
C43	C	-1.857725	0.243323	-0.313535
C44	C	-1.357725	0.743323	0.186465
C45	C	-1.752592	0.348363	-0.280949
C46	C	-1.252592	0.848363	0.219051
C47	C	-1.752575	0.348355	-0.181294
C48	C	-1.252575	0.848355	0.318706
C49	C	-1.752638	0.348375	-0.488660
C50	C	-1.252638	0.848375	0.011340
C51	C	-1.752656	0.348386	-0.588322
C52	C	-1.252656	0.848386	-0.088322
C53	C	-1.962891	0.138300	-0.553828
C54	C	-1.462891	0.638300	-0.053828
C55	C	-1.962874	0.138292	-0.454173
C56	C	-1.462874	0.638292	0.045827
C57	C	-1.857743	0.243334	-0.421593
C58	C	-1.357743	0.743334	0.078407
N59	N	-1.857777	0.243350	0.379097
N60	N	-1.357777	0.743350	0.879097
H61	H	-1.329726	0.242404	0.018984
H62	H	-0.829726	0.742404	0.518984
H63	H	-1.667023	0.433907	-0.462139
H64	H	-1.167023	0.933907	0.037861
Cl65	Cl	-1.422098	0.245485	0.286962
Cl66	Cl	-0.922098	0.745485	0.786962
H67	H	-1.858643	-0.228699	0.018994
H68	H	-1.358643	0.271301	0.518994
H69	H	-1.856835	-0.284633	0.245891
H70	H	-1.356835	0.215367	0.745891
H71	H	-1.667068	0.433922	-0.642931
H72	H	-1.167068	0.933922	-0.142931
H73	H	-2.048413	0.052748	-0.092197
H74	H	-1.548413	0.552748	0.407803
Cl75	Cl	-1.620451	0.480413	-0.365269
Cl76	Cl	-1.120451	0.980413	0.134731
H77	H	-1.666973	0.433884	-0.154769
H78	H	-1.166973	0.933884	0.345231
Cl79	Cl	-2.095015	0.006246	-0.369849
Cl80	Cl	-1.595015	0.506246	0.130151
Cl81	Cl	-2.094982	0.006231	-0.287422
Cl82	Cl	-1.594982	0.506231	0.212578
H83	H	-2.048492	0.052770	-0.580359
H84	H	-1.548492	0.552770	-0.080359
