data_functionalizedCrystal
_audit_creation_method	'MofGen! by Chris Wilmer'
_symmetry_space_group_name_H-M	'P1'
_symmetry_Int_Tables_number	1
_symmetry_cell_setting	triclinic
loop_
_symmetry_equiv_pos_as_xyz
  x,y,z
_cell_length_a	10.654549
_cell_length_b	15.944493
_cell_length_c	9.130307
_cell_angle_alpha	90.002582
_cell_angle_beta	89.997449
_cell_angle_gamma	83.980981
loop_
_atom_site_label
_atom_site_type_symbol
_atom_site_fract_x
_atom_site_fract_y
_atom_site_fract_z
O1	O	1.666270	0.117998	-0.121814
O2	O	1.300643	0.129234	-0.121807
O3	O	1.493479	0.001396	-0.121823
O4	O	1.473434	0.245836	-0.121798
O5	O	1.493473	0.001394	0.121776
O6	O	1.300637	0.129232	0.121792
O7	O	1.666264	0.117996	0.121785
Cu8	Cu	1.483450	0.123614	0.144031
Cu9	Cu	1.483457	0.123616	-0.144053
O10	O	1.473428	0.245834	0.121801
C11	C	1.253853	0.128407	-0.000007
C12	C	1.114443	0.125936	-0.000005
C13	C	0.822494	0.274163	-0.000032
C14	C	0.873003	0.351759	-0.000018
C15	C	1.003990	0.354083	0.000002
C16	C	1.084473	0.278804	0.000003
C17	C	1.033964	0.201208	-0.000011
C18	C	0.902973	0.198891	-0.000026
C19	C	1.063934	0.048341	-0.000019
C20	C	0.932947	0.046014	-0.000028
C21	C	1.144417	-0.026939	-0.000018
C22	C	1.093908	-0.104537	-0.000022
C23	C	0.962912	-0.106858	-0.000039
C24	C	0.882438	-0.031582	-0.000042
C25	C	1.492657	-0.029905	-0.000030
C26	C	1.490200	-0.123167	-0.000048
C27	C	1.603708	-0.358269	-0.000023
C28	C	1.542501	-0.409191	-0.120128
C29	C	1.485649	-0.293915	-0.000030
C30	C	1.542467	-0.409169	0.120042
C31	C	1.481262	-0.458850	-0.000006
C32	C	1.424474	-0.343609	-0.120234
C33	C	1.424457	-0.343583	0.120043
C34	C	1.363163	-0.394473	-0.000091
C35	C	1.488180	-0.198900	-0.000045
C36	C	1.478722	-0.553862	-0.000002
C37	C	1.713054	0.118823	-0.000018
C38	C	1.852464	0.121294	-0.000030
C39	C	1.474250	0.277135	0.000004
C40	C	1.476707	0.370397	0.000013
N41	N	1.483454	0.123613	0.346654
N42	N	1.483463	0.123611	-0.346676
C43	C	1.654279	0.010445	0.346630
C44	C	1.739700	-0.046136	0.423284
C45	C	1.739713	-0.046136	0.576618
C46	C	1.654292	0.010449	0.653300
C47	C	1.568871	0.067030	0.576645
C48	C	1.568871	0.067026	0.423308
C49	C	1.398042	0.180192	0.576669
C50	C	1.398034	0.180198	0.423336
C51	C	1.312622	0.236777	0.653352
C52	C	1.227205	0.293364	0.576697
C53	C	1.227197	0.293363	0.423354
C54	C	1.312613	0.236779	0.346681
H55	H	1.045113	0.417268	0.000015
H56	H	1.261392	-0.410529	-0.000155
H57	H	0.775779	-0.033464	-0.000044
H58	H	1.654298	0.010438	0.778152
C59	C	1.314362	-0.369049	0.342467
C60	C	1.357210	-0.304871	0.257128
H61	H	1.272862	-0.345148	0.427110
H62	H	1.257057	-0.397988	0.286903
H63	H	1.384116	-0.407528	0.371284
H64	H	1.287455	-0.266394	0.228302
H65	H	1.414519	-0.275918	0.312703
H66	H	1.809265	-0.092213	0.639030
H67	H	1.312631	0.236771	0.778204
H68	H	0.807460	0.413049	-0.000024
H69	H	1.809246	-0.092209	0.360836
C70	C	1.151366	0.343603	0.811758
C71	C	1.133321	0.355557	0.660986
H72	H	1.093410	0.382005	0.863796
H73	H	1.137747	0.287462	0.836867
H74	H	1.235175	0.353252	0.836866
H75	H	1.049514	0.345903	0.635877
H76	H	1.146929	0.411712	0.635867
C77	C	1.340230	-0.065222	-0.125232
C78	C	1.288400	-0.024383	-0.000006
H79	H	1.429119	-0.063639	-0.125225
H80	H	1.321673	-0.122201	-0.125229
H81	H	1.305063	-0.037509	-0.210171
H82	H	1.323561	-0.052100	0.084933
H83	H	1.306969	0.032607	0.000005
H84	H	1.592361	-0.437847	-0.221671
C85	C	1.058337	0.405223	0.438794
C86	C	1.133300	0.355562	0.339101
H87	H	1.000375	0.443626	0.386780
H88	H	1.013190	0.369970	0.498595
H89	H	1.110611	0.435764	0.498602
H90	H	1.081027	0.325016	0.279299
H91	H	1.178451	0.390819	0.279274
H92	H	1.191129	0.280703	0.000001
H93	H	1.705400	-0.342051	-0.000145
H94	H	1.312618	0.236776	0.221829
H95	H	1.159447	-0.165823	-0.000031
C96	C	0.626707	0.312446	-0.125272
C97	C	0.678512	0.271606	-0.000046
H98	H	0.537819	0.310862	-0.125282
H99	H	0.645263	0.369426	-0.125249
H100	H	0.661895	0.284736	-0.210211
H101	H	0.643331	0.299320	0.084893
H102	H	0.659945	0.214615	-0.000055
C103	C	1.005707	-0.257732	-0.000048
C104	C	0.907399	-0.192156	-0.000054
H105	H	0.971435	-0.310391	-0.000049
H106	H	1.056178	-0.253645	-0.084986
H107	H	1.056165	-0.253640	0.084911
H108	H	0.856945	-0.196245	-0.085019
H109	H	0.856906	-0.196245	0.084893
H110	H	1.374647	-0.315078	-0.221883
C111	C	1.735667	-0.429911	0.256865
C112	C	1.609791	-0.447828	0.257119
H113	H	1.777231	-0.453773	0.341491
H114	H	1.776746	-0.453256	0.171584
H115	H	1.738389	-0.370552	0.257371
H116	H	1.607069	-0.507188	0.256602
H117	H	1.568701	-0.424487	0.342422
H118	H	1.654288	0.010447	0.221778
