data_functionalizedCrystal
_audit_creation_method	'MofGen! by Chris Wilmer'
_symmetry_space_group_name_H-M	'P1'
_symmetry_Int_Tables_number	1
_symmetry_cell_setting	triclinic
loop_
_symmetry_equiv_pos_as_xyz
  x,y,z
_cell_length_a	19.121063
_cell_length_b	19.121274
_cell_length_c	19.120915
_cell_angle_alpha	94.963843
_cell_angle_beta	85.261346
_cell_angle_gamma	90.075254
loop_
_atom_site_label
_atom_site_type_symbol
_atom_site_fract_x
_atom_site_fract_y
_atom_site_fract_z
Zn1	Zn	-0.339806	-1.043481	0.367080
Zn2	Zn	-0.452456	-1.043398	0.254435
Zn3	Zn	-0.330220	-0.931277	0.254024
Zn4	Zn	-0.452410	-0.920766	0.377072
O5	O	-0.393723	-0.984730	0.313152
O6	O	-0.358781	-1.141750	0.348128
O7	O	-0.432248	-1.032889	0.155742
O8	O	-0.233210	-0.950594	0.264667
O9	O	-0.441544	-1.141689	0.265368
O10	O	-0.240254	-1.033030	0.347729
O11	O	-0.342442	-0.950514	0.155440
O12	O	-0.342397	-0.831603	0.274356
O13	O	-0.441465	-0.932680	0.474385
O14	O	-0.432170	-0.823881	0.364758
O15	O	-0.358736	-1.022838	0.467044
O16	O	-0.550731	-1.022697	0.275056
O17	O	-0.550697	-0.932600	0.365157
C18	C	-0.386239	-0.802259	0.320597
C19	C	-0.383055	-0.724195	0.323799
C20	C	-0.424573	-0.687492	0.282145
C21	C	-0.421582	-0.614143	0.285163
C22	C	-0.377068	-0.577498	0.329833
C23	C	-0.335548	-0.614206	0.371492
C24	C	-0.338543	-0.687553	0.368477
C25	C	-0.365875	-0.356036	0.341099
C26	C	-0.362882	-0.282683	0.344109
C27	C	-0.448917	-0.282625	0.257781
C28	C	-0.451905	-0.355975	0.254766
C29	C	-0.410388	-0.392676	0.296428
C30	C	-0.374008	-0.502523	0.332917
C31	C	-0.413452	-0.467649	0.293347
C32	C	-0.576198	-0.976517	0.321250
C33	C	-0.654266	-0.973067	0.324735
C34	C	-0.690939	-1.018388	0.279498
C35	C	-0.764292	-1.015147	0.282779
C36	C	-0.800970	-0.966581	0.331296
C37	C	-0.764291	-0.921258	0.376538
C38	C	-0.690940	-0.924503	0.373259
C39	C	-1.022444	-0.954438	0.343544
C40	C	-1.095800	-0.951195	0.346818
C41	C	-1.095795	-1.045085	0.253059
C42	C	-1.022442	-1.048323	0.249782
C43	C	-0.985771	-1.003002	0.295027
C44	C	-0.875948	-0.963265	0.334650
C45	C	-0.910794	-1.006322	0.291676
C46	C	-0.210536	-0.992994	0.305038
C47	C	-0.132473	-0.996516	0.301580
C48	C	-0.401165	-0.976596	0.497005
C49	C	-0.404337	-0.973130	0.575353
C50	C	-0.401227	-0.167915	0.305669
C51	C	-0.404400	-0.245980	0.302454
C52	C	-0.386261	-0.992876	0.130011
C53	C	-0.382897	-0.996487	0.051650
C54	C	-0.424473	-0.951175	1.018662
C55	C	-0.421483	-0.954430	0.945046
C56	C	-0.376919	-1.003001	0.904419
C57	C	-0.335338	-1.048315	0.937413
C58	C	-0.338325	-1.045056	1.011027
C59	C	-0.365742	-1.015185	0.681960
C60	C	-0.362760	-1.018442	0.608341
C61	C	-0.448904	-0.924555	0.615979
C62	C	-0.451891	-0.921304	0.689595
C63	C	-0.410307	-0.966615	0.722581
C64	C	-0.373863	-1.006330	0.829172
C65	C	-0.413359	-0.963282	0.797827
H66	H	-0.304734	-0.717436	0.402396
H67	H	-1.125662	-0.911654	0.386337
H68	H	-0.661081	-0.887598	0.410097
H69	H	-0.460765	-0.911625	1.051735
H70	H	-0.794148	-1.052052	0.245942
F71	F	-0.287895	-1.099995	0.894173
F72	F	-0.465732	-0.906199	0.909941
H73	H	-0.449699	-0.497488	0.256981
F74	F	-0.493101	-0.243560	0.213446
H75	H	-0.661080	-1.057933	0.239988
H76	H	-0.488180	-0.881752	0.722668
F77	F	-0.315498	-0.243684	0.391651
H78	H	-0.449639	-0.923732	0.830908
F79	F	-0.983424	-0.906202	0.391697
H80	H	-0.880929	-1.045867	0.252176
H81	H	-0.488152	-0.385806	0.218391
H82	H	-0.332070	-0.385909	0.375024
H83	H	-0.992581	-1.087869	0.210276
F84	F	-0.326635	-0.463516	0.380458
F85	F	-0.288178	-0.575203	0.419038
F86	F	-1.134829	-1.093318	0.204913
F87	F	-0.803329	-0.869574	0.428177
F88	F	-0.914990	-0.911578	0.386282
H89	H	-0.326467	-1.057995	0.575264
F90	F	-0.493155	-0.876332	0.580867
F91	F	-0.321515	-1.063438	0.717058
F92	F	-0.294066	-1.093278	1.046135
H93	H	-0.460819	-0.717324	0.245767
F94	F	-0.465759	-0.575085	0.240815
H95	H	-0.337581	-1.045879	0.796086
