data_functionalizedCrystal
_audit_creation_method	'MofGen! by Chris Wilmer'
_symmetry_space_group_name_H-M	'P1'
_symmetry_Int_Tables_number	1
_symmetry_cell_setting	triclinic
loop_
_symmetry_equiv_pos_as_xyz
  x,y,z
_cell_length_a	10.540514
_cell_length_b	10.540539
_cell_length_c	9.016244
_cell_angle_alpha	90.004647
_cell_angle_beta	90.002876
_cell_angle_gamma	84.520326
loop_
_atom_site_label
_atom_site_type_symbol
_atom_site_fract_x
_atom_site_fract_y
_atom_site_fract_z
O1	O	1.685902	0.178752	0.123351
O2	O	1.316484	0.195641	0.123349
O3	O	1.509621	0.002489	0.123349
O4	O	1.492765	0.371904	0.123352
O5	O	1.509613	0.002475	-0.123332
O6	O	1.316476	0.195627	-0.123331
O7	O	1.685893	0.178737	-0.123329
Cu8	Cu	1.501184	0.187181	-0.145854
Cu9	Cu	1.501194	0.187198	0.145874
O10	O	1.492757	0.371889	-0.123329
C11	C	1.269177	0.194374	0.000009
C12	C	1.128227	0.190605	0.000008
C13	C	1.057522	0.328745	0.000013
C14	C	0.910908	0.324871	0.000580
C15	C	0.935894	0.115486	0.140609
C16	C	1.082434	0.120340	0.140719
C17	C	1.082827	0.118279	-0.139813
C18	C	0.935848	0.116946	-0.141653
C19	C	1.508353	-0.044821	0.000011
C20	C	1.504571	-0.185769	0.000019
C21	C	1.359652	-0.369182	0.000572
C22	C	1.363486	-0.222564	0.000017
C23	C	1.572463	-0.247441	-0.140848
C24	C	1.567648	-0.393985	-0.140966
C25	C	1.570526	-0.394487	0.139556
C26	C	1.571826	-0.247505	0.141418
C27	C	1.733201	0.180004	0.000014
C28	C	1.874151	0.183774	0.000025
C29	C	1.494025	0.419199	0.000012
C30	C	1.497807	0.560147	0.000014
N31	N	1.501186	0.187168	-0.351040
C32	C	1.604888	0.084201	-0.586027
C33	C	1.604608	0.083808	-0.414136
C34	C	1.368480	0.157049	-0.413467
C35	C	1.369096	0.156327	-0.585411
C36	C	1.529029	0.320613	-0.585543
C37	C	1.532024	0.319741	-0.413587
N38	N	1.501201	0.187201	0.351060
H39	H	0.893291	0.162307	0.245632
H40	H	1.087753	0.383969	0.100680
H41	H	1.669114	-0.441963	-0.147356
H42	H	0.869180	0.378364	0.101951
H43	H	1.130083	0.016386	-0.141170
F44	F	1.510812	-0.191767	-0.277869
H45	H	1.623796	0.349270	-0.628895
F46	F	1.123987	0.178374	-0.279137
F47	F	0.855134	0.395083	-0.131106
H48	H	1.303924	-0.397771	0.101589
H49	H	0.894849	0.166851	-0.245659
F50	F	1.095447	0.402263	-0.131227
F51	F	1.706273	-0.215852	0.152547
F52	F	1.510839	-0.435701	0.279111
F53	F	1.286908	-0.409095	-0.130366
F54	F	1.507405	-0.193492	0.277648
H55	H	1.672431	-0.441722	0.140504
H56	H	1.703216	0.101919	-0.371928
H57	H	1.309684	-0.180809	-0.101131
H58	H	1.676071	-0.225096	-0.146085
H59	H	1.703825	0.102040	-0.627366
F60	F	1.581816	-0.044444	-0.642519
F61	F	1.581189	-0.045570	-0.360386
H62	H	1.344753	0.058993	-0.625533
H63	H	1.289560	0.228432	-0.627030
F64	F	1.293661	-0.166861	0.132003
F65	F	1.430220	0.420819	-0.638727
H66	H	1.110661	0.170227	0.246211
H67	H	1.289412	0.230018	-0.372598
F68	F	1.335916	0.031261	-0.357205
H69	H	1.629654	0.342569	-0.372786
H70	H	1.130440	0.018867	0.146721
F71	F	1.439828	0.424737	-0.357447
H72	H	0.913580	0.011855	0.145439
H73	H	0.911663	0.014100	-0.150561
H74	H	1.517466	-0.422186	-0.246267
