data_functionalizedCrystal
_audit_creation_method	'MofGen! by Chris Wilmer'
_symmetry_space_group_name_H-M	'P1'
_symmetry_Int_Tables_number	1
_symmetry_cell_setting	triclinic
loop_
_symmetry_equiv_pos_as_xyz
  x,y,z
_cell_length_a	12.827893
_cell_length_b	17.640280
_cell_length_c	12.827885
_cell_angle_alpha	78.769256
_cell_angle_beta	89.980728
_cell_angle_gamma	78.800662
loop_
_atom_site_label
_atom_site_type_symbol
_atom_site_fract_x
_atom_site_fract_y
_atom_site_fract_z
Zn1	Zn	1.681787	-0.314632	-0.506827
Zn2	Zn	2.181787	0.185368	-0.006827
Zn3	Zn	1.717023	-0.446826	-0.296785
Zn4	Zn	2.217023	0.053174	0.203215
Zn5	Zn	1.507038	-0.314670	-0.332090
Zn6	Zn	2.007038	0.185330	0.167910
Zn7	Zn	1.542340	-0.446767	-0.471501
Zn8	Zn	2.042340	0.053233	0.028499
O9	O	1.612047	-0.380724	-0.401801
O10	O	2.112047	0.119276	0.098199
O11	O	1.832699	-0.332176	-0.478973
O12	O	2.332699	0.167824	0.021027
O13	O	1.689141	-0.429336	-0.155221
O14	O	2.189141	0.070664	0.344779
O15	O	1.500699	-0.204058	-0.384829
O16	O	2.000699	0.295942	0.115171
O17	O	1.858587	-0.429298	-0.324656
O18	O	2.358587	0.070702	0.175344
O19	O	1.629086	-0.204030	-0.513207
O20	O	2.129086	0.295970	-0.013207
O21	O	1.534866	-0.332242	-0.181160
O22	O	2.034866	0.167758	0.318840
O23	O	1.365483	-0.332185	-0.350575
O24	O	1.865483	0.167815	0.149425
O25	O	1.560865	-0.429198	-0.622434
O26	O	2.060865	0.070802	-0.122434
O27	O	1.391419	-0.429235	-0.452999
O28	O	1.891419	0.070765	0.047001
O29	O	1.663316	-0.332119	-0.648388
O30	O	2.163316	0.167881	-0.148388
O31	O	1.723371	-0.557424	-0.290402
O32	O	2.223371	-0.057424	0.209598
O33	O	1.595032	-0.557381	-0.418765
O34	O	2.095032	-0.057381	0.081235
C35	C	1.340533	-0.380708	-0.401785
C36	C	1.840533	0.119292	0.098215
C37	C	1.224383	-0.380721	-0.401798
C38	C	1.724383	0.119279	0.098202
C39	C	1.185480	-0.428820	-0.452363
C40	C	1.685480	0.071180	0.047637
C41	C	1.065433	-0.428834	-0.452377
C42	C	1.565433	0.071166	0.047623
C43	C	1.666884	-0.586082	-0.346942
C44	C	2.166884	-0.086082	0.153058
C45	C	1.690439	-0.673935	-0.323508
C46	C	2.190439	-0.173935	0.176492
C47	C	1.433529	-0.962898	-0.580206
C48	C	1.933529	-0.462898	-0.080206
C49	C	1.455665	-1.045449	-0.558153
C50	C	1.955665	-0.545449	-0.058153
C51	C	1.589387	-1.045429	-0.424624
C52	C	2.089387	-0.545429	0.075376
C53	C	1.567266	-0.962876	-0.446669
C54	C	2.067266	-0.462876	0.053331
C55	C	1.489335	-0.921617	-0.524461
C56	C	1.989335	-0.421617	-0.024461
C57	C	1.623072	-0.921595	-0.390924
C58	C	2.123072	-0.421595	0.109076
C59	C	1.600949	-0.839049	-0.412964
C60	C	2.100949	-0.339049	0.087036
C61	C	1.523019	-0.797784	-0.490750
C62	C	2.023019	-0.297784	0.009250
C63	C	1.467212	-0.839071	-0.546501
C64	C	1.967212	-0.339071	-0.046501
C65	C	1.700998	-0.962855	-0.313128
C66	C	2.200998	-0.462855	0.186872
C67	C	1.756804	-0.921574	-0.257382
C68	C	2.256804	-0.421574	0.242618
C69	C	1.734686	-0.839027	-0.279427
C70	C	2.234686	-0.339027	0.220573
C71	C	1.656757	-0.797762	-0.357213
C72	C	2.156757	-0.297762	0.142787
C73	C	1.790494	-0.797740	-0.223676
C74	C	2.290494	-0.297740	0.276324
C75	C	1.768370	-0.715194	-0.245716
C76	C	2.268370	-0.215194	0.254284
C77	C	1.634633	-0.715216	-0.379253
C78	C	2.134633	-0.215216	0.120747
C79	C	1.884621	-0.380739	-0.401817
C80	C	2.384621	0.119261	0.098183
C81	C	2.000776	-0.380746	-0.401824
C82	C	2.500776	0.119254	0.098176
C83	C	1.612098	-0.380648	-0.674391
C84	C	2.112098	0.119352	-0.174391
C85	C	1.612119	-0.380615	-0.790553
C86	C	2.112119	0.119385	-0.290553
C87	C	1.557024	-0.174563	-0.456897
C88	C	2.057024	0.325437	0.043103
C89	C	1.533576	-0.086710	-0.480375
C90	C	2.033576	0.413290	0.019625
C91	C	1.662820	-0.332568	-0.855183
C92	C	2.162820	0.167432	-0.355183
C93	C	1.662843	-0.332534	-0.975243
C94	C	2.162843	0.167466	-0.475243
C95	C	1.612041	-0.380742	-0.130286
C96	C	2.112041	0.119258	0.369714
C97	C	1.612162	-0.380552	-0.014184
C98	C	2.112162	0.119448	0.485816
H99	H	1.168815	-0.339549	-0.358523
H100	H	1.668815	0.160451	0.141477
C101	C	1.721439	-0.277032	-0.809869
C102	C	2.221439	0.222968	-0.309869
H103	H	1.713740	-0.284345	-0.735118
H104	H	2.213740	0.215655	-0.235118
H105	H	1.691993	-0.223907	-0.841900
H106	H	2.191993	0.276093	-0.341900
H107	H	1.794763	-0.288594	-0.824619
H108	H	2.294763	0.211406	-0.324619
H109	H	1.652835	-1.079033	-0.361283
H110	H	2.152835	-0.579033	0.138717
H111	H	1.706254	-0.291401	-1.030773
H112	H	2.206254	0.208599	-0.530773
H113	H	1.403760	-0.805476	-0.609854
H114	H	1.903760	-0.305476	-0.109854
C115	C	1.829758	-0.669778	-0.184409
C116	C	2.329758	-0.169778	0.315591
H117	H	1.805414	-0.614708	-0.208672
H118	H	2.305414	-0.114708	0.291328
H119	H	1.903575	-0.683258	-0.196170
H120	H	2.403575	-0.183258	0.303830
H121	H	1.818138	-0.683342	-0.110554
H122	H	2.318138	-0.183342	0.389446
C123	C	1.347820	-0.917508	-0.665789
C124	C	1.847820	-0.417508	-0.165789
H125	H	1.317750	-0.953914	-0.695838
H126	H	1.817750	-0.453914	-0.195838
H127	H	1.379140	-0.885266	-0.719957
H128	H	1.879140	-0.385266	-0.219957
H129	H	1.293683	-0.885348	-0.634362
H130	H	1.793683	-0.385348	-0.134362
H131	H	1.568758	-0.421692	-0.958658
H132	H	2.068758	0.078308	-0.458658
C133	C	1.553499	-0.436154	-0.835862
C134	C	2.053499	0.063846	-0.335862
H135	H	1.521681	-0.466299	-0.779746
H136	H	2.021681	0.033701	-0.279746
H137	H	1.602703	-0.470552	-0.869255
H138	H	2.102703	0.029448	-0.369255
H139	H	1.499929	-0.405868	-0.886528
H140	H	1.999929	0.094132	-0.386528
H141	H	1.031929	-0.470015	-0.495664
H142	H	1.531929	0.029985	0.004336
C143	C	1.260532	-0.484438	-0.510835
C144	C	1.760532	0.015562	-0.010835
H145	H	1.220557	-0.514613	-0.542567
H146	H	1.720557	-0.014613	-0.042567
H147	H	1.312278	-0.518806	-0.461562
H148	H	1.812278	-0.018806	0.038438
H149	H	1.295051	-0.454203	-0.564470
H150	H	1.795051	0.045797	-0.064470
C151	C	1.046017	-0.325109	-0.343338
C152	C	1.546017	0.174891	0.156662
H153	H	0.989880	-0.294945	-0.311619
H154	H	1.489880	0.205055	0.188381
H155	H	1.079432	-0.290732	-0.392603
H156	H	1.579432	0.209268	0.107397
H157	H	1.096647	-0.355332	-0.289693
H158	H	1.596647	0.144668	0.210307
H159	H	1.820252	-0.955179	-0.194042
H160	H	2.320252	-0.455179	0.305958
C161	C	1.548917	-0.669822	-0.464828
C162	C	2.048917	-0.169822	0.035172
H163	H	1.543742	-0.614749	-0.469971
H164	H	2.043742	-0.114749	0.030029
H165	H	1.482347	-0.683395	-0.445856
H166	H	1.982347	-0.183395	0.054144
H167	H	1.567798	-0.683310	-0.531458
H168	H	2.067798	-0.183310	-0.031458
C169	C	1.394280	-1.090856	-0.619486
C170	C	1.894280	-0.590856	-0.119486
H171	H	1.344707	-1.054459	-0.668976
H172	H	1.844707	-0.554459	-0.168976
H173	H	1.357413	-1.123104	-0.570865
H174	H	1.857413	-0.623104	-0.070865
H175	H	1.442857	-1.123011	-0.656473
H176	H	1.942857	-0.623011	-0.156473
C177	C	1.725335	-1.053654	-0.288877
C178	C	2.225335	-0.553654	0.211123
H179	H	1.779729	-1.072314	-0.234554
H180	H	2.279729	-0.572314	0.265446
H181	H	1.748367	-1.072293	-0.351350
H182	H	2.248367	-0.572293	0.148650
H183	H	1.662920	-1.072372	-0.265744
H184	H	2.162920	-0.572372	0.234256
C185	C	1.876209	-0.843131	-0.138110
C186	C	2.376209	-0.343131	0.361890
H187	H	1.881393	-0.898204	-0.132970
H188	H	2.381393	-0.398204	0.367030
H189	H	1.857343	-0.829638	-0.071485
H190	H	2.357343	-0.329638	0.428515
H191	H	1.942781	-0.829560	-0.157100
H192	H	2.442781	-0.329560	0.342900
H193	H	1.505001	-0.730570	-0.508686
H194	H	2.005001	-0.230570	-0.008686
