data_functionalizedCrystal
_audit_creation_method	'MofGen! by Chris Wilmer'
_symmetry_space_group_name_H-M	'P1'
_symmetry_Int_Tables_number	1
_symmetry_cell_setting	triclinic
loop_
_symmetry_equiv_pos_as_xyz
  x,y,z
_cell_length_a	18.050591
_cell_length_b	18.050590
_cell_length_c	11.169409
_cell_angle_alpha	90.037983
_cell_angle_beta	90.028021
_cell_angle_gamma	90.015000
loop_
_atom_site_label
_atom_site_type_symbol
_atom_site_fract_x
_atom_site_fract_y
_atom_site_fract_z
Zn1	Zn	1.135403	-0.295670	0.678758
Zn2	Zn	1.385403	-0.045670	0.928758
Zn3	Zn	1.635403	0.204330	1.178758
Zn4	Zn	1.885403	0.454330	1.428758
Zn5	Zn	1.135317	-0.419885	0.478055
Zn6	Zn	1.385317	-0.169885	0.728055
Zn7	Zn	1.635317	0.080115	0.978055
Zn8	Zn	1.885317	0.330115	1.228055
Zn9	Zn	1.011204	-0.295705	0.478064
Zn10	Zn	1.261204	-0.045705	0.728064
Zn11	Zn	1.511204	0.204295	0.978064
Zn12	Zn	1.761204	0.454295	1.228064
Zn13	Zn	1.011191	-0.419815	0.678671
Zn14	Zn	1.261191	-0.169815	0.928671
Zn15	Zn	1.511191	0.080185	1.178671
Zn16	Zn	1.761191	0.330185	1.428671
O17	O	1.073279	-0.357769	0.578387
O18	O	1.323279	-0.107769	0.828387
O19	O	1.573279	0.142231	1.078387
O20	O	1.823279	0.392231	1.328387
O21	O	1.239316	-0.312161	0.652167
O22	O	1.489316	-0.062161	0.902167
O23	O	1.739316	0.187839	1.152167
O24	O	1.989316	0.437839	1.402167
O25	O	1.118822	-0.403456	0.310106
O26	O	1.368822	-0.153456	0.560106
O27	O	1.618822	0.096544	0.810106
O28	O	1.868822	0.346544	1.060106
O29	O	1.027721	-0.191776	0.504726
O30	O	1.277721	0.058224	0.754726
O31	O	1.527721	0.308224	1.004726
O32	O	1.777721	0.558224	1.254726
O33	O	1.239253	-0.403422	0.504712
O34	O	1.489253	-0.153422	0.754712
O35	O	1.739253	0.096578	1.004712
O36	O	1.989253	0.346578	1.254712
O37	O	1.118969	-0.191750	0.652175
O38	O	1.368969	0.058250	0.902175
O39	O	1.618969	0.308250	1.152175
O40	O	1.868969	0.558250	1.402175
O41	O	1.027637	-0.312222	0.310113
O42	O	1.277637	-0.062222	0.560113
O43	O	1.527637	0.187778	0.810113
O44	O	1.777637	0.437778	1.060113
O45	O	0.907278	-0.312154	0.504642
O46	O	1.157278	-0.062154	0.754642
O47	O	1.407278	0.187846	1.004642
O48	O	1.657278	0.437846	1.254642
O49	O	1.027699	-0.403302	0.846633
O50	O	1.277699	-0.153302	1.096633
O51	O	1.527699	0.096698	1.346633
O52	O	1.777699	0.346698	1.596633
O53	O	0.907268	-0.403337	0.652028
O54	O	1.157268	-0.153337	0.902028
O55	O	1.407268	0.096663	1.152028
O56	O	1.657268	0.346663	1.402028
O57	O	1.118957	-0.312093	0.846696
O58	O	1.368957	-0.062093	1.096696
O59	O	1.618957	0.187907	1.346696
O60	O	1.868957	0.437907	1.596696
O61	O	1.118810	-0.523800	0.504627
O62	O	1.368810	-0.273800	0.754627
O63	O	1.618810	-0.023800	1.004627
O64	O	1.868810	0.226200	1.254627
O65	O	1.027615	-0.523748	0.652019
O66	O	1.277615	-0.273748	0.902019
O67	O	1.527615	-0.023748	1.152019
O68	O	1.777615	0.226252	1.402019
C69	C	0.880327	-0.357742	0.578327
C70	C	1.130327	-0.107742	0.828327
C71	C	1.380327	0.142258	1.078327
C72	C	1.630327	0.392258	1.328327
C73	C	0.797781	-0.357749	0.578330
C74	C	1.047781	-0.107749	0.828330
C75	C	1.297781	0.142251	1.078330
C76	C	1.547781	0.392251	1.328330
C77	C	1.073222	-0.550721	0.578339
C78	C	1.323222	-0.300721	0.828339
C79	C	1.573222	-0.050721	1.078339
C80	C	1.823222	0.199279	1.328339
C81	C	1.073265	-0.633266	0.578359
C82	C	1.323265	-0.383266	0.828359
C83	C	1.573265	-0.133266	1.078359
C84	C	1.823265	0.116734	1.328359
C85	C	0.548939	-0.308113	0.498371
C86	C	0.798939	-0.058113	0.748371
C87	C	1.048939	0.191887	0.998371
C88	C	1.298939	0.441887	1.248371
C89	C	0.598378	-0.290014	0.607903
C90	C	0.848378	-0.040014	0.857903
C91	C	1.098378	0.209986	1.107903
C92	C	1.348378	0.459986	1.357903
C93	C	0.500661	-0.357787	0.578428
C94	C	0.750661	-0.107787	0.828428
C95	C	1.000661	0.142213	1.078428
C96	C	1.250661	0.392213	1.328428
C97	C	0.598303	-0.375832	0.468854
C98	C	0.848303	-0.125832	0.718854
C99	C	1.098303	0.124168	0.968854
C100	C	1.348303	0.374168	1.218854
C101	C	0.646646	-0.357767	0.578374
C102	C	0.896646	-0.107767	0.828374
C103	C	1.146646	0.142233	1.078374
C104	C	1.396646	0.392233	1.328374
C105	C	0.549012	-0.339654	0.688018
C106	C	0.799012	-0.089654	0.938018
C107	C	1.049012	0.160346	1.188018
C108	C	1.299012	0.410346	1.438018
C109	C	0.548933	-0.425503	0.548896
C110	C	0.798933	-0.175503	0.798896
C111	C	1.048933	0.074497	1.048896
C112	C	1.298933	0.324497	1.298896
C113	C	0.598350	-0.407430	0.658503
C114	C	0.848350	-0.157430	0.908503
C115	C	1.098350	0.092570	1.158503
C116	C	1.348350	0.342570	1.408503
C117	C	0.416562	-0.357797	0.578458
C118	C	0.666562	-0.107797	0.828458
C119	C	0.916562	0.142203	1.078458
C120	C	1.166562	0.392203	1.328458
C121	C	0.730742	-0.357757	0.578357
C122	C	0.980742	-0.107757	0.828357
C123	C	1.230742	0.142243	1.078357
C124	C	1.480742	0.392243	1.328357
C125	C	1.122960	-0.832718	0.498319
C126	C	1.372960	-0.582718	0.748319
C127	C	1.622960	-0.332718	0.998319
C128	C	1.872960	-0.082718	1.248319
C129	C	1.141105	-0.882040	0.607859
C130	C	1.391105	-0.632040	0.857859
C131	C	1.641105	-0.382040	1.107859
C132	C	1.891105	-0.132040	1.357859
C133	C	1.073307	-0.784397	0.578407
C134	C	1.323307	-0.534397	0.828407
C135	C	1.573307	-0.284397	1.078407
C136	C	1.823307	-0.034397	1.328407
C137	C	1.055238	-0.882156	0.468916
C138	C	1.305238	-0.632156	0.718916
C139	C	1.555238	-0.382156	0.968916
C140	C	1.805238	-0.132156	1.218916
C141	C	1.073350	-0.930382	0.578443
C142	C	1.323350	-0.680382	0.828443
C143	C	1.573350	-0.430382	1.078443
C144	C	1.823350	-0.180382	1.328443
C145	C	1.091487	-0.832632	0.688005
C146	C	1.341487	-0.582632	0.938005
C147	C	1.591487	-0.332632	1.188005
C148	C	1.841487	-0.082632	1.438005
C149	C	1.005588	-0.832743	0.548987
C150	C	1.255588	-0.582743	0.798987
C151	C	1.505588	-0.332743	1.048987
C152	C	1.755588	-0.082743	1.298987
C153	C	1.023708	-0.882043	0.658603
C154	C	1.273708	-0.632043	0.908603
C155	C	1.523708	-0.382043	1.158603
C156	C	1.773708	-0.132043	1.408603
C157	C	1.073285	-0.700298	0.578384
C158	C	1.323285	-0.450298	0.828384
C159	C	1.573285	-0.200298	1.078384
C160	C	1.823285	0.049702	1.328384
C161	C	1.073372	-1.014478	0.578478
C162	C	1.323372	-0.764478	0.828478
C163	C	1.573372	-0.514478	1.078478
C164	C	1.823372	-0.264478	1.328478
C165	C	1.266984	-0.357795	0.578448
C166	C	1.516984	-0.107795	0.828448
C167	C	1.766984	0.142205	1.078448
C168	C	2.016984	0.392205	1.328448
C169	C	1.349530	-0.357807	0.578474
C170	C	1.599530	-0.107807	0.828474
C171	C	1.849530	0.142193	1.078474
C172	C	2.099530	0.392193	1.328474
C173	C	1.073336	-0.357686	0.891430
C174	C	1.323336	-0.107686	1.141430
C175	C	1.573336	0.142314	1.391430
C176	C	1.823336	0.392314	1.641430
C177	C	1.073360	-0.357651	1.024830
C178	C	1.323360	-0.107651	1.274830
C179	C	1.573360	0.142349	1.524830
C180	C	1.823360	0.392349	1.774830
C181	C	1.073356	-0.164063	0.578461
C182	C	1.323356	0.085937	0.828461
C183	C	1.573356	0.335937	1.078461
C184	C	1.823356	0.585937	1.328461
C185	C	1.073389	-0.081517	0.578493
C186	C	1.323389	0.168483	0.828493
C187	C	1.573389	0.418483	1.078493
C188	C	1.823389	0.668483	1.328493
C189	C	1.073265	-0.357797	0.266562
C190	C	1.323265	-0.107797	0.516562
C191	C	1.573265	0.142203	0.766562
C192	C	1.823265	0.392203	1.016562
C193	C	1.073384	-0.357623	0.133163
C194	C	1.323384	-0.107623	0.383163
C195	C	1.573384	0.142377	0.633163
C196	C	1.823384	0.392377	0.883163
H197	H	0.527246	-0.266082	0.430776
H198	H	0.777246	-0.016082	0.680776
H199	H	1.027246	0.233918	0.930776
H200	H	1.277246	0.483918	1.180776
H201	H	1.198392	-0.903697	0.632766
H202	H	1.448392	-0.653697	0.882766
H203	H	1.698392	-0.403697	1.132766
H204	H	1.948392	-0.153697	1.382766
H205	H	1.106731	-0.810971	0.780694
H206	H	1.356731	-0.560971	1.030694
H207	H	1.606731	-0.310971	1.280694
H208	H	1.856731	-0.060971	1.530694
H209	H	1.039937	-0.903909	0.376306
H210	H	1.289937	-0.653909	0.626306
H211	H	1.539937	-0.403909	0.876306
H212	H	1.789937	-0.153909	1.126306
H213	H	0.620083	-0.232737	0.632881
H214	H	0.870083	0.017263	0.882881
H215	H	1.120083	0.267263	1.132881
H216	H	1.370083	0.517263	1.382881
Cl217	Cl	1.187807	-0.799275	0.393860
Cl218	Cl	1.437807	-0.549275	0.643860
Cl219	Cl	1.687807	-0.299275	0.893860
Cl220	Cl	1.937807	-0.049275	1.143860
Cl221	Cl	0.515726	-0.315971	0.831093
Cl222	Cl	0.765726	-0.065971	1.081093
Cl223	Cl	1.015726	0.184029	1.331093
Cl224	Cl	1.265726	0.434029	1.581093
Cl225	Cl	0.631635	-0.472276	0.763108
Cl226	Cl	0.881635	-0.222276	1.013108
Cl227	Cl	1.131635	0.027724	1.263108
Cl228	Cl	1.381635	0.277724	1.513108
Cl229	Cl	0.958907	-0.915276	0.763309
Cl230	Cl	1.208907	-0.665276	1.013309
Cl231	Cl	1.458907	-0.415276	1.263309
Cl232	Cl	1.708907	-0.165276	1.513309
Cl233	Cl	0.631736	-0.399410	0.325824
Cl234	Cl	0.881736	-0.149410	0.575824
Cl235	Cl	1.131736	0.100590	0.825824
Cl236	Cl	1.381736	0.350590	1.075824
Cl237	Cl	0.515371	-0.513904	0.510302
Cl238	Cl	0.765371	-0.263904	0.760302
Cl239	Cl	1.015371	-0.013904	1.010302
Cl240	Cl	1.265371	0.236096	1.260302
Cl241	Cl	0.917164	-0.799285	0.510487
Cl242	Cl	1.167164	-0.549285	0.760487
Cl243	Cl	1.417164	-0.299285	1.010487
Cl244	Cl	1.667164	-0.049285	1.260487
