data_functionalizedCrystal
_audit_creation_method	'MofGen! by Chris Wilmer'
_symmetry_space_group_name_H-M	'P1'
_symmetry_Int_Tables_number	1
_symmetry_cell_setting	triclinic
loop_
_symmetry_equiv_pos_as_xyz
  x,y,z
_cell_length_a	14.908571
_cell_length_b	21.395356
_cell_length_c	21.395361
_cell_angle_alpha	90.028219
_cell_angle_beta	93.273486
_cell_angle_gamma	86.683919
loop_
_atom_site_label
_atom_site_type_symbol
_atom_site_fract_x
_atom_site_fract_y
_atom_site_fract_z
Zn1	Zn	1.379182	-0.409428	0.304815
Zn2	Zn	1.379044	-0.304644	0.409586
Zn3	Zn	1.228308	-0.298629	0.298775
Zn4	Zn	1.228261	-0.403352	0.403500
O5	O	1.303699	-0.354013	0.354169
O6	O	1.505408	-0.400587	0.323787
O7	O	1.359011	-0.216166	0.394906
O8	O	1.248398	-0.313352	0.211902
O9	O	1.505307	-0.323603	0.400762
O10	O	1.359245	-0.394755	0.216339
O11	O	1.248265	-0.211748	0.313494
O12	O	1.102057	-0.307461	0.307593
O13	O	1.248319	-0.491838	0.390390
O14	O	1.102023	-0.384401	0.384534
O15	O	1.359200	-0.496301	0.317886
O16	O	1.358966	-0.317712	0.496453
O17	O	1.248186	-0.390233	0.491982
C18	C	1.069306	-0.344620	0.344749
C19	C	0.969032	-0.340616	0.340733
C20	C	1.303580	-0.353981	0.516952
C21	C	1.303612	-0.353991	0.586594
C22	C	1.303770	-0.517439	0.354133
C23	C	1.303800	-0.587082	0.354118
C24	C	0.780619	-0.413102	0.413432
C25	C	0.686403	-0.409342	0.409661
C26	C	0.686381	-0.329341	0.329419
C27	C	0.780598	-0.333100	0.333190
C28	C	0.827713	-0.374982	0.375198
C29	C	0.921932	-0.378738	0.378971
C30	C	0.921908	-0.298740	0.298727
C31	C	0.827692	-0.294980	0.294956
C32	C	1.539006	-0.363444	0.363627
C33	C	1.639281	-0.367462	0.367657
C34	C	1.246150	-0.617485	0.311723
C35	C	1.246147	-0.682920	0.311711
C36	C	1.303810	-0.717951	0.354088
C37	C	1.361464	-0.687540	0.396491
C38	C	1.361459	-0.622106	0.396506
C39	C	1.385093	-0.824888	0.362277
C40	C	1.385100	-0.890322	0.362258
C41	C	1.303825	-0.919772	0.354047
C42	C	1.222541	-0.883781	0.345841
C43	C	1.222536	-0.818347	0.345856
C44	C	1.303821	-0.788904	0.354077
C45	C	1.246167	-1.021127	0.311636
C46	C	1.246162	-1.086564	0.311629
C47	C	1.361487	-1.091183	0.396406
C48	C	1.361483	-1.025747	0.396417
C49	C	1.303825	-0.990723	0.354029
C50	C	1.303680	-0.191225	0.354162
C51	C	1.303825	-0.121590	0.354008
C52	C	1.361346	-0.316274	0.621617
C53	C	1.361389	-0.316292	0.687054
C54	C	1.303681	-0.354021	0.717465
C55	C	1.245942	-0.391745	0.682435
C56	C	1.245908	-0.391731	0.617000
C57	C	1.222451	-0.355686	0.817919
C58	C	1.222484	-0.355696	0.883354
C59	C	1.303787	-0.354070	0.919290
C60	C	1.385059	-0.352421	0.889785
C61	C	1.385025	-0.352406	0.824350
C62	C	1.303712	-0.354041	0.788419
C63	C	1.361571	-0.316371	1.025267
C64	C	1.361615	-0.316394	1.090706
C65	C	1.246161	-0.391844	1.086085
C66	C	1.246125	-0.391825	1.020649
C67	C	1.303829	-0.354085	0.990243
C68	C	1.303843	-0.354071	1.190751
C69	C	1.303908	-0.354124	1.121113
H70	H	0.960292	-0.412839	0.413178
O71	O	1.190007	-0.583488	0.270613
C72	C	1.100084	-0.595871	0.280676
H73	H	1.095486	-0.613658	0.330542
H74	H	1.055511	-0.551048	0.273495
H75	H	1.076540	-0.632916	0.246131
H76	H	0.818982	-0.447200	0.447640
H77	H	0.648062	-0.440385	0.440794
O78	O	1.464095	-0.796353	0.370342
C79	C	1.506730	-0.814029	0.428698
H80	H	1.481358	-0.860514	0.444144
H81	H	1.582615	-0.819321	0.424203
H82	H	1.490692	-0.776547	0.464933
O83	O	1.417364	-0.996178	0.437657
C84	C	1.365967	-0.956236	0.476057
H85	H	1.294911	-0.973093	0.477068
H86	H	1.398554	-0.956793	0.525585
H87	H	1.362873	-0.906525	0.456572
H88	H	1.156307	-0.357033	0.907372
O89	O	0.640465	-0.288697	0.288647
C90	C	0.547210	-0.293581	0.293496
H91	H	0.534327	-0.313475	0.341370
H92	H	0.511344	-0.245238	0.287716
H93	H	0.520550	-0.325978	0.255323
O94	O	1.464128	-0.925207	0.370148
C95	C	1.520367	-0.911495	0.321777
H96	H	1.499508	-0.863153	0.301667
H97	H	1.593190	-0.912174	0.341288
H98	H	1.513880	-0.948070	0.283264
H99	H	1.199203	-0.707679	0.277185
H100	H	1.156352	-0.789046	0.339176
H101	H	0.789317	-0.260883	0.260752
H102	H	0.960262	-0.267698	0.267595
H103	H	1.156359	-0.907758	0.339150
H104	H	1.199217	-0.992610	0.277122
O105	O	1.143385	-0.357247	0.783107
C106	C	1.071665	-0.358719	0.823178
H107	H	1.093058	-0.338538	0.870681
H108	H	1.011033	-0.329647	0.801892
H109	H	1.052908	-0.409160	0.829365
O110	O	1.190128	-1.116001	0.270384
C111	C	1.139225	-1.071053	0.232988
H112	H	1.176178	-1.025898	0.232315
H113	H	1.129653	-1.089589	0.183233
H114	H	1.070685	-1.061326	0.253174
H115	H	1.408561	-0.285643	1.000511
H116	H	1.451199	-0.351065	0.800328
H117	H	1.198958	-0.422465	0.707200
O118	O	1.189735	-0.428385	0.583069
C119	C	1.138827	-0.461706	0.623940
H120	H	1.135746	-0.435930	0.670481
H121	H	1.067732	-0.465497	0.602220
H122	H	1.171835	-0.510634	0.632167
H123	H	1.408408	-0.597352	0.431029
H124	H	1.408635	-0.285682	1.119220
H125	H	1.408413	-0.716066	0.430995
O126	O	1.417630	-1.125136	0.437547
C127	C	1.507554	-1.112779	0.427459
H128	H	1.509436	-1.065353	0.403456
H129	H	1.547968	-1.112149	0.474302
H130	H	1.537973	-1.150840	0.396463
O131	O	1.417492	-0.279605	0.592183
C132	C	1.468446	-0.246308	0.637132
H133	H	1.471568	-0.272107	0.683882
H134	H	1.539523	-0.242512	0.621043
H135	H	1.435450	-0.197382	0.642817
O136	O	1.417335	-0.279600	0.721140
C137	C	1.365992	-0.237050	0.756965
H138	H	1.297626	-0.256389	0.764053
H139	H	1.402759	-0.230134	0.804437
H140	H	1.356074	-0.190219	0.731376
H141	H	1.199178	-0.422566	1.110846
O142	O	1.464038	-0.350960	0.924710
C143	C	1.475628	-0.404775	0.962984
H144	H	1.434176	-0.443371	0.941597
H145	H	1.549775	-0.421428	0.966639
H146	H	1.452307	-0.393044	1.011665
H147	H	1.199109	-0.422535	0.992131
