data_functionalizedCrystal
_audit_creation_method	'MofGen! by Chris Wilmer'
_symmetry_space_group_name_H-M	'P1'
_symmetry_Int_Tables_number	1
_symmetry_cell_setting	triclinic
loop_
_symmetry_equiv_pos_as_xyz
  x,y,z
_cell_length_a	14.044191
_cell_length_b	19.188924
_cell_length_c	13.101018
_cell_angle_alpha	86.654714
_cell_angle_beta	93.666878
_cell_angle_gamma	88.166870
loop_
_atom_site_label
_atom_site_type_symbol
_atom_site_fract_x
_atom_site_fract_y
_atom_site_fract_z
O1	O	1.262238	0.164784	0.085174
O2	O	0.986294	0.158706	0.085186
O3	O	1.132232	0.060603	0.085168
O4	O	1.116300	0.262886	0.085192
O5	O	1.121749	0.067648	-0.085261
O6	O	0.975811	0.165750	-0.085243
O7	O	1.251755	0.171828	-0.085255
Zn8	Zn	1.112119	0.169908	-0.112308
Zn9	Zn	1.125930	0.160626	0.112239
O10	O	1.105817	0.269931	-0.085237
C11	C	0.945750	0.159569	-0.000027
C12	C	0.840557	0.151638	-0.000022
C13	C	0.590096	0.193386	-0.000027
C14	C	0.647959	0.137151	-0.000033
C15	C	0.755130	0.145213	-0.000027
C16	C	0.482915	0.185325	-0.000033
C17	C	1.126475	0.038081	-0.000048
C18	C	1.124930	-0.039523	-0.000051
C19	C	1.129923	-0.079808	0.092851
C20	C	1.128457	-0.152726	0.092858
C21	C	1.122018	-0.185356	-0.000040
C22	C	1.117019	-0.145061	-0.092954
C23	C	1.118475	-0.072144	-0.092959
N24	N	1.169405	-0.298828	-0.069185
N25	N	1.168025	-0.368096	-0.069173
C26	C	1.117629	-0.405049	-0.000030
N27	N	1.068679	-0.370118	0.069117
N28	N	1.070064	-0.300844	0.069109
C29	C	1.120438	-0.264421	-0.000045
C30	C	1.121032	-0.524400	0.092886
C31	C	1.119561	-0.597319	0.092890
C32	C	1.108132	-0.589652	-0.092925
C33	C	1.109594	-0.516735	-0.092926
C34	C	1.116049	-0.484113	-0.000018
C35	C	1.292300	0.170965	-0.000040
C36	C	1.397493	0.178896	-0.000038
C37	C	1.111574	0.292452	-0.000019
C38	C	1.113120	0.370057	-0.000010
N39	N	1.102700	0.176242	-0.265556
C40	C	1.148167	0.145665	-0.525471
C41	C	1.089892	0.184862	-0.474591
C42	C	1.097020	0.180065	-0.358273
C43	C	1.141041	0.150461	-0.641800
N44	N	1.135357	0.154287	0.265487
H45	H	0.621043	0.247582	-0.000018
O46	O	0.611014	0.072494	0.000150
C47	C	0.559919	0.060855	0.088405
H48	H	0.587020	0.096213	0.150094
H49	H	0.480699	0.073015	0.068449
C50	C	0.541225	-0.059479	0.052669
C51	C	0.574517	-0.016055	0.128440
H52	H	0.550225	-0.106921	0.077362
H53	H	0.575645	-0.051637	-0.006793
H54	H	0.475211	-0.049337	0.036045
H55	H	0.640532	-0.026191	0.145053
H56	H	0.540108	-0.023900	0.187905
H57	H	1.123622	-0.630118	0.168544
H58	H	1.132517	-0.185533	0.168512
O59	O	1.024037	0.229292	-0.526721
C60	C	1.040809	0.298288	-0.500605
H61	H	1.082035	0.297309	-0.422668
H62	H	1.084276	0.325255	-0.560952
C63	C	0.894092	0.339752	-0.591562
C64	C	0.944719	0.338550	-0.495834
H65	H	0.834821	0.364589	-0.588623
H66	H	0.882793	0.293269	-0.609160
H67	H	0.930325	0.362224	-0.641841
H68	H	0.908492	0.316071	-0.445559
H69	H	0.956010	0.385030	-0.478227
H70	H	1.126283	-0.497838	0.168537
O71	O	1.104794	-0.477704	-0.183263
C72	C	1.098774	-0.522135	-0.265259
H73	H	1.129401	-0.576260	-0.238019
H74	H	1.020856	-0.526118	-0.293826
C75	C	1.118466	-0.425701	-0.386489
C76	C	1.156089	-0.492176	-0.353035
H77	H	1.153816	-0.407220	-0.440636
H78	H	1.122518	-0.395765	-0.331248
H79	H	1.053535	-0.429028	-0.410288
H80	H	1.221015	-0.488846	-0.329225
H81	H	1.152049	-0.522110	-0.408275
H82	H	1.203408	0.108508	-0.481679
H83	H	1.111773	-0.171633	-0.168592
O84	O	1.136144	-0.048231	0.183190
C85	C	1.140259	-0.099431	0.265190
H86	H	1.107555	-0.149263	0.237957
H87	H	1.217869	-0.110954	0.293751
C88	C	1.124264	-0.011276	0.386415
C89	C	1.084088	-0.072478	0.352969
H90	H	1.089619	0.005351	0.440564
H91	H	1.121495	0.023219	0.331171
H92	H	1.188938	-0.020886	0.410209
H93	H	1.019419	-0.062865	0.329164
H94	H	1.086845	-0.106971	0.408211
H95	H	1.102882	-0.616218	-0.168565
O96	O	1.113661	-0.033113	-0.183299
C97	C	1.107632	-0.077543	-0.265296
H98	H	1.138263	-0.131668	-0.238063
H99	H	1.029712	-0.081526	-0.293853
C100	C	1.127308	0.018894	-0.386527
C101	C	1.164936	-0.047582	-0.353080
H102	H	1.162651	0.037376	-0.440679
H103	H	1.131366	0.048828	-0.331285
H104	H	1.062375	0.015566	-0.410317
H105	H	1.229864	-0.044251	-0.329279
H106	H	1.160890	-0.077515	-0.408321
