data_functionalizedCrystal
_audit_creation_method	'MofGen! by Chris Wilmer'
_symmetry_space_group_name_H-M	'P1'
_symmetry_Int_Tables_number	1
_symmetry_cell_setting	triclinic
loop_
_symmetry_equiv_pos_as_xyz
  x,y,z
_cell_length_a	14.044191
_cell_length_b	16.109302
_cell_length_c	15.186229
_cell_angle_alpha	89.994701
_cell_angle_beta	90.000101
_cell_angle_gamma	91.673221
loop_
_atom_site_label
_atom_site_type_symbol
_atom_site_fract_x
_atom_site_fract_y
_atom_site_fract_z
O1	O	-0.121838	1.112198	-0.073262
O2	O	0.211495	1.445531	0.260072
O3	O	0.544829	1.778864	0.593405
O4	O	-0.136999	0.871264	-0.073254
O5	O	0.196334	1.204598	0.260079
O6	O	0.529667	1.537931	0.593413
O7	O	0.008565	0.988112	-0.073259
O8	O	0.341898	1.321445	0.260074
O9	O	0.675232	1.654778	0.593407
O10	O	-0.267402	0.995350	-0.073256
O11	O	0.065931	1.328684	0.260077
O12	O	0.399264	1.662017	0.593410
O13	O	0.008567	0.988103	0.073198
O14	O	0.341900	1.321436	0.406531
O15	O	0.675234	1.654770	0.739864
O16	O	-0.136997	0.871256	0.073203
O17	O	0.196336	1.204589	0.406537
O18	O	0.529669	1.537922	0.739870
O19	O	-0.121836	1.112189	0.073195
O20	O	0.211497	1.445522	0.406529
O21	O	0.544831	1.778856	0.739862
Zn22	Zn	-0.129416	0.991721	0.096453
Zn23	Zn	0.203917	1.325054	0.429786
Zn24	Zn	0.537250	1.658388	0.763119
Zn25	Zn	-0.129419	0.991732	-0.096511
Zn26	Zn	0.203914	1.325066	0.236822
Zn27	Zn	0.537248	1.658399	0.570155
O28	O	-0.267400	0.995342	0.073201
O29	O	0.065933	1.328675	0.406534
O30	O	0.399266	1.662008	0.739868
C31	C	-0.136384	0.840239	-0.000025
C32	C	0.196949	1.173573	0.333309
C33	C	0.530282	1.506906	0.666642
C34	C	-0.134543	0.747807	-0.000022
C35	C	0.198791	1.081140	0.333311
C36	C	0.532124	1.414474	0.666645
C37	C	-0.130283	0.535144	0.079803
C38	C	0.203050	0.868478	0.413137
C39	C	0.536384	1.201811	0.746470
C40	C	-0.128542	0.448295	0.079800
C41	C	0.204791	0.781628	0.413133
C42	C	0.538124	1.114961	0.746467
C43	C	-0.128550	0.448315	-0.079876
C44	C	0.204784	0.781648	0.253458
C45	C	0.538117	1.114982	0.586791
C46	C	-0.130283	0.535163	-0.079872
C47	C	0.203050	0.868497	0.253462
C48	C	0.536383	1.201830	0.586795
C49	C	-0.131155	0.578576	-0.000030
C50	C	0.202178	0.911909	0.333304
C51	C	0.535512	1.245242	0.666637
C52	C	-0.127681	0.404878	-0.000037
C53	C	0.205653	0.738211	0.333297
C54	C	0.538986	1.071544	0.666630
C55	C	-0.125793	0.310712	-0.000041
C56	C	0.207540	0.644045	0.333293
C57	C	0.540873	0.977378	0.666626
C58	C	-0.133040	0.672748	-0.000025
C59	C	0.200293	1.006081	0.333308
C60	C	0.533626	1.339415	0.666641
C61	C	-0.302715	0.998513	-0.000027
C62	C	0.030618	1.331846	0.333306
C63	C	0.363952	1.665180	0.666639
C64	C	-0.407938	1.007959	-0.000027
C65	C	-0.074605	1.341292	0.333307
C66	C	0.258729	1.674626	0.666640
C67	C	-0.658240	0.958234	-0.000033
C68	C	-0.324906	1.291568	0.333301
C69	C	0.008427	1.624901	0.666634
C70	C	-0.600590	1.025215	-0.000034
C71	C	-0.267257	1.358549	0.333300
C72	C	0.066076	1.691882	0.666633
C73	C	-0.493389	1.015612	-0.000030
C74	C	-0.160055	1.348945	0.333304
C75	C	0.173278	1.682278	0.666637
C76	C	-0.765451	0.967837	-0.000037
C77	C	-0.432118	1.301170	0.333297
C78	C	-0.098784	1.634503	0.666630
C79	C	0.043879	0.984940	-0.000033
C80	C	0.377213	1.318274	0.333300
C81	C	0.710546	1.651607	0.666634
C82	C	0.149103	0.975494	-0.000040
C83	C	0.482436	1.308828	0.333294
C84	C	0.815769	1.642161	0.666627
C85	C	-0.122451	1.143214	-0.000036
C86	C	0.210882	1.476547	0.333297
C87	C	0.544215	1.809881	0.666631
C88	C	-0.124293	1.235646	-0.000044
C89	C	0.209040	1.568980	0.333289
C90	C	0.542374	1.902313	0.666622
N91	N	-0.129414	0.991719	0.228145
N92	N	0.203919	1.325053	0.561479
N93	N	0.537253	1.658386	0.894812
N94	N	-0.129414	0.991740	-0.228204
N95	N	0.203919	1.325073	0.105129
N96	N	0.537253	1.658407	0.438463
C97	C	-0.064980	1.043480	0.453866
C98	C	0.268354	1.376813	0.787199
C99	C	0.601687	1.710147	1.120532
C100	C	-0.064977	1.043482	0.546055
C101	C	0.268356	1.376816	0.879389
C102	C	0.601689	1.710149	1.212722
C103	C	-0.193851	0.939974	0.546069
C104	C	0.139482	1.273307	0.879403
C105	C	0.472815	1.606640	1.212736
C106	C	-0.193848	0.939967	0.453881
C107	C	0.139485	1.273301	0.787215
C108	C	0.472818	1.606634	1.120548
C109	C	-0.129414	0.991725	0.407782
C110	C	0.203920	1.325059	0.741115
C111	C	0.537253	1.658392	1.074449
C112	C	-0.129414	0.991734	0.592160
C113	C	0.203919	1.325067	0.925493
C114	C	0.537252	1.658401	1.258826
C115	C	-0.129412	0.991736	0.692116
C116	C	0.203921	1.325070	1.025449
C117	C	0.537254	1.658403	1.358782
C118	C	-0.129414	0.991722	0.307819
C119	C	0.203919	1.325055	0.641153
C120	C	0.537253	1.658389	0.974486
H121	H	-0.127833	0.412937	0.144808
H122	H	0.205501	0.746270	0.478141
H123	H	0.538834	1.079604	0.811475
H124	H	-0.130991	0.570526	-0.144885
H125	H	0.202343	0.903859	0.188448
H126	H	0.535676	1.237193	0.521782
N127	N	-0.127611	0.401484	-0.165983
N128	N	0.205722	0.734818	0.167350
N129	N	0.539055	1.068151	0.500684
H130	H	-0.185616	0.363068	-0.169541
H131	H	0.147717	0.696401	0.163793
H132	H	0.481051	1.029734	0.497126
H133	H	-0.128388	0.442229	-0.216509
H134	H	0.204945	0.775563	0.116824
H135	H	0.538278	1.108896	0.450158
N136	N	-0.616981	0.872725	-0.000026
N137	N	-0.283647	1.206058	0.333308
N138	N	0.049686	1.539392	0.666641
H139	H	-0.545137	0.877900	-0.000021
H140	H	-0.211804	1.211234	0.333312
H141	H	0.121530	1.544567	0.666646
H142	H	-0.639150	0.841540	0.054272
H143	H	-0.305816	1.174874	0.387605
H144	H	0.027517	1.508207	0.720939
H145	H	-0.246314	0.897835	0.583613
H146	H	0.087019	1.231168	0.916946
H147	H	0.420353	1.564501	1.250279
N148	N	-0.641849	1.110731	-0.000038
N149	N	-0.308515	1.444064	0.333296
N150	N	0.024818	1.777397	0.666629
H151	H	-0.713693	1.105561	-0.000038
H152	H	-0.380359	1.438894	0.333295
H153	H	-0.047026	1.772228	0.666629
H154	H	-0.619681	1.141909	0.054258
H155	H	-0.286348	1.475242	0.387592
H156	H	0.046985	1.808576	0.720925
H157	H	-0.012509	1.085625	0.583574
H158	H	0.320825	1.418958	0.916908
H159	H	0.654158	1.752291	1.250241
N160	N	-0.131223	0.581970	0.165914
N161	N	0.202111	0.915303	0.499247
N162	N	0.535444	1.248636	0.832580
H163	H	-0.130405	0.541274	0.216486
H164	H	0.202928	0.874607	0.549820
H165	H	0.536262	1.207941	0.883153
H166	H	-0.073218	0.620389	0.169391
H167	H	0.260115	0.953723	0.502725
H168	H	0.593448	1.287056	0.836058
N169	N	0.004515	1.099300	0.404142
N170	N	0.337849	1.432634	0.737475
N171	N	0.671182	1.765967	1.070809
H172	H	0.045335	1.132085	0.447329
H173	H	0.378668	1.465419	0.780662
H174	H	0.712001	1.798752	1.113995
H175	H	0.046430	1.064361	0.365899
H176	H	0.379764	1.397695	0.699232
H177	H	0.713097	1.731028	1.032566
N178	N	-0.263340	0.884136	0.404168
N179	N	0.069993	1.217470	0.737502
N180	N	0.403326	1.550803	1.070835
H181	H	-0.304163	0.851352	0.447359
H182	H	0.029170	1.184685	0.780693
H183	H	0.362504	1.518019	1.114026
H184	H	-0.305253	0.919067	0.365908
H185	H	0.028080	1.252400	0.699241
H186	H	0.361413	1.585733	1.032574
