data_functionalizedCrystal
_audit_creation_method	'MofGen! by Chris Wilmer'
_symmetry_space_group_name_H-M	'P1'
_symmetry_Int_Tables_number	1
_symmetry_cell_setting	triclinic
loop_
_symmetry_equiv_pos_as_xyz
  x,y,z
_cell_length_a	6.817900
_cell_length_b	9.170630
_cell_length_c	9.514088
_cell_angle_alpha	80.289607
_cell_angle_beta	118.843545
_cell_angle_gamma	112.460426
loop_
_atom_site_label
_atom_site_type_symbol
_atom_site_fract_x
_atom_site_fract_y
_atom_site_fract_z
V1	V	-4.242804	-0.218418	-0.469797
O2	O	-4.200475	0.007652	-0.492295
O3	O	-4.217589	-0.430351	-0.436344
O4	O	-4.277337	-0.216306	-0.688487
O5	O	-4.140314	-0.207875	-0.238407
V6	V	-4.712681	-0.191230	-0.445794
O7	O	-4.533995	-0.278057	-0.522448
O8	O	-4.871687	-0.131591	-0.393142
O9	O	-4.514689	0.020703	-0.479246
O10	O	-4.872407	-0.417300	-0.423296
O11	O	-4.932568	-0.201773	-0.677184
O12	O	-4.454942	-0.193342	-0.227103
C13	C	-4.065547	-0.481977	-0.421130
C14	C	-4.126771	-0.655243	-0.395237
C15	C	-4.141759	-0.208939	-0.742762
C16	C	-4.251430	-0.208614	-0.921344
C17	C	-4.330073	0.072321	-0.494455
C18	C	-4.248091	0.245586	-0.520358
C19	C	-4.253859	-0.200714	-0.172820
C20	C	-4.123425	-0.201030	0.005763
H21	H	-4.069726	-0.702891	-0.268301
O22	O	-3.892479	-0.193384	-0.905865
C23	C	-3.741998	-0.052790	-0.939825
H24	H	-3.848787	-0.009511	-1.062855
H25	H	-3.666407	0.040986	-0.844598
C26	C	-3.404317	-0.137512	-0.788255
C27	C	-3.535473	-0.084362	-0.939370
H28	H	-3.276916	-0.156982	-0.787968
H29	H	-3.505695	-0.232230	-0.765370
H30	H	-3.341347	-0.059355	-0.708916
H31	H	-3.598465	-0.162526	-1.018703
H32	H	-3.434100	0.010343	-0.962268
O33	O	-4.316054	-0.697318	-0.671704
C34	C	-4.237722	-0.531228	-0.664748
H35	H	-4.209490	-0.492078	-0.546817
H36	H	-4.062269	-0.479084	-0.672360
C37	C	-4.461980	-0.521212	-0.951017
C38	C	-4.427324	-0.473127	-0.806177
H39	H	-4.578927	-0.485369	-1.038260
H40	H	-4.514747	-0.633109	-0.955705
H41	H	-4.315754	-0.477754	-0.957338
H42	H	-4.573539	-0.516601	-0.799849
H43	H	-4.374585	-0.361235	-0.801491
O44	O	-4.482419	-0.216347	-1.009815
C45	C	-4.632837	-0.356908	-0.975760
H46	H	-4.539096	-0.447286	-0.927181
H47	H	-4.675252	-0.331285	-0.882315
C48	C	-4.981615	-0.311972	-1.190080
C49	C	-4.866487	-0.422981	-1.130427
H50	H	-5.125746	-0.352726	-1.285482
H51	H	-4.880277	-0.217270	-1.213021
H52	H	-5.016938	-0.290629	-1.112195
H53	H	-4.831140	-0.444306	-1.208304
H54	H	-4.967825	-0.517688	-1.107503
