data_functionalizedCrystal
_audit_creation_method	'MofGen! by Chris Wilmer'
_symmetry_space_group_name_H-M	'P1'
_symmetry_Int_Tables_number	1
_symmetry_cell_setting	triclinic
loop_
_symmetry_equiv_pos_as_xyz
  x,y,z
_cell_length_a	21.295417
_cell_length_b	21.295420
_cell_length_c	14.908308
_cell_angle_alpha	86.722872
_cell_angle_beta	93.260635
_cell_angle_gamma	89.972078
loop_
_atom_site_label
_atom_site_type_symbol
_atom_site_fract_x
_atom_site_fract_y
_atom_site_fract_z
Zn1	Zn	-0.271180	-0.941773	-0.510079
Zn2	Zn	-0.370381	-0.947763	-0.359211
Zn3	Zn	-0.265126	-0.842583	-0.359236
Zn4	Zn	-0.376407	-0.836468	-0.510015
O5	O	-0.320774	-0.892147	-0.434635
O6	O	-0.284350	-1.030656	-0.490082
O7	O	-0.351364	-0.938877	-0.232974
O8	O	-0.177841	-0.855793	-0.379283
O9	O	-0.357233	-1.035057	-0.379240
O10	O	-0.182289	-0.928668	-0.490107
O11	O	-0.274033	-0.861601	-0.232992
O12	O	-0.279876	-0.753683	-0.379221
O13	O	-0.367504	-0.845371	-0.636264
O14	O	-0.361634	-0.749191	-0.489998
O15	O	-0.290194	-0.922738	-0.636311
O16	O	-0.459269	-0.932948	-0.379178
O17	O	-0.463696	-0.851180	-0.489973
C18	C	-0.320753	-0.728597	-0.434606
C19	C	-0.320760	-0.658628	-0.434615
C20	C	-0.363405	-0.156849	-0.492245
C21	C	-0.363406	-0.222592	-0.492237
C22	C	-0.320779	-0.257787	-0.434650
C23	C	-0.278159	-0.227235	-0.377050
C24	C	-0.278163	-0.161493	-0.377054
N25	N	-0.265391	-0.361302	-0.427870
N26	N	-0.265389	-0.423753	-0.427872
C27	C	-0.320764	-0.455863	-0.434635
N28	N	-0.376143	-0.423161	-0.441413
N29	N	-0.376145	-0.360704	-0.441416
C30	C	-0.320770	-0.329073	-0.434639
C31	C	-0.363385	-0.557693	-0.492217
C32	C	-0.363387	-0.623438	-0.492203
C33	C	-0.278134	-0.628079	-0.377021
C34	C	-0.278138	-0.562336	-0.377031
C35	C	-0.320763	-0.527147	-0.434634
C36	C	-0.484323	-0.892066	-0.434585
C37	C	-0.554292	-0.892088	-0.434594
C38	C	-0.584834	-0.934698	-0.376962
C39	C	-0.650578	-0.934727	-0.376982
C40	C	-0.685775	-0.892135	-0.434625
C41	C	-0.655225	-0.849522	-0.492268
C42	C	-0.589483	-0.849498	-0.492253
N43	N	-0.789315	-0.836791	-0.441493
N44	N	-0.851767	-0.836815	-0.441502
C45	C	-0.883852	-0.892203	-0.434677
N46	N	-0.851126	-0.947569	-0.427824
N47	N	-0.788668	-0.947544	-0.427810
C48	C	-0.757062	-0.892156	-0.434649
C49	C	-0.985681	-0.934848	-0.377064
C50	C	-1.051426	-0.934877	-0.377090
C51	C	-1.056072	-0.849667	-0.492372
C52	C	-0.990329	-0.849643	-0.492350
C53	C	-0.955137	-0.892233	-0.434691
C54	C	-0.156586	-0.892244	-0.434705
C55	C	-0.086619	-0.892286	-0.434735
C56	C	-0.330196	-0.882705	-0.669936
C57	C	-0.334212	-0.878681	-0.770207
C58	C	-0.320791	-0.056336	-0.434660
C59	C	-0.320788	-0.126304	-0.434656
C60	C	-0.261239	-0.951680	-0.958677
C61	C	-0.265010	-0.947902	-1.052891
C62	C	-0.345520	-0.867342	-1.052849
C63	C	-0.341749	-0.871121	-0.958635
C64	C	-0.299608	-0.913292	-0.911553
C65	C	-0.295841	-0.917073	-0.817338
C66	C	-0.376348	-0.836511	-0.817297
C67	C	-0.380119	-0.832732	-0.911511
C68	C	-0.311342	-0.901589	-0.200250
C69	C	-0.307149	-0.905735	-0.099980
H70	H	-0.243458	-0.136624	-0.330158
H71	H	-0.957027	-0.969529	-0.330117
H72	H	-0.675451	-0.969427	-0.330052
H73	H	-0.683887	-0.814844	-0.539203
H74	H	-0.414427	-0.798397	-0.949858
C75	C	-0.222805	-0.990131	-1.104729
C76	C	-0.226949	-0.985977	-1.208360
C77	C	-0.184742	-1.028208	-1.260198
C78	C	-0.138390	-1.074593	-1.208405
C79	C	-0.134244	-1.078749	-1.104768
C80	C	-0.176452	-1.036518	-1.052930
H81	H	-0.261263	-0.951639	-1.246705
H82	H	-0.187812	-1.025132	-1.336917
H83	H	-0.107146	-1.105855	-1.246778
H84	H	-0.099930	-1.113087	-1.066422
H85	H	-0.173382	-1.039594	-0.976210
H86	H	-0.398094	-0.529041	-0.539120
C87	C	-0.410283	-0.256202	-0.555594
C88	C	-0.410274	-0.328515	-0.555593
C89	C	-0.457149	-0.362122	-0.618952
C90	C	-0.504033	-0.323416	-0.682313
C91	C	-0.504043	-0.251099	-0.682317
C92	C	-0.457168	-0.217492	-0.618958
H93	H	-0.375567	-0.357171	-0.508687
H94	H	-0.457141	-0.415656	-0.618949
H95	H	-0.538732	-0.348294	-0.729216
H96	H	-0.538751	-0.222443	-0.729223
H97	H	-0.457177	-0.163958	-0.618961
C98	C	-0.410270	-0.657039	-0.555555
C99	C	-0.481523	-0.648266	-0.548023
C100	C	-0.528406	-0.681867	-0.611377
C101	C	-0.504037	-0.724240	-0.682264
C102	C	-0.432781	-0.733015	-0.689800
C103	C	-0.385897	-0.699414	-0.626446
H104	H	-0.499565	-0.616896	-0.495545
H105	H	-0.581155	-0.675371	-0.605798
H106	H	-0.538743	-0.749114	-0.729163
H107	H	-0.414738	-0.764385	-0.742277
H108	H	-0.333149	-0.705910	-0.632024
C109	C	-0.391871	-0.820965	-1.104669
C110	C	-0.443870	-0.845637	-1.169432
C111	C	-0.490221	-0.799265	-1.221262
C112	C	-0.484573	-0.728221	-1.208330
C113	C	-0.432571	-0.703546	-1.143565
C114	C	-0.386220	-0.749918	-1.091735
H115	H	-0.448053	-0.898231	-1.179007
H116	H	-0.528716	-0.817531	-1.269206
H117	H	-0.518885	-0.693894	-1.246698
H118	H	-0.428388	-0.650953	-1.133990
H119	H	-0.347725	-0.731652	-1.043791
H120	H	-0.965459	-0.814943	-0.539276
H121	H	-0.398116	-0.128203	-0.539146
C122	C	-0.231246	-0.666782	-0.313666
C123	C	-0.159994	-0.657472	-0.321202
C124	C	-0.113108	-0.696179	-0.257838
C125	C	-0.137473	-0.744195	-0.186937
C126	C	-0.208729	-0.753507	-0.179398
C127	C	-0.255615	-0.714801	-0.242762
H128	H	-0.141954	-0.621926	-0.373689
H129	H	-0.060359	-0.689285	-0.263419
H130	H	-0.102765	-0.772848	-0.140031
H131	H	-0.226769	-0.789053	-0.126910
H132	H	-0.308363	-0.721695	-0.237181
H133	H	-0.407593	-0.805254	-0.778919
H134	H	-0.243432	-0.537466	-0.330139
H135	H	-0.226929	-0.986021	-0.920342
C136	C	-1.094781	-0.802812	-0.555779
C137	C	-1.167095	-0.802834	-0.555799
C138	C	-1.205807	-0.755979	-0.619209
C139	C	-1.172207	-0.709103	-0.682600
C140	C	-1.099889	-0.709079	-0.682582
C141	C	-1.061176	-0.755934	-0.619172
H142	H	-1.191972	-0.837536	-0.508871
H143	H	-1.259342	-0.755997	-0.619221
H144	H	-1.200864	-0.674418	-0.729540
H145	H	-1.075012	-0.674377	-0.729510
H146	H	-1.007642	-0.755917	-0.619159
H147	H	-0.564615	-0.814800	-0.539185
H148	H	-0.243452	-0.255895	-0.330161
H149	H	-0.556183	-0.969379	-0.330015
H150	H	-1.076293	-0.969579	-0.330161
H151	H	-0.261528	-0.951412	-0.779004
