data_functionalizedCrystal
_audit_creation_method	'MofGen! by Chris Wilmer'
_symmetry_space_group_name_H-M	'P1'
_symmetry_Int_Tables_number	1
_symmetry_cell_setting	triclinic
loop_
_symmetry_equiv_pos_as_xyz
  x,y,z
_cell_length_a	8.597340
_cell_length_b	8.634740
_cell_length_c	16.776229
_cell_angle_alpha	90.003913
_cell_angle_beta	82.305000
_cell_angle_gamma	92.880213
loop_
_atom_site_label
_atom_site_type_symbol
_atom_site_fract_x
_atom_site_fract_y
_atom_site_fract_z
O1	O	2.117275	0.230674	-0.079135
O2	O	1.663028	0.248374	-0.047935
O3	O	1.868649	0.014724	-0.062060
O4	O	1.911654	0.464324	-0.065010
O5	O	1.868615	0.014709	-0.194634
O6	O	1.662994	0.248359	-0.180509
O7	O	2.117240	0.230659	-0.211709
Zn8	Zn	1.890112	0.239507	-0.217158
Zn9	Zn	1.890157	0.239526	-0.042486
O10	O	1.911620	0.464309	-0.197584
C11	C	1.604254	0.246466	-0.110186
C12	C	1.429172	0.240786	-0.098160
C13	C	1.858890	-0.042880	-0.127676
C14	C	1.829842	-0.214502	-0.125678
C15	C	2.176015	0.232567	-0.149456
C16	C	2.351097	0.238247	-0.161476
C17	C	1.921379	0.521913	-0.131965
C18	C	1.950426	0.693534	-0.133959
N19	N	1.890092	0.239492	-0.336368
C20	C	1.981180	0.136076	-0.384342
C21	C	1.981189	0.136075	-0.467795
C22	C	1.890117	0.239499	-0.503272
C23	C	1.799018	0.342920	-0.455291
C24	C	1.799002	0.342912	-0.371840
C25	C	1.799080	0.342951	-0.791843
C26	C	1.799107	0.342954	-0.875301
C27	C	1.981266	0.136113	-0.887798
C28	C	1.981250	0.136106	-0.804346
C29	C	1.890146	0.239521	-0.756372
C30	C	1.890135	0.239519	-0.665883
C31	C	1.890135	0.239509	-0.593760
N32	N	1.890187	0.239529	0.076723
H33	H	2.075886	-0.253905	-0.142549
C34	C	1.698785	0.456640	-0.494307
H35	H	1.644506	0.518207	-0.453779
H36	H	1.765056	0.521887	-0.531414
H37	H	1.624912	0.399964	-0.521785
H38	H	2.055443	0.051902	-0.926867
C39	C	1.660342	-0.285495	-0.114030
H40	H	1.588589	-0.204787	-0.109097
H41	H	1.643911	-0.347755	-0.159130
H42	H	1.643950	-0.347723	-0.066662
C43	C	1.441732	0.241180	-0.247140
H44	H	1.551463	0.244749	-0.244260
H45	H	1.413207	0.150418	-0.274895
H46	H	1.416465	0.330211	-0.275111
H47	H	1.362065	0.238612	-0.034746
C48	C	2.081358	0.022305	-0.345324
H49	H	2.135595	-0.039295	-0.385850
H50	H	2.155239	0.078919	-0.317831
H51	H	2.015027	-0.042927	-0.308227
C52	C	2.081403	0.022331	-0.520564
H53	H	2.135658	-0.039248	-0.487485
H54	H	2.015113	-0.042900	-0.548579
H55	H	2.155294	0.078980	-0.558180
C56	C	2.081423	0.022335	-0.765325
H57	H	2.135663	-0.039268	-0.805849
H58	H	2.155302	0.078949	-0.737831
H59	H	2.015087	-0.042894	-0.728229
C60	C	1.698885	0.456716	-0.739083
H61	H	1.644666	0.518322	-0.772168
H62	H	1.624988	0.400098	-0.701465
H63	H	1.765200	0.521943	-0.711074
C64	C	1.698812	0.456670	-0.319065
H65	H	1.711833	0.441844	-0.264282
H66	H	1.731485	0.560092	-0.334974
H67	H	1.591287	0.438230	-0.325370
H68	H	1.724939	0.427177	-0.904184
