data_functionalizedCrystal
_audit_creation_method	'MofGen! by Chris Wilmer'
_symmetry_space_group_name_H-M	'P1'
_symmetry_Int_Tables_number	1
_symmetry_cell_setting	triclinic
loop_
_symmetry_equiv_pos_as_xyz
  x,y,z
_cell_length_a	15.297327
_cell_length_b	19.077105
_cell_length_c	19.077258
_cell_angle_alpha	90.096589
_cell_angle_beta	82.999945
_cell_angle_gamma	97.818066
loop_
_atom_site_label
_atom_site_type_symbol
_atom_site_fract_x
_atom_site_fract_y
_atom_site_fract_z
Zn1	Zn	-0.385911	1.004070	0.490322
Zn2	Zn	0.114089	1.504070	0.990322
Zn3	Zn	-0.540883	0.986992	0.392853
Zn4	Zn	-0.040883	1.486992	0.892853
Zn5	Zn	-0.386362	0.891244	0.368172
Zn6	Zn	0.113638	1.391244	0.868172
Zn7	Zn	-0.528932	0.866472	0.504061
Zn8	Zn	-0.028932	1.366472	1.004061
O9	O	-0.460522	0.937194	0.438852
O10	O	0.039478	1.437194	0.938852
O11	O	-0.411281	1.099460	0.481971
O12	O	0.088719	1.599460	0.981971
O13	O	-0.525575	0.977511	0.291918
O14	O	-0.025575	1.477511	0.791918
O15	O	-0.261779	0.923725	0.368297
O16	O	0.238221	1.423725	0.868297
O17	O	-0.525138	1.086913	0.410361
O18	O	-0.025138	1.586913	0.910361
O19	O	-0.261448	1.006618	0.458040
O20	O	0.238552	1.506618	0.958040
O21	O	-0.412049	0.907166	0.273785
O22	O	0.087951	1.407166	0.773785
O23	O	-0.400461	0.790302	0.381619
O24	O	0.099539	1.290302	0.881619
O25	O	-0.504770	0.881504	0.599899
O26	O	-0.004770	1.381504	1.099899
O27	O	-0.505207	0.772102	0.481456
O28	O	-0.005207	1.272102	0.981456
O29	O	-0.399693	0.982597	0.589805
O30	O	0.100307	1.482597	1.089805
O31	O	-0.663820	0.953490	0.423683
O32	O	-0.163820	1.453490	0.923683
O33	O	-0.655040	0.864944	0.505388
O34	O	-0.155040	1.364944	1.005388
C35	C	-0.451587	0.755881	0.430351
C36	C	0.048413	1.255881	0.930351
C37	C	-0.447785	0.678310	0.426734
C38	C	0.052215	1.178310	0.926734
C39	C	-0.500624	0.632400	0.476955
C40	C	-0.000624	1.132400	0.976955
C41	C	-0.497039	0.559516	0.473557
C42	C	0.002961	1.059516	0.973557
C43	C	-0.440620	0.532543	0.419936
C44	C	0.059380	1.032543	0.919936
C45	C	-0.387775	0.578459	0.369712
C46	C	0.112225	1.078459	0.869712
C47	C	-0.391356	0.651342	0.373113
C48	C	0.108644	1.151342	0.873113
C49	C	-0.424051	0.315582	0.404201
C50	C	0.075949	0.815582	0.904201
C51	C	-0.420476	0.242693	0.400802
C52	C	0.079524	0.742693	0.900802
C53	C	-0.529740	0.223755	0.504649
C54	C	-0.029740	0.723755	1.004649
C55	C	-0.533319	0.296640	0.508042
C56	C	-0.033319	0.796640	1.008042
C57	C	-0.480470	0.342550	0.457821
C58	C	0.019530	0.842550	0.957821
N59	N	-0.436957	0.458044	0.416461
N60	N	0.063043	0.958044	0.916461
N61	N	-0.484129	0.417048	0.461299
N62	N	0.015871	0.917048	0.961299
C63	C	-0.691717	0.904694	0.468721
C64	C	-0.191717	1.404694	0.968721
C65	C	-0.790626	0.890854	0.481525
C66	C	-0.290626	1.390854	0.981525
C67	C	-1.087593	1.036395	0.347590
C68	C	-0.587593	1.536395	0.847590
C69	C	-0.994664	1.049398	0.335556
C70	C	-0.494664	1.549398	0.835556
C71	C	-0.943650	1.009764	0.372047
C72	C	-0.443650	1.509764	0.872047
C73	C	-0.985574	0.957122	0.420574
C74	C	-0.485574	1.457122	0.920574
C75	C	-1.078512	0.944114	0.432605
C76	C	-0.578512	1.444114	0.932605
C77	C	-0.934569	0.917483	0.457063
C78	C	-0.434569	1.417483	0.957063
C79	C	-0.976493	0.864842	0.505589
C80	C	-0.476493	1.364842	1.005589
C81	C	-1.069422	0.851836	0.517619
C82	C	-0.569422	1.351836	1.017619
C83	C	-1.120436	0.891470	0.481127
C84	C	-0.620436	1.391470	0.981127
C85	C	-0.841631	0.930491	0.445032
C86	C	-0.341631	1.430491	0.945032
C87	C	-0.832550	0.838210	0.530047
C88	C	-0.332550	1.338210	1.030047
C89	C	-0.925479	0.825207	0.542081
C90	C	-0.425479	1.325207	1.042081
C91	C	-0.228424	0.969840	0.408883
C92	C	0.271576	1.469840	0.908883
C93	C	-0.129517	0.983751	0.396112
C94	C	0.370483	1.483751	0.896112
C95	C	-0.450848	0.931192	0.620883
C96	C	0.049152	1.431192	1.120883
C97	C	-0.446726	0.928634	0.698453
C98	C	0.053274	1.428634	1.198453
C99	C	-0.469493	1.119216	0.447387
C100	C	0.030507	1.619216	0.947387
C101	C	-0.473315	1.196783	0.451024
C102	C	0.026685	1.696783	0.951024
C103	C	-0.503893	0.964054	0.744339
C104	C	-0.003893	1.464054	1.244339
C105	C	-0.500008	0.961653	0.817224
C106	C	-0.000008	1.461653	1.317224
C107	C	-0.438961	0.923826	0.844221
C108	C	0.061039	1.423826	1.344221
C109	C	-0.381787	0.888404	0.798330
C110	C	0.118213	1.388404	1.298330
C111	C	-0.385668	0.890811	0.725446
C112	C	0.114332	1.390811	1.225446
C113	C	-0.421013	0.912705	1.061186
C114	C	0.078987	1.412705	1.561186
C115	C	-0.417138	0.910300	1.134076
C116	C	0.082862	1.410300	1.634076
C117	C	-0.535358	0.983549	1.152964
C118	C	-0.035358	1.483549	1.652964
C119	C	-0.539237	0.985949	1.080079
C120	C	-0.039237	1.485949	1.580079
C121	C	-0.482061	0.950531	1.034193
C122	C	0.017939	1.450531	1.534193
N123	N	-0.434991	0.921368	0.918721
N124	N	0.065009	1.421368	1.418721
N125	N	-0.486027	0.952993	0.959695
N126	N	0.013973	1.452993	1.459695
C127	C	-0.470179	0.943165	1.257532
C128	C	0.029821	1.443165	1.757532
C129	C	-0.474305	0.945720	1.179961
C130	C	0.025695	1.445720	1.679961
H131	H	-0.374523	0.220736	0.357140
H132	H	0.125477	0.720736	0.857140
C133	C	-0.971608	0.767297	0.595454
C134	C	-0.471608	1.267297	1.095454
N135	N	-1.006353	0.723679	0.635652
N136	N	-0.506353	1.223679	1.135652
C137	C	-0.358122	0.873738	1.010722
C138	C	0.141878	1.373738	1.510722
N139	N	-0.310751	0.844385	0.972709
N140	N	0.189249	1.344385	1.472709
C141	C	-0.587862	0.173250	0.559893
C142	C	-0.087862	0.673250	1.059893
N143	N	-0.631639	0.135209	0.601507
N144	N	-0.131639	0.635209	1.101507
H145	H	-0.588962	1.016738	1.058105
H146	H	-0.088962	1.516738	1.558105
H147	H	-1.129137	1.068656	0.317879
H148	H	-0.629137	1.568656	0.817879
C149	C	-0.314632	0.846796	0.828030
C150	C	0.185368	1.346796	1.328030
N151	N	-0.264052	0.815454	0.850399
N152	N	0.235948	1.315454	1.350399
H153	H	-1.103554	0.808964	0.557124
H154	H	-0.603554	1.308964	1.057124
C155	C	-0.365921	0.366073	0.348951
C156	C	0.134079	0.866073	0.848951
N157	N	-0.322137	0.404106	0.307334
N158	N	0.177863	0.904106	0.807334
C159	C	-0.349977	0.868686	1.163770
C160	C	0.150023	1.368686	1.663770
N161	N	-0.299396	0.837343	1.186137
N162	N	0.200604	1.337343	1.686137
H163	H	-0.341834	0.556492	0.326055
H164	H	0.158166	1.056492	0.826055
H165	H	-1.196107	0.880887	0.490924
H166	H	-0.696107	1.380887	0.990924
C167	C	-0.333231	0.701843	0.317864
C168	C	0.166769	1.201843	0.817864
N169	N	-0.289447	0.739880	0.276250
N170	N	0.210553	1.239880	0.776250
C171	C	-0.598380	1.022379	1.203456
C172	C	-0.098380	1.522379	1.703456
N173	N	-0.645897	1.051582	1.241492
N174	N	-0.145897	1.551582	1.741492
H175	H	-0.791014	0.805935	0.559760
H176	H	-0.291014	1.305935	1.059760
C177	C	-0.322782	0.851844	0.674972
C178	C	0.177218	1.351844	1.174972
N179	N	-0.275412	0.822494	0.636955
N180	N	0.224588	1.322494	1.136955
C181	C	-0.795525	0.988396	0.391654
C182	C	-0.295525	1.488396	0.891654
N183	N	-0.760800	1.032015	0.351447
N184	N	-0.260800	1.532015	0.851447
H185	H	-0.546569	0.654355	0.520617
H186	H	-0.046569	1.154355	1.020617
H187	H	-0.867983	1.020354	0.362245
H188	H	-0.367983	1.520354	0.862245
H189	H	-0.960533	1.092258	0.296045
H190	H	-0.460533	1.592258	0.796045
C191	C	-0.562901	1.000615	0.867696
C192	C	-0.062901	1.500615	1.367696
N193	N	-0.610275	1.029962	0.905712
N194	N	-0.110275	1.529962	1.405712
C195	C	-0.555184	0.509016	0.528794
C196	C	-0.055184	1.009016	1.028794
N197	N	-0.598988	0.470978	0.570397
N198	N	-0.098988	0.970978	1.070397
C199	C	-0.595388	0.326304	0.567028
C200	C	-0.095388	0.826304	1.067028
N201	N	-0.642144	0.348646	0.611454
N202	N	-0.142144	0.848646	1.111454
H203	H	-0.553602	0.994860	0.722364
H204	H	-0.053602	1.494860	1.222364
