data_functionalizedCrystal
_audit_creation_method	'MofGen! by Chris Wilmer'
_symmetry_space_group_name_H-M	'P1'
_symmetry_Int_Tables_number	1
_symmetry_cell_setting	triclinic
loop_
_symmetry_equiv_pos_as_xyz
  x,y,z
_cell_length_a	19.188933
_cell_length_b	19.188930
_cell_length_c	18.266242
_cell_angle_alpha	89.989745
_cell_angle_beta	89.992475
_cell_angle_gamma	83.145175
loop_
_atom_site_label
_atom_site_type_symbol
_atom_site_fract_x
_atom_site_fract_y
_atom_site_fract_z
O1	O	0.926148	0.087174	-0.060865
O2	O	1.426148	0.587174	0.439135
O3	O	0.722837	0.098907	-0.060873
O4	O	1.222837	0.598907	0.439127
O5	O	0.830360	-0.008615	-0.060854
O6	O	1.330360	0.491385	0.439146
O7	O	0.818626	0.194696	-0.060883
O8	O	1.318626	0.694696	0.439117
O9	O	0.830342	-0.008618	0.060908
O10	O	1.330342	0.491382	0.560908
O11	O	0.722819	0.098904	0.060889
O12	O	1.222819	0.598904	0.560889
O13	O	0.926130	0.087171	0.060897
O14	O	1.426130	0.587171	0.560897
Zn15	Zn	0.824472	0.093037	0.080226
Zn16	Zn	1.324472	0.593037	0.580226
Zn17	Zn	0.824496	0.093041	-0.080201
Zn18	Zn	1.324496	0.593041	0.419799
O19	O	0.818607	0.194693	0.060879
O20	O	1.318607	0.694693	0.560879
C21	C	0.696817	0.098525	0.000008
C22	C	1.196817	0.598525	0.500008
C23	C	0.619313	0.097384	0.000005
C24	C	1.119313	0.597384	0.500005
C25	C	0.066067	0.089240	-0.066358
C26	C	0.566067	0.589240	0.433642
C27	C	0.138892	0.090308	-0.066361
C28	C	0.638892	0.590308	0.433639
C29	C	0.175299	0.090844	0.000011
C30	C	0.675299	0.590844	0.500011
C31	C	0.138878	0.090294	0.066391
C32	C	0.638878	0.590294	0.566391
C33	C	0.066056	0.089218	0.066392
C34	C	0.566056	0.589218	0.566392
N35	N	0.284311	0.132261	0.049409
N36	N	0.784311	0.632261	0.549409
N37	N	0.353489	0.133284	0.049403
N38	N	0.853489	0.633284	0.549403
C39	C	0.394707	0.094082	0.000012
C40	C	0.894707	0.594082	0.500012
N41	N	0.364134	0.053827	-0.049385
N42	N	0.864134	0.553827	0.450615
N43	N	0.294949	0.052807	-0.049382
N44	N	0.794949	0.552807	0.450618
C45	C	0.254262	0.092009	0.000017
C46	C	0.754262	0.592009	0.500017
C47	C	0.510084	0.095786	-0.066367
C48	C	1.010084	0.595786	0.433633
C49	C	0.582911	0.096849	-0.066368
C50	C	1.082911	0.596849	0.433632
C51	C	0.582894	0.096842	0.066386
C52	C	1.082894	0.596842	0.566386
C53	C	0.510071	0.095771	0.066385
C54	C	1.010071	0.595771	0.566385
C55	C	0.473669	0.095246	0.000006
C56	C	0.973669	0.595246	0.500006
C57	C	0.829971	-0.034628	0.000029
C58	C	1.329971	0.465372	0.500029
C59	C	0.828830	-0.112132	0.000035
C60	C	1.328830	0.387868	0.500035
C61	C	0.891921	-0.157056	0.000041
C62	C	1.391921	0.342944	0.500041
C63	C	0.890849	-0.229880	0.000029
C64	C	1.390849	0.270120	0.500029
C65	C	0.826683	-0.257777	0.000026
C66	C	1.326683	0.242223	0.500026
C67	C	0.763584	-0.212843	0.000016
C68	C	1.263584	0.287157	0.500016
C69	C	0.764658	-0.140021	0.000021
C70	C	1.264658	0.359979	0.500021
N71	N	0.777630	-0.365783	0.041462
N72	N	1.277630	0.134217	0.541462
N73	N	0.776614	-0.434962	0.041460
N74	N	1.276614	0.065038	0.541460
C75	C	0.823445	-0.477185	0.000011
C76	C	1.323445	0.022815	0.500011
N77	N	0.871340	-0.447618	-0.041425
N78	N	1.371340	0.052382	0.458575
N79	N	0.872358	-0.378434	-0.041419
N80	N	1.372358	0.121566	0.458581
C81	C	0.825512	-0.336739	0.000021
C82	C	1.325512	0.163261	0.500021
C83	C	0.885378	-0.601073	0.000004
C84	C	1.385378	-0.101073	0.500004
C85	C	0.884304	-0.673898	-0.000013
C86	C	1.384304	-0.173898	0.499987
C87	C	0.757037	-0.656860	-0.000019
C88	C	1.257037	-0.156860	0.499981
C89	C	0.758113	-0.584037	-0.000010
C90	C	1.258113	-0.084037	0.499990
C91	C	0.822286	-0.556148	0.000005
C92	C	1.322286	-0.056148	0.500005
C93	C	0.952150	0.087553	0.000015
C94	C	1.452150	0.587553	0.500015
C95	C	1.029655	0.088694	0.000013
C96	C	1.529655	0.588694	0.500013
C97	C	0.818997	0.220705	-0.000006
C98	C	1.318997	0.720705	0.499994
C99	C	0.820137	0.298210	-0.000017
C100	C	1.320137	0.798210	0.499983
N101	N	0.824460	0.093034	0.189713
N102	N	1.324460	0.593034	0.689713
N103	N	0.824513	0.093038	-0.189688
N104	N	1.324513	0.593038	0.310312
C105	C	0.866669	0.135279	0.228011
C106	C	1.366669	0.635279	0.728011
C107	C	0.866681	0.135277	0.304656
C108	C	1.366681	0.635277	0.804656
C109	C	0.824471	0.093038	0.342999
C110	C	1.324471	0.593038	0.842999
C111	C	0.782259	0.050784	0.304692
C112	C	1.282259	0.550784	0.804692
C113	C	0.782254	0.050781	0.228049
C114	C	1.282254	0.550781	0.728049
N115	N	0.763323	0.091317	0.463350
N116	N	1.263323	0.591317	0.963350
N117	N	0.763329	0.091323	0.536158
N118	N	1.263329	0.591323	1.036158
C119	C	0.824484	0.093040	0.573922
C120	C	1.324484	0.593040	1.073922
N121	N	0.885633	0.094765	0.536127
N122	N	1.385633	0.594765	1.036127
N123	N	0.885625	0.094763	0.463312
N124	N	1.385625	0.594763	0.963312
C125	C	0.824472	0.093035	0.426106
C126	C	1.324472	0.593035	0.926106
C127	C	0.866710	0.135286	0.695327
C128	C	1.366710	0.635286	1.195327
C129	C	0.866723	0.135279	0.771973
C130	C	1.366723	0.635279	1.271973
C131	C	0.782294	0.050789	0.772009
C132	C	1.282294	0.550789	1.272009
C133	C	0.782287	0.050792	0.695364
C134	C	1.282287	0.550792	1.195364
C135	C	0.824494	0.093045	0.657028
C136	C	1.324494	0.593045	1.157028
H137	H	0.480423	0.095328	0.120432
H138	H	0.980423	0.595328	0.620432
Cl139	Cl	0.919784	0.188386	0.647130
Cl140	Cl	1.419784	0.688386	1.147130
H141	H	0.747926	0.016396	0.803227
H142	H	1.247926	0.516396	1.303227
H143	H	0.706738	-0.547459	-0.000010
H144	H	1.206738	-0.047459	0.499990
Cl145	Cl	0.685337	-0.083543	0.000014
Cl146	Cl	1.185337	0.416457	0.500014
H147	H	0.901040	0.169682	0.196802
H148	H	1.401040	0.669682	0.696802
H149	H	0.901053	0.169681	0.335844
H150	H	1.401053	0.669681	0.835844
Cl151	Cl	0.729196	-0.002320	0.352895
Cl152	Cl	1.229196	0.497680	0.852895
H153	H	0.747881	0.016379	0.196867
H154	H	1.247881	0.516379	0.696867
H155	H	0.901099	0.169679	0.803154
H156	H	1.401099	0.669679	1.303154
H157	H	0.942227	-0.266463	0.000031
H158	H	1.442227	0.233537	0.500031
Cl159	Cl	0.729207	-0.002306	0.647215
Cl160	Cl	1.229207	0.497694	1.147215
H161	H	0.937631	-0.578365	0.000012
H162	H	1.437631	-0.078365	0.500012
H163	H	0.711340	-0.235562	0.000012
H164	H	1.211340	0.264438	0.500012
Cl165	Cl	0.963626	-0.730375	-0.000010
Cl166	Cl	1.463626	-0.230375	0.499990
H167	H	0.036434	0.088810	-0.120409
H168	H	0.536434	0.588810	0.379591
Cl169	Cl	0.676370	-0.691924	-0.000027
Cl170	Cl	1.176370	-0.191924	0.499973
Cl171	Cl	0.184677	0.090997	-0.149806
Cl172	Cl	0.684677	0.590997	0.350194
H173	H	0.036409	0.088776	0.120441
H174	H	0.536409	0.588776	0.620441
Cl175	Cl	0.184646	0.090964	0.149830
Cl176	Cl	0.684646	0.590964	0.649830
H177	H	0.612557	0.097289	-0.120417
H178	H	1.112557	0.597289	0.379583
Cl179	Cl	0.628658	0.097504	0.149827
Cl180	Cl	1.128658	0.597504	0.649827
Cl181	Cl	0.464320	0.095121	-0.149813
Cl182	Cl	0.964320	0.595121	0.350187
H183	H	0.944175	-0.134354	0.000050
H184	H	1.444175	0.365646	0.500050
