data_functionalizedCrystal
_audit_creation_method	'MofGen! by Chris Wilmer'
_symmetry_space_group_name_H-M	'P1'
_symmetry_Int_Tables_number	1
_symmetry_cell_setting	triclinic
loop_
_symmetry_equiv_pos_as_xyz
  x,y,z
_cell_length_a	19.077105
_cell_length_b	19.077585
_cell_length_c	17.077396
_cell_angle_alpha	87.729746
_cell_angle_beta	87.683249
_cell_angle_gamma	94.467729
loop_
_atom_site_label
_atom_site_type_symbol
_atom_site_fract_x
_atom_site_fract_y
_atom_site_fract_z
Zn1	Zn	1.088926	0.323997	-0.507100
Zn2	Zn	1.588926	0.823997	-0.007100
Zn3	Zn	1.093548	0.441878	-0.381325
Zn4	Zn	1.593548	0.941878	0.118675
Zn5	Zn	0.971040	0.319277	-0.370361
Zn6	Zn	1.471040	0.819277	0.129639
Zn7	Zn	0.975714	0.437094	-0.507060
Zn8	Zn	1.475714	0.937094	-0.007060
O9	O	1.032307	0.380562	-0.441462
O10	O	1.532307	0.880562	0.058538
O11	O	1.188189	0.343611	-0.495021
O12	O	1.688189	0.843611	0.004979
O13	O	1.077276	0.425642	-0.270024
O14	O	1.577276	0.925642	0.229976
O15	O	0.982788	0.221263	-0.383928
O16	O	1.482788	0.721263	0.116072
O17	O	1.191585	0.430218	-0.402615
O18	O	1.691585	0.930218	0.097385
O19	O	1.069398	0.224730	-0.484390
O20	O	1.569398	0.724730	0.015610
O21	O	0.987269	0.335568	-0.261968
O22	O	1.487269	0.835568	0.238032
O23	O	0.873010	0.330929	-0.383889
O24	O	1.373010	0.830929	0.116111
O25	O	0.990754	0.422065	-0.616913
O26	O	1.490754	0.922065	-0.116913
O27	O	0.876444	0.417489	-0.484322
O28	O	1.376444	0.917489	0.015678
O29	O	1.073930	0.338972	-0.616942
O30	O	1.573930	0.838972	-0.116942
O31	O	1.081808	0.539884	-0.402576
O32	O	1.581808	1.039884	0.097424
O33	O	0.995235	0.536370	-0.494953
O34	O	1.495235	1.036370	0.005047
C35	C	0.849149	0.373178	-0.432912
C36	C	1.349149	0.873178	0.067088
C37	C	0.770793	0.370037	-0.429273
C38	C	1.270793	0.870037	0.070727
C39	C	1.039549	0.563704	-0.449968
C40	C	1.539549	1.063704	0.050032
C41	C	1.042712	0.642056	-0.453636
C42	C	1.542712	1.142056	0.046364
C43	C	0.999145	0.677125	-0.403024
C44	C	1.499145	1.177125	0.096976
C45	C	1.002124	0.750745	-0.406474
C46	C	1.502124	1.250745	0.093526
C47	C	1.048667	0.789294	-0.460542
C48	C	1.548667	1.289294	0.039458
C49	C	1.092238	0.754220	-0.511156
C50	C	1.592238	1.254220	-0.011156
C51	C	1.089263	0.680602	-0.507702
C52	C	1.589263	1.180602	-0.007702
C53	C	1.062401	1.009657	-0.476483
C54	C	1.562401	1.509657	0.023517
C55	C	1.065372	1.083281	-0.479936
C56	C	1.565372	1.583281	0.020064
C57	C	0.975259	1.079800	-0.375252
C58	C	1.475259	1.579800	0.124748
C59	C	0.972284	1.006180	-0.371805
C60	C	1.472284	1.506180	0.128195
C61	C	1.015858	0.971113	-0.422417
C62	C	1.515858	1.471113	0.077583
N63	N	1.051711	0.864546	-0.464071
N64	N	1.551711	1.364546	0.035929
N65	N	1.012817	0.895863	-0.418883
N66	N	1.512817	1.395863	0.081117
C67	C	0.735791	0.413696	-0.479778
C68	C	1.235791	0.913696	0.020222
C69	C	0.662167	0.410735	-0.476363
C70	C	1.162167	0.910735	0.023637
C71	C	0.623548	0.364118	-0.422439
C72	C	1.123548	0.864118	0.077561
C73	C	0.658555	0.320454	-0.371932
C74	C	1.158555	0.820454	0.128068
C75	C	0.732177	0.323412	-0.375351
C76	C	1.232177	0.823412	0.124649
C77	C	0.403167	0.350427	-0.406616
C78	C	0.903167	0.850427	0.093384
C79	C	0.329540	0.347474	-0.403199
C80	C	0.829540	0.847474	0.096801
C81	C	0.333157	0.437754	-0.507632
C82	C	0.833157	0.937754	-0.007632
C83	C	0.406780	0.440711	-0.511043
C84	C	0.906780	0.940711	-0.011043
C85	C	0.441781	0.397045	-0.460539
C86	C	0.941781	0.897045	0.039461
N87	N	0.548292	0.361091	-0.418945
N88	N	1.048292	0.861091	0.081055
N89	N	0.517035	0.400068	-0.464037
N90	N	1.017035	0.900068	0.035963
C91	C	1.216181	0.387974	-0.450046
C92	C	1.716181	0.887974	0.049954
C93	C	1.294537	0.391133	-0.453703
C94	C	1.794537	0.891133	0.046297
C95	C	1.032348	0.380511	-0.646206
C96	C	1.532348	0.880511	-0.146206
C97	C	1.032365	0.380490	-0.733455
C98	C	1.532365	0.880490	-0.233455
C99	C	1.025016	1.196703	-0.432944
C100	C	1.525016	1.696703	0.067056
C101	C	1.021806	1.118350	-0.429323
C102	C	1.521806	1.618350	0.070677
C103	C	1.075677	0.337220	-0.774462
C104	C	1.575677	0.837220	-0.274462
C105	C	1.075684	0.337197	-0.856442
C106	C	1.575684	0.837197	-0.356442
C107	C	1.032383	0.380448	-0.897414
C108	C	1.532383	0.880448	-0.397414
C109	C	0.989067	0.423720	-0.856401
C110	C	1.489067	0.923720	-0.356401
C111	C	0.989056	0.423739	-0.774423
C112	C	1.489056	0.923739	-0.274423
C113	C	0.989094	0.423678	-1.027271
C114	C	1.489094	0.923678	-0.527271
C115	C	0.989105	0.423661	-1.109255
C116	C	1.489105	0.923661	-0.609255
C117	C	1.075722	0.337137	-1.109290
C118	C	1.575722	0.837137	-0.609290
C119	C	1.075711	0.337156	-1.027311
C120	C	1.575711	0.837156	-0.527311
C121	C	1.032395	0.380429	-0.986304
C122	C	1.532395	0.880429	-0.486304
C123	C	1.032305	0.380562	-0.237514
C124	C	1.532305	0.880562	0.262486
C125	C	1.032417	0.380391	-0.150262
C126	C	1.532417	0.880391	0.349738
H127	H	0.966649	0.779295	-0.365258
H128	H	1.466649	1.279295	0.134742
H129	H	1.130137	0.785613	-0.555176
H130	H	1.630137	1.285613	-0.055176
H131	H	1.110939	0.302002	-0.741109
H132	H	1.610939	0.802002	-0.241109
H133	H	0.298097	0.309504	-0.359291
H134	H	0.798097	0.809504	0.140709
H135	H	1.124740	0.652049	-0.548915
H136	H	1.624740	1.152049	-0.048915
H137	H	0.438220	0.478673	-0.554952
H138	H	0.938220	0.978673	-0.054952
O139	O	1.117666	0.295091	-0.987424
O140	O	1.617666	0.795091	-0.487424
C141	C	1.075714	0.247947	-0.936043
C142	C	1.575714	0.747947	-0.436043
H143	H	1.023275	0.270670	-0.922414
H144	H	1.523275	0.770670	-0.422414
H145	H	1.104043	0.239654	-0.879301
H146	H	1.604043	0.739654	-0.379301
H147	H	1.065900	0.195397	-0.964866
H148	H	1.565900	0.695397	-0.464866
H149	H	1.110990	0.301901	-1.142681
H150	H	1.610990	0.801901	-0.642681
H151	H	0.953844	0.458878	-1.142612
H152	H	1.453844	0.958878	-0.642612
O153	O	0.947010	0.465791	-0.987560
O154	O	1.447010	0.965791	-0.487560
C155	C	0.908788	0.503958	-1.041299
C156	C	1.408788	1.003958	-0.541299
H157	H	0.937760	0.507532	-1.101204
H158	H	1.437760	1.007532	-0.601204
H159	H	0.903478	0.559204	-1.019843
H160	H	1.403478	1.059204	-0.519843
H161	H	0.854222	0.476001	-1.046307
H162	H	1.354222	0.976001	-0.546307
O163	O	0.927092	0.968627	-0.319352
O164	O	1.427092	1.468627	0.180648
C165	C	0.933819	0.896130	-0.327144
C166	C	1.433819	1.396130	0.172856
H167	H	0.956469	0.886943	-0.388345
H168	H	1.456469	1.386943	0.111655
H169	H	0.879889	0.866078	-0.318001
H170	H	1.379889	1.366078	0.181999
H171	H	0.970538	0.876746	-0.281390
H172	H	1.470538	1.376746	0.218610
O173	O	0.946939	0.465755	-0.896076
O174	O	1.446939	0.965755	-0.396076
C175	C	0.908722	0.503963	-0.842301
C176	C	1.408722	1.003963	-0.342301
H177	H	0.905132	0.475004	-0.782413
H178	H	1.405132	0.975004	-0.282413
H179	H	0.853479	0.509240	-0.863739
H180	H	1.353479	1.009240	-0.363739
H181	H	0.936648	0.558540	-0.837267
H182	H	1.436648	1.058540	-0.337267
O183	O	0.773195	0.458998	-0.532232
O184	O	1.273195	0.958998	-0.032232
C185	C	0.726509	0.496908	-0.576063
C186	C	1.226509	0.996908	-0.076063
H187	H	0.672888	0.465930	-0.575053
H188	H	1.172888	0.965930	-0.075053
H189	H	0.748104	0.505352	-0.639239
H190	H	1.248104	1.005352	-0.139239
H191	H	0.720786	0.550097	-0.549343
H192	H	1.220786	1.050097	-0.049343
O193	O	0.946906	0.465673	-0.734548
O194	O	1.446906	0.965673	-0.234548
C195	C	0.899794	0.423722	-0.683125
C196	C	1.399794	0.923722	-0.183125
H197	H	0.893253	0.368022	-0.705050
H198	H	1.393253	0.868022	-0.205050
H199	H	0.846548	0.447031	-0.680845
H200	H	1.346548	0.947031	-0.180845
H201	H	0.921483	0.422190	-0.621900
H202	H	1.421483	0.922190	-0.121900
O203	O	0.953837	0.639753	-0.350541
O204	O	1.453837	1.139753	0.149459
C205	C	0.884296	0.654955	-0.365213
C206	C	1.384296	1.154955	0.134787
H207	H	0.884980	0.708329	-0.397825
H208	H	1.384980	1.208329	0.102175
H209	H	0.852819	0.656271	-0.307179
H210	H	1.352819	1.156271	0.192821
H211	H	0.858856	0.612561	-0.402496
H212	H	1.358856	1.112561	0.097504
O213	O	0.932907	1.113942	-0.326197
O214	O	1.432907	1.613942	0.173803
C215	C	0.889059	1.154690	-0.370716
C216	C	1.389059	1.654690	0.129284
H217	H	0.914332	1.166657	-0.431900
H218	H	1.414332	1.666657	0.068100
H219	H	0.881722	1.206108	-0.340722
H220	H	1.381722	1.706108	0.159278
H221	H	0.835667	1.124256	-0.375524
H222	H	1.335667	1.624256	0.124476
O223	O	1.110635	1.120622	-0.532498
O224	O	1.610635	1.620622	-0.032498
C225	C	1.148437	1.073884	-0.576451
C226	C	1.648437	1.573884	-0.076451
H227	H	1.148799	1.021531	-0.541947
H228	H	1.648799	1.521531	-0.041947
H229	H	1.204824	1.097348	-0.588489
H230	H	1.704824	1.597348	-0.088489
H231	H	1.122255	1.064981	-0.634457
H232	H	1.622255	1.564981	-0.134457
H233	H	0.760675	0.287856	-0.334229
H234	H	1.260675	0.787856	0.165771
O235	O	1.104623	0.975520	-0.525683
O236	O	1.604623	1.475520	-0.025683
C237	C	1.062743	0.931335	-0.572490
C238	C	1.562743	1.431335	-0.072490
H239	H	1.008892	0.918215	-0.541747
H240	H	1.508892	1.418215	-0.041747
H241	H	1.089364	0.880693	-0.581952
H242	H	1.589364	1.380693	-0.081952
H243	H	1.056107	0.959365	-0.631618
H244	H	1.556107	1.459365	-0.131618
O245	O	0.299045	0.480094	-0.556660
O246	O	0.799045	0.980094	-0.056660
C247	C	0.225783	0.467502	-0.542069
C248	C	0.725783	0.967502	-0.042069
H249	H	0.213562	0.412670	-0.513462
H250	H	0.713562	0.912670	-0.013462
H251	H	0.198020	0.471226	-0.599786
H252	H	0.698020	0.971226	-0.099786
H253	H	0.206527	0.508427	-0.501162
H254	H	0.706527	1.008427	-0.001162
H255	H	0.633672	0.446287	-0.517489
H256	H	1.133672	0.946287	-0.017489
O257	O	0.437051	0.307984	-0.357478
O258	O	0.937051	0.807984	0.142522
C259	C	0.387174	0.266194	-0.309166
C260	C	0.887174	0.766194	0.190834
H261	H	0.335838	0.292961	-0.305295
H262	H	0.835838	0.792961	0.194705
H263	H	0.408120	0.259450	-0.247967
H264	H	0.908120	0.759450	0.252033
H265	H	0.377231	0.212381	-0.335167
H266	H	0.877231	0.712381	0.164833
H267	H	0.627105	0.282494	-0.328028
H268	H	1.127105	0.782494	0.171972
H269	H	1.110954	0.301964	-0.889826
H270	H	1.610954	0.801964	-0.389826
