data_functionalizedCrystal
_audit_creation_method	'MofGen! by Chris Wilmer'
_symmetry_space_group_name_H-M	'P1'
_symmetry_Int_Tables_number	1
_symmetry_cell_setting	triclinic
loop_
_symmetry_equiv_pos_as_xyz
  x,y,z
_cell_length_a	13.032831
_cell_length_b	18.215405
_cell_length_c	18.215399
_cell_angle_alpha	90.030970
_cell_angle_beta	97.190377
_cell_angle_gamma	82.829003
loop_
_atom_site_label
_atom_site_type_symbol
_atom_site_fract_x
_atom_site_fract_y
_atom_site_fract_z
Zn1	Zn	1.597604	-0.436090	0.558718
Zn2	Zn	1.930938	-0.102756	0.892052
Zn3	Zn	2.264271	0.230577	1.225385
Zn4	Zn	1.597476	-0.559150	0.435635
Zn5	Zn	1.930809	-0.225817	0.768968
Zn6	Zn	2.264142	0.107516	1.102302
Zn7	Zn	1.422849	-0.420461	0.420066
Zn8	Zn	1.756183	-0.087127	0.753399
Zn9	Zn	2.089516	0.246206	1.086732
Zn10	Zn	1.422799	-0.543461	0.543067
Zn11	Zn	1.756133	-0.210128	0.876400
Zn12	Zn	2.089466	0.123205	1.209733
O13	O	1.510182	-0.489791	0.489371
O14	O	1.843516	-0.156457	0.822705
O15	O	2.176849	0.176876	1.156038
O16	O	1.743826	-0.465521	0.555457
O17	O	2.077159	-0.132187	0.888790
O18	O	2.410492	0.201146	1.222124
O19	O	1.574278	-0.540778	0.330582
O20	O	1.907612	-0.207445	0.663916
O21	O	2.240945	0.125889	0.997249
O22	O	1.446106	-0.319556	0.438492
O23	O	1.779439	0.013777	0.771826
O24	O	2.112772	0.347110	1.105159
O25	O	1.743731	-0.555933	0.465028
O26	O	2.077064	-0.222600	0.798362
O27	O	2.410398	0.110734	1.131695
O28	O	1.574497	-0.331039	0.540360
O29	O	1.907831	0.002294	0.873693
O30	O	2.241164	0.335628	1.207027
O31	O	1.445981	-0.438883	0.319144
O32	O	1.779314	-0.105550	0.652477
O33	O	2.112648	0.227784	0.985810
O34	O	1.276604	-0.423670	0.423316
O35	O	1.609938	-0.090337	0.756649
O36	O	1.943271	0.242997	1.089982
O37	O	1.446021	-0.529193	0.648130
O38	O	1.779354	-0.195860	0.981464
O39	O	2.112687	0.137473	1.314797
O40	O	1.276568	-0.514038	0.513684
O41	O	1.609901	-0.180705	0.847018
O42	O	1.943234	0.152628	1.180351
O43	O	1.574449	-0.450308	0.659629
O44	O	1.907782	-0.116974	0.992963
O45	O	2.241116	0.216359	1.326296
O46	O	1.574230	-0.660047	0.449852
O47	O	1.907563	-0.326713	0.783185
O48	O	2.240896	0.006620	1.116518
O49	O	1.445896	-0.648520	0.528781
O50	O	1.779229	-0.315187	0.862115
O51	O	2.112562	0.018147	1.195448
C52	C	1.510072	-0.680987	0.489326
C53	C	1.843405	-0.347654	0.822659
C54	C	2.176738	-0.014320	1.155993
C55	C	1.510120	-0.762790	0.489340
C56	C	1.843454	-0.429457	0.822673
C57	C	2.176787	-0.096123	1.156007
C58	C	1.238668	-0.465456	0.465113
C59	C	1.572001	-0.132123	0.798446
C60	C	1.905335	0.201210	1.131779
C61	C	1.122513	-0.455064	0.454752
C62	C	1.455846	-0.121730	0.788085
C63	C	1.789180	0.211603	1.121419
C64	C	1.577101	-0.956976	0.448342
C65	C	1.910434	-0.623642	0.781675
C66	C	2.243767	-0.290309	1.115009
C67	C	1.577147	-1.033838	0.448364
C68	C	1.910481	-0.700505	0.781697
C69	C	2.243814	-0.367172	1.115030
C70	C	1.443397	-1.021865	0.530466
C71	C	1.776731	-0.688532	0.863799
C72	C	2.110064	-0.355199	1.197132
C73	C	1.443357	-0.945004	0.530447
C74	C	1.776690	-0.611671	0.863781
C75	C	2.110023	-0.278338	1.197114
C76	C	1.510207	-0.912561	0.489381
C77	C	1.843540	-0.579228	0.822715
C78	C	2.176873	-0.245895	1.156048
C79	C	1.510294	-1.066285	0.489421
C80	C	1.843628	-0.732952	0.822755
C81	C	2.176961	-0.399619	1.156088
C82	C	1.510344	-1.149623	0.489446
C83	C	1.843678	-0.816290	0.822779
C84	C	2.177011	-0.482957	1.156112
C85	C	1.510158	-0.829218	0.489358
C86	C	1.843492	-0.495885	0.822691
C87	C	2.176825	-0.162551	1.156025
C88	C	1.070737	-0.495215	0.494779
C89	C	1.404070	-0.161881	0.828112
C90	C	1.737404	0.171452	1.161445
C91	C	0.950685	-0.484474	0.484071
C92	C	1.284018	-0.151141	0.817405
C93	C	1.617351	0.182192	1.150738
C94	C	1.782756	-0.514220	0.513725
C95	C	2.116090	-0.180887	0.847059
C96	C	2.449423	0.152446	1.180392
C97	C	1.898911	-0.524631	0.524103
C98	C	2.232245	-0.191297	0.857437
C99	C	2.565578	0.142036	1.190770
C100	C	1.510244	-0.489744	0.681330
C101	C	1.843577	-0.156411	1.014663
C102	C	2.176910	0.176923	1.347997
C103	C	1.510270	-0.489724	0.763131
C104	C	1.843603	-0.156391	1.096464
C105	C	2.176936	0.176943	1.429798
C106	C	1.510321	-0.297850	0.489435
C107	C	1.843655	0.035483	0.822769
C108	C	2.176988	0.368817	1.156102
C109	C	1.510381	-0.216056	0.489463
C110	C	1.843714	0.117277	0.822796
C111	C	2.177047	0.450610	1.156129
C112	C	1.510181	-0.489789	0.298165
C113	C	1.843515	-0.156456	0.631498
C114	C	2.176848	0.176877	0.964832
C115	C	1.510358	-0.489620	0.216382
C116	C	1.843691	-0.156287	0.549716
C117	C	2.177024	0.177047	0.883049
C118	C	1.577181	-0.448588	1.034181
C119	C	1.910514	-0.115255	1.367514
C120	C	2.243848	0.218078	1.700848
C121	C	1.577169	-0.448607	0.957321
C122	C	1.910502	-0.115274	1.290655
C123	C	2.243835	0.218060	1.623988
C124	C	1.443443	-0.530761	0.945337
C125	C	1.776777	-0.197427	1.278671
C126	C	2.110110	0.135906	1.612004
C127	C	1.443462	-0.530746	1.022197
C128	C	1.776795	-0.197412	1.355530
C129	C	2.110128	0.135921	1.688863
C130	C	1.510329	-0.489655	1.066616
C131	C	1.843662	-0.156322	1.399950
C132	C	2.176996	0.177012	1.733283
C133	C	1.510298	-0.489689	0.912897
C134	C	1.843632	-0.156356	1.246231
C135	C	2.176965	0.176978	1.579564
C136	C	1.510284	-0.489710	0.829562
C137	C	1.843618	-0.156376	1.162896
C138	C	2.176951	0.176957	1.496229
C139	C	1.510345	-0.489635	1.149957
C140	C	1.843678	-0.156302	1.483290
C141	C	2.177011	0.177031	1.816623
H142	H	1.631536	-0.930563	0.414904
H143	H	1.964869	-0.597229	0.748238
H144	H	2.298202	-0.263896	1.081571
H145	H	1.389001	-0.564214	0.909162
H146	H	1.722334	-0.230880	1.242495
H147	H	2.055668	0.102453	1.575828
N148	N	1.649275	-0.404312	0.922342
N149	N	1.982609	-0.070978	1.255675
N150	N	2.315942	0.262355	1.589008
H151	H	1.606824	-0.366413	0.886666
H152	H	1.940157	-0.033080	1.219999
H153	H	2.273490	0.300253	1.553333
H154	H	1.697667	-0.438615	0.894816
H155	H	2.031000	-0.105281	1.228149
H156	H	2.364334	0.228052	1.561483
N157	N	1.063512	-0.399002	0.398852
N158	N	1.396845	-0.065669	0.732186
N159	N	1.730179	0.267664	1.065519
H160	H	1.082475	-0.348117	0.412053
H161	H	1.415808	-0.014784	0.745386
H162	H	1.749142	0.318549	1.078719
H163	H	0.986133	-0.399345	0.399152
H164	H	1.319467	-0.066012	0.732486
H165	H	1.652800	0.267322	1.065819
N166	N	1.649296	-0.404270	1.082092
N167	N	1.982629	-0.070937	1.415425
N168	N	2.315963	0.262397	1.748759
H169	H	1.691644	-0.378257	1.049879
H170	H	2.024977	-0.044924	1.383212
H171	H	2.358311	0.288409	1.716545
H172	H	1.697647	-0.438548	1.118295
H173	H	2.030980	-0.105214	1.451629
H174	H	2.364314	0.228119	1.784962
H175	H	1.389022	-0.564191	1.048605
H176	H	1.722355	-0.230858	1.381939
H177	H	2.055688	0.102476	1.715272
H178	H	1.388969	-1.048290	0.563899
H179	H	1.722302	-0.714957	0.897233
H180	H	2.055636	-0.381623	1.230566
H181	H	1.388884	-0.908840	0.563870
H182	H	1.722217	-0.575506	0.897203
H183	H	2.055550	-0.242173	1.230537
N184	N	1.649299	-1.081743	0.404102
N185	N	1.982632	-0.748410	0.737435
N186	N	2.315966	-0.415077	1.070769
H187	H	1.691639	-1.049525	0.378086
H188	H	2.024972	-0.716192	0.711420
H189	H	2.358306	-0.382859	1.044753
H190	H	1.606808	-1.109877	0.366230
H191	H	1.940142	-0.776544	0.699564
H192	H	2.273475	-0.443211	1.032897
H193	H	0.943457	-0.566956	0.566306
H194	H	1.276790	-0.233622	0.899639
H195	H	1.610123	0.099711	1.232973
N196	N	1.129736	-0.551283	0.550672
N197	N	1.463069	-0.217950	0.884006
N198	N	1.796402	0.115383	1.217339
H199	H	1.207134	-0.551009	0.550397
H200	H	1.540468	-0.217676	0.883730
H201	H	1.873801	0.115657	1.217064
H202	H	1.110681	-0.602134	0.537430
H203	H	1.444015	-0.268801	0.870763
H204	H	1.777348	0.064533	1.204097
H205	H	0.906138	-0.442143	0.441877
H206	H	1.239471	-0.108809	0.775210
H207	H	1.572805	0.224524	1.108543
