data_functionalizedCrystal
_audit_creation_method	'MofGen! by Chris Wilmer'
_symmetry_space_group_name_H-M	'P1'
_symmetry_Int_Tables_number	1
_symmetry_cell_setting	triclinic
loop_
_symmetry_equiv_pos_as_xyz
  x,y,z
_cell_length_a	6.817900
_cell_length_b	7.190334
_cell_length_c	11.168121
_cell_angle_alpha	92.003899
_cell_angle_beta	108.508496
_cell_angle_gamma	60.611776
loop_
_atom_site_label
_atom_site_type_symbol
_atom_site_fract_x
_atom_site_fract_y
_atom_site_fract_z
V1	V	-4.248263	0.665018	-0.172691
V2	V	-3.748263	1.165018	0.327309
O3	O	-4.205210	0.652341	0.010371
O4	O	-3.705210	1.152341	0.510371
O5	O	-4.223608	0.660487	-0.344410
O6	O	-3.723608	1.160487	0.155590
O7	O	-4.284905	0.955048	-0.169125
O8	O	-3.784905	1.455048	0.330875
O9	O	-4.143488	0.355741	-0.166127
O10	O	-3.643488	0.855741	0.333873
V11	V	-4.717795	0.628024	-0.150902
V12	V	-4.217795	1.128024	0.349098
O13	O	-4.540213	0.746168	-0.220486
O14	O	-4.040213	1.246168	0.279514
O15	O	-4.876043	0.546874	-0.103106
O16	O	-4.376043	1.046874	0.396894
O17	O	-4.519244	0.632555	0.020817
O18	O	-4.019244	1.132555	0.520817
O19	O	-4.878245	0.640702	-0.333963
O20	O	-4.378245	1.140702	0.166037
O21	O	-4.939967	0.937301	-0.157465
O22	O	-4.439967	1.437301	0.342535
O23	O	-4.457947	0.337995	-0.154467
O24	O	-3.957947	0.837995	0.345533
C25	C	-4.071634	0.650001	-0.386299
C26	C	-3.571634	1.150001	0.113701
C27	C	-4.133329	0.648230	-0.526676
C28	C	-3.633329	1.148230	-0.026676
C29	C	-4.337779	0.657556	-0.595340
C30	C	-3.837779	1.157556	-0.095340
C31	C	-4.401548	0.655726	-0.740427
C32	C	-3.901548	1.155726	-0.240427
C33	C	-4.149834	1.025739	-0.162700
C34	C	-3.649834	1.525739	0.337300
C35	C	-4.263326	1.267296	-0.160886
C36	C	-3.763326	1.767296	0.339114
C37	C	-4.334559	0.643035	0.062700
C38	C	-3.834559	1.143035	0.562700
C39	C	-4.252107	0.644820	0.203076
C40	C	-3.752107	1.144820	0.703076
H41	H	-4.465611	0.666908	-0.546716
H42	H	-3.965611	1.166908	-0.046716
H43	H	-4.576679	0.663685	-0.799451
H44	H	-4.076679	1.163685	-0.299451
H45	H	-4.076955	0.636829	-0.737905
H46	H	-3.576955	1.136829	-0.237905
H47	H	-4.005508	0.638902	-0.575303
H48	H	-3.505508	1.138902	-0.075303
