data_functionalizedCrystal
_audit_creation_method	'MofGen! by Chris Wilmer'
_symmetry_space_group_name_H-M	'P1'
_symmetry_Int_Tables_number	1
_symmetry_cell_setting	triclinic
loop_
_symmetry_equiv_pos_as_xyz
  x,y,z
_cell_length_a	16.120530
_cell_length_b	16.120444
_cell_length_c	16.120297
_cell_angle_alpha	95.615117
_cell_angle_beta	90.128140
_cell_angle_gamma	90.168401
loop_
_atom_site_label
_atom_site_type_symbol
_atom_site_fract_x
_atom_site_fract_y
_atom_site_fract_z
Zn1	Zn	1.224979	-0.422266	-0.554818
Zn2	Zn	1.724979	0.077734	-0.054818
Zn3	Zn	1.224872	-0.554951	-0.422125
Zn4	Zn	1.724872	-0.054951	0.077875
Zn5	Zn	1.093719	-0.408182	-0.408061
Zn6	Zn	1.593719	0.091818	0.091939
Zn7	Zn	1.078869	-0.554183	-0.554057
Zn8	Zn	1.578869	-0.054183	-0.054057
O9	O	1.155610	-0.484895	-0.484765
O10	O	1.655610	0.015105	0.015235
O11	O	1.341001	-0.446082	-0.543421
O12	O	1.841001	0.053918	-0.043421
O13	O	1.213644	-0.529908	-0.303627
O14	O	1.713644	-0.029908	0.196373
O15	O	1.117390	-0.293419	-0.421961
O16	O	1.617390	0.206581	0.078039
O17	O	1.340922	-0.543565	-0.445931
O18	O	1.840922	-0.043565	0.054069
O19	O	1.213826	-0.303767	-0.529783
O20	O	1.713826	0.196233	-0.029783
O21	O	1.117286	-0.422078	-0.293294
O22	O	1.617286	0.077922	0.206706
O23	O	0.975713	-0.421333	-0.421223
O24	O	1.475713	0.078667	0.078777
O25	O	1.092082	-0.542257	-0.670791
O26	O	1.592082	-0.042257	-0.170791
O27	O	0.964804	-0.528600	-0.528486
O28	O	1.464804	-0.028600	-0.028486
O29	O	1.199428	-0.445338	-0.671350
O30	O	1.699428	0.054662	-0.171350
O31	O	1.199245	-0.671480	-0.445193
O32	O	1.699245	-0.171480	0.054807
O33	O	1.091978	-0.670916	-0.542124
O34	O	1.591978	-0.170916	-0.042124
C35	C	0.940172	-0.473356	-0.473247
C36	C	1.440172	0.026644	0.026753
C37	C	0.848004	-0.468440	-0.468340
C38	C	1.348004	0.031560	0.031660
C39	C	0.679253	-0.459446	-0.459387
C40	C	1.179253	0.040554	0.040613
C41	C	0.632801	-0.510409	-0.510208
C42	C	1.132801	-0.010409	-0.010208
C43	C	0.538902	-0.505404	-0.505226
C44	C	1.038902	-0.005404	-0.005226
C45	C	0.773160	-0.464449	-0.464367
C46	C	1.273160	0.035551	0.035633
C47	C	1.144010	-0.701441	-0.495121
C48	C	1.644010	-0.201441	0.004879
C49	C	1.139122	-0.794086	-0.499584
C50	C	1.639122	-0.294086	0.000416
C51	C	1.181160	-1.005244	-0.461807
C52	C	1.681160	-0.505244	0.038193
C53	C	1.130213	-0.963704	-0.507740
C54	C	1.630213	-0.463704	-0.007740
C55	C	1.135171	-0.869320	-0.503201
C56	C	1.635171	-0.369320	-0.003201
C57	C	1.176203	-1.099637	-0.466346
C58	C	1.676203	-0.599637	0.033654
C59	C	1.371889	-0.496481	-0.496330
C60	C	1.871889	0.003519	0.003670
C61	C	1.464055	-0.501417	-0.501258
C62	C	1.964055	-0.001417	-0.001258
C63	C	1.144110	-0.495283	-0.702158
C64	C	1.644110	0.004717	-0.202158
C65	C	1.139210	-0.499710	-0.794797
C66	C	1.639210	0.000290	-0.294797
C67	C	1.167277	-0.267506	-0.474388
C68	C	1.667277	0.232494	0.025612
C69	C	1.172248	-0.174868	-0.469966
C70	C	1.672248	0.325132	0.030034
C71	C	1.130233	-0.507771	-0.964409
C72	C	1.630233	-0.007771	-0.464409
C73	C	1.181163	-0.461778	-1.005971
C74	C	1.681163	0.038222	-0.505971
C75	C	1.176169	-0.466264	-1.100348
C76	C	1.676169	0.033736	-0.600348
C77	C	1.135227	-0.503287	-0.870023
C78	C	1.635227	-0.003287	-0.370023
C79	C	1.167116	-0.474490	-0.268218
C80	C	1.667116	0.025510	0.231782
C81	C	1.172189	-0.469838	-0.175577
C82	C	1.672189	0.030162	0.324423
H83	H	0.648503	-0.412062	-0.412140
H84	H	1.148503	0.087938	0.087860
N85	N	1.070818	-0.561382	-1.008675
N86	N	1.570818	-0.061382	-0.508675
N87	N	0.995101	-0.551299	-0.994670
N88	N	1.495101	-0.051299	-0.494670
H89	H	0.953137	-0.589157	-1.025943
H90	H	1.453137	-0.089157	-0.525943
H91	H	0.663552	-0.557796	-0.557459
H92	H	1.163552	-0.057796	-0.057459
N93	N	1.240541	-0.960952	-0.408182
N94	N	1.740541	-0.460952	0.091818
N95	N	1.288440	-0.999948	-0.364984
N96	N	1.788440	-0.499948	0.135016
H97	H	1.330375	-0.968660	-0.327109
H98	H	1.830375	-0.468660	0.172891
N99	N	1.070825	-1.008021	-0.561346
N100	N	1.570825	-0.508021	-0.061346
N101	N	1.066827	-1.085742	-0.565002
N102	N	1.566827	-0.585742	-0.065002
H103	H	1.024884	-1.117045	-0.602856
H104	H	1.524884	-0.617045	-0.102856
N105	N	1.240586	-0.408173	-0.961697
N106	N	1.740586	0.091827	-0.461697
N107	N	1.316301	-0.418262	-0.975707
N108	N	1.816301	0.081738	-0.475707
H109	H	1.358270	-0.380409	-0.944436
H110	H	1.858270	0.119591	-0.444436
