data_functionalizedCrystal
_audit_creation_method	'MofGen! by Chris Wilmer'
_symmetry_space_group_name_H-M	'P1'
_symmetry_Int_Tables_number	1
_symmetry_cell_setting	triclinic
loop_
_symmetry_equiv_pos_as_xyz
  x,y,z
_cell_length_a	18.050591
_cell_length_b	18.050590
_cell_length_c	12.759393
_cell_angle_alpha	90.035234
_cell_angle_beta	90.028291
_cell_angle_gamma	90.014558
loop_
_atom_site_label
_atom_site_type_symbol
_atom_site_fract_x
_atom_site_fract_y
_atom_site_fract_z
Zn1	Zn	1.135396	-0.295698	0.594209
Zn2	Zn	1.635396	0.204302	1.094209
Zn3	Zn	1.135312	-0.419908	0.418516
Zn4	Zn	1.635312	0.080092	0.918516
Zn5	Zn	1.011200	-0.295727	0.418520
Zn6	Zn	1.511200	0.204273	0.918520
Zn7	Zn	1.011185	-0.419843	0.594129
Zn8	Zn	1.511185	0.080157	1.094129
O9	O	1.073273	-0.357794	0.506343
O10	O	1.573273	0.142206	1.006343
O11	O	1.239310	-0.312190	0.570934
O12	O	1.739310	0.187810	1.070934
O13	O	1.118819	-0.403474	0.271495
O14	O	1.618819	0.096526	0.771495
O15	O	1.027716	-0.191799	0.441860
O16	O	1.527716	0.308201	0.941860
O17	O	1.239248	-0.403446	0.441854
O18	O	1.739248	0.096554	0.941854
O19	O	1.118963	-0.191778	0.570938
O20	O	1.618963	0.308222	1.070938
O21	O	1.027635	-0.312239	0.271498
O22	O	1.527635	0.187761	0.771498
O23	O	0.907273	-0.312176	0.441783
O24	O	1.407273	0.187824	0.941783
O25	O	1.027691	-0.403335	0.741161
O26	O	1.527691	0.096665	1.241161
O27	O	0.907262	-0.403363	0.570803
O28	O	1.407262	0.096637	1.070803
O29	O	1.118948	-0.312127	0.741219
O30	O	1.618948	0.187873	1.241219
O31	O	1.118805	-0.523824	0.441777
O32	O	1.618805	-0.023824	0.941777
O33	O	1.027609	-0.523776	0.570799
O34	O	1.527609	-0.023776	1.070799
C35	C	0.880321	-0.357766	0.506285
C36	C	1.380321	0.142234	1.006285
C37	C	0.797775	-0.357772	0.506285
C38	C	1.297775	0.142228	1.006285
C39	C	0.598309	-0.308127	0.436286
C40	C	1.098309	0.191873	0.936286
C41	C	0.548899	-0.375867	0.410430
C42	C	1.048899	0.124133	0.910430
C43	C	0.646645	-0.357795	0.506333
C44	C	1.146645	0.142205	1.006333
C45	C	0.548974	-0.290079	0.532186
C46	C	1.048974	0.209921	1.032186
C47	C	0.500660	-0.357811	0.506377
C48	C	1.000660	0.142189	1.006377
C49	C	0.598322	-0.425570	0.480427
C50	C	1.098322	0.074430	0.980427
C51	C	0.598401	-0.339736	0.602228
C52	C	1.098401	0.160264	1.102228
C53	C	0.549013	-0.407523	0.576408
C54	C	1.049013	0.092477	1.076408
C55	C	0.730743	-0.357785	0.506305
C56	C	1.230743	0.142215	1.006305
C57	C	0.416563	-0.357828	0.506405
C58	C	0.916563	0.142172	1.006405
C59	C	1.073216	-0.550746	0.506302
C60	C	1.573216	-0.050746	1.006302
C61	C	1.073260	-0.633292	0.506319
C62	C	1.573260	-0.133292	1.006319
C63	C	1.122955	-0.832741	0.436254
C64	C	1.622955	-0.332741	0.936254
C65	C	1.141099	-0.882067	0.532145
C66	C	1.641099	-0.382067	1.032145
C67	C	1.073302	-0.784422	0.506361
C68	C	1.573302	-0.284422	1.006361
C69	C	1.055233	-0.882178	0.410513
C70	C	1.555233	-0.382178	0.910513
C71	C	1.073344	-0.930407	0.506393
C72	C	1.573344	-0.430407	1.006393
C73	C	1.091481	-0.832661	0.602302
C74	C	1.591481	-0.332661	1.102302
C75	C	1.005583	-0.832767	0.480605
C76	C	1.505583	-0.332767	0.980605
C77	C	1.023702	-0.882071	0.576562
C78	C	1.523702	-0.382071	1.076562
C79	C	1.073279	-0.700324	0.506341
C80	C	1.573279	-0.200324	1.006341
C81	C	1.073366	-1.014504	0.506423
C82	C	1.573366	-0.514504	1.006423
C83	C	1.266979	-0.357822	0.506402
C84	C	1.766979	0.142178	1.006402
C85	C	1.349525	-0.357834	0.506427
C86	C	1.849525	0.142166	1.006427
C87	C	1.073327	-0.357721	0.780377
C88	C	1.573327	0.142279	1.280377
C89	C	1.073350	-0.357690	0.897154
C90	C	1.573350	0.142310	1.397154
C91	C	1.073351	-0.164088	0.506408
C92	C	1.573351	0.335912	1.006408
C93	C	1.073384	-0.081543	0.506436
C94	C	1.573384	0.418457	1.006436
C95	C	1.073262	-0.357813	0.233376
C96	C	1.573262	0.142187	0.733376
C97	C	1.073383	-0.357635	0.116600
C98	C	1.573383	0.142365	0.616600
C99	C	1.120887	-0.310162	1.061779
C100	C	1.620887	0.189838	1.561779
C101	C	1.120873	-0.310191	0.952055
C102	C	1.620873	0.189809	1.452055
C103	C	1.025844	-0.405168	0.951982
C104	C	1.525844	0.094832	1.451982
C105	C	1.025863	-0.405143	1.061704
C106	C	1.525863	0.094857	1.561704
H107	H	0.619954	-0.266170	0.376986
H108	H	1.119954	0.233830	0.876986
H109	H	0.620162	-0.324429	0.683281
H110	H	1.120162	0.175571	1.183281
H111	H	0.948313	-0.811094	0.458772
H112	H	1.448313	-0.311094	0.958772
H113	H	0.987178	-0.443805	1.106341
H114	H	1.487178	0.056195	1.606341
H115	H	0.527504	-0.449580	0.635663
H116	H	1.027504	0.050420	1.135663
H117	H	0.527258	-0.232813	0.553999
H118	H	1.027258	0.267187	1.053999
H119	H	1.159581	-0.271478	1.106472
H120	H	1.659581	0.228522	1.606472
H121	H	1.164960	-0.811081	0.377029
H122	H	1.664960	-0.311081	0.877029
H123	H	0.527156	-0.391153	0.329352
H124	H	1.027156	0.108847	0.829352
H125	H	1.039933	-0.903928	0.329443
H126	H	1.539933	-0.403928	0.829443
H127	H	1.159556	-0.271534	0.907424
H128	H	1.659556	0.228466	1.407424
H129	H	1.198386	-0.903725	0.553950
H130	H	1.698386	-0.403725	1.053950
H131	H	1.106724	-0.811003	0.683442
H132	H	1.606724	-0.311003	1.183442
H133	H	0.619908	-0.482861	0.458488
H134	H	1.119908	0.017139	0.958488
H135	H	0.981729	-0.903594	0.635931
H136	H	1.481729	-0.403594	1.135931
H137	H	0.987154	-0.443846	0.907273
H138	H	1.487154	0.056154	1.407273
