data_functionalizedCrystal
_audit_creation_method	'MofGen! by Chris Wilmer'
_symmetry_space_group_name_H-M	'P1'
_symmetry_Int_Tables_number	1
_symmetry_cell_setting	triclinic
loop_
_symmetry_equiv_pos_as_xyz
  x,y,z
_cell_length_a	23.532407
_cell_length_b	23.532409
_cell_length_c	12.996460
_cell_angle_alpha	89.996917
_cell_angle_beta	89.999749
_cell_angle_gamma	82.849119
loop_
_atom_site_label
_atom_site_type_symbol
_atom_site_fract_x
_atom_site_fract_y
_atom_site_fract_z
O1	O	0.755261	0.069136	-0.085432
O2	O	1.255261	0.569136	0.414568
O3	O	0.589398	0.079139	-0.085461
O4	O	1.089398	0.579139	0.414539
O5	O	0.677330	-0.008794	-0.085447
O6	O	1.177330	0.491206	0.414553
O7	O	0.667328	0.157069	-0.085446
O8	O	1.167328	0.657069	0.414554
O9	O	0.677321	-0.008799	0.085687
O10	O	1.177321	0.491201	0.585687
O11	O	0.589388	0.079134	0.085673
O12	O	1.089388	0.579134	0.585673
O13	O	0.755252	0.069131	0.085702
O14	O	1.255252	0.569131	0.585702
Cu15	Cu	0.672319	0.074132	0.101313
Cu16	Cu	1.172319	0.574132	0.601313
Cu17	Cu	0.672330	0.074138	-0.101072
Cu18	Cu	1.172330	0.574138	0.398928
O19	O	0.667319	0.157064	0.085688
O20	O	1.167319	0.657064	0.585688
C21	C	0.568177	0.078882	0.000102
C22	C	1.068177	0.578882	0.500102
C23	C	0.504960	0.078116	0.000090
C24	C	1.004960	0.578116	0.500090
C25	C	0.677071	-0.030013	0.000117
C26	C	1.177071	0.469987	0.500117
C27	C	0.676304	-0.093230	0.000110
C28	C	1.176304	0.406770	0.500110
C29	C	0.673050	-0.366472	-0.093180
C30	C	1.173050	0.133528	0.406820
C31	C	0.673762	-0.307072	-0.093180
C32	C	1.173762	0.192928	0.406820
O33	O	0.674154	-0.276345	-0.172513
O34	O	1.174154	0.223655	0.327487
N35	N	0.674109	-0.277372	0.000106
N36	N	1.174109	0.222628	0.500106
C37	C	0.673751	-0.307077	0.093399
C38	C	1.173751	0.192923	0.593399
O39	O	0.674112	-0.276361	0.172747
O40	O	1.174112	0.223639	0.672747
C41	C	0.673043	-0.366477	0.093398
C42	C	1.173043	0.133523	0.593398
C43	C	0.672690	-0.396172	0.000105
C44	C	1.172690	0.103828	0.500105
C45	C	0.672698	-0.396168	-0.186466
C46	C	1.172698	0.103832	0.313534
C47	C	0.671985	-0.455564	-0.186465
C48	C	1.171985	0.044436	0.313535
C49	C	0.671625	-0.485264	-0.093179
C50	C	1.171625	0.014736	0.406821
C51	C	0.671977	-0.455568	0.000106
C52	C	1.171977	0.044432	0.500106
C53	C	0.672689	-0.396181	0.186690
C54	C	1.172689	0.103819	0.686690
C55	C	0.671982	-0.455584	0.186681
C56	C	1.171982	0.044416	0.686681
C57	C	0.671628	-0.485280	0.093388
C58	C	1.171628	0.014720	0.593388
C59	C	0.670904	-0.544664	0.093392
C60	C	1.170904	-0.044664	0.593392
N61	N	0.670557	-0.574364	0.000105
N62	N	1.170557	-0.074364	0.500105
C63	C	0.670917	-0.544664	-0.093180
C64	C	1.170917	-0.044664	0.406820
C65	C	0.675238	-0.182334	0.093394
C66	C	1.175238	0.317666	0.593394
C67	C	0.675941	-0.122935	0.093396
C68	C	1.175941	0.377065	0.593396
C69	C	0.675953	-0.122934	-0.093184
C70	C	1.175953	0.377066	0.406816
C71	C	0.675246	-0.182333	-0.093185
C72	C	1.175246	0.317667	0.406815
C73	C	0.674890	-0.212033	0.000107
C74	C	1.174890	0.287967	0.500107
C75	C	0.669420	-0.669399	-0.093172
C76	C	1.169420	-0.169399	0.406828
C77	C	0.668705	-0.728800	-0.093164
C78	C	1.168705	-0.228800	0.406836
C79	C	0.668696	-0.728796	0.093416
C80	C	1.168696	-0.228796	0.593416
C81	C	0.669408	-0.669400	0.093407
C82	C	1.169408	-0.169400	0.593407
C83	C	0.669772	-0.639703	0.000105
C84	C	1.169772	-0.139703	0.500105
O85	O	0.670514	-0.575429	0.172684
O86	O	1.170514	-0.075429	0.672684
O87	O	0.670564	-0.575388	-0.172515
O88	O	1.170564	-0.075388	0.327485
C89	C	0.105857	0.125349	0.000137
C90	C	0.605857	0.625349	0.500137
C91	C	0.046457	0.124638	0.000144
C92	C	0.546457	0.624638	0.500144
O93	O	0.009713	0.168424	0.000181
O94	O	0.509713	0.668424	0.500181
N95	N	0.023830	0.072362	0.000142
N96	N	0.523830	0.572362	0.500142
C97	C	0.060608	0.020794	0.000144
C98	C	0.560608	0.520794	0.500144
O99	O	0.035908	-0.023737	0.000144
O100	O	0.535908	0.476263	0.500144
C101	C	0.120007	0.021506	0.000145
C102	C	0.620007	0.521506	0.500145
C103	C	0.142630	0.073785	0.000136
C104	C	0.642630	0.573785	0.500136
C105	C	0.128481	0.177625	0.000130
C106	C	0.628481	0.677625	0.500130
C107	C	0.187877	0.178336	0.000122
C108	C	0.687877	0.678336	0.500122
C109	C	0.224649	0.126772	0.000121
C110	C	0.724649	0.626772	0.500121
C111	C	0.202026	0.074496	0.000128
C112	C	0.702026	0.574496	0.500128
C113	C	0.156783	-0.030062	0.000154
C114	C	0.656783	0.469938	0.500154
C115	C	0.216185	-0.029345	0.000156
C116	C	0.716185	0.470655	0.500156
C117	C	0.238808	0.022934	0.000148
C118	C	0.738808	0.522934	0.500148
C119	C	0.298195	0.023643	0.000119
C120	C	0.798195	0.523643	0.500119
N121	N	0.320821	0.075920	0.000121
N122	N	0.820821	0.575920	0.500121
C123	C	0.284049	0.127484	0.000122
C124	C	0.784049	0.627484	0.500122
C125	C	-0.064135	0.019302	0.000143
C126	C	0.435865	0.519302	0.500143
C127	C	-0.123533	0.018589	0.000135
C128	C	0.376467	0.518589	0.500135
C129	C	-0.137679	0.122434	0.000137
C130	C	0.362321	0.622434	0.500137
C131	C	-0.078280	0.123146	0.000138
C132	C	0.421720	0.623146	0.500138
C133	C	-0.041508	0.071578	0.000145
C134	C	0.458492	0.571578	0.500145
C135	C	0.408785	0.128974	0.000104
C136	C	0.908785	0.628974	0.500104
C137	C	0.468187	0.129680	0.000091
C138	C	0.968187	0.629680	0.500091
C139	C	0.482329	0.025836	0.000095
C140	C	0.982329	0.525836	0.500095
C141	C	0.422932	0.025129	0.000102
C142	C	0.922932	0.525129	0.500102
C143	C	0.386161	0.076702	0.000110
C144	C	0.886161	0.576702	0.500110
O145	O	0.334973	-0.020119	0.000086
O146	O	0.834973	0.479881	0.500086
O147	O	0.308757	0.172007	0.000136
O148	O	0.808757	0.672007	0.500136
C149	C	0.776472	0.069388	0.000137
C150	C	1.276472	0.569388	0.500137
C151	C	0.839689	0.070154	0.000141
C152	C	1.339689	0.570154	0.500141
C153	C	0.667579	0.178283	0.000121
C154	C	1.167579	0.678283	0.500121
C155	C	0.668345	0.241500	0.000122
C156	C	1.168345	0.741500	0.500122
N157	N	0.672316	0.074128	0.243660
N158	N	1.172316	0.574128	0.743660
N159	N	0.672338	0.074138	-0.243420
N160	N	1.172338	0.574138	0.256580
C161	C	0.672329	0.074138	0.663475
C162	C	1.172329	0.574138	1.163475
C163	C	0.672324	0.074137	0.546669
C164	C	1.172324	0.574137	1.046669
C165	C	0.672323	0.074134	0.453571
C166	C	1.172323	0.574134	0.953571
C167	C	0.672317	0.074132	0.336759
C168	C	1.172317	0.574132	0.836759
H169	H	0.668416	-0.752976	-0.169137
H170	H	1.168416	-0.252976	0.330863
H171	H	0.668400	-0.752989	0.169366
H172	H	1.168400	-0.252989	0.669366
Br173	Br	-0.187597	0.192415	0.000140
Br174	Br	0.312403	0.692415	0.500140
H175	H	-0.141947	-0.023982	0.000126
H176	H	0.358053	0.476018	0.500126
Br177	Br	0.669914	-0.629106	-0.219798
Br178	Br	1.169914	-0.129106	0.280202
Br179	Br	-0.014235	-0.050690	0.000145
Br180	Br	0.485765	0.449310	0.500145
Br181	Br	0.673188	-0.355872	-0.313085
Br182	Br	1.173188	0.144128	0.186915
H183	H	0.671702	-0.479737	-0.262434
H184	H	1.171702	0.020263	0.237566
Br185	Br	0.498886	0.200636	0.000073
Br186	Br	0.998886	0.700636	0.500073
H187	H	0.138374	-0.072634	0.000162
H188	H	0.638374	0.427366	0.500162
Br189	Br	0.671503	-0.495888	0.313299
Br190	Br	1.171503	0.004112	0.813299
H191	H	0.669673	-0.645218	0.169374
H192	H	1.169673	-0.145218	0.669374
H193	H	0.676218	-0.098760	0.169364
H194	H	1.176218	0.401240	0.669364
H195	H	0.674943	-0.206511	0.169368
H196	H	1.174943	0.293489	0.669368
Br197	Br	0.674767	-0.222628	-0.219800
Br198	Br	1.174767	0.277372	0.280200
Br199	Br	0.392228	-0.045822	0.000117
Br200	Br	0.892228	0.454178	0.500117
H201	H	0.512279	-0.016146	0.000090
H202	H	1.012279	0.483854	0.500090
H203	H	0.246123	-0.071339	0.000163
H204	H	0.746123	0.428661	0.500163
H205	H	0.378853	0.170970	0.000113
H206	H	0.878853	0.670970	0.500113
Br207	Br	0.218570	0.249291	0.000115
Br208	Br	0.718570	0.749291	0.500115
Br209	Br	0.078585	0.247615	0.000131
Br210	Br	0.578585	0.747615	0.500131
Br211	Br	0.676428	-0.082613	-0.219787
Br212	Br	1.176428	0.417387	0.280213
H213	H	0.672982	-0.372013	0.262659
H214	H	1.172982	0.127987	0.762659
H215	H	-0.059865	0.165717	0.000137
H216	H	0.440135	0.665717	0.500137
