data_functionalizedCrystal
_audit_creation_method	'MofGen! by Chris Wilmer'
_symmetry_space_group_name_H-M	'P1'
_symmetry_Int_Tables_number	1
_symmetry_cell_setting	triclinic
loop_
_symmetry_equiv_pos_as_xyz
  x,y,z
_cell_length_a	25.639239
_cell_length_b	17.077404
_cell_length_c	17.077396
_cell_angle_alpha	89.981638
_cell_angle_beta	89.968926
_cell_angle_gamma	90.036656
loop_
_atom_site_label
_atom_site_type_symbol
_atom_site_fract_x
_atom_site_fract_y
_atom_site_fract_z
Zn1	Zn	-0.208179	1.199968	-0.443805
Zn2	Zn	-0.295617	1.199839	-0.312533
Zn3	Zn	-0.208194	1.068700	-0.312555
Zn4	Zn	-0.295582	1.068632	-0.443759
O5	O	-0.251893	1.134285	-0.378163
O6	O	-0.219786	1.309798	-0.426401
O7	O	-0.284041	1.182418	-0.202689
O8	O	-0.135027	1.086196	-0.329994
O9	O	-0.284026	1.309703	-0.329956
O10	O	-0.135016	1.182638	-0.426423
O11	O	-0.219811	1.086071	-0.202705
O12	O	-0.219778	0.958844	-0.329950
O13	O	-0.283967	1.086080	-0.553612
O14	O	-0.283982	0.958794	-0.426345
O15	O	-0.219753	1.182572	-0.553646
O16	O	-0.368777	1.182352	-0.329912
O17	O	-0.368752	1.085954	-0.426323
C18	C	-0.251878	0.930337	-0.378145
C19	C	-0.251884	0.843087	-0.378156
C20	C	-0.218494	0.802147	-0.428452
C21	C	-0.218498	0.720167	-0.428456
C22	C	-0.251894	0.679128	-0.378167
C23	C	-0.285286	0.720074	-0.327866
C24	C	-0.285280	0.802053	-0.327859
C25	C	-0.285298	0.549204	-0.327885
C26	C	-0.285305	0.467219	-0.327893
C27	C	-0.218516	0.467318	-0.428482
C28	C	-0.218509	0.549297	-0.428475
C29	C	-0.251902	0.590237	-0.378175
C30	C	-0.387736	1.134153	-0.378127
C31	C	-0.445850	1.134168	-0.378138
C32	C	-0.806213	1.184610	-0.328047
C33	C	-0.860818	1.184641	-0.328058
O34	O	-0.889055	1.227391	-0.285429
N35	N	-0.888132	1.134423	-0.378215
C36	C	-0.860839	1.084177	-0.428371
O37	O	-0.889086	1.041467	-0.471035
C38	C	-0.806236	1.084151	-0.428364
C39	C	-0.778924	1.134367	-0.378197
C40	C	-0.778902	1.234822	-0.277885
C41	C	-0.724301	1.234790	-0.277874
C42	C	-0.697012	1.184547	-0.328024
C43	C	-0.724324	1.134335	-0.378186
C44	C	-0.778944	1.033910	-0.478523
C45	C	-0.724337	1.033889	-0.478512
C46	C	-0.697026	1.084104	-0.428345
C47	C	-0.642435	1.084060	-0.428325
N48	N	-0.615120	1.134277	-0.378167
C49	C	-0.642409	1.184521	-0.328017
C50	C	-0.975510	1.084236	-0.428383
C51	C	-1.030112	1.084258	-0.428386
C52	C	-1.030087	1.184722	-0.328074
C53	C	-0.975483	1.184696	-0.328067
C54	C	-0.948196	1.134454	-0.378225
C55	C	-0.527744	1.184450	-0.327997
C56	C	-0.473138	1.184412	-0.327988
C57	C	-0.473169	1.083951	-0.428302
C58	C	-0.527769	1.083986	-0.428309
C59	C	-0.555056	1.134242	-0.378154
O60	O	-0.614163	1.041333	-0.470934
O61	O	-0.614155	1.227232	-0.285367
C62	C	-0.115520	1.134439	-0.378216
C63	C	-0.057406	1.134504	-0.378239
C64	C	-0.251855	1.134332	-0.582907
C65	C	-0.251838	1.134353	-0.670157
C66	C	-0.251908	1.339029	-0.378181
C67	C	-0.251915	1.426279	-0.378189
C68	C	-0.218399	1.184598	-0.711166
C69	C	-0.218381	1.184608	-0.793147
C70	C	-0.251806	1.134375	-0.834117
C71	C	-0.285247	1.084124	-0.793102
C72	C	-0.285262	1.084111	-0.711123
C73	C	-0.285216	1.084156	-0.963972
C74	C	-0.285202	1.084169	-1.045957
C75	C	-0.218335	1.184652	-1.045996
C76	C	-0.218350	1.184639	-0.964017
C77	C	-0.251792	1.134389	-0.923008
C78	C	-0.251894	1.134283	-0.174215
C79	C	-0.251763	1.134415	-0.086966
H80	H	-0.191300	0.835555	-0.469405
Br81	Br	-0.815996	0.965765	-0.546618
H82	H	-0.191182	1.225506	-0.677814
Br83	Br	-0.436076	1.252564	-0.259899
Br84	Br	-0.330607	1.015946	-0.848703
H85	H	-0.702122	0.992977	-0.519359
H86	H	-0.312476	0.686653	-0.286916
Br87	Br	-0.173191	0.604993	-0.496733
Br88	Br	-0.173180	0.664608	-0.496717
Br89	Br	-0.173197	0.411758	-0.496747
Br90	Br	-0.564837	1.015817	-0.496373
Br91	Br	-0.330596	0.857615	-0.259597
H92	H	-0.953295	1.043317	-0.469225
H93	H	-0.191153	1.225524	-0.826532
H94	H	-0.312500	0.433807	-0.286944
Br95	Br	-0.330642	1.015914	-0.655467
H96	H	-0.191135	1.225547	-0.930661
H97	H	-0.312488	0.582535	-0.286924
H98	H	-0.549954	1.225375	-0.287157
Br99	Br	-0.687244	1.302955	-0.209799
H100	H	-0.450942	1.043040	-0.469132
Br101	Br	-0.815926	1.303021	-0.209817
Br102	Br	-0.172952	1.252852	-1.101649
H103	H	-0.953249	1.225586	-0.287218
Br104	Br	-1.067132	1.252907	-0.260009
H105	H	-1.052345	1.043360	-0.469230
H106	H	-0.312419	1.043264	-1.079312
H107	H	-0.312439	1.043225	-0.930585
