data_functionalizedCrystal
_audit_creation_method	'MofGen! by Chris Wilmer'
_symmetry_space_group_name_H-M	'P1'
_symmetry_Int_Tables_number	1
_symmetry_cell_setting	triclinic
loop_
_symmetry_equiv_pos_as_xyz
  x,y,z
_cell_length_a	27.732048
_cell_length_b	15.455283
_cell_length_c	16.974813
_cell_angle_alpha	83.332430
_cell_angle_beta	83.020085
_cell_angle_gamma	86.997501
loop_
_atom_site_label
_atom_site_type_symbol
_atom_site_fract_x
_atom_site_fract_y
_atom_site_fract_z
O1	O	0.643346	-0.078859	0.097455
O2	O	0.502636	-0.079893	0.111805
O3	O	0.576703	-0.071264	-0.010868
O4	O	0.569279	-0.087488	0.220128
O5	O	0.572932	0.073433	-0.017059
O6	O	0.498864	0.064805	0.105614
O7	O	0.639575	0.065838	0.091265
Cu8	Cu	0.568875	0.078533	0.097874
Cu9	Cu	0.573335	-0.092588	0.105195
O10	O	0.565507	0.057209	0.213938
C11	C	0.482741	-0.007526	0.108408
C12	C	0.429081	-0.007472	0.107502
N13	N	0.576473	-0.212945	0.110338
C14	C	0.574465	0.003158	-0.043507
C15	C	0.573409	0.009334	-0.131537
C16	C	0.090647	-0.012125	0.174282
C17	C	-0.111032	-0.011881	0.170917
O18	O	-0.141939	-0.016133	0.231982
N19	N	-0.130571	-0.006774	0.098177
C20	C	-0.099688	-0.001721	0.026273
O21	O	-0.120936	0.002637	-0.035674
C22	C	0.101990	-0.001959	0.029639
C23	C	0.121527	-0.007076	0.102384
C24	C	0.110185	-0.017240	0.247021
C25	C	0.160602	-0.017306	0.247862
C26	C	0.191481	-0.012257	0.175964
C27	C	0.171944	-0.007141	0.103225
C28	C	0.132872	0.003099	-0.042264
C29	C	0.183294	0.003042	-0.041416
C30	C	0.202831	-0.002075	0.031329
C31	C	0.253240	-0.002158	0.032167
N32	N	0.272780	-0.007265	0.104907
C33	C	0.241900	-0.012315	0.176805
C34	C	-0.205572	-0.001598	0.024511
C35	C	-0.255991	-0.001540	0.023670
C36	C	-0.267332	-0.011699	0.168313
C37	C	-0.216911	-0.011763	0.169154
C38	C	-0.186033	-0.006706	0.097251
C39	C	0.347780	-0.012453	0.178565
C40	C	0.398202	-0.012522	0.179400
C41	C	0.409538	-0.002359	0.034757
C42	C	0.359120	-0.002295	0.033922
C43	C	0.328242	-0.007339	0.105833
O44	O	0.284176	0.002101	-0.028866
O45	O	0.263157	-0.016653	0.238743
C46	C	0.040230	-0.012059	0.173441
C47	C	0.020693	-0.006944	0.100702
C48	C	0.051572	-0.001895	0.028804
C49	C	-0.029726	-0.006886	0.099861
C50	C	-0.060606	-0.011936	0.171759
C51	C	-0.041066	-0.017043	0.244499
C52	C	0.009351	-0.017109	0.245339
C53	C	0.032033	0.003213	-0.043935
C54	C	-0.018385	0.003277	-0.044770
C55	C	-0.049264	-0.001773	0.027128
C56	C	0.659469	-0.006530	0.094661
C57	C	0.713129	-0.006590	0.095568
C58	C	0.548354	-0.255111	0.064403
C59	C	0.550734	-0.346191	0.068270
C60	C	0.581230	-0.395103	0.118079
C61	C	0.609352	-0.352930	0.164016
C62	C	0.606975	-0.261852	0.160143
C63	C	0.591486	-0.667858	0.134790
C64	C	0.593860	-0.758943	0.138661
C65	C	0.535242	-0.752197	0.042913
C66	C	0.532865	-0.661118	0.039049
C67	C	0.560989	-0.618953	0.084983
N68	N	0.583662	-0.488201	0.122035
N69	N	0.558559	-0.525856	0.081022
N70	N	0.565741	0.198891	0.092725
C71	C	0.574970	-0.066638	-0.169515
C72	C	0.573974	-0.060831	-0.252228
C73	C	0.571422	0.020948	-0.296962
C74	C	0.569859	0.096926	-0.258978
C75	C	0.570851	0.091118	-0.176266
C76	C	0.568231	0.046774	-0.544697
C77	C	0.567241	0.052575	-0.627415
C78	C	0.571355	-0.105182	-0.620659
C79	C	0.572350	-0.110982	-0.537946
C80	C	0.570785	-0.035005	-0.499969
N81	N	0.570406	0.026885	-0.381509
N82	N	0.571797	-0.040943	-0.415423
C83	C	0.567745	-0.017214	0.246577
C84	C	0.568802	-0.023397	0.334607
H85	H	0.414106	-0.016689	0.238640
H86	H	0.057171	0.007327	-0.102485
H87	H	0.512346	-0.786538	0.005516
F88	F	0.569189	0.171978	-0.135848
F89	F	-0.073939	-0.022422	0.321018
H90	H	0.116974	0.007267	-0.101500
F91	F	0.567137	0.183962	-0.306589
F92	F	0.520794	-0.391065	0.019398
H93	H	0.572628	-0.167039	-0.651589
F94	F	0.575068	-0.198023	-0.490342
H95	H	0.618693	-0.798765	0.179226
H96	H	-0.201008	-0.015924	0.228389
F97	F	0.500405	-0.609069	-0.013960
F98	F	0.314924	-0.017821	0.255101
F99	F	0.181387	-0.022748	0.325287
H100	H	0.565159	0.119173	-0.663836
H101	H	0.085047	-0.021349	0.305572
F102	F	-0.300205	-0.017072	0.244833
F103	F	0.575636	-0.141692	-0.292643
H104	H	-0.271893	0.002612	-0.035566
F105	F	0.216155	0.008426	-0.117948
H106	H	0.614386	-0.633539	0.172193
F107	F	0.636904	-0.216976	0.209032
F108	F	-0.039171	0.008712	-0.122200
F109	F	0.566559	0.127637	-0.504288
H110	H	0.523518	-0.215294	0.023848
F111	F	0.641811	-0.404988	0.217022
F112	F	0.338327	0.003151	-0.043501
F113	F	-0.172714	0.003784	-0.052023
H114	H	0.577051	-0.133231	-0.133098
F115	F	0.442410	0.003016	-0.041758
H116	H	0.025253	-0.021274	0.304575
