data_functionalizedCrystal
_audit_creation_method	'MofGen! by Chris Wilmer'
_symmetry_space_group_name_H-M	'P1'
_symmetry_Int_Tables_number	1
_symmetry_cell_setting	triclinic
loop_
_symmetry_equiv_pos_as_xyz
  x,y,z
_cell_length_a	19.377372
_cell_length_b	17.052844
_cell_length_c	17.052862
_cell_angle_alpha	118.506570
_cell_angle_beta	86.939559
_cell_angle_gamma	98.862569
loop_
_atom_site_label
_atom_site_type_symbol
_atom_site_fract_x
_atom_site_fract_y
_atom_site_fract_z
Zr1	Zr	0.747531	-1.072669	-0.367976
O2	O	0.676300	-1.176172	-0.480141
O3	O	0.753684	-0.924055	-0.315164
O4	O	0.788246	-1.053693	-0.483721
O5	O	0.632314	-1.077233	-0.199584
O6	O	0.894391	-1.090041	-0.507507
O7	O	0.641738	-1.046533	-0.311584
O8	O	0.832566	-0.858141	-0.205988
O9	O	0.694139	-1.309133	-0.501103
O10	O	0.854470	-1.029016	-0.332654
O11	O	0.768223	-1.024801	-0.231319
O12	O	0.808915	-1.177434	-0.429774
O13	O	0.722668	-1.173219	-0.328439
Zr14	Zr	0.901788	-1.179602	-0.227285
Zr15	Zr	0.916819	-1.130640	-0.405911
Zr16	Zr	0.732501	-1.121632	-0.189349
Zr17	Zr	0.775982	-1.284727	-0.401407
Zr18	Zr	0.873337	-0.967545	-0.193853
O19	O	0.895635	-1.328217	-0.280097
O20	O	0.917006	-1.258598	-0.534081
O21	O	0.654929	-1.245790	-0.226157
O22	O	0.973019	-1.076100	-0.115119
O23	O	0.994390	-1.006481	-0.369103
O24	O	0.732313	-0.993673	-0.061180
O25	O	1.017005	-1.175039	-0.395676
O26	O	0.861073	-1.198578	-0.111539
O27	O	0.754928	-1.162231	-0.087753
O28	O	1.007581	-1.205738	-0.283677
O29	O	0.828700	-1.355212	-0.531256
O30	O	0.820619	-0.897060	-0.064004
O31	O	0.955180	-0.943139	-0.094158
O32	O	0.967127	-0.904220	-0.236142
O33	O	0.682192	-1.348052	-0.359119
O34	O	0.816754	-1.394130	-0.389272
O35	O	0.840404	-1.074838	-0.165486
O36	O	0.926651	-1.079053	-0.266821
O37	O	0.881096	-1.227471	-0.363941
O38	O	0.794849	-1.223256	-0.262606
C39	C	0.789071	-0.860884	-0.255813
C40	C	0.776993	-0.770860	-0.241620
C41	C	0.923026	-0.525903	-0.413210
C42	C	0.934373	-0.610487	-0.426550
C43	C	0.895029	-0.650584	-0.380319
C44	C	0.844336	-0.606089	-0.320745
C45	C	0.832984	-0.521500	-0.307409
C46	C	0.804987	-0.646181	-0.274517
C47	C	0.754294	-0.601686	-0.214944
C48	C	0.742945	-0.517105	-0.201609
C49	C	0.782289	-0.477007	-0.247841
C50	C	0.816339	-0.730771	-0.287854
C51	C	0.726297	-0.726368	-0.182053
C52	C	0.714950	-0.641784	-0.168712
C53	C	0.612906	-1.053624	-0.250179
C54	C	0.541039	-1.029014	-0.234074
C55	C	0.185784	-1.335427	-0.434586
C56	C	0.118260	-1.312281	-0.419439
C57	C	0.165826	-1.157345	-0.318053
C58	C	0.233355	-1.180478	-0.333188
C59	C	0.243328	-1.269520	-0.391456
C60	C	0.290898	-1.114571	-0.290059
C61	C	0.358422	-1.137701	-0.305197
C62	C	0.368402	-1.226739	-0.363464
C63	C	0.310851	-1.292650	-0.406594
C64	C	0.280924	-1.025528	-0.231796
C65	C	0.338468	-0.959621	-0.188666
C66	C	0.405992	-0.982753	-0.203799
C67	C	0.415972	-1.071790	-0.262066
C68	C	0.463543	-0.916841	-0.160669
C69	C	0.531066	-0.939971	-0.175806
C70	C	0.483496	-1.094920	-0.277204
C71	C	1.036413	-1.198648	-0.345082
C72	C	1.108280	-1.223258	-0.361186
C73	C	0.860249	-0.391387	-0.339448
C74	C	0.872331	-0.481410	-0.353642
C75	C	0.843460	-1.064891	-0.521065
C76	C	0.849841	-1.044105	-0.596896
C77	C	0.772699	-1.295408	-1.013439
C78	C	0.766700	-1.314939	-0.942192
C79	C	0.787485	-1.247232	-0.855865
C80	C	0.814269	-1.159991	-0.840791
C81	C	0.820264	-1.140456	-0.912043
C82	C	0.835050	-1.092281	-0.754470
C83	C	0.861834	-1.005039	-0.739395
C84	C	0.867828	-0.985508	-0.810642
C85	C	0.847043	-1.053215	-0.896969
C86	C	0.829055	-1.111815	-0.683217
C87	C	0.876620	-0.956864	-0.581822
C88	C	0.882619	-0.937333	-0.653068
C89	C	0.805859	-1.187381	-0.074196
C90	C	0.799478	-1.208167	0.001636
C91	C	1.000825	-0.933396	-0.303264
C92	C	1.060613	-0.867982	-0.305176
C93	C	0.770271	-0.922129	-0.032378
C94	C	0.751812	-0.852891	0.057646
C95	C	0.982024	-0.994641	-0.079830
C96	C	1.035432	-0.950013	-0.005910
C97	C	0.667295	-1.257630	-0.515431
C98	C	0.613887	-1.302258	-0.589350
C99	C	0.648495	-1.318875	-0.291996
C100	C	0.588706	-1.384289	-0.290084
C101	C	0.879048	-1.330143	-0.562882
C102	C	0.897507	-1.399381	-0.652906
C103	C	1.051014	-0.811143	-0.340446
C104	C	1.107188	-0.749684	-0.342260
C105	C	1.172961	-0.745062	-0.308798
C106	C	1.182560	-0.801911	-0.273528
C107	C	1.126387	-0.863372	-0.271720
C108	C	0.780821	-0.846497	0.134294
C109	C	0.763474	-0.781453	0.218886
C110	C	0.717123	-0.722800	0.226829
C111	C	0.688111	-0.729198	0.150173
C112	C	0.705454	-0.794246	0.065582
C113	C	1.105541	-0.931258	-0.024094
C114	C	1.155732	-0.889337	0.045351
C115	C	1.135813	-0.866167	0.132980
C116	C	1.065698	-0.884927	0.151163
C117	C	1.015509	-0.926853	0.081718
C118	C	0.543780	-1.321024	-0.571168
C119	C	0.493592	-1.362971	-0.640617
C120	C	0.513512	-1.386146	-0.728247
C121	C	0.583626	-1.367380	-0.746429
C122	C	0.633813	-1.325439	-0.676982
C123	C	0.598307	-1.441136	-0.254823
C124	C	0.542138	-1.502612	-0.253033
C125	C	0.476366	-1.507236	-0.286498
C126	C	0.466766	-1.450385	-0.321764
C127	C	0.522936	-1.388914	-0.323560
C128	C	0.943861	-1.458017	-0.660820
C129	C	0.961218	-1.523069	-0.745402
C130	C	0.932218	-1.529488	-0.822069
C131	C	0.885862	-1.470843	-0.814152
C132	C	0.868509	-1.405788	-0.729571
H133	H	0.955052	-0.493253	-0.450851
H134	H	0.651856	-1.437380	-0.227566
F135	F	0.830155	-0.908909	0.125860
F136	F	0.416590	-1.572663	-0.284580
H137	H	0.787105	-0.776255	0.281293
H138	H	1.212819	-0.874066	0.030531
F139	F	0.327845	-0.864859	-0.126657
F140	F	1.044508	-0.860262	0.244431
F141	F	1.010551	-1.585478	-0.753809
F142	F	0.738175	-1.407777	-0.958235
H143	H	1.134212	-0.909647	-0.242994
F144	F	0.396761	-1.455314	-0.357375
F145	F	0.209059	-1.000910	-0.215693
H146	H	0.599838	-1.386254	-0.817786
H147	H	0.997465	-0.814901	-0.367707
F148	F	0.552368	-1.563106	-0.215494
F149	F	1.096957	-0.689188	-0.379796
F150	F	0.698672	-0.653574	0.316865
F151	F	0.974734	-1.451201	-0.579235
H152	H	0.455412	-0.844342	-0.113234
H153	H	0.681831	-0.799440	0.003177
F154	F	0.321467	-1.387422	-0.468601
H155	H	0.650370	-0.681434	0.156654
H156	H	0.527547	-1.302153	-0.499819
F157	F	0.770215	-0.386979	-0.233639
F158	F	0.896324	-0.892654	-0.794593
H159	H	0.958423	-0.942115	0.096537
H160	H	1.121772	-0.950117	-0.095441
H161	H	0.946353	-1.582464	-0.890935
H162	H	0.893542	-0.901731	-0.511531
H163	H	0.515108	-1.342628	-0.352270
H164	H	1.236119	-0.798138	-0.246285
F165	F	1.232739	-0.679644	-0.310726
H166	H	0.975647	-0.646713	-0.475055
H167	H	0.904427	-0.866300	-0.640806
F168	F	0.854998	-1.477691	-0.895756
F169	F	1.189236	-0.821545	0.206883
H170	H	0.701662	-0.480883	-0.153108
F171	F	0.592312	-0.869825	-0.129906
H172	H	0.436505	-1.378241	-0.625795
F173	F	0.460090	-1.430782	-0.802152
F174	F	0.819168	-1.343393	-0.721162
H175	H	0.782598	-1.263140	-0.797856
H176	H	0.157696	-1.084846	-0.270614
F177	F	0.907108	-0.740606	-0.394517
F178	F	0.870290	-0.778116	-0.351255
F179	F	0.661003	-0.594417	-0.105308
F180	F	0.684419	-0.769040	-0.132850
H181	H	0.491613	-1.167434	-0.324627
H182	H	0.423385	-1.245569	-0.375789
F183	F	0.196400	-1.430198	-0.496593
H184	H	0.071407	-1.365957	-0.454567
H185	H	0.807245	-1.182848	-0.695500
H186	H	0.690897	-1.310159	-0.691796
H187	H	0.755775	-1.350524	-1.083726
H188	H	0.851928	-1.037318	-0.954988
