data_functionalizedCrystal
_audit_creation_method	'MofGen! by Chris Wilmer'
_symmetry_space_group_name_H-M	'P1'
_symmetry_Int_Tables_number	1
_symmetry_cell_setting	triclinic
loop_
_symmetry_equiv_pos_as_xyz
  x,y,z
_cell_length_a	11.026607
_cell_length_b	10.654550
_cell_length_c	9.730223
_cell_angle_alpha	89.999807
_cell_angle_beta	89.999798
_cell_angle_gamma	96.535460
loop_
_atom_site_label
_atom_site_type_symbol
_atom_site_fract_x
_atom_site_fract_y
_atom_site_fract_z
O1	O	1.614591	0.526872	-0.114287
O2	O	1.260779	0.466877	-0.114290
O3	O	1.445820	0.315901	-0.114283
O4	O	1.429550	0.677848	-0.114294
O5	O	1.445818	0.315905	0.114297
O6	O	1.260777	0.466881	0.114290
O7	O	1.614588	0.526877	0.114292
Zn8	Zn	1.437683	0.496880	0.150583
Zn9	Zn	1.437685	0.496874	-0.150580
O10	O	1.429548	0.677852	0.114286
C11	C	1.215474	0.455811	0.000000
C12	C	1.080483	0.422816	-0.000001
C13	C	1.444624	0.268846	0.000005
C14	C	1.441050	0.128627	0.000000
C15	C	1.549999	0.072791	0.000005
C16	C	1.546633	-0.058961	-0.000005
C17	C	1.325361	-0.079029	-0.000018
C18	C	1.328727	0.052720	-0.000018
C19	C	1.677749	0.084376	0.000019
C20	C	1.674383	-0.047376	0.000009
C21	C	1.007444	0.513920	-0.000004
C22	C	0.867922	0.479820	-0.000005
C23	C	1.659893	0.537943	-0.000000
C24	C	1.794885	0.570937	-0.000008
C25	C	1.430744	0.724907	-0.000005
C26	C	1.434318	0.865126	-0.000009
N27	N	1.437689	0.496885	0.356120
N28	N	1.437688	0.496861	-0.356117
C29	C	1.519647	0.430066	0.428049
C30	C	1.519643	0.430050	0.571932
C31	C	1.355722	0.563681	0.571944
C32	C	1.355720	0.563689	0.428064
C33	C	1.614289	0.352920	0.428042
C34	C	1.614286	0.352904	0.571925
H35	H	1.240011	0.098176	-0.000041
F36	F	1.743060	0.136930	-0.125004
H37	H	1.039722	0.319575	-0.000033
H38	H	1.722517	-0.078685	0.095668
F39	F	1.730903	0.142492	0.129028
H40	H	1.288984	0.618071	0.630537
F41	F	1.575668	0.225294	0.630252
H42	H	1.707716	0.394703	0.610976
H43	H	1.233911	-0.140848	-0.000034
H44	H	1.593531	0.251881	0.388991
H45	H	0.835638	0.674186	-0.000002
H46	H	1.288974	0.618085	0.369501
F47	F	0.814658	0.344867	0.000008
H48	H	1.702562	0.402669	0.383416
H49	H	1.712992	-0.084640	-0.098685
H50	H	1.048204	0.617161	0.000001
