data_functionalizedCrystal
_audit_creation_method	'MofGen! by Chris Wilmer'
_symmetry_space_group_name_H-M	'P1'
_symmetry_Int_Tables_number	1
_symmetry_cell_setting	triclinic
loop_
_symmetry_equiv_pos_as_xyz
  x,y,z
_cell_length_a	12.594517
_cell_length_b	16.625546
_cell_length_c	16.625527
_cell_angle_alpha	89.912139
_cell_angle_beta	89.939794
_cell_angle_gamma	90.022268
loop_
_atom_site_label
_atom_site_type_symbol
_atom_site_fract_x
_atom_site_fract_y
_atom_site_fract_z
Zn1	Zn	1.627628	-0.320547	-0.455906
Zn2	Zn	1.627378	-0.455526	-0.321068
Zn3	Zn	1.449511	-0.320710	-0.321085
Zn4	Zn	1.449594	-0.455341	-0.455857
O5	O	1.538528	-0.388031	-0.388479
O6	O	1.776541	-0.338461	-0.438032
O7	O	1.603644	-0.437787	-0.208237
O8	O	1.473209	-0.207856	-0.338997
O9	O	1.776357	-0.437629	-0.338967
O10	O	1.604070	-0.207736	-0.438049
O11	O	1.472966	-0.338739	-0.208250
O12	O	1.300576	-0.338560	-0.338950
O13	O	1.473350	-0.437315	-0.568696
O14	O	1.300637	-0.437473	-0.437966
O15	O	1.604151	-0.338282	-0.568732
O16	O	1.603725	-0.568333	-0.338920
O17	O	1.473108	-0.568198	-0.437949
C18	C	1.538427	-0.597522	-0.388445
C19	C	1.538481	-0.687143	-0.388458
C20	C	1.261987	-0.388015	-0.388455
C21	C	1.143681	-0.388027	-0.388464
C22	C	1.538667	-1.015318	-0.388542
C23	C	1.538612	-0.924010	-0.388521
C24	C	1.538573	-0.851234	-0.388499
C25	C	1.538520	-0.759919	-0.388479
C26	C	1.074364	-0.334155	-0.334712
C27	C	1.003525	-0.407723	-0.314873
C28	C	1.003722	-0.314496	-0.408317
C29	C	1.074400	-0.461633	-0.368587
C30	C	1.074604	-0.368357	-0.462065
C31	C	1.003796	-0.441975	-0.442254
C32	C	1.816149	-0.388048	-0.388503
C33	C	1.934454	-0.388055	-0.388514
C34	C	1.538788	-0.387760	-0.598788
C35	C	1.538898	-0.387644	-0.688410
C36	C	1.538658	-0.177722	-0.388531
C37	C	1.538714	-0.088101	-0.388552
C38	C	1.538330	-0.388243	-0.178988
C39	C	1.538426	-0.388131	-0.089367
C40	C	1.538821	-0.387736	0.238808
C41	C	1.538714	-0.387848	0.147500
C42	C	1.538623	-0.387934	0.074723
C43	C	1.538517	-0.388045	-0.016591
H44	H	1.105351	-0.288642	-0.289199
C45	C	0.961328	-0.430218	-0.230826
H46	H	0.919826	-0.477804	-0.234411
H47	H	0.918740	-0.387591	-0.210716
H48	H	1.019394	-0.439145	-0.195500
H49	H	1.105317	-0.523848	-0.351747
C50	C	0.962186	-0.503603	-0.503687
H51	H	0.986516	-0.555799	-0.489470
H52	H	0.987598	-0.490066	-0.555795
H53	H	0.886761	-0.502973	-0.503680
C54	C	1.116820	-0.345829	-0.546092
H55	H	1.092666	-0.293530	-0.560102
H56	H	1.091608	-0.383573	-0.584431
H57	H	1.192241	-0.346466	-0.545577
H58	H	0.972619	-0.252308	-0.425060
