data_functionalizedCrystal
_audit_creation_method	'MofGen! by Chris Wilmer'
_symmetry_space_group_name_H-M	'P1'
_symmetry_Int_Tables_number	1
_symmetry_cell_setting	triclinic
loop_
_symmetry_equiv_pos_as_xyz
  x,y,z
_cell_length_a	23.532361
_cell_length_b	23.532357
_cell_length_c	18.366186
_cell_angle_alpha	89.988209
_cell_angle_beta	89.995229
_cell_angle_gamma	82.828980
loop_
_atom_site_label
_atom_site_type_symbol
_atom_site_fract_x
_atom_site_fract_y
_atom_site_fract_z
O1	O	0.755268	0.069011	-0.060485
O2	O	0.589399	0.079042	-0.060504
O3	O	0.677350	-0.008908	-0.060479
O4	O	0.667317	0.156961	-0.060510
O5	O	0.677335	-0.008912	0.060620
O6	O	0.589384	0.079038	0.060595
O7	O	0.755253	0.069007	0.060614
Zn8	Zn	0.672316	0.074022	0.079832
Zn9	Zn	0.672336	0.074027	-0.079722
O10	O	0.667302	0.156957	0.060589
C11	C	0.568175	0.078789	0.000044
C12	C	0.504957	0.078034	0.000037
C13	C	0.231722	0.074732	-0.065969
C14	C	0.291121	0.075447	-0.065971
O15	O	0.321854	0.075799	-0.122110
N16	N	0.320819	0.075806	0.000040
C17	C	0.291114	0.075444	0.066058
O18	O	0.321829	0.075815	0.122206
C19	C	0.231716	0.074725	0.066059
C20	C	0.202021	0.074372	0.000043
C21	C	0.202027	0.074379	-0.131980
C22	C	0.142631	0.073665	-0.131977
C23	C	0.112930	0.073305	-0.065965
C24	C	0.142626	0.073658	0.000046
C25	C	0.202014	0.074359	0.132076
C26	C	0.142612	0.073640	0.132072
C27	C	0.112917	0.073287	0.066056
C28	C	0.053529	0.072584	0.066060
N29	N	0.023832	0.072225	0.000049
C30	C	0.053532	0.072586	-0.065964
C31	C	0.415854	0.076953	0.066051
C32	C	0.475251	0.077676	0.066050
C33	C	0.475254	0.077678	-0.065979
C34	C	0.415856	0.076959	-0.065978
C35	C	0.386157	0.076594	0.000039
C36	C	-0.071203	0.071087	-0.065954
C37	C	-0.130604	0.070376	-0.065946
C38	C	-0.130601	0.070371	0.066083
C39	C	-0.071206	0.071085	0.066075
C40	C	-0.041508	0.071441	0.000051
O41	O	0.022759	0.072230	0.122171
O42	O	0.022812	0.072208	-0.122102
C43	C	0.677092	-0.030127	0.000073
C44	C	0.676337	-0.093345	0.000080
C45	C	0.671608	-0.485353	-0.065972
C46	C	0.670891	-0.544753	-0.065976
O47	O	0.670508	-0.575467	-0.122116
N48	N	0.670527	-0.574466	0.000035
C49	C	0.670875	-0.544776	0.066053
O50	O	0.670499	-0.575504	0.122200
C51	C	0.671588	-0.485377	0.066057
C52	C	0.671958	-0.455668	0.000042
C53	C	0.671977	-0.455644	-0.131981
C54	C	0.672696	-0.396248	-0.131976
C55	C	0.673045	-0.366563	-0.065963
C56	C	0.672676	-0.396273	0.000047
C57	C	0.671932	-0.455688	0.132075
C58	C	0.672645	-0.396285	0.132073
C59	C	0.673014	-0.366576	0.066058
C60	C	0.673744	-0.307192	0.066065
N61	N	0.674108	-0.277479	0.000055
C62	C	0.673758	-0.307164	-0.065959
C63	C	0.669376	-0.669518	0.066041
C64	C	0.668667	-0.728916	0.066038
C65	C	0.668682	-0.728888	-0.065991
C66	C	0.669396	-0.669489	-0.065988
C67	C	0.669740	-0.639804	0.000031
C68	C	0.675267	-0.182430	-0.065945
C69	C	0.675988	-0.123030	-0.065934
C70	C	0.675970	-0.123063	0.066095
C71	C	0.675252	-0.182458	0.066085
C72	C	0.674899	-0.212140	0.000059
O73	O	0.674125	-0.276440	0.122176
O74	O	0.674127	-0.276428	-0.122096
C75	C	0.776477	0.069260	0.000065
C76	C	0.839695	0.070015	0.000067
C77	C	0.667560	0.178176	0.000036
C78	C	0.668315	0.241394	0.000024
N79	N	0.672307	0.074017	0.188723
N80	N	0.672350	0.074027	-0.188613
C81	C	0.711264	0.035092	0.226834
C82	C	0.711268	0.035090	0.303062
C83	C	0.672320	0.074022	0.341176
C84	C	0.633355	0.112950	0.303055
C85	C	0.633349	0.112948	0.226829
C86	C	0.664555	0.125935	0.461926
C87	C	0.664565	0.125939	0.538151
C88	C	0.672336	0.074029	0.576283
C89	C	0.680108	0.022115	0.538181
C90	C	0.680102	0.022112	0.461955
C91	C	0.672322	0.074029	0.423830
C92	C	0.711299	0.035098	0.697050
C93	C	0.711299	0.035095	0.773279
C94	C	0.633389	0.112960	0.773270
C95	C	0.633386	0.112959	0.697042
C96	C	0.672345	0.074028	0.658937
H97	H	0.499422	0.077973	0.119807
H98	H	-0.047030	0.071378	-0.119717
H99	H	0.742985	0.003391	0.195811
Br100	Br	0.764143	-0.017743	0.354794
H101	H	-0.154780	0.070090	-0.119706
Br102	Br	0.673193	-0.355937	-0.221573
Br103	Br	0.668180	-0.769230	0.155633
Br104	Br	0.668205	-0.769186	-0.155582
H105	H	0.118459	0.073375	-0.185734
H106	H	0.686429	-0.020158	0.430936
H107	H	0.601674	0.144658	0.804302
Br108	Br	0.580515	0.165790	0.645314
Br109	Br	0.580474	0.165779	0.175101
Br110	Br	0.676445	-0.082765	0.155681
H111	H	0.669696	-0.645303	-0.119743
H112	H	0.669659	-0.645352	0.119804
Br113	Br	0.242299	0.074840	0.221675
H114	H	0.658218	0.168209	0.430885
H115	H	0.674977	-0.206590	-0.119709
Br116	Br	0.671428	-0.495993	0.221672
H117	H	0.674956	-0.206650	0.119839
Br118	Br	0.671503	-0.495919	-0.221583
H119	H	0.686435	-0.020155	0.569227
H120	H	0.226203	0.074670	-0.185738
H121	H	-0.154795	0.070080	0.119829
H122	H	0.672917	-0.372118	0.185834
H123	H	0.743021	0.003394	0.804310
Br124	Br	-0.030905	0.071574	0.155669
Br125	Br	0.375561	0.076480	-0.155574
Br126	Br	0.515572	0.078170	-0.155569
H127	H	0.658241	0.168210	0.569167
Br128	Br	0.764169	-0.017738	0.645333
Br129	Br	0.580492	0.165784	0.354778
H130	H	0.391676	0.076663	0.119813
Br131	Br	0.676493	-0.082714	-0.155532
Br132	Br	0.102310	0.073139	0.221672
