data_functionalizedCrystal
_audit_creation_method	'MofGen! by Chris Wilmer'
_symmetry_space_group_name_H-M	'P1'
_symmetry_Int_Tables_number	1
_symmetry_cell_setting	triclinic
loop_
_symmetry_equiv_pos_as_xyz
  x,y,z
_cell_length_a	6.817900
_cell_length_b	14.125469
_cell_length_c	17.110486
_cell_angle_alpha	96.594463
_cell_angle_beta	99.060439
_cell_angle_gamma	100.398878
loop_
_atom_site_label
_atom_site_type_symbol
_atom_site_fract_x
_atom_site_fract_y
_atom_site_fract_z
V1	V	-3.961356	-0.132828	-0.246415
O2	O	-3.966155	0.006678	-0.242039
O3	O	-3.897893	-0.263659	-0.244427
O4	O	-3.891468	-0.130655	-0.354023
O5	O	-3.972624	-0.127246	-0.131684
V6	V	-4.449720	-0.116157	-0.232729
O7	O	-4.211995	-0.169397	-0.276437
O8	O	-4.649278	-0.079587	-0.202708
O9	O	-4.289976	0.014674	-0.234717
O10	O	-4.562318	-0.255662	-0.237105
O11	O	-4.555848	-0.121738	-0.347460
O12	O	-4.296401	-0.118329	-0.125121
C13	C	-3.739925	-0.295557	-0.240462
C14	C	-3.769180	-0.402512	-0.239554
C15	C	-3.822808	-0.598339	-0.237903
C16	C	-4.007635	-0.650657	-0.241244
C17	C	-4.037476	-0.759622	-0.240325
C18	C	-3.792959	-0.489364	-0.238822
C19	C	-3.731728	-0.125896	-0.380262
C20	C	-3.755771	-0.124986	-0.468230
C21	C	-3.947800	-0.129360	-0.513578
C22	C	-3.970379	-0.128503	-0.596233
C23	C	-3.800928	-0.123280	-0.633540
C24	C	-3.608882	-0.118903	-0.588185
C25	C	-3.586304	-0.119752	-0.505531
C26	C	-3.860056	-0.120469	-0.882901
C27	C	-3.882651	-0.119623	-0.965562
C28	C	-4.244146	-0.129222	-0.973603
C29	C	-4.221552	-0.130077	-0.890948
C30	C	-4.029508	-0.125694	-0.845600
C31	C	-3.824004	-0.122408	-0.718027
C32	C	-4.006433	-0.126560	-0.761114
C33	C	-4.111286	0.046567	-0.238680
C34	C	-4.061268	0.153521	-0.239593
C35	C	-4.119484	-0.123091	-0.098879
C36	C	-4.074680	-0.123997	-0.010910
H37	H	-3.686995	-0.635381	-0.234353
H38	H	-4.085792	-0.133619	-0.483210
C39	C	-3.377236	-0.198226	-0.418375
C40	C	-3.375221	-0.114953	-0.455683
H41	H	-3.246919	-0.195257	-0.387598
H42	H	-3.411210	-0.254439	-0.457884
H43	H	-3.474928	-0.201445	-0.384329
H44	H	-3.277540	-0.111738	-0.489733
H45	H	-3.341222	-0.058725	-0.416168
H46	H	-4.143458	-0.613612	-0.244792
C47	C	-4.347453	-0.135660	-0.767819
C48	C	-4.407822	-0.135828	-0.849943
H49	H	-4.462456	-0.139224	-0.742508
H50	H	-4.251864	-0.077471	-0.745524
H51	H	-4.287127	-0.190184	-0.759731
H52	H	-4.468135	-0.081300	-0.858031
H53	H	-4.503446	-0.194024	-0.872245
H54	H	-4.126745	-0.132060	-0.633151
C55	C	-4.505264	-0.216911	-1.081691
C56	C	-4.455224	-0.134031	-1.023456
H57	H	-4.635573	-0.219873	-1.112471
H58	H	-4.506611	-0.273389	-1.056375
H59	H	-4.407556	-0.213669	-1.115730
H60	H	-4.552924	-0.137276	-0.989413
H61	H	-4.453893	-0.077538	-1.048773
H62	H	-3.686041	-0.118159	-0.748412
C63	C	-3.398547	-0.029306	-0.666015
C64	C	-3.422621	-0.113161	-0.629194
H65	H	-3.283562	-0.025769	-0.691336
H66	H	-3.379586	0.026511	-0.626842
H67	H	-3.516161	-0.031802	-0.704850
H68	H	-3.305012	-0.110662	-0.590355
H69	H	-3.441568	-0.168993	-0.668372
H70	H	-3.744652	-0.115367	-0.995934
H71	H	-3.703696	-0.116935	-0.845993
H72	H	-4.144397	-0.130809	-0.730734
