data_functionalizedCrystal
_audit_creation_method	'MofGen! by Chris Wilmer'
_symmetry_space_group_name_H-M	'P1'
_symmetry_Int_Tables_number	1
_symmetry_cell_setting	triclinic
loop_
_symmetry_equiv_pos_as_xyz
  x,y,z
_cell_length_a	6.817900
_cell_length_b	11.102210
_cell_length_c	14.858572
_cell_angle_alpha	93.466834
_cell_angle_beta	104.524003
_cell_angle_gamma	108.604261
loop_
_atom_site_label
_atom_site_type_symbol
_atom_site_fract_x
_atom_site_fract_y
_atom_site_fract_z
V1	V	-4.064538	-0.176638	-0.289958
O2	O	-4.024475	0.007665	-0.284441
O3	O	-4.041628	-0.349452	-0.287973
O4	O	-4.020829	-0.174282	-0.416420
O5	O	-4.045418	-0.168718	-0.155105
V6	V	-4.544256	-0.154551	-0.273829
O7	O	-4.334145	-0.225089	-0.325339
O8	O	-4.724847	-0.106100	-0.238448
O9	O	-4.343960	0.018263	-0.275814
O10	O	-4.701716	-0.338854	-0.279346
O11	O	-4.680773	-0.162471	-0.408682
O12	O	-4.364759	-0.156907	-0.147367
C13	C	-3.892678	-0.391569	-0.283398
C14	C	-3.955264	-0.532850	-0.282618
C15	C	-3.997133	-0.713605	-0.196368
C16	C	-3.938305	-0.580855	-0.197090
C17	C	-4.031037	-0.617602	-0.367429
C18	C	-4.089850	-0.750349	-0.366705
C19	C	-3.684436	-0.373197	-0.092777
C20	C	-3.608695	-0.288451	-0.007969
C21	C	-3.704653	-0.319481	0.064478
C22	C	-3.876398	-0.435256	0.052120
C23	C	-3.952155	-0.519996	-0.032690
C24	C	-3.856149	-0.488966	-0.105133
C25	C	-4.343733	-0.958009	-0.471013
C26	C	-4.419506	-1.042752	-0.555824
C27	C	-4.323566	-1.011727	-0.628280
C28	C	-4.151855	-0.895951	-0.615931
C29	C	-4.076082	-0.811208	-0.531120
C30	C	-4.172021	-0.842242	-0.458664
C31	C	-3.866145	-0.168121	-0.447244
C32	C	-3.911860	-0.167338	-0.550627
C33	C	-4.079177	-0.164478	-0.929195
C34	C	-4.032616	-0.165274	-0.823866
C35	C	-3.995520	-0.165909	-0.739914
C36	C	-3.948956	-0.166703	-0.634578
C37	C	-4.156253	0.060374	-0.280386
C38	C	-4.072905	0.201653	-0.281172
C39	C	-4.182785	-0.163072	-0.116538
C40	C	-4.116308	-0.163848	-0.013154
H41	H	-4.073738	-0.870688	-0.674931
H42	H	-3.954540	-0.460502	0.111112
C43	C	-4.405603	-1.103535	-0.720451
C44	C	-4.284845	-1.051563	-0.781264
C45	C	-4.360361	-1.136086	-0.866182
H46	H	-4.390990	-1.183839	-0.708664
H47	H	-4.553364	-1.115800	-0.748600
H48	H	-4.137120	-1.039314	-0.753121
H49	H	-4.299444	-0.971268	-0.793078
H50	H	-4.508122	-1.148352	-0.894332
H51	H	-4.345746	-1.216386	-0.854386
H52	H	-4.278452	-1.100830	-0.907458
H53	H	-3.642976	-0.250471	0.133531
C54	C	-4.605884	-1.168426	-0.569034
C55	C	-4.673643	-1.177488	-0.487416
C56	C	-4.845298	-1.293249	-0.499545
H57	H	-4.722413	-1.170688	-0.620824
H58	H	-4.559812	-1.238552	-0.580821
H59	H	-4.719722	-1.107382	-0.475641
H60	H	-4.557167	-1.175249	-0.435615
H61	H	-4.799225	-1.363375	-0.511331
H62	H	-4.961812	-1.295501	-0.551337
H63	H	-4.891281	-1.299419	-0.444167
C64	C	-4.049822	-0.565426	-0.460272
C65	C	-4.191779	-0.496440	-0.470052
C66	C	-4.209167	-0.448375	-0.555574
H67	H	-3.911712	-0.510176	-0.461222
H68	H	-4.103477	-0.634880	-0.510706
H69	H	-4.138116	-0.426995	-0.419632
H70	H	-4.329912	-0.551663	-0.469120
H71	H	-4.262821	-0.517829	-0.606009
H72	H	-4.071048	-0.393130	-0.556517
H73	H	-4.305499	-0.401572	-0.562226
H74	H	-4.421852	-0.983287	-0.412013
H75	H	-3.468850	-0.194188	0.002088
C76	C	-3.889545	-0.685600	-0.517870
C77	C	-3.821697	-0.676574	-0.599466
C78	C	-3.649851	-0.560892	-0.587290
H79	H	-3.935394	-0.615397	-0.506079
H80	H	-3.773123	-0.683465	-0.466056
H81	H	-3.938096	-0.678696	-0.651265
H82	H	-3.775807	-0.746749	-0.611272
H83	H	-3.533429	-0.558758	-0.535476
H84	H	-3.695718	-0.490699	-0.575497
H85	H	-3.603782	-0.554758	-0.642646
H86	H	-4.091987	-0.614257	-0.042753
C87	C	-3.979183	-0.765805	-0.103544
C88	C	-4.183212	-0.847030	-0.102519
C89	C	-4.166758	-0.895120	-0.017017
H90	H	-3.883096	-0.812769	-0.096662
H91	H	-3.925739	-0.696354	-0.053118
H92	H	-4.236627	-0.916470	-0.152930
H93	H	-4.279332	-0.800095	-0.109384
H94	H	-4.113313	-0.825669	0.033409
H95	H	-4.070664	-0.942078	-0.010143
H96	H	-4.305188	-0.950227	-0.016306
H97	H	-3.606269	-0.347928	-0.151760
