data_functionalizedCrystal
_audit_creation_method	'MofGen! by Chris Wilmer'
_symmetry_space_group_name_H-M	'P1'
_symmetry_Int_Tables_number	1
_symmetry_cell_setting	triclinic
loop_
_symmetry_equiv_pos_as_xyz
  x,y,z
_cell_length_a	18.627255
_cell_length_b	18.627235
_cell_length_c	18.627297
_cell_angle_alpha	59.997377
_cell_angle_beta	89.997273
_cell_angle_gamma	59.999879
loop_
_atom_site_label
_atom_site_type_symbol
_atom_site_fract_x
_atom_site_fract_y
_atom_site_fract_z
O1	O	0.492477	0.633250	-0.021371
O2	O	0.388082	0.486240	0.021244
O3	O	0.388080	0.633244	-0.125764
O4	O	0.492479	0.486245	0.125637
O5	O	0.507483	0.513842	-0.125764
O6	O	0.507484	0.366837	0.021244
O7	O	0.611879	0.513847	-0.021371
Zn8	Zn	0.578640	0.421384	-0.000063
Zn9	Zn	0.421322	0.578703	-0.000064
O10	O	0.611881	0.366843	0.125637
C11	C	0.612978	0.644051	-0.031075
C12	C	0.568679	0.593650	-0.024972
C13	C	0.569572	0.731060	-0.031685
C14	C	0.742976	0.644056	-0.031083
C15	C	0.837672	0.593661	-0.024989
C16	C	0.699373	0.731065	-0.031693
C17	C	0.612975	0.774058	-0.031083
C18	C	0.568673	0.862661	-0.024990
C19	C	0.699376	0.601255	-0.031685
C20	C	0.256975	0.356050	0.030927
C21	C	0.162278	0.406449	0.024828
C22	C	0.300576	0.269045	0.031532
C23	C	0.386978	0.356045	0.030933
C24	C	0.431281	0.406439	0.024841
C25	C	0.430382	0.269041	0.031538
C26	C	0.386976	0.226049	0.030926
C27	C	0.431276	0.137450	0.024827
C28	C	0.300579	0.398844	0.031539
C29	C	0.386979	0.644041	-0.387063
C30	C	0.431279	0.593645	-0.431364
C31	C	0.300580	0.731048	-0.430467
C32	C	0.386979	0.644041	-0.257063
C33	C	0.431280	0.593644	-0.162366
C34	C	0.300580	0.731047	-0.300663
C35	C	0.256978	0.774042	-0.387062
C36	C	0.162282	0.862642	-0.431360
C37	C	0.430383	0.601244	-0.300665
O38	O	1.125677	0.366846	0.021233
O39	O	0.874275	0.513857	-0.021387
O40	O	1.021262	0.366859	0.125623
O41	O	0.978690	0.513844	-0.125777
O42	O	1.021259	0.486267	0.125614
O43	O	0.874272	0.633265	-0.021396
O44	O	1.125674	0.486254	0.021225
Zn45	Zn	0.999973	0.578718	-0.000087
Zn46	Zn	0.999977	0.421393	-0.000075
O47	O	0.978687	0.633252	-0.125785
O48	O	0.507481	1.104443	0.021233
O49	O	0.611875	0.895660	-0.021386
O50	O	0.611870	0.895639	0.125623
O51	O	0.507486	1.104464	-0.125777
O52	O	0.492463	0.895649	0.125612
O53	O	0.492468	0.895669	-0.021398
O54	O	0.388074	1.104453	0.021221
Zn55	Zn	0.421312	1.000063	-0.000090
Zn56	Zn	0.578636	1.000050	-0.000075
O57	O	0.388079	1.104473	-0.125788
O58	O	-0.125716	1.104441	-0.492549
O59	O	0.125682	0.895643	-0.388159
O60	O	-0.021315	0.895637	-0.388147
O61	O	0.021280	1.104447	-0.492561
O62	O	-0.021319	0.895641	-0.507550
O63	O	0.125678	0.895647	-0.507563
O64	O	-0.125720	1.104444	-0.611952
Zn65	Zn	-0.000022	1.000046	-0.578716
Zn66	Zn	-0.000017	1.000042	-0.421396
O67	O	0.021277	1.104451	-0.611965
O68	O	0.492484	0.486240	-0.611961
O69	O	0.388080	0.633245	-0.507567
O70	O	0.388084	0.486237	-0.507556
O71	O	0.492480	0.633247	-0.611971
O72	O	0.507485	0.366837	-0.388154
O73	O	0.507480	0.513844	-0.388165
O74	O	0.611885	0.366839	-0.492559
Zn75	Zn	0.578640	0.421384	-0.421404
Zn76	Zn	0.421325	0.578699	-0.578721
O77	O	0.611880	0.513846	-0.492569
C78	C	0.742985	0.226044	0.386934
C79	C	0.837681	0.137444	0.431232
C80	C	0.699384	0.269037	0.430340
C81	C	0.612983	0.356045	0.256935
C82	C	0.568682	0.406443	0.162239
C83	C	0.569580	0.398841	0.300539
C84	C	0.612985	0.356043	0.386937
C85	C	0.568686	0.406439	0.431238
C86	C	0.699382	0.269039	0.300536
C87	C	1.030899	0.356105	0.386903
C88	C	1.024793	0.406511	0.431195
C89	C	1.031495	0.269104	0.430309
C90	C	1.030927	0.356084	0.256913
C91	C	1.024852	0.406468	0.162219
C92	C	1.031523	0.269083	0.300517
C93	C	1.030896	0.226102	0.386911
C94	C	1.024788	0.137507	0.431212
C95	C	1.031526	0.398889	0.300509
C96	C	0.969048	0.774014	-0.387075
C97	C	0.975150	0.862613	-0.431378
C98	C	0.968455	0.731008	-0.430472
C99	C	0.969023	0.644027	-0.257075
C100	C	0.975098	0.593643	-0.162382
C101	C	0.968430	0.601219	-0.300670
C102	C	0.969057	0.644003	-0.387064
C103	C	0.975168	0.593594	-0.431355
C104	C	0.968421	0.731032	-0.300680
C105	C	0.612953	0.644020	0.386910
C106	C	0.568648	0.593623	0.431205
C107	C	0.699351	0.601215	0.430319
C108	C	0.612962	0.774028	0.256916
C109	C	0.568666	0.862637	0.162219
C110	C	0.699360	0.731026	0.300522
C111	C	0.742957	0.644012	0.386919
C112	C	0.837654	0.593608	0.431224
C113	C	0.569553	0.731034	0.300512
O114	O	0.978554	0.513943	0.611773
O115	O	1.021177	0.366922	0.507393
O116	O	0.874169	0.513945	0.507361
O117	O	1.125562	0.366920	0.611804
O118	O	0.874197	0.633332	0.387963
O119	O	1.021205	0.486309	0.387995
O120	O	0.978583	0.633330	0.492374
Zn121	Zn	0.999898	0.578775	0.421228
Zn122	Zn	0.999861	0.421477	0.578540
O123	O	1.125591	0.486307	0.492406
C124	C	0.256993	1.356101	-0.387085
C125	C	0.162296	1.406506	-0.431390
C126	C	0.300599	1.398898	-0.430484
C127	C	0.386988	1.226084	-0.257081
C128	C	0.431283	1.137475	-0.162384
C129	C	0.430397	1.269078	-0.300677
C130	C	0.386998	1.356092	-0.387075
C131	C	0.431303	1.406488	-0.431368
C132	C	0.300589	1.269087	-0.300687
H133	H	0.734383	0.767043	-0.032668
C134	C	0.473651	0.779670	0.253206
C135	C	0.450059	0.718058	0.239546
C136	C	0.354160	0.766702	0.192236
C137	C	0.281853	0.876957	0.158586
C138	C	0.305443	0.938576	0.172245
C139	C	0.401342	0.889933	0.219555
H140	H	0.503587	0.636435	0.264457
H141	H	0.336698	0.721087	0.182125
H142	H	0.210863	0.912966	0.123564
H143	H	0.251915	1.020200	0.147334
H144	H	0.418804	0.935547	0.229666
C145	C	0.253283	0.779667	-0.253382
C146	C	0.291208	0.818329	-0.219718
C147	C	0.243908	0.866951	-0.172443
C148	C	0.158683	0.876911	-0.158832
C149	C	0.120753	0.838247	-0.192497
C150	C	0.168053	0.789625	-0.239772
H151	H	0.354301	0.810958	-0.229793
H152	H	0.271987	0.895573	-0.147522
H153	H	0.123669	0.912904	-0.123836
H154	H	0.057660	0.845619	-0.182421
H155	H	0.139974	0.761004	-0.264692
H156	H	0.498585	0.767036	-0.032657
H157	H	1.032504	0.233099	0.265512
H158	H	0.265571	0.468852	0.032522
H159	H	0.734381	0.531239	-0.032655
C160	C	0.746661	0.779632	0.253248
C161	C	0.831889	0.717980	0.239639
C162	C	0.879192	0.766581	0.192373
C163	C	0.841266	0.876835	0.158716
C164	C	0.756033	0.938493	0.172324
C165	C	0.708731	0.889892	0.219590
H166	H	0.859968	0.636358	0.264555
H167	H	0.942287	0.720937	0.182299
H168	H	0.876282	0.912812	0.123726
H169	H	0.727954	1.020115	0.147408
H170	H	0.645636	0.935536	0.229664
C171	C	0.253282	0.779686	-0.526373
C172	C	0.291216	0.818354	-0.598695
C173	C	0.243917	0.867003	-0.694600
C174	C	0.158684	0.876983	-0.718183
C175	C	0.120746	0.838314	-0.645859
C176	C	0.168045	0.789665	-0.549954
H177	H	0.354314	0.810967	-0.581239
H178	H	0.272002	0.895628	-0.748139
H179	H	0.123671	0.912996	-0.789178
H180	H	0.057648	0.845701	-0.663315
H181	H	0.139961	0.761040	-0.496415
H182	H	0.501371	0.233060	0.032515
H183	H	0.734350	0.531198	0.501308
H184	H	0.498591	0.468854	0.265530
C185	C	0.746667	0.220436	0.526238
C186	C	0.831874	0.210509	0.549804
C187	C	0.879152	0.161915	0.645699
C188	C	0.841224	0.123249	0.718027
C189	C	0.756012	0.133176	0.694462
C190	C	0.708734	0.181769	0.598568
H191	H	0.859956	0.239133	0.496261
H192	H	0.942232	0.154567	0.663142
H193	H	0.876222	0.087277	0.789013
H194	H	0.727930	0.104552	0.748006
H195	H	0.645654	0.189117	0.581125
H196	H	0.501390	1.233077	-0.265668
C197	C	0.253325	1.493487	-0.526383
C198	C	0.219655	1.489246	-0.598722
C199	C	0.172387	1.583831	-0.694617
C200	C	0.158788	1.682658	-0.718172
C201	C	0.192459	1.686903	-0.645831
C202	C	0.239727	1.592317	-0.549936
H203	H	0.229721	1.416085	-0.581287
H204	H	0.147462	1.580689	-0.748169
H205	H	0.123798	1.752676	-0.789160
H206	H	0.182393	1.760063	-0.663267
H207	H	0.264652	1.595460	-0.496385
C208	C	0.253295	0.220426	0.032852
C209	C	0.239691	0.210466	-0.042413
C210	C	0.192416	0.161844	-0.041091
C211	C	0.158745	0.123182	0.035497
C212	C	0.172348	0.133141	0.110768
C213	C	0.219623	0.181763	0.109446
H214	H	0.264617	0.239088	-0.099113
H215	H	0.182346	0.154473	-0.096812
H216	H	0.123749	0.087189	0.036476
H217	H	0.147422	0.104520	0.167468
H218	H	0.229693	0.189135	0.165167
C219	C	0.526281	0.506659	-0.253364
C220	C	0.549848	0.407808	-0.239718
C221	C	0.645740	0.313223	-0.192412
C222	C	0.718064	0.317489	-0.158752
C223	C	0.694499	0.416344	-0.172397
C224	C	0.598607	0.510929	-0.219703
H225	H	0.496307	0.404646	-0.264636
H226	H	0.663184	0.240045	-0.182312
H227	H	0.789049	0.247472	-0.123734
H228	H	0.748040	0.419506	-0.147479
H229	H	0.581163	0.584107	-0.229803
H230	H	0.734389	0.233051	0.265533
C231	C	1.032755	0.220510	0.526192
C232	C	0.957440	0.282183	0.549711
C233	C	0.958681	0.233592	0.645584
C234	C	1.035236	0.123329	0.717939
C235	C	1.110556	0.061649	0.694422
C236	C	1.109315	0.110240	0.598549
H237	H	0.900765	0.363813	0.496148
H238	H	0.902924	0.279252	0.662992
H239	H	1.036155	0.087359	0.788909
H240	H	1.167232	-0.019981	0.747984
H241	H	1.165073	0.064580	0.581140
C242	C	0.967104	0.506639	-0.253386
C243	C	0.890508	0.510904	-0.219731
C244	C	0.889183	0.416329	-0.172454
C245	C	0.964455	0.317488	-0.158832
C246	C	1.041057	0.313219	-0.192487
C247	C	1.042382	0.407795	-0.239764
H248	H	0.834782	0.584076	-0.229815
H249	H	0.832476	0.419489	-0.147540
H250	H	0.963474	0.247478	-0.123834
H251	H	1.096783	0.240048	-0.182404
H252	H	1.099088	0.404634	-0.264678
C253	C	0.967150	0.779600	-0.526369
C254	C	1.042423	0.717933	-0.549925
C255	C	1.041116	0.766520	-0.645819
C256	C	0.964535	0.876776	-0.718158
C257	C	0.889255	0.938450	-0.694605
C258	C	0.890563	0.889862	-0.598710
H259	H	1.099118	0.636309	-0.496373
H260	H	1.096843	0.720864	-0.663255
H261	H	0.963567	0.912743	-0.789145
H262	H	0.832560	1.020073	-0.748156
H263	H	0.834836	0.935518	-0.581275
H264	H	1.032490	0.468912	0.265497
H265	H	0.967436	0.767025	-0.265683
H266	H	0.265575	1.233109	-0.265689
