data_functionalizedCrystal
_audit_creation_method	'MofGen! by Chris Wilmer'
_symmetry_space_group_name_H-M	'P1'
_symmetry_Int_Tables_number	1
_symmetry_cell_setting	triclinic
loop_
_symmetry_equiv_pos_as_xyz
  x,y,z
_cell_length_a	19.805407
_cell_length_b	16.120444
_cell_length_c	19.805399
_cell_angle_alpha	92.871785
_cell_angle_beta	89.979591
_cell_angle_gamma	92.928624
loop_
_atom_site_label
_atom_site_type_symbol
_atom_site_fract_x
_atom_site_fract_y
_atom_site_fract_z
Zn1	Zn	1.021072	-0.331886	-0.396394
Zn2	Zn	1.015247	-0.471305	-0.288943
Zn3	Zn	0.907886	-0.331914	-0.283218
Zn4	Zn	0.902112	-0.471266	-0.402087
O5	O	0.961579	-0.401593	-0.342660
O6	O	1.115016	-0.350385	-0.382154
O7	O	1.000984	-0.452843	-0.193468
O8	O	0.927754	-0.215244	-0.293452
O9	O	1.110736	-0.452816	-0.303210
O10	O	1.010912	-0.215223	-0.376602
O11	O	0.922106	-0.350433	-0.189262
O12	O	0.812403	-0.350394	-0.298972
O13	O	0.917914	-0.452749	-0.496047
O14	O	0.808162	-0.452776	-0.386305
O15	O	1.005313	-0.350347	-0.491864
O16	O	0.995386	-0.587967	-0.308731
O17	O	0.912266	-0.587938	-0.391857
C18	C	0.785724	-0.401584	-0.342636
C19	C	0.710491	-0.401601	-0.342642
C20	C	0.952585	-0.618203	-0.351548
C21	C	0.948800	-0.710869	-0.355372
C22	C	0.250928	-0.348357	-0.383863
C23	C	0.321616	-0.348358	-0.383858
C24	C	0.354729	-0.401606	-0.342683
C25	C	0.317149	-0.454861	-0.301515
C26	C	0.246462	-0.454863	-0.301524
C27	C	0.602223	-0.454854	-0.301479
C28	C	0.672915	-0.454846	-0.301472
C29	C	0.677377	-0.348350	-0.383813
C30	C	0.606690	-0.348352	-0.383822
C31	C	0.569116	-0.401610	-0.342657
C32	C	0.492468	-0.401609	-0.342664
C33	C	0.431376	-0.401603	-0.342672
C34	C	0.981383	-0.921807	-0.322966
C35	C	0.941901	-0.880527	-0.362362
C36	C	0.945740	-0.786121	-0.358472
C37	C	0.977544	-1.016222	-0.326855
C38	C	1.138122	-0.401602	-0.342686
C39	C	1.213353	-0.401606	-0.342697
C40	C	0.961619	-0.401540	-0.519201
C41	C	0.961636	-0.401518	-0.594432
C42	C	0.970627	-0.184137	-0.333753
C43	C	0.974482	-0.091470	-0.329958
C44	C	1.007146	-0.348195	-0.627599
C45	C	1.007154	-0.348171	-0.698287
C46	C	0.961655	-0.401474	-0.735806
C47	C	0.916140	-0.454800	-0.702634
C48	C	0.916130	-0.454819	-0.631948
C49	C	0.916182	-0.454722	-0.987704
C50	C	0.916197	-0.454701	-1.058395
C51	C	1.007206	-0.348074	-1.054043
C52	C	1.007196	-0.348093	-0.983357
C53	C	0.961679	-0.401415	-0.950191
C54	C	0.961670	-0.401439	-0.873544
C55	C	0.961667	-0.401455	-0.812452
C56	C	0.961581	-0.401585	-0.166804
C57	C	0.961704	-0.401373	-0.091564
H58	H	0.223973	-0.304992	-0.417388
C59	C	0.709340	-0.513427	-0.256180
C60	C	0.759413	-0.477217	-0.201594
C61	C	0.795839	-0.535793	-0.156305
C62	C	0.782192	-0.630580	-0.165602
C63	C	0.732116	-0.666795	-0.220191
C64	C	0.695691	-0.608218	-0.265480
H65	H	0.769518	-0.407046	-0.194710
H66	H	0.832908	-0.508984	-0.115895
H67	H	0.809156	-0.673941	-0.132077
H68	H	0.722012	-0.736966	-0.227075
H69	H	0.658622	-0.635028	-0.305890
H70	H	1.018067	-0.886251	-0.286317
C71	C	0.205128	-0.513436	-0.256239
C72	C	0.153827	-0.578941	-0.288177
C73	C	0.112494	-0.637520	-0.242893
C74	C	0.122461	-0.630595	-0.165671
C75	C	0.173764	-0.565087	-0.133729
C76	C	0.215097	-0.506508	-0.179012
H77	H	0.146447	-0.584070	-0.345345
H78	H	0.074516	-0.686013	-0.266539
H79	H	0.091864	-0.673958	-0.132149
H80	H	0.181144	-0.559958	-0.076561
H81	H	0.253075	-0.458015	-0.155366
H82	H	1.044248	-0.304690	-0.952812
H83	H	0.579733	-0.304990	-0.417348
C84	C	0.353572	-0.513432	-0.256220
C85	C	0.344101	-0.506505	-0.179002
C86	C	0.380523	-0.565075	-0.133704
C87	C	0.426416	-0.630572	-0.165625
C88	C	0.435889	-0.637502	-0.242848
C89	C	0.399467	-0.578932	-0.288146
H90	H	0.310127	-0.458018	-0.155368
H91	H	0.373510	-0.559946	-0.076538
H92	H	0.453377	-0.673929	-0.132093
H93	H	0.469863	-0.685989	-0.266482
H94	H	0.406480	-0.584061	-0.345311
H95	H	0.905214	-0.916087	-0.399012
C96	C	0.362948	-0.289796	-0.429153
C97	C	0.440701	-0.289804	-0.429160
C98	C	0.482032	-0.231248	-0.474464
C99	C	0.445610	-0.172683	-0.519760
C100	C	0.367853	-0.172672	-0.519755
C101	C	0.326522	-0.231229	-0.474451
H102	H	0.467666	-0.333160	-0.395627
H103	H	0.539593	-0.231256	-0.474468
H104	H	0.476206	-0.129336	-0.553297
H105	H	0.340888	-0.129317	-0.553288
H106	H	0.268961	-0.231221	-0.474447
H107	H	0.707978	-0.304987	-0.417334
H108	H	0.879064	-0.498232	-0.604944
H109	H	0.571639	-0.498218	-0.267958
H110	H	1.044199	-0.304791	-0.597056
C111	C	1.057215	-0.289512	-0.734771
C112	C	1.107265	-0.230881	-0.693502
C113	C	1.157325	-0.172217	-0.729986
C114	C	1.157335	-0.172183	-0.807737
C115	C	1.107283	-0.230816	-0.849010
C116	C	1.057223	-0.289480	-0.812527
H117	H	1.107259	-0.230904	-0.635942
H118	H	1.194377	-0.128813	-0.699432
H119	H	1.194393	-0.128756	-0.834745
H120	H	1.107289	-0.230792	-0.906571
H121	H	1.020171	-0.332884	-0.843080
C122	C	1.057272	-0.289409	-1.090527
C123	C	1.057286	-0.289377	-1.168279
C124	C	1.107351	-0.230716	-1.204760
C125	C	1.157402	-0.172088	-1.163490
C126	C	1.157389	-0.172119	-1.085734
C127	C	1.107324	-0.230779	-1.049252
H128	H	1.020234	-0.332779	-1.198834
H129	H	1.107360	-0.230695	-1.262321
H130	H	1.194463	-0.128665	-1.190496
H131	H	1.194441	-0.128717	-1.055179
H132	H	1.107315	-0.230801	-0.991692
H133	H	0.879143	-0.498109	-1.088942
C134	C	0.866120	-0.513382	-0.951228
C135	C	0.816078	-0.572019	-0.992500
C136	C	0.766014	-0.630684	-0.956020
C137	C	0.765994	-0.630711	-0.878268
C138	C	0.816038	-0.572072	-0.836992
C139	C	0.866101	-0.513408	-0.873471
H140	H	0.816091	-0.572001	-1.050061
H141	H	0.728968	-0.674092	-0.986576
H142	H	0.728934	-0.674138	-0.851264
H143	H	0.816024	-0.572091	-0.779431
H144	H	0.903147	-0.469999	-0.842915
H145	H	0.879092	-0.498198	-0.733188
