data_functionalizedCrystal
_audit_creation_method	'MofGen! by Chris Wilmer'
_symmetry_space_group_name_H-M	'P1'
_symmetry_Int_Tables_number	1
_symmetry_cell_setting	triclinic
loop_
_symmetry_equiv_pos_as_xyz
  x,y,z
_cell_length_a	15.944551
_cell_length_b	18.266242
_cell_length_c	15.944551
_cell_angle_alpha	89.992703
_cell_angle_beta	96.501262
_cell_angle_gamma	90.004545
loop_
_atom_site_label
_atom_site_type_symbol
_atom_site_fract_x
_atom_site_fract_y
_atom_site_fract_z
O1	O	1.114530	0.060806	-0.108333
O2	O	1.614530	0.560806	0.391667
O3	O	0.869980	0.060825	-0.121690
O4	O	1.369980	0.560825	0.378310
O5	O	0.998933	0.060808	0.007263
O6	O	1.498933	0.560808	0.507263
O7	O	0.985577	0.060822	-0.237286
O8	O	1.485577	0.560822	0.262714
O9	O	0.998911	-0.060954	0.007270
O10	O	1.498911	0.439046	0.507270
O11	O	0.869958	-0.060937	-0.121683
O12	O	1.369958	0.439063	0.378317
O13	O	1.114508	-0.060956	-0.108327
O14	O	1.614508	0.439044	0.391673
Zn15	Zn	0.992229	-0.080279	-0.115004
Zn16	Zn	1.492229	0.419721	0.384996
Zn17	Zn	0.992258	0.080148	-0.115013
Zn18	Zn	1.492258	0.580148	0.384987
O19	O	0.985555	-0.060940	-0.237280
O20	O	1.485555	0.439060	0.262720
C21	C	0.838675	-0.000054	-0.121132
C22	C	1.338675	0.499946	0.378868
C23	C	0.745429	-0.000047	-0.119470
C24	C	1.245429	0.499953	0.380530
N25	N	0.992216	-0.189766	-0.114997
N26	N	1.492216	0.310234	0.385003
C27	C	0.530572	-0.000066	-0.035565
C28	C	1.030572	0.499934	0.464435
C29	C	0.469563	0.059971	-0.074531
C30	C	0.969563	0.559971	0.425469
C31	C	0.574703	-0.000056	-0.116462
C32	C	1.074703	0.499944	0.383538
C33	C	0.469564	-0.060077	-0.074543
C34	C	0.969564	0.439923	0.425457
C35	C	0.409790	-0.000068	-0.113551
C36	C	0.909790	0.499932	0.386449
C37	C	0.514922	0.060031	-0.155450
C38	C	1.014922	0.560031	0.344550
C39	C	0.514929	-0.060071	-0.155451
C40	C	1.014929	0.439929	0.344549
C41	C	0.453937	-0.000019	-0.194476
C42	C	0.953937	0.499981	0.305524
C43	C	0.669705	-0.000049	-0.118137
C44	C	1.169705	0.499951	0.381863
C45	C	0.314789	-0.000070	-0.111883
C46	C	0.814789	0.499930	0.388117
C47	C	1.049335	-0.228082	-0.057925
C48	C	1.549335	0.271918	0.442075
C49	C	1.049340	-0.304727	-0.057921
C50	C	1.549340	0.195273	0.442079
C51	C	0.992235	-0.343053	-0.115004
C52	C	1.492235	0.156947	0.384996
C53	C	0.935105	-0.304727	-0.172081
C54	C	1.435105	0.195273	0.327919
C55	C	0.935095	-0.228084	-0.172077
C56	C	1.435095	0.271916	0.327923
N57	N	0.981547	-0.463380	-0.189328
N58	N	1.481547	0.036620	0.310672
N59	N	0.981561	-0.536188	-0.189328
N60	N	1.481561	-0.036188	0.310672
C61	C	0.992258	-0.573975	-0.115016
C62	C	1.492258	-0.073975	0.384984
N63	N	1.002957	-0.536203	-0.040701
N64	N	1.502957	-0.036203	0.459299
N65	N	1.002947	-0.463389	-0.040702
N66	N	1.502947	0.036611	0.459298
C67	C	0.992238	-0.426160	-0.115014
C68	C	1.492238	0.073840	0.384986
C69	C	1.049386	-0.695398	-0.057935
C70	C	1.549386	-0.195398	0.442065
C71	C	1.049386	-0.772045	-0.057930
C72	C	1.549386	-0.272045	0.442070
C73	C	0.935154	-0.772044	-0.172097
C74	C	1.435154	-0.272044	0.327903
C75	C	0.935151	-0.695399	-0.172094
C76	C	1.435151	-0.195399	0.327906
C77	C	0.992271	-0.657081	-0.115014
C78	C	1.492271	-0.157081	0.384986
C79	C	1.145813	-0.000075	-0.108885
C80	C	1.645813	0.499925	0.391115
C81	C	1.239059	-0.000078	-0.110547
C82	C	1.739059	0.499922	0.389453
C83	C	0.998367	-0.000073	0.038561
C84	C	1.498367	0.499927	0.538561
C85	C	0.996705	-0.000073	0.131807
C86	C	1.496705	0.499927	0.631807
N87	N	0.992278	0.189635	-0.115012
N88	N	1.492278	0.689635	0.384988
C89	C	0.986120	-0.000057	-0.268577
C90	C	1.486120	0.499943	0.231423
C91	C	0.987782	-0.000052	-0.361823
C92	C	1.487782	0.499948	0.138177
C93	C	0.912801	-0.000057	0.346663
C94	C	1.412801	0.499943	0.846663
C95	C	0.951752	-0.060096	0.407684
C96	C	1.451752	0.439904	0.907684
C97	C	0.993698	-0.000067	0.302533
C98	C	1.493698	0.499933	0.802533
C99	C	0.951793	0.059952	0.407661
C100	C	1.451793	0.559952	0.907661
C101	C	0.990787	-0.000058	0.467445
C102	C	1.490787	0.499942	0.967445
C103	C	1.032672	-0.060156	0.362325
C104	C	1.532672	0.439844	0.862325
C105	C	1.032701	0.059946	0.362295
C106	C	1.532701	0.559946	0.862295
C107	C	1.071711	-0.000108	0.423298
C108	C	1.571711	0.499892	0.923298
C109	C	0.995372	-0.000073	0.207530
C110	C	1.495372	0.499927	0.707530
C111	C	0.989119	-0.000058	0.562446
C112	C	1.489119	0.499942	1.062446
H113	H	0.563905	0.000004	0.031573
H114	H	1.063905	0.500004	0.531573
N115	N	0.873482	-0.186758	-0.233638
N116	N	1.373482	0.313242	0.266362
H117	H	0.883153	-0.200087	-0.293262
H118	H	1.383153	0.299913	0.206738
H119	H	0.882171	-0.132403	-0.224905
H120	H	1.382171	0.367597	0.275095
H121	H	1.066897	0.110702	0.342162
H122	H	1.566897	0.610702	0.842162
H123	H	1.095844	-0.196886	-0.011445
H124	H	1.595844	0.303114	0.488555
N125	N	1.111010	-0.813376	0.003616
N126	N	1.611010	-0.313376	0.503616
H127	H	1.147198	-0.777468	0.039766
H128	H	1.647198	-0.277468	0.539766
H129	H	1.148131	-0.845157	-0.028591
H130	H	1.648131	-0.345157	0.471409
N131	N	1.110955	-0.346070	0.003628
N132	N	1.610955	0.153930	0.503628
H133	H	1.078868	-0.377883	0.040841
H134	H	1.578868	0.122117	0.540841
H135	H	1.147126	-0.310122	0.039732
H136	H	1.647126	0.189878	0.539732
H137	H	0.888607	-0.335936	-0.218557
H138	H	1.388607	0.164064	0.281443
H139	H	1.138919	-0.000147	0.456457
H140	H	1.638919	0.499853	0.956457
N141	N	0.873541	-0.654074	-0.233657
N142	N	1.373541	-0.154074	0.266343
H143	H	0.883215	-0.667401	-0.293280
H144	H	1.383215	-0.167401	0.206720
H145	H	0.882226	-0.599718	-0.224923
H146	H	1.382226	-0.099718	0.275077
H147	H	0.535051	-0.110827	-0.189636
H148	H	1.035051	0.389173	0.310364
H149	H	0.449462	0.110724	-0.040317
H150	H	0.949462	0.610724	0.459683
N151	N	0.823857	-0.000120	0.302542
N152	N	1.323857	0.499880	0.802542
H153	H	0.793400	-0.045511	0.318923
H154	H	1.293400	0.454489	0.818923
H155	H	0.825673	0.000373	0.239434
H156	H	1.325673	0.500373	0.739434
N157	N	0.873556	-0.813372	-0.233660
N158	N	1.373556	-0.313372	0.266340
H159	H	0.837368	-0.777465	-0.269816
H160	H	1.337368	-0.277465	0.230184
H161	H	0.836431	-0.845178	-0.201469
H162	H	1.336431	-0.345178	0.298531
H163	H	0.534919	0.110843	-0.189643
H164	H	1.034919	0.610843	0.310357
N165	N	0.906469	0.127183	0.434274
N166	N	1.406469	0.627183	0.934274
H167	H	0.846452	0.127130	0.406109
H168	H	1.346452	0.627130	0.906109
H169	H	0.936488	0.172489	0.416959
H170	H	1.436488	0.672489	0.916959
H171	H	0.420779	0.000019	-0.261683
H172	H	0.920779	0.500019	0.238317
H173	H	0.449468	-0.110832	-0.040309
H174	H	0.949468	0.389168	0.459691
H175	H	1.095895	-0.664199	-0.011454
H176	H	1.595895	-0.164199	0.488546
H177	H	0.917527	-0.110849	0.427795
H178	H	1.417527	0.389151	0.927795
H179	H	1.066850	-0.110970	0.342337
H180	H	1.566850	0.389030	0.842337
