data_functionalizedCrystal
_audit_creation_method	'MofGen! by Chris Wilmer'
_symmetry_space_group_name_H-M	'P1'
_symmetry_Int_Tables_number	1
_symmetry_cell_setting	triclinic
loop_
_symmetry_equiv_pos_as_xyz
  x,y,z
_cell_length_a	12.594517
_cell_length_b	12.594516
_cell_length_c	19.076919
_cell_angle_alpha	92.277239
_cell_angle_beta	92.280660
_cell_angle_gamma	90.015853
loop_
_atom_site_label
_atom_site_type_symbol
_atom_site_fract_x
_atom_site_fract_y
_atom_site_fract_z
Zn1	Zn	1.603047	-0.447951	-0.397986
Zn2	Zn	1.610100	-0.618795	-0.280303
Zn3	Zn	1.432213	-0.440830	-0.280303
Zn4	Zn	1.425035	-0.625885	-0.397958
O5	O	1.517598	-0.533365	-0.339137
O6	O	1.752928	-0.470626	-0.382386
O7	O	1.592458	-0.589240	-0.181813
O8	O	1.454926	-0.292830	-0.295926
O9	O	1.758109	-0.596145	-0.295925
O10	O	1.580438	-0.298061	-0.382387
O11	O	1.461765	-0.458490	-0.181814
O12	O	1.282315	-0.465366	-0.295899
O13	O	1.442693	-0.608230	-0.496451
O14	O	1.277042	-0.601325	-0.382339
O15	O	1.573478	-0.477502	-0.496471
O16	O	1.585498	-0.768681	-0.295898
O17	O	1.449532	-0.773890	-0.382338
C18	C	1.241059	-0.533343	-0.339117
C19	C	1.122753	-0.533360	-0.339124
C20	C	1.056332	-0.459320	-0.292199
C21	C	0.986574	-0.555355	-0.274890
C22	C	0.981711	-0.437373	-0.356445
C23	C	1.054555	-0.629443	-0.321782
C24	C	1.049697	-0.511399	-0.403367
C25	C	0.979969	-0.607502	-0.386082
C26	C	1.517529	-0.809906	-0.339130
C27	C	1.517595	-0.928213	-0.339151
C28	C	1.443638	-1.000336	-0.386133
C29	C	1.421613	-1.067290	-0.321911
C30	C	1.539717	-1.072058	-0.403384
C31	C	1.495521	-0.993607	-0.274895
C32	C	1.613667	-0.998371	-0.356411
C33	C	1.591682	-1.065290	-0.292145
C34	C	1.795218	-0.533389	-0.339159
C35	C	1.913523	-0.533399	-0.339168
C36	C	1.506498	-0.544451	-0.522712
C37	C	1.501768	-0.549175	-0.600941
C38	C	1.517696	-0.255746	-0.339160
C39	C	1.517738	-0.137441	-0.339169
C40	C	1.567634	-0.483334	-0.637705
C41	C	1.563177	-0.487769	-0.711209
C42	C	1.492857	-0.558050	-0.747948
C43	C	1.426983	-0.623894	-0.711179
C44	C	1.431436	-0.619453	-0.637676
C45	C	1.472232	-0.578625	-0.967777
C46	C	1.467787	-0.583063	-1.041285
C47	C	1.603980	-0.446936	-1.041309
C48	C	1.608431	-0.442506	-0.967805
C49	C	1.542553	-0.508346	-0.931043
N50	N	1.488301	-0.562587	-0.823081
N51	N	1.547104	-0.503803	-0.855911
C52	C	1.528717	-0.522246	-0.156277
C53	C	1.533653	-0.517222	-0.078048
H54	H	0.958720	-0.573954	-0.220580
O55	O	1.096105	-0.384560	-0.244849
C56	C	1.057462	-0.283632	-0.262541
H57	H	0.980444	-0.293304	-0.295642
H58	H	1.041710	-0.234583	-0.212527
H59	H	1.118984	-0.241396	-0.293760
H60	H	1.616815	-0.434157	-0.741139
O61	O	1.676764	-0.374138	-0.932228
C62	C	1.733965	-0.316993	-0.980439
H63	H	1.687198	-0.316466	-1.032830
H64	H	1.746637	-0.231851	-0.959209
H65	H	1.814314	-0.356451	-0.988263
H66	H	1.558370	-1.106389	-0.457698
H67	H	1.086391	-0.710655	-0.307089
O68	O	1.472971	-0.952764	-0.210125
C69	C	1.379922	-0.890838	-0.215013
H70	H	1.330660	-0.917355	-0.264025
H71	H	1.331460	-0.901532	-0.166566
H72	H	1.402404	-0.803556	-0.218402
O73	O	0.940356	-0.682435	-0.433366
C74	C	0.977740	-0.783464	-0.414876
H75	H	1.000997	-0.781821	-0.356477
H76	H	0.912441	-0.845059	-0.426634
H77	H	1.050011	-0.805208	-0.446564
H78	H	0.949695	-0.356192	-0.371053
O79	O	1.408392	-0.642634	-0.932001
C80	C	1.471524	-0.708846	-0.889496
H81	H	1.552864	-0.670654	-0.878482
H82	H	1.431276	-0.719993	-0.837810
H83	H	1.481480	-0.789430	-0.917823
O84	O	1.667855	-0.383018	-1.077130
C85	C	1.648869	-0.402022	-1.149883
H86	H	1.566110	-0.437483	-1.159911
H87	H	1.654421	-0.323982	-1.177824
H88	H	1.710722	-0.459964	-1.170745
O89	O	1.368768	-0.966230	-0.433384
C90	C	1.267676	-1.001322	-0.414937
H91	H	1.269284	-1.017677	-0.356558
H92	H	1.206191	-0.937344	-0.426632
H93	H	1.245809	-1.077321	-0.446702
O94	O	1.324769	-1.103584	-0.304594
C95	C	1.281969	-1.170059	-0.359873
H96	H	1.349068	-1.202999	-0.392677
H97	H	1.237034	-1.238564	-0.337255
H98	H	1.225195	-1.122371	-0.394386
O99	O	1.082917	-0.488991	-0.468118
C100	C	1.045821	-0.387661	-0.486162
H101	H	1.028924	-0.338618	-0.436343
H102	H	1.108809	-0.345890	-0.516420
H103	H	0.969736	-0.396533	-0.520315
H104	H	1.654288	-1.093707	-0.252376
H105	H	1.694826	-0.968045	-0.371026
H106	H	1.624900	-0.426107	-0.607797
O107	O	1.367344	-0.683264	-0.601934
C108	C	1.301208	-0.620099	-0.559401
H109	H	1.293321	-0.537604	-0.581554
H110	H	1.219335	-0.658540	-0.558558
H111	H	1.337488	-0.613075	-0.503697
O112	O	1.399378	-0.651364	-1.076865
C113	C	1.342205	-0.708542	-1.028657
H114	H	1.341702	-0.661781	-0.976265
H115	H	1.257056	-0.721168	-1.049889
H116	H	1.381622	-0.788912	-1.020835
H117	H	1.369723	-0.681114	-0.741098
