data_functionalizedCrystal
_audit_creation_method	'MofGen! by Chris Wilmer'
_symmetry_space_group_name_H-M	'P1'
_symmetry_Int_Tables_number	1
_symmetry_cell_setting	triclinic
loop_
_symmetry_equiv_pos_as_xyz
  x,y,z
_cell_length_a	10.489716
_cell_length_b	10.489716
_cell_length_c	12.503572
_cell_angle_alpha	86.446389
_cell_angle_beta	86.443084
_cell_angle_gamma	95.470864
loop_
_atom_site_label
_atom_site_type_symbol
_atom_site_fract_x
_atom_site_fract_y
_atom_site_fract_z
O1	O	-0.172508	1.701345	-0.089317
O2	O	-0.189434	1.330144	-0.089322
O3	O	0.004628	1.524206	-0.089307
O4	O	-0.366571	1.507282	-0.089332
O5	O	-0.009991	1.509611	0.089334
O6	O	-0.204053	1.315549	0.089319
O7	O	-0.187127	1.686750	0.089324
Cu8	Cu	-0.196925	1.499817	0.105633
Cu9	Cu	-0.179636	1.517077	-0.105631
O10	O	-0.381190	1.492688	0.089309
C11	C	-0.195471	1.275314	-0.000002
C12	C	-0.191667	1.133684	-0.000003
C13	C	-0.310672	1.036000	-0.000014
C14	C	-0.254995	0.951463	0.088075
C15	C	-0.240554	0.965859	-0.088051
C16	C	-0.136046	1.051006	0.088158
C17	C	-0.121616	1.065414	-0.088047
C18	C	-0.065854	0.980924	0.000063
C19	C	-0.421412	1.501257	-0.000015
C20	C	-0.563042	1.505063	-0.000025
C21	C	-0.660727	1.386056	-0.000011
C22	C	-0.730890	1.456136	-0.088080
C23	C	-0.745238	1.441774	0.088045
C24	C	-0.631333	1.575100	-0.088167
C25	C	-0.645682	1.560713	0.088038
C26	C	-0.715794	1.630883	-0.000053
C27	C	0.044851	1.515637	0.000015
C28	C	0.186481	1.511832	0.000017
C29	C	-0.181090	1.741580	0.000001
C30	C	-0.184894	1.883211	-0.000004
N31	N	-0.209084	1.487687	0.254224
N32	N	-0.167467	1.529217	-0.254222
C33	C	-0.226982	1.469843	0.473338
C34	C	-0.149574	1.547057	0.526671
C35	C	-0.159532	1.537128	0.648594
C36	C	-0.217025	1.479770	0.351405
H37	H	-0.091938	1.088237	0.162703
O38	O	-0.804275	1.374747	0.177001
C39	C	-0.759093	1.428771	0.269711
H40	H	-0.719703	1.533046	0.249023
H41	H	-0.841382	1.424450	0.334234
H42	H	-0.679662	1.372502	0.300845
H43	H	-0.636054	1.282548	-0.000104
O44	O	0.057792	0.951965	-0.000014
C45	C	0.128265	1.012406	-0.092071
H46	H	0.078940	1.098539	-0.122480
H47	H	0.229569	1.046051	-0.070813
H48	H	0.133274	0.941504	-0.157359
O49	O	-0.601128	1.613515	0.176839
C50	C	-0.630657	1.741812	0.177600
H51	H	-0.715573	1.755174	0.126796
H52	H	-0.656369	1.765269	0.263622
H53	H	-0.543911	1.808737	0.143001
O54	O	-0.314997	1.381982	0.527928
C55	C	-0.385046	1.312158	0.454335
H56	H	-0.326301	1.316575	0.374136
H57	H	-0.406319	1.207871	0.486944
H58	H	-0.479160	1.355564	0.442416
O59	O	-0.321991	0.892261	0.176980
C60	C	-0.239292	0.823985	0.238385
H61	H	-0.135941	0.867043	0.218721
H62	H	-0.266138	0.830704	0.327470
H63	H	-0.248923	0.718999	0.218620
O64	O	-0.745155	1.754394	-0.000056
C65	C	-0.879394	1.756626	0.000809
H66	H	-0.928666	1.659887	0.035136
H67	H	-0.910068	1.835475	0.052680
H68	H	-0.907999	1.776322	-0.084686
O69	O	-0.061467	1.634553	0.471747
C70	C	-0.070816	1.624926	0.360477
H71	H	-0.170712	1.579885	0.345176
H72	H	-0.053525	1.724744	0.317528
H73	H	0.004229	1.562368	0.328750
O74	O	-0.293410	0.921386	-0.176865
C75	C	-0.422402	0.948885	-0.176527
H76	H	-0.436714	1.032944	-0.124954
H77	H	-0.446942	0.974965	-0.262188
H78	H	-0.487853	0.860986	-0.142167
O79	O	-0.054645	1.124522	-0.176992
C80	C	-0.110147	1.081125	-0.269681
H81	H	-0.214682	1.042965	-0.248582
H82	H	-0.105274	1.164130	-0.333598
H83	H	-0.055366	1.001191	-0.301815
H84	H	-0.768306	1.411984	-0.162543
O85	O	-0.572374	1.642051	-0.177188
C86	C	-0.503240	1.559595	-0.238157
H87	H	-0.545568	1.456064	-0.218194
H88	H	-0.509930	1.585872	-0.327338
H89	H	-0.398322	1.570173	-0.218242
H90	H	-0.414195	1.060654	0.000062
