data_functionalizedCrystal
_audit_creation_method	'MofGen! by Chris Wilmer'
_symmetry_space_group_name_H-M	'P1'
_symmetry_Int_Tables_number	1
_symmetry_cell_setting	triclinic
loop_
_symmetry_equiv_pos_as_xyz
  x,y,z
_cell_length_a	19.188905
_cell_length_b	19.188930
_cell_length_c	7.540329
_cell_angle_alpha	90.008296
_cell_angle_beta	90.008725
_cell_angle_gamma	83.139668
loop_
_atom_site_label
_atom_site_type_symbol
_atom_site_fract_x
_atom_site_fract_y
_atom_site_fract_z
O1	O	0.926153	0.087083	0.147794
O2	O	1.426153	0.587083	0.647794
O3	O	0.722839	0.098836	0.147736
O4	O	1.222839	0.598836	0.647736
O5	O	0.830363	-0.008697	0.147732
O6	O	1.330363	0.491303	0.647732
O7	O	0.818629	0.194616	0.147798
O8	O	1.318629	0.694616	0.647798
O9	O	0.830360	-0.008698	-0.147233
O10	O	1.330360	0.491302	0.352767
O11	O	0.722836	0.098835	-0.147229
O12	O	1.222836	0.598835	0.352771
O13	O	0.926149	0.087082	-0.147171
O14	O	1.426149	0.587082	0.352829
Cu15	Cu	0.824492	0.092959	-0.174132
Cu16	Cu	1.324492	0.592959	0.325868
Cu17	Cu	0.824497	0.092959	0.174698
Cu18	Cu	1.324497	0.592959	0.674698
O19	O	0.818625	0.194615	-0.147167
O20	O	1.318625	0.694615	0.352833
C21	C	0.696826	0.098458	0.000246
C22	C	1.196826	0.598458	0.500246
C23	C	0.619321	0.097324	0.000222
C24	C	1.119321	0.597324	0.500222
C25	C	0.582931	0.096780	0.161012
C26	C	1.082931	0.596780	0.661012
C27	C	0.510107	0.095707	0.161034
C28	C	1.010107	0.595707	0.661034
C29	C	0.473678	0.095164	0.000257
C30	C	0.973678	0.595164	0.500257
C31	C	0.510076	0.095712	-0.160555
C32	C	1.010076	0.595712	0.339445
C33	C	0.582898	0.096792	-0.160572
C34	C	1.082898	0.596792	0.339428
N35	N	0.364656	0.053735	-0.119408
N36	N	0.864656	0.553735	0.380592
N37	N	0.295479	0.052707	-0.119381
N38	N	0.795479	0.552707	0.380619
C39	C	0.254272	0.091911	0.000298
C40	C	0.754272	0.591911	0.500298
N41	N	0.284855	0.132172	0.119976
N42	N	0.784855	0.632172	0.619976
N43	N	0.354039	0.133197	0.119954
N44	N	0.854039	0.633197	0.619954
C45	C	0.394716	0.093993	0.000257
C46	C	0.894716	0.593993	0.500257
C47	C	0.138918	0.090205	0.161123
C48	C	0.638918	0.590205	0.661123
C49	C	0.066092	0.089136	0.161138
C50	C	0.566092	0.589136	0.661138
C51	C	0.066064	0.089134	-0.160455
C52	C	0.566064	0.589134	0.339545
C53	C	0.138887	0.090210	-0.160466
C54	C	0.638887	0.590210	0.339534
C55	C	0.175310	0.090742	0.000328
C56	C	0.675310	0.590742	0.500328
C57	C	0.829982	-0.034708	0.000245
C58	C	1.329982	0.465292	0.500245
C59	C	0.828841	-0.112213	0.000229
C60	C	1.328841	0.387787	0.500229
C61	C	0.952163	0.087460	0.000324
C62	C	1.452163	0.587460	0.500324
C63	C	1.029668	0.088594	0.000359
C64	C	1.529668	0.588594	0.500359
C65	C	0.891933	-0.157142	0.000239
C66	C	1.391933	0.342858	0.500239
C67	C	0.890861	-0.229966	0.000267
C68	C	1.390861	0.270034	0.500267
C69	C	0.826694	-0.257857	0.000250
C70	C	1.326694	0.242143	0.500250
C71	C	0.763594	-0.212917	0.000250
C72	C	1.263594	0.287083	0.500250
C73	C	0.764668	-0.140095	0.000240
C74	C	1.264668	0.359905	0.500240
N75	N	0.777645	-0.365858	-0.100146
N76	N	1.277645	0.134142	0.399854
N77	N	0.776629	-0.435036	-0.100140
N78	N	1.276629	0.064964	0.399860
C79	C	0.823456	-0.477265	0.000285
C80	C	1.323456	0.022735	0.500285
N81	N	0.871347	-0.447704	0.100681
N82	N	1.371347	0.052296	0.600681
N83	N	0.872364	-0.378519	0.100667
N84	N	1.372364	0.121481	0.600667
C85	C	0.825523	-0.336819	0.000262
C86	C	1.325523	0.163181	0.500262
C87	C	0.885390	-0.601159	0.000327
C88	C	1.385390	-0.101159	0.500327
C89	C	0.884315	-0.673984	0.000366
C90	C	1.384315	-0.173984	0.500366
C91	C	0.757047	-0.656933	0.000332
C92	C	1.257047	-0.156933	0.500332
C93	C	0.758123	-0.584110	0.000311
C94	C	1.258123	-0.084110	0.500311
C95	C	0.822296	-0.556228	0.000300
C96	C	1.322296	-0.056228	0.500300
C97	C	0.819007	0.220626	0.000325
C98	C	1.319007	0.720626	0.500325
C99	C	0.820148	0.298131	0.000352
C100	C	1.320148	0.798131	0.500352
N101	N	0.824494	0.092957	-0.419481
N102	N	1.324494	0.592957	0.080519
N103	N	0.824500	0.092955	0.420047
N104	N	1.324500	0.592955	0.920047
H105	H	0.036403	0.088696	-0.291363
H106	H	0.536403	0.588696	0.208637
H107	H	0.612582	0.097213	0.291944
H108	H	1.112582	0.597213	0.791944
H109	H	0.612526	0.097236	-0.291510
H110	H	1.112526	0.597236	0.208490
H111	H	0.711349	-0.235631	0.000240
H112	H	1.211349	0.264369	0.500240
N113	N	0.952367	-0.722449	0.000365
N114	N	1.452367	-0.222449	0.500365
H115	H	0.954766	-0.753033	0.109716
H116	H	1.454766	-0.253033	0.609716
H117	H	0.993141	-0.693684	0.000283
H118	H	1.493141	-0.193684	0.500283
H119	H	0.944187	-0.134445	0.000236
H120	H	1.444187	0.365555	0.500236
N121	N	0.687833	-0.686998	0.000318
N122	N	1.187833	-0.186998	0.500318
H123	H	0.684550	-0.716822	0.109667
H124	H	1.184550	-0.216822	0.609667
H125	H	0.684587	-0.716805	-0.109093
H126	H	1.184587	-0.216805	0.390907
N127	N	0.178142	0.090796	-0.333890
N128	N	0.678142	0.590796	0.166110
H129	H	0.144016	0.090290	-0.435742
H130	H	0.644016	0.590290	0.064258
H131	H	0.214156	0.047972	-0.340920
H132	H	0.714156	0.547972	0.159080
N133	N	0.690074	-0.535645	0.000290
N134	N	1.190074	-0.035645	0.500290
H135	H	0.649260	-0.564361	0.000283
H136	H	1.149260	-0.064361	0.500283
H137	H	0.687746	-0.505068	-0.109063
H138	H	1.187746	-0.005068	0.390937
H139	H	0.480473	0.095265	0.291973
H140	H	0.980473	0.595265	0.791973
H141	H	0.036464	0.088697	0.292078
H142	H	0.536464	0.588697	0.792078
N143	N	0.958912	-0.278438	0.000281
N144	N	1.458912	0.221562	0.500281
H145	H	0.999727	-0.249724	0.000276
H146	H	1.499727	0.250276	0.500276
H147	H	0.961230	-0.309030	-0.109064
H148	H	1.461230	0.190970	0.390936
H149	H	0.713289	-0.103513	0.000232
H150	H	1.213289	0.396487	0.500232
N151	N	0.954601	-0.571078	0.000323
N152	N	1.454601	-0.071078	0.500323
H153	H	0.994408	-0.610595	0.000348
H154	H	1.494408	-0.110595	0.500348
H155	H	0.957819	-0.541224	0.109661
H156	H	1.457819	-0.041224	0.609661
H157	H	0.480411	0.095272	-0.291461
H158	H	0.980411	0.595272	0.208539
H159	H	0.168574	0.090645	0.292051
H160	H	0.668574	0.590645	0.792051
