data_functionalizedCrystal
_audit_creation_method	'MofGen! by Chris Wilmer'
_symmetry_space_group_name_H-M	'P1'
_symmetry_Int_Tables_number	1
_symmetry_cell_setting	triclinic
loop_
_symmetry_equiv_pos_as_xyz
  x,y,z
_cell_length_a	16.120444
_cell_length_b	16.120490
_cell_length_c	16.120339
_cell_angle_alpha	90.179912
_cell_angle_beta	89.786690
_cell_angle_gamma	89.834826
loop_
_atom_site_label
_atom_site_type_symbol
_atom_site_fract_x
_atom_site_fract_y
_atom_site_fract_z
Zn1	Zn	-0.365984	-1.228134	-0.552133
Zn2	Zn	-0.115984	-0.978134	-0.302133
Zn3	Zn	0.134016	-0.728134	-0.052133
Zn4	Zn	0.384016	-0.478134	0.197867
Zn5	Zn	-0.512146	-1.227273	-0.420076
Zn6	Zn	-0.262146	-0.977273	-0.170076
Zn7	Zn	-0.012146	-0.727273	0.079924
Zn8	Zn	0.237854	-0.477273	0.329924
Zn9	Zn	-0.366798	-1.096039	-0.406082
Zn10	Zn	-0.116798	-0.846039	-0.156082
Zn11	Zn	0.133202	-0.596039	0.093918
Zn12	Zn	0.383202	-0.346039	0.343918
Zn13	Zn	-0.497970	-1.082020	-0.551379
Zn14	Zn	-0.247970	-0.832020	-0.301379
Zn15	Zn	0.002030	-0.582020	-0.051379
Zn16	Zn	0.252030	-0.332020	0.198621
O17	O	-0.435725	-1.158367	-0.482417
O18	O	-0.185725	-0.908367	-0.232417
O19	O	0.064275	-0.658367	0.017583
O20	O	0.314275	-0.408367	0.267583
O21	O	-0.390965	-1.344091	-0.540788
O22	O	-0.140965	-1.094091	-0.290788
O23	O	0.109035	-0.844091	-0.040788
O24	O	0.359035	-0.594091	0.209212
O25	O	-0.499138	-1.215372	-0.302145
O26	O	-0.249138	-0.965372	-0.052145
O27	O	0.000862	-0.715372	0.197855
O28	O	0.250862	-0.465372	0.447855
O29	O	-0.250625	-1.119790	-0.419915
O30	O	-0.000625	-0.869790	-0.169915
O31	O	0.249375	-0.619790	0.080085
O32	O	0.499375	-0.369790	0.330085
O33	O	-0.498349	-1.343459	-0.443765
O34	O	-0.248349	-1.093459	-0.193765
O35	O	0.001651	-0.843459	0.056235
O36	O	0.251651	-0.593459	0.306235
O37	O	-0.250027	-1.216839	-0.527218
O38	O	-0.000027	-0.966839	-0.277218
O39	O	0.249973	-0.716839	-0.027218
O40	O	0.499973	-0.466839	0.222782
O41	O	-0.392352	-1.118955	-0.291864
O42	O	-0.142352	-0.868955	-0.041864
O43	O	0.107648	-0.618955	0.208136
O44	O	0.357648	-0.368955	0.458136
O45	O	-0.378606	-0.978109	-0.419184
O46	O	-0.128606	-0.728109	-0.169184
O47	O	0.121394	-0.478109	0.080816
O48	O	0.371394	-0.228109	0.330816
O49	O	-0.474189	-1.095895	-0.667553
O50	O	-0.224189	-0.845895	-0.417553
O51	O	0.025811	-0.595895	-0.167553
O52	O	0.275811	-0.345895	0.082447
O53	O	-0.474978	-0.967808	-0.525933
O54	O	-0.224978	-0.717808	-0.275933
O55	O	0.025022	-0.467808	-0.025933
O56	O	0.275022	-0.217808	0.224067
O57	O	-0.377219	-1.203245	-0.668107
O58	O	-0.127219	-0.953245	-0.418107
O59	O	0.122781	-0.703245	-0.168107
O60	O	0.372781	-0.453245	0.081893
O61	O	-0.626331	-1.201777	-0.443034
O62	O	-0.376331	-0.951777	-0.193034
O63	O	-0.126331	-0.701777	0.056966
O64	O	0.123669	-0.451777	0.306966
O65	O	-0.615916	-1.095060	-0.539502
O66	O	-0.365916	-0.845060	-0.289502
O67	O	-0.115916	-0.595060	-0.039502
O68	O	0.134084	-0.345060	0.210498
C69	C	-0.651218	-1.146826	-0.492724
C70	C	-0.401218	-0.896826	-0.242724
C71	C	-0.151218	-0.646826	0.007276
C72	C	0.098782	-0.396826	0.257276
C73	C	-0.743409	-1.141963	-0.497165
C74	C	-0.493409	-0.891963	-0.247165
C75	C	-0.243409	-0.641963	0.002835
C76	C	0.006591	-0.391963	0.252835
C77	C	-0.425343	-0.942862	-0.470958
C78	C	-0.175343	-0.692862	-0.220958
C79	C	0.074657	-0.442862	0.029042
C80	C	0.324657	-0.192862	0.279042
C81	C	-0.420920	-0.850667	-0.466077
C82	C	-0.170920	-0.600667	-0.216077
C83	C	0.079080	-0.350667	0.033923
C84	C	0.329080	-0.100667	0.283923
C85	C	-0.424032	-1.148102	-0.698768
C86	C	-0.174032	-0.898102	-0.448768
C87	C	0.075968	-0.648102	-0.198768
C88	C	0.325968	-0.398102	0.051232
C89	C	-0.419049	-1.143728	-0.790964
C90	C	-0.169049	-0.893728	-0.540964
C91	C	0.080951	-0.643728	-0.290964
C92	C	0.330951	-0.393728	-0.040964
C93	C	-0.958407	-1.183787	-0.459569
C94	C	-0.708407	-0.933787	-0.209569
C95	C	-0.458407	-0.683787	0.040431
C96	C	-0.208407	-0.433787	0.290431
C97	C	-0.912199	-1.133100	-0.505283
C98	C	-0.662199	-0.883100	-0.255283
C99	C	-0.412199	-0.633100	-0.005283
C100	C	-0.162199	-0.383100	0.244717
C101	C	-0.818275	-1.138033	-0.500765
C102	C	-0.568275	-0.888033	-0.250765
C103	C	-0.318275	-0.638033	-0.000765
C104	C	-0.068275	-0.388033	0.249235
C105	C	-1.052338	-1.178855	-0.464086
C106	C	-0.802338	-0.928855	-0.214086
C107	C	-0.552338	-0.678855	0.035914
C108	C	-0.302338	-0.428855	0.285914
C109	C	-0.219390	-1.169974	-0.472090
C110	C	0.030610	-0.919974	-0.222090
C111	C	0.280610	-0.669974	0.027910
C112	C	0.530610	-0.419974	0.277910
C113	C	-0.127201	-1.174921	-0.467689
C114	C	0.122799	-0.924921	-0.217689
C115	C	0.372799	-0.674921	0.032311
C116	C	0.622799	-0.424921	0.282311
C117	C	-0.446148	-1.374712	-0.493922
C118	C	-0.196148	-1.124712	-0.243922
C119	C	0.053852	-0.874712	0.006078
C120	C	0.303852	-0.624712	0.256078
C121	C	-0.450589	-1.466906	-0.498824
C122	C	-0.200589	-1.216906	-0.248824
C123	C	0.049411	-0.966906	0.001176
C124	C	0.299411	-0.716906	0.251176
C125	C	-0.458658	-0.635709	-0.507740
C126	C	-0.208658	-0.385709	-0.257740
C127	C	0.041342	-0.135709	-0.007740
C128	C	0.291342	0.114291	0.242260
C129	C	-0.412854	-0.681869	-0.457164
C130	C	-0.162854	-0.431869	-0.207164
C131	C	0.087146	-0.181869	0.042836
C132	C	0.337146	0.068131	0.292836
C133	C	-0.417343	-0.775796	-0.462124
C134	C	-0.167343	-0.525796	-0.212124
C135	C	0.082657	-0.275796	0.037876
C136	C	0.332657	-0.025796	0.287876
C137	C	-0.454170	-0.541773	-0.502780
C138	C	-0.204170	-0.291773	-0.252780
C139	C	0.045830	-0.041773	-0.002780
C140	C	0.295830	0.208227	0.247220
C141	C	-0.447314	-1.168642	-0.266908
C142	C	-0.197314	-0.918642	-0.016908
C143	C	0.052686	-0.668642	0.233092
C144	C	0.302686	-0.418642	0.483092
C145	C	-0.452071	-1.173190	-0.174710
C146	C	-0.202071	-0.923190	0.075290
C147	C	0.047929	-0.673190	0.325290
C148	C	0.297929	-0.423190	0.575290
C149	C	-0.410370	-1.135421	0.040228
C150	C	-0.160370	-0.885421	0.290228
C151	C	0.089630	-0.635421	0.540228
C152	C	0.339630	-0.385421	0.790228
C153	C	-0.460748	-1.181493	-0.005907
C154	C	-0.210748	-0.931493	0.244093
C155	C	0.039252	-0.681493	0.494093
C156	C	0.289252	-0.431493	0.744093
C157	C	-0.455919	-1.176872	-0.099838
C158	C	-0.205919	-0.926872	0.150162
C159	C	0.044081	-0.676872	0.400162
C160	C	0.294081	-0.426872	0.650162
C161	C	-0.415198	-1.140042	0.134167
C162	C	-0.165198	-0.890042	0.384167
C163	C	0.084802	-0.640042	0.634167
C164	C	0.334802	-0.390042	0.884167
H165	H	-0.927431	-1.230882	-0.417041
H166	H	-0.677431	-0.980882	-0.167041
H167	H	-0.427431	-0.730882	0.082959
H168	H	-0.177431	-0.480882	0.332959
O169	O	-0.516512	-1.232615	0.031256
O170	O	-0.266512	-0.982615	0.281256
O171	O	-0.016512	-0.732615	0.531256
O172	O	0.233488	-0.482615	0.781256
C173	C	-0.572177	-1.283941	0.160124
C174	C	-0.322177	-1.033941	0.410124
C175	C	-0.072177	-0.783941	0.660124
C176	C	0.177823	-0.533941	0.910124
C177	C	-0.508998	-1.226005	0.118139
C178	C	-0.258998	-0.976005	0.368139
C179	C	-0.008998	-0.726005	0.618139
C180	C	0.241002	-0.476005	0.868139
H181	H	-0.566111	-1.278630	0.230375
H182	H	-0.316111	-1.028630	0.480375
H183	H	-0.066111	-0.778630	0.730375
H184	H	0.183889	-0.528630	0.980375
H185	H	-0.637655	-1.265450	0.140955
H186	H	-0.387655	-1.015450	0.390955
H187	H	-0.137655	-0.765450	0.640955
H188	H	0.112345	-0.515450	0.890955
H189	H	-0.559496	-1.350688	0.140113
H190	H	-0.309496	-1.100688	0.390113
H191	H	-0.059496	-0.850688	0.640113
H192	H	0.190504	-0.600688	0.890113
H193	H	-0.521603	-1.159241	0.138128
H194	H	-0.271603	-0.909241	0.388128
H195	H	-0.021603	-0.659241	0.638128
H196	H	0.228397	-0.409241	0.888128
H197	H	-0.443541	-1.244567	0.137307
H198	H	-0.193541	-0.994567	0.387307
H199	H	0.056459	-0.744567	0.637307
H200	H	0.306459	-0.494567	0.887307
H201	H	-0.363617	-1.092510	0.009185
H202	H	-0.113617	-0.842510	0.259185
H203	H	0.136383	-0.592510	0.509185
H204	H	0.386383	-0.342510	0.759185
H205	H	-0.943177	-1.086001	-0.547813
H206	H	-0.693177	-0.836001	-0.297813
H207	H	-0.443177	-0.586001	-0.047813
H208	H	-0.193177	-0.336001	0.202187
H209	H	-0.501242	-0.666731	-0.554761
H210	H	-0.251242	-0.416731	-0.304761
H211	H	-0.001242	-0.166731	-0.054761
H212	H	0.248758	0.083269	0.195239
H213	H	-0.370268	-0.650845	-0.410138
H214	H	-0.120268	-0.400845	-0.160138
H215	H	0.129732	-0.150845	0.089862
H216	H	0.379732	0.099155	0.339862
