data_functionalizedCrystal
_audit_creation_method	'MofGen! by Chris Wilmer'
_symmetry_space_group_name_H-M	'P1'
_symmetry_Int_Tables_number	1
_symmetry_cell_setting	triclinic
loop_
_symmetry_equiv_pos_as_xyz
  x,y,z
_cell_length_a	14.519731
_cell_length_b	13.596369
_cell_length_c	14.519731
_cell_angle_alpha	89.988654
_cell_angle_beta	96.311147
_cell_angle_gamma	90.005416
loop_
_atom_site_label
_atom_site_type_symbol
_atom_site_fract_x
_atom_site_fract_y
_atom_site_fract_z
O1	O	1.223866	0.081806	-0.120985
O2	O	0.955392	0.081809	-0.135201
O3	O	1.096737	0.081787	0.006144
O4	O	1.082521	0.081827	-0.262330
O5	O	1.096723	-0.081796	0.006151
O6	O	0.955378	-0.081774	-0.135194
O7	O	1.223851	-0.081777	-0.120978
Zn8	Zn	1.089613	-0.107748	-0.128084
Zn9	Zn	1.089631	0.107779	-0.128094
O10	O	1.082507	-0.081756	-0.262322
C11	C	0.921026	0.000017	-0.134531
C12	C	0.818645	0.000017	-0.132535
N13	N	1.089607	-0.254840	-0.128077
C14	C	1.089630	-0.656131	-0.128095
C15	C	1.089621	-0.544480	-0.128093
C16	C	1.089619	-0.455489	-0.128087
C17	C	1.089609	-0.343831	-0.128084
C18	C	0.735501	0.000021	-0.130913
C19	C	0.631192	0.000021	-0.128887
C20	C	0.548053	0.000021	-0.127278
C21	C	0.443738	0.000023	-0.125252
C22	C	1.258218	0.000016	-0.121648
C23	C	1.360598	0.000022	-0.123644
C24	C	1.096064	-0.000007	0.040507
C25	C	1.094068	-0.000016	0.142887
N26	N	1.089644	0.254871	-0.128094
C27	C	1.092446	-0.000021	0.226031
C28	C	1.090419	-0.000022	0.330340
C29	C	1.088811	-0.000022	0.413479
C30	C	1.086785	-0.000025	0.517795
C31	C	1.083180	0.000020	0.703315
C32	C	1.085176	-0.000025	0.600934
