data_functionalizedCrystal
_audit_creation_method	'MofGen! by Chris Wilmer'
_symmetry_space_group_name_H-M	'P1'
_symmetry_Int_Tables_number	1
_symmetry_cell_setting	triclinic
loop_
_symmetry_equiv_pos_as_xyz
  x,y,z
_cell_length_a	16.120484
_cell_length_b	12.759401
_cell_length_c	12.759393
_cell_angle_alpha	89.983222
_cell_angle_beta	92.862882
_cell_angle_gamma	92.928294
loop_
_atom_site_label
_atom_site_type_symbol
_atom_site_fract_x
_atom_site_fract_y
_atom_site_fract_z
Zn1	Zn	-0.331791	1.584976	-0.615094
Zn2	Zn	0.168209	2.084976	-0.115094
Zn3	Zn	-0.471229	1.575927	-0.448307
Zn4	Zn	0.028771	2.075927	0.051693
Zn5	Zn	-0.331842	1.409275	-0.439442
Zn6	Zn	0.168158	1.909275	0.060558
Zn7	Zn	-0.471172	1.400327	-0.623951
Zn8	Zn	0.028828	1.900327	-0.123951
O9	O	-0.401508	1.492626	-0.531699
O10	O	0.098492	1.992626	-0.031699
O11	O	-0.350291	1.730796	-0.592973
O12	O	0.149709	2.230796	-0.092973
O13	O	-0.452784	1.553778	-0.300113
O14	O	0.047216	2.053778	0.199887
O15	O	-0.215169	1.440113	-0.455326
O16	O	0.284831	1.940113	0.044674
O17	O	-0.452735	1.724148	-0.470436
O18	O	0.047265	2.224148	0.029564
O19	O	-0.215132	1.569200	-0.584377
O20	O	0.284868	2.069200	-0.084377
O21	O	-0.350377	1.431339	-0.293600
O22	O	0.149623	1.931339	0.206400
O23	O	-0.350321	1.261067	-0.463914
O24	O	0.149679	1.761067	0.036086
O25	O	-0.452637	1.424864	-0.769794
O26	O	0.047363	1.924864	-0.269794
O27	O	-0.452686	1.254493	-0.599471
O28	O	0.047314	1.754493	-0.099471
O29	O	-0.350235	1.560524	-0.763287
O30	O	0.149765	2.060524	-0.263287
O31	O	-0.587887	1.545102	-0.479024
O32	O	-0.087887	2.045102	0.020976
O33	O	-0.587845	1.416089	-0.608068
O34	O	-0.087845	1.916089	-0.108068
C35	C	-0.618116	1.478671	-0.545492
C36	C	-0.118116	1.978671	-0.045492
C37	C	-0.710782	1.472798	-0.551427
C38	C	-0.210782	1.972798	-0.051427
C39	C	-0.401504	1.219659	-0.531692
C40	C	0.098496	1.719659	-0.031692
C41	C	-0.401522	1.102881	-0.531716
C42	C	0.098478	1.602881	-0.031716
C43	C	-0.401424	1.492705	-0.805727
C44	C	0.098576	1.992705	-0.305727
C45	C	-0.401388	1.492739	-0.922501
C46	C	0.098612	1.992739	-0.422501
C47	C	-0.880443	1.462080	-0.562286
C48	C	-0.380443	1.962080	-0.062286
C49	C	-0.921733	1.523361	-0.501128
C50	C	-0.421733	2.023361	-0.001128
C51	C	-1.016139	1.517397	-0.507170
C52	C	-0.516139	2.017397	-0.007170
C53	C	-0.786029	1.468042	-0.556246
C54	C	-0.286029	1.968042	-0.056246
C55	C	-0.184055	1.506664	-0.517875
C56	C	0.315945	2.006664	-0.017875
C57	C	-0.091389	1.512646	-0.511984
C58	C	0.408611	2.012646	-0.011984
C59	C	-0.401514	1.766659	-0.531706
C60	C	0.098486	2.266659	-0.031706
C61	C	-0.401516	1.883436	-0.531709
C62	C	0.098484	2.383436	-0.031709
C63	C	-0.348225	1.941716	-0.461131
C64	C	0.151775	2.441716	0.038869
C65	C	-0.348225	2.051441	-0.461136
C66	C	0.151775	2.551441	0.038864
C67	C	-0.454815	2.044593	-0.602301
C68	C	0.045185	2.544593	-0.102301
C69	C	-0.454810	1.934871	-0.602300
C70	C	0.045190	2.434871	-0.102300
C71	C	-0.294930	1.890281	-0.390539
C72	C	0.205070	2.390281	0.109461
C73	C	-0.241635	1.948563	-0.319954
C74	C	0.258365	2.448563	0.180046
C75	C	-0.241636	2.058287	-0.319960
C76	C	0.258364	2.558287	0.180040
C77	C	-0.294931	2.109729	-0.390550
C78	C	0.205069	2.609729	0.109450
C79	C	-0.348062	1.563387	-0.973977
C80	C	0.151938	2.063387	-0.473977
C81	C	-0.348032	1.563414	-1.083699
C82	C	0.151968	2.063414	-0.583699
C83	C	-0.454661	1.422141	-1.090461
C84	C	0.045339	1.922141	-0.590461
C85	C	-0.454687	1.422110	-0.980740
C86	C	0.045313	1.922110	-0.480740
C87	C	-0.294764	1.634016	-0.915737
C88	C	0.205236	2.134016	-0.415737
C89	C	-0.241434	1.704670	-0.967212
C90	C	0.258566	2.204670	-0.467212
C91	C	-0.241404	1.704697	-1.076935
C92	C	0.258596	2.204697	-0.576935
C93	C	-0.294704	1.634069	-1.135182
C94	C	0.205296	2.134069	-0.635182
C95	C	-0.401532	1.492612	-0.258733
C96	C	0.098468	1.992612	0.241267
C97	C	-0.401333	1.492797	-0.141944
C98	C	0.098667	1.992797	0.358056
H99	H	-0.886182	1.580303	-0.444231
H100	H	-0.386182	2.080303	0.055769
H101	H	-0.498207	2.086486	-0.659772
H102	H	0.001793	2.586486	-0.159772
H103	H	-0.198239	1.906671	-0.262489
H104	H	0.301761	2.406671	0.237511
H105	H	-0.498097	1.364567	-0.938828
H106	H	0.001903	1.864567	-0.438828
Br107	Br	-0.527130	1.855768	-0.698093
Br108	Br	-0.027130	2.355768	-0.198093
Br109	Br	-0.169298	2.137381	-0.224182
Br110	Br	0.330702	2.637381	0.275818
H111	H	-0.294784	1.634004	-0.826396
H112	H	0.205216	2.134004	-0.326396
H113	H	-0.915991	1.405141	-0.619177
H114	H	-0.415991	1.905141	-0.119177
H115	H	-0.198035	1.762166	-0.919780
H116	H	0.301965	2.262166	-0.419780
H117	H	-0.294665	1.634085	-1.224524
H118	H	0.205335	2.134085	-0.724524
Br119	Br	-0.294930	1.741371	-0.390524
Br120	Br	0.205070	2.241371	0.109476
H121	H	-0.294919	2.199075	-0.390559
H122	H	0.205081	2.699075	0.109441
H123	H	-0.197975	1.762220	-1.118842
H124	H	0.302025	2.262220	-0.618842
H125	H	-0.498055	1.364639	-1.137894
H126	H	0.001945	1.864639	-0.637894
