data_functionalizedCrystal
_audit_creation_method	'MofGen! by Chris Wilmer'
_symmetry_space_group_name_H-M	'P1'
_symmetry_Int_Tables_number	1
_symmetry_cell_setting	triclinic
loop_
_symmetry_equiv_pos_as_xyz
  x,y,z
_cell_length_a	19.077105
_cell_length_b	16.959454
_cell_length_c	19.076919
_cell_angle_alpha	92.275489
_cell_angle_beta	90.076224
_cell_angle_gamma	87.716588
loop_
_atom_site_label
_atom_site_type_symbol
_atom_site_fract_x
_atom_site_fract_y
_atom_site_fract_z
Zn1	Zn	1.058295	-0.382399	-0.440440
Zn2	Zn	1.062944	-0.509490	-0.322940
Zn3	Zn	0.945513	-0.371810	-0.318233
Zn4	Zn	0.940765	-0.509013	-0.435693
O5	O	1.001879	-0.443178	-0.379326
O6	O	1.157244	-0.403889	-0.428810
O7	O	1.051298	-0.486995	-0.223984
O8	O	0.960515	-0.262606	-0.334460
O9	O	1.160659	-0.497262	-0.342484
O10	O	1.043376	-0.270386	-0.424245
O11	O	0.965022	-0.385842	-0.220526
O12	O	0.846551	-0.385379	-0.329857
O13	O	0.952424	-0.496450	-0.534654
O14	O	0.843063	-0.486182	-0.416155
O15	O	1.038773	-0.403426	-0.538142
O16	O	1.046695	-0.620035	-0.337881
O17	O	0.956931	-0.619685	-0.420720
C18	C	0.819311	-0.434581	-0.371980
C19	C	0.741206	-0.430922	-0.368854
C20	C	0.702718	-0.481759	-0.412246
C21	C	0.629330	-0.478312	-0.409312
C22	C	0.594433	-0.424030	-0.362983
C23	C	0.632926	-0.373188	-0.319590
C24	C	0.706312	-0.376632	-0.322528
C25	C	0.375144	-0.408090	-0.349389
C26	C	0.301753	-0.404651	-0.346453
C27	C	0.298162	-0.509774	-0.436177
C28	C	0.371550	-0.513217	-0.439107
C29	C	0.410037	-0.462372	-0.395717
N30	N	0.519419	-0.420507	-0.359981
N31	N	0.485049	-0.465892	-0.398723
C32	C	1.001821	-0.648541	-0.379312
C33	C	1.001859	-0.736400	-0.379332
C34	C	0.955205	-1.107727	-0.422458
C35	C	1.048747	-1.108038	-0.336274
C36	C	1.048723	-1.025491	-0.336266
C37	C	1.001938	-0.984058	-0.379355
C38	C	0.955178	-1.025172	-0.422451
C39	C	1.095477	-0.984370	-0.293166
C40	C	1.095454	-0.901818	-0.293156
C41	C	1.048672	-0.860383	-0.336249
C42	C	1.001911	-0.901503	-0.379347
C43	C	0.955126	-0.860069	-0.422436
C44	C	0.908367	-0.901187	-0.465538
C45	C	0.908396	-0.983737	-0.465543
C46	C	1.048644	-0.777834	-0.336244
C47	C	0.955099	-0.777514	-0.422428
C48	C	1.185161	-0.451810	-0.386702
C49	C	1.263265	-0.455488	-0.389844
C50	C	0.994550	-0.451066	-0.562607
C51	C	0.991427	-0.454427	-0.640710
C52	C	1.001956	-0.237015	-0.379357
C53	C	1.001989	-0.149160	-0.379370
C54	C	1.034915	-0.407577	-0.679220
C55	C	1.031972	-0.410731	-0.752606
C56	C	0.985544	-0.460742	-0.787481
C57	C	0.942052	-0.507595	-0.748966
C58	C	0.944992	-0.504435	-0.675581
C59	C	0.971927	-0.475381	-1.006763
C60	C	0.968992	-0.478539	-1.080153
C61	C	1.058911	-0.381674	-1.083788
C62	C	1.061850	-0.378523	-1.010402
C63	C	1.018355	-0.425372	-0.971893
N64	N	0.982536	-0.463970	-0.862493
N65	N	1.021360	-0.422140	-0.896882
C66	C	1.009220	-0.435266	-0.196760
C67	C	1.012479	-0.431688	-0.118663
H68	H	0.917003	-0.743785	-0.457519
C69	C	1.085985	-0.352567	-0.640861
H70	H	1.081514	-0.357398	-0.591640
H71	H	1.075240	-0.299493	-0.652482
H72	H	1.132714	-0.366882	-0.654790
H73	H	1.133528	-0.868345	-0.258061
C74	C	1.079812	-0.359199	-0.794964
H75	H	1.107890	-0.328971	-0.763684
H76	H	1.051802	-0.324723	-0.822514
H77	H	1.109271	-0.392117	-0.824821
C78	C	0.856908	-0.855609	-0.512935
H79	H	0.829061	-0.891916	-0.538605
H80	H	0.882530	-0.825953	-0.544645
H81	H	0.827374	-0.820846	-0.484790
C82	C	1.112921	-0.323512	-0.972045
H83	H	1.138397	-0.296056	-1.005491
H84	H	1.144671	-0.353960	-0.944648
H85	H	1.087199	-0.286570	-0.942339
C86	C	0.903774	-1.152948	-0.469870
H87	H	0.875912	-1.116447	-0.495533
H88	H	0.874265	-1.182592	-0.441743
H89	H	0.929421	-1.187697	-0.501597
C90	C	0.417474	-0.352167	-0.301660
H91	H	0.466178	-0.361982	-0.310048
H92	H	0.407323	-0.361053	-0.253948
H93	H	0.405044	-0.298958	-0.311550
H94	H	0.931183	-0.519265	-1.108546
C95	C	1.106746	-0.330139	-1.126149
H96	H	1.098343	-0.339176	-1.174849
H97	H	1.154436	-0.343409	-1.116023
H98	H	1.096957	-0.276027	-1.113715
H99	H	0.936521	-0.513541	-0.975418
C100	C	0.890983	-0.562606	-0.787326
H101	H	0.895465	-0.557785	-0.836548
H102	H	0.844256	-0.548298	-0.773400
H103	H	0.901734	-0.615682	-0.775704
C104	C	0.748649	-0.320710	-0.274798
H105	H	0.717356	-0.287892	-0.246782
H106	H	0.776213	-0.288823	-0.302880
H107	H	0.778490	-0.350918	-0.245277
H108	H	1.086833	-1.141778	-0.301189
C109	C	0.409932	-0.572922	-0.490074
H110	H	0.376499	-0.602701	-0.515501
H111	H	0.439624	-0.607498	-0.464289
H112	H	0.437346	-0.545395	-0.521885
C113	C	0.897173	-0.555991	-0.633221
H114	H	0.869110	-0.586239	-0.664500
H115	H	0.867710	-0.523096	-0.603356
H116	H	0.925205	-0.590462	-0.605681
C117	C	0.741103	-0.541473	-0.463202
H118	H	0.790322	-0.536252	-0.458733
H119	H	0.727202	-0.531462	-0.509953
H120	H	0.729471	-0.593553	-0.452347
C121	C	0.856963	-1.028964	-0.512949
H122	H	0.829100	-0.992468	-0.538616
H123	H	0.827455	-1.058603	-0.484816
H124	H	0.882609	-1.063718	-0.544672
H125	H	0.604506	-0.328988	-0.281870
C126	C	1.146944	-1.029947	-0.245783
H127	H	1.140271	-1.085000	-0.251971
H128	H	1.138592	-1.013936	-0.198145
H129	H	1.193730	-1.019034	-0.258016
H130	H	0.597996	-0.519710	-0.444645
C131	C	0.255825	-0.565692	-0.483908
H132	H	0.207121	-0.555864	-0.475530
H133	H	0.268250	-0.618901	-0.474029
H134	H	0.265979	-0.556794	-0.531622
C135	C	1.100069	-0.732603	-0.288838
H136	H	1.093351	-0.677505	-0.295001
H137	H	1.146866	-0.748755	-0.301055
H138	H	1.091707	-0.743637	-0.241203
C139	C	0.263366	-0.344934	-0.295493
H140	H	0.296797	-0.315140	-0.270077
H141	H	0.235951	-0.372450	-0.263683
H142	H	0.233676	-0.310360	-0.321289
