data_functionalizedCrystal
_audit_creation_method	'MofGen! by Chris Wilmer'
_symmetry_space_group_name_H-M	'P1'
_symmetry_Int_Tables_number	1
_symmetry_cell_setting	triclinic
loop_
_symmetry_equiv_pos_as_xyz
  x,y,z
_cell_length_a	12.594516
_cell_length_b	12.759401
_cell_length_c	12.759393
_cell_angle_alpha	90.019531
_cell_angle_beta	89.971669
_cell_angle_gamma	89.986034
loop_
_atom_site_label
_atom_site_type_symbol
_atom_site_fract_x
_atom_site_fract_y
_atom_site_fract_z
Zn1	Zn	-0.423747	-1.606248	-0.594022
Zn2	Zn	-0.601764	-1.606137	-0.418350
Zn3	Zn	-0.423793	-1.430549	-0.418359
Zn4	Zn	-0.601677	-1.430534	-0.593989
O5	O	-0.512745	-1.518367	-0.506180
O6	O	-0.447378	-1.753254	-0.570729
O7	O	-0.578211	-1.582805	-0.271330
O8	O	-0.274841	-1.453908	-0.441679
O9	O	-0.578166	-1.753173	-0.441663
O10	O	-0.274807	-1.582993	-0.570738
O11	O	-0.447457	-1.453801	-0.271337
O12	O	-0.447373	-1.283526	-0.441647
O13	O	-0.578019	-1.453883	-0.741014
O14	O	-0.578064	-1.283515	-0.570681
O15	O	-0.447294	-1.582979	-0.741039
O16	O	-0.750698	-1.582791	-0.441631
O17	O	-0.750635	-1.453776	-0.570672
C18	C	-0.789286	-1.518298	-0.506170
C19	C	-0.907592	-1.518365	-0.506200
C20	C	-0.512715	-1.245400	-0.506162
C21	C	-0.512727	-1.128623	-0.506179
C22	C	-0.512642	-1.518442	-0.780213
C23	C	-0.512598	-1.518473	-0.896990
C24	C	-0.976849	-1.448187	-0.576337
C25	C	-1.047717	-1.422587	-0.480470
C26	C	-1.047523	-1.544060	-0.602084
C27	C	-0.976902	-1.492714	-0.410283
C28	C	-0.976701	-1.614232	-0.531961
C29	C	-1.047537	-1.588669	-0.436029
C30	C	-0.235124	-1.518465	-0.506213
C31	C	-0.116819	-1.518506	-0.506228
C32	C	-0.580885	-1.073783	-0.573255
C33	C	-0.580894	-0.964059	-0.573265
C34	C	-0.444585	-0.964025	-0.439113
C35	C	-0.444572	-1.073747	-0.439110
C36	C	-0.649041	-1.128659	-0.640325
C37	C	-0.717205	-1.073819	-0.707406
C38	C	-0.717214	-0.964095	-0.707415
C39	C	-0.649059	-0.909211	-0.640344
C40	C	-0.512767	-0.792400	-0.506195
C41	C	-0.512750	-0.909177	-0.506193
C42	C	-0.444463	-1.451345	-1.061580
C43	C	-0.444500	-1.451322	-0.951856
C44	C	-0.580654	-1.585661	-0.951854
C45	C	-0.580610	-1.585689	-1.061576
C46	C	-0.376369	-1.384182	-1.116440
C47	C	-0.308311	-1.316995	-1.061584
C48	C	-0.308349	-1.316972	-0.951860
C49	C	-0.376444	-1.384134	-0.896992
C50	C	-0.512772	-1.518353	-0.233213
C51	C	-0.512516	-1.518525	-0.116437
H52	H	-0.945810	-1.388734	-0.635562
H53	H	-0.376332	-1.384192	-1.205783
H54	H	-0.252863	-1.262321	-1.106264
C55	C	-1.089858	-1.313144	-0.451041
N56	N	-1.121596	-1.230710	-0.428882
C57	C	-0.649063	-1.249357	-0.640294
N58	N	-0.649089	-1.340268	-0.640260
C59	C	-0.934510	-1.723636	-0.561439
N60	N	-0.902723	-1.806036	-0.583656
C61	C	-0.655475	-1.659587	-1.121922
N62	N	-0.711864	-1.715251	-1.167374
H63	H	-0.252925	-1.262273	-0.907199
H64	H	-0.376463	-1.384116	-0.807647
H65	H	-0.946008	-1.470945	-0.329184
C66	C	-1.089213	-1.668923	-0.355825
N67	N	-1.120607	-1.729365	-0.295413
C68	C	-1.089431	-1.573345	-0.711614
N69	N	-1.120992	-1.595395	-0.794114
H70	H	-0.636095	-1.640340	-0.907172
H71	H	-0.772687	-1.118512	-0.762019
C72	C	-0.792198	-0.903773	-0.781201
N73	N	-0.848685	-0.858342	-0.836772
C74	C	-0.649072	-0.788510	-0.640360
N75	N	-0.649088	-0.697600	-0.640368
H76	H	-0.389064	-1.118399	-0.384498
C77	C	-0.369627	-0.903648	-0.365334
N78	N	-0.313170	-0.858173	-0.309759
