data_functionalizedCrystal
_audit_creation_method	'MofGen! by Chris Wilmer'
_symmetry_space_group_name_H-M	'P1'
_symmetry_Int_Tables_number	1
_symmetry_cell_setting	triclinic
loop_
_symmetry_equiv_pos_as_xyz
  x,y,z
_cell_length_a	13.032831
_cell_length_b	29.839131
_cell_length_c	13.033109
_cell_angle_alpha	97.143248
_cell_angle_beta	76.665514
_cell_angle_gamma	82.838261
loop_
_atom_site_label
_atom_site_type_symbol
_atom_site_fract_x
_atom_site_fract_y
_atom_site_fract_z
Zn1	Zn	1.699864	-0.315801	-0.806213
Zn2	Zn	1.677146	-0.379994	-0.628556
Zn3	Zn	1.499706	-0.293952	-0.606120
Zn4	Zn	1.522160	-0.379954	-0.783600
O5	O	1.599719	-0.342425	-0.706122
O6	O	1.845480	-0.333477	-0.801500
O7	O	1.634703	-0.359452	-0.476954
O8	O	1.526368	-0.233993	-0.632736
O9	O	1.828788	-0.380639	-0.670976
O10	O	1.673423	-0.250046	-0.779744
O11	O	1.504338	-0.296238	-0.460470
O12	O	1.354055	-0.296199	-0.610810
O13	O	1.564639	-0.380571	-0.935226
O14	O	1.370553	-0.359385	-0.741204
O15	O	1.695197	-0.333439	-0.951839
O16	O	1.656476	-0.442845	-0.649049
O17	O	1.542609	-0.442816	-0.762960
C18	C	1.323766	-0.325417	-0.671119
C19	C	1.205716	-0.318154	-0.656169
C20	C	1.161263	-0.346216	-0.713924
C21	C	1.039252	-0.338709	-0.698475
C22	C	1.599546	-0.459132	-0.706012
C23	C	1.599573	-0.509068	-0.706013
C24	C	1.676288	-0.827054	-0.782764
C25	C	1.676412	-1.014738	-0.782842
O26	O	1.741471	-1.046083	-0.848012
N27	N	1.599914	-1.029885	-0.706263
C28	C	1.523376	-0.998108	-0.629663
O29	O	1.458307	-1.015298	-0.564536
C30	C	1.523249	-0.810425	-0.629590
C31	C	1.599758	-0.795281	-0.706168
C32	C	1.752790	-0.811909	-0.859336
C33	C	1.752762	-0.764991	-0.859312
C34	C	1.676232	-0.733218	-0.782716
C35	C	1.599730	-0.748363	-0.706144
C36	C	1.446707	-0.778649	-0.552995
C37	C	1.446681	-0.731726	-0.552985
C38	C	1.523190	-0.716581	-0.629563
C39	C	1.523172	-0.669671	-0.629524
N40	N	1.599669	-0.654524	-0.706103
C41	C	1.676200	-0.686297	-0.782699
C42	C	1.523450	-1.096645	-0.629705
C43	C	1.523483	-1.143566	-0.629722
C44	C	1.676517	-1.160193	-0.782903
C45	C	1.676488	-1.113271	-0.782881
C46	C	1.599947	-1.081498	-0.706285
C47	C	1.676135	-0.587765	-0.782643
C48	C	1.676103	-0.540841	-0.782609
C49	C	1.523066	-0.524219	-0.629432
C50	C	1.523101	-0.571138	-0.629461
C51	C	1.599640	-0.602910	-0.706076
O52	O	1.458140	-0.638301	-0.564395
O53	O	1.741245	-0.669098	-0.847831
C54	C	1.676316	-0.873972	-0.782788
C55	C	1.599814	-0.889117	-0.706216
C56	C	1.523284	-0.857344	-0.629619
C57	C	1.599847	-0.936038	-0.706232
C58	C	1.676377	-0.967811	-0.782829
C59	C	1.752875	-0.952664	-0.859408
C60	C	1.752847	-0.905746	-0.859384
C61	C	1.446787	-0.872491	-0.553040
C62	C	1.446822	-0.919410	-0.553069
C63	C	1.523352	-0.951184	-0.629666
C64	C	1.876749	-0.359500	-0.741263
C65	C	1.994803	-0.366776	-0.756238
C66	C	1.634957	-0.359438	-0.983147
C67	C	1.649973	-0.366688	-1.101199
C68	C	1.599925	-0.225265	-0.706260
C69	C	1.600013	-0.175339	-0.706318
C70	C	1.592166	-0.338643	-1.145674
C71	C	1.607684	-0.346135	-1.267686
C72	C	1.564680	-0.325450	-0.430183
C73	C	1.549869	-0.318086	-0.312158
H74	H	1.738410	-0.528514	-0.844968
N75	N	1.473360	-0.281008	-1.246607
N76	N	1.460857	-0.274974	-1.147584
H77	H	1.406823	-0.248788	-1.101287
N78	N	1.368535	-0.794102	-0.474775
N79	N	1.300204	-0.765720	-0.406412
H80	H	1.244983	-0.776632	-0.351170
N81	N	1.140168	-0.281041	-0.579776
N82	N	1.181898	-0.254655	-0.525466
H83	H	1.135607	-0.228444	-0.471510
H84	H	1.047070	-0.396358	-0.817132
N85	N	1.226809	-0.383334	-0.790300
N86	N	1.185078	-0.409723	-0.844603
H87	H	1.231367	-0.435940	-0.898545
H88	H	1.668667	-0.375695	-1.319935
N89	N	1.726461	-0.403769	-1.166753
N90	N	1.738955	-0.409804	-1.265775
H91	H	1.792976	-0.435994	-1.312072
H92	H	0.986985	-0.309123	-0.637591
N93	N	1.444999	-0.586618	-0.551210
N94	N	1.439692	-0.575825	-0.454119
H95	H	1.384537	-0.586759	-0.398851
N96	N	1.754323	-0.620209	-0.860910
N97	N	1.822617	-0.606672	-0.929267
H98	H	1.877841	-0.629585	-0.984541
N99	N	1.831016	-0.890278	-0.937588
N100	N	1.893974	-0.865968	-0.908842
H101	H	1.949192	-0.855049	-0.964073
N102	N	1.830922	-0.749533	-0.937545
N103	N	1.899238	-0.777914	-1.005924
H104	H	1.954442	-0.767001	-1.061182
H105	H	1.815191	-0.978543	-0.921773
N106	N	1.368663	-0.934868	-0.474825
N107	N	1.300342	-0.906489	-0.406446
H108	H	1.245139	-0.917404	-0.351191
N109	N	1.830974	-0.844355	-0.937597
N110	N	1.899264	-0.830817	-1.005954
H111	H	1.954492	-0.853729	-1.061228
H112	H	1.738832	-1.186071	-0.845270
N113	N	1.754649	-1.097811	-0.861108
N114	N	1.822974	-1.126191	-0.929483
H115	H	1.878179	-1.115275	-0.984736
N116	N	1.445339	-1.159024	-0.551475
N117	N	1.377020	-1.130645	-0.483094
H118	H	1.321826	-1.141560	-0.427830
H119	H	1.460759	-0.498342	-0.567065
H120	H	1.461119	-1.070777	-0.567328
N121	N	1.368480	-0.699277	-0.474739
N122	N	1.300179	-0.712809	-0.406381
H123	H	1.244950	-0.689893	-0.351119
N124	N	1.368591	-0.840042	-0.474804
N125	N	1.271472	-0.839714	-0.469343
H126	H	1.216241	-0.816799	-0.414082
N127	N	1.515661	-0.301567	-1.080118
N128	N	1.503159	-0.295535	-0.981095
H129	H	1.449124	-0.269350	-0.934796
