data_functionalizedCrystal
_audit_creation_method	'MofGen! by Chris Wilmer'
_symmetry_space_group_name_H-M	'P1'
_symmetry_Int_Tables_number	1
_symmetry_cell_setting	triclinic
loop_
_symmetry_equiv_pos_as_xyz
  x,y,z
_cell_length_a	12.837943
_cell_length_b	12.811435
_cell_length_c	11.892095
_cell_angle_alpha	88.493515
_cell_angle_beta	94.310562
_cell_angle_gamma	90.587569
loop_
_atom_site_label
_atom_site_type_symbol
_atom_site_fract_x
_atom_site_fract_y
_atom_site_fract_z
O1	O	-1.385144	0.265180	-0.121161
O2	O	-1.083184	0.251783	-0.119794
O3	O	-1.240669	0.107445	-0.104991
O4	O	-1.227659	0.409517	-0.135964
O5	O	-1.227538	0.119459	0.081784
O6	O	-1.070053	0.263797	0.066981
O7	O	-1.372013	0.277194	0.065615
Zn8	Zn	-1.218948	0.272403	0.095952
Zn9	Zn	-1.236249	0.256574	-0.150132
O10	O	-1.214528	0.421531	0.050811
C11	C	-1.037946	0.253264	-0.025944
C12	C	-0.922713	0.239767	-0.024563
C13	C	-1.232971	0.074520	-0.007614
C14	C	-1.229586	-0.041488	0.004274
C15	C	-1.417251	0.275712	-0.028239
C16	C	-1.532485	0.289209	-0.029627
C17	C	-1.222225	0.454457	-0.046569
C18	C	-1.225611	0.570464	-0.058464
C19	C	-0.683628	0.402027	-0.041184
C20	C	-0.575356	0.389350	-0.039886
C21	C	-0.597894	0.201738	-0.020661
C22	C	-0.706166	0.214415	-0.021959
C23	C	-0.749029	0.314563	-0.032223
C24	C	-0.857304	0.327238	-0.033528
C25	C	-0.879839	0.139627	-0.014295
C26	C	-0.771566	0.126950	-0.012997
N27	N	-1.207148	0.283206	0.263899
C28	C	-1.237537	0.727426	-0.177027
C29	C	-1.234358	0.618427	-0.165861
C30	C	-1.220040	0.631510	0.037774
C31	C	-1.223220	0.740510	0.026607
C32	C	-1.231970	0.788464	-0.080797
C33	C	-1.235157	0.897466	-0.091963
C34	C	-1.220832	0.910547	0.111670
C35	C	-1.217653	0.801548	0.122837
N36	N	-1.248056	0.245763	-0.318077
C37	C	-1.330163	0.170531	0.512102
C38	C	-1.321923	0.178091	0.629669
C39	C	-1.182423	0.305878	0.616601
C40	C	-1.190663	0.298319	0.499034
C41	C	-1.264537	0.230644	0.446789
C42	C	-1.272782	0.223091	0.329220
C43	C	-1.133277	0.350872	0.316155
C44	C	-1.125037	0.358432	0.433721
H45	H	-0.718528	0.483572	-0.049543
O46	O	-0.511768	0.474293	-0.048396
C47	C	-0.441646	0.478779	0.048497
H48	H	-0.475914	0.433715	0.121175
H49	H	-0.428168	0.563688	0.072477
H50	H	-0.364153	0.442564	0.030192
H51	H	-1.238887	0.568733	-0.244221
H52	H	-1.064888	0.413528	0.476273
H53	H	-1.242285	0.936508	-0.179417
H54	H	-1.390321	0.115435	0.469563
H55	H	-1.375361	0.129140	0.682844
H56	H	-1.122270	0.360970	0.659155
H57	H	-1.079843	0.399823	0.262963
H58	H	-1.212908	0.592447	0.125217
O59	O	-0.556077	0.104533	-0.010737
C60	C	-0.446486	0.112110	-0.011473
H61	H	-0.424503	0.188720	-0.054925
H62	H	-0.416333	0.043896	-0.059054
H63	H	-0.410005	0.109838	0.078960
H64	H	-0.892201	0.408784	-0.041884
H65	H	-0.736651	0.045413	-0.004628
H66	H	-0.933101	0.068406	-0.007006
O67	O	-1.245999	0.773849	-0.281437
C68	C	-1.250266	0.696600	-0.363980
H69	H	-1.213113	0.621875	-0.326287
H70	H	-1.205921	0.725142	-0.438588
H71	H	-1.335211	0.680316	-0.393813
H72	H	-1.210525	0.762488	0.210282
H73	H	-1.332936	0.167990	0.286683
O74	O	-1.215244	0.969888	0.205124
C75	C	-1.126986	1.036249	0.204455
H76	H	-1.067397	1.001721	0.149835
H77	H	-1.090591	1.044239	0.294280
H78	H	-1.151601	1.116447	0.168711
