data_functionalizedCrystal
_audit_creation_method	'MofGen! by Chris Wilmer'
_symmetry_space_group_name_H-M	'P1'
_symmetry_Int_Tables_number	1
_symmetry_cell_setting	triclinic
loop_
_symmetry_equiv_pos_as_xyz
  x,y,z
_cell_length_a	19.288864
_cell_length_b	10.654551
_cell_length_c	18.366186
_cell_angle_alpha	89.995571
_cell_angle_beta	89.977106
_cell_angle_gamma	83.810838
loop_
_atom_site_label
_atom_site_type_symbol
_atom_site_fract_x
_atom_site_fract_y
_atom_site_fract_z
O1	O	0.922379	0.156656	-0.060781
O2	O	0.720257	0.177789	-0.060731
O3	O	0.825965	-0.015616	-0.060755
O4	O	0.816671	0.350061	-0.060756
O5	O	0.825946	-0.015625	0.060344
O6	O	0.720239	0.177780	0.060369
O7	O	0.922361	0.156647	0.060319
Zn8	Zn	0.821297	0.167212	0.079571
Zn9	Zn	0.821321	0.167224	-0.079983
O10	O	0.816653	0.350052	0.060343
C11	C	0.694367	0.177104	-0.000174
C12	C	0.617250	0.175063	-0.000155
C13	C	0.573297	0.288544	-0.000167
C14	C	0.500837	0.286627	-0.000175
C15	C	0.472334	0.171221	-0.000186
C16	C	0.516296	0.057725	-0.000170
C17	C	0.588754	0.059646	-0.000155
C18	C	0.363484	0.080503	-0.042637
C19	C	0.291027	0.078587	-0.042657
C20	C	0.248849	0.165292	-0.000230
C21	C	0.279136	0.253934	0.042207
C22	C	0.351594	0.255855	0.042222
C23	C	0.393766	0.169126	-0.000202
C24	C	0.126327	0.276702	-0.000250
C25	C	0.053866	0.274779	-0.000253
C26	C	0.069327	0.045875	-0.000256
C27	C	0.141786	0.047800	-0.000245
C28	C	0.170281	0.163217	-0.000245
C29	C	0.825273	-0.062404	-0.000206
C30	C	0.823231	-0.201803	-0.000209
C31	C	0.822282	-0.267281	-0.066221
C32	C	0.820358	-0.398261	-0.066221
C33	C	0.820333	-0.398273	0.065808
C34	C	0.822253	-0.267295	0.065807
C35	C	0.777127	-0.567401	-0.145519
C36	C	0.776191	-0.632887	-0.211534
C37	C	0.817452	-0.600225	-0.269827
C38	C	0.859667	-0.502083	-0.262107
C39	C	0.860609	-0.436606	-0.196091
C40	C	0.819332	-0.469262	-0.137801
C41	C	0.865489	-0.098153	0.145101
C42	C	0.866437	-0.032675	0.211118
C43	C	0.825180	-0.065335	0.269417
C44	C	0.782976	-0.163483	0.261704
C45	C	0.782028	-0.228962	0.195687
C46	C	0.823284	-0.196292	0.137388
C47	C	0.948251	0.157332	-0.000239
C48	C	1.025368	0.159373	-0.000263
C49	C	0.817345	0.396840	-0.000207
C50	C	0.819387	0.536239	-0.000209
N51	N	0.821285	0.167203	0.188462
N52	N	0.821337	0.167224	-0.188874
C53	C	0.868109	0.081605	0.226552
C54	C	0.868113	0.081599	0.302779
C55	C	0.821301	0.167213	0.340915
C56	C	0.774469	0.252817	0.302816
C57	C	0.774461	0.252812	0.226590
C58	C	0.812752	0.281634	0.461676
C59	C	0.812765	0.281641	0.537901
C60	C	0.821321	0.167229	0.576022
C61	C	0.829879	0.052804	0.537909
C62	C	0.829871	0.052799	0.461683
C63	C	0.821304	0.167228	0.423570
C64	C	0.868151	0.081618	0.696767
C65	C	0.868151	0.081610	0.772996
C66	C	0.774510	0.252839	0.773031
C67	C	0.774507	0.252836	0.696803
C68	C	0.821331	0.167226	0.658676
H69	H	0.465044	0.379040	-0.000183
Cl70	Cl	0.911549	-0.461044	-0.335392
H71	H	0.816688	-0.653552	-0.323578
H72	H	0.736382	0.322543	0.665789
Cl73	Cl	0.162153	0.421794	-0.000243
Cl74	Cl	0.480465	-0.087356	-0.000180
Cl75	Cl	0.723120	-0.756256	-0.221239
Cl76	Cl	0.926982	-0.026018	0.350671
Cl77	Cl	0.725239	-0.608452	-0.072242
H78	H	0.749365	-0.190052	0.309169
Cl79	Cl	0.644013	-0.083028	-0.000141
H80	H	0.823077	-0.213962	-0.119976
Cl81	Cl	0.226121	0.362944	0.095547
Cl82	Cl	0.715594	0.360431	0.178703
Cl83	Cl	0.917372	-0.057107	0.071814
Cl84	Cl	0.819104	-0.480614	0.148796
H85	H	0.397820	0.009895	-0.077190
H86	H	0.894981	-0.356703	-0.189805
Cl87	Cl	0.728972	-0.352353	0.185992
Cl88	Cl	0.802011	0.425486	0.585807
Cl89	Cl	0.826381	0.016972	0.352414
H90	H	0.836838	-0.040369	0.430654
H91	H	0.836846	-0.040361	0.568946
H92	H	0.906276	0.011905	0.665722
H93	H	0.376251	0.328027	0.076778
H94	H	0.906278	0.011900	0.804009
Cl95	Cl	0.919503	0.090701	0.220817
Cl96	Cl	0.802060	0.425485	0.413761
H97	H	0.018080	0.367193	-0.000258
H98	H	0.736353	0.322523	0.333870
H99	H	0.596493	0.382526	-0.000169
Cl100	Cl	0.715655	0.360459	0.820968
H101	H	0.046120	-0.048091	-0.000310
Cl102	Cl	0.197044	-0.094871	-0.000234
Cl103	Cl	0.926968	-0.026022	0.178620
Cl104	Cl	0.252958	-0.032836	-0.096013
