data_functionalizedCrystal
_audit_creation_method	'MofGen! by Chris Wilmer'
_symmetry_space_group_name_H-M	'P1'
_symmetry_Int_Tables_number	1
_symmetry_cell_setting	triclinic
loop_
_symmetry_equiv_pos_as_xyz
  x,y,z
_cell_length_a	15.995292
_cell_length_b	15.995350
_cell_length_c	15.072220
_cell_angle_alpha	90.001101
_cell_angle_beta	89.986330
_cell_angle_gamma	83.480495
loop_
_atom_site_label
_atom_site_type_symbol
_atom_site_fract_x
_atom_site_fract_y
_atom_site_fract_z
O1	O	1.111026	0.107689	-0.073802
O2	O	0.867244	0.121068	-0.073798
O3	O	0.995799	-0.007511	-0.073799
O4	O	0.982471	0.236267	-0.073801
O5	O	0.995767	-0.007503	0.073766
O6	O	0.867213	0.121075	0.073767
O7	O	1.110994	0.107696	0.073763
Zn8	Zn	0.989098	0.114387	0.097194
Zn9	Zn	0.989140	0.114377	-0.097229
O10	O	0.982440	0.236275	0.073764
C11	C	0.836033	0.120527	-0.000015
C12	C	0.743080	0.118894	-0.000014
C13	C	0.405341	0.112893	-0.000024
C14	C	0.428654	0.205697	-0.000354
C15	C	0.525329	0.207461	-0.000017
C16	C	0.572897	0.115871	-0.000019
C17	C	0.543777	0.069477	0.084245
C18	C	0.446987	0.068360	0.084312
C19	C	0.447168	0.066457	-0.083497
C20	C	0.543660	0.069896	-0.084607
C21	C	0.667593	0.117549	-0.000014
C22	C	0.310646	0.111212	-0.000023
C23	C	0.995232	-0.038702	-0.000018
C24	C	0.993580	-0.131652	-0.000023
C25	C	0.987648	-0.469398	-0.000020
C26	C	0.896094	-0.421945	-0.000350
C27	C	0.897746	-0.325255	-0.000017
C28	C	0.990591	-0.301838	-0.000022
C29	C	1.035730	-0.342921	0.084242
C30	C	1.033430	-0.439556	0.084313
C31	C	1.035358	-0.439923	-0.083496
C32	C	1.035336	-0.342978	-0.084610
C33	C	0.992259	-0.207141	-0.000021
C34	C	0.985983	-0.564095	-0.000016
C35	C	1.142206	0.108237	-0.000022
C36	C	1.235159	0.109870	-0.000029
C37	C	0.983006	0.267466	-0.000018
C38	C	0.984658	0.360416	-0.000019
N39	N	0.989076	0.114393	0.229883
N40	N	0.989169	0.114365	-0.229918
C41	C	0.989139	0.114374	0.589085
C42	C	0.920120	0.182943	0.551478
C43	C	0.920279	0.183193	0.448653
C44	C	0.989107	0.114383	0.410880
C45	C	1.076474	0.133447	0.448170
C46	C	1.076087	0.133934	0.551028
C47	C	0.971569	0.026538	0.551186
C48	C	0.969564	0.027124	0.448322
C49	C	0.989094	0.114387	0.310167
C50	C	0.989157	0.114372	0.689798
H51	H	0.543720	0.244020	0.060489
H52	H	0.399622	0.241273	0.059736
C53	C	0.551053	0.256552	-0.081609
H54	H	0.502376	0.275597	-0.115258
H55	H	0.588855	0.220821	-0.117263
H56	H	0.577783	0.303541	-0.062638
C57	C	0.409020	0.105721	-0.169782
H58	H	0.435128	0.076784	-0.219343
H59	H	0.418082	0.163343	-0.172369
H60	H	0.350311	0.101249	-0.170868
C61	C	0.390858	0.254025	-0.081988
H62	H	0.405658	0.309882	-0.080949
H63	H	0.331335	0.255440	-0.080879
H64	H	0.412278	0.226571	-0.134506
H65	H	0.575645	0.002079	0.087377
H66	H	0.420156	0.100496	0.147302
H67	H	1.100648	-0.471818	0.088132
H68	H	0.576631	0.003044	-0.089698
H69	H	0.563823	0.101701	0.146956
H70	H	0.859513	-0.440472	-0.060777
H71	H	0.862262	-0.296828	-0.060421
H72	H	0.562243	0.103675	-0.146945
C73	C	0.935066	0.270504	0.586373
H74	H	0.983187	0.265456	0.623758
H75	H	0.887268	0.293827	0.619121
H76	H	0.943983	0.306247	0.537762
H77	H	0.433174	-0.001853	-0.084068
H78	H	0.859650	-0.441528	0.059742
C79	C	0.849466	-0.287594	0.081730
H80	H	0.828772	-0.331397	0.114870
H81	H	0.803647	-0.248613	0.062947
H82	H	0.886204	-0.259547	0.117821
C83	C	0.988918	-0.464270	0.169401
H84	H	0.972405	-0.415272	0.203597
H85	H	1.026318	-0.502247	0.203092
H86	H	0.940554	-0.490523	0.154004
C87	C	1.126546	-0.482846	-0.084276
H88	H	1.155057	-0.464782	-0.134863
H89	H	1.126230	-0.542162	-0.086440
H90	H	1.154612	-0.468060	-0.032002
C91	C	0.427324	-0.023557	0.089488
H92	H	0.478471	-0.060050	0.091548
H93	H	0.395994	-0.036273	0.038675
H94	H	0.395388	-0.031055	0.141453
H95	H	1.091570	0.197991	0.575009
H96	H	1.129050	0.085960	0.575902
C97	C	1.127873	-0.323855	0.088481
H98	H	1.139660	-0.290587	0.038781
H99	H	1.164180	-0.375149	0.087699
H100	H	1.136621	-0.294047	0.141576
C101	C	0.993337	-0.304582	0.168960
H102	H	0.948135	-0.263550	0.153159
H103	H	1.033317	-0.278850	0.203055
H104	H	0.972383	-0.347701	0.202925
H105	H	1.005438	-0.460459	-0.147364
C106	C	0.832546	0.167870	0.414591
H107	H	0.796486	0.161439	0.463618
H108	H	0.837140	0.118256	0.379454
H109	H	0.809877	0.214477	0.379702
H110	H	1.002334	-0.315725	-0.146947
H111	H	1.103044	-0.327630	-0.089702
H112	H	0.854969	0.171775	0.576241
H113	H	0.931498	0.248375	0.424038
H114	H	1.129060	0.084832	0.423701
C115	C	0.882743	0.007577	0.415406
H116	H	0.858502	0.052398	0.378991
H117	H	0.847126	0.001415	0.464857
H118	H	0.889043	-0.043139	0.382041
C119	C	1.097891	0.218997	0.413367
H120	H	1.053709	0.243207	0.376123
H121	H	1.148852	0.211096	0.380490
H122	H	1.104307	0.255478	0.462026
H123	H	0.909244	0.008203	0.577177
C124	C	1.033066	-0.045037	0.413605
H125	H	1.072508	-0.022793	0.375657
H126	H	1.004013	-0.083902	0.381495
H127	H	1.061875	-0.072924	0.462256
C128	C	1.039553	-0.042397	0.584042
H129	H	1.078461	-0.017815	0.620680
H130	H	1.068337	-0.068842	0.534576
H131	H	1.013801	-0.083053	0.617163
