data_functionalizedCrystal
_audit_creation_method	'MofGen! by Chris Wilmer'
_symmetry_space_group_name_H-M	'P1'
_symmetry_Int_Tables_number	1
_symmetry_cell_setting	triclinic
loop_
_symmetry_equiv_pos_as_xyz
  x,y,z
_cell_length_a	10.654537
_cell_length_b	15.500227
_cell_length_c	10.654545
_cell_angle_alpha	87.142000
_cell_angle_beta	95.516298
_cell_angle_gamma	87.129058
loop_
_atom_site_label
_atom_site_type_symbol
_atom_site_fract_x
_atom_site_fract_y
_atom_site_fract_z
O1	O	-1.673638	0.071922	0.170578
O2	O	-1.308158	0.071927	0.187393
O3	O	-1.499300	0.071923	-0.003754
O4	O	-1.482496	0.071925	0.361725
O5	O	-1.487701	-0.071965	0.007799
O6	O	-1.296559	-0.071962	0.198946
O7	O	-1.662038	-0.071967	0.182131
Cu8	Cu	-1.478240	-0.085102	0.191594
Cu9	Cu	-1.491957	0.085062	0.177931
O10	O	-1.470896	-0.071964	0.373278
C11	C	-1.255561	-0.000017	0.191937
C12	C	-1.116117	-0.000015	0.188248
C13	C	-1.088148	-0.000003	0.416812
C14	C	-1.008655	0.000006	0.529356
C15	C	-0.877636	0.000006	0.525883
C16	C	-0.826110	-0.000005	0.409854
C17	C	-0.905603	-0.000014	0.297310
C18	C	-1.036623	-0.000012	0.300795
C19	C	-0.933571	-0.000032	0.068749
C20	C	-1.064590	-0.000026	0.072219
C21	C	-0.882044	-0.000044	-0.047280
C22	C	-0.961538	-0.000046	-0.159827
C23	C	-1.092564	-0.000046	-0.156349
C24	C	-1.144083	-0.000035	-0.040325
N25	N	-1.468600	-0.204787	0.201203
C26	C	-1.549623	-0.250065	0.120238
C27	C	-1.542344	-0.340638	0.127517
C28	C	-1.454049	-0.385931	0.215768
C29	C	-1.373018	-0.340647	0.296737
C30	C	-1.380292	-0.250076	0.289451
C31	C	-1.427848	-0.659397	0.241994
C32	C	-1.420584	-0.749975	0.249277
C33	C	-1.589909	-0.749960	0.080054
C34	C	-1.597179	-0.659387	0.072781
C35	C	-1.516144	-0.614111	0.153745
C36	C	-1.446610	-0.478511	0.223213
C37	C	-1.523578	-0.521532	0.146293
C38	C	-0.714636	-0.000023	0.177592
C39	C	-0.854078	-0.000023	0.181293
C40	C	-1.492266	-0.000019	-0.044775
C41	C	-1.488574	-0.000014	-0.184219
N42	N	-1.501606	0.204747	0.168311
C43	C	-1.501235	0.156858	-0.196823
C44	C	-1.505836	0.235293	-0.268635
C45	C	-1.502367	0.235294	-0.399654
C46	C	-1.494293	0.156851	-0.458863
C47	C	-1.489692	0.078416	-0.387051
C48	C	-1.493166	0.078423	-0.256030
C49	C	-1.477022	-0.078454	-0.374445
C50	C	-1.480500	-0.078457	-0.243427
C51	C	-1.468948	-0.156897	-0.433654
C52	C	-1.464357	-0.235334	-0.361843
C53	C	-1.467828	-0.235332	-0.230817
C54	C	-1.475900	-0.156892	-0.171615
C55	C	-1.477930	-0.000019	0.414300
C56	C	-1.481623	-0.000019	0.553743
H57	H	-0.919574	-0.000055	-0.254289
N58	N	-1.644850	-0.201231	0.025030
H59	H	-1.599385	-0.163669	-0.034044
H60	H	-1.703879	-0.163687	0.070587
N61	N	-1.677302	-0.798797	-0.007266
H62	H	-1.625814	-0.836387	-0.060299
H63	H	-1.734323	-0.756306	-0.064196
N64	N	-1.292912	-0.201232	0.376780
H65	H	-1.239909	-0.163669	0.325244
H66	H	-1.235955	-0.243719	0.433780
N67	N	-1.340453	-0.610583	0.329337
H68	H	-1.391939	-0.572992	0.382370
H69	H	-1.287453	-0.573069	0.277731
H70	H	-1.466117	-0.156890	-0.540336
N71	N	-0.740731	-0.000043	-0.051014
H72	H	-0.718960	0.053292	-0.101013
H73	H	-0.710451	-0.053423	-0.092394
N74	N	-1.351398	-0.527374	0.318405
H75	H	-1.367906	-0.511607	0.406409
H76	H	-1.263438	-0.511614	0.301751
N77	N	-1.325359	-0.798830	0.344478
H78	H	-1.275128	-0.756405	0.394666
H79	H	-1.266409	-0.836429	0.298912
H80	H	-1.504075	0.156865	-0.090143
H81	H	-0.719426	-0.000016	0.407037
H82	H	-1.157281	-0.000056	-0.247996
N83	N	-1.514381	0.319897	-0.204757
H84	H	-1.515831	0.307999	-0.110854
H85	H	-1.594215	0.354217	-0.239853
N86	N	-1.629775	-0.389475	0.040234
H87	H	-1.686833	-0.347038	-0.016757
H88	H	-1.682671	-0.427024	0.091904
N89	N	-0.791906	0.000015	0.647276
H90	H	-0.741221	0.053354	0.646640
H91	H	-0.732703	-0.053360	0.655149
N92	N	-1.490559	0.156858	-0.600176
H93	H	-1.409522	0.126070	-0.619768
H94	H	-1.494748	0.218474	-0.636578
H95	H	-1.301120	-0.377529	0.368589
N96	N	-1.618801	-0.472672	0.051118
H97	H	-1.706798	-0.488410	0.067674
H98	H	-1.602198	-0.488455	-0.036851
H99	H	-1.457775	-0.299196	-0.410060
H100	H	-1.506101	0.299163	-0.458122
N101	N	-1.692422	-0.610543	-0.022400
H102	H	-1.751459	-0.572961	0.023100
H103	H	-1.742555	-0.653031	-0.072553
N104	N	-1.462856	-0.319932	-0.153364
H105	H	-1.457214	-0.369619	-0.210757
H106	H	-1.541740	-0.323358	-0.108236
H107	H	-1.478732	-0.156883	-0.064935
H108	H	-1.194830	0.000016	0.419650
H109	H	-1.050622	0.000013	0.623825
H110	H	-1.250764	-0.000024	-0.037482
