data_functionalizedCrystal
_audit_creation_method	'MofGen! by Chris Wilmer'
_symmetry_space_group_name_H-M	'P1'
_symmetry_Int_Tables_number	1
_symmetry_cell_setting	triclinic
loop_
_symmetry_equiv_pos_as_xyz
  x,y,z
_cell_length_a	15.624803
_cell_length_b	15.538191
_cell_length_c	14.048226
_cell_angle_alpha	89.996115
_cell_angle_beta	71.907567
_cell_angle_gamma	66.736403
loop_
_atom_site_label
_atom_site_type_symbol
_atom_site_fract_x
_atom_site_fract_y
_atom_site_fract_z
O1	O	1.156123	0.122867	-0.478341
O2	O	1.656123	0.622867	0.021659
O3	O	0.888823	0.137528	-0.386048
O4	O	1.388823	0.637528	0.113952
O5	O	1.074505	-0.006867	-0.450165
O6	O	1.574505	0.493133	0.049835
O7	O	0.970441	0.267262	-0.414224
O8	O	1.470441	0.767262	0.085776
O9	O	1.074491	-0.006876	-0.291839
O10	O	1.574491	0.493124	0.208161
O11	O	0.888809	0.137519	-0.227722
O12	O	1.388809	0.637519	0.272278
O13	O	1.156109	0.122858	-0.320015
O14	O	1.656109	0.622858	0.179985
Zn15	Zn	1.022457	0.130187	-0.248731
Zn16	Zn	1.522457	0.630187	0.251269
Zn17	Zn	1.022475	0.130199	-0.457332
Zn18	Zn	1.522475	0.630199	0.042668
O19	O	0.970427	0.267253	-0.255898
O20	O	1.470427	0.767253	0.244102
C21	C	0.855441	0.136862	-0.295361
C22	C	1.355441	0.636862	0.204639
C23	C	0.755999	0.134879	-0.261026
C24	C	1.255999	0.634879	0.238974
C25	C	0.429095	0.128331	-0.579722
C26	C	0.929095	0.628331	-0.079722
C27	C	0.335663	0.126450	-0.547460
C28	C	0.835663	0.626450	-0.047460
C29	C	0.335625	0.126440	-0.374852
C30	C	0.835625	0.626440	0.125148
C31	C	0.429062	0.128317	-0.407100
C32	C	0.929062	0.628317	0.092900
C33	C	0.475789	0.129263	-0.509536
C34	C	0.975789	0.629263	-0.009536
C35	C	0.475755	0.129249	-0.336913
C36	C	0.975755	0.629249	0.163087
C37	C	0.569181	0.131130	-0.369158
C38	C	1.069181	0.631130	0.130842
C39	C	0.615914	0.132080	-0.471590
C40	C	1.115914	0.632080	0.028410
C41	C	0.569215	0.131145	-0.541781
C42	C	1.069215	0.631145	-0.041781
C43	C	0.429023	0.128309	-0.234477
C44	C	0.929023	0.628309	0.265523
C45	C	0.475716	0.129241	-0.164290
C46	C	0.975716	0.629241	0.335710
C47	C	0.569147	0.131116	-0.196536
C48	C	1.069147	0.631116	0.303464
C49	C	0.615880	0.132066	-0.298967
C50	C	1.115880	0.632066	0.201033
C51	C	0.615846	0.132051	-0.126345
C52	C	1.115846	0.632051	0.373655
C53	C	0.709272	0.133933	-0.158590
C54	C	1.209272	0.633933	0.341410
C55	C	0.709306	0.133947	-0.331213
C56	C	1.209306	0.633947	0.168787
C57	C	1.085386	-0.041953	-0.374764
C58	C	1.585386	0.458047	0.125236
C59	C	1.117817	-0.146487	-0.385972
C60	C	1.617817	0.353513	0.114028
C61	C	0.795620	-0.434679	-0.274703
C62	C	1.295620	0.065321	0.225297
C63	C	0.826117	-0.532907	-0.285231
C64	C	1.326117	-0.032907	0.214769
C65	C	0.997655	-0.555136	-0.344460
C66	C	1.497655	-0.055136	0.155540
C67	C	0.967173	-0.456908	-0.333942
C68	C	1.467173	0.043092	0.166058
C69	C	0.866154	-0.396687	-0.299062
C70	C	1.366154	0.103313	0.200938
C71	C	1.037706	-0.418916	-0.358300
C72	C	1.537706	0.081084	0.141700
C73	C	1.007226	-0.320697	-0.347778
C74	C	1.507226	0.179303	0.152222
C75	C	0.906212	-0.260469	-0.312897
C76	C	1.406212	0.239531	0.187103
C77	C	0.835673	-0.298468	-0.288539
C78	C	1.335673	0.201532	0.211461
C79	C	1.138724	-0.479139	-0.393173
C80	C	1.638724	0.020861	0.106827
C81	C	1.209258	-0.441146	-0.417532
C82	C	1.709258	0.058854	0.082468
C83	C	1.178778	-0.342925	-0.407017
C84	C	1.678778	0.157075	0.092983
C85	C	1.077764	-0.282698	-0.372135
C86	C	1.577764	0.217302	0.127865
C87	C	1.249316	-0.304927	-0.431374
C88	C	1.749316	0.195073	0.068626
C89	C	1.218836	-0.206708	-0.420852
C90	C	1.718836	0.293292	0.079148
C91	C	1.047283	-0.184479	-0.361613
C92	C	1.547283	0.315521	0.138387
C93	C	1.189490	0.123524	-0.410704
C94	C	1.689490	0.623524	0.089296
C95	C	1.288932	0.125507	-0.445045
C96	C	1.788932	0.625507	0.054955
C97	C	0.959546	0.302339	-0.331301
C98	C	1.459546	0.802339	0.168699
C99	C	0.927114	0.406873	-0.320100
C100	C	1.427114	0.906873	0.179900
N101	N	1.022451	0.130179	-0.106368
N102	N	1.522451	0.630179	0.393632
N103	N	1.022490	0.130199	-0.599698
N104	N	1.522490	0.630199	-0.099698
C105	C	1.104681	0.066268	-0.084945
C106	C	1.604681	0.566268	0.415055
C107	C	1.104688	0.066267	0.014711
C108	C	1.604688	0.566267	0.514711
C109	C	1.022465	0.130183	0.092940
C110	C	1.522465	0.630183	0.592940
C111	C	0.940227	0.194098	0.071513
C112	C	1.440227	0.694098	0.571513
C113	C	0.940219	0.194093	-0.028140
C114	C	1.440219	0.694093	0.471860
C115	C	0.940251	0.194105	0.279219
C116	C	1.440251	0.694105	0.779219
C117	C	0.940260	0.194111	0.378878
C118	C	1.440260	0.694111	0.878878
C119	C	1.104720	0.066279	0.322070
C120	C	1.604720	0.566279	0.822070
C121	C	1.104712	0.066274	0.222417
C122	C	1.604712	0.566274	0.722417
C123	C	1.022474	0.130190	0.200996
C124	C	1.522474	0.630190	0.700996
H125	H	0.747355	0.134715	-0.414627
H126	H	1.247355	0.634715	0.085373
H127	H	0.873282	0.246149	0.261785
H128	H	1.373282	0.746149	0.761785
F129	F	0.285970	0.125461	-0.622170
F130	F	0.785970	0.625461	-0.122170
F131	F	1.105163	-0.619237	-0.381573
F132	F	1.605163	-0.119237	0.118427
H133	H	0.768672	-0.563835	-0.265378
H134	H	1.268672	-0.063835	0.234622
H135	H	0.753414	-0.249432	-0.260143
H136	H	1.253414	0.250568	0.239857
F137	F	0.873771	-0.155934	-0.301689
F138	F	1.373771	0.344066	0.198311
F139	F	1.171163	-0.583673	-0.404366
F140	F	1.671163	-0.083673	0.095634
F141	F	1.192199	-0.001758	-0.168196
F142	F	1.692199	0.498242	0.331804
F143	F	1.316766	-0.505247	-0.454646
F144	F	1.816766	-0.005247	0.045354
F145	F	0.852746	0.262139	0.462131
F146	F	1.352746	0.762139	0.962131
H147	H	0.873277	0.246137	0.135215
H148	H	1.373277	0.746137	0.635215
F149	F	1.192206	-0.001756	0.037511
F150	F	1.692206	0.498244	0.537511
F151	F	1.356824	-0.369030	-0.468479
F152	F	1.856824	0.130970	0.031521
H153	H	1.171666	0.014233	0.158720
H154	H	1.671666	0.514233	0.658720
H155	H	0.965024	-0.135443	-0.333217
H156	H	1.465024	0.364557	0.166783
H157	H	0.577782	0.131290	-0.042940
H158	H	1.077782	0.631290	0.457060
F159	F	0.852696	0.262114	-0.050937
F160	F	1.352696	0.762114	0.449063
H161	H	0.297566	0.125672	-0.291447
H162	H	0.797566	0.625672	0.208553
H163	H	1.171680	0.014236	0.339516
H164	H	1.671680	0.514236	0.839516
F165	F	0.758969	0.134927	-0.083890
F166	F	1.258969	0.634927	0.416110
H167	H	0.607264	0.131912	-0.625195
H168	H	1.107264	0.631912	-0.125195
F169	F	0.478836	0.129327	-0.688749
F170	F	0.978836	0.629327	-0.188749
F171	F	0.715345	0.134087	-0.505908
F172	F	1.215345	0.634087	-0.005908
H173	H	0.713361	-0.385643	-0.246307
H174	H	1.213361	0.114357	0.253693
F175	F	1.293905	-0.166271	-0.446763
F176	F	1.793905	0.333729	0.053237
H177	H	0.437657	0.128474	-0.080886
H178	H	0.937657	0.628474	0.419114
F179	F	0.329587	0.126312	-0.200160
F180	F	0.829587	0.626312	0.299840
