data_functionalizedCrystal
_audit_creation_method	'MofGen! by Chris Wilmer'
_symmetry_space_group_name_H-M	'P1'
_symmetry_Int_Tables_number	1
_symmetry_cell_setting	triclinic
loop_
_symmetry_equiv_pos_as_xyz
  x,y,z
_cell_length_a	15.944493
_cell_length_b	15.944551
_cell_length_c	15.186229
_cell_angle_alpha	90.001234
_cell_angle_beta	90.005046
_cell_angle_gamma	83.486891
loop_
_atom_site_label
_atom_site_type_symbol
_atom_site_fract_x
_atom_site_fract_y
_atom_site_fract_z
O1	O	1.114556	0.108094	0.073219
O2	O	1.364556	0.358094	0.323219
O3	O	1.614556	0.608094	0.573219
O4	O	1.864556	0.858094	0.823219
O5	O	0.870000	0.121502	0.073223
O6	O	1.120000	0.371502	0.323223
O7	O	1.370000	0.621502	0.573223
O8	O	1.620000	0.871502	0.823223
O9	O	0.998957	-0.007478	0.073213
O10	O	1.248957	0.242522	0.323213
O11	O	1.498957	0.492522	0.573213
O12	O	1.748957	0.742522	0.823213
O13	O	0.985600	0.237074	0.073229
O14	O	1.235600	0.487074	0.323229
O15	O	1.485600	0.737074	0.573229
O16	O	1.735600	0.987074	0.823229
O17	O	0.998942	-0.007471	-0.073244
O18	O	1.248942	0.242529	0.176756
O19	O	1.498942	0.492529	0.426756
O20	O	1.748942	0.742529	0.676756
O21	O	0.869985	0.121509	-0.073234
O22	O	1.119985	0.371509	0.176766
O23	O	1.369985	0.621509	0.426766
O24	O	1.619985	0.871509	0.676766
O25	O	1.114541	0.108102	-0.073238
O26	O	1.364541	0.358102	0.176762
O27	O	1.614541	0.608102	0.426762
O28	O	1.864541	0.858102	0.676762
Zn29	Zn	0.992261	0.114807	-0.096489
Zn30	Zn	1.242261	0.364807	0.153511
Zn31	Zn	1.492261	0.614807	0.403511
Zn32	Zn	1.742261	0.864807	0.653511
Zn33	Zn	0.992281	0.114797	0.096474
Zn34	Zn	1.242281	0.364797	0.346474
Zn35	Zn	1.492281	0.614797	0.596474
Zn36	Zn	1.742281	0.864797	0.846474
O37	O	0.985585	0.237082	-0.073228
O38	O	1.235585	0.487082	0.176772
O39	O	1.485585	0.737082	0.426772
O40	O	1.735585	0.987082	0.676772
C41	C	0.838698	0.120957	-0.000005
C42	C	1.088698	0.370957	0.249995
C43	C	1.338698	0.620957	0.499995
C44	C	1.588698	0.870957	0.749995
C45	C	0.745449	0.119314	-0.000003
C46	C	0.995449	0.369314	0.249997
C47	C	1.245449	0.619314	0.499997
C48	C	1.495449	0.869314	0.749997
C49	C	0.998395	-0.038768	-0.000016
C50	C	1.248395	0.211232	0.249984
C51	C	1.498395	0.461232	0.499984
C52	C	1.748395	0.711232	0.749984
C53	C	0.996732	-0.132014	-0.000016
C54	C	1.246732	0.117986	0.249984
C55	C	1.496732	0.367986	0.499984
C56	C	1.746732	0.617986	0.749984
C57	C	0.509689	0.195235	0.000002
C58	C	0.759689	0.445235	0.250002
C59	C	1.009689	0.695235	0.500002
C60	C	1.259689	0.945235	0.750002
C61	C	0.459124	0.154298	-0.072215
C62	C	0.709124	0.404298	0.177785
C63	C	0.959124	0.654298	0.427785
C64	C	1.209124	0.904298	0.677785
C65	C	0.574728	0.116270	-0.000005
C66	C	0.824728	0.366270	0.249995
C67	C	1.074728	0.616270	0.499995
C68	C	1.324728	0.866270	0.749995
C69	C	0.459143	0.154272	0.072180
C70	C	0.709143	0.404272	0.322180
C71	C	0.959143	0.654272	0.572180
C72	C	1.209143	0.904272	0.822180
C73	C	0.409819	0.113336	-0.000003
C74	C	0.659819	0.363336	0.249997
C75	C	0.909819	0.613336	0.499997
C76	C	1.159819	0.863336	0.749997
C77	C	0.525391	0.075354	-0.072282
C78	C	0.775391	0.325354	0.177718
C79	C	1.025391	0.575354	0.427718
C80	C	1.275391	0.825354	0.677718
C81	C	0.525413	0.075340	0.072178
C82	C	0.775413	0.325340	0.322178
C83	C	1.025413	0.575340	0.572178
C84	C	1.275413	0.825340	0.822178
C85	C	0.474880	0.034345	-0.000057
C86	C	0.724880	0.284345	0.249943
C87	C	0.974880	0.534345	0.499943
C88	C	1.224880	0.784345	0.749943
C89	C	0.669728	0.117963	-0.000007
C90	C	0.919728	0.367963	0.249993
C91	C	1.169728	0.617963	0.499993
C92	C	1.419728	0.867963	0.749993
C93	C	0.314821	0.111637	-0.000008
C94	C	0.564821	0.361637	0.249992
C95	C	0.814821	0.611637	0.499992
C96	C	1.064821	0.861637	0.749992
C97	C	0.912826	-0.346853	-0.000003
C98	C	1.162826	-0.096853	0.249997
C99	C	1.412826	0.153147	0.499997
C100	C	1.662826	0.403147	0.749997
C101	C	0.951782	-0.407875	-0.072216
C102	C	1.201782	-0.157875	0.177784
C103	C	1.451782	0.092125	0.427784
C104	C	1.701782	0.342125	0.677784
C105	C	0.993725	-0.302739	-0.000009
C106	C	1.243725	-0.052739	0.249991
C107	C	1.493725	0.197261	0.499991
C108	C	1.743725	0.447261	0.749991
C109	C	0.951816	-0.407866	0.072180
C110	C	1.201816	-0.157866	0.322180
C111	C	1.451816	0.092134	0.572180
C112	C	1.701816	0.342134	0.822180
C113	C	0.990814	-0.467651	0.000001
C114	C	1.240814	-0.217651	0.250001
C115	C	1.490814	0.032349	0.500001
C116	C	1.740814	0.282349	0.750001
C117	C	1.032703	-0.362533	-0.072282
C118	C	1.282703	-0.112533	0.177718
C119	C	1.532703	0.137467	0.427718
C120	C	1.782703	0.387467	0.677718
C121	C	1.032726	-0.362517	0.072178
C122	C	1.282726	-0.112517	0.322178
C123	C	1.532726	0.137483	0.572178
C124	C	1.782726	0.387483	0.822178
C125	C	1.071741	-0.423521	-0.000052
C126	C	1.321741	-0.173521	0.249948
C127	C	1.571741	0.076479	0.499948
C128	C	1.821741	0.326479	0.749948
C129	C	0.995399	-0.207737	-0.000016
C130	C	1.245399	0.042263	0.249984
C131	C	1.495399	0.292263	0.499984
C132	C	1.745399	0.542263	0.749984
C133	C	0.989146	-0.562652	0.000001
C134	C	1.239146	-0.312652	0.250001
C135	C	1.489146	-0.062652	0.500001
C136	C	1.739146	0.187348	0.750001
C137	C	1.145844	0.108646	-0.000008
C138	C	1.395844	0.358646	0.249992
C139	C	1.645844	0.608646	0.499992
C140	C	1.895844	0.858646	0.749992
C141	C	1.239092	0.110289	-0.000004
C142	C	1.489092	0.360289	0.249996
C143	C	1.739092	0.610289	0.499996
C144	C	1.989092	0.860289	0.749996
C145	C	0.986147	0.268372	0.000003
C146	C	1.236147	0.518372	0.250003
C147	C	1.486147	0.768372	0.500003
C148	C	1.736147	1.018372	0.750003
C149	C	0.987809	0.361617	0.000009
C150	C	1.237809	0.611617	0.250009
C151	C	1.487809	0.861617	0.500009
C152	C	1.737809	1.111617	0.750009
N153	N	0.992253	0.114813	-0.228182
N154	N	1.242253	0.364813	0.021818
N155	N	1.492253	0.614813	0.271818
N156	N	1.742253	0.864813	0.521818
C157	C	1.043214	0.165766	-0.453902
C158	C	1.293214	0.415766	-0.203902
C159	C	1.543214	0.665766	0.046098
C160	C	1.793214	0.915766	0.296098
C161	C	1.043223	0.165760	-0.546092
C162	C	1.293223	0.415760	-0.296092
C163	C	1.543223	0.665760	-0.046092
C164	C	1.793223	0.915760	0.203908
C165	C	0.941332	0.063825	-0.546106
C166	C	1.191332	0.313825	-0.296106
C167	C	1.441332	0.563825	-0.046106
C168	C	1.691332	0.813825	0.203894
C169	C	0.941328	0.063827	-0.453918
C170	C	1.191328	0.313827	-0.203918
C171	C	1.441328	0.563827	0.046082
C172	C	1.691328	0.813827	0.296082
C173	C	0.992267	0.114802	-0.407819
C174	C	1.242267	0.364802	-0.157819
C175	C	1.492267	0.614802	0.092181
C176	C	1.742267	0.864802	0.342181
C177	C	0.992281	0.114794	-0.592196
C178	C	1.242281	0.364794	-0.342196
C179	C	1.492281	0.614794	-0.092196
C180	C	1.742281	0.864794	0.157804
C181	C	0.992290	0.114787	-0.692153
C182	C	1.242290	0.364787	-0.442153
C183	C	1.492290	0.614787	-0.192153
C184	C	1.742290	0.864787	0.057847
C185	C	0.992259	0.114808	-0.307856
C186	C	1.242259	0.364808	-0.057856
C187	C	1.492259	0.614808	0.192144
C188	C	1.742259	0.864808	0.442144
N189	N	0.992295	0.114784	0.228167
N190	N	1.242295	0.364784	0.478167
N191	N	1.492295	0.614784	0.728167
N192	N	1.742295	0.864784	0.978167
H193	H	0.525313	0.263254	-0.000061
H194	H	0.775313	0.513254	0.249939
H195	H	1.025313	0.763254	0.499939
H196	H	1.275313	1.013254	0.749939
H197	H	0.459415	-0.033726	-0.000103
H198	H	0.709415	0.216274	0.249897
H199	H	0.959415	0.466274	0.499897
H200	H	1.209415	0.716274	0.749897
H201	H	0.430211	0.187633	0.133226
H202	H	0.680211	0.437633	0.383226
H203	H	0.930211	0.687633	0.633226
H204	H	1.180211	0.937633	0.883226
H205	H	0.917558	-0.427973	-0.133265
H206	H	1.167558	-0.177973	0.116735
H207	H	1.417558	0.072027	0.366735
H208	H	1.667558	0.322027	0.616735
H209	H	0.899858	0.022324	-0.583652
H210	H	1.149858	0.272324	-0.333652
H211	H	1.399858	0.522324	-0.083652
H212	H	1.649858	0.772324	0.166348
C213	C	0.420014	0.199345	-0.154684
C214	C	0.670014	0.449345	0.095316
C215	C	0.920014	0.699345	0.345316
C216	C	1.170014	0.949345	0.595316
H217	H	0.392286	0.160745	-0.188687
H218	H	0.642286	0.410745	0.061313
H219	H	0.892286	0.660745	0.311313
H220	H	1.142286	0.910745	0.561313
H221	H	0.380362	0.245363	-0.137325
H222	H	0.630362	0.495363	0.112675
H223	H	0.880362	0.745363	0.362675
H224	H	1.130362	0.995363	0.612675
H225	H	0.463274	0.219710	-0.188926
H226	H	0.713274	0.469710	0.061074
H227	H	0.963274	0.719710	0.311074
H228	H	1.213274	0.969710	0.561074
C229	C	1.099256	0.221825	-0.403195
C230	C	1.349256	0.471825	-0.153195
C231	C	1.599256	0.721825	0.096805
C232	C	1.849256	0.971825	0.346805
H233	H	1.129607	0.252168	-0.443848
H234	H	1.379607	0.502168	-0.193848
H235	H	1.629607	0.752168	0.056152
H236	H	1.879607	1.002168	0.306152
H237	H	1.064843	0.260472	-0.367235
H238	H	1.314843	0.510472	-0.117235
H239	H	1.564843	0.760472	0.132765
H240	H	1.814843	1.010472	0.382765
H241	H	1.137912	0.187409	-0.367232
H242	H	1.387912	0.437409	-0.117232
H243	H	1.637912	0.687409	0.132768
H244	H	1.887912	0.937409	0.382768
C245	C	0.885281	0.007767	-0.403223
C246	C	1.135281	0.257767	-0.153223
C247	C	1.385281	0.507767	0.096777
C248	C	1.635281	0.757767	0.346777
H249	H	0.854935	-0.022583	-0.443880
H250	H	1.104935	0.227417	-0.193880
H251	H	1.354935	0.477417	0.056120
H252	H	1.604935	0.727417	0.306120
H253	H	0.919698	-0.030875	-0.367255
H254	H	1.169698	0.219125	-0.117255
H255	H	1.419698	0.469125	0.132745
H256	H	1.669698	0.719125	0.382745
H257	H	0.846623	0.042181	-0.367267
H258	H	1.096623	0.292181	-0.117267
H259	H	1.346623	0.542181	0.132733
H260	H	1.596623	0.792181	0.382733
C261	C	0.564544	0.030330	0.154651
C262	C	0.814544	0.280330	0.404651
C263	C	1.064544	0.530330	0.654651
C264	C	1.314544	0.780330	0.904651
H265	H	0.541749	0.058478	0.205912
H266	H	0.791749	0.308478	0.455912
H267	H	1.041749	0.558478	0.705912
H268	H	1.291749	0.808478	0.955912
H269	H	0.552026	-0.026512	0.155167
H270	H	0.802026	0.223488	0.405167
H271	H	1.052026	0.473488	0.655167
H272	H	1.302026	0.723488	0.905167
H273	H	0.624005	0.031278	0.153764
H274	H	0.874005	0.281278	0.403764
H275	H	1.124005	0.531278	0.653764
H276	H	1.374005	0.781278	0.903764
H277	H	1.066885	-0.342546	-0.133399
H278	H	1.316885	-0.092546	0.116601
H279	H	1.566885	0.157454	0.366601
H280	H	1.816885	0.407454	0.616601
H281	H	1.138950	-0.456694	-0.000094
H282	H	1.388950	-0.206694	0.249906
H283	H	1.638950	0.043306	0.499906
H284	H	1.888950	0.293306	0.749906
C285	C	1.099259	0.221823	-0.596784
C286	C	1.349259	0.471823	-0.346784
C287	C	1.599259	0.721823	-0.096784
C288	C	1.849259	0.971823	0.153216
H289	H	1.091974	0.214517	-0.658291
H290	H	1.341974	0.464517	-0.408291
H291	H	1.591974	0.714517	-0.158291
H292	H	1.841974	0.964517	0.091709
H293	H	1.083651	0.279288	-0.581679
H294	H	1.333651	0.529288	-0.331679
H295	H	1.583651	0.779288	-0.081679
H296	H	1.833651	1.029288	0.168321
H297	H	1.156732	0.206237	-0.581666
H298	H	1.406732	0.456237	-0.331666
H299	H	1.656732	0.706237	-0.081666
H300	H	1.906732	0.956237	0.168334
C301	C	0.822113	-0.301842	-0.000084
C302	C	1.072113	-0.051842	0.249916
C303	C	1.322113	0.198158	0.499916
C304	C	1.572113	0.448158	0.749916
H305	H	0.813425	-0.267916	0.051252
H306	H	1.063425	-0.017916	0.301252
H307	H	1.313425	0.232084	0.551252
H308	H	1.563425	0.482084	0.801252
H309	H	0.813812	-0.267151	-0.050899
H310	H	1.063812	-0.017151	0.199101
H311	H	1.313812	0.232849	0.449101
H312	H	1.563812	0.482849	0.699101
H313	H	0.783136	-0.342698	-0.000639
H314	H	1.033136	-0.092698	0.249361
H315	H	1.283136	0.157302	0.499361
H316	H	1.533136	0.407302	0.749361
C317	C	0.564318	0.030346	-0.154850
C318	C	0.814318	0.280346	0.095150
C319	C	1.064318	0.530346	0.345150
C320	C	1.314318	0.780346	0.595150
H321	H	0.623730	0.031708	-0.154362
H322	H	0.873730	0.281708	0.095638
H323	H	1.123730	0.531708	0.345638
H324	H	1.373730	0.781708	0.595638
H325	H	0.552200	-0.026627	-0.155064
H326	H	0.802200	0.223373	0.094936
H327	H	1.052200	0.473373	0.344936
H328	H	1.302200	0.723373	0.594936
H329	H	0.541047	0.058206	-0.206065
H330	H	0.791047	0.308206	0.043935
H331	H	1.041047	0.558206	0.293935
H332	H	1.291047	0.808206	0.543935
H333	H	1.066920	-0.342397	0.133230
H334	H	1.316920	-0.092397	0.383230
H335	H	1.566920	0.157603	0.633230
H336	H	1.816920	0.407603	0.883230
H337	H	0.917594	-0.427939	0.133235
H338	H	1.167594	-0.177939	0.383235
H339	H	1.417594	0.072061	0.633235
H340	H	1.667594	0.322061	0.883235
