data_functionalizedCrystal
_audit_creation_method	'MofGen! by Chris Wilmer'
_symmetry_space_group_name_H-M	'P1'
_symmetry_Int_Tables_number	1
_symmetry_cell_setting	triclinic
loop_
_symmetry_equiv_pos_as_xyz
  x,y,z
_cell_length_a	16.959455
_cell_length_b	16.959454
_cell_length_c	16.959447
_cell_angle_alpha	90.026736
_cell_angle_beta	90.014322
_cell_angle_gamma	90.017022
loop_
_atom_site_label
_atom_site_type_symbol
_atom_site_fract_x
_atom_site_fract_y
_atom_site_fract_z
Zn1	Zn	-1.208384	0.314730	-0.446928
Zn2	Zn	-1.208306	0.446923	-0.314758
Zn3	Zn	-1.076212	0.314755	-0.314766
Zn4	Zn	-1.076177	0.446864	-0.446897
O5	O	-1.142270	0.380818	-0.380837
O6	O	-1.318984	0.332280	-0.429406
O7	O	-1.190766	0.429426	-0.204148
O8	O	-1.093792	0.204141	-0.332314
O9	O	-1.318927	0.429402	-0.332301
O10	O	-1.190898	0.204123	-0.429413
O11	O	-1.093717	0.332323	-0.204154
O12	O	-0.965597	0.332265	-0.332283
O13	O	-1.093732	0.429301	-0.557512
O14	O	-0.965571	0.429325	-0.429359
O15	O	-1.190864	0.332223	-0.557535
O16	O	-1.190732	0.557526	-0.332270
O17	O	-1.093657	0.557482	-0.429352
C18	C	-0.936904	0.380792	-0.380819
C19	C	-0.849047	0.380800	-0.380830
C20	C	-1.142204	0.586184	-0.380824
C21	C	-1.142248	0.674041	-0.380844
C22	C	-1.142303	0.380753	-0.587006
C23	C	-1.142317	0.380725	-0.674862
C24	C	-1.348438	0.380845	-0.380856
C25	C	-1.436295	0.380856	-0.380864
C26	C	-0.477560	0.330238	-0.330395
C27	C	-0.477582	0.431463	-0.431324
C28	C	-0.560128	0.431452	-0.431320
C29	C	-0.601394	0.380834	-0.380851
C30	C	-0.560114	0.330226	-0.330387
C31	C	-0.601414	0.482064	-0.481777
C32	C	-0.683965	0.482055	-0.481773
C33	C	-0.725233	0.431432	-0.431308
C34	C	-0.683948	0.380822	-0.380843
C35	C	-0.725213	0.330204	-0.330374
C36	C	-0.683930	0.279589	-0.279913
C37	C	-0.601381	0.279603	-0.279922
C38	C	-0.807781	0.431418	-0.431299
C39	C	-0.807767	0.330193	-0.330366
C40	C	-1.142358	0.174650	-0.380868
C41	C	-1.142395	0.086793	-0.380881
C42	C	-1.091796	1.045524	-0.431382
C43	C	-1.192963	1.045509	-0.330373
C44	C	-1.192936	0.962963	-0.330365
C45	C	-1.142337	0.921694	-0.380867
C46	C	-1.091765	0.962970	-0.431375
C47	C	-1.243501	0.921680	-0.279852
C48	C	-1.243475	0.839130	-0.279842
C49	C	-1.192879	0.797859	-0.330348
C50	C	-1.142306	0.839140	-0.380859
C51	C	-1.091707	0.797871	-0.431360
C52	C	-1.041137	0.839151	-0.481876
C53	C	-1.041170	0.921699	-0.481881
C54	C	-1.192847	0.715310	-0.330343
C55	C	-1.091676	0.715317	-0.431353
C56	C	-1.091839	0.431185	-1.046328
C57	C	-1.192983	0.330097	-1.046348
C58	C	-1.192962	0.330114	-0.963802
C59	C	-1.142380	0.380668	-0.922515
C60	C	-1.091818	0.431205	-0.963775
C61	C	-1.243529	0.279584	-0.922536
C62	C	-1.243510	0.279599	-0.839985
C63	C	-1.192923	0.330149	-0.798697
C64	C	-1.142359	0.380688	-0.839962
C65	C	-1.091776	0.431242	-0.798675
C66	C	-1.041207	0.481777	-0.839938
C67	C	-1.041231	0.481756	-0.922487
C68	C	-1.192899	0.330171	-0.716149
C69	C	-1.091755	0.431262	-0.716122
C70	C	-1.142283	0.380826	-0.175471
C71	C	-1.142422	0.380631	-0.087615
H72	H	-0.841360	0.288968	-0.289273
H73	H	-0.999936	0.805540	-0.522991
H74	H	-0.443979	0.472679	-0.472409
O75	O	-0.986614	0.966220	-0.536347
H76	H	-0.995127	1.030554	-0.527855
O77	O	-1.037248	1.090045	-0.485854
H78	H	-1.072609	1.127614	-0.526103
O79	O	-0.556857	0.225043	-0.225470
H80	H	-0.492524	0.233572	-0.233940
H81	H	-1.234170	0.288943	-1.079968
O82	O	-1.298026	0.794609	-0.225372
H83	H	-1.284525	0.810495	-0.163323
H84	H	-1.234016	0.681704	-0.289211
O85	O	-0.986647	0.536292	-0.795397
H86	H	-0.924622	0.522717	-0.811242
O87	O	-0.728490	0.536632	-0.536208
H88	H	-0.712633	0.598656	-0.522557
H89	H	-1.284715	0.238430	-0.956158
H90	H	-0.567810	0.523280	-0.522860
O91	O	-0.852311	0.485999	-0.485720
H92	H	-0.809748	0.521197	-0.520816
H93	H	-0.717539	0.238379	-0.238818
H94	H	-1.050475	0.681721	-0.472480
O95	O	-1.298071	0.966210	-0.225401
H96	H	-1.284552	0.950435	-0.163344
H97	H	-1.284686	0.238450	-0.806396
O98	O	-1.247433	0.275673	-0.671640
H99	H	-1.282609	0.240516	-0.714218
O100	O	-1.247558	1.090015	-0.275927
H101	H	-1.239094	1.154351	-0.284428
H102	H	-0.443944	0.289026	-0.289313
H103	H	-1.050557	0.472422	-0.682512
O104	O	-0.986691	0.536258	-0.966989
H105	H	-0.995211	0.527755	-1.031326
H106	H	-1.050665	0.472327	-1.079928
