data_functionalizedCrystal
_audit_creation_method	'MofGen! by Chris Wilmer'
_symmetry_space_group_name_H-M	'P1'
_symmetry_Int_Tables_number	1
_symmetry_cell_setting	triclinic
loop_
_symmetry_equiv_pos_as_xyz
  x,y,z
_cell_length_a	20.875621
_cell_length_b	23.196402
_cell_length_c	23.196401
_cell_angle_alpha	59.999265
_cell_angle_beta	87.034126
_cell_angle_gamma	58.315959
loop_
_atom_site_label
_atom_site_type_symbol
_atom_site_fract_x
_atom_site_fract_y
_atom_site_fract_z
Zr1	Zr	0.617935	0.631018	-0.104466
O2	O	0.515498	0.751298	-0.191740
O3	O	0.649334	0.510748	-0.077715
O4	O	0.649313	0.631034	-0.197989
O5	O	0.515539	0.630996	0.023412
O6	O	0.754872	0.631035	-0.202914
O7	O	0.515520	0.631012	-0.071466
O8	O	0.754909	0.415866	0.012234
O9	O	0.515501	0.846165	-0.191736
O10	O	0.741506	0.560214	-0.069978
O11	O	0.662744	0.560201	0.004504
O12	O	0.662719	0.701822	-0.137102
O13	O	0.583956	0.701809	-0.062620
Zr14	Zr	0.786319	0.630994	0.038998
Zr15	Zr	0.786288	0.631020	-0.112321
Zr16	Zr	0.617966	0.630992	0.046854
Zr17	Zr	0.617939	0.782320	-0.104459
Zr18	Zr	0.786315	0.479691	0.038992
O19	O	0.754920	0.751264	0.012248
O20	O	0.754875	0.751300	-0.202909
O21	O	0.515543	0.751261	0.023417
O22	O	0.888755	0.510714	0.126273
O23	O	0.888711	0.510751	-0.088884
O24	O	0.649379	0.510711	0.137442
O25	O	0.888715	0.631016	-0.088879
O26	O	0.754941	0.630978	0.132521
O27	O	0.649382	0.630976	0.137447
O28	O	0.888734	0.631000	0.005999
O29	O	0.649320	0.846167	-0.197980
O30	O	0.754934	0.415845	0.132512
O31	O	0.888752	0.415847	0.126269
O32	O	0.888728	0.415867	0.005990
O33	O	0.515526	0.846144	-0.071457
O34	O	0.649345	0.846146	-0.077701
O35	O	0.741535	0.560190	0.071635
O36	O	0.820298	0.560203	-0.002847
O37	O	0.741510	0.701811	-0.069972
O38	O	0.662748	0.701798	0.004510
C39	C	0.702121	0.441750	-0.032741
C40	C	0.702119	0.377518	-0.032744
C41	C	0.743227	0.347354	-0.071625
C42	C	0.743234	0.286993	-0.071620
C43	C	0.702119	0.256810	-0.032742
C44	C	0.661009	0.286977	0.006147
C45	C	0.661009	0.347331	0.006146
C46	C	0.633240	0.194780	-0.034803
C47	C	0.633237	0.134431	-0.034807
C48	C	0.702120	0.070655	-0.032735
C49	C	0.771004	0.067243	-0.030673
C50	C	0.771004	0.127597	-0.030674
C51	C	0.702115	0.191365	-0.032736
C52	C	0.743240	-0.024960	-0.071612
C53	C	0.743249	-0.085326	-0.071602
C54	C	0.661017	-0.085335	0.006161
C55	C	0.661015	-0.024976	0.006155
C56	C	0.702124	0.005211	-0.032736
C57	C	0.491543	0.631003	-0.022908
C58	C	0.420072	0.631003	-0.019573
C59	C	0.386484	0.631014	-0.070277
C60	C	0.319332	0.631009	-0.067140
C61	C	0.285767	0.630999	-0.013302
C62	C	0.319361	0.630985	0.037407
C63	C	0.386515	0.630984	0.034272
C64	C	0.084930	0.630995	0.001680
C65	C	0.017770	0.630998	0.004810
C66	C	0.017747	0.631020	-0.099737
C67	C	0.084899	0.631024	-0.102869
C68	C	0.118490	0.631006	-0.052158
N69	N	0.217125	0.630996	-0.010096
N70	N	0.187133	0.631003	-0.055362
C71	C	0.912711	0.631008	-0.042559
C72	C	0.984182	0.631009	-0.045894
C73	C	0.702088	0.631038	-0.222011
C74	C	0.702075	0.631049	-0.286250
C75	C	0.702133	0.820262	-0.032726
C76	C	0.702135	0.884494	-0.032723
C77	C	0.760229	0.631052	-0.319127
C78	C	0.760247	0.631035	-0.379474
C79	C	0.702097	0.631033	-0.406950
C80	C	0.643938	0.631026	-0.374064
C81	C	0.643926	0.631034	-0.313714
C82	C	0.631131	0.678527	-0.523019
C83	C	0.631142	0.678524	-0.583370
C84	C	0.702132	0.631004	-0.593088
C85	C	0.773117	0.583498	-0.542453
C86	C	0.773105	0.583506	-0.482103
C87	C	0.702104	0.631024	-0.472389
C88	C	0.760311	0.630987	-0.691400
C89	C	0.760329	0.630966	-0.751746
C90	C	0.644013	0.630965	-0.746338
C91	C	0.644001	0.630978	-0.685990
C92	C	0.702150	0.630993	-0.658526
C93	C	0.702166	0.630973	0.156544
C94	C	0.702179	0.630962	0.220783
C95	C	0.912705	0.441752	-0.042567
C96	C	0.984174	0.377521	-0.045905
C97	C	0.702160	0.441717	0.156536
C98	C	0.702171	0.377474	0.220772
C99	C	0.912744	0.441719	0.146710
C100	C	0.984226	0.377477	0.207612
C101	C	0.491509	0.820292	-0.212177
C102	C	0.420028	0.884534	-0.273079
C103	C	0.491548	0.820260	-0.022900
C104	C	0.420080	0.884491	-0.019563
C105	C	0.702094	0.820295	-0.222003
C106	C	0.702082	0.884537	-0.286239
C107	C	0.976608	0.347363	-0.082520
C108	C	1.043754	0.287020	-0.085669
C109	C	1.118465	0.256831	-0.052199
C110	C	1.126029	0.286995	-0.015583
C111	C	1.058884	0.347341	-0.012438
C112	C	0.743305	0.347299	0.285986
C113	C	0.743313	0.286945	0.346349
C114	C	0.702191	0.256762	0.341496
C115	C	0.661052	0.286943	0.276275
C116	C	0.661040	0.347301	0.215914
C117	C	1.058915	0.347315	0.197333
C118	C	1.126086	0.286962	0.254550
C119	C	1.118566	0.256767	0.322046
C120	C	1.043870	0.286935	0.332324
C121	C	0.976700	0.347291	0.275107
C122	C	0.345339	0.914704	-0.262800
C123	C	0.278168	0.975076	-0.320017
C124	C	0.285687	1.005274	-0.387513
C125	C	0.360384	0.975102	-0.397791
C126	C	0.427553	0.914735	-0.340575
C127	C	0.427646	0.914655	0.017046
C128	C	0.360500	0.975015	0.020179
C129	C	0.285789	1.005206	-0.013293
C130	C	0.278225	0.975039	-0.049906
C131	C	0.345370	0.914684	-0.053043
C132	C	0.743212	0.914701	-0.281364
C133	C	0.743217	0.975056	-0.341716
C134	C	0.702087	1.005251	-0.406942
C135	C	0.660956	0.975081	-0.411816
C136	C	0.660956	0.914723	-0.351465
H137	H	0.776717	-0.000384	-0.103277
O138	O	0.837983	0.005371	-0.028688
C139	C	0.974640	-0.054923	-0.024547
C140	C	0.898843	0.015200	-0.026806
H141	H	1.023870	-0.047009	-0.023010
H142	H	0.964215	-0.054120	-0.072782
H143	H	0.991961	-0.115592	0.023877
H144	H	0.881481	0.075905	-0.075199
H145	H	0.909310	0.014325	0.021462
H146	H	0.702207	0.207615	0.390651
H147	H	0.291986	0.631017	-0.108427
H148	H	0.776815	0.262378	0.399448
O149	O	0.419155	0.631088	0.083430
C150	C	0.455865	0.701356	0.107258
C151	C	0.418897	0.701333	0.051514
H152	H	0.455654	0.758152	0.081477
H153	H	0.518901	0.644643	0.135291
H154	H	0.420354	0.701312	0.146288
H155	H	0.454346	0.701406	0.012440
H156	H	0.355854	0.758041	0.023534
H157	H	0.830924	0.544802	-0.550361
O158	O	0.621103	0.885313	-0.356163
C159	C	0.628552	0.767529	-0.331238
C160	C	0.673797	0.800721	-0.325887
H161	H	0.671134	0.699129	-0.306751
H162	H	0.599166	0.799419	-0.388212
H163	H	0.581843	0.779463	-0.302669
H164	H	0.720543	0.788794	-0.354420
H165	H	0.703129	0.768829	-0.268899
O166	O	0.367999	1.004191	0.055808
C167	C	0.456706	0.997801	0.124972
C168	C	0.448325	0.964678	0.084660
H169	H	0.521646	0.965882	0.148298
H170	H	0.427378	0.985903	0.168354
H171	H	0.427290	1.066192	0.088059
H172	H	0.477746	0.896283	0.121518
H173	H	0.477631	0.976639	0.041269
H174	H	0.776729	-0.109889	-0.103261
H175	H	0.366497	0.999698	-0.452753
O176	O	-0.014828	0.631095	0.057093
C177	C	-0.074491	0.701354	0.114081
C178	C	-0.037571	0.701332	0.054858
H179	H	-0.092904	0.758143	0.112285
H180	H	-0.029722	0.644634	0.166165
H181	H	-0.128234	0.701323	0.107607
H182	H	0.016165	0.701392	0.061266
H183	H	-0.082390	0.758046	0.002797
O184	O	-0.014959	0.630994	-0.148917
C185	C	-0.118447	0.631049	-0.190447
C186	C	-0.081481	0.631063	-0.134696
H187	H	-0.172246	0.631122	-0.178977
H188	H	-0.073714	0.574288	-0.189937
H189	H	-0.136776	0.687789	-0.243737
H190	H	-0.063153	0.574362	-0.081379
H191	H	-0.126237	0.687861	-0.135268
O192	O	1.036353	0.257645	-0.121140
C193	C	0.986538	0.189560	-0.132336
C194	C	0.994881	0.222773	-0.092098
H195	H	0.952994	0.161374	-0.108881
H196	H	1.047336	0.141201	-0.128830
H197	H	0.953057	0.241578	-0.189128
H198	H	1.028330	0.170810	-0.035292
H199	H	0.934059	0.271154	-0.095663
O200	O	0.620887	1.004430	-0.475135
C201	C	0.495298	1.072658	-0.550956
C202	C	0.540586	1.039434	-0.479216
H203	H	0.430364	1.100982	-0.554284
H204	H	0.519593	1.020693	-0.558480
H205	H	0.502406	1.120949	-0.593237
H206	H	0.533496	0.991156	-0.436891
H207	H	0.516281	1.091444	-0.471752
O208	O	1.183767	0.198229	-0.055207
C209	C	1.325267	0.111553	-0.021222
C210	C	1.251382	0.177937	-0.017775
H211	H	1.379952	0.095115	0.009050
H212	H	1.325320	0.135282	-0.077721
H213	H	1.325221	0.055072	0.002494
H214	H	1.251380	0.234440	-0.041456
H215	H	1.251358	0.154143	0.038736
H216	H	0.627540	-0.109910	0.037816
H217	H	1.065052	0.371891	0.142379
H218	H	0.112227	0.631032	-0.146708
O219	O	1.036712	0.257480	0.397938
C220	C	1.103775	0.164497	0.520548
C221	C	1.111990	0.197776	0.446277
H222	H	1.164628	0.116233	0.559650
H223	H	1.070345	0.136173	0.528520
H224	H	1.070259	0.216500	0.528454
H225	H	1.145523	0.145818	0.438320
H226	H	1.145389	0.226124	0.438340
O227	O	0.587405	0.631132	-0.654150
C228	C	0.448897	0.701366	-0.664397
C229	C	0.512916	0.701306	-0.700533
H230	H	0.388658	0.758087	-0.701886
H231	H	0.458807	0.701426	-0.616561
H232	H	0.451835	0.644589	-0.648003
H233	H	0.510016	0.758073	-0.716972
H234	H	0.502985	0.701204	-0.748339
O235	O	0.621171	0.257603	0.271470
C236	C	0.606198	0.189394	0.227513
C237	C	0.651407	0.222609	0.232889
H238	H	0.630637	0.161078	0.196335
H239	H	0.541263	0.241363	0.200411
H240	H	0.613258	0.141099	0.281866
H241	H	0.644410	0.270891	0.178563
H242	H	0.716324	0.170596	0.260028
O243	O	0.587589	0.630818	-0.772925
C244	C	0.527237	0.560585	-0.753438
C245	C	0.591181	0.560645	-0.723248
H246	H	0.530109	0.503865	-0.713283
H247	H	0.537225	0.560525	-0.802199
H248	H	0.466994	0.617363	-0.767169
H249	H	0.651450	0.503877	-0.709475
H250	H	0.581124	0.560748	-0.674513
H251	H	0.915780	0.371942	-0.109784
H252	H	0.627547	0.371861	0.162816
H253	H	0.573342	0.717210	-0.624596
O254	O	0.783234	0.376556	-0.109411
C255	C	0.864753	0.370231	-0.186576
C256	C	0.819492	0.337075	-0.143803
H257	H	0.894066	0.338337	-0.214404
H258	H	0.911508	0.358331	-0.150497
H259	H	0.822141	0.438624	-0.226532
H260	H	0.862044	0.268677	-0.103844
H261	H	0.772728	0.349038	-0.179925
O262	O	0.500233	0.885207	0.049652
C263	C	0.623818	0.767380	0.136433
C264	C	0.541633	0.800616	0.099576
H265	H	0.657319	0.698981	0.176794
H266	H	0.617728	0.799254	0.163182
H267	H	0.657269	0.779299	0.096564
H268	H	0.508137	0.788705	0.139401
H269	H	0.547779	0.768742	0.072813
O270	O	0.117556	0.631090	0.050849
C271	C	0.154251	0.701346	0.074713
C272	C	0.117302	0.701331	0.018951
H273	H	0.154043	0.758139	0.048946
H274	H	0.217284	0.644630	0.102755
H275	H	0.118724	0.701302	0.113732
H276	H	0.152767	0.701404	-0.020112
H277	H	0.054262	0.758042	-0.009038
H278	H	0.915888	0.371841	0.283487
H279	H	0.776792	0.371867	0.289951
O280	O	0.566345	0.256835	-0.036911
C281	C	0.469146	0.402030	-0.099173
C282	C	0.544910	0.331835	-0.096864
H283	H	0.451784	0.462683	-0.147649
H284	H	0.479600	0.401290	-0.050981
H285	H	0.419931	0.394075	-0.100620
H286	H	0.594161	0.339743	-0.095440
H287	H	0.534392	0.332596	-0.145054
H288	H	0.776711	0.262429	-0.103283
O289	O	1.198565	0.257641	0.017040
C290	C	1.289464	0.189386	0.125674
C291	C	1.207285	0.222622	0.088807
H292	H	1.296546	0.161051	0.183706
H293	H	1.296581	0.241348	0.103512
H294	H	1.336129	0.141103	0.117097
H295	H	1.160570	0.270893	0.097369
H296	H	1.200235	0.170616	0.110974
H297	H	0.627534	0.262397	0.037802
H298	H	1.186901	0.262405	0.246169
O299	O	1.183900	0.198107	0.377547
C300	C	1.325403	0.111542	0.416964
C301	C	1.251476	0.177962	0.354053
H302	H	1.380057	0.095248	0.397993
H303	H	1.325487	0.054979	0.449735
H304	H	1.325389	0.135273	0.449745
H305	H	1.251442	0.154308	0.321219
H306	H	1.251421	0.234513	0.321334
O307	O	0.337884	0.885499	-0.197285
C308	C	0.249227	0.891852	-0.126201
C309	C	0.257567	0.924998	-0.200431
H310	H	0.184296	0.923760	-0.128719
H311	H	0.278575	0.903743	-0.097457
H312	H	0.278648	0.823461	-0.097469
H313	H	0.228142	0.993393	-0.229221
H314	H	0.228241	0.913044	-0.229122
O315	O	0.783229	0.885234	-0.217974
C316	C	0.886287	0.767411	-0.111758
C317	C	0.841012	0.800669	-0.183518
H318	H	0.933026	0.699040	-0.083885
H319	H	0.843745	0.779212	-0.079617
H320	H	0.915645	0.799382	-0.118669
H321	H	0.811652	0.768720	-0.176671
H322	H	0.883590	0.788881	-0.215634
H323	H	0.217353	0.999632	-0.311635
O324	O	0.205630	1.004291	-0.082300
C325	C	0.082068	1.022808	-0.069733
C326	C	0.164265	0.989631	-0.032964
H327	H	0.048595	1.010983	-0.029863
H328	H	0.088134	0.990875	-0.096417
H329	H	0.048602	1.091189	-0.110156
H330	H	0.197777	0.921256	0.007490
H331	H	0.158143	1.021625	-0.006327
O332	O	0.783179	1.004298	-0.336847
C333	C	0.864788	0.997872	-0.260935
C334	C	0.819552	0.964699	-0.266351
H335	H	0.894222	0.965859	-0.203945
H336	H	0.822216	1.066251	-0.285314
H337	H	0.911463	0.986027	-0.289549
H338	H	0.772877	0.976485	-0.237734
H339	H	0.862173	0.896330	-0.241994
O340	O	0.286648	0.631119	0.089624
C341	C	0.171742	0.701340	0.120530
C342	C	0.208699	0.701296	0.061330
H343	H	0.108709	0.758064	0.097676
H344	H	0.207227	0.701383	0.156232
H345	H	0.171917	0.644566	0.151514
H346	H	0.208530	0.758061	0.030294
H347	H	0.173202	0.701211	0.025677
H348	H	0.339198	0.890127	-0.082852
H349	H	0.702093	1.054398	-0.456078
H350	H	0.488366	0.890172	-0.348952
H351	H	0.827093	0.124814	-0.028994
O352	O	1.066196	0.376751	0.023032
C353	C	1.038096	0.494541	0.017625
C354	C	1.029769	0.461345	-0.022636
H355	H	1.008637	0.562941	-0.019277
H356	H	1.103018	0.462655	0.040988
H357	H	1.008751	0.482605	0.060989
H358	H	1.059071	0.473273	-0.066031
H359	H	0.964835	0.493232	-0.045949
H360	H	0.230987	1.054429	-0.434097
H361	H	0.627537	-0.000414	0.037813
H362	H	0.577147	0.137218	-0.036490
O363	O	0.621002	0.376575	0.043928
C364	C	0.539480	0.370161	0.121091
C365	C	0.584743	0.336981	0.078323
H366	H	0.510166	0.338151	0.148922
H367	H	0.492727	0.438540	0.085008
H368	H	0.582092	0.358317	0.161044
H369	H	0.542192	0.348767	0.038367
H370	H	0.631506	0.268612	0.114450
O371	O	0.419008	0.630987	-0.122606
C372	C	0.411866	0.631051	-0.225990
C373	C	0.374965	0.631065	-0.166757
H374	H	0.376264	0.631131	-0.261710
H375	H	0.474868	0.574287	-0.203203
H376	H	0.411756	0.687788	-0.256936
H377	H	0.375018	0.574367	-0.135789
H378	H	0.311982	0.687866	-0.189588
H379	H	0.807579	0.631061	-0.296766
O380	O	0.842120	0.537282	-0.432969
C381	C	0.982945	0.443057	-0.398760
C382	C	0.904841	0.495357	-0.454453
H383	H	1.033677	0.409161	-0.416116
H384	H	0.982025	0.397168	-0.347532
H385	H	0.990954	0.484178	-0.391420
H386	H	0.896782	0.454301	-0.461854
H387	H	0.905797	0.541253	-0.505650
H388	H	0.231122	1.054351	-0.010733
H389	H	0.807689	0.630962	-0.778512
O390	O	0.816842	0.630926	-0.411307
C391	C	0.955338	0.560649	-0.401109
C392	C	0.891326	0.560684	-0.364972
H393	H	1.015572	0.503856	-0.363669
H394	H	0.952506	0.617364	-0.417464
H395	H	0.945314	0.560680	-0.448974
H396	H	0.901308	0.560624	-0.317084
H397	H	0.894175	0.503974	-0.348669
O398	O	0.816875	0.630956	-0.664788
C399	C	0.932219	0.631000	-0.676541
C400	C	0.868217	0.631017	-0.706741
H401	H	0.973735	0.631067	-0.710454
H402	H	0.966745	0.574243	-0.621522
H403	H	0.903519	0.687744	-0.675310
H404	H	0.896852	0.574312	-0.708019
H405	H	0.833697	0.687812	-0.761742
H406	H	0.573316	0.717216	-0.515110
O407	O	0.587552	0.630917	-0.400766
C408	C	0.559149	0.560629	-0.432418
C409	C	0.623085	0.560667	-0.402185
H410	H	0.587852	0.503830	-0.433561
H411	H	0.524683	0.617338	-0.487466
H412	H	0.517568	0.560669	-0.398560
H413	H	0.664718	0.560599	-0.435990
H414	H	0.657492	0.503963	-0.347128
H415	H	0.596569	0.631033	-0.286944
