data_functionalizedCrystal
_audit_creation_method	'MofGen! by Chris Wilmer'
_symmetry_space_group_name_H-M	'P1'
_symmetry_Int_Tables_number	1
_symmetry_cell_setting	triclinic
loop_
_symmetry_equiv_pos_as_xyz
  x,y,z
_cell_length_a	12.759401
_cell_length_b	16.120484
_cell_length_c	12.759401
_cell_angle_alpha	87.116031
_cell_angle_beta	90.005232
_cell_angle_gamma	92.926992
loop_
_atom_site_label
_atom_site_type_symbol
_atom_site_fract_x
_atom_site_fract_y
_atom_site_fract_z
Zn1	Zn	1.584804	-0.332009	0.615193
Zn2	Zn	1.575802	-0.471397	0.448403
Zn3	Zn	1.409152	-0.332003	0.439528
Zn4	Zn	1.400154	-0.471389	0.624040
O5	O	1.492478	-0.401700	0.531791
O6	O	1.730631	-0.350505	0.593080
O7	O	1.553693	-0.452906	0.300205
O8	O	1.439986	-0.215336	0.455414
O9	O	1.724017	-0.452912	0.470540
O10	O	1.569037	-0.215341	0.584475
O11	O	1.431256	-0.350495	0.293685
O12	O	1.260937	-0.350487	0.463992
O13	O	1.424650	-0.452899	0.769887
O14	O	1.254327	-0.452893	0.599552
O15	O	1.560312	-0.350498	0.763388
O16	O	1.544968	-0.588063	0.479118
O17	O	1.415920	-0.588058	0.608157
C18	C	1.219511	-0.401689	0.531770
C19	C	1.102734	-0.401705	0.531787
C20	C	1.044452	-0.455109	0.602272
C21	C	0.934727	-0.455112	0.602293
C22	C	0.941577	-0.348305	0.461334
C23	C	1.051299	-0.348298	0.461319
C24	C	1.478519	-0.618311	0.545584
C25	C	1.472644	-0.710978	0.551519
C26	C	1.461923	-0.880643	0.562378
C27	C	1.523221	-0.921916	0.501222
C28	C	1.517256	-1.016323	0.507264
C29	C	1.467887	-0.786227	0.556337
C30	C	1.766510	-0.401710	0.531813
C31	C	1.883287	-0.401715	0.531823
C32	C	1.492481	-0.401698	0.805824
C33	C	1.492483	-0.401698	0.922601
C34	C	1.506519	-0.184242	0.517968
C35	C	1.512503	-0.091575	0.512077
C36	C	1.563105	-0.348386	1.083812
C37	C	1.563114	-0.348386	0.974088
C38	C	1.421846	-0.455020	0.980844
C39	C	1.421843	-0.455023	1.090567
C40	C	1.492467	-0.401715	1.258825
C41	C	1.492471	-0.401702	1.142047
H42	H	0.887279	-0.498598	0.659691
H43	H	1.086326	-0.498594	0.659654
O44	O	1.353371	-0.506911	1.147193
C45	C	1.331985	-0.619448	1.278258
C46	C	1.409633	-0.560749	1.214183
H47	H	1.377441	-0.662980	1.332451
H48	H	1.281519	-0.657614	1.222665
H49	H	1.279498	-0.581160	1.327148
H50	H	1.462188	-0.598973	1.165287
H51	H	1.460025	-0.522580	1.269833
H52	H	1.620614	-0.304968	1.125724
H53	H	1.364341	-0.498431	0.938915
H54	H	0.899685	-0.304825	0.403960
H55	H	1.098754	-0.304805	0.403921
H56	H	1.580178	-0.886349	0.444327
O57	O	1.631673	-0.296660	0.917360
C58	C	1.694220	-0.249334	0.745332
C59	C	1.616542	-0.307978	0.809448
H60	H	1.681999	-0.258451	0.658072
H61	H	1.778021	-0.263962	0.767760
H62	H	1.680099	-0.182123	0.762706
H63	H	1.630567	-0.375208	0.792107
H64	H	1.532768	-0.293278	0.787010
H65	H	1.404969	-0.916207	0.619267
