data_functionalizedCrystal
_audit_creation_method	'MofGen! by Chris Wilmer'
_symmetry_space_group_name_H-M	'P1'
_symmetry_Int_Tables_number	1
_symmetry_cell_setting	triclinic
loop_
_symmetry_equiv_pos_as_xyz
  x,y,z
_cell_length_a	19.805407
_cell_length_b	19.121063
_cell_length_c	19.805398
_cell_angle_alpha	92.409806
_cell_angle_beta	89.986879
_cell_angle_gamma	92.469032
loop_
_atom_site_label
_atom_site_type_symbol
_atom_site_fract_x
_atom_site_fract_y
_atom_site_fract_z
Zn1	Zn	1.023190	-0.279623	-0.394203
Zn2	Zn	1.018285	-0.397078	-0.285838
Zn3	Zn	0.910016	-0.279645	-0.281028
Zn4	Zn	0.905138	-0.397038	-0.398983
O5	O	0.964157	-0.338346	-0.340013
O6	O	1.117255	-0.295211	-0.379840
O7	O	1.003913	-0.381526	-0.190484
O8	O	0.929123	-0.181357	-0.292027
O9	O	1.113652	-0.381505	-0.300225
O10	O	1.012271	-0.181342	-0.375176
O11	O	0.924368	-0.295248	-0.186950
O12	O	0.814653	-0.295210	-0.296663
O13	O	0.920808	-0.381437	-0.493064
O14	O	0.811069	-0.381458	-0.383323
O15	O	1.007541	-0.295173	-0.489552
O16	O	0.999182	-0.495357	-0.304860
O17	O	0.916053	-0.495328	-0.387987
C18	C	0.788302	-0.338333	-0.339990
C19	C	0.713069	-0.338344	-0.339997
C20	C	0.675874	-0.383321	-0.385054
C21	C	0.605185	-0.383322	-0.385064
C22	C	0.571694	-0.338349	-0.340013
C23	C	0.608894	-0.293367	-0.294954
C24	C	0.679582	-0.293363	-0.294948
C25	C	0.323820	-0.293383	-0.294977
C26	C	0.253128	-0.293392	-0.294985
C27	C	0.249424	-0.383342	-0.385093
C28	C	0.320111	-0.383338	-0.385087
C29	C	0.357306	-0.338353	-0.340031
C30	C	0.433954	-0.338352	-0.340022
C31	C	0.495046	-0.338354	-0.340018
C32	C	0.956574	-0.520827	-0.347479
C33	C	0.953392	-0.598893	-0.350696
C34	C	0.995212	-0.635560	-0.308963
C35	C	0.992223	-0.708912	-0.311992
C36	C	0.947411	-0.745594	-0.356751
C37	C	0.905590	-0.708922	-0.398489
C38	C	0.908582	-0.635572	-0.395462
C39	C	0.936211	-0.967064	-0.368055
C40	C	0.933220	-1.040419	-0.371077
C41	C	1.019855	-1.040404	-0.284581
C42	C	1.022841	-0.967053	-0.281556
C43	C	0.981022	-0.930387	-0.323296
C44	C	0.944353	-0.820571	-0.359847
C45	C	0.984084	-0.855411	-0.320203
C46	C	1.140699	-0.338360	-0.340036
C47	C	1.215931	-0.338366	-0.340045
C48	C	0.964177	-0.338299	-0.516554
C49	C	0.964186	-0.338278	-0.591785
C50	C	0.971788	-0.155153	-0.332532
C51	C	0.975040	-0.077087	-0.329344
C52	C	1.005716	-0.383091	-1.055409
C53	C	1.005697	-0.383110	-0.984721
C54	C	0.964273	-0.338199	-0.947543
C55	C	0.922861	-0.293271	-0.981057
C56	C	0.922878	-0.293256	-1.051744
C57	C	0.922793	-0.293331	-0.695986
C58	C	0.922782	-0.293348	-0.625295
C59	C	1.005612	-0.383186	-0.628964
C60	C	1.005629	-0.383171	-0.699650
C61	C	0.964215	-0.338245	-0.733158
C62	C	0.964235	-0.338226	-0.809806
C63	C	0.964256	-0.338214	-0.870897
C64	C	0.964178	-0.338343	-0.164157
C65	C	0.964309	-0.338165	-0.088918
H66	H	0.225861	-0.256765	-0.258298
Cl67	Cl	1.040420	-0.809295	-0.263939
H68	H	1.039406	-0.419702	-0.957442
H69	H	0.889130	-0.256707	-0.950781
Cl70	Cl	1.079188	-0.920943	-0.225294
H71	H	0.896737	-1.070284	-0.407537
Cl72	Cl	0.870701	-0.236885	-0.578557
H73	H	0.574904	-0.419948	-0.421753
H74	H	1.039332	-0.419768	-0.601673
H75	H	0.219132	-0.419968	-0.421782
Cl76	Cl	0.362211	-0.439880	-0.441723
Cl77	Cl	1.057707	-0.439632	-0.746384
H78	H	0.709866	-0.256734	-0.258261
Cl79	Cl	0.870824	-0.236771	-1.093869
H80	H	0.354095	-0.256759	-0.258284
Cl81	Cl	1.057799	-0.439551	-1.102140
Cl82	Cl	1.051546	-0.589452	-0.252687
Cl83	Cl	0.717971	-0.439865	-0.441691
Cl84	Cl	0.566790	-0.236825	-0.238322
H85	H	1.026277	-0.738763	-0.278008
Cl86	Cl	1.072428	-1.086503	-0.232116
Cl87	Cl	0.883637	-0.920979	-0.420528
Cl88	Cl	0.856009	-0.589475	-0.447931
Cl89	Cl	0.849258	-0.755037	-0.454762
Cl90	Cl	0.888019	-0.866692	-0.416114
H91	H	0.889070	-0.256751	-0.723259
