data_functionalizedCrystal
_audit_creation_method	'MofGen! by Chris Wilmer'
_symmetry_space_group_name_H-M	'P1'
_symmetry_Int_Tables_number	1
_symmetry_cell_setting	triclinic
loop_
_symmetry_equiv_pos_as_xyz
  x,y,z
_cell_length_a	10.489711
_cell_length_b	10.489741
_cell_length_c	16.776229
_cell_angle_alpha	89.993609
_cell_angle_beta	90.005225
_cell_angle_gamma	84.533091
loop_
_atom_site_label
_atom_site_type_symbol
_atom_site_fract_x
_atom_site_fract_y
_atom_site_fract_z
O1	O	1.694076	0.179767	0.066317
O2	O	2.194076	0.679767	0.566317
O3	O	1.322876	0.196700	0.066312
O4	O	1.822876	0.696700	0.566312
O5	O	1.516922	0.002635	0.066310
O6	O	2.016922	0.502635	0.566310
O7	O	1.500029	0.373832	0.066319
O8	O	2.000029	0.873832	0.566319
O9	O	1.516905	0.002669	-0.066267
O10	O	2.016905	0.502669	0.433733
O11	O	1.322858	0.196734	-0.066265
O12	O	1.822858	0.696734	0.433735
O13	O	1.694058	0.179801	-0.066260
O14	O	2.194058	0.679801	0.433740
Zn15	Zn	1.508455	0.188273	-0.087312
Zn16	Zn	2.008455	0.688273	0.412688
Zn17	Zn	1.508479	0.188228	0.087364
Zn18	Zn	2.008479	0.688228	0.587364
O19	O	1.500012	0.373866	-0.066258
O20	O	2.000012	0.873866	0.433742
C21	C	1.275334	0.195446	0.000023
C22	C	1.775334	0.695446	0.500023
C23	C	1.133703	0.191644	0.000021
C24	C	1.633703	0.691644	0.500021
C25	C	0.951317	0.308348	0.000033
C26	C	1.451317	0.808348	0.500033
C27	C	1.043471	0.250036	0.065398
C28	C	1.543471	0.750036	0.565398
C29	C	1.043426	0.250038	-0.065312
C30	C	1.543426	0.750038	0.434688
C31	C	0.973520	0.126493	0.065456
C32	C	1.473520	0.626493	0.565456
C33	C	0.973466	0.126513	-0.065312
C34	C	1.473466	0.626513	0.434688
C35	C	1.065593	0.068111	0.000068
C36	C	1.565593	0.568111	0.500068
C37	C	1.515638	-0.044880	0.000022
C38	C	2.015638	0.455120	0.500022
C39	C	1.511820	-0.186509	0.000023
C40	C	2.011820	0.313491	0.500023
C41	C	1.388354	-0.254636	0.000027
C42	C	1.888354	0.245364	0.500027
C43	C	1.446670	-0.346748	-0.065339
C44	C	1.946670	0.153252	0.434661
C45	C	1.446716	-0.346756	0.065371
C46	C	1.946716	0.153244	0.565371
C47	C	1.570187	-0.276756	-0.065397
C48	C	2.070187	0.223244	0.434603
C49	C	1.570216	-0.276754	0.065372
C50	C	2.070216	0.223246	0.565372
C51	C	1.628622	-0.368839	-0.000011
C52	C	2.128622	0.131161	0.499989
C53	C	1.741600	0.181055	0.000031
C54	C	2.241600	0.681055	0.500031
C55	C	1.883231	0.184857	0.000038
C56	C	2.383231	0.684857	0.500038
C57	C	1.501296	0.421381	0.000032
C58	C	2.001296	0.921381	0.500032
C59	C	1.505114	0.563010	0.000036
C60	C	2.005114	1.063010	0.500036
N61	N	1.508449	0.188303	-0.206523
N62	N	2.008449	0.688303	0.293477
C63	C	1.430421	0.110085	-0.751698
C64	C	1.930421	0.610085	-0.251698
C65	C	1.430418	0.110096	-0.668246
C66	C	1.930418	0.610096	-0.168246
C67	C	1.508484	0.188217	-0.626522
C68	C	2.008484	0.688217	-0.126522
C69	C	1.586567	0.266324	-0.668255
C70	C	2.086567	0.766324	-0.168255
C71	C	1.586576	0.266305	-0.751706
C72	C	2.086576	0.766305	-0.251706
C73	C	1.586535	0.266398	-0.331708
C74	C	2.086535	0.766398	0.168292
C75	C	1.586517	0.266414	-0.248252
C76	C	2.086517	0.766414	0.251748
C77	C	1.430377	0.110189	-0.248248
C78	C	1.930377	0.610189	0.251752
C79	C	1.430386	0.110170	-0.331698
C80	C	1.930386	0.610170	0.168302
C81	C	1.508473	0.188271	-0.373424
C82	C	2.008473	0.688271	0.126576
C83	C	1.508477	0.188257	-0.463913
C84	C	2.008477	0.688257	0.036087
C85	C	1.508474	0.188239	-0.536035
C86	C	2.008474	0.688239	-0.036035
N87	N	1.508495	0.188188	0.206575
N88	N	2.008495	0.688188	0.706575
H89	H	0.901626	0.409850	0.000101
H90	H	1.401626	0.909850	0.500101
H91	H	1.366844	0.046476	-0.785663
H92	H	1.866844	0.546476	-0.285663
O93	O	1.084533	0.319222	0.138603
O94	O	1.584533	0.819222	0.638603
H95	H	1.190198	0.320645	0.138218
H96	H	1.690198	0.820645	0.638218
O97	O	1.346201	0.025861	-0.623240
O98	O	1.846201	0.525861	-0.123240
H99	H	1.244509	0.052651	-0.639267
H100	H	1.744509	0.552651	-0.139267
H101	H	1.366798	0.046591	-0.214265
H102	H	1.866798	0.546591	0.285735
H103	H	1.286841	-0.204974	-0.000040
H104	H	1.786841	0.295026	0.499960
O105	O	1.763225	-0.434279	0.000011
O106	O	2.263225	0.065721	0.500011
H107	H	1.759504	-0.539669	0.000555
H108	H	2.259504	-0.039669	0.500555
O109	O	1.377477	-0.387803	-0.138547
O110	O	1.877477	0.112197	0.361453
H111	H	1.277764	-0.341646	-0.138418
H112	H	1.777764	0.158354	0.361582
O113	O	1.639311	-0.235921	-0.138686
O114	O	2.139311	0.264079	0.361314
H115	H	1.641557	-0.130350	-0.138132
H116	H	2.141557	0.369650	0.361868
H117	H	1.622421	-0.245729	0.120638
H118	H	2.122421	0.254271	0.620638
H119	H	0.942436	0.074318	-0.120579
H120	H	1.442436	0.574318	0.379421
O121	O	1.377516	-0.387817	0.138573
O122	O	1.877516	0.112183	0.638573
H123	H	1.345089	-0.302223	0.174741
H124	H	1.845089	0.197777	0.674741
O125	O	1.346228	0.025872	-0.376702
O126	O	1.846228	0.525872	0.123298
H127	H	1.291958	-0.028461	-0.333666
H128	H	1.791958	0.471539	0.166334
H129	H	1.650092	0.330033	-0.214283
H130	H	2.150092	0.830033	0.285717
O131	O	0.932742	0.057307	0.138739
O132	O	1.432742	0.557307	0.638739
H133	H	0.961444	0.108257	0.192879
H134	H	1.461444	0.608257	0.692879
H135	H	1.074375	0.302326	-0.120574
H136	H	1.574375	0.802326	0.379426
O137	O	1.131041	-0.066489	0.000069
O138	O	1.631041	0.433511	0.500069
H139	H	1.103004	-0.117453	0.054368
H140	H	1.603004	0.382547	0.554368
H141	H	1.650118	0.329994	-0.365671
H142	H	2.150118	0.829994	0.134329
H143	H	1.650153	0.329904	-0.785679
H144	H	2.150153	0.829904	-0.285679
H145	H	1.650136	0.329926	-0.634278
H146	H	2.150136	0.829926	-0.134278
