data_functionalizedCrystal
_audit_creation_method	'MofGen! by Chris Wilmer'
_symmetry_space_group_name_H-M	'P1'
_symmetry_Int_Tables_number	1
_symmetry_cell_setting	triclinic
loop_
_symmetry_equiv_pos_as_xyz
  x,y,z
_cell_length_a	11.295483
_cell_length_b	17.699083
_cell_length_c	17.699083
_cell_angle_alpha	96.717152
_cell_angle_beta	85.914184
_cell_angle_gamma	85.903759
loop_
_atom_site_label
_atom_site_type_symbol
_atom_site_fract_x
_atom_site_fract_y
_atom_site_fract_z
O1	O	0.099007	-1.009183	0.090603
O2	O	0.099014	-0.788805	0.103056
O3	O	0.099000	-0.905219	-0.013360
O4	O	0.099021	-0.892768	0.207018
O5	O	-0.099050	-0.894994	-0.003150
O6	O	-0.099036	-0.778580	0.113265
O7	O	-0.099043	-0.998958	0.100812
Cu8	Cu	-0.117123	-0.887835	0.107971
Cu9	Cu	0.117094	-0.899927	0.095897
O10	O	-0.099028	-0.882543	0.217227
C11	C	-0.000010	-0.755495	0.107714
C12	C	-0.000008	-0.671477	0.106376
C13	C	-0.107966	-0.626436	0.111310
C14	C	-0.107967	-0.547494	0.110040
C15	C	-0.000008	-0.513593	0.103842
C16	C	0.107958	-0.558640	0.098905
C17	C	0.107958	-0.637582	0.100169
C18	C	0.107961	-0.240278	0.093805
C19	C	0.107953	-0.161330	0.092544
C20	C	-0.107963	-0.150190	0.103677
C21	C	-0.107963	-0.229131	0.104941
C22	C	0.000002	-0.274172	0.100000
C23	C	0.000002	-0.359771	0.101375
C24	C	-0.000007	-0.427996	0.102472
N25	N	-0.281858	-0.879336	0.116462
C26	C	-0.531158	-0.969617	0.026231
C27	C	-0.655821	-0.963199	0.032653
C28	C	-0.655849	-0.860079	0.135725
C29	C	-0.531186	-0.866497	0.129303
C30	C	-0.468845	-0.921268	0.074555
C31	C	-0.344180	-0.927689	0.068136
C32	C	-0.344210	-0.824566	0.171204
C33	C	-0.468873	-0.818149	0.177627
N34	N	0.281829	-0.908433	0.087399
C35	C	-0.000025	-0.899661	-0.036452
C36	C	-0.000026	-0.898322	-0.120470
C37	C	-0.000015	-0.032268	0.096149
C38	C	-0.000006	-0.116288	0.097473
C39	C	-0.000030	-0.966655	-0.169091
C40	C	-0.000019	-0.965394	-0.248035
C41	C	-0.000013	-0.895797	-0.278356
C42	C	-0.000006	-0.827459	-0.229729
C43	C	-0.000008	-0.828722	-0.150787
C44	C	0.000004	-0.822364	-0.548092
C45	C	0.000003	-0.821106	-0.627040
C46	C	-0.000007	-0.959036	-0.645340
C47	C	-0.000009	-0.960299	-0.566398
C48	C	0.000005	-0.891961	-0.517779
C49	C	-0.000005	-0.893330	-0.432179
C50	C	-0.000012	-0.894427	-0.363953
C51	C	-0.000001	-0.888102	0.240319
C52	C	0.000007	-0.889441	0.324337
H53	H	-0.195874	-0.113508	0.107697
C54	C	-0.226721	-0.663722	0.118115
H55	H	-0.291016	-0.625589	0.120861
H56	H	-0.231223	-0.688435	0.162954
H57	H	-0.231199	-0.700137	0.074709
C58	C	-0.462575	-1.029863	-0.033983
H59	H	-0.379405	-1.026764	-0.030883
H60	H	-0.483009	-1.020691	-0.083435
H61	H	-0.482987	-1.079309	-0.024767
H62	H	0.195871	-0.133731	0.087495
C63	C	-0.000040	-1.043210	-0.135741
H64	H	-0.000052	-1.034177	-0.081761
H65	H	0.069022	-1.074907	-0.155996
H66	H	-0.069115	-1.067771	-0.148883
H67	H	-0.000004	-0.773078	-0.111200
H68	H	0.000007	-0.770793	-0.254422
H69	H	0.195868	-0.674254	0.096152
C70	C	-0.000035	-1.040560	-0.301514
H71	H	-0.000057	-1.082188	-0.272149
H72	H	0.069028	-1.046507	-0.336248
H73	H	-0.069109	-1.039362	-0.329130
H74	H	-0.293460	-0.785200	0.210555
H75	H	0.195873	-0.276941	0.089779
H76	H	-0.000020	-1.016971	-0.541716
C77	C	-0.000003	-1.034208	-0.698825
H78	H	0.000014	-1.023493	-0.750184
H79	H	-0.069069	-1.059187	-0.686093
H80	H	0.069069	-1.066316	-0.693201
C81	C	0.000019	-0.744550	-0.660396
H82	H	0.000005	-0.753587	-0.714374
H83	H	0.069089	-0.719988	-0.647259
H84	H	-0.069049	-0.712850	-0.640141
C85	C	-0.226720	-0.497951	0.115474
H86	H	-0.291015	-0.529446	0.119358
H87	H	-0.231223	-0.472780	0.071095
H88	H	-0.231196	-0.461069	0.159337
H89	H	-0.195874	-0.256728	0.109992
C90	C	0.226710	-0.521351	0.092088
H91	H	0.211250	-0.467885	0.092050
H92	H	0.271067	-0.542432	0.045890
H93	H	0.271068	-0.530724	0.134134
C94	C	-0.000002	-0.747195	-0.494620
H95	H	-0.000014	-0.705567	-0.523986
H96	H	0.069059	-0.748379	-0.466998
H97	H	-0.069078	-0.741257	-0.459890
H98	H	-0.706623	-0.815481	0.180295
C99	C	-0.724368	-1.016380	-0.020500
H100	H	-0.807542	-1.004712	-0.008840
H101	H	-0.703921	-1.067929	-0.013404
H102	H	-0.703942	-1.009298	-0.072057
H103	H	-0.293423	-0.972288	0.023560
H104	H	-0.519645	-0.773553	0.222200
