data_functionalizedCrystal
_audit_creation_method	'MofGen! by Chris Wilmer'
_symmetry_space_group_name_H-M	'P1'
_symmetry_Int_Tables_number	1
_symmetry_cell_setting	triclinic
loop_
_symmetry_equiv_pos_as_xyz
  x,y,z
_cell_length_a	9.130307
_cell_length_b	8.559649
_cell_length_c	8.634740
_cell_angle_alpha	94.825514
_cell_angle_beta	90.000836
_cell_angle_gamma	89.998825
loop_
_atom_site_label
_atom_site_type_symbol
_atom_site_fract_x
_atom_site_fract_y
_atom_site_fract_z
O1	O	0.121777	-2.112212	-0.051378
O2	O	0.121782	-1.659049	0.026833
O3	O	0.121778	-1.864179	-0.234208
O4	O	0.121781	-1.907081	0.209663
O5	O	-0.121821	-1.864171	-0.234209
O6	O	-0.121817	-1.659040	0.026832
O7	O	-0.121822	-2.112203	-0.051379
Cu8	Cu	-0.144062	-1.885621	-0.012274
Cu9	Cu	0.144022	-1.885631	-0.012272
O10	O	-0.121818	-1.907073	0.209662
C11	C	-0.000017	-1.600427	0.032760
C12	C	-0.000014	-1.425763	0.050402
N13	N	-0.346685	-1.885626	-0.012277
C14	C	-0.000019	-1.854456	-0.290508
C15	C	-0.000010	-1.825478	-0.458259
C16	C	-0.346679	-2.067364	-0.243380
C17	C	-0.423342	-2.158245	-0.358928
C18	C	-0.576675	-2.158260	-0.358931
C19	C	-0.653349	-2.067382	-0.243376
C20	C	-0.576685	-1.976502	-0.127828
C21	C	-0.423348	-1.976500	-0.127834
C22	C	-0.576692	-1.794757	0.103266
C23	C	-0.423358	-1.794747	0.103278
C24	C	-0.653365	-1.703878	0.218821
C25	C	-0.576702	-1.613005	0.334379
C26	C	-0.423359	-1.612994	0.334378
C27	C	-0.346695	-1.703867	0.218827
N28	N	0.346645	-1.885637	-0.012282
C29	C	-0.000020	-2.170825	-0.057305
C30	C	-0.000013	-2.345489	-0.074948
C31	C	-0.000019	-1.916796	0.265962
C32	C	-0.000017	-1.945774	0.433714
H33	H	-0.221826	-2.067376	-0.243378
H34	H	0.000039	-2.070943	0.469567
H35	H	-0.360948	-1.538982	0.428466
C36	C	-0.659654	-2.257081	-0.484478
C37	C	-0.559699	-2.336686	-0.585662
C38	C	-0.636085	-2.427744	-0.701325
H39	H	-0.719480	-2.191087	-0.541030
H40	H	-0.719435	-2.330872	-0.437743
H41	H	-0.499944	-2.262905	-0.632394
H42	H	-0.499870	-2.402708	-0.529156
H43	H	-0.695865	-2.501535	-0.654589
H44	H	-0.695908	-2.361739	-0.757864
H45	H	-0.568278	-2.481778	-0.769983
H46	H	-0.000006	-1.360858	0.171225
H47	H	-0.000006	-1.700317	0.505893
H48	H	-0.360901	-2.232234	-0.453015
H49	H	-0.778201	-2.067385	-0.243396
C50	C	-0.660211	-1.514510	0.459737
C51	C	-0.810901	-1.533994	0.435016
C52	C	-0.887879	-1.443302	0.550479
H53	H	-0.635263	-1.407190	0.455737
H54	H	-0.635172	-1.547120	0.558839
H55	H	-0.835929	-1.501376	0.335939
H56	H	-0.835892	-1.641294	0.439031
H57	H	-0.862841	-1.475911	0.649581
H58	H	-0.862920	-1.335988	0.546469
H59	H	-0.990130	-1.456520	0.533730
H60	H	-0.778218	-1.703887	0.218809
H61	H	-0.221843	-1.703873	0.218820
H62	H	-0.000006	-1.410386	-0.195763
