data_functionalizedCrystal
_audit_creation_method	'MofGen! by Chris Wilmer'
_symmetry_space_group_name_H-M	'P1'
_symmetry_Int_Tables_number	1
_symmetry_cell_setting	triclinic
loop_
_symmetry_equiv_pos_as_xyz
  x,y,z
_cell_length_a	8.597340
_cell_length_b	8.597340
_cell_length_c	15.455313
_cell_angle_alpha	94.965168
_cell_angle_beta	94.978762
_cell_angle_gamma	93.640047
loop_
_atom_site_label
_atom_site_type_symbol
_atom_site_fract_x
_atom_site_fract_y
_atom_site_fract_z
O1	O	-0.240424	2.079860	0.065347
O2	O	-0.255121	1.626496	0.030364
O3	O	-0.021084	1.860519	0.065347
O4	O	-0.474461	1.845837	0.030364
O5	O	-0.034411	1.847136	0.207612
O6	O	-0.268448	1.613113	0.172630
O7	O	-0.253751	2.066476	0.207612
Cu8	Cu	-0.262316	1.838572	0.203111
Cu9	Cu	-0.246556	1.854400	0.034865
O10	O	-0.487788	1.832453	0.172630
C11	C	-0.259463	1.561696	0.097328
C12	C	-0.252528	1.388551	0.084905
C13	C	-0.539235	1.841468	0.097328
C14	C	-0.712385	1.848407	0.084905
C15	C	0.030363	1.851505	0.140647
C16	C	0.203514	1.844566	0.153064
C17	C	-0.249408	2.131277	0.140647
C18	C	-0.256343	2.304423	0.153064
N19	N	-0.273401	1.827451	0.321447
N20	N	-0.235459	1.865533	-0.083469
C21	C	-0.174012	1.926909	0.381703
C22	C	-0.182409	1.918513	0.471256
C23	C	-0.290204	1.810666	0.500551
C24	C	-0.389597	1.711198	0.440288
C25	C	-0.381191	1.719587	0.350737
C26	C	-0.326446	1.774455	0.766717
C27	C	-0.334848	1.766076	0.856276
C28	C	-0.127657	1.973390	0.887237
C29	C	-0.119267	1.981776	0.797683
C30	C	-0.218654	1.882302	0.737428
N31	N	-0.298794	1.802085	0.592088
N32	N	-0.210056	1.890877	0.645893
H33	H	-0.243956	1.328107	0.017039
H34	H	-0.736024	1.835962	0.220925
O35	O	-0.266355	1.376709	0.234001
C36	C	-0.135975	1.485001	0.256490
H37	H	-0.085776	1.520440	0.194596
H38	H	-0.042841	1.429032	0.298118
C39	C	-0.248831	1.587502	0.384452
C40	C	-0.187184	1.631038	0.308432
H41	H	-0.280415	1.677582	0.416495
H42	H	-0.336668	1.514540	0.369302
H43	H	-0.171209	1.540859	0.419131
H44	H	-0.264812	1.677661	0.273749
H45	H	-0.099361	1.704011	0.323577
H46	H	-0.086240	2.014735	0.357858
O47	O	-0.784693	1.858410	0.003955
C48	C	-0.892967	1.728014	-0.018522
H49	H	-0.928402	1.677831	0.043378
H50	H	-0.836978	1.634880	-0.060120
C51	C	-0.995481	1.840812	-0.146529
C52	C	-1.039013	1.779183	-0.070501
H53	H	-1.085567	1.872371	-0.178595
H54	H	-0.922531	1.928660	-0.131388
H55	H	-0.948822	1.763189	-0.181183
H56	H	-1.085652	1.856811	-0.035844
H57	H	-1.111975	1.691349	-0.085638
O58	O	-0.085813	2.015306	0.529670
C59	C	0.011143	2.112280	0.484611
H60	H	-0.046828	2.121423	0.416226
H61	H	0.129034	2.059998	0.479875
C62	C	0.107312	2.265255	0.618156
C63	C	0.036104	2.276494	0.534167
H64	H	0.122716	2.366548	0.648726
H65	H	0.041996	2.199918	0.648515
H66	H	0.205546	2.221681	0.614198
H67	H	-0.062136	2.320049	0.538126
H68	H	0.101404	2.341842	0.503810
H69	H	-0.031491	2.069593	0.773834
O70	O	-0.031031	2.070154	0.945652
C71	C	0.065948	2.167104	0.900591
H72	H	0.007967	2.176282	0.832212
H73	H	0.183813	2.114776	0.895840
C74	C	0.162201	2.320022	1.034141
C75	C	0.090982	2.331305	0.950159
H76	H	0.177650	2.421307	1.064717
H77	H	0.096869	2.254702	1.064500
H78	H	0.260414	2.276409	1.030169
H79	H	-0.007237	2.374899	0.954131
H80	H	0.156298	2.396636	0.919801
H81	H	-0.422634	1.678250	0.880121
O82	O	-0.423157	1.677770	0.708311
C83	C	-0.520076	1.580766	0.753375
H84	H	-0.529287	1.638754	0.821739
H85	H	-0.467695	1.462932	0.758163
C86	C	-0.672946	1.484425	0.619816
C87	C	-0.684270	1.555654	0.703780
H88	H	-0.774228	1.468927	0.589223
H89	H	-0.607648	1.549773	0.589455
H90	H	-0.629290	1.386237	0.623818
H91	H	-0.727908	1.653847	0.699777
H92	H	-0.749581	1.490321	0.734140
O93	O	-0.494141	1.606217	0.468702
C94	C	-0.463228	1.453374	0.437407
H95	H	-0.336070	1.452144	0.421863
H96	H	-0.543721	1.414369	0.375768
C97	C	-0.648672	1.342279	0.526574
C98	C	-0.492491	1.340766	0.507490
H99	H	-0.666730	1.272814	0.569802
H100	H	-0.669505	1.445252	0.547656
H101	H	-0.715732	1.309779	0.475202
H102	H	-0.425435	1.373284	0.558858
H103	H	-0.471648	1.237795	0.486418
O104	O	-0.477802	1.623203	0.292118
C105	C	-0.571066	1.713687	0.239381
H106	H	-0.510502	1.835557	0.239402
H107	H	-0.689782	1.723610	0.266236
C108	C	-0.668774	1.484812	0.145447
C109	C	-0.594382	1.634492	0.145466
H110	H	-0.683164	1.435959	0.087516
H111	H	-0.605946	1.423849	0.180978
H112	H	-0.767696	1.493102	0.167830
H113	H	-0.495454	1.626199	0.123094
H114	H	-0.657194	1.695452	0.109929
