data_functionalizedCrystal
_audit_creation_method	'MofGen! by Chris Wilmer'
_symmetry_space_group_name_H-M	'P1'
_symmetry_Int_Tables_number	1
_symmetry_cell_setting	triclinic
loop_
_symmetry_equiv_pos_as_xyz
  x,y,z
_cell_length_a	10.654562
_cell_length_b	13.596369
_cell_length_c	10.654550
_cell_angle_alpha	90.004809
_cell_angle_beta	84.487503
_cell_angle_gamma	90.008125
loop_
_atom_site_label
_atom_site_type_symbol
_atom_site_fract_x
_atom_site_fract_y
_atom_site_fract_z
O1	O	1.667833	0.081853	0.176477
O2	O	1.302357	0.081841	0.193266
O3	O	1.493498	0.081844	0.002133
O4	O	1.476692	0.081851	0.367610
O5	O	1.493479	-0.081739	0.002122
O6	O	1.302337	-0.081742	0.193256
O7	O	1.667814	-0.081729	0.176466
Zn8	Zn	1.485073	-0.107708	0.184860
Zn9	Zn	1.485098	0.107820	0.184873
O10	O	1.476673	-0.081732	0.367600
C11	C	1.255549	0.000048	0.192025
C12	C	1.116107	0.000043	0.188327
N13	N	1.485064	-0.254800	0.184850
C14	C	1.050566	-0.089118	0.186596
C15	C	0.919544	-0.089102	0.183131
C16	C	0.919615	0.089245	0.183133
C17	C	1.050636	0.089228	0.186589
C18	C	1.116037	-0.178303	0.188334
C19	C	1.050496	-0.267472	0.186605
C20	C	0.919473	-0.267455	0.183140
C21	C	0.853993	-0.178270	0.181404
C22	C	1.485096	-0.656091	0.184875
C23	C	1.485084	-0.544439	0.184872
C24	C	1.485081	-0.455449	0.184863
C25	C	1.485067	-0.343790	0.184858
C26	C	1.714621	0.000066	0.177708
C27	C	1.854064	0.000077	0.181406
C28	C	1.492254	0.000053	-0.044671
C29	C	1.488563	0.000057	-0.184114
N30	N	1.485116	0.254911	0.184873
C31	C	1.601103	0.000058	-0.263595
C32	C	1.597627	0.000064	-0.394615
C33	C	1.369059	0.000065	-0.366662
C34	C	1.372537	0.000066	-0.235644
C35	C	1.717129	0.000049	-0.212064
C36	C	1.829680	0.000049	-0.291546
C37	C	1.826203	0.000055	-0.422567
C38	C	1.710176	0.000062	-0.474106
C39	C	1.477916	0.000060	0.414403
C40	C	1.481608	0.000063	0.553847
H41	H	1.222721	-0.178326	0.191159
F42	F	1.720839	0.000039	-0.072622
H43	H	1.103820	-0.340082	0.188008
H44	H	1.707355	0.000078	-0.580794
F45	F	1.953156	0.000053	-0.236693
F46	F	0.714549	-0.178257	0.177686
H47	H	1.274595	0.000070	-0.408637
H48	H	0.866289	0.161855	0.181723
H49	H	1.917847	0.000065	-0.487279
H50	H	0.866114	-0.340060	0.181722
H51	H	1.104000	0.161831	0.188004
F52	F	1.252758	0.000065	-0.151050
