data_functionalizedCrystal
_audit_creation_method	'MofGen! by Chris Wilmer'
_symmetry_space_group_name_H-M	'P1'
_symmetry_Int_Tables_number	1
_symmetry_cell_setting	triclinic
loop_
_symmetry_equiv_pos_as_xyz
  x,y,z
_cell_length_a	10.654550
_cell_length_b	19.288840
_cell_length_c	9.130313
_cell_angle_alpha	89.989749
_cell_angle_beta	90.001966
_cell_angle_gamma	83.805459
loop_
_atom_site_label
_atom_site_type_symbol
_atom_site_fract_x
_atom_site_fract_y
_atom_site_fract_z
O1	O	0.156495	0.922383	-0.122041
O2	O	0.177660	0.720259	-0.121989
O3	O	-0.015762	0.825968	-0.122011
O4	O	0.349917	0.816674	-0.122019
O5	O	-0.015748	0.825961	0.121588
O6	O	0.177674	0.720251	0.121609
O7	O	0.156509	0.922376	0.121558
Cu8	Cu	0.167093	0.821313	0.143826
Cu9	Cu	0.167076	0.821322	-0.144258
O10	O	0.349931	0.816666	0.121580
C11	C	0.176992	0.694374	-0.000183
C12	C	0.174963	0.617256	-0.000164
C13	C	0.173981	0.581050	-0.132953
C14	C	0.172061	0.508591	-0.132971
C15	C	0.171097	0.472342	-0.000192
C16	C	0.172087	0.508556	0.132615
C17	C	0.174020	0.581013	0.132629
C18	C	0.094486	0.362509	0.101517
C19	C	0.092546	0.290054	0.101497
C20	C	0.165142	0.248859	-0.000230
C21	C	0.239662	0.280130	-0.101962
C22	C	0.241595	0.352587	-0.101948
C23	C	0.169003	0.393774	-0.000193
C24	C	0.162080	0.134084	-0.133048
C25	C	0.160167	0.061623	-0.133061
C26	C	0.160181	0.061590	0.132529
C27	C	0.162106	0.134049	0.132538
C28	C	0.163049	0.170292	-0.000255
C29	C	-0.062538	0.825282	-0.000213
C30	C	-0.201937	0.823240	-0.000218
C31	C	-0.282765	0.885480	-0.000229
C32	C	-0.413745	0.883558	-0.000239
C33	C	-0.383055	0.757149	-0.000220
C34	C	-0.252078	0.759073	-0.000220
C35	C	-0.300485	0.958461	-0.000234
C36	C	-0.431464	0.956539	-0.000243
C37	C	0.396707	0.817352	-0.000222
C38	C	0.536107	0.819394	-0.000227
C39	C	0.157178	0.948261	-0.000251
C40	C	0.159206	1.025378	-0.000280
N41	N	0.167104	0.821312	0.346449
N42	N	0.167056	0.821328	-0.346880
C43	C	0.091106	0.778834	0.576464
C44	C	0.091126	0.778828	0.423127
C45	C	0.243056	0.863810	0.423116
C46	C	0.243028	0.863820	0.576450
C47	C	0.003394	0.729768	0.576469
C48	C	0.003415	0.729761	0.423132
H49	H	0.159375	0.032145	-0.241198
C50	C	0.046735	0.655755	0.366961
N51	N	0.079368	0.600016	0.324654
H52	H	-0.477589	0.978598	-0.105428
H53	H	-0.473812	0.984034	0.101693
H54	H	0.043987	0.677464	0.624072
C55	C	-0.438223	0.686569	-0.000206
N56	N	-0.479774	0.633406	-0.000188
C57	C	0.326622	0.910549	0.338764
N58	N	0.389565	0.945754	0.275232
C59	C	0.326601	0.910554	0.660766
N60	N	0.389564	0.945750	0.724273
H61	H	-0.271748	0.987010	-0.102179
H62	H	-0.091618	0.751618	0.375538
H63	H	0.174749	0.610555	-0.241084
H64	H	-0.096023	0.746873	0.618043
H65	H	0.302275	0.378044	-0.184779
C66	C	0.319534	0.234820	-0.213864
N67	N	0.379691	0.200689	-0.298144
C68	C	0.170972	0.468757	-0.279056
N69	N	0.170148	0.438756	-0.389087
H70	H	0.159404	0.032076	0.240641
H71	H	0.162861	0.163594	-0.241176
C72	C	0.163168	0.173878	0.278619
N73	N	0.163970	0.203877	0.388654
H74	H	0.031861	0.264599	0.184327
H75	H	0.035367	0.396045	0.184362
H76	H	0.171306	0.479037	0.240724
H77	H	0.174821	0.610491	0.240765
H78	H	-0.186271	0.708391	-0.000231
H79	H	-0.265353	0.981698	0.104942
