data_functionalizedCrystal
_audit_creation_method	'MofGen! by Chris Wilmer'
_symmetry_space_group_name_H-M	'P1'
_symmetry_Int_Tables_number	1
_symmetry_cell_setting	triclinic
loop_
_symmetry_equiv_pos_as_xyz
  x,y,z
_cell_length_a	12.759401
_cell_length_b	12.759400
_cell_length_c	12.759393
_cell_angle_alpha	89.969510
_cell_angle_beta	89.980446
_cell_angle_gamma	90.014845
loop_
_atom_site_label
_atom_site_type_symbol
_atom_site_fract_x
_atom_site_fract_y
_atom_site_fract_z
Zn1	Zn	1.606266	-0.418211	-0.593981
Zn2	Zn	1.606158	-0.593927	-0.418301
Zn3	Zn	1.430565	-0.418263	-0.418321
Zn4	Zn	1.430557	-0.593849	-0.593943
O5	O	1.518387	-0.506062	-0.506137
O6	O	1.753273	-0.441531	-0.570685
O7	O	1.582823	-0.570678	-0.271283
O8	O	1.453921	-0.271235	-0.441647
O9	O	1.753193	-0.570628	-0.441614
O10	O	1.583008	-0.271197	-0.570704
O11	O	1.453816	-0.441619	-0.271297
O12	O	1.283543	-0.441544	-0.441609
O13	O	1.453908	-0.570496	-0.740969
O14	O	1.283537	-0.570546	-0.570638
O15	O	1.583000	-0.441456	-0.740997
O16	O	1.582815	-0.740937	-0.441577
O17	O	1.453802	-0.740880	-0.570620
C18	C	1.245419	-0.506043	-0.506122
C19	C	1.128643	-0.506060	-0.506141
C20	C	1.073805	-0.573339	-0.573215
C21	C	0.964081	-0.573352	-0.573227
C22	C	0.964042	-0.438805	-0.439081
C23	C	1.073764	-0.438787	-0.439075
C24	C	1.073827	-0.651023	-0.650660
C25	C	0.964103	-0.651036	-0.650672
C26	C	1.518324	-0.779030	-0.506115
C27	C	1.518394	-0.895806	-0.506140
C28	C	1.585645	-0.950663	-0.439022
C29	C	1.585710	-1.060387	-0.439054
C30	C	1.451262	-1.060388	-0.573327
C31	C	1.451204	-0.950666	-0.573299
C32	C	1.663264	-0.950664	-0.361498
C33	C	1.663329	-1.060388	-0.361530
C34	C	1.792420	-0.506082	-0.506152
C35	C	1.909196	-0.506091	-0.506158
C36	C	1.518465	-0.505961	-0.780170
C37	C	1.518499	-0.505918	-0.896947
C38	C	1.518478	-0.232029	-0.506182
C39	C	1.518517	-0.115252	-0.506201
C40	C	1.585722	-0.438716	-0.951825
C41	C	1.585740	-0.438671	-1.061549
C42	C	1.451308	-0.573039	-1.061507
C43	C	1.451285	-0.573078	-0.951785
C44	C	1.518369	-0.506087	-0.233169
C45	C	1.518539	-0.505834	-0.116393
H46	H	1.103636	-0.629325	-0.732067
C47	C	1.634555	-1.100272	-0.252989
C48	C	1.716858	-1.161125	-0.213465
C49	C	1.690395	-1.197871	-0.113479
H50	H	1.572873	-1.141750	-0.257244
H51	H	1.622475	-1.042433	-0.207710
H52	H	1.728925	-1.218956	-0.258732
H53	H	1.778548	-1.119670	-0.209184
H54	H	1.678315	-1.140032	-0.068200
H55	H	1.628712	-1.239345	-0.117744
H56	H	1.746236	-1.239156	-0.086645
C57	C	1.378257	-0.646162	-0.892384
C58	C	1.319426	-0.704996	-0.963890
C59	C	1.252153	-0.772336	-0.909208
H60	H	1.332394	-0.606099	-0.849578
H61	H	1.418401	-0.692013	-0.849601
H62	H	1.279285	-0.659152	-1.006655
H63	H	1.365261	-0.745081	-1.006698
H64	H	1.292297	-0.818186	-0.866425
H65	H	1.206297	-0.732264	-0.866404
H66	H	1.212235	-0.812269	-0.957717
H67	H	1.396559	-1.105068	-0.628005
C68	C	1.133492	-0.365774	-0.366372
C69	C	1.241329	-0.380134	-0.380738
C70	C	1.296383	-0.312880	-0.313789
H71	H	1.115608	-0.380994	-0.295711
H72	H	1.115584	-0.295184	-0.381889
H73	H	1.259231	-0.450708	-0.365213
H74	H	1.259244	-0.364907	-0.451384
H75	H	1.278474	-0.242290	-0.329307
H76	H	1.278490	-0.328106	-0.243133
H77	H	1.369556	-0.322607	-0.323534
H78	H	1.744608	-0.920806	-0.383349
H79	H	1.640449	-0.384028	-0.907179
C80	C	1.624263	-0.905531	-0.258395
C81	C	1.521584	-0.939687	-0.240078
C82	C	1.485625	-0.898144	-0.145104
H83	H	1.625461	-0.831171	-0.261813
H84	H	1.668319	-0.928561	-0.202969
H85	H	1.477540	-0.916651	-0.295490
H86	H	1.520358	-1.014041	-0.236639
H87	H	1.529682	-0.921174	-0.089678
H88	H	1.486830	-0.823785	-0.148531
H89	H	1.415958	-0.921320	-0.132659
C90	C	1.658784	-0.365877	-1.121269
C91	C	1.726094	-0.425342	-1.184288
C92	C	1.793386	-0.358315	-1.239328
H93	H	1.698908	-0.325860	-1.073015
H94	H	1.618643	-0.320097	-1.164130
H95	H	1.766232	-0.471104	-1.141431
H96	H	1.686000	-0.465357	-1.232561
H97	H	1.753245	-0.312535	-1.282188
H98	H	1.833503	-0.318301	-1.191067
H99	H	1.839057	-0.398651	-1.282100
H100	H	0.919346	-0.384032	-0.384479
H101	H	1.107840	-0.728274	-0.621376
C102	C	0.918963	-0.612329	-0.753902
C103	C	1.000903	-0.586664	-0.822277
C104	C	0.959358	-0.551012	-0.917381
H105	H	0.877079	-0.552025	-0.741667
H106	H	0.877093	-0.665873	-0.784279
H107	H	1.042755	-0.533125	-0.791907
H108	H	1.042794	-0.646952	-0.834542
H109	H	0.917488	-0.604556	-0.947757
H110	H	0.917475	-0.490711	-0.905136
H111	H	1.014948	-0.533603	-0.963788
C112	C	0.924568	-0.759555	-0.621353
C113	C	1.010078	-0.825921	-0.603408
C114	C	0.973700	-0.925888	-0.576386
H115	H	0.883254	-0.786801	-0.676946
H116	H	0.883210	-0.755104	-0.559585
H117	H	1.051419	-0.830377	-0.665168
H118	H	1.051401	-0.798710	-0.547811
H119	H	0.932342	-0.921436	-0.514618
H120	H	0.932386	-0.953123	-0.631982
H121	H	1.031712	-0.970927	-0.564197
H122	H	1.396452	-0.906002	-0.627961
H123	H	1.396587	-0.627720	-1.106170
C124	C	1.766497	-1.105459	-0.400458
C125	C	1.834777	-1.023474	-0.426224
C126	C	1.929826	-1.064955	-0.462075
H127	H	1.754156	-1.147310	-0.460753
H128	H	1.797009	-1.147351	-0.346988
H129	H	1.804272	-0.981600	-0.479689
H130	H	1.847149	-0.981617	-0.365945
H131	H	1.960337	-1.106847	-0.408606
H132	H	1.917474	-1.106806	-0.522368
H133	H	1.976168	-1.009336	-0.479553
