data_functionalizedCrystal
_audit_creation_method	'MofGen! by Chris Wilmer'
_symmetry_space_group_name_H-M	'P1'
_symmetry_Int_Tables_number	1
_symmetry_cell_setting	triclinic
loop_
_symmetry_equiv_pos_as_xyz
  x,y,z
_cell_length_a	13.635800
_cell_length_b	11.452831
_cell_length_c	19.551833
_cell_angle_alpha	96.841485
_cell_angle_beta	101.663477
_cell_angle_gamma	71.303113
loop_
_atom_site_label
_atom_site_type_symbol
_atom_site_fract_x
_atom_site_fract_y
_atom_site_fract_z
V1	V	2.010096	-0.170071	0.197180
O2	O	1.996843	0.006856	0.214544
O3	O	1.992680	-0.335956	0.175521
O4	O	1.981360	-0.168032	0.292443
O5	O	2.008241	-0.162230	0.096813
V6	V	2.251619	-0.148840	0.187642
O7	O	2.141249	-0.216642	0.218101
O8	O	2.345565	-0.102269	0.166721
O9	O	2.157433	0.017045	0.209302
O10	O	2.323571	-0.325768	0.170278
O11	O	2.312173	-0.156681	0.288010
O12	O	2.168752	-0.150879	0.092379
V13	V	2.510096	-0.170071	0.197180
O14	O	2.496843	0.006856	0.214544
O15	O	2.492680	-0.335956	0.175521
O16	O	2.481360	-0.168032	0.292443
O17	O	2.508241	-0.162230	0.096813
V18	V	2.751619	-0.148840	0.187642
O19	O	2.641249	-0.216642	0.218101
O20	O	2.845565	-0.102269	0.166721
O21	O	2.657433	0.017045	0.209302
O22	O	2.823571	-0.325768	0.170278
O23	O	2.812173	-0.156681	0.288010
O24	O	2.668752	-0.150879	0.092379
C25	C	1.916977	-0.376377	0.167169
C26	C	1.943350	-0.511995	0.150095
C27	C	1.999331	-0.729542	0.183590
C28	C	1.972073	-0.589376	0.201241
C29	C	1.902537	-0.162172	0.316315
C30	C	1.919729	-0.161603	0.394059
C31	C	2.064807	0.057460	0.217650
C32	C	2.028053	0.193076	0.234729
C33	C	2.079246	-0.156743	0.068503
C34	C	2.051674	-0.157306	-0.009241
C35	C	2.416977	-0.376377	0.167169
C36	C	2.443350	-0.511995	0.150095
C37	C	2.018943	-0.167460	0.433395
C38	C	2.035096	-0.166925	0.506444
C39	C	1.952036	-0.160558	0.540155
C40	C	1.852806	-0.154694	0.500810
C41	C	1.836653	-0.155217	0.427763
C42	C	1.923347	-0.226892	0.651401
C43	C	1.939505	-0.226377	0.724448
C44	C	2.001853	-0.158941	0.765458
C45	C	2.048061	-0.092037	0.733413
C46	C	2.031907	-0.092559	0.660366
C47	C	1.969541	-0.159990	0.619362
C48	C	2.118588	-0.164217	0.884002
C49	C	2.134737	-0.163674	0.957053
C50	C	1.952447	-0.151456	0.951418
C51	C	1.936298	-0.151986	0.878368
C52	C	2.019374	-0.158373	0.844665
C53	C	2.546892	-0.581923	0.144810
C54	C	2.571689	-0.709353	0.128777
C55	C	2.492942	-0.766852	0.118026
C56	C	2.389392	-0.696915	0.123315
C57	C	2.364597	-0.569488	0.139352
C58	C	2.402537	-0.162172	0.316315
C59	C	2.419729	-0.161603	0.394059
C60	C	2.564807	0.057460	0.217650
C61	C	2.528053	0.193076	0.234729
C62	C	2.579246	-0.156743	0.068503
C63	C	2.551674	-0.157306	-0.009241
C64	C	2.518948	-0.167439	0.433389
C65	C	2.535112	-0.166889	0.506439
C66	C	2.452057	-0.160510	0.540159
C67	C	2.352830	-0.154670	0.500824
C68	C	2.336665	-0.155212	0.427776
C69	C	2.597004	0.263003	0.240016
C70	C	2.562479	0.390433	0.256052
C71	C	2.459003	0.447931	0.266805
C72	C	2.390046	0.377995	0.261514
C73	C	2.424570	0.250569	0.245474
C74	C	2.452496	-0.163670	-0.042941
C75	C	2.426571	-0.164184	-0.115990
C76	C	2.499827	-0.158343	-0.155337
C77	C	2.599011	-0.151975	-0.121632
C78	C	2.624933	-0.151451	-0.048585
H79	H	1.994916	-0.767061	0.126741
Cl80	Cl	2.472398	-0.159836	0.631993
H81	H	2.586588	-0.172636	0.405944
H82	H	2.618642	0.447358	0.260358
H83	H	2.615915	-0.171649	0.538455
H84	H	2.681264	0.216206	0.231264
H85	H	2.285212	-0.149478	0.528290
Cl86	Cl	2.415618	0.608127	0.286970
H87	H	2.255869	-0.150462	0.395759
H88	H	2.115892	-0.171700	0.538477
Cl89	Cl	1.848019	-0.143429	0.993790
Cl90	Cl	1.978879	-0.531466	0.289018
Cl91	Cl	1.936525	-0.569900	0.062317
H92	H	2.305793	0.424830	0.270271
Cl93	Cl	2.360384	-0.171011	0.006509
H94	H	2.513145	-0.870612	0.104968
H95	H	2.032457	-0.769404	0.291577
Cl96	Cl	1.881424	-0.310494	0.764725
H97	H	2.280281	-0.512560	0.143650
H98	H	2.368417	0.193641	0.241176
H99	H	2.086591	-0.172655	0.405958
H100	H	2.705696	-0.146276	-0.021153
H101	H	2.611024	-0.535124	0.153557
H102	H	2.656009	-0.766279	0.124472
H103	H	2.345806	-0.169370	-0.143421
H104	H	2.069530	-0.038081	0.634278
H105	H	2.478711	-0.158785	-0.214817
H106	H	2.658649	-0.147215	-0.153680
H107	H	2.098832	-0.037128	0.766803
H108	H	2.186233	-0.169413	0.856560
H109	H	2.215529	-0.168434	0.989080
H110	H	1.872565	-0.281799	0.618016
Cl111	Cl	1.811569	-0.144644	0.828915
Cl112	Cl	1.711918	-0.147860	0.378310
Cl113	Cl	2.290405	-0.769216	0.109792
Cl114	Cl	1.748386	-0.146687	0.543188
