data_functionalizedCrystal
_audit_creation_method	'MofGen! by Chris Wilmer'
_symmetry_space_group_name_H-M	'P1'
_symmetry_Int_Tables_number	1
_symmetry_cell_setting	triclinic
loop_
_symmetry_equiv_pos_as_xyz
  x,y,z
_cell_length_a	17.000371
_cell_length_b	17.019294
_cell_length_c	10.868271
_cell_angle_alpha	86.115896
_cell_angle_beta	89.995187
_cell_angle_gamma	79.505866
loop_
_atom_site_label
_atom_site_type_symbol
_atom_site_fract_x
_atom_site_fract_y
_atom_site_fract_z
O1	O	1.056070	0.028428	-0.105339
O2	O	1.556070	0.528428	0.394661
O3	O	0.824305	0.057060	-0.108373
O4	O	1.324305	0.557060	0.391627
O5	O	0.946653	-0.072538	-0.094636
O6	O	1.446653	0.427462	0.405364
O7	O	0.933722	0.158025	-0.119077
O8	O	1.433722	0.658025	0.380923
O9	O	0.946643	-0.072542	0.110009
O10	O	1.446643	0.427458	0.610009
O11	O	0.824295	0.057056	0.096272
O12	O	1.324295	0.557056	0.596272
O13	O	1.056060	0.028424	0.099306
O14	O	1.556060	0.528424	0.599306
Zn15	Zn	0.940176	0.042739	0.130281
Zn16	Zn	1.440176	0.542739	0.630281
Zn17	Zn	0.940189	0.042744	-0.139348
Zn18	Zn	1.440189	0.542744	0.360652
O19	O	0.933712	0.158021	0.085568
O20	O	1.433712	0.658021	0.585568
C21	C	0.794644	0.058596	-0.006214
C22	C	1.294644	0.558596	0.493786
C23	C	0.706281	0.063169	-0.006699
C24	C	1.206281	0.563169	0.493301
C25	C	0.674335	-0.007205	0.000764
C26	C	1.174335	0.492795	0.500764
C27	C	0.591307	-0.002903	0.000299
C28	C	1.091307	0.497097	0.500299
C29	C	0.540226	0.071773	-0.007620
C30	C	1.040226	0.571773	0.492380
C31	C	0.572177	0.142152	-0.015086
C32	C	1.072177	0.642152	0.484914
C33	C	0.655203	0.137849	-0.014630
C34	C	1.155203	0.637849	0.485370
C35	C	0.289061	0.088391	-0.009390
C36	C	0.789061	0.588391	0.490610
C37	C	0.206030	0.092688	-0.009842
C38	C	0.706030	0.592688	0.490158
C39	C	0.225166	-0.052367	0.005541
C40	C	0.725166	0.447633	0.505541
C41	C	0.308193	-0.056663	0.006004
C42	C	0.808193	0.443337	0.506004
C43	C	0.340136	0.013716	-0.001469
C44	C	0.840136	0.513716	0.498531
C45	C	0.455358	0.076171	-0.008091
C46	C	0.955358	0.576171	0.491909
C47	C	0.425003	0.009316	-0.001006
C48	C	0.925003	0.509316	0.498994
C49	C	0.946157	-0.101895	0.010796
C50	C	1.446157	0.398105	0.510796
C51	C	0.944687	-0.189363	0.020061
C52	C	1.444687	0.310637	0.520061
C53	C	0.944003	-0.230450	-0.087138
C54	C	1.444003	0.269550	0.412862
C55	C	0.942616	-0.312635	-0.078430
C56	C	1.442616	0.187365	0.421570
C57	C	0.941918	-0.353733	0.037479
C58	C	1.441918	0.146267	0.537479
C59	C	0.942599	-0.312640	0.144686
C60	C	1.442599	0.187360	0.644686
C61	C	0.943981	-0.230456	0.135976
C62	C	1.443981	0.269544	0.635976
C63	C	0.937741	-0.601876	0.069358
C64	C	1.437741	-0.101876	0.569358
C65	C	0.936362	-0.684067	0.078060
C66	C	1.436362	-0.184067	0.578060
C67	C	0.936377	-0.684055	-0.145056
C68	C	1.436377	-0.184055	0.354944
C69	C	0.937763	-0.601870	-0.153756
C70	C	1.437763	-0.101870	0.346244
C71	C	0.938440	-0.560784	-0.046549
C72	C	1.438440	-0.060784	0.453451
C73	C	0.940502	-0.437739	0.046384
C74	C	1.440502	0.062261	0.546384
C75	C	0.939850	-0.476778	-0.055455
C76	C	1.439850	0.023222	0.444545
C77	C	1.085721	0.026888	-0.002856
C78	C	1.585721	0.526888	0.497144
C79	C	1.174084	0.022315	-0.002379
C80	C	1.674084	0.522315	0.497621
C81	C	0.934207	0.187378	-0.019866
C82	C	1.434207	0.687378	0.480134
C83	C	0.935678	0.274847	-0.029139
C84	C	1.435678	0.774847	0.470861
N85	N	0.940173	0.042735	0.314295
N86	N	1.440173	0.542735	0.814295
N87	N	0.940199	0.042742	-0.323362
N88	N	1.440199	0.542742	0.176638
C89	C	0.940185	0.042743	0.565300
C90	C	1.440185	0.542743	1.065300
C91	C	0.940176	0.042741	0.425623
C92	C	1.440176	0.542741	0.925623
H93	H	0.349778	-0.117472	0.012457
H94	H	0.849778	0.382528	0.512457
H95	H	0.944575	-0.196994	-0.181524
H96	H	1.444575	0.303006	0.318476
H97	H	0.938332	-0.568414	-0.248141
H98	H	1.438332	-0.068414	0.251859
N99	N	0.689663	0.213752	-0.022689
N100	N	1.189663	0.713752	0.477311
H101	H	0.644707	0.261712	-0.027774
H102	H	1.144707	0.761712	0.472226
H103	H	0.723694	0.215128	0.053026
H104	H	1.223694	0.715128	0.553026
N105	N	0.400262	0.156713	-0.016633
N106	N	0.900262	0.656713	0.483367
H107	H	0.410519	0.187675	0.055945
H108	H	0.910519	0.687675	0.555945
H109	H	0.410562	0.187605	-0.095821
H110	H	0.910562	0.687605	0.404179
H111	H	0.938308	-0.568437	0.156654
H112	H	1.438308	-0.068437	0.656654
H113	H	0.935790	-0.717526	0.172452
H114	H	1.435790	-0.217526	0.672452
N115	N	0.150927	0.173232	-0.018416
N116	N	0.650927	0.673232	0.481584
H117	H	0.161197	0.204177	-0.097575
H118	H	0.661197	0.704177	0.402425
H119	H	0.093510	0.165198	-0.017520
H120	H	0.593510	0.665198	0.482480
N121	N	0.941993	-0.356973	-0.194048
N122	N	1.441993	0.143027	0.305952
H123	H	0.942688	-0.318475	-0.268795
H124	H	1.442688	0.181525	0.231205
H125	H	0.990779	-0.400850	-0.194127
H126	H	1.490779	0.099150	0.305873
H127	H	0.935824	-0.717516	-0.232338
H128	H	1.435824	-0.217516	0.267662
H129	H	0.466596	-0.051485	0.005434
H130	H	0.966596	0.448515	0.505434
H131	H	0.942026	-0.346108	0.239061
H132	H	1.442026	0.153892	0.739061
N133	N	0.190713	-0.128272	0.013606
N134	N	0.690713	0.371728	0.513606
H135	H	0.130365	-0.114219	0.012117
H136	H	0.630365	0.385781	0.512117
H137	H	0.209406	-0.160696	-0.058820
H138	H	0.709406	0.339304	0.441180
N139	N	0.323509	0.164296	-0.017464
N140	N	0.823509	0.664296	0.482536
H141	H	0.278549	0.212254	-0.022549
H142	H	0.778549	0.712254	0.477451
H143	H	0.357542	0.165679	0.058246
H144	H	0.857542	0.665679	0.558246
N145	N	0.517087	0.222697	-0.023638
N146	N	1.017087	0.722697	0.476362
H147	H	0.459642	0.214745	-0.022791
H148	H	0.959642	0.714745	0.477209
H149	H	0.527420	0.253616	0.048947
H150	H	1.027420	0.753616	0.548947
H151	H	0.944526	-0.197002	0.223269
H152	H	1.444526	0.302998	0.723269
H153	H	0.565302	-0.060209	0.006374
H154	H	1.065302	0.439791	0.506374
N155	N	0.940591	-0.432422	-0.180444
N156	N	1.440591	0.067578	0.319556
H157	H	0.989671	-0.456513	-0.226684
H158	H	1.489671	0.043487	0.273316
H159	H	0.890997	-0.436905	-0.228646
H160	H	1.390997	0.063095	0.271354
H161	H	0.939937	-0.471211	0.140757
H162	H	1.439937	0.028789	0.640757
H163	H	0.715920	-0.068015	0.007217
H164	H	1.215920	0.431985	0.507217
