data_functionalizedCrystal
_audit_creation_method	'MofGen! by Chris Wilmer'
_symmetry_space_group_name_H-M	'P1'
_symmetry_Int_Tables_number	1
_symmetry_cell_setting	triclinic
loop_
_symmetry_equiv_pos_as_xyz
  x,y,z
_cell_length_a	13.262390
_cell_length_b	16.109301
_cell_length_c	12.376755
_cell_angle_alpha	102.676617
_cell_angle_beta	61.828587
_cell_angle_gamma	96.034254
loop_
_atom_site_label
_atom_site_type_symbol
_atom_site_fract_x
_atom_site_fract_y
_atom_site_fract_z
O1	O	1.498525	-0.196314	-0.554735
O2	O	1.173884	-0.193317	-0.454925
O3	O	1.345120	-0.074230	-0.507560
O4	O	1.327289	-0.315401	-0.502101
O5	O	1.306991	-0.043865	-0.307830
O6	O	1.135755	-0.162952	-0.255196
O7	O	1.460396	-0.165948	-0.355005
Zn8	Zn	1.292022	-0.159629	-0.273389
Zn9	Zn	1.342258	-0.199637	-0.536542
O10	O	1.289160	-0.285035	-0.302371
C11	C	1.113277	-0.175511	-0.342288
C12	C	0.989496	-0.167682	-0.304232
C13	C	0.723723	-0.211814	-0.632466
C14	C	0.840024	-0.219166	-0.668224
C15	C	0.877397	-0.206296	-0.577229
C16	C	0.798459	-0.186072	-0.450470
C17	C	0.682149	-0.178713	-0.414708
C18	C	0.835823	-0.173195	-0.359472
C19	C	0.756885	-0.152972	-0.232712
C20	C	0.640586	-0.145614	-0.196957
C21	C	0.603212	-0.158484	-0.287952
C22	C	0.952133	-0.180554	-0.395233
C23	C	0.910559	-0.147453	-0.177475
C24	C	0.794259	-0.140101	-0.141717
C25	C	1.325333	-0.028036	-0.407472
C26	C	1.323167	0.064368	-0.406805
C27	C	1.521003	-0.183755	-0.467645
C28	C	1.644787	-0.191585	-0.505709
C29	C	1.308947	-0.331230	-0.402461
C30	C	1.311115	-0.423635	-0.403137
N31	N	1.257745	-0.132325	-0.093797
C32	C	1.419744	0.281790	-0.436515
C33	C	1.417701	0.368611	-0.435896
C34	C	1.214532	0.358936	-0.373428
C35	C	1.216576	0.272115	-0.374055
C36	C	1.319185	0.233545	-0.405594
C37	C	1.315098	0.407188	-0.404348
C38	C	1.312883	0.501323	-0.403677
C39	C	1.321400	0.139403	-0.406267
C40	C	1.178143	-0.068929	-0.010150
C41	C	1.154137	-0.049817	0.115567
C42	C	1.209737	-0.094096	0.157648
C43	C	1.289346	-0.157490	0.073998
C44	C	1.313348	-0.176608	-0.051729
C45	C	1.344942	-0.201775	0.116068
C46	C	1.424551	-0.265169	0.032419
C47	C	1.448550	-0.284283	-0.093296
C48	C	1.392950	-0.240004	-0.135376
C49	C	1.320940	-0.182658	0.241796
C50	C	1.456145	-0.290337	0.200217
C51	C	1.480151	-0.309448	0.074500
N52	N	1.376543	-0.226940	0.283864
H53	H	0.693282	-0.222283	-0.706540
O54	O	0.708900	-0.118405	-0.005066
H55	H	0.730957	-0.055747	0.037497
H56	H	0.508512	-0.152502	-0.258844
O57	O	0.555440	-0.123800	-0.060241
H58	H	0.600961	-0.116095	-0.002972
H59	H	1.503294	0.250389	-0.462198
H60	H	0.940987	-0.136972	-0.103380
H61	H	0.904288	-0.235627	-0.771431
O62	O	1.418839	-0.260608	-0.270975
H63	H	1.511056	-0.249469	-0.330522
O64	O	1.526157	0.420652	-0.469231
H65	H	1.597843	0.379245	-0.491254
O66	O	1.103858	0.400539	-0.339386
H67	H	1.119325	0.469019	-0.344127
H68	H	1.134685	0.232832	-0.348878
H69	H	1.256121	-0.131043	0.309892
H70	H	1.190187	-0.078532	0.260013
H71	H	1.089319	0.001797	0.183666
O72	O	1.534405	-0.352662	-0.183515
H73	H	1.491857	-0.403360	-0.224343
O74	O	1.118259	-0.021155	-0.055599
H75	H	1.069268	-0.066682	-0.094496
O76	O	1.002833	-0.214229	-0.615786
H77	H	1.014558	-0.265158	-0.575152
O78	O	1.037269	-0.202360	-0.531942
H79	H	1.081305	-0.262634	-0.550396
O80	O	1.566001	-0.377831	-0.015720
H81	H	1.573337	-0.383687	-0.110205
O82	O	1.516134	-0.338095	0.245579
H83	H	1.486083	-0.314144	0.347050
