data_functionalizedCrystal
_audit_creation_method	'MofGen! by Chris Wilmer'
_symmetry_space_group_name_H-M	'P1'
_symmetry_Int_Tables_number	1
_symmetry_cell_setting	triclinic
loop_
_symmetry_equiv_pos_as_xyz
  x,y,z
_cell_length_a	16.120530
_cell_length_b	16.120484
_cell_length_c	12.759387
_cell_angle_alpha	92.862335
_cell_angle_beta	87.081456
_cell_angle_gamma	90.167327
loop_
_atom_site_label
_atom_site_type_symbol
_atom_site_fract_x
_atom_site_fract_y
_atom_site_fract_z
Zn1	Zn	1.254491	-0.395542	-0.699366
Zn2	Zn	1.247330	-0.534617	-0.532098
Zn3	Zn	1.115426	-0.388526	-0.514372
Zn4	Zn	1.108343	-0.527495	-0.698404
O5	O	1.181397	-0.461545	-0.611060
O6	O	1.369906	-0.419907	-0.684998
O7	O	1.229800	-0.515282	-0.382726
O8	O	1.139834	-0.273094	-0.531895
O9	O	1.364645	-0.522085	-0.562107
O10	O	1.242004	-0.278249	-0.667810
O11	O	1.132890	-0.407950	-0.369703
O12	O	0.998120	-0.401044	-0.530963
O13	O	1.127762	-0.509947	-0.845552
O14	O	0.992917	-0.503144	-0.666171
O15	O	1.235136	-0.413001	-0.846259
O16	O	1.222932	-0.650035	-0.561175
O17	O	1.120819	-0.644802	-0.683360
C18	C	0.965346	-0.450560	-0.596540
C19	C	0.872917	-0.445881	-0.590355
C20	C	0.703690	-0.437318	-0.579069
C21	C	0.659942	-0.485833	-0.643131
C22	C	0.565778	-0.481069	-0.636852
C23	C	0.797863	-0.442082	-0.585347
C24	C	1.170352	-0.677591	-0.624111
C25	C	1.165703	-0.770020	-0.629734
C26	C	1.157220	-0.939250	-0.640023
C27	C	1.205723	-0.983006	-0.582124
C28	C	1.201003	-1.077172	-0.587849
C29	C	1.161939	-0.845076	-0.634300
C30	C	1.398292	-0.472573	-0.625637
C31	C	1.490719	-0.477273	-0.631849
C32	C	1.181458	-0.461462	-0.885092
C33	C	1.181484	-0.461427	-1.001868
C34	C	1.192508	-0.244656	-0.597983
C35	C	1.197243	-0.152231	-0.592410
C36	C	1.080579	-0.349654	-0.988326
C37	C	1.030143	-0.293753	-1.036416
C38	C	1.030170	-0.293724	-1.146137
C39	C	1.080636	-0.349605	-1.207772
C40	C	1.131072	-0.405506	-1.159683
C41	C	1.131042	-0.405527	-1.049958
C42	C	1.231971	-0.517281	-1.173225
C43	C	1.231950	-0.517307	-1.063503
C44	C	1.282437	-0.573162	-1.234860
C45	C	1.332879	-0.629061	-1.186770
C46	C	1.332851	-0.629087	-1.077042
C47	C	1.282386	-0.573209	-1.015414
C48	C	1.181387	-0.461570	-0.338093
C49	C	1.181535	-0.461379	-0.221314
H50	H	0.693207	-0.530944	-0.702693
C51	C	0.659187	-0.377255	-0.499686
C52	C	0.573284	-0.384439	-0.509142
C53	C	0.532251	-0.329132	-0.436022
H54	H	0.676130	-0.322061	-0.512648
H55	H	0.672673	-0.390072	-0.430702
H56	H	0.559805	-0.371616	-0.578111
H57	H	0.556317	-0.439620	-0.496171
H58	H	0.545736	-0.341949	-0.367038
H59	H	0.549200	-0.273942	-0.448990
H60	H	0.473961	-0.334004	-0.442421
C61	C	1.265730	-0.938511	-0.510308
C62	C	1.258517	-0.852603	-0.518802
C63	C	1.313769	-0.811583	-0.452649
H64	H	1.320944	-0.955369	-0.530256
H65	H	1.252877	-0.952092	-0.439715
H66	H	1.271376	-0.839027	-0.589380
H67	H	1.203317	-0.835721	-0.498845
H68	H	1.300915	-0.825165	-0.382056
H69	H	1.368978	-0.828448	-0.472603
H70	H	1.308877	-0.753291	-0.458396
C71	C	1.282501	-0.573338	-0.896302
C72	C	1.337483	-0.634241	-0.867373
C73	C	1.337614	-0.634376	-0.757657
H74	H	1.228141	-0.585020	-0.868621
H75	H	1.299669	-0.520433	-0.869181
H76	H	1.320310	-0.687134	-0.894483
H77	H	1.391851	-0.622573	-0.895027
H78	H	1.354783	-0.581471	-0.730536
H79	H	1.283251	-0.646056	-0.729985
H80	H	1.374924	-0.675692	-0.738014
C81	C	1.282561	-0.573283	-1.354002
C82	C	1.337538	-0.634194	-1.397682
C83	C	1.337672	-0.634334	-1.507434
H84	H	1.299734	-0.520399	-1.376685
H85	H	1.228182	-0.584960	-1.376140
H86	H	1.391905	-0.622511	-1.375554
H87	H	1.320377	-0.687087	-1.375029
H88	H	1.283294	-0.646011	-1.529571
H89	H	1.354844	-0.581447	-1.530106
H90	H	1.374967	-0.675666	-1.537084
H91	H	1.112153	-0.972508	-0.693887
C92	C	1.080394	-0.349759	-0.869194
C93	C	1.000133	-0.366963	-0.828846
C94	C	0.999933	-0.367076	-0.719107
H95	H	1.097472	-0.296863	-0.841978
H96	H	1.117619	-0.391078	-0.849338
H97	H	0.962921	-0.325647	-0.848692
H98	H	0.983040	-0.419859	-0.856032
H99	H	1.037157	-0.408395	-0.699251
H100	H	1.017013	-0.314178	-0.691901
H101	H	0.945478	-0.378756	-0.691717
C102	C	0.975209	-0.233182	-0.969547
C103	C	0.892010	-0.247106	-0.991781
C104	C	0.841378	-0.191335	-0.930196
H105	H	0.990141	-0.177891	-0.984927
H106	H	0.982359	-0.241208	-0.897300
H107	H	0.884863	-0.239073	-1.064012
H108	H	0.877053	-0.302386	-0.976396
H109	H	0.848529	-0.199361	-0.857949
H110	H	0.856317	-0.136048	-0.945580
H111	H	0.784922	-0.200780	-0.945266
H112	H	0.989099	-0.248205	-1.185291
C113	C	1.080574	-0.349423	-1.326884
C114	C	1.025614	-0.288498	-1.355807
C115	C	1.025544	-0.288301	-1.465524
H116	H	1.063420	-0.402295	-1.354091
H117	H	1.134967	-0.337728	-1.354483
H118	H	0.971233	-0.300198	-1.328219
H119	H	1.042755	-0.235617	-1.328627
H120	H	1.079937	-0.276606	-1.493123
H121	H	1.008392	-0.341176	-1.492720
H122	H	0.988260	-0.246959	-1.485162
C123	C	1.387802	-0.689685	-1.253558
C124	C	1.471000	-0.675787	-1.231296
C125	C	1.521619	-0.731625	-1.292795
H126	H	1.380701	-0.681724	-1.325818
H127	H	1.372812	-0.744956	-1.238100
H128	H	1.485985	-0.620530	-1.246762
H129	H	1.478127	-0.683755	-1.159048
H130	H	1.506629	-0.786896	-1.277336
H131	H	1.514511	-0.723659	-1.365051
H132	H	1.578074	-0.722208	-1.277691
H133	H	1.373925	-0.674607	-1.037894
