data_functionalizedCrystal
_audit_creation_method	'MofGen! by Chris Wilmer'
_symmetry_space_group_name_H-M	'P1'
_symmetry_Int_Tables_number	1
_symmetry_cell_setting	triclinic
loop_
_symmetry_equiv_pos_as_xyz
  x,y,z
_cell_length_a	19.805407
_cell_length_b	16.120484
_cell_length_c	19.805398
_cell_angle_alpha	92.872517
_cell_angle_beta	89.979507
_cell_angle_gamma	92.925090
loop_
_atom_site_label
_atom_site_type_symbol
_atom_site_fract_x
_atom_site_fract_y
_atom_site_fract_z
Zn1	Zn	1.021048	-0.331958	-0.396461
Zn2	Zn	1.015233	-0.471373	-0.289008
Zn3	Zn	0.907870	-0.331975	-0.283277
Zn4	Zn	0.902090	-0.471331	-0.402144
O5	O	0.961560	-0.401659	-0.342723
O6	O	1.114993	-0.350462	-0.382227
O7	O	1.000975	-0.452906	-0.193532
O8	O	0.927736	-0.215307	-0.293514
O9	O	1.110720	-0.452889	-0.303282
O10	O	1.010888	-0.215294	-0.376669
O11	O	0.922096	-0.350491	-0.189322
O12	O	0.812387	-0.350451	-0.299025
O13	O	0.917886	-0.452818	-0.496106
O14	O	0.808141	-0.452834	-0.386356
O15	O	1.005284	-0.350421	-0.491930
O16	O	0.995371	-0.588033	-0.308793
O17	O	0.912246	-0.588002	-0.391914
C18	C	0.785705	-0.401640	-0.342686
C19	C	0.710472	-0.401652	-0.342687
C20	C	0.246484	-0.455071	-0.388175
C21	C	0.317172	-0.455069	-0.388161
C22	C	0.354710	-0.401679	-0.342750
C23	C	0.321555	-0.348293	-0.297345
C24	C	0.250867	-0.348299	-0.297357
C25	C	0.606629	-0.348268	-0.297297
C26	C	0.677321	-0.348264	-0.297290
C27	C	0.672934	-0.455037	-0.388101
C28	C	0.602247	-0.455044	-0.388112
C29	C	0.569098	-0.401661	-0.342706
C30	C	0.492449	-0.401664	-0.342721
C31	C	0.431357	-0.401671	-0.342737
C32	C	0.952569	-0.618268	-0.351607
C33	C	0.948784	-0.710934	-0.355430
C34	C	0.941879	-0.880596	-0.362425
C35	C	0.981363	-0.921881	-0.323032
C36	C	0.977521	-1.016287	-0.326923
C37	C	0.945720	-0.786182	-0.358534
C38	C	1.138102	-0.401679	-0.342760
C39	C	1.213334	-0.401687	-0.342776
C40	C	0.961589	-0.401613	-0.519263
C41	C	0.961601	-0.401593	-0.594495
C42	C	0.970605	-0.184204	-0.333818
C43	C	0.974459	-0.091538	-0.330024
C44	C	1.007197	-0.348128	-1.054107
C45	C	1.007185	-0.348153	-0.983419
C46	C	0.961675	-0.401477	-0.950252
C47	C	0.916178	-0.454785	-0.987776
C48	C	0.916194	-0.454763	-1.058462
C49	C	0.916116	-0.454876	-0.702706
C50	C	0.916102	-0.454892	-0.632015
C51	C	1.007107	-0.348266	-0.627663
C52	C	1.007122	-0.348244	-0.698350
C53	C	0.961628	-0.401554	-0.735868
C54	C	0.961642	-0.401527	-0.812515
C55	C	0.961657	-0.401501	-0.873606
C56	C	0.961573	-0.401645	-0.166866
C57	C	0.961702	-0.401430	-0.091626
H58	H	0.344160	-0.498541	-0.425128
H59	H	0.879071	-0.498283	-0.733245
O60	O	0.358120	-0.296457	-0.253297
C61	C	0.468958	-0.249155	-0.213006
C62	C	0.427634	-0.307892	-0.262936
H63	H	0.525167	-0.258392	-0.220772
H64	H	0.457902	-0.181933	-0.222227
H65	H	0.454389	-0.263698	-0.159015
H66	H	0.442178	-0.293424	-0.316946
H67	H	0.438694	-0.375097	-0.253657
O68	O	0.218771	-0.296362	-0.253232
C69	C	0.230577	-0.190490	-0.163127
C70	C	0.267011	-0.249250	-0.213077
H71	H	0.269562	-0.152397	-0.130638
H72	H	0.199323	-0.146895	-0.192442
H73	H	0.195862	-0.228728	-0.129288
H74	H	0.301759	-0.211080	-0.246927
H75	H	0.298221	-0.292848	-0.183719
H76	H	0.905192	-0.916150	-0.399070
O77	O	1.051303	-0.296328	-0.730486
C78	C	1.090037	-0.154509	-0.746337
C79	C	1.039972	-0.213208	-0.709887
H80	H	1.080884	-0.087293	-0.729707
H81	H	1.144016	-0.169092	-0.733030
H82	H	1.082244	-0.163689	-0.803302
H83	H	1.047703	-0.204060	-0.652915
H84	H	0.986011	-0.198610	-0.723249
O85	O	0.871995	-0.506506	-0.955451
C86	C	0.831661	-0.553830	-0.848488
C87	C	0.881727	-0.495201	-0.885006
H88	H	0.839522	-0.544723	-0.791528
H89	H	0.777681	-0.539179	-0.861729
H90	H	0.840747	-0.621043	-0.865182
H91	H	0.872702	-0.427968	-0.868333
H92	H	0.935690	-0.509924	-0.871765
H93	H	1.018052	-0.886326	-0.286383
H94	H	1.044252	-0.304700	-1.081106
H95	H	1.044233	-0.304752	-0.952874
H96	H	1.044152	-0.304860	-0.597108
O97	O	0.565759	-0.506788	-0.432292
C98	C	0.485493	-0.518168	-0.524109
C99	C	0.526788	-0.459468	-0.474127
H100	H	0.453964	-0.479934	-0.557937
H101	H	0.521300	-0.556310	-0.556604
H102	H	0.450608	-0.561727	-0.494752
H103	H	0.561676	-0.415858	-0.503430
H104	H	0.490942	-0.421384	-0.441632
O105	O	0.705030	-0.506928	-0.432271
C106	C	0.693214	-0.612868	-0.522323
C107	C	0.656783	-0.554137	-0.472348
H108	H	0.654222	-0.651064	-0.554729
H109	H	0.727892	-0.574687	-0.556238
H110	H	0.724505	-0.656376	-0.492961
H111	H	0.625456	-0.510617	-0.501655
H112	H	0.622145	-0.592369	-0.438433
H113	H	0.879038	-0.498314	-0.605012
O114	O	0.872027	-0.506655	-1.094840
C115	C	0.833310	-0.648464	-1.122304
C116	C	0.883354	-0.589784	-1.081057
H117	H	0.842459	-0.715687	-1.111186
H118	H	0.779324	-0.633892	-1.107789
H119	H	0.841129	-0.639248	-1.178517
H120	H	0.875596	-0.598967	-1.024834
H121	H	0.937322	-0.604370	-1.095630
O122	O	0.210098	-0.506890	-0.432383
C123	C	0.186814	-0.547510	-0.549136
C124	C	0.228075	-0.488785	-0.499145
H125	H	0.201323	-0.532882	-0.603124
H126	H	0.197930	-0.614730	-0.539973
H127	H	0.130600	-0.538357	-0.541313
H128	H	0.284301	-0.497864	-0.506938
H129	H	0.216902	-0.421587	-0.508320
O130	O	0.713753	-0.296493	-0.253077
C131	C	0.736988	-0.255819	-0.136325
C132	C	0.695697	-0.314510	-0.186317
H133	H	0.722396	-0.270353	-0.082339
H134	H	0.793212	-0.264989	-0.144062
H135	H	0.725893	-0.188617	-0.145572
H136	H	0.706735	-0.381734	-0.177100
H137	H	0.639486	-0.305268	-0.178568
H138	H	0.579648	-0.304804	-0.260322
