data_functionalizedCrystal
_audit_creation_method	'MofGen! by Chris Wilmer'
_symmetry_space_group_name_H-M	'P1'
_symmetry_Int_Tables_number	1
_symmetry_cell_setting	triclinic
loop_
_symmetry_equiv_pos_as_xyz
  x,y,z
_cell_length_a	12.837943
_cell_length_b	17.699083
_cell_length_c	16.176319
_cell_angle_alpha	89.998504
_cell_angle_beta	89.993353
_cell_angle_gamma	89.055977
loop_
_atom_site_label
_atom_site_type_symbol
_atom_site_fract_x
_atom_site_fract_y
_atom_site_fract_z
O1	O	-1.374963	-0.196717	0.068735
O2	O	-1.073182	-0.186999	0.068740
O3	O	-1.232599	-0.082295	0.068730
O4	O	-1.215547	-0.301421	0.068745
O5	O	-1.232575	-0.082300	-0.068763
O6	O	-1.073158	-0.187004	-0.068753
O7	O	-1.374939	-0.196722	-0.068758
Cu8	Cu	-1.224047	-0.191863	-0.081310
Cu9	Cu	-1.224075	-0.191858	0.081292
O10	O	-1.215523	-0.301426	-0.068748
C11	C	-1.034558	-0.183719	-0.000006
C12	C	-0.919506	-0.173928	-0.000004
C13	C	-1.231976	-0.054056	-0.000016
C14	C	-1.230143	0.030097	-0.000017
C15	C	-1.413564	-0.200002	-0.000010
C16	C	-1.528616	-0.209793	-0.000006
C17	C	-0.678251	-0.291632	-0.000008
C18	C	-0.570148	-0.282436	-0.000007
C19	C	-0.595196	-0.146341	-0.000008
C20	C	-0.703298	-0.155537	-0.000009
C21	C	-0.744822	-0.228185	-0.000008
C22	C	-0.852926	-0.237380	-0.000003
C23	C	-0.877972	-0.101285	-0.000009
C24	C	-0.769869	-0.092090	-0.000008
C25	C	-1.216146	-0.329665	0.000001
C26	C	-1.217979	-0.413818	0.000006
N27	N	-1.224034	-0.191867	-0.195675
C28	C	-1.323717	0.071843	-0.000019
C29	C	-1.321989	0.150914	-0.000012
C30	C	-1.226685	0.188236	-0.000008
C31	C	-1.133103	0.146484	-0.000003
C32	C	-1.134833	0.067415	-0.000004
C33	C	-1.126126	0.465359	0.000004
C34	C	-1.124404	0.544434	0.000003
C35	C	-1.313282	0.548858	-0.000004
C36	C	-1.315011	0.469789	-0.000005
C37	C	-1.221430	0.428044	0.000004
C38	C	-1.223306	0.342307	-0.000002
C39	C	-1.224808	0.273972	-0.000007
C40	C	-1.294694	-0.145505	-0.761062
C41	C	-1.294690	-0.145510	-0.674515
C42	C	-1.224081	-0.191855	-0.631250
C43	C	-1.153479	-0.238204	-0.674537
C44	C	-1.153489	-0.238202	-0.761083
C45	C	-1.153437	-0.238211	-0.325509
C46	C	-1.153430	-0.238207	-0.238958
C47	C	-1.294637	-0.145519	-0.238941
C48	C	-1.294648	-0.145517	-0.325486
C49	C	-1.224050	-0.191869	-0.368766
C50	C	-1.224057	-0.191864	-0.462610
C51	C	-1.224068	-0.191856	-0.537408
N52	N	-1.224096	-0.191848	0.195657
H53	H	-0.886732	-0.296534	-0.000003
F54	F	-1.421583	0.195340	-0.000016
F55	F	-1.425154	0.032130	-0.000032
H56	H	-1.049927	0.431380	0.000011
F57	F	-1.416446	0.430073	-0.000009
F58	F	-1.369829	-0.096187	-0.628451
F59	F	-1.031673	0.186207	0.000011
F60	F	-1.369795	-0.096188	-0.371528
F61	F	-1.412880	0.593293	-0.000011
F62	F	-1.022963	0.584153	0.000008
H63	H	-1.058635	0.033426	-0.000002
F64	F	-1.078336	-0.287533	-0.628491
F65	F	-0.722446	-0.368948	0.000003
H66	H	-1.352125	-0.107779	-0.203693
H67	H	-0.561368	-0.087194	-0.000077
H68	H	-1.095952	-0.275951	-0.360741
F69	F	-1.078276	-0.287538	-0.192914
F70	F	-1.078351	-0.287530	-0.807145
H71	H	-0.515949	-0.334102	-0.000010
F72	F	-0.948829	-0.033756	0.000002
F73	F	-1.369843	-0.096173	-0.807099
F74	F	-0.725665	-0.014777	-0.000012
