data_functionalizedCrystal
_audit_creation_method	'MofGen! by Chris Wilmer'
_symmetry_space_group_name_H-M	'P1'
_symmetry_Int_Tables_number	1
_symmetry_cell_setting	triclinic
loop_
_symmetry_equiv_pos_as_xyz
  x,y,z
_cell_length_a	15.995350
_cell_length_b	15.995292
_cell_length_c	9.130307
_cell_angle_alpha	89.999900
_cell_angle_beta	90.002128
_cell_angle_gamma	83.480495
loop_
_atom_site_label
_atom_site_type_symbol
_atom_site_fract_x
_atom_site_fract_y
_atom_site_fract_z
O1	O	1.110960	0.107928	-0.121665
O2	O	0.867182	0.121256	-0.121694
O3	O	0.995760	-0.007299	-0.121681
O4	O	0.982381	0.236483	-0.121678
O5	O	0.995756	-0.007300	0.121918
O6	O	0.867177	0.121255	0.121905
O7	O	1.110955	0.107927	0.121934
Cu8	Cu	0.989066	0.114591	0.144162
Cu9	Cu	0.989071	0.114592	-0.143922
O10	O	0.982377	0.236482	0.121921
C11	C	0.835985	0.120704	0.000102
C12	C	0.743035	0.119053	0.000091
C13	C	0.405288	0.113120	0.000121
C14	C	0.452742	0.021566	0.000663
C15	C	0.549431	0.023218	0.000104
C16	C	0.572848	0.116063	0.000107
C17	C	0.531754	0.161221	-0.138994
C18	C	0.435119	0.158921	-0.139100
C19	C	0.434775	0.160812	0.137917
C20	C	0.531720	0.160790	0.139746
C21	C	0.667546	0.117731	0.000094
C22	C	0.310591	0.111455	0.000124
C23	C	0.995213	-0.038495	0.000115
C24	C	0.993581	-0.131448	0.000104
C25	C	0.987580	-0.469186	0.000117
C26	C	1.080384	-0.445874	0.000672
C27	C	1.082148	-0.349199	0.000118
C28	C	0.990557	-0.301631	0.000111
C29	C	0.944162	-0.330731	-0.138997
C30	C	0.943045	-0.427521	-0.139108
C31	C	0.941145	-0.427380	0.137909
C32	C	0.944584	-0.330887	0.139743
C33	C	0.992235	-0.206934	0.000103
C34	C	0.985899	-0.563882	0.000115
C35	C	1.142152	0.108479	0.000135
C36	C	1.235102	0.110130	0.000137
C37	C	0.982924	0.267678	0.000122
C38	C	0.984556	0.360631	0.000124
N39	N	0.989069	0.114589	0.346785
N40	N	0.989075	0.114587	-0.346545
C41	C	1.102971	0.000787	0.346787
C42	C	1.159927	-0.056112	0.423454
C43	C	1.159936	-0.056113	0.576788
C44	C	1.102980	0.000790	0.653457
C45	C	1.046023	0.057689	0.576790
C46	C	1.046023	0.057685	0.423453
C47	C	0.932118	0.171486	0.576788
C48	C	0.932113	0.171492	0.423455
C49	C	0.875162	0.228389	0.653457
C50	C	0.818208	0.285293	0.576790
C51	C	0.818203	0.285292	0.423447
C52	C	0.875156	0.228391	0.346787
H53	H	0.416819	0.125991	-0.243083
H54	H	1.116153	-0.473872	0.100432
H55	H	1.118701	-0.330793	-0.099766
N56	N	0.394653	0.243246	-0.147015
N57	N	0.437808	0.303606	-0.152454
H58	H	0.409233	0.363161	-0.158049
N59	N	0.875173	0.228373	0.810083
N60	N	0.926030	0.177568	0.878522
H61	H	0.926039	0.177558	0.989141
H62	H	0.545865	0.229432	-0.144164
H63	H	0.433157	-0.014862	-0.098542
N64	N	0.394913	0.245491	0.139144
N65	N	0.409995	0.294271	0.240283
H66	H	0.381839	0.354074	0.241144
H67	H	0.975180	-0.454337	-0.243089
H68	H	1.206312	-0.102448	0.639210
H69	H	0.976384	-0.310670	-0.242515
N70	N	0.567387	0.121892	-0.268855
N71	N	0.623034	0.060614	-0.259321
H72	H	0.648209	0.032840	-0.351033
N73	N	0.859612	-0.290752	-0.145479
N74	N	0.832542	-0.240245	-0.047413
H75	H	0.772828	-0.212008	-0.051986
N76	N	1.125018	-0.482282	-0.123751
N77	N	1.133767	-0.560321	-0.140852
H78	H	1.165288	-0.586037	-0.228728
N79	N	0.855457	-0.444952	0.139109
N80	N	0.828233	-0.483973	0.244248
H81	H	0.767719	-0.496391	0.245087
N82	N	0.584385	-0.021613	-0.125209
N83	N	0.537358	-0.054214	-0.212533
H84	H	0.562043	-0.085877	-0.301043
N85	N	0.429561	-0.024312	0.125879
N86	N	0.377790	0.009927	0.216177
H87	H	0.361434	-0.022465	0.304640
H88	H	1.102977	0.000788	0.221934
H89	H	0.771819	0.331623	0.361033
N90	N	0.565984	0.119418	0.268832
N91	N	0.620494	0.057223	0.258144
H92	H	0.644698	0.028002	0.349309
H93	H	1.102983	0.000779	0.778309
N94	N	0.760023	0.343397	0.655106
N95	N	0.708064	0.316785	0.740658
H96	H	0.666968	0.357822	0.795975
H97	H	1.206299	-0.102444	0.361016
H98	H	0.414244	0.130880	0.243353
N99	N	1.127722	-0.325313	0.125207
N100	N	1.092242	-0.275590	0.217512
H101	H	1.124432	-0.258724	0.305860
H102	H	0.547071	0.228495	0.148150
H103	H	0.875000	-0.442072	-0.145416
N104	N	0.977614	-0.462839	0.270171
N105	N	1.038278	-0.519361	0.264478
H106	H	1.064043	-0.544407	0.357880
H107	H	0.978367	-0.312322	0.242654
N108	N	0.860732	-0.289491	0.150253
N109	N	0.808900	-0.297857	0.050349
H110	H	0.749682	-0.268605	0.057760
N111	N	0.875141	0.228414	0.190162
N112	N	0.888958	0.293122	0.121731
H113	H	0.888947	0.293140	0.011111
H114	H	0.577866	-0.012279	0.099817
