data_functionalizedCrystal
_audit_creation_method	'MofGen! by Chris Wilmer'
_symmetry_space_group_name_H-M	'P1'
_symmetry_Int_Tables_number	1
_symmetry_cell_setting	triclinic
loop_
_symmetry_equiv_pos_as_xyz
  x,y,z
_cell_length_a	23.532407
_cell_length_b	23.532407
_cell_length_c	22.010155
_cell_angle_alpha	89.984989
_cell_angle_beta	89.989642
_cell_angle_gamma	82.848717
loop_
_atom_site_label
_atom_site_type_symbol
_atom_site_fract_x
_atom_site_fract_y
_atom_site_fract_z
O1	O	-0.755269	-0.069133	0.050463
O2	O	-0.589406	-0.079137	0.050483
O3	O	-0.677339	0.008797	0.050452
O4	O	-0.667336	-0.157067	0.050493
O5	O	-0.677312	0.008797	-0.050598
O6	O	-0.589379	-0.079137	-0.050568
O7	O	-0.755243	-0.069133	-0.050587
Cu8	Cu	-0.672309	-0.074135	-0.059804
Cu9	Cu	-0.672340	-0.074135	0.059700
O10	O	-0.667309	-0.157067	-0.050557
C11	C	-0.568176	-0.078882	-0.000040
C12	C	-0.504959	-0.078116	-0.000034
C13	C	-0.677071	0.030013	-0.000077
C14	C	-0.676305	0.093230	-0.000088
C15	C	-0.776472	-0.069388	-0.000063
C16	C	-0.839689	-0.070154	-0.000066
C17	C	-0.105856	-0.125350	-0.000049
C18	C	-0.046456	-0.124638	-0.000053
O19	O	-0.009711	-0.168424	-0.000064
N20	N	-0.023830	-0.072362	-0.000065
C21	C	-0.060607	-0.020794	-0.000080
O22	O	-0.035908	0.023737	-0.000091
C23	C	-0.120006	-0.021506	-0.000080
C24	C	-0.142629	-0.073785	-0.000062
C25	C	-0.128480	-0.177625	-0.000032
C26	C	-0.187876	-0.178336	-0.000027
C27	C	-0.224649	-0.126772	-0.000039
C28	C	-0.202025	-0.074496	-0.000057
C29	C	-0.156783	0.030062	-0.000099
C30	C	-0.216185	0.029345	-0.000100
C31	C	-0.238808	-0.022934	-0.000081
C32	C	-0.298194	-0.023643	-0.000064
N33	N	-0.320821	-0.075920	-0.000052
C34	C	-0.284048	-0.127484	-0.000040
C35	C	0.064135	-0.019302	-0.000080
C36	C	0.123533	-0.018589	-0.000075
C37	C	0.137680	-0.122434	-0.000050
C38	C	0.078281	-0.123146	-0.000050
C39	C	0.041509	-0.071578	-0.000068
C40	C	-0.408784	-0.128974	-0.000029
C41	C	-0.468186	-0.129680	-0.000021
C42	C	-0.482329	-0.025836	-0.000050
C43	C	-0.422932	-0.025129	-0.000054
C44	C	-0.386160	-0.076702	-0.000046
O45	O	-0.334974	0.020119	-0.000056
O46	O	-0.308756	-0.172007	-0.000037
C47	C	-0.621110	0.359397	-0.000054
C48	C	-0.621821	0.299997	-0.000056
O49	O	-0.578035	0.263252	-0.000031
N50	N	-0.674097	0.277371	-0.000069
C51	C	-0.725666	0.314148	-0.000072
O52	O	-0.770196	0.289449	-0.000082
C53	C	-0.724953	0.373547	-0.000065
C54	C	-0.672674	0.396170	-0.000059
C55	C	-0.568834	0.382020	-0.000047
C56	C	-0.568123	0.441417	-0.000046
C57	C	-0.619687	0.478189	-0.000051
C58	C	-0.671963	0.455566	-0.000058
C59	C	-0.776521	0.410324	-0.000064
C60	C	-0.775805	0.469726	-0.000057
C61	C	-0.723525	0.492349	-0.000051
C62	C	-0.722816	0.551735	-0.000062
N63	N	-0.670539	0.574361	-0.000049
C64	C	-0.618975	0.537589	-0.000044
C65	C	-0.727157	0.189406	-0.000086
C66	C	-0.727870	0.130008	-0.000097
C67	C	-0.624025	0.115860	-0.000080
C68	C	-0.623313	0.175260	-0.000073
C69	C	-0.674881	0.212032	-0.000073
C70	C	-0.617485	0.662325	-0.000042
C71	C	-0.616779	0.721727	-0.000043
C72	C	-0.720623	0.735869	-0.000056
C73	C	-0.721330	0.676473	-0.000058
C74	C	-0.669757	0.639701	-0.000049
O75	O	-0.766579	0.588514	-0.000085
O76	O	-0.574452	0.562296	-0.000026
C77	C	-0.667577	0.821717	-0.000036
C78	C	-0.668343	0.758500	-0.000048
N79	N	-0.672291	-0.074135	-0.143857
C80	C	-0.706685	-0.108496	-0.563631
C81	C	-0.706692	-0.108494	-0.627239
O82	O	-0.735915	-0.137705	-0.660127
N83	N	-0.672351	-0.074128	-0.659064
C84	C	-0.638005	-0.039758	-0.627278
O85	O	-0.608796	-0.010527	-0.660188
C86	C	-0.638002	-0.039757	-0.563671
C87	C	-0.672341	-0.074129	-0.531850
C88	C	-0.741022	-0.142864	-0.531810
C89	C	-0.741014	-0.142867	-0.468207
C90	C	-0.706670	-0.108500	-0.436425
C91	C	-0.672333	-0.074131	-0.468247
C92	C	-0.603660	-0.005383	-0.531886
C93	C	-0.603660	-0.005384	-0.468276
C94	C	-0.637999	-0.039757	-0.436454
C95	C	-0.637981	-0.039766	-0.372862
N96	N	-0.672322	-0.074132	-0.341037
C97	C	-0.706667	-0.108498	-0.372819
C98	C	-0.638015	-0.039762	-0.760855
C99	C	-0.638015	-0.039766	-0.824461
C100	C	-0.706703	-0.108502	-0.824418
C101	C	-0.706700	-0.108501	-0.760811
C102	C	-0.672356	-0.074128	-0.729031
C103	C	-0.706648	-0.108501	-0.239247
C104	C	-0.706635	-0.108501	-0.175638
C105	C	-0.637950	-0.039764	-0.175687
C106	C	-0.637960	-0.039765	-0.239290
C107	C	-0.672313	-0.074135	-0.271069
O108	O	-0.608775	-0.010568	-0.339934
O109	O	-0.735876	-0.137719	-0.339901
N110	N	-0.672362	-0.074131	0.143752
H111	H	-0.486602	-0.172255	-0.000006
H112	H	0.167632	-0.164421	-0.000042
H113	H	-0.138374	0.072634	-0.000114
N114	N	0.055185	-0.176553	-0.000044
N115	N	0.066572	-0.211237	-0.042631
H116	H	0.050264	-0.248958	-0.042629
H117	H	-0.768979	-0.170853	-0.442303
H118	H	-0.762605	0.765820	-0.000064
N119	N	-0.568591	0.029729	-0.564390
N120	N	-0.568593	0.029734	-0.621181
H121	H	-0.543824	0.054534	-0.644137
N122	N	-0.399828	0.028276	-0.000074
N123	N	-0.411201	0.062960	-0.042679
H124	H	-0.394887	0.100679	-0.042699
N125	N	-0.514715	0.464511	-0.000035
N126	N	-0.468684	0.431662	-0.000027
H127	H	-0.430961	0.447968	-0.000017
H128	H	-0.610046	-0.011784	-0.850364
N129	N	-0.776113	-0.177973	-0.564258
N130	N	-0.806767	-0.208652	-0.535826
H131	H	-0.831550	-0.233453	-0.558738
H132	H	-0.512280	0.016146	-0.000057
H133	H	-0.763901	0.658053	-0.000072
N134	N	-0.371237	-0.181659	-0.000023
N135	N	-0.391454	-0.228326	-0.000008
H136	H	-0.364938	-0.265536	-0.000002
N137	N	-0.571346	0.078299	-0.000062
N138	N	-0.524671	0.098500	-0.000049
H139	H	-0.487468	0.071973	-0.000036
N140	N	-0.829920	0.387217	-0.000074
N141	N	-0.841902	0.355665	-0.042671
H142	H	-0.879619	0.339347	-0.042677
N143	N	0.146628	0.034818	-0.000080
N144	N	0.113782	0.080851	-0.000088
H145	H	0.130090	0.118572	-0.000093
H146	H	-0.098544	-0.219617	-0.000024
H147	H	-0.610043	-0.011774	-0.734984
N148	N	-0.253738	0.082028	-0.000124
N149	N	-0.233527	0.128698	-0.000143
H150	H	-0.260047	0.165905	-0.000160
N151	N	-0.210977	-0.231740	-0.000031
N152	N	-0.242530	-0.243724	-0.042628
H153	H	-0.258842	-0.281444	-0.042635
H154	H	-0.574205	0.740143	-0.000040
N155	N	-0.564800	0.624778	-0.000027
N156	N	-0.518133	0.644995	-0.000019
H157	H	-0.480923	0.618479	-0.000010
H158	H	-0.526842	0.352085	-0.000041
H159	H	-0.580742	0.193674	-0.000071
H160	H	-0.770441	0.111594	-0.000111
N161	N	-0.741774	-0.143607	-0.728302
N162	N	-0.719325	-0.181376	-0.692802
H163	H	-0.744099	-0.206171	-0.669845
N164	N	0.026583	0.033382	-0.000095
N165	N	0.046798	0.080050	-0.000107
H166	H	0.020280	0.117259	-0.000119
N167	N	-0.602871	-0.004646	-0.143234
N168	N	-0.549760	-0.011712	-0.150347
H169	H	-0.524991	0.013098	-0.127429
H170	H	-0.769152	0.219343	-0.000090
H171	H	-0.817798	0.499664	-0.000054
H172	H	-0.734667	-0.136486	-0.850306
N173	N	-0.741715	-0.143619	-0.143144
N174	N	-0.772378	-0.174299	-0.171533
H175	H	-0.797153	-0.199099	-0.148586
H176	H	-0.734622	-0.136488	-0.265114
N177	N	-0.568593	0.029740	-0.435809
N178	N	-0.575729	0.082850	-0.442927
H179	H	-0.550966	0.107658	-0.419996
N180	N	-0.602871	-0.004662	-0.271789
N181	N	-0.572205	0.026015	-0.243402
H182	H	-0.547424	0.050810	-0.266350
