data_functionalizedCrystal
_audit_creation_method	'MofGen! by Chris Wilmer'
_symmetry_space_group_name_H-M	'P1'
_symmetry_Int_Tables_number	1
_symmetry_cell_setting	triclinic
loop_
_symmetry_equiv_pos_as_xyz
  x,y,z
_cell_length_a	12.827893
_cell_length_b	12.827892
_cell_length_c	12.827885
_cell_angle_alpha	90.029786
_cell_angle_beta	90.021379
_cell_angle_gamma	90.013411
loop_
_atom_site_label
_atom_site_type_symbol
_atom_site_fract_x
_atom_site_fract_y
_atom_site_fract_z
Zn1	Zn	-1.597672	0.416038	-0.590902
Zn2	Zn	-1.597565	0.590815	-0.416162
Zn3	Zn	-1.422912	0.416083	-0.416170
Zn4	Zn	-1.422898	0.590731	-0.590857
O5	O	-1.510262	0.503417	-0.503523
O6	O	-1.743893	0.439238	-0.567738
O7	O	-1.574358	0.567690	-0.269927
O8	O	-1.446145	0.269841	-0.439371
O9	O	-1.743815	0.567647	-0.439358
O10	O	-1.574540	0.269808	-0.567746
O11	O	-1.446042	0.439315	-0.269933
O12	O	-1.276674	0.439234	-0.439327
O13	O	-1.446121	0.567504	-0.737099
O14	O	-1.276664	0.567548	-0.567668
O15	O	-1.574526	0.439157	-0.737132
O16	O	-1.574345	0.737040	-0.439314
O17	O	-1.446018	0.736978	-0.567661
C18	C	-1.238752	0.503387	-0.503494
C19	C	-1.122599	0.503400	-0.503506
C20	C	-1.510196	0.774927	-0.503504
C21	C	-1.510264	0.891080	-0.503531
C22	C	-1.510334	0.503316	-0.776093
C23	C	-1.510365	0.503274	-0.892246
C24	C	-1.070837	0.566991	-0.566914
C25	C	-0.950786	0.567005	-0.566928
C26	C	-0.782832	0.503438	-0.503544
C27	C	-0.898985	0.503426	-0.503532
C28	C	-1.510356	0.230846	-0.503564
C29	C	-1.510396	0.114693	-0.503582
C30	C	-1.573840	0.942860	-0.440092
C31	C	-1.573911	1.062910	-0.440118
C32	C	-1.446890	0.439737	-0.944034
C33	C	-1.446920	0.439691	-1.064084
C34	C	-1.510250	0.503441	-0.232013
C35	C	-1.510422	0.503190	-0.115860
H36	H	-1.115398	0.621419	-0.621193
H37	H	-1.078038	0.448964	-0.449235
N38	N	-1.645881	0.883868	-0.368125
H39	H	-1.635621	0.806470	-0.378310
H40	H	-1.629688	0.902958	-0.293462
N41	N	-1.374875	0.367717	-0.885053
H42	H	-1.300191	0.383913	-0.903982
H43	H	-1.385149	0.377988	-0.807673
N44	N	-0.891834	0.639133	-0.638834
H45	H	-0.814431	0.628922	-0.628649
H46	H	-0.910894	0.622973	-0.713511
H47	H	-1.564729	0.557637	-0.936786
H48	H	-1.628338	1.107441	-0.385802
H49	H	-1.455959	1.070171	-0.557894
H50	H	-1.455892	0.935625	-0.557868
H51	H	-1.392581	0.385291	-1.108620
H52	H	-0.943493	0.448984	-0.449239
H53	H	-1.564772	0.557584	-1.071331
