data_functionalizedCrystal
_audit_creation_method	'MofGen! by Chris Wilmer'
_symmetry_space_group_name_H-M	'P1'
_symmetry_Int_Tables_number	1
_symmetry_cell_setting	triclinic
loop_
_symmetry_equiv_pos_as_xyz
  x,y,z
_cell_length_a	10.489741
_cell_length_b	10.654541
_cell_length_c	9.130307
_cell_angle_alpha	89.999822
_cell_angle_beta	89.999761
_cell_angle_gamma	95.488449
loop_
_atom_site_label
_atom_site_type_symbol
_atom_site_fract_x
_atom_site_fract_y
_atom_site_fract_z
O1	O	-0.179145	1.667923	-0.121742
O2	O	-0.196218	1.302452	-0.121753
O3	O	-0.002080	1.493503	-0.121751
O4	O	-0.373284	1.476871	-0.121745
O5	O	-0.002078	1.493497	0.121848
O6	O	-0.196216	1.302445	0.121845
O7	O	-0.179143	1.667916	0.121857
Cu8	Cu	-0.187680	1.485180	0.144094
Cu9	Cu	-0.187682	1.485188	-0.143990
O10	O	-0.373282	1.476865	0.121854
C11	C	-0.194964	1.255650	0.000044
C12	C	-0.191216	1.116205	0.000039
C13	C	-0.423360	1.088342	0.000025
C14	C	-0.537667	1.008902	0.000012
C15	C	-0.534137	0.877882	0.000010
C16	C	-0.416288	0.826301	0.000027
C17	C	-0.301982	0.905742	0.000040
C18	C	-0.305524	1.036763	0.000037
C19	C	-0.069840	0.933604	0.000064
C20	C	-0.073367	1.064624	0.000055
C21	C	0.048009	0.882024	0.000081
C22	C	0.162318	0.961465	0.000083
C23	C	0.158783	1.092492	0.000083
C24	C	0.040939	1.144065	0.000069
C25	C	-0.420814	1.478124	0.000056
C26	C	-0.562441	1.481882	0.000058
C27	C	-0.630522	1.603443	0.000051
C28	C	-0.722670	1.546016	0.120155
C29	C	-0.722650	1.545993	-0.120015
C30	C	-0.652724	1.424405	0.120261
C31	C	-0.652694	1.424399	-0.120016
C32	C	-0.744815	1.366884	0.000117
C33	C	0.045452	1.492244	0.000045
C34	C	0.187080	1.488486	0.000033
C35	C	-0.180397	1.714718	0.000056
C36	C	-0.184146	1.854163	0.000051
N37	N	-0.187677	1.485184	0.346717
N38	N	-0.187674	1.485194	-0.346613
C39	C	-0.015818	1.654430	0.346709
C40	C	0.070107	1.739061	0.423372
C41	C	0.070108	1.739074	0.576705
C42	C	-0.015823	1.654444	0.653379
C43	C	-0.101749	1.569812	0.576716
C44	C	-0.101743	1.569811	0.423380
C45	C	-0.273600	1.400562	0.576724
C46	C	-0.273609	1.400554	0.423391
C47	C	-0.359532	1.315932	0.653398
C48	C	-0.445465	1.231305	0.576735
C49	C	-0.445464	1.231296	0.423393
C50	C	-0.359535	1.315922	0.346728
H51	H	0.251866	1.157166	0.000099
Cl52	Cl	-0.359529	1.315925	0.153964
H53	H	-0.753653	1.597448	0.221698
Cl54	Cl	0.036486	1.308775	0.000060
H55	H	-0.794288	1.266847	0.000180
H56	H	-0.015821	1.654439	0.221857
H57	H	-0.580824	1.703390	0.000173
Cl58	Cl	0.178136	1.845445	0.326980
Cl59	Cl	-0.605165	1.345059	0.277210
H60	H	-0.413424	0.719617	0.000043
H61	H	0.050875	0.775340	0.000087
Cl62	Cl	-0.015806	1.654444	0.846143
Cl63	Cl	-0.427807	1.253053	-0.000001
Cl64	Cl	-0.604800	1.345058	-0.276800
Cl65	Cl	0.310454	0.896614	0.000115
H66	H	-0.633617	1.050913	0.000003
Cl67	Cl	-0.770451	1.625440	-0.276777
Cl68	Cl	-0.677836	0.778010	0.000008
Cl69	Cl	0.178137	1.845462	0.673084
Cl70	Cl	-0.359527	1.315939	0.846162
Cl71	Cl	-0.553475	1.124916	0.673129
H72	H	-0.515430	1.162375	0.360982
