data_functionalizedCrystal
_audit_creation_method	'MofGen! by Chris Wilmer'
_symmetry_space_group_name_H-M	'P1'
_symmetry_Int_Tables_number	1
_symmetry_cell_setting	triclinic
loop_
_symmetry_equiv_pos_as_xyz
  x,y,z
_cell_length_a	19.077105
_cell_length_b	13.897448
_cell_length_c	19.076919
_cell_angle_alpha	87.727045
_cell_angle_beta	89.923776
_cell_angle_gamma	87.714101
loop_
_atom_site_label
_atom_site_type_symbol
_atom_site_fract_x
_atom_site_fract_y
_atom_site_fract_z
Zn1	Zn	1.058310	-0.466652	0.440425
Zn2	Zn	1.558310	0.033348	0.940425
Zn3	Zn	1.062963	-0.621745	0.322920
Zn4	Zn	1.562963	-0.121745	0.822920
Zn5	Zn	0.945527	-0.453730	0.318218
Zn6	Zn	1.445527	0.046270	0.818218
Zn7	Zn	0.940785	-0.621164	0.435673
Zn8	Zn	1.440785	-0.121164	0.935673
O9	O	1.001896	-0.540823	0.379309
O10	O	1.501896	-0.040823	0.879309
O11	O	1.157260	-0.492877	0.428794
O12	O	1.657260	0.007123	0.928794
O13	O	1.051317	-0.594293	0.223965
O14	O	1.551317	-0.094293	0.723965
O15	O	0.960525	-0.320466	0.334450
O16	O	1.460525	0.179534	0.834450
O17	O	1.160678	-0.606823	0.342464
O18	O	1.660678	-0.106823	0.842464
O19	O	1.043386	-0.329960	0.424235
O20	O	1.543386	0.170040	0.924235
O21	O	0.965037	-0.470854	0.220510
O22	O	1.465037	0.029146	0.720510
O23	O	0.846566	-0.470290	0.329842
O24	O	1.346566	0.029710	0.829842
O25	O	0.952443	-0.605832	0.534635
O26	O	1.452443	-0.105832	1.034635
O27	O	0.843082	-0.593302	0.416136
O28	O	1.343082	-0.093302	0.916136
O29	O	1.038788	-0.492313	0.538126
O30	O	1.538788	0.007687	1.038126
O31	O	1.046719	-0.756647	0.337856
O32	O	1.546719	-0.256647	0.837856
O33	O	0.956955	-0.756219	0.420695
O34	O	1.456955	-0.256219	0.920695
C35	C	0.819327	-0.530331	0.371963
C36	C	1.319327	-0.030331	0.871963
C37	C	0.741223	-0.525867	0.368837
C38	C	1.241223	-0.025867	0.868837
C39	C	0.702736	-0.587905	0.412227
C40	C	1.202736	-0.087905	0.912227
C41	C	0.629349	-0.583698	0.409293
C42	C	1.129349	-0.083698	0.909293
C43	C	0.594449	-0.517456	0.362966
C44	C	1.094449	-0.017456	0.862966
C45	C	0.632940	-0.455412	0.319575
C46	C	1.132940	0.044588	0.819575
C47	C	0.706327	-0.459615	0.322513
C48	C	1.206327	0.040385	0.822513
C49	C	0.375160	-0.498004	0.349373
C50	C	0.875160	0.001996	0.849373
C51	C	0.301769	-0.493807	0.346437
C52	C	0.801769	0.006193	0.846437
C53	C	0.298182	-0.622092	0.436157
C54	C	0.798182	-0.122092	0.936157
C55	C	0.371570	-0.626293	0.439087
C56	C	0.871570	-0.126293	0.939087
C57	C	0.410055	-0.564245	0.395699
C58	C	0.910055	-0.064245	0.895699
N59	N	0.519435	-0.513157	0.359965
N60	N	1.019435	-0.013157	0.859965
N61	N	0.485067	-0.568541	0.398704
N62	N	0.985067	-0.068541	0.898704
C63	C	1.001846	-0.791433	0.379287
C64	C	1.501846	-0.291433	0.879287
C65	C	1.001888	-0.898650	0.379303
C66	C	1.501888	-0.398650	0.879303
C67	C	1.001960	-1.094952	0.379350
C68	C	1.501960	-0.594952	0.879350
C69	C	1.001918	-0.985716	0.379326
C70	C	1.501918	-0.485716	0.879326
C71	C	1.185178	-0.551356	0.386684
C72	C	1.685178	-0.051356	0.886684
C73	C	1.263282	-0.555845	0.389826
C74	C	1.763282	-0.055845	0.889826
C75	C	0.994568	-0.550449	0.562589
C76	C	1.494568	-0.050449	1.062589
C77	C	0.991445	-0.554551	0.640692
C78	C	1.491445	-0.054551	1.140692
C79	C	1.001966	-0.289236	0.379348
C80	C	1.501966	0.210764	0.879348
C81	C	1.001995	-0.182024	0.379364
C82	C	1.501995	0.317976	0.879364
C83	C	1.009237	-0.531167	0.196743
C84	C	1.509237	-0.031167	0.696743
C85	C	1.012496	-0.526801	0.118646
C86	C	1.512496	-0.026801	0.618646
C87	C	1.034931	-0.497377	0.679204
C88	C	1.534931	0.002623	1.179204
C89	C	1.031988	-0.501227	0.752590
C90	C	1.531988	-0.001227	1.252590
C91	C	0.985562	-0.562257	0.787463
C92	C	1.485562	-0.062257	1.287463
C93	C	0.942071	-0.619432	0.748946
C94	C	1.442071	-0.119432	1.248946
C95	C	0.945011	-0.615576	0.675561
C96	C	1.445011	-0.115576	1.175561
C97	C	0.971945	-0.580121	1.006744
C98	C	1.471945	-0.080121	1.506744
C99	C	0.969010	-0.583975	1.080134
C100	C	1.469010	-0.083975	1.580134
C101	C	1.058926	-0.465768	1.083773
C102	C	1.558926	0.034232	1.583773
C103	C	1.061865	-0.461922	1.010387
C104	C	1.561865	0.038078	1.510387
C105	C	1.018372	-0.519094	0.971877
C106	C	1.518372	-0.019094	1.471877
N107	N	0.982554	-0.566196	0.862475
N108	N	1.482554	-0.066196	1.362475
N109	N	1.021376	-0.515149	0.896866
N110	N	1.521376	-0.015149	1.396866
H111	H	0.604519	-0.401473	0.281858
H112	H	1.104519	0.098527	0.781858
Br113	Br	0.577120	-0.667894	0.468183
Br114	Br	1.077120	-0.167894	0.968183
Br115	Br	0.254405	-0.403912	0.283553
Br116	Br	0.754405	0.096088	0.783553
Br117	Br	0.758559	-0.375412	0.263629
Br118	Br	1.258559	0.124588	0.763629
Br119	Br	0.750094	-0.677815	0.475097
Br120	Br	1.250094	-0.177815	0.975097
H121	H	0.266840	-0.672607	0.471482
H122	H	0.766840	-0.172607	0.971482
H123	H	0.904268	-0.669120	0.777345
H124	H	1.404268	-0.169120	1.277345
H125	H	0.406486	-0.447487	0.314038
H126	H	0.906486	0.052513	0.814038
Br127	Br	0.912917	-0.657710	0.954489
Br128	Br	1.412917	-0.157710	1.454489
Br129	Br	1.124876	-0.379097	0.963065
Br130	Br	1.624876	0.120903	1.463065
H131	H	0.399980	-0.680236	0.476810
H132	H	0.899980	-0.180236	0.976810
Br133	Br	1.117948	-0.388180	1.136041
Br134	Br	1.617948	0.111820	1.636041
Br135	Br	1.097946	-0.414555	0.631884
Br136	Br	1.597946	0.085445	1.131884
Br137	Br	1.091040	-0.423678	0.804855
Br138	Br	1.591040	0.076322	1.304855
H139	H	0.909593	-0.662123	0.644205
H140	H	1.409593	-0.162123	1.144205
Br141	Br	0.905997	-0.666802	1.127462
Br142	Br	1.405997	-0.166802	1.627462
