data_functionalizedCrystal
_audit_creation_method	'MofGen! by Chris Wilmer'
_symmetry_space_group_name_H-M	'P1'
_symmetry_Int_Tables_number	1
_symmetry_cell_setting	triclinic
loop_
_symmetry_equiv_pos_as_xyz
  x,y,z
_cell_length_a	10.723024
_cell_length_b	10.723024
_cell_length_c	15.455313
_cell_angle_alpha	92.703187
_cell_angle_beta	92.698308
_cell_angle_gamma	95.532131
loop_
_atom_site_label
_atom_site_type_symbol
_atom_site_fract_x
_atom_site_fract_y
_atom_site_fract_z
O1	O	0.180439	-1.651755	0.072136
O2	O	0.513773	-1.318421	0.405469
O3	O	0.847106	-0.985088	0.738802
O4	O	0.197193	-1.288602	0.072136
O5	O	0.530526	-0.955269	0.405469
O6	O	0.863859	-0.621936	0.738802
O7	O	0.007239	-1.478555	0.072132
O8	O	0.340573	-1.145222	0.405466
O9	O	0.673906	-0.811889	0.738799
O10	O	0.370392	-1.461802	0.072139
O11	O	0.703726	-1.128468	0.405472
O12	O	1.037059	-0.795135	0.738806
O13	O	-0.003590	-1.489406	-0.072130
O14	O	0.329743	-1.156073	0.261204
O15	O	0.663077	-0.822739	0.594537
O16	O	0.186363	-1.299453	-0.072127
O17	O	0.519696	-0.966119	0.261207
O18	O	0.853030	-0.632786	0.594540
O19	O	0.169610	-1.662605	-0.072127
O20	O	0.502943	-1.329272	0.261207
O21	O	0.836277	-0.995938	0.594540
Cu22	Cu	0.176998	-1.482020	-0.085299
Cu23	Cu	0.510331	-1.148686	0.248034
Cu24	Cu	0.843664	-0.815353	0.581368
Cu25	Cu	0.189805	-1.469188	0.085308
Cu26	Cu	0.523138	-1.135854	0.418641
Cu27	Cu	0.856471	-0.802521	0.751975
O28	O	0.359563	-1.472652	-0.072123
O29	O	0.692896	-1.139319	0.261210
O30	O	1.026230	-0.805985	0.594543
C31	C	0.190559	-1.247528	0.000005
C32	C	0.523892	-0.914195	0.333338
C33	C	0.857225	-0.580861	0.666671
C34	C	0.186911	-1.108974	0.000005
C35	C	0.520244	-0.775640	0.333338
C36	C	0.853578	-0.442307	0.666671
C37	C	0.073604	-0.917217	0.000003
C38	C	0.406937	-0.583883	0.333336
C39	C	0.740270	-0.250550	0.666669
C40	C	0.077371	-1.060420	0.000003
C41	C	0.410705	-0.727087	0.333336
C42	C	0.744038	-0.393753	0.666669
C43	C	-0.044675	-1.482761	0.000002
C44	C	0.288659	-1.149428	0.333336
C45	C	0.621992	-0.816095	0.666669
C46	C	-0.183229	-1.479113	0.000005
C47	C	0.150105	-1.145780	0.333339
C48	C	0.483438	-0.812447	0.666672
C49	C	-0.374986	-1.365806	0.000010
C50	C	-0.041652	-1.032472	0.333343
C51	C	0.291681	-0.699139	0.666677
C52	C	-0.231783	-1.369574	0.000007
C53	C	0.101551	-1.036240	0.333340
C54	C	0.434884	-0.702907	0.666674
C55	C	0.411477	-1.468446	0.000009
C56	C	0.744811	-1.135113	0.333342
C57	C	1.078144	-0.801779	0.666675
C58	C	0.550032	-1.472093	0.000011
C59	C	0.883365	-1.138760	0.333345
C60	C	1.216698	-0.805427	0.666678
C61	C	0.176244	-0.703679	0.000005
C62	C	0.509577	-0.370346	0.333338
C63	C	0.842910	-0.037013	0.666671
C64	C	0.179891	-0.842234	0.000005
C65	C	0.513225	-0.508900	0.333338
C66	C	0.846558	-0.175567	0.666671
N67	N	0.198803	-1.460163	0.205304
N68	N	0.532137	-1.126830	0.538637
N69	N	0.865470	-0.793496	0.871970
N70	N	0.167989	-1.491054	-0.205295
N71	N	0.501323	-1.157721	0.128039
N72	N	0.834656	-0.824388	0.461372
C73	C	0.118263	-1.541018	0.250696
C74	C	0.451596	-1.207685	0.584030
C75	C	0.784930	-0.874351	0.917363
C76	C	0.125066	-1.534191	0.341504
C77	C	0.458399	-1.200857	0.674838
C78	C	0.791732	-0.867524	1.008171
C79	C	0.212404	-1.446501	0.386918
C80	C	0.545737	-1.113168	0.720251
C81	C	0.879071	-0.779834	1.053585
C82	C	0.292953	-1.365643	0.341519
C83	C	0.626286	-1.032309	0.674852
C84	C	0.959620	-0.698976	1.008186
C85	C	0.286155	-1.372477	0.250713
C86	C	0.619489	-1.039144	0.584046
C87	C	0.952822	-0.705810	0.917379
C88	C	0.241741	-1.417030	0.658500
C89	C	0.575074	-1.083697	0.991833
C90	C	0.908407	-0.750363	1.325167
C91	C	0.248530	-1.410199	0.749313
C92	C	0.581863	-1.076866	1.082646
C93	C	0.915196	-0.743532	1.415979
C94	C	0.080643	-1.578750	0.749292
C95	C	0.413977	-1.245416	1.082625
C96	C	0.747310	-0.912083	1.415959
C97	C	0.073848	-1.585571	0.658484
C98	C	0.407182	-1.252238	0.991817
C99	C	0.740515	-0.918904	1.325151
C100	C	0.154402	-1.504717	0.613093
C101	C	0.487735	-1.171384	0.946426
C102	C	0.821068	-0.838050	1.279759
N103	N	0.219357	-1.439518	0.479738
N104	N	0.552690	-1.106184	0.813072
N105	N	0.886024	-0.772851	1.146405
N106	N	0.147454	-1.511707	0.520274
N107	N	0.480787	-1.178374	0.853607
N108	N	0.814121	-0.845041	1.186941
H109	H	0.273677	-0.884056	0.000001
H110	H	0.607010	-0.550723	0.333335
H111	H	0.940344	-0.217390	0.666668
H112	H	0.047138	-1.612419	0.213727
H113	H	0.380471	-1.279085	0.547060
H114	H	0.713805	-0.945752	0.880393
H115	H	0.015062	-1.644579	0.786258
H116	H	0.348395	-1.311245	1.119591
H117	H	0.681729	-0.977912	1.452924
H118	H	-0.167350	-1.278584	0.000000
H119	H	0.165983	-0.945250	0.333333
H120	H	0.499316	-0.611917	0.666667
H121	H	0.059484	-1.600030	0.378463
H122	H	0.392818	-1.266696	0.711796
H123	H	0.726151	-0.933363	1.045130
H124	H	0.277907	-1.044548	0.000010
H125	H	0.611240	-0.711215	0.333343
H126	H	0.944574	-0.377881	0.666676
H127	H	0.002731	-1.656975	0.621510
H128	H	0.336064	-1.323641	0.954843
H129	H	0.669397	-0.990308	1.288177
H130	H	-0.416807	-1.272020	0.000016
H131	H	-0.083474	-0.938686	0.333349
H132	H	0.249859	-0.605353	0.666683
H133	H	0.364072	-1.294248	0.378500
H134	H	0.697405	-0.960915	0.711833
H135	H	1.030739	-0.627581	1.045166
H136	H	-0.247654	-1.570109	0.000003
H137	H	0.085679	-1.236776	0.333336
H138	H	0.419013	-0.903442	0.666669
H139	H	-0.408144	-1.565877	0.000041
H140	H	-0.074810	-1.232544	0.333375
H141	H	0.258523	-0.899210	0.666708
H142	H	-0.020183	-0.875395	-0.000012
H143	H	0.313150	-0.542062	0.333321
H144	H	0.646483	-0.208729	0.666654
H145	H	0.319655	-1.338787	0.786284
H146	H	0.652988	-1.005453	1.119618
H147	H	0.986321	-0.672120	1.452951
H148	H	0.307328	-1.351193	0.621550
H149	H	0.640662	-1.017860	0.954883
H150	H	0.973995	-0.684526	1.288216
H151	H	0.351741	-1.306638	0.213755
H152	H	0.685075	-0.973304	0.547088
H153	H	1.018408	-0.639971	0.880421
H154	H	-0.013619	-1.124852	0.000006
H155	H	0.319714	-0.791519	0.333340
H156	H	0.653048	-0.458186	0.666673
