data_functionalizedCrystal
_audit_creation_method	'MofGen! by Chris Wilmer'
_symmetry_space_group_name_H-M	'P1'
_symmetry_Int_Tables_number	1
_symmetry_cell_setting	triclinic
loop_
_symmetry_equiv_pos_as_xyz
  x,y,z
_cell_length_a	14.971494
_cell_length_b	17.019282
_cell_length_c	13.448316
_cell_angle_alpha	86.120188
_cell_angle_beta	90.005561
_cell_angle_gamma	83.502891
loop_
_atom_site_label
_atom_site_type_symbol
_atom_site_fract_x
_atom_site_fract_y
_atom_site_fract_z
O1	O	0.113890	1.046792	-0.006982
O2	O	0.128436	0.817139	0.012692
O3	O	-0.009052	0.938117	0.002326
O4	O	0.251379	0.925814	0.003384
O5	O	-0.009064	0.938115	-0.163058
O6	O	0.128424	0.817137	-0.152692
O7	O	0.113879	1.046789	-0.172366
Cu8	Cu	0.121150	0.931963	-0.177630
Cu9	Cu	0.121164	0.931966	0.017956
O10	O	0.251367	0.925811	-0.162000
C11	C	0.127881	0.787748	-0.067482
C12	C	0.126234	0.700176	-0.059980
C13	C	0.125452	0.659038	-0.146608
C14	C	0.123890	0.576756	-0.139562
C15	C	0.123117	0.535613	-0.045886
C16	C	0.123897	0.576757	0.040748
C17	C	0.125452	0.659038	0.033701
C18	C	0.118416	0.287178	-0.020098
C19	C	0.116863	0.204891	-0.013057
C20	C	0.116854	0.204895	-0.193368
C21	C	0.118415	0.287177	-0.200407
C22	C	0.119190	0.328315	-0.113773
C23	C	0.121524	0.451507	-0.038682
C24	C	0.120777	0.412420	-0.120978
C25	C	-0.042381	0.937565	-0.080317
C26	C	-0.141674	0.935912	-0.080171
C27	C	-0.188310	0.935139	0.010047
C28	C	-0.281605	0.933581	0.010181
C29	C	-0.328263	0.932802	-0.079904
C30	C	-0.281620	0.933573	-0.170128
C31	C	-0.188325	0.935125	-0.170261
C32	C	-0.476074	0.930340	-0.169845
C33	C	-0.569375	0.928789	-0.169712
C34	C	-0.569354	0.928796	0.010598
C35	C	-0.476060	0.930348	0.010465
C36	C	-0.429423	0.931120	-0.079760
C37	C	0.284696	0.926364	-0.079354
C38	C	0.383988	0.928016	-0.079494
C39	C	0.114434	1.076180	-0.092190
C40	C	0.116081	1.163752	-0.099685
N41	N	0.121168	0.931968	0.155520
N42	N	0.121140	0.931966	-0.315194
C43	C	0.060407	0.985637	0.202961
C44	C	0.060405	0.985641	0.307064
C45	C	0.121159	0.931971	0.363724
C46	C	0.181926	0.878299	0.316275
C47	C	0.181932	0.878300	0.212174
C48	C	0.181907	0.878299	0.533255
C49	C	0.181900	0.878297	0.637364
C50	C	0.060380	0.985640	0.628146
C51	C	0.060386	0.985641	0.524044
C52	C	0.121152	0.931968	0.476603
H53	H	0.126089	0.692529	-0.222889
C54	C	-0.332900	0.932737	0.109427
C55	C	-0.330309	1.001406	0.177907
C56	C	-0.381601	1.000562	0.277159
C57	C	-0.435483	0.931050	0.307930
C58	C	-0.438076	0.862376	0.239448
C59	C	-0.386784	0.863220	0.140196
H60	H	-0.290421	1.052867	0.155130
H61	H	-0.379681	1.051399	0.327854
H62	H	-0.473452	0.930425	0.381402
H63	H	-0.477964	0.810915	0.262225
H64	H	-0.388704	0.812383	0.089501
H65	H	-0.438103	0.930951	-0.243314
H66	H	0.119044	0.320663	0.050446
C67	C	-0.332948	0.932712	-0.269219
C68	C	-0.386844	0.863198	-0.288043
C69	C	-0.438174	0.862337	-0.387133
C70	C	-0.435608	0.930990	-0.467400
C71	C	-0.381709	1.000509	-0.448578
C72	C	-0.330379	1.001370	-0.349488
H73	H	-0.388746	0.812372	-0.228623
H74	H	-0.478074	0.810874	-0.401066
H75	H	-0.473606	0.930353	-0.540752
H76	H	-0.379808	1.051335	-0.507998
H77	H	-0.290480	1.052833	-0.335555
C78	C	-0.137021	0.935976	-0.269502
C79	C	-0.139610	0.867314	-0.337993
C80	C	-0.088305	0.868161	-0.437237
C81	C	-0.034411	0.937669	-0.467989
C82	C	-0.031820	1.006336	-0.399496
C83	C	-0.083125	1.005490	-0.300253
H84	H	-0.179507	0.815855	-0.315230
H85	H	-0.090223	0.817328	-0.487939
H86	H	0.003568	0.938295	-0.541455
H87	H	0.008077	1.057795	-0.422260
H88	H	-0.081207	1.056322	-0.249551
H89	H	0.123238	0.543266	-0.210104
C90	C	-0.006424	1.044677	0.140641
C91	C	-0.073225	1.103741	0.192829
C92	C	-0.140057	1.162785	0.130512
C93	C	-0.140088	1.162764	0.016006
C94	C	-0.073285	1.103697	-0.036188
C95	C	-0.006453	1.044654	0.026129
H96	H	-0.073204	1.103759	0.277599
H97	H	-0.189509	1.206510	0.169150
H98	H	-0.189561	1.206471	-0.030125
H99	H	-0.073306	1.103679	-0.120958
H100	H	0.042999	1.000928	-0.012510
C101	C	0.248737	0.819264	0.699687
C102	C	0.315779	0.760410	0.647485
C103	C	0.382619	0.701375	0.709805
C104	C	0.382415	0.701195	0.824327
C105	C	0.315370	0.760051	0.876536
C106	C	0.248531	0.819086	0.814215
H107	H	0.315932	0.760541	0.562703
H108	H	0.432250	0.657806	0.671157
H109	H	0.431894	0.657494	0.870461
H110	H	0.315218	0.759920	0.961317
H111	H	0.198900	0.862655	0.852864
H112	H	0.123261	0.543253	0.117021
C113	C	0.248655	0.819211	0.159918
C114	C	0.246880	0.729423	0.181913
C115	C	0.313554	0.670312	0.129626
C116	C	0.382004	0.700987	0.055345
C117	C	0.383782	0.790780	0.033347
C118	C	0.317107	0.849892	0.085633
H119	H	0.196207	0.706711	0.236903
H120	H	0.312237	0.603841	0.145911
H121	H	0.431360	0.657229	0.016639
H122	H	0.434455	0.813492	-0.021644
H123	H	0.318424	0.916362	0.069348
C124	C	0.121631	0.457676	-0.224018
C125	C	0.200335	0.505356	-0.252875
C126	C	0.201194	0.550621	-0.355914
C127	C	0.123350	0.548206	-0.430096
C128	C	0.044640	0.500524	-0.401241
C129	C	0.043780	0.455259	-0.298202
H130	H	0.257965	0.507145	-0.197959
H131	H	0.259461	0.585918	-0.377273
H132	H	0.123986	0.581714	-0.506372
H133	H	-0.012991	0.498734	-0.456157
H134	H	-0.014486	0.419961	-0.276842
H135	H	0.010903	1.029342	0.666778
C136	C	0.248533	0.819162	0.480941
C137	C	0.246618	0.729390	0.502939
C138	C	0.313135	0.670205	0.450564
C139	C	0.381565	0.700791	0.376191
C140	C	0.383482	0.790567	0.354191
C141	C	0.316966	0.849752	0.406566
H142	H	0.195960	0.706745	0.557997
H143	H	0.311715	0.603747	0.466851
H144	H	0.430805	0.656979	0.337420
H145	H	0.434141	0.813213	0.299133
H146	H	0.318385	0.916211	0.390279
C147	C	-0.006434	1.044673	0.359256
C148	C	-0.108314	1.043419	0.345039
C149	C	-0.175154	1.102453	0.397233
C150	C	-0.140115	1.162743	0.463642
C151	C	-0.038230	1.164000	0.477861
C152	C	0.028610	1.104965	0.425668
H153	H	-0.134256	0.998787	0.295877
H154	H	-0.250576	1.101523	0.386706
H155	H	-0.189594	1.206444	0.502278
H156	H	-0.012287	1.208632	0.527024
H157	H	0.104033	1.105896	0.436194
C158	C	0.120682	0.406244	0.064359
C159	C	0.041983	0.358562	0.093230
C160	C	0.041140	0.313295	0.196269
C161	C	0.118995	0.315710	0.270437
C162	C	0.197700	0.363394	0.241568
C163	C	0.198544	0.408661	0.138529
H164	H	-0.015655	0.356772	0.038325
H165	H	-0.017123	0.277996	0.217639
H166	H	0.118371	0.282201	0.346713
H167	H	0.255339	0.365184	0.296473
H168	H	0.256806	0.443960	0.117158
H169	H	0.119040	0.320670	-0.276688
H170	H	0.116222	0.171392	-0.263901
H171	H	0.116236	0.171394	0.063229
C172	C	-0.136990	0.935996	0.109143
C173	C	-0.083100	1.005510	0.127988
C174	C	-0.031782	1.006363	0.227087
C175	C	-0.034354	0.937703	0.307343
C176	C	-0.088247	0.868184	0.288501
C177	C	-0.139564	0.867330	0.189401
H178	H	-0.081194	1.056341	0.068576
H179	H	0.008112	1.057826	0.241035
H180	H	0.003634	0.938335	0.380702
H181	H	-0.090153	0.817353	0.347913
H182	H	-0.179459	0.815867	0.175453
H183	H	0.126091	0.692532	0.104243
H184	H	-0.438074	0.930988	0.083820
C185	C	-0.620717	0.927885	-0.268786
C186	C	-0.597652	0.859612	-0.337259
C187	C	-0.649002	0.858688	-0.436325
C188	C	-0.723417	0.926036	-0.466918
C189	C	-0.746485	0.994313	-0.398443
C190	C	-0.695135	0.995238	-0.299377
H191	H	-0.542563	0.809753	-0.314614
H192	H	-0.631925	0.808144	-0.487015
H193	H	-0.761429	0.925352	-0.540253
H194	H	-0.801574	1.044173	-0.421089
H195	H	-0.712212	1.045782	-0.248688
H196	H	-0.607330	0.928166	0.084063
H197	H	0.010912	1.029339	0.477912
H198	H	0.231397	0.834602	0.362414
