data_functionalizedCrystal
_audit_creation_method	'MofGen! by Chris Wilmer'
_symmetry_space_group_name_H-M	'P1'
_symmetry_Int_Tables_number	1
_symmetry_cell_setting	triclinic
loop_
_symmetry_equiv_pos_as_xyz
  x,y,z
_cell_length_a	29.839135
_cell_length_b	21.295418
_cell_length_c	21.295411
_cell_angle_alpha	90.017488
_cell_angle_beta	90.027776
_cell_angle_gamma	90.030917
loop_
_atom_site_label
_atom_site_type_symbol
_atom_site_fract_x
_atom_site_fract_y
_atom_site_fract_z
Zn1	Zn	0.686815	-0.250638	0.355984
Zn2	Zn	1.020148	0.082695	0.689317
Zn3	Zn	1.353481	0.416028	1.022650
Zn4	Zn	0.686748	-0.355890	0.250717
Zn5	Zn	1.020081	-0.022557	0.584050
Zn6	Zn	1.353415	0.310776	0.917383
Zn7	Zn	0.611681	-0.250644	0.250723
Zn8	Zn	0.945015	0.082690	0.584056
Zn9	Zn	1.278348	0.416023	0.917389
Zn10	Zn	0.611662	-0.355878	0.355942
Zn11	Zn	0.944996	-0.022545	0.689276
Zn12	Zn	1.278329	0.310788	1.022609
O13	O	0.649227	-0.303263	0.303341
O14	O	0.982560	0.030071	0.636675
O15	O	1.315893	0.363404	0.970008
O16	O	0.749673	-0.264603	0.342034
O17	O	1.083006	0.068730	0.675368
O18	O	1.416340	0.402064	1.008701
O19	O	0.676770	-0.341936	0.162628
O20	O	1.010104	-0.008603	0.495961
O21	O	1.343437	0.324731	0.829295
O22	O	0.621684	-0.162553	0.264706
O23	O	0.955017	0.170780	0.598039
O24	O	1.288351	0.504113	0.931372
O25	O	0.749624	-0.341931	0.264695
O26	O	1.082957	-0.008598	0.598029
O27	O	1.416291	0.324735	0.931362
O28	O	0.676884	-0.162550	0.342040
O29	O	1.010218	0.170784	0.675374
O30	O	1.343551	0.504117	1.008707
O31	O	0.621619	-0.264612	0.162633
O32	O	0.954953	0.068721	0.495966
O33	O	1.288286	0.402055	0.829299
O34	O	0.548812	-0.264600	0.264666
O35	O	0.882145	0.068733	0.597999
O36	O	1.215479	0.402066	0.931332
O37	O	0.621652	-0.341911	0.444037
O38	O	0.954985	-0.008578	0.777371
O39	O	1.288318	0.324756	1.110704
O40	O	0.548798	-0.341916	0.341970
O41	O	0.882131	-0.008583	0.675303
O42	O	1.215465	0.324751	1.008637
O43	O	0.676866	-0.264592	0.444068
O44	O	1.010199	0.068742	0.777401
O45	O	1.343532	0.402075	1.110734
O46	O	0.676752	-0.443978	0.264655
O47	O	1.010085	-0.110645	0.597989
O48	O	1.343418	0.222689	0.931322
O49	O	0.621587	-0.443969	0.341964
O50	O	0.954920	-0.110636	0.675298
O51	O	1.288253	0.222697	1.008631
C52	C	0.532504	-0.303258	0.303314
C53	C	0.865837	0.030076	0.636648
C54	C	1.199171	0.363409	0.969981
C55	C	0.482570	-0.303271	0.303318
C56	C	0.815903	0.030062	0.636651
C57	C	1.149236	0.363396	0.969985
C58	C	0.649172	-0.466814	0.303318
C59	C	0.982505	-0.133481	0.636652
C60	C	1.315839	0.199852	0.969985
C61	C	0.649190	-0.536782	0.303330
C62	C	0.982523	-0.203449	0.636663
C63	C	1.315857	0.129884	0.969996
C64	C	0.678025	-1.036185	0.343690
C65	C	1.011359	-0.702852	0.677024
C66	C	1.344692	-0.369518	1.010357
C67	C	0.678012	-0.970443	0.343680
C68	C	1.011345	-0.637109	0.677014
C69	C	1.344679	-0.303776	1.010347
C70	C	0.649288	-0.937622	0.303381
C71	C	0.982621	-0.604288	0.636714
C72	C	1.315955	-0.270955	0.970047
C73	C	0.620583	-0.970549	0.263076
C74	C	0.953916	-0.637215	0.596410
C75	C	1.287249	-0.303882	0.929743
C76	C	0.620600	-1.036290	0.263083
C77	C	0.953933	-0.702957	0.596416
C78	C	1.287267	-0.369623	0.929750
N79	N	0.609938	-0.834454	0.298487
N80	N	0.943271	-0.501120	0.631820
N81	N	1.276604	-0.167787	0.965153
N82	N	0.609923	-0.772002	0.298484
N83	N	0.943256	-0.438669	0.631817
N84	N	1.276589	-0.105336	0.965151
C85	C	0.649235	-0.739547	0.303357
C86	C	0.982568	-0.406214	0.636690
C87	C	1.315902	-0.072880	0.970024
N88	N	0.688564	-0.771902	0.308245
N89	N	1.021897	-0.438569	0.641578
N90	N	1.355231	-0.105236	0.974912
N91	N	0.688578	-0.834360	0.308251
N92	N	1.021912	-0.501026	0.641584
N93	N	1.355245	-0.167693	0.974918
C94	C	0.649266	-0.866336	0.303369
C95	C	0.982600	-0.533003	0.636702
C96	C	1.315933	-0.199670	0.970035
C97	C	0.677926	-0.635342	0.343645
C98	C	1.011260	-0.302009	0.676978
C99	C	1.344593	0.031324	1.010311
C100	C	0.677914	-0.569599	0.343630
C101	C	1.011247	-0.236265	0.676964
C102	C	1.344581	0.097068	1.010297
C103	C	0.620480	-0.569706	0.263030
C104	C	0.953814	-0.236373	0.596363
C105	C	1.287147	0.096961	0.929697
C106	C	0.620497	-0.635449	0.263041
C107	C	0.953830	-0.302115	0.596374
C108	C	1.287164	0.031218	0.929708
C109	C	0.649219	-0.668263	0.303352
C110	C	0.982553	-0.334929	0.636685
C111	C	1.315886	-0.001596	0.970018
C112	C	0.172949	-0.263059	0.343671
C113	C	0.506282	0.070274	0.677005
C114	C	0.839616	0.403608	1.010338
C115	C	-0.014724	-0.263063	0.343689
C116	C	0.318609	0.070270	0.677022
C117	C	0.651943	0.403603	1.010356
O118	O	-0.038970	-0.228859	0.377969
O119	O	0.294364	0.104474	0.711302
O120	O	0.627697	0.437807	1.044636
N121	N	-0.038215	-0.303263	0.303364
N122	N	0.295118	0.030070	0.636698
N123	N	0.628451	0.363403	0.970031
C124	C	-0.014786	-0.343462	0.263030
C125	C	0.318548	-0.010129	0.596363
C126	C	0.651881	0.323204	0.929696
O127	O	-0.039073	-0.377650	0.228727
O128	O	0.294261	-0.044317	0.562060
O129	O	0.627594	0.289016	0.895393
C130	C	0.172887	-0.343454	0.263009
C131	C	0.506220	-0.010121	0.596342
C132	C	0.839553	0.323212	0.929676
C133	C	0.196375	-0.303256	0.303341
C134	C	0.529709	0.030077	0.636674
C135	C	0.863042	0.363411	0.970007
C136	C	0.196438	-0.222864	0.383999
C137	C	0.529771	0.110470	0.717333
C138	C	0.863104	0.443803	1.050666
C139	C	0.243353	-0.222865	0.383997
C140	C	0.576687	0.110468	0.717330
C141	C	0.910020	0.443801	1.050663
C142	C	0.266780	-0.263062	0.343666
C143	C	0.600113	0.070271	0.677000
C144	C	0.933446	0.403604	1.010333
C145	C	0.243291	-0.303258	0.303338
C146	C	0.576624	0.030076	0.636672
C147	C	0.909958	0.363409	0.970005
C148	C	0.196316	-0.383649	0.222671
C149	C	0.529649	-0.050316	0.556005
C150	C	0.862982	0.283017	0.889338
C151	C	0.243237	-0.383643	0.222669
C152	C	0.576570	-0.050309	0.556002
C153	C	0.909903	0.283024	0.889335
C154	C	0.266726	-0.343445	0.263000
C155	C	0.600059	-0.010111	0.596334
C156	C	0.933392	0.323222	0.929667
C157	C	0.313633	-0.343457	0.263005
C158	C	0.646966	-0.010123	0.596339
C159	C	0.980300	0.323210	0.929672
N160	N	0.337124	-0.303257	0.303330
N161	N	0.670458	0.030077	0.636663
N162	N	1.003791	0.363410	0.969997
C163	C	0.313698	-0.263059	0.343660
C164	C	0.647031	0.070274	0.676994
C165	C	0.980364	0.403607	1.010327
C166	C	-0.113316	-0.343464	0.263044
C167	C	0.220017	-0.010131	0.596377
C168	C	0.553351	0.323202	0.929711
C169	C	-0.160234	-0.343467	0.263050
C170	C	0.173099	-0.010134	0.596383
C171	C	0.506433	0.323199	0.929717
C172	C	-0.160169	-0.263067	0.343709
C173	C	0.173164	0.070266	0.677042
C174	C	0.506497	0.403599	1.010375
C175	C	-0.113251	-0.263068	0.343706
C176	C	0.220083	0.070265	0.677039
C177	C	0.553416	0.403599	1.010372
C178	C	-0.089825	-0.303264	0.303369
C179	C	0.243508	0.030069	0.636702
C180	C	0.576842	0.363402	0.970035
C181	C	0.412223	-0.263067	0.343653
C182	C	0.745557	0.070267	0.676986
C183	C	1.078890	0.403600	1.010319
C184	C	0.459143	-0.263074	0.343648
C185	C	0.792476	0.070260	0.676982
C186	C	1.125810	0.403593	1.010315
C187	C	0.459074	-0.343471	0.262987
C188	C	0.792408	-0.010138	0.596321
C189	C	1.125741	0.323196	0.929654
C190	C	0.412159	-0.343467	0.262994
C191	C	0.745492	-0.010133	0.596327
C192	C	1.078826	0.323200	0.929660
C193	C	0.388735	-0.303259	0.303328
C194	C	0.722068	0.030074	0.636662
C195	C	1.055401	0.363407	0.969995
O196	O	0.337908	-0.377638	0.228738
O197	O	0.671241	-0.044304	0.562072
O198	O	1.004574	0.289029	0.895405
O199	O	0.337993	-0.228867	0.377948
O200	O	0.671326	0.104467	0.711282
O201	O	1.004659	0.437800	1.044615
C202	C	0.126033	-0.263057	0.343674
C203	C	0.459367	0.070276	0.677007
C204	C	0.792700	0.403610	1.010340
C205	C	0.102545	-0.303253	0.303346
C206	C	0.435878	0.030081	0.636679
C207	C	0.769211	0.363414	0.970012
C208	C	0.125971	-0.343450	0.263015
C209	C	0.459304	-0.010116	0.596349
C210	C	0.792638	0.323217	0.929682
C211	C	0.055627	-0.303255	0.303351
C212	C	0.388960	0.030078	0.636685
C213	C	0.722293	0.363411	0.970018
C214	C	0.032200	-0.263058	0.343682
C215	C	0.365533	0.070275	0.677015
C216	C	0.698867	0.403608	1.010349
C217	C	0.055691	-0.222858	0.384007
C218	C	0.389025	0.110475	0.717340
C219	C	0.722358	0.443808	1.050673
C220	C	0.102607	-0.222860	0.384004
C221	C	0.435940	0.110473	0.717337
C222	C	0.769274	0.443807	1.050671
C223	C	0.102480	-0.383650	0.222691
C224	C	0.435813	-0.050316	0.556024
C225	C	0.769147	0.283017	0.889357
C226	C	0.055564	-0.383645	0.222697
C227	C	0.388898	-0.050312	0.556030
C228	C	0.722231	0.283021	0.889363
C229	C	0.032138	-0.343448	0.263027
C230	C	0.365471	-0.010115	0.596361
C231	C	0.698804	0.323219	0.929694
C232	C	0.766405	-0.303268	0.303369
C233	C	1.099738	0.030065	0.636702
C234	C	1.433072	0.363399	0.970035
C235	C	0.816339	-0.303270	0.303380
C236	C	1.149673	0.030063	0.636714
C237	C	1.483006	0.363396	0.970047
C238	C	0.649264	-0.303249	0.467532
C239	C	0.982597	0.030084	0.800865
C240	C	1.315931	0.363417	1.134198
C241	C	0.649280	-0.303244	0.537500
C242	C	0.982613	0.030090	0.870833
C243	C	1.315947	0.363423	1.204166
C244	C	0.649294	-0.139072	0.303378
C245	C	0.982627	0.194261	0.636712
C246	C	1.315960	0.527594	0.970045
C247	C	0.649322	-0.069104	0.303394
C248	C	0.982656	0.264229	0.636727
C249	C	1.315989	0.597562	0.970061
C250	C	0.649215	-0.303230	0.139790
C251	C	0.982549	0.030103	0.473123
C252	C	1.315882	0.363436	0.806456
C253	C	0.649287	-0.303059	0.069822
C254	C	0.982620	0.030275	0.403155
C255	C	1.315953	0.363608	0.736489
C256	C	0.678029	-0.262982	0.570383
C257	C	1.011362	0.070352	0.903717
C258	C	1.344695	0.403685	1.237050
C259	C	0.678028	-0.262954	0.636126
C260	C	1.011361	0.070379	0.969459
C261	C	1.344695	0.403712	1.302792
C262	C	0.649283	-0.303200	0.668982
C263	C	0.982617	0.030133	1.002316
C264	C	1.315950	0.363466	1.335649
C265	C	0.620529	-0.343465	0.636091
C266	C	0.953862	-0.010132	0.969424
C267	C	1.287196	0.323202	1.302758
C268	C	0.620527	-0.343487	0.570350
C269	C	0.953861	-0.010153	0.903683
C270	C	1.287194	0.323180	1.237016
N271	N	0.645819	-0.358268	0.772201
N272	N	0.979152	-0.024935	1.105535
N273	N	1.312485	0.308398	1.438868
N274	N	0.645823	-0.358246	0.834653
N275	N	0.979156	-0.024913	1.167986
N276	N	1.312490	0.308421	1.501320
C277	C	0.649286	-0.303136	0.867057
C278	C	0.982619	0.030197	1.200391
C279	C	1.315953	0.363530	1.533724
N280	N	0.652754	-0.248049	0.834651
N281	N	0.986087	0.085284	1.167984
N282	N	1.319420	0.418618	1.501317
N283	N	0.652752	-0.248072	0.772194
N284	N	0.986085	0.085261	1.105527
N285	N	1.319418	0.418594	1.438860
C286	C	0.649282	-0.303181	0.740268
C287	C	0.982615	0.030152	1.073601
C288	C	1.315948	0.363486	1.406934
C289	C	0.678036	-0.262842	0.971226
C290	C	1.011369	0.070492	1.304560
C291	C	1.344702	0.403825	1.637893
C292	C	0.678032	-0.262813	1.036970
C293	C	1.011365	0.070520	1.370303
C294	C	1.344699	0.403853	1.703637
C295	C	0.620535	-0.343330	1.036934
C296	C	0.953869	-0.009996	1.370267
C297	C	1.287202	0.323337	1.703601
C298	C	0.620537	-0.343352	0.971191
C299	C	0.953870	-0.010019	1.304525
C300	C	1.287203	0.323314	1.637858
C301	C	0.649289	-0.303109	0.938342
C302	C	0.982623	0.030224	1.271675
C303	C	1.315956	0.363558	1.605008
H304	H	0.701417	-1.062898	0.376510
H305	H	1.034750	-0.729565	0.709843
H306	H	1.368084	-0.396232	1.043176
O307	O	0.589637	-1.071795	0.219618
O308	O	0.922971	-0.738462	0.552951
O309	O	1.256304	-0.405128	0.886284
H310	H	0.609766	-1.101731	0.187621
H311	H	0.943099	-0.768397	0.520954
H312	H	1.276433	-0.435064	0.854288
O313	O	0.589519	-0.386911	0.534872
O314	O	0.922853	-0.053578	0.868206
O315	O	1.256186	0.279755	1.201539
H316	H	0.566677	-0.358735	0.504910
H317	H	0.900010	-0.025402	0.838243
H318	H	1.233343	0.307931	1.171576
O319	O	0.589534	-0.670961	0.219585
O320	O	0.922867	-0.337628	0.552919
O321	O	1.256200	-0.004294	0.886252
H322	H	0.569554	-0.637096	0.191564
H323	H	0.902887	-0.303763	0.524897
H324	H	1.236221	0.029570	0.858230
H325	H	0.701441	-0.230212	0.543641
H326	H	1.034774	0.103122	0.876974
H327	H	1.368107	0.436455	1.210308
O328	O	0.708882	-0.534097	0.387091
O329	O	1.042215	-0.200764	0.720425
O330	O	1.375548	0.132569	1.053758
H331	H	0.688759	-0.504149	0.419084
H332	H	1.022093	-0.170816	0.752418
H333	H	1.355426	0.162518	1.085751
H334	H	0.701310	-0.662061	0.376473
H335	H	1.034644	-0.328728	0.709806
H336	H	1.367977	0.004606	1.043139
O337	O	0.589529	-0.386733	1.072367
O338	O	0.922862	-0.053400	1.405700
O339	O	1.256196	0.279934	1.739033
H340	H	0.569535	-0.414732	1.038452
H341	H	0.902869	-0.081399	1.371786
H342	H	1.236202	0.251934	1.705119
O343	O	0.709040	-0.219533	0.671606
O344	O	1.042374	0.113800	1.004939
O345	O	1.375707	0.447133	1.338272
H346	H	0.729035	-0.191557	0.637718
H347	H	1.062369	0.141776	0.971051
H348	H	1.395702	0.475109	1.304385
O349	O	0.127742	-0.427011	0.179190
O350	O	0.461076	-0.093677	0.512523
O351	O	0.794409	0.239656	0.845857
H352	H	0.149115	-0.398794	0.147205
H353	H	0.482448	-0.065460	0.480538
H354	H	0.815781	0.267873	0.813871
O355	O	0.709042	-0.219436	0.935786
O356	O	1.042375	0.113897	1.269119
O357	O	1.375709	0.447230	1.602452
H358	H	0.701354	-0.170026	0.948389
H359	H	1.034687	0.163308	1.281722
H360	H	1.368021	0.496641	1.615056
O361	O	0.589524	-0.386873	0.671523
O362	O	0.922857	-0.053540	1.004857
O363	O	1.256190	0.279793	1.338190
H364	H	0.594357	-0.380098	0.722763
H365	H	0.927690	-0.046765	1.056096
H366	H	1.261024	0.286568	1.389429
H367	H	0.478266	-0.230339	0.376494
H368	H	0.811599	0.102994	0.709827
H369	H	1.144932	0.436328	1.043160
H370	H	0.701442	-0.230023	1.063743
H371	H	1.034775	0.103310	1.397076
H372	H	1.368109	0.436643	1.730409
H373	H	0.393033	-0.376206	0.230160
H374	H	0.726367	-0.042873	0.563493
H375	H	1.059700	0.290460	0.896826
O376	O	0.589517	-0.386761	0.935717
O377	O	0.922850	-0.053428	1.269051
O378	O	1.256184	0.279906	1.602384
H379	H	0.569525	-0.414738	0.969607
H380	H	0.902858	-0.081405	1.302941
H381	H	1.236191	0.251929	1.636274
O382	O	0.708973	-0.934927	0.387144
O383	O	1.042306	-0.601594	0.720477
O384	O	1.375640	-0.268261	1.053811
H385	H	0.688843	-0.904985	0.419132
H386	H	1.022176	-0.571651	0.752466
H387	H	1.355509	-0.238318	1.085799
O388	O	0.386961	-0.219705	0.387159
O389	O	0.720295	0.113628	0.720492
O390	O	1.053628	0.446961	1.053825
H391	H	0.411183	-0.191763	0.415201
H392	H	0.744517	0.141570	0.748535
H393	H	1.077850	0.474903	1.081868
O394	O	0.589600	-0.935155	0.219610
O395	O	0.922933	-0.601822	0.552943
O396	O	1.256266	-0.268488	0.886277
H397	H	0.594406	-0.883910	0.226380
H398	H	0.927739	-0.550577	0.559713
H399	H	1.261073	-0.217243	0.893046
O400	O	-0.185563	-0.386828	0.219550
O401	O	0.147771	-0.053495	0.552883
O402	O	0.481104	0.279839	0.886216
H403	H	-0.206937	-0.418906	0.247664
H404	H	0.126397	-0.085572	0.580997
H405	H	0.459730	0.247761	0.914330
H406	H	0.597094	-0.542984	0.230215
H407	H	0.930428	-0.209651	0.563548
H408	H	1.263761	0.123683	0.896881
H409	H	0.262474	-0.190131	0.416838
H410	H	0.595807	0.143203	0.750171
H411	H	0.929140	0.476536	1.083505
O412	O	0.171174	-0.179506	0.427504
O413	O	0.504507	0.153827	0.760837
O414	O	0.837840	0.487160	1.094170
H415	H	0.195397	-0.151563	0.455543
H416	H	0.528730	0.181770	0.788877
H417	H	0.862063	0.515104	1.122210
O418	O	0.030234	-0.427001	0.179187
O419	O	0.363567	-0.093668	0.512520
O420	O	0.696901	0.239666	0.845854
H421	H	0.039226	-0.476424	0.189885
H422	H	0.372559	-0.143090	0.523218
H423	H	0.705893	0.190243	0.856551
O424	O	-0.087919	-0.219702	0.387198
O425	O	0.245414	0.113631	0.720531
O426	O	0.578748	0.446964	1.053865
H427	H	-0.096911	-0.230567	0.436585
H428	H	0.236423	0.102767	0.769918
H429	H	0.569756	0.436100	1.103252
O430	O	-0.185440	-0.219703	0.387204
O431	O	0.147893	0.113630	0.720537
O432	O	0.481227	0.446963	1.053870
H433	H	-0.222010	-0.226458	0.380423
H434	H	0.111323	0.106875	0.713756
H435	H	0.444657	0.440209	1.047089
O436	O	-0.088052	-0.386822	0.219536
O437	O	0.245282	-0.053488	0.552869
O438	O	0.578615	0.279845	0.886202
H439	H	-0.112273	-0.414775	0.191504
H440	H	0.221060	-0.081442	0.524837
H441	H	0.554393	0.251892	0.858170
O442	O	0.170988	-0.426997	0.179161
O443	O	0.504321	-0.093664	0.512495
O444	O	0.837654	0.239669	0.845828
H445	H	0.195167	-0.454935	0.151112
H446	H	0.528501	-0.121602	0.484446
H447	H	0.861834	0.211731	0.817779
O448	O	0.268504	-0.426999	0.179163
O449	O	0.601837	-0.093666	0.512496
O450	O	0.935171	0.239667	0.845829
H451	H	0.244285	-0.454951	0.151125
H452	H	0.577619	-0.121618	0.484458
H453	H	0.910952	0.211715	0.817792
H454	H	0.478157	-0.376200	0.230153
H455	H	0.811490	-0.042867	0.563486
H456	H	1.144823	0.290467	0.896819
O457	O	0.127939	-0.179495	0.427496
O458	O	0.461273	0.153838	0.760830
O459	O	0.794606	0.487172	1.094163
H460	H	0.103761	-0.151542	0.455532
H461	H	0.437094	0.181792	0.788865
H462	H	0.770427	0.515125	1.122198
H463	H	0.036609	-0.190130	0.416847
H464	H	0.369943	0.143203	0.750180
H465	H	0.703276	0.476536	1.083514
