data_functionalizedCrystal
_audit_creation_method	'MofGen! by Chris Wilmer'
_symmetry_space_group_name_H-M	'P1'
_symmetry_Int_Tables_number	1
_symmetry_cell_setting	triclinic
loop_
_symmetry_equiv_pos_as_xyz
  x,y,z
_cell_length_a	11.792241
_cell_length_b	11.792254
_cell_length_c	9.198806
_cell_angle_alpha	89.996981
_cell_angle_beta	89.999916
_cell_angle_gamma	84.196007
loop_
_atom_site_label
_atom_site_type_symbol
_atom_site_fract_x
_atom_site_fract_y
_atom_site_fract_z
O1	O	1.506916	0.155564	-0.120752
O2	O	1.176575	0.171597	-0.120786
O3	O	1.349755	-0.001589	-0.120758
O4	O	1.333737	0.328750	-0.120780
O5	O	1.349740	-0.001589	0.121027
O6	O	1.176560	0.171597	0.120999
O7	O	1.506901	0.155565	0.121033
Cu8	Cu	1.341729	0.163581	0.143093
Cu9	Cu	1.341747	0.163580	-0.142846
O10	O	1.333722	0.328751	0.121005
C11	C	1.348738	-0.043880	0.000134
C12	C	1.345718	-0.169893	0.000133
C13	C	1.134277	0.170590	0.000102
C14	C	1.008263	0.167576	0.000090
C15	C	1.343264	-0.272229	0.000127
C16	C	1.340196	-0.400616	0.000113
C17	C	0.777551	0.162033	0.000132
C18	C	0.905936	0.165112	0.000109
C19	C	1.549199	0.156571	0.000142
C20	C	1.675213	0.159586	0.000145
C21	C	1.334738	0.371041	0.000110
C22	C	1.337758	0.497054	0.000102
N23	N	1.341725	0.163581	0.344207
C24	C	1.414615	0.090710	0.583820
C25	C	1.414602	0.090709	0.416407
N26	N	1.341751	0.163580	0.656040
H27	H	1.477012	0.028325	0.645926
C28	C	1.257462	0.247867	0.572157
H29	H	1.211755	0.293592	0.639177
H30	H	1.209993	0.206694	0.512784
H31	H	1.298645	0.295337	0.512776
H32	H	1.476980	0.028318	0.354301
H33	H	1.279336	0.225968	0.406304
