data_functionalizedCrystal
_audit_creation_method	'MofGen! by Chris Wilmer'
_symmetry_space_group_name_H-M	'P1'
_symmetry_Int_Tables_number	1
_symmetry_cell_setting	triclinic
loop_
_symmetry_equiv_pos_as_xyz
  x,y,z
_cell_length_a	17.077404
_cell_length_b	16.120484
_cell_length_c	17.077396
_cell_angle_alpha	92.867798
_cell_angle_beta	89.982756
_cell_angle_gamma	92.925780
loop_
_atom_site_label
_atom_site_type_symbol
_atom_site_fract_x
_atom_site_fract_y
_atom_site_fract_z
Zn1	Zn	1.184177	-0.331895	-0.459673
Zn2	Zn	1.177426	-0.471321	-0.335057
Zn3	Zn	1.052912	-0.331927	-0.328422
Zn4	Zn	1.046216	-0.471270	-0.466278
O5	O	1.115183	-0.401603	-0.397357
O6	O	1.293128	-0.350399	-0.443154
O7	O	1.160886	-0.452865	-0.224331
O8	O	1.075952	-0.215257	-0.340292
O9	O	1.288168	-0.452835	-0.351600
O10	O	1.172392	-0.215234	-0.436721
O11	O	1.069406	-0.350452	-0.219457
O12	O	0.942177	-0.350402	-0.346697
O13	O	1.064539	-0.452747	-0.575247
O14	O	0.937258	-0.452777	-0.447979
O15	O	1.165899	-0.350349	-0.570394
O16	O	1.154393	-0.587980	-0.358004
O17	O	1.057994	-0.587942	-0.454412
C18	C	0.911235	-0.401588	-0.397335
C19	C	0.823985	-0.401602	-0.397345
C20	C	0.780450	-0.454989	-0.450006
C21	C	0.698469	-0.454991	-0.450018
C22	C	0.660025	-0.401609	-0.397366
C23	C	0.703566	-0.348216	-0.344702
C24	C	0.785546	-0.348211	-0.344694
C25	C	0.532696	-0.348233	-0.344722
C26	C	0.450711	-0.348239	-0.344729
C27	C	0.445619	-0.455012	-0.450046
C28	C	0.527599	-0.455007	-0.450038
C29	C	0.571134	-0.401615	-0.397373
C30	C	1.104756	-0.618211	-0.407662
C31	C	1.100367	-0.710877	-0.412096
C32	C	1.092358	-0.880539	-0.420209
C33	C	1.138148	-0.921827	-0.374519
C34	C	1.133692	-1.016233	-0.379032
C35	C	1.096813	-0.786125	-0.415696
C36	C	1.319926	-0.401619	-0.397380
C37	C	1.407176	-0.401626	-0.397390
C38	C	1.115225	-0.401539	-0.602099
C39	C	1.115243	-0.401511	-0.689347
C40	C	1.125672	-0.184149	-0.387030
C41	C	1.130142	-0.091483	-0.382629
C42	C	1.067625	-0.348179	-0.727798
C43	C	1.067639	-0.348160	-0.809778
C44	C	1.115275	-0.401470	-0.853305
C45	C	1.162895	-0.454808	-0.814848
C46	C	1.162877	-0.454831	-0.732870
C47	C	1.162932	-0.454756	-0.985716
C48	C	1.162951	-0.454733	-1.067699
C49	C	1.067694	-0.348085	-1.062623
C50	C	1.067675	-0.348108	-0.980646
C51	C	1.115297	-0.401445	-0.942195
C52	C	1.115188	-0.401607	-0.193410
C53	C	1.115333	-0.401400	-0.106150
H54	H	0.811745	-0.498461	-0.492879
H55	H	0.672259	-0.304748	-0.301835
Br56	Br	1.003033	-0.275750	-0.921573
Br57	Br	0.579772	-0.527462	-0.521489
Br58	Br	1.002978	-0.275819	-0.668734
H59	H	1.180695	-0.886274	-0.332011
H60	H	1.049813	-0.916089	-0.462712
H61	H	1.028920	-0.304655	-1.093934
Br62	Br	1.002967	-0.275822	-0.861961
H63	H	1.201741	-0.498142	-1.103137
Br64	Br	0.386537	-0.527462	-0.521529
Br65	Br	0.398536	-0.275798	-0.273266
H66	H	1.201717	-0.498182	-0.954411
H67	H	1.201658	-0.498253	-0.701564
Br68	Br	0.639389	-0.527445	-0.521492
Br69	Br	0.844630	-0.275750	-0.273227
Br70	Br	0.591779	-0.275770	-0.273250
Br71	Br	1.227538	-0.527166	-0.873919
