data_functionalizedCrystal
_audit_creation_method	'MofGen! by Chris Wilmer'
_symmetry_space_group_name_H-M	'P1'
_symmetry_Int_Tables_number	1
_symmetry_cell_setting	triclinic
loop_
_symmetry_equiv_pos_as_xyz
  x,y,z
_cell_length_a	23.532407
_cell_length_b	22.610064
_cell_length_c	9.065218
_cell_angle_alpha	90.012409
_cell_angle_beta	96.067719
_cell_angle_gamma	89.996358
loop_
_atom_site_label
_atom_site_type_symbol
_atom_site_fract_x
_atom_site_fract_y
_atom_site_fract_z
O1	O	0.756573	0.049109	-0.179042
O2	O	0.590900	0.049126	-0.204952
O3	O	0.677161	0.049115	0.022814
O4	O	0.670312	0.049119	-0.406808
O5	O	0.677156	-0.049254	0.022756
O6	O	0.590895	-0.049244	-0.205010
O7	O	0.756568	-0.049261	-0.179100
Zn8	Zn	0.673730	-0.064870	-0.192064
Zn9	Zn	0.673738	0.064735	-0.191988
O10	O	0.670307	-0.049251	-0.406866
C11	C	0.569676	-0.000057	-0.204322
C12	C	0.506445	-0.000050	-0.202338
N13	N	0.673729	-0.153323	-0.192116
C14	C	0.635519	-0.438166	-0.292849
C15	C	0.635518	-0.376247	-0.292863
O16	O	0.603014	-0.344224	-0.378575
N17	N	0.673725	-0.345275	-0.192057
C18	C	0.711932	-0.376227	-0.091219
O19	O	0.744429	-0.344197	-0.005476
C20	C	0.711930	-0.438146	-0.091199
C21	C	0.673725	-0.469114	-0.192022
C22	C	0.597317	-0.469135	-0.393662
C23	C	0.597319	-0.531050	-0.393650
C24	C	0.635524	-0.561998	-0.292823
C25	C	0.673727	-0.531029	-0.192009
C26	C	0.750134	-0.469096	0.009644
C27	C	0.750128	-0.531019	0.009656
C28	C	0.711923	-0.561987	-0.091167
C29	C	0.711934	-0.623892	-0.091170
N30	N	0.673728	-0.654864	-0.191976
C31	C	0.635522	-0.623917	-0.292803
C32	C	0.711932	-0.246193	-0.091267
C33	C	0.711937	-0.184276	-0.091293
C34	C	0.635522	-0.184300	-0.292936
C35	C	0.635520	-0.246218	-0.292916
C36	C	0.673725	-0.277165	-0.192074
C37	C	0.635531	-0.753944	-0.292769
C38	C	0.635538	-0.815865	-0.292751
C39	C	0.711950	-0.815836	-0.091104
C40	C	0.711945	-0.753920	-0.091127
C41	C	0.673731	-0.722976	-0.191965
O42	O	0.744420	-0.655954	-0.005497
O43	O	0.603025	-0.655953	-0.378519
C44	C	0.108240	-0.000076	-0.324683
C45	C	0.048826	-0.000080	-0.322840
O46	O	0.012914	-0.000100	-0.436255
N47	N	0.025206	-0.000080	-0.187433
C48	C	0.061003	-0.000082	-0.053860
O49	O	0.035456	-0.000083	0.061484
C50	C	0.120415	-0.000083	-0.055704
C51	C	0.144032	-0.000077	-0.191120
C52	C	0.131857	-0.000071	-0.460088
C53	C	0.191267	-0.000066	-0.461930
C54	C	0.227059	-0.000067	-0.328367
C55	C	0.203442	-0.000072	-0.192962
C56	C	0.156211	-0.000089	0.077867
C57	C	0.215627	-0.000090	0.076011
C58	C	0.239244	-0.000084	-0.059405
C59	C	0.298644	-0.000068	-0.061242
N60	N	0.322264	-0.000068	-0.196649
C61	C	0.286472	-0.000067	-0.330211
C62	C	-0.063768	-0.000082	-0.049997
C63	C	-0.123180	-0.000077	-0.048151
C64	C	-0.135352	-0.000076	-0.317132
C65	C	-0.075939	-0.000076	-0.318976
C66	C	-0.040148	-0.000082	-0.185404
C67	C	0.411237	-0.000057	-0.334070
C68	C	0.470653	-0.000050	-0.335900
C69	C	0.482820	-0.000054	-0.066921
C70	C	0.423410	-0.000058	-0.065089
C71	C	0.387619	-0.000062	-0.198676
O72	O	0.334591	-0.000050	0.052114
O73	O	0.312027	-0.000074	-0.445536
C74	C	0.777791	-0.000077	-0.179731
C75	C	0.841023	-0.000080	-0.181714
C76	C	0.676500	-0.000068	0.077739
C77	C	0.674532	-0.000065	0.241485
N78	N	0.673743	0.153188	-0.191925
C79	C	0.670968	-0.000066	-0.461791
C80	C	0.672936	-0.000065	-0.625537
H81	H	0.604412	-0.728756	-0.374879
N82	N	-0.171911	-0.000087	-0.453581
N83	N	-0.150823	-0.000090	-0.574480
H84	H	-0.176643	-0.000098	-0.670843
H85	H	0.102721	-0.000073	-0.568857
N86	N	0.558298	-0.437530	-0.496693
N87	N	0.576838	-0.403002	-0.588052
H88	H	0.549282	-0.380685	-0.660834
N89	N	0.558291	-0.562670	-0.496653
N90	N	0.524185	-0.535021	-0.586663
H91	H	0.496619	-0.557348	-0.659416
N92	N	0.596500	-0.847488	-0.395740
N93	N	0.543858	-0.840565	-0.394404
H94	H	0.516287	-0.862896	-0.467136
N95	N	0.494765	-0.000052	-0.474245
N96	N	0.484053	-0.041518	-0.564107
H97	H	0.501080	-0.041522	-0.661812
H98	H	-0.034629	-0.000081	0.058781
H99	H	0.382103	-0.000062	-0.442849
N100	N	0.596490	-0.277840	-0.395911
N101	N	0.562385	-0.250193	-0.485926
H102	H	0.534817	-0.272523	-0.558670
H103	H	0.210490	-0.000061	-0.572199
N104	N	0.399274	-0.000052	0.073219
N105	N	0.367472	0.041408	0.104281
H106	H	0.350429	0.041408	0.201964
H107	H	-0.056715	-0.000075	-0.429243
N108	N	0.596501	-0.152672	-0.395927
N109	N	0.596512	-0.097388	-0.395917
H110	H	0.568956	-0.075048	-0.468651
H111	H	-0.142403	-0.000073	0.062118
N112	N	0.750969	-0.152655	0.011697
N113	N	0.785075	-0.180302	0.101713
H114	H	0.812640	-0.157973	0.174464
N115	N	0.132107	-0.000093	0.216206
N116	N	0.164081	-0.000097	0.335435
H117	H	0.147059	-0.000100	0.433147
H118	H	0.743047	-0.271387	-0.009154
N119	N	0.252179	-0.000102	0.212470
N120	N	0.231079	-0.000110	0.333355
H121	H	0.256892	-0.000119	0.429730
N122	N	0.750918	-0.722228	0.011873
N123	N	0.732299	-0.687672	0.103087
H124	H	0.759803	-0.665271	0.175843
H125	H	0.511972	-0.000052	0.041822
H126	H	0.781244	-0.443890	0.091744
N127	N	0.789155	-0.562620	0.112685
N128	N	0.823260	-0.534957	0.202692
H129	H	0.850823	-0.557273	0.275456
N130	N	0.750979	-0.847463	0.011851
N131	N	0.750973	-0.902747	0.011830
H132	H	0.778537	-0.925087	0.084542
