data_functionalizedCrystal
_audit_creation_method	'MofGen! by Chris Wilmer'
_symmetry_space_group_name_H-M	'P1'
_symmetry_Int_Tables_number	1
_symmetry_cell_setting	triclinic
loop_
_symmetry_equiv_pos_as_xyz
  x,y,z
_cell_length_a	12.759401
_cell_length_b	18.215405
_cell_length_c	12.759393
_cell_angle_alpha	89.964517
_cell_angle_beta	90.018567
_cell_angle_gamma	89.972312
loop_
_atom_site_label
_atom_site_type_symbol
_atom_site_fract_x
_atom_site_fract_y
_atom_site_fract_z
Zn1	Zn	1.606154	0.292960	0.593955
Zn2	Zn	1.606005	0.416046	0.418263
Zn3	Zn	1.430456	0.292996	0.418294
Zn4	Zn	1.430401	0.415987	0.593904
O5	O	1.518254	0.354497	0.506104
O6	O	1.753155	0.309297	0.570657
O7	O	1.582679	0.399763	0.271246
O8	O	1.453847	0.190007	0.441630
O9	O	1.753046	0.399728	0.441577
O10	O	1.582932	0.189980	0.570687
O11	O	1.453703	0.309358	0.271269
O12	O	1.283427	0.309301	0.441581
O13	O	1.453755	0.399627	0.740932
O14	O	1.283388	0.399662	0.570601
O15	O	1.582879	0.309240	0.740969
O16	O	1.582626	0.519022	0.441528
O17	O	1.453611	0.518979	0.570571
C18	C	1.245287	0.354480	0.506089
C19	C	1.128510	0.354490	0.506108
C20	C	1.073698	0.307492	0.573424
C21	C	0.963974	0.307506	0.573431
C22	C	0.963884	0.401523	0.438802
C23	C	1.073606	0.401505	0.438791
C24	C	1.073749	0.253213	0.651154
C25	C	0.964025	0.253228	0.651161
C26	C	1.518125	0.545703	0.506063
C27	C	1.518166	0.627502	0.506081
C28	C	1.585385	0.815621	0.573368
C29	C	1.585411	0.892480	0.573386
C30	C	1.451106	0.892621	0.438882
C31	C	1.451075	0.815764	0.438870
C32	C	1.518220	0.777266	0.506111
C33	C	1.518278	0.930982	0.506141
C34	C	1.518307	1.014315	0.506160
C35	C	1.518190	0.693927	0.506094
C36	C	1.792287	0.354515	0.506119
C37	C	1.909064	0.354523	0.506126
C38	C	1.518328	0.354423	0.780137
C39	C	1.518359	0.354391	0.896914
C40	C	1.518375	1.162544	0.506162
C41	C	1.518332	1.080745	0.506172
C42	C	1.518241	0.354518	0.233136
C43	C	1.518413	0.354342	0.116360
C44	C	1.585603	0.307322	0.951797
C45	C	1.585628	0.307295	1.061521
C46	C	1.451162	0.401414	1.061470
C47	C	1.451132	0.401436	0.951747
C48	C	1.663240	0.252986	0.951828
C49	C	1.663265	0.252959	1.061552
H50	H	1.103535	0.196193	0.629506
H51	H	1.396440	0.923975	0.384135
C52	C	0.918445	0.181052	0.612568
C53	C	0.808870	0.184929	0.614659
C54	C	0.766845	0.118452	0.579139
H55	H	0.941377	0.142237	0.656735
H56	H	0.941323	0.172149	0.542872
H57	H	0.786002	0.193823	0.684343
H58	H	0.785909	0.223731	0.570489
H59	H	0.789723	0.109549	0.509444
H60	H	0.789784	0.079642	0.623310
H61	H	0.692494	0.121076	0.580544
H62	H	1.107807	0.273690	0.728390
C63	C	1.377978	0.774209	0.365904
C64	C	1.274024	0.792962	0.388672
C65	C	1.206660	0.754704	0.321476
H66	H	1.387431	0.722911	0.375464
H67	H	1.393336	0.786845	0.295310
H68	H	1.258671	0.780320	0.459249
H69	H	1.264537	0.844253	0.379106
H70	H	1.222018	0.767341	0.250882
H71	H	1.216122	0.703408	0.331041
H72	H	1.136120	0.767428	0.336908
H73	H	1.118230	0.439769	0.383966
H74	H	0.934274	0.268564	0.732495
H75	H	1.396426	0.439714	1.106128
H76	H	1.640057	0.784278	0.628121
H77	H	1.740504	0.273418	0.917790
H78	H	1.640101	0.923706	0.628155
H79	H	1.641491	0.195992	0.922078
H80	H	0.919167	0.439801	0.383995
C81	C	1.378065	0.452608	0.892348
C82	C	1.319216	0.493811	0.963857
C83	C	1.251897	0.540962	0.909177
H84	H	1.332215	0.424532	0.849559
H85	H	1.418176	0.484731	0.849549
H86	H	1.279107	0.461692	1.006638
H87	H	1.365037	0.521901	1.006649
H88	H	1.292008	0.573085	0.866378
H89	H	1.206054	0.512881	0.866389
H90	H	1.211967	0.568929	0.957687
H91	H	1.634170	0.198806	1.095605
H92	H	1.744630	0.268225	1.091329
