data_functionalizedCrystal
_audit_creation_method	'MofGen! by Chris Wilmer'
_symmetry_space_group_name_H-M	'P1'
_symmetry_Int_Tables_number	1
_symmetry_cell_setting	triclinic
loop_
_symmetry_equiv_pos_as_xyz
  x,y,z
_cell_length_a	13.635800
_cell_length_b	11.020161
_cell_length_c	20.028041
_cell_angle_alpha	106.293458
_cell_angle_beta	122.470605
_cell_angle_gamma	72.707607
loop_
_atom_site_label
_atom_site_type_symbol
_atom_site_fract_x
_atom_site_fract_y
_atom_site_fract_z
V1	V	-1.898324	-0.396082	-0.109475
O2	O	-1.838963	-0.388720	0.005267
O3	O	-1.928063	-0.393203	-0.217078
O4	O	-1.799675	-0.568905	-0.107789
O5	O	-1.968239	-0.211801	-0.104778
V6	V	-2.142796	-0.374062	-0.095751
O7	O	-2.023008	-0.444387	-0.139581
O8	O	-2.243210	-0.325757	-0.065646
O9	O	-2.001453	-0.376941	0.011851
O10	O	-2.260856	-0.381424	-0.210494
O11	O	-2.131579	-0.558343	-0.100448
O12	O	-2.129841	-0.201239	-0.097438
C13	C	-1.866094	-0.386911	-0.243309
C14	C	-1.930556	-0.385708	-0.331275
C15	C	-1.702322	-0.611035	-0.103899
C16	C	-1.662665	-0.752318	-0.103232
C17	C	-2.051170	-0.391487	-0.376620
C18	C	-2.111750	-0.390377	-0.459276
C19	C	-2.051715	-0.383479	-0.496585
C20	C	-1.931089	-0.377704	-0.451235
C21	C	-1.870509	-0.378823	-0.368581
V22	V	-1.398324	-0.396082	-0.109475
O23	O	-1.338963	-0.388720	0.005267
O24	O	-1.428063	-0.393203	-0.217078
O25	O	-1.299675	-0.568905	-0.107789
O26	O	-1.468239	-0.211801	-0.104778
V27	V	-1.642796	-0.374062	-0.095751
O28	O	-1.523008	-0.444387	-0.139581
O29	O	-1.743210	-0.325757	-0.065646
O30	O	-1.501453	-0.376941	0.011851
O31	O	-1.760856	-0.381424	-0.210494
O32	O	-1.631579	-0.558343	-0.100448
O33	O	-1.629841	-0.201239	-0.097438
C34	C	-1.596092	-0.800661	-0.030457
C35	C	-1.558828	-0.933413	-0.029838
C36	C	-1.654721	-0.969467	-0.174774
C37	C	-1.691976	-0.836717	-0.175392
C38	C	-1.392310	-1.089021	0.060608
C39	C	-1.325751	-1.137370	0.133385
C40	C	-1.353521	-1.082525	0.194626
C41	C	-1.447871	-0.979335	0.183091
C42	C	-1.514438	-0.930994	0.110312
C43	C	-1.486644	-0.985835	0.049075
C44	C	-1.858500	-0.681106	-0.265833
C45	C	-1.925075	-0.632763	-0.338613
C46	C	-1.897316	-0.687607	-0.399861
C47	C	-1.802985	-0.790804	-0.388335
C48	C	-1.736410	-0.839147	-0.315554
C49	C	-1.764169	-0.784294	-0.254306
C50	C	-1.895097	-0.383230	0.038078
C51	C	-1.820251	-0.384440	0.126043
C52	C	-1.558869	-0.159102	-0.101330
C53	C	-1.588145	-0.017819	-0.101994
C54	C	-1.872107	-0.378670	0.171400
C55	C	-1.801778	-0.379787	0.254055
C56	C	-1.679592	-0.386683	0.291350
C57	C	-1.627734	-0.392450	0.245988
C58	C	-1.698064	-0.391324	0.163335
C59	C	-1.462888	-0.390391	0.540706
C60	C	-1.392559	-0.391520	0.623364
C61	C	-1.566609	-0.378854	0.631426
C62	C	-1.636932	-0.377737	0.548771
C63	C	-1.585069	-0.383497	0.503416
C64	C	-1.607701	-0.387829	0.375836
C65	C	-1.656960	-0.382342	0.418933
C66	C	-1.369576	-0.386921	0.756690
C67	C	-1.444416	-0.385750	0.668721
C68	C	-2.058869	-0.159102	-0.101330
C69	C	-2.088145	-0.017819	-0.101994
C70	C	-1.202322	-0.611035	-0.103899
C71	C	-1.162665	-0.752318	-0.103232
C72	C	-1.395097	-0.383230	0.038078
C73	C	-1.320251	-0.384440	0.126043
C74	C	-1.372129	-0.378665	0.171388
C75	C	-1.301819	-0.379781	0.254043
C76	C	-1.179630	-0.386682	0.291352
C77	C	-1.127750	-0.392454	0.246002
C78	C	-1.198061	-0.391329	0.163349
C79	C	-2.159572	0.030517	-0.174771
C80	C	-2.187079	0.163268	-0.175396
C81	C	-2.071728	0.199337	-0.030459
C82	C	-2.044215	0.066588	-0.029836
C83	C	-2.237975	0.318872	-0.265846
C84	C	-2.309424	0.367212	-0.338627
C85	C	-2.407416	0.312355	-0.399868
C86	C	-2.433988	0.209160	-0.388330
C87	C	-2.362549	0.160827	-0.315548
C88	C	-2.264535	0.215680	-0.254311
C89	C	-1.993331	-0.089019	0.060610
C90	C	-1.921897	-0.137353	0.133393
C91	C	-1.823904	-0.082496	0.194641
C92	C	-1.797342	0.020706	0.183113
C93	C	-1.868775	0.069040	0.110329
C94	C	-1.966765	0.014174	0.049081
H95	H	-2.100075	-0.397097	-0.346253
H96	H	-1.344082	-0.375083	0.290955
H97	H	-2.035968	0.268077	0.028289
F98	F	-1.225338	-1.247188	0.145659
F99	F	-0.997705	-0.399792	0.285722
F100	F	-1.502172	-0.371321	0.131696
H101	H	-1.122392	-0.387597	0.358654
H102	H	-1.881097	-0.636425	-0.215957
H103	H	-1.155802	-0.396043	0.126435
H104	H	-1.591258	-0.846981	0.100920
F105	F	-1.968185	-0.636160	-0.477324
H106	H	-1.756448	-0.376718	0.388564
H107	H	-1.369680	-1.133676	0.010749
F108	F	-2.206323	-0.059311	-0.251568
F109	F	-2.390823	0.051009	-0.303267
H110	H	-1.844011	-0.375092	0.290981
F111	F	-2.538299	0.150796	-0.453510
F112	F	-1.693033	0.079077	0.248293
H113	H	-1.608824	-0.374163	0.668363
H114	H	-2.101056	-0.382569	-0.563887
F115	F	-1.766973	-0.370397	0.509085
H116	H	-1.765751	-0.121853	0.253908
F117	F	-1.497694	-0.399773	0.285684
H118	H	-1.882220	-0.372087	-0.481624
H119	H	-1.772298	-0.374110	-0.331666
H120	H	-2.001890	-0.548737	-0.347996
H121	H	-2.465591	0.351722	-0.459127
F122	F	-1.564898	-0.710842	0.046342
F123	F	-1.685941	-1.059303	-0.251569
F124	F	-2.281144	0.477040	-0.350902
F125	F	-2.002147	-0.371339	0.131715
F126	F	-1.262510	-0.398866	0.663053
F127	F	-1.950180	-0.247180	0.145666
H128	H	-1.659597	-0.923176	-0.306172
H129	H	-2.158174	0.363537	-0.215987
H130	H	-1.847138	0.153071	0.100945
F131	F	-1.407684	-0.396505	0.492448
F132	F	-1.477432	-0.920982	0.248271
H133	H	-2.073119	-0.133702	0.010737
H134	H	-2.209969	-0.395077	-0.496189
H135	H	-1.299324	-1.121900	0.253883
F136	F	-1.477660	-0.395159	0.415537
F137	F	-1.773443	-0.849183	-0.453523
H138	H	-1.655829	-0.396050	0.126404
