data_functionalizedCrystal
_audit_creation_method	'MofGen! by Chris Wilmer'
_symmetry_space_group_name_H-M	'P1'
_symmetry_Int_Tables_number	1
_symmetry_cell_setting	triclinic
loop_
_symmetry_equiv_pos_as_xyz
  x,y,z
_cell_length_a	14.044220
_cell_length_b	27.731996
_cell_length_c	13.101039
_cell_angle_alpha	93.327690
_cell_angle_beta	86.340132
_cell_angle_gamma	87.905133
loop_
_atom_site_label
_atom_site_type_symbol
_atom_site_fract_x
_atom_site_fract_y
_atom_site_fract_z
O1	O	1.261204	0.114021	-0.085131
O2	O	1.594537	0.447355	0.248203
O3	O	1.927871	0.780688	0.581536
O4	O	0.985299	0.109818	-0.085156
O5	O	1.318633	0.443151	0.248178
O6	O	1.651966	0.776485	0.581511
O7	O	1.131845	0.041925	-0.085120
O8	O	1.465178	0.375258	0.248213
O9	O	1.798512	0.708592	0.581546
O10	O	1.114658	0.181914	-0.085166
O11	O	1.447992	0.515247	0.248167
O12	O	1.781325	0.848581	0.581501
O13	O	1.121330	0.046805	0.085307
O14	O	1.454664	0.380138	0.418640
O15	O	1.787997	0.713472	0.751974
O16	O	0.974785	0.114698	0.085272
O17	O	1.308118	0.448031	0.418605
O18	O	1.641452	0.781365	0.751938
O19	O	1.250689	0.118901	0.085297
O20	O	1.584023	0.452235	0.418630
O21	O	1.917356	0.785568	0.751963
Zn22	Zn	1.111068	0.117574	0.112343
Zn23	Zn	1.444401	0.450908	0.445677
Zn24	Zn	1.777734	0.784241	0.779010
Zn25	Zn	1.124921	0.111145	-0.112202
Zn26	Zn	1.458255	0.444478	0.221131
Zn27	Zn	1.791588	0.777811	0.554465
O28	O	1.104144	0.186794	0.085261
O29	O	1.437477	0.520128	0.418595
O30	O	1.770810	0.853461	0.751928
C31	C	0.944756	0.110418	0.000055
C32	C	1.278089	0.443752	0.333389
C33	C	1.611422	0.777085	0.666722
C34	C	0.839613	0.104931	0.000047
C35	C	1.172946	0.438264	0.333380
C36	C	1.506279	0.771598	0.666713
C37	C	1.126234	0.026341	0.000097
C38	C	1.459568	0.359675	0.333430
C39	C	1.792901	0.693008	0.666764
C40	C	1.125170	-0.027365	0.000107
C41	C	1.458504	0.305969	0.333441
C42	C	1.791837	0.639302	0.666774
C43	C	0.647100	0.094900	0.000070
C44	C	0.980434	0.428233	0.333404
C45	C	1.313767	0.761567	0.666737
C46	C	0.588883	0.133817	0.000062
C47	C	0.922217	0.467150	0.333395
C48	C	1.255550	0.800484	0.666728
C49	C	0.481763	0.128236	0.000075
C50	C	0.815096	0.461569	0.333408
C51	C	1.148430	0.794902	0.666742
C52	C	0.754231	0.100481	0.000057
C53	C	1.087564	0.433814	0.333390
C54	C	1.420898	0.767147	0.666724
C55	C	1.124213	-0.363057	-0.092843
C56	C	1.457547	-0.029723	0.240490
C57	C	1.790880	0.303610	0.573823
C58	C	1.120176	-0.564905	-0.092862
C59	C	1.453509	-0.231571	0.240472
C60	C	1.786842	0.101762	0.573805
O61	O	1.124487	-0.593264	-0.171870
O62	O	1.457820	-0.259931	0.161463
O63	O	1.791154	0.073402	0.494796
N64	N	1.113942	-0.587485	0.000037
N65	N	1.447276	-0.254152	0.333371
N66	N	1.780609	0.079181	0.666704
C67	C	1.108712	-0.559600	0.092948
C68	C	1.442046	-0.226267	0.426281
C69	C	1.775379	0.107066	0.759614
O70	O	1.103308	-0.583438	0.171963
O71	O	1.436641	-0.250105	0.505297
O72	O	1.769975	0.083229	0.838630
C73	C	1.112743	-0.357753	0.092965
C74	C	1.446076	-0.024420	0.426298
C75	C	1.779410	0.308914	0.759631
C76	C	1.118986	-0.335175	0.000060
C77	C	1.452320	-0.001842	0.333393
C78	C	1.785653	0.331491	0.666726
C79	C	1.130455	-0.340479	-0.185741
C80	C	1.463788	-0.007145	0.147593
C81	C	1.797121	0.326188	0.480926
C82	C	1.131469	-0.290020	-0.185735
C83	C	1.464803	0.043314	0.147598
C84	C	1.798136	0.376647	0.480931
C85	C	1.126242	-0.262139	-0.092832
C86	C	1.459576	0.071195	0.240501
C87	C	1.792909	0.404528	0.573834
C88	C	1.120001	-0.284716	0.000065
C89	C	1.453334	0.048617	0.333399
C90	C	1.786667	0.381950	0.666732
C91	C	1.107506	-0.329869	0.185874
C92	C	1.440839	0.003464	0.519207
C93	C	1.774173	0.336798	0.852541
C94	C	1.108512	-0.279404	0.185870
C95	C	1.441845	0.053929	0.519203
C96	C	1.775179	0.387263	0.852537
C97	C	1.114755	-0.256826	0.092965
C98	C	1.448088	0.076507	0.426298
C99	C	1.781422	0.409840	0.759632
C100	C	1.115788	-0.206376	0.092974
C101	C	1.449122	0.126957	0.426307
C102	C	1.782455	0.460290	0.759641
N103	N	1.122021	-0.183796	0.000075
N104	N	1.455355	0.149538	0.333408
N105	N	1.788688	0.482871	0.666742
C106	C	1.127248	-0.211677	-0.092828
C107	C	1.460582	0.121656	0.240505
C108	C	1.793915	0.454990	0.573838
C109	C	1.106598	-0.665574	0.092932
C110	C	1.439932	-0.332240	0.426265
C111	C	1.773265	0.001093	0.759599
C112	C	1.105592	-0.716035	0.092928
C113	C	1.438925	-0.382702	0.426261
C114	C	1.772259	-0.049369	0.759594
C115	C	1.117054	-0.721336	-0.092882
C116	C	1.450387	-0.388003	0.240452
C117	C	1.783720	-0.054669	0.573785
C118	C	1.118067	-0.670874	-0.092877
C119	C	1.451400	-0.337540	0.240457
C120	C	1.784733	-0.004207	0.573790
C121	C	1.112831	-0.642993	0.000033
C122	C	1.446165	-0.309660	0.333366
C123	C	1.779498	0.023674	0.666700
C124	C	1.129379	-0.105709	-0.092810
C125	C	1.462713	0.227624	0.240524
C126	C	1.796046	0.560957	0.573857
C127	C	1.130397	-0.055246	-0.092796
C128	C	1.463731	0.278088	0.240538
C129	C	1.797064	0.611421	0.573871
C130	C	1.118931	-0.049949	0.093013
C131	C	1.452264	0.283384	0.426347
C132	C	1.785597	0.616717	0.759680
C133	C	1.117918	-0.100408	0.093000
C134	C	1.451251	0.232925	0.426333
C135	C	1.784584	0.566258	0.759667
C136	C	1.123139	-0.128287	0.000080
C137	C	1.456473	0.205046	0.333414
C138	C	1.789806	0.538379	0.666747
O139	O	1.111469	-0.177987	0.171941
O140	O	1.444802	0.155347	0.505274
O141	O	1.778136	0.488680	0.838608
O142	O	1.132631	-0.187830	-0.171832
O143	O	1.465964	0.145503	0.161501
O144	O	1.799297	0.478837	0.494834
C145	C	1.123199	-0.413515	-0.092849
C146	C	1.456532	-0.080182	0.240484
C147	C	1.789865	0.253151	0.573818
C148	C	1.116957	-0.436093	0.000049
C149	C	1.450291	-0.102760	0.333382
C150	C	1.783624	0.230573	0.666715
C151	C	1.111730	-0.408212	0.092952
C152	C	1.445064	-0.074879	0.426285
C153	C	1.778397	0.258454	0.759618
C154	C	1.115951	-0.486555	0.000045
C155	C	1.449285	-0.153222	0.333378
C156	C	1.782618	0.180112	0.666711
C157	C	1.121178	-0.514436	-0.092858
C158	C	1.454512	-0.181103	0.240475
C159	C	1.787845	0.152231	0.573808
C160	C	1.127411	-0.491856	-0.185757
C161	C	1.460745	-0.158522	0.147576
C162	C	1.794078	0.174811	0.480909
C163	C	1.128426	-0.441397	-0.185752
C164	C	1.461759	-0.108063	0.147581
C165	C	1.795092	0.225270	0.480915
C166	C	1.105497	-0.430793	0.185851
C167	C	1.438830	-0.097459	0.519184
C168	C	1.772164	0.235874	0.852517
C169	C	1.104484	-0.481252	0.185838
C170	C	1.437817	-0.147919	0.519171
C171	C	1.771151	0.185415	0.852504
C172	C	1.109711	-0.509133	0.092935
C173	C	1.443045	-0.175800	0.426268
C174	C	1.776378	0.157534	0.759601
C175	C	1.291233	0.118301	0.000084
C176	C	1.624567	0.451634	0.333417
C177	C	1.957900	0.784968	0.666750
C178	C	1.396377	0.123788	0.000085
C179	C	1.729710	0.457121	0.333419
C180	C	2.063043	0.790455	0.666752
C181	C	1.109755	0.202378	0.000042
C182	C	1.443088	0.535711	0.333375
C183	C	1.776421	0.869045	0.666709
C184	C	1.110819	0.256084	0.000025
C185	C	1.444153	0.589417	0.333358
C186	C	1.777486	0.922750	0.666691
N187	N	1.101620	0.121963	0.265589
N188	N	1.434953	0.455296	0.598923
N189	N	1.768287	0.788629	0.932256
N190	N	1.134376	0.106753	-0.265448
N191	N	1.467710	0.440087	0.067885
N192	N	1.801043	0.773420	0.401218
C193	C	1.088766	0.127937	0.474629
C194	C	1.422099	0.461270	0.807962
C195	C	1.755433	0.794604	1.141296
C196	C	1.147227	0.100780	0.525519
C197	C	1.480561	0.434113	0.858852
C198	C	1.813894	0.767447	1.192185
C199	C	1.140075	0.104104	0.641835
C200	C	1.473409	0.437438	0.975169
C201	C	1.806742	0.770771	1.308502
C202	C	1.095917	0.124613	0.358302
C203	C	1.429250	0.457947	0.691635
C204	C	1.762584	0.791280	1.024968
H205	H	0.619492	0.171327	0.000045
H206	H	0.952826	0.504660	0.333378
H207	H	1.286159	0.837993	0.666711
H208	H	0.616493	0.057393	0.000088
H209	H	0.949827	0.390727	0.333421
H210	H	1.283160	0.724060	0.666755
F211	F	1.135070	-0.417374	-0.284635
F212	F	1.468403	-0.084041	0.048698
F213	F	1.801736	0.249292	0.382032
F214	F	1.137045	-0.031220	-0.191682
F215	F	1.470378	0.302113	0.141651
F216	F	1.803712	0.635447	0.474984
H217	H	1.133627	-0.128403	-0.168474
H218	H	1.466960	0.204931	0.164860
H219	H	1.800293	0.538264	0.498193
H220	H	1.101242	-0.408097	0.261505
H221	H	1.434575	-0.074763	0.594839
H222	H	1.767909	0.258570	0.928172
F223	F	1.138108	-0.265997	-0.284619
F224	F	1.471441	0.067336	0.048715
F225	F	1.804774	0.400669	0.382048
H226	H	1.202650	0.075034	0.481730
H227	H	1.535983	0.408367	0.815063
H228	H	1.869316	0.741701	1.148397
H229	H	1.100523	-0.734414	0.168580
H230	H	1.433856	-0.401080	0.501914
H231	H	1.767189	-0.067747	0.835247
F232	F	1.016331	0.161589	0.531858
F233	F	1.349665	0.494922	0.865192
F234	F	1.682998	0.828255	1.198525
F235	F	1.124709	-0.646849	-0.191758
F236	F	1.458043	-0.313516	0.141576
F237	F	1.791376	0.019817	0.474909
F238	F	1.136018	-0.370145	-0.284630
F239	F	1.469351	-0.036811	0.048703
F240	F	1.802685	0.296522	0.382037
F241	F	1.122614	-0.751018	-0.191757
F242	F	1.455947	-0.417684	0.141577
F243	F	1.789281	-0.084351	0.474910
F244	F	1.113370	-0.020267	0.191882
F245	F	1.446703	0.313066	0.525216
F246	F	1.780037	0.646399	0.858549
F247	F	1.100857	-0.353886	0.284758
F248	F	1.434191	-0.020553	0.618091
F249	F	1.767524	0.312780	0.951425
F250	F	1.101021	-0.635907	0.191826
F251	F	1.434354	-0.302573	0.525159
F252	F	1.767687	0.030760	0.858492
F253	F	1.111290	-0.124438	0.191879
F254	F	1.444624	0.208895	0.525213
F255	F	1.777957	0.542228	0.858546
F256	F	1.102939	-0.249734	0.284760
F257	F	1.436272	0.083599	0.618093
F258	F	1.769606	0.416933	0.951427
F259	F	1.097845	-0.505275	0.284727
F260	F	1.431179	-0.171942	0.618061
F261	F	1.764512	0.161392	0.951394
F262	F	1.132979	-0.521538	-0.284632
F263	F	1.466313	-0.188204	0.048701
F264	F	1.799646	0.145129	0.382035
