data_functionalizedCrystal
_audit_creation_method	'MofGen! by Chris Wilmer'
_symmetry_space_group_name_H-M	'P1'
_symmetry_Int_Tables_number	1
_symmetry_cell_setting	triclinic
loop_
_symmetry_equiv_pos_as_xyz
  x,y,z
_cell_length_a	10.868271
_cell_length_b	11.792241
_cell_length_c	11.792241
_cell_angle_alpha	84.193416
_cell_angle_beta	89.994719
_cell_angle_gamma	89.996558
loop_
_atom_site_label
_atom_site_type_symbol
_atom_site_fract_x
_atom_site_fract_y
_atom_site_fract_z
O1	O	-0.102298	1.506908	0.155568
O2	O	0.397702	2.006908	0.655568
O3	O	-0.102306	1.176567	0.171601
O4	O	0.397694	1.676567	0.671601
O5	O	-0.102294	1.349754	-0.001586
O6	O	0.397706	1.849754	0.498414
O7	O	-0.102311	1.333721	0.328755
O8	O	0.397689	1.833721	0.828755
O9	O	0.102351	1.349740	-0.001592
O10	O	0.602351	1.849740	0.498408
O11	O	0.102338	1.176553	0.171595
O12	O	0.602338	1.676553	0.671595
O13	O	0.102346	1.506894	0.155562
O14	O	0.602346	2.006894	0.655562
Zn15	Zn	0.134834	1.341721	0.163577
Zn16	Zn	0.634834	1.841721	0.663577
Zn17	Zn	-0.134794	1.341740	0.163586
Zn18	Zn	0.365206	1.841740	0.663586
O19	O	0.102333	1.333707	0.328749
O20	O	0.602333	1.833707	0.828749
C21	C	0.000015	1.134269	0.170591
C22	C	0.500015	1.634269	0.670591
C23	C	0.000012	1.008255	0.167576
C24	C	0.500012	1.508255	0.667576
N25	N	0.318848	1.341717	0.163570
N26	N	0.818848	1.841717	0.663570
C27	C	0.000028	1.348740	-0.043880
C28	C	0.500028	1.848740	0.456120
C29	C	0.000027	1.345726	-0.169894
C30	C	0.500027	1.845726	0.330106
N31	N	-0.318808	1.341754	0.163584
N32	N	0.181192	1.841754	0.663584
C33	C	0.569854	1.341734	0.163584
C34	C	1.069854	1.841734	0.663584
C35	C	0.430177	1.341721	0.163580
C36	C	0.930177	1.841721	0.663580
C37	C	0.000022	1.549192	0.156572
C38	C	0.500022	2.049192	0.656572
C39	C	0.000017	1.675206	0.159587
C40	C	0.500017	2.175206	0.659587
C41	C	0.000017	1.905918	0.165130
C42	C	0.500017	2.405918	0.665130
C43	C	0.000017	1.777533	0.162050
C44	C	0.500017	2.277533	0.662050
C45	C	0.000006	1.340183	-0.400606
C46	C	0.500006	1.840183	0.099394
C47	C	0.000018	1.343262	-0.272221
C48	C	0.500018	1.843262	0.227779
C49	C	0.000009	1.334721	0.371043
C50	C	0.500009	1.834721	0.871043
C51	C	0.000002	1.337736	0.497057
C52	C	0.500002	1.837736	0.997057
