data_functionalizedCrystal
_audit_creation_method	'MofGen! by Chris Wilmer'
_symmetry_space_group_name_H-M	'P1'
_symmetry_Int_Tables_number	1
_symmetry_cell_setting	triclinic
loop_
_symmetry_equiv_pos_as_xyz
  x,y,z
_cell_length_a	6.817900
_cell_length_b	9.109307
_cell_length_c	13.561464
_cell_angle_alpha	112.916403
_cell_angle_beta	104.692446
_cell_angle_gamma	111.764999
loop_
_atom_site_label
_atom_site_type_symbol
_atom_site_fract_x
_atom_site_fract_y
_atom_site_fract_z
V1	V	-4.205375	-0.398151	-0.384195
O2	O	-4.124946	-0.148289	-0.353789
O3	O	-4.217744	-0.628446	-0.403777
O4	O	-4.206553	-0.465488	-0.541623
O5	O	-4.136214	-0.312375	-0.214989
V6	V	-4.674704	-0.359584	-0.361258
O7	O	-4.497768	-0.482749	-0.434508
O8	O	-4.832508	-0.274986	-0.310945
O9	O	-4.439128	-0.129289	-0.341676
O10	O	-4.872529	-0.609446	-0.391665
O11	O	-4.861261	-0.445360	-0.530465
O12	O	-4.450319	-0.292247	-0.203830
C13	C	-4.075924	-0.682292	-0.403447
C14	C	-4.167655	-0.871035	-0.420507
C15	C	-4.061647	-0.474420	-0.579281
C16	C	-4.144297	-0.530999	-0.708125
C17	C	-4.029227	-0.036871	-0.945312
C18	C	-3.951515	0.016189	-0.824273
C19	C	-3.999705	-0.120603	-0.795230
C20	C	-4.125618	-0.310465	-0.887238
C21	C	-4.203354	-0.363531	-1.008290
C22	C	-4.173832	-0.447264	-0.858207
C23	C	-4.299745	-0.637125	-0.950216
C24	C	-4.377469	-0.690182	-1.071254
C25	C	-4.329280	-0.553390	-1.100298
C26	C	-4.096096	-0.394197	-0.737156
C27	C	-4.270222	-0.720858	-0.800133
C28	C	-4.347935	-0.773918	-0.921172
C29	C	-4.244291	-0.075450	-0.342004
C30	C	-4.131802	0.113287	-0.324951
C31	C	-4.258566	-0.283318	-0.166166
C32	C	-4.155153	-0.226729	-0.037320
H33	H	-3.993581	-0.239611	-0.662253
O34	O	-4.405169	-0.605174	-1.217932
C35	C	-4.655839	-0.723016	-1.281966
H36	H	-4.720892	-0.791341	-1.232713
H37	H	-4.710841	-0.836424	-1.377005
H38	H	-4.738482	-0.636580	-1.287964
O39	O	-4.316598	-0.853648	-0.771849
C40	C	-4.099885	-0.822100	-0.697368
H41	H	-3.950257	-0.738031	-0.711577
H42	H	-4.116590	-0.962391	-0.721702
H43	H	-4.057571	-0.740371	-0.598600
H44	H	-4.480020	-0.844781	-1.146168
O45	O	-3.982757	0.096031	-0.973486
C46	C	-4.087705	0.197803	-0.931051
H47	H	-4.240920	0.109438	-0.920602
H48	H	-4.158767	0.233414	-0.998505
H49	H	-3.948296	0.332847	-0.839737
O50	O	-3.924070	-0.069287	-0.677690
C51	C	-3.768860	-0.130527	-0.648186
H52	H	-3.805482	-0.252940	-0.734218
H53	H	-3.799460	-0.177709	-0.584112
H54	H	-3.576137	-0.010457	-0.602372
O55	O	-4.011879	-0.730533	-0.211739
C56	C	-4.160714	-0.740668	-0.155847
H57	H	-4.355377	-0.839185	-0.228150
H58	H	-4.126888	-0.594939	-0.098250
H59	H	-4.120228	-0.796074	-0.095946
O60	O	-4.287929	-1.027488	-0.533629
C61	C	-4.355824	-1.187458	-0.526094
H62	H	-4.233404	-1.145657	-0.432648
H63	H	-4.340932	-1.294941	-0.597962
H64	H	-4.548034	-1.251133	-0.541580
H65	H	-3.849005	0.170774	-0.749368
H66	H	-4.450462	-0.928506	-0.996102
