data_functionalizedCrystal
_audit_creation_method	'MofGen! by Chris Wilmer'
_symmetry_space_group_name_H-M	'P1'
_symmetry_Int_Tables_number	1
_symmetry_cell_setting	triclinic
loop_
_symmetry_equiv_pos_as_xyz
  x,y,z
_cell_length_a	10.723024
_cell_length_b	15.500227
_cell_length_c	10.723024
_cell_angle_alpha	87.143660
_cell_angle_beta	84.467869
_cell_angle_gamma	92.871156
loop_
_atom_site_label
_atom_site_type_symbol
_atom_site_fract_x
_atom_site_fract_y
_atom_site_fract_z
O1	O	1.662943	0.071936	0.169284
O2	O	1.299791	0.071939	0.186037
O3	O	1.489743	0.071934	-0.003915
O4	O	1.472991	0.071941	0.359237
O5	O	1.478216	-0.071954	0.007566
O6	O	1.288264	-0.071950	0.197519
O7	O	1.651416	-0.071952	0.180765
Cu8	Cu	1.468787	-0.085089	0.190190
Cu9	Cu	1.482420	0.085076	0.176612
O10	O	1.461464	-0.071948	0.370718
C11	C	1.247528	-0.000005	0.190559
C12	C	1.108974	-0.000004	0.186911
N13	N	1.459208	-0.204774	0.199740
C14	C	1.033991	-0.000001	0.293198
C15	C	0.890788	-0.000000	0.289431
C16	C	1.539726	-0.250052	0.119280
C17	C	1.532493	-0.340625	0.126514
C18	C	1.444748	-0.385917	0.214214
C19	C	1.364221	-0.340632	0.294676
C20	C	1.371449	-0.250061	0.287436
C21	C	1.418710	-0.659384	0.240276
C22	C	1.411491	-0.749961	0.247513
C23	C	1.579762	-0.749947	0.079348
C24	C	1.586987	-0.659375	0.072120
C25	C	1.506456	-0.614098	0.152578
C26	C	1.437355	-0.478497	0.221612
C27	C	1.513844	-0.521519	0.145173
C28	C	1.703679	-0.000006	0.176244
C29	C	1.842234	-0.000002	0.179891
C30	C	1.482761	-0.000009	-0.044674
C31	C	1.479113	-0.000006	-0.183229
N32	N	1.492008	0.204760	0.167053
C33	C	1.585401	-0.000005	-0.258211
C34	C	1.581634	-0.000002	-0.401415
C35	C	1.468446	-0.000003	0.411477
C36	C	1.472094	0.000000	0.550031
H37	H	1.075813	-0.000005	0.386985
H38	H	0.826356	0.000005	0.380421
H39	H	0.906659	0.000002	0.088895
H40	H	1.381098	-0.000006	-0.385543
H41	H	1.611183	-0.213181	0.047871
H42	H	1.385328	0.000001	-0.225051
H43	H	1.585282	-0.484640	0.073763
H44	H	1.067153	0.000017	0.093123
H45	H	1.305881	-0.213196	0.352953
F46	F	1.707991	-0.000001	-0.203554
H47	H	1.598056	-0.377490	0.060997
F48	F	1.343972	-0.526706	0.314950
F49	F	1.700569	-0.000008	-0.485629
F50	F	1.680377	-0.611172	-0.021218
H51	H	1.645325	-0.786820	0.013841
H52	H	1.340034	-0.786834	0.318934
F53	F	1.333007	-0.611203	0.325908
H54	H	1.292770	-0.377515	0.366079
