data_functionalizedCrystal
_audit_creation_method	'MofGen! by Chris Wilmer'
_symmetry_space_group_name_H-M	'P1'
_symmetry_Int_Tables_number	1
_symmetry_cell_setting	triclinic
loop_
_symmetry_equiv_pos_as_xyz
  x,y,z
_cell_length_a	12.827893
_cell_length_b	12.827885
_cell_length_c	12.827892
_cell_angle_alpha	89.970214
_cell_angle_beta	90.015363
_cell_angle_gamma	89.980919
loop_
_atom_site_label
_atom_site_type_symbol
_atom_site_fract_x
_atom_site_fract_y
_atom_site_fract_z
Zn1	Zn	1.597670	-0.590843	-0.415983
Zn2	Zn	1.597564	-0.416104	-0.590761
Zn3	Zn	1.422911	-0.416118	-0.416034
Zn4	Zn	1.422896	-0.590804	-0.590683
O5	O	1.510260	-0.503467	-0.503365
O6	O	1.743892	-0.567674	-0.439179
O7	O	1.574357	-0.269869	-0.567637
O8	O	1.446144	-0.439318	-0.269791
O9	O	1.743814	-0.439294	-0.567587
O10	O	1.574538	-0.567688	-0.269754
O11	O	1.446041	-0.269880	-0.439266
O12	O	1.276673	-0.439280	-0.439190
O13	O	1.446118	-0.737046	-0.567455
O14	O	1.276662	-0.567621	-0.567504
O15	O	1.574524	-0.737074	-0.439104
O16	O	1.574343	-0.439256	-0.736986
O17	O	1.446016	-0.567608	-0.736929
C18	C	1.238750	-0.503448	-0.503345
C19	C	1.122597	-0.503465	-0.503362
C20	C	1.070774	-0.439854	-0.566804
C21	C	0.950724	-0.439870	-0.566823
C22	C	1.510331	-0.776038	-0.503265
C23	C	1.510362	-0.892191	-0.503222
C24	C	1.573907	-0.943990	-0.439697
C25	C	1.573940	-1.064040	-0.439652
C26	C	1.782830	-0.503487	-0.503386
C27	C	1.898983	-0.503495	-0.503395
C28	C	1.510195	-0.503449	-0.774875
C29	C	1.510262	-0.503476	-0.891028
C30	C	1.510249	-0.231957	-0.503390
C31	C	1.510422	-0.115805	-0.503138
C32	C	1.573838	-0.440034	-0.942807
C33	C	1.573910	-0.440060	-1.062857
C34	C	1.510354	-0.503509	-0.230795
C35	C	1.510394	-0.503526	-0.114642
H36	H	0.943543	-0.557953	-0.449072
Cl37	Cl	1.426346	-0.587386	-1.045907
Cl38	Cl	1.657944	-0.356192	-1.131599
Cl39	Cl	1.426310	-0.587375	-0.959797
H40	H	1.115283	-0.385386	-0.621110
Cl41	Cl	1.657844	-0.875248	-0.355752
H42	H	0.906157	-0.385408	-0.621136
H43	H	1.078088	-0.557940	-0.449063
H44	H	1.456019	-1.071266	-0.557531
Cl45	Cl	1.657946	-1.132809	-0.355685
H46	H	1.455975	-0.936721	-0.557567
Cl47	Cl	1.657803	-0.356147	-0.874038
