data_functionalizedCrystal
_audit_creation_method	'MofGen! by Chris Wilmer'
_symmetry_space_group_name_H-M	'P1'
_symmetry_Int_Tables_number	1
_symmetry_cell_setting	triclinic
loop_
_symmetry_equiv_pos_as_xyz
  x,y,z
_cell_length_a	6.817900
_cell_length_b	19.551136
_cell_length_c	16.305550
_cell_angle_alpha	95.901577
_cell_angle_beta	103.455250
_cell_angle_gamma	101.650842
loop_
_atom_site_label
_atom_site_type_symbol
_atom_site_fract_x
_atom_site_fract_y
_atom_site_fract_z
V1	V	-4.017232	-0.097267	-0.263449
O2	O	-4.014218	0.004067	-0.258007
O3	O	-3.959878	-0.192281	-0.262059
O4	O	-3.968752	-0.096037	-0.378161
O5	O	-4.005283	-0.092843	-0.141101
V6	V	-4.502030	-0.085115	-0.248765
O7	O	-4.275692	-0.123924	-0.295660
O8	O	-4.693767	-0.058458	-0.216555
O9	O	-4.336178	0.009899	-0.250156
O10	O	-4.622441	-0.186449	-0.254208
O11	O	-4.631377	-0.089540	-0.371114
O12	O	-4.327304	-0.086345	-0.134054
C13	C	-3.802703	-0.215435	-0.258009
C14	C	-3.837096	-0.293112	-0.257636
C15	C	-3.814089	-0.319428	-0.180152
C16	C	-3.846476	-0.392412	-0.179776
C17	C	-3.901830	-0.439076	-0.256888
C18	C	-3.924849	-0.412752	-0.334384
C19	C	-3.892482	-0.339770	-0.334758
C20	C	-3.866302	-0.560212	-0.312801
C21	C	-3.898655	-0.633192	-0.312423
C22	C	-4.001672	-0.664177	-0.255738
C23	C	-4.072299	-0.622171	-0.199415
C24	C	-4.039932	-0.549189	-0.199789
C25	C	-3.936932	-0.518214	-0.256491
C26	C	-4.013783	-0.769630	-0.177841
C27	C	-4.046184	-0.842616	-0.177468
C28	C	-4.124538	-0.862954	-0.332078
C29	C	-4.092156	-0.789970	-0.332448
C30	C	-4.036770	-0.743312	-0.255327
C31	C	-3.814022	-0.092666	-0.406108
C32	C	-3.855608	-0.092289	-0.499888
C33	C	-4.006831	-0.090828	-0.840627
C34	C	-3.771184	-0.086493	-0.799680
C35	C	-3.727928	-0.087174	-0.702188
C36	C	-3.931806	-0.091553	-0.671582
C37	C	-4.092444	-0.160562	-0.722506
C38	C	-4.134344	-0.160172	-0.820053
C39	C	-4.067528	-0.026706	-0.794508
C40	C	-4.019649	-0.026160	-0.696663
C41	C	-3.889418	-0.091964	-0.576046
C42	C	-4.049227	-0.090421	-0.936164
C43	C	-4.156694	0.033049	-0.254204
C44	C	-4.101540	0.110725	-0.254582
C45	C	-4.145376	-0.089719	-0.106103
C46	C	-4.083028	-0.090092	-0.012322
H47	H	-3.968683	-0.731639	-0.115044
H48	H	-3.669666	-0.036641	-0.811829
H49	H	-3.841138	-0.667388	-0.358283
H50	H	-3.911225	-0.318345	-0.397857
H51	H	-4.093700	-0.208714	-0.850643
H52	H	-3.980972	0.025582	-0.807651
Cl53	Cl	-3.736802	-0.521268	-0.384074
Cl54	Cl	-3.539667	-0.010581	-0.647783
Cl55	Cl	-4.194146	-0.921611	-0.429021
H56	H	-3.721825	-0.132562	-0.831390
H57	H	-4.239356	-0.029269	-0.821335
Cl58	Cl	-3.994448	-0.471414	-0.431325
Cl59	Cl	-4.017285	-0.875700	-0.080050
Cl60	Cl	-4.128729	-0.496385	-0.128992
H61	H	-4.110877	-0.768544	-0.395545
H62	H	-3.657183	-0.133774	-0.686095
Cl63	Cl	-4.401856	-0.169502	-0.863312
Cl64	Cl	-4.328098	-0.169365	-0.693349
H65	H	-4.032511	-0.209117	-0.705902
H66	H	-3.903333	0.024883	-0.662066
H67	H	-4.167017	-0.025301	-0.675312
H68	H	-3.827737	-0.413843	-0.116676
Cl69	Cl	-3.744479	-0.260776	-0.083200
H70	H	-4.156166	-0.647396	-0.153251
