data_functionalizedCrystal
_audit_creation_method	'MofGen! by Chris Wilmer'
_symmetry_space_group_name_H-M	'P1'
_symmetry_Int_Tables_number	1
_symmetry_cell_setting	triclinic
loop_
_symmetry_equiv_pos_as_xyz
  x,y,z
_cell_length_a	16.120484
_cell_length_b	12.759401
_cell_length_c	12.759393
_cell_angle_alpha	90.020120
_cell_angle_beta	92.862882
_cell_angle_gamma	87.078544
loop_
_atom_site_label
_atom_site_type_symbol
_atom_site_fract_x
_atom_site_fract_y
_atom_site_fract_z
Zn1	Zn	-0.331945	-1.584966	-0.615196
Zn2	Zn	-0.471382	-1.575917	-0.448409
Zn3	Zn	-0.331978	-1.409266	-0.439533
Zn4	Zn	-0.471308	-1.400318	-0.624041
O5	O	-0.401653	-1.492617	-0.531795
O6	O	-0.350459	-1.730785	-0.593085
O7	O	-0.452935	-1.553768	-0.300213
O8	O	-0.215309	-1.440104	-0.455419
O9	O	-0.452903	-1.724138	-0.470547
O10	O	-0.215285	-1.569190	-0.584478
O11	O	-0.350516	-1.431330	-0.293692
O12	O	-0.350444	-1.261059	-0.463995
O13	O	-0.452776	-1.424855	-0.769886
O14	O	-0.452808	-1.254485	-0.599552
O15	O	-0.350387	-1.560514	-0.763388
O16	O	-0.588037	-1.545092	-0.479123
O17	O	-0.587982	-1.416081	-0.608159
C18	C	-0.401622	-1.219651	-0.531771
C19	C	-0.401629	-1.102874	-0.531787
C20	C	-0.348385	-1.051461	-0.595701
C21	C	-0.348396	-0.941736	-0.595706
C22	C	-0.454903	-0.934848	-0.467879
C23	C	-0.454887	-1.044571	-0.467869
C24	C	-0.286896	-1.055436	-0.669505
C25	C	-0.286907	-0.945712	-0.669509
C26	C	-0.618260	-1.478662	-0.545587
C27	C	-0.710925	-1.472789	-0.551522
C28	C	-0.880585	-1.462071	-0.562380
C29	C	-0.921881	-1.523351	-0.501227
C30	C	-1.016286	-1.517388	-0.507268
C31	C	-0.786172	-1.468033	-0.556340
C32	C	-0.184201	-1.506655	-0.517972
C33	C	-0.091536	-1.512637	-0.512081
C34	C	-0.401569	-1.492696	-0.805823
C35	C	-0.401533	-1.492729	-0.922597
C36	C	-0.401675	-0.766649	-0.531812
C37	C	-0.401656	-0.883427	-0.531800
C38	C	-0.348214	-1.563377	-0.974077
C39	C	-0.348184	-1.563404	-1.083800
C40	C	-0.454799	-1.422132	-1.090553
C41	C	-0.454825	-1.422101	-0.980832
C42	C	-0.286663	-1.644942	-0.970179
C43	C	-0.286633	-1.644969	-1.079902
C44	C	-0.401677	-1.492603	-0.258829
C45	C	-0.401478	-1.492787	-0.142040
H46	H	-0.304281	-0.914852	-0.751952
N47	N	-0.509316	-0.875305	-0.402598
N48	N	-0.556854	-0.921227	-0.345539
H49	H	-0.595287	-0.879179	-0.299433
N50	N	-0.315674	-1.740030	-0.929330
N51	N	-0.269281	-1.796177	-0.868517
H52	H	-0.289768	-1.863336	-0.839667
H53	H	-0.498235	-1.086428	-0.415814
N54	N	-0.205675	-1.622793	-0.927683
N55	N	-0.174530	-1.538219	-0.949369
H56	H	-0.117336	-1.522568	-0.919353
H57	H	-0.498239	-1.364570	-0.938921
N58	N	-0.877284	-1.594763	-0.429840
N59	N	-0.799547	-1.599553	-0.424957
H60	H	-0.768046	-1.649976	-0.374533
H61	H	-0.225285	-1.619790	-1.110036
H62	H	-0.916128	-1.405132	-0.619268
H63	H	-0.310094	-1.088014	-0.748223
N64	N	-0.509224	-1.349994	-1.150056
N65	N	-0.509190	-1.350024	-1.248019
H66	H	-0.547629	-1.299075	-1.290043
N67	N	-0.308314	-1.745655	-1.118661
N68	N	-0.264391	-1.825757	-1.092211
H69	H	-0.279699	-1.896864	-1.119587
N70	N	-0.205861	-1.097969	-0.637183
N71	N	-0.148781	-1.037954	-0.614409
H72	H	-0.091551	-1.067991	-0.591583
H73	H	-0.225545	-0.915606	-0.636595
