data_functionalizedCrystal
_audit_creation_method	'MofGen! by Chris Wilmer'
_symmetry_space_group_name_H-M	'P1'
_symmetry_Int_Tables_number	1
_symmetry_cell_setting	triclinic
loop_
_symmetry_equiv_pos_as_xyz
  x,y,z
_cell_length_a	13.897449
_cell_length_b	12.759399
_cell_length_c	12.759386
_cell_angle_alpha	90.062858
_cell_angle_beta	89.956847
_cell_angle_gamma	89.983604
loop_
_atom_site_label
_atom_site_type_symbol
_atom_site_fract_x
_atom_site_fract_y
_atom_site_fract_z
Zn1	Zn	1.474933	0.417848	-0.594036
Zn2	Zn	1.474771	0.593662	-0.418355
Zn3	Zn	1.313559	0.418001	-0.418369
Zn4	Zn	1.313611	0.593490	-0.593990
O5	O	1.394219	0.505750	-0.506187
O6	O	1.609894	0.441178	-0.570745
O7	O	1.453297	0.570496	-0.271335
O8	O	1.335012	0.270960	-0.441697
O9	O	1.609775	0.570348	-0.441672
O10	O	1.453573	0.270847	-0.570759
O11	O	1.334855	0.441439	-0.271346
O12	O	1.178585	0.441272	-0.441652
O13	O	1.335101	0.570054	-0.741018
O14	O	1.178623	0.570203	-0.570680
O15	O	1.453623	0.441011	-0.741051
O16	O	1.453347	0.740660	-0.441628
O17	O	1.334944	0.740534	-0.570667
C18	C	1.394160	0.778718	-0.506164
C19	C	1.394223	0.895494	-0.506188
C20	C	1.143605	0.505736	-0.506164
C21	C	1.036391	0.505756	-0.506178
C22	C	1.394386	0.505497	-0.780221
C23	C	1.394457	0.505388	-0.896998
C24	C	0.840096	0.505759	-0.506206
C25	C	0.949328	0.505754	-0.506188
C26	C	1.645812	0.505765	-0.506212
C27	C	1.753026	0.505771	-0.506223
C28	C	1.394305	0.231717	-0.506234
C29	C	1.394341	0.114940	-0.506254
C30	C	1.455946	0.950387	-0.439074
C31	C	1.456008	1.060111	-0.439110
C32	C	1.332615	1.060040	-0.573376
C33	C	1.332559	0.950318	-0.573345
C34	C	1.569848	1.210008	-0.401724
C35	C	1.631563	1.264905	-0.334593
C36	C	1.646367	1.229421	-0.232083
C37	C	1.599442	1.139043	-0.196682
C38	C	1.537720	1.084152	-0.263807
C39	C	1.522935	1.119634	-0.366332
C40	C	1.218717	0.800419	-0.610721
C41	C	1.156989	0.745526	-0.677841
C42	C	1.142176	0.781007	-0.780353
C43	C	1.189084	0.871389	-0.815750
C44	C	1.250811	0.926282	-0.748629
C45	C	1.265626	0.890793	-0.646118
C46	C	1.394108	0.505927	-0.233220
C47	C	1.394224	0.505739	-0.116444
C48	C	1.332168	0.438952	-0.061637
C49	C	1.332286	0.438773	0.048087
C50	C	1.456520	0.572179	0.048187
C51	C	1.456405	0.572351	-0.061534
C52	C	1.297190	0.314907	0.197780
C53	C	1.235119	0.248128	0.252590
C54	C	1.140862	0.232795	0.217132
C55	C	1.108657	0.284255	0.126865
C56	C	1.170723	0.351042	0.072060
C57	C	1.264993	0.366355	0.107517
C58	C	1.491492	0.696220	-0.211229
C59	C	1.553554	0.763012	-0.266036
C60	C	1.647813	0.778356	-0.230580
C61	C	1.680014	0.726914	-0.140310
C62	C	1.617952	0.660122	-0.085503
C63	C	1.523694	0.644776	-0.120966
H64	H	1.506158	0.905752	-0.384393
H65	H	1.756767	0.739410	-0.111439
H66	H	1.669770	1.338490	-0.363426
H67	H	1.611493	1.110166	-0.113204
H68	H	1.177023	0.900278	-0.899224
O69	O	1.017133	0.269151	0.092383
C70	C	0.899262	0.145055	0.030905
C71	C	1.002944	0.162046	0.069911
H72	H	0.887751	0.058461	0.012746
H73	H	0.886833	0.193208	-0.043071
H74	H	0.846420	0.170918	0.094240
H75	H	1.055852	0.136174	0.006650
H76	H	1.015292	0.113911	0.143913
O77	O	1.555652	1.244499	-0.501329
C78	C	1.627940	1.284853	-0.668187
C79	C	1.644158	1.245793	-0.555406
H80	H	1.699481	1.285891	-0.711948
H81	H	1.596573	1.367398	-0.666078
H82	H	1.575736	1.230110	-0.710053
H83	H	1.696381	1.300459	-0.513475
H84	H	1.675477	1.163229	-0.557590
H85	H	1.507145	0.626414	0.092908
H86	H	1.644179	0.618235	-0.012000
O87	O	1.266306	0.198257	0.340378
C88	C	1.244029	0.171409	0.525721
C89	C	1.208633	0.227968	0.426386
H90	H	1.197404	0.195392	0.595280
H91	H	1.322048	0.193843	0.541733
H92	H	1.238801	0.083050	0.513668
H93	H	1.213797	0.316337	0.438364
H94	H	1.130630	0.205448	0.410405
O95	O	1.296350	1.014025	-0.783198
C96	C	1.321653	1.133097	-0.927057
C97	C	1.270033	1.033706	-0.888050
H98	H	1.300379	1.149052	-1.011825
H99	H	1.402835	1.121263	-0.922130
H100	H	1.299906	1.202604	-0.876054
H101	H	1.291701	0.964152	-0.939020
H102	H	1.188861	1.045630	-0.892953
H103	H	1.698341	0.832750	-0.275211
H104	H	1.527327	0.804898	-0.339539
H105	H	1.373945	0.327375	0.226651
O106	O	1.492095	0.996455	-0.229270
C107	C	1.381983	0.922461	-0.103555
C108	C	1.433601	1.021859	-0.142546
H109	H	1.334663	0.942968	-0.033447
H110	H	1.437642	0.861524	-0.079237
H111	H	1.335378	0.889312	-0.169176
H112	H	1.480205	1.055098	-0.076974
H113	H	1.377892	1.082727	-0.166895
H114	H	1.282409	1.104690	-0.628051
O115	O	1.706381	1.282842	-0.167022
C116	C	1.812526	1.430713	-0.146348
C117	C	1.744601	1.370298	-0.220137
H118	H	1.843430	1.501446	-0.189254
H119	H	1.873700	1.377099	-0.120547
H120	H	1.770676	1.458359	-0.074578
H121	H	1.786368	1.342644	-0.291956
H122	H	1.683427	1.423951	-0.245853
O123	O	1.082210	0.727537	-0.845432
C124	C	0.975961	0.579749	-0.866066
C125	C	1.043857	0.640184	-0.792262
H126	H	0.944918	0.509125	-0.823100
H127	H	1.017761	0.551965	-0.937819
H128	H	0.914881	0.633470	-0.891903
H129	H	1.104950	0.586526	-0.766344
H130	H	1.001988	0.667983	-0.720563
O131	O	1.399891	0.681352	-0.245584
C132	C	1.230807	0.696534	-0.206435
C133	C	1.334476	0.713386	-0.167328
H134	H	1.177890	0.722445	-0.143193
H135	H	1.219197	0.609979	-0.224713
H136	H	1.218590	0.744773	-0.280394
H137	H	1.346765	0.665210	-0.093347
H138	H	1.346036	0.799963	-0.149123
O139	O	1.271670	0.374393	-0.115022
C140	C	1.141258	0.361471	-0.238709
C141	C	1.209696	0.434709	-0.178302
H142	H	1.091148	0.410206	-0.289903
H143	H	1.096856	0.313725	-0.180731
H144	H	1.185157	0.306249	-0.290271
H145	H	1.165871	0.489995	-0.126740
H146	H	1.254100	0.482382	-0.236338
O147	O	1.080478	0.168083	0.270446
C148	C	0.931129	0.151720	0.365077
C149	C	0.999428	0.225127	0.304738
H150	H	0.865574	0.197806	0.392800
H151	H	0.970272	0.117604	0.435736
H152	H	0.906949	0.085377	0.311294
H153	H	1.023628	0.291524	0.358436
H154	H	0.960244	0.259162	0.234068
H155	H	1.118800	0.671928	-0.649014
H156	H	1.230781	0.771515	-0.527249
H157	H	1.144502	0.392940	-0.001433
