data_functionalizedCrystal
_audit_creation_method	'MofGen! by Chris Wilmer'
_symmetry_space_group_name_H-M	'P1'
_symmetry_Int_Tables_number	1
_symmetry_cell_setting	triclinic
loop_
_symmetry_equiv_pos_as_xyz
  x,y,z
_cell_length_a	6.817900
_cell_length_b	14.858565
_cell_length_c	17.110486
_cell_angle_alpha	96.084922
_cell_angle_beta	99.060439
_cell_angle_gamma	104.523916
loop_
_atom_site_label
_atom_site_type_symbol
_atom_site_fract_x
_atom_site_fract_y
_atom_site_fract_z
V1	V	-3.982063	-0.128393	-0.246940
O2	O	-3.965114	0.006455	-0.242013
O3	O	-3.938996	-0.254855	-0.245470
O4	O	-3.911836	-0.126293	-0.354540
O5	O	-3.992462	-0.122998	-0.132187
V6	V	-4.467828	-0.112278	-0.233188
O7	O	-4.238403	-0.163741	-0.277106
O8	O	-4.661685	-0.076930	-0.203022
O9	O	-4.287689	0.014184	-0.234659
O10	O	-4.602175	-0.247126	-0.238116
O11	O	-4.574827	-0.117673	-0.347941
O12	O	-4.314848	-0.114378	-0.125589
C13	C	-3.786001	-0.285688	-0.241631
C14	C	-3.831930	-0.389072	-0.241145
C15	C	-3.751355	-0.121693	-0.380759
C16	C	-3.775256	-0.120812	-0.468724
C17	C	-4.000033	-0.767645	-0.239380
C18	C	-3.953253	-0.662314	-0.239871
C19	C	-3.915982	-0.578362	-0.240262
C20	C	-3.869201	-0.473025	-0.240754
C21	C	-3.967967	-0.125040	-0.514089
C22	C	-3.990412	-0.124213	-0.596741
C23	C	-3.820147	-0.119164	-0.634027
C24	C	-3.627419	-0.114933	-0.588655
C25	C	-3.604973	-0.115754	-0.506004
C26	C	-3.878837	-0.116447	-0.883377
C27	C	-3.901300	-0.115629	-0.966035
C28	C	-4.264291	-0.124907	-0.974114
C29	C	-4.241831	-0.125733	-0.891462
C30	C	-4.049104	-0.121497	-0.846097
C31	C	-3.843086	-0.118321	-0.718511
C32	C	-4.026163	-0.122334	-0.761614
C33	C	-4.104027	0.045012	-0.238496
C34	C	-4.037335	0.148395	-0.238986
C35	C	-4.138673	-0.118981	-0.099365
C36	C	-4.094011	-0.119857	-0.011400
H37	H	-4.106623	-0.129158	-0.483738
H38	H	-4.380483	-0.129844	-0.861110
H39	H	-4.164789	-0.126442	-0.731252
H40	H	-4.421203	-0.128355	-1.011059
H41	H	-3.762637	-0.111515	-0.996390
H42	H	-3.704462	-0.114214	-0.748879
H43	H	-4.147332	-0.127650	-0.633673
H44	H	-3.721926	-0.113031	-0.846455
H45	H	-3.448038	-0.112288	-0.469065
H46	H	-3.488785	-0.110816	-0.619019
