data_functionalizedCrystal
_audit_creation_method	'MofGen! by Chris Wilmer'
_symmetry_space_group_name_H-M	'P1'
_symmetry_Int_Tables_number	1
_symmetry_cell_setting	triclinic
loop_
_symmetry_equiv_pos_as_xyz
  x,y,z
_cell_length_a	19.288840
_cell_length_b	16.776229
_cell_length_c	19.288865
_cell_angle_alpha	89.991353
_cell_angle_beta	96.868869
_cell_angle_gamma	90.012976
loop_
_atom_site_label
_atom_site_type_symbol
_atom_site_fract_x
_atom_site_fract_y
_atom_site_fract_z
O1	O	0.921361	0.066430	-0.086563
O2	O	1.254694	0.399764	0.246770
O3	O	1.588027	0.733097	0.580103
O4	O	0.719098	0.066404	-0.098270
O5	O	1.052431	0.399737	0.235063
O6	O	1.385764	0.733071	0.568396
O7	O	0.826074	0.066402	0.008714
O8	O	1.159407	0.399736	0.342047
O9	O	1.492740	0.733069	0.675381
O10	O	0.814385	0.066432	-0.193548
O11	O	1.147718	0.399766	0.139786
O12	O	1.481051	0.733099	0.473119
O13	O	0.826062	-0.066174	0.008714
O14	O	1.159395	0.267159	0.342048
O15	O	1.492728	0.600492	0.675381
O16	O	0.719086	-0.066172	-0.098270
O17	O	1.052419	0.267161	0.235063
O18	O	1.385752	0.600494	0.568397
O19	O	0.921349	-0.066146	-0.086563
O20	O	1.254682	0.267187	0.246770
O21	O	1.588015	0.600521	0.580104
Zn22	Zn	0.820215	-0.087209	-0.092416
Zn23	Zn	1.153549	0.246125	0.240917
Zn24	Zn	1.486882	0.579458	0.574250
Zn25	Zn	0.820231	0.087467	-0.092417
Zn26	Zn	1.153565	0.420800	0.240917
Zn27	Zn	1.486898	0.754133	0.574250
O28	O	0.814373	-0.066144	-0.193547
O29	O	1.147706	0.267189	0.139786
O30	O	1.481039	0.600522	0.473119
C31	C	0.693215	0.000112	-0.097896
C32	C	1.026548	0.333445	0.235437
C33	C	1.359882	0.666779	0.568770
C34	C	0.616110	0.000101	-0.096774
C35	C	0.949444	0.333435	0.236559
C36	C	1.282777	0.666768	0.569892
N37	N	0.820209	-0.206420	-0.092416
N38	N	1.153543	0.126913	0.240918
N39	N	1.486876	0.460247	0.574251
C40	C	0.579913	0.072371	-0.096235
C41	C	0.913247	0.405704	0.237098
C42	C	1.246580	0.739037	0.570431
C43	C	0.507467	0.072380	-0.095173
C44	C	0.840800	0.405714	0.238160
C45	C	1.174133	0.739047	0.571493
C46	C	0.471221	0.000116	-0.094636
C47	C	0.804555	0.333450	0.238697
C48	C	1.137888	0.666783	0.572030
C49	C	0.507426	-0.072162	-0.095179
C50	C	0.840760	0.261171	0.238154
C51	C	1.174093	0.594504	0.571488
C52	C	0.579871	-0.072170	-0.096248
C53	C	0.913204	0.261163	0.237085
C54	C	1.246538	0.594497	0.570418
C55	C	0.361889	-0.055243	-0.052258
C56	C	0.695222	0.278090	0.281075
C57	C	1.028555	0.611424	0.614408
C58	C	0.289446	-0.055232	-0.051185
C59	C	0.622779	0.278101	0.282148
C60	C	0.956113	0.611434	0.615482
C61	C	0.247778	0.000137	-0.091342
C62	C	0.581111	0.333470	0.241991
C63	C	0.914444	0.666803	0.575325
C64	C	0.278562	0.055509	-0.132564
C65	C	0.611895	0.388842	0.200770
C66	C	0.945229	0.722176	0.534103
C67	C	0.351007	0.055501	-0.133633
C68	C	0.684340	0.388835	0.199701
C69	C	1.017673	0.722168	0.533034
C70	C	0.392667	0.000117	-0.093477
C71	C	0.726001	0.333450	0.239856
C72	C	1.059334	0.666783	0.573189
C73	C	0.133025	0.072422	-0.089653
C74	C	0.466359	0.405755	0.243681
C75	C	0.799692	0.739088	0.577014
C76	C	0.060577	0.072428	-0.088595
C77	C	0.393910	0.405762	0.244738
C78	C	0.727243	0.739095	0.578072
C79	C	0.060539	-0.072117	-0.088594
C80	C	0.393872	0.261217	0.244740
C81	C	0.727205	0.594550	0.578073
C82	C	0.132985	-0.072121	-0.089658
C83	C	0.466318	0.261212	0.243675
C84	C	0.799652	0.594545	0.577008
C85	C	0.169225	0.000150	-0.090185
C86	C	0.502558	0.333483	0.243149
C87	C	0.835891	0.666817	0.576482
C88	C	0.862201	-0.248121	-0.134434
C89	C	1.195534	0.085212	0.198899
C90	C	1.528868	0.418546	0.532233
C91	C	0.862209	-0.331573	-0.134431
C92	C	1.195542	0.001760	0.198902
C93	C	1.528876	0.335093	0.532235
C94	C	0.820221	-0.373323	-0.092414
C95	C	1.153554	-0.039989	0.240920
C96	C	1.486887	0.293344	0.574253
C97	C	0.778227	-0.331616	-0.050391
C98	C	1.111561	0.001718	0.282943
C99	C	1.444894	0.335051	0.616276
C100	C	0.778224	-0.248165	-0.050390
C101	C	1.111557	0.085168	0.282943
C102	C	1.444891	0.418502	0.616277
C103	C	0.778241	-0.668163	-0.050391
C104	C	1.111575	-0.334830	0.282942
C105	C	1.444908	-0.001496	0.616275
C106	C	0.778247	-0.751619	-0.050397
C107	C	1.111580	-0.418286	0.282936
C108	C	1.444913	-0.084953	0.616270
C109	C	0.862226	-0.751571	-0.134433
C110	C	1.195560	-0.418238	0.198900
C111	C	1.528893	-0.084904	0.532234
C112	C	0.862223	-0.668120	-0.134432
C113	C	1.195556	-0.334787	0.198901
C114	C	1.528890	-0.001454	0.532234
C115	C	0.820233	-0.626421	-0.092407
C116	C	1.153566	-0.293087	0.240927
C117	C	1.486899	0.040246	0.574260
C118	C	0.820226	-0.535932	-0.092409
C119	C	1.153559	-0.202599	0.240924
C120	C	1.486892	0.130734	0.574258
C121	C	0.820223	-0.463810	-0.092415
C122	C	1.153557	-0.130476	0.240919
C123	C	1.486890	0.202857	0.574252
C124	C	0.947232	0.000148	-0.086937
C125	C	1.280565	0.333481	0.246396
C126	C	1.613898	0.666814	0.579730
C127	C	1.024336	0.000164	-0.088059
C128	C	1.357669	0.333497	0.245274
C129	C	1.691003	0.666830	0.578608
C130	C	0.825692	0.000112	0.034591
C131	C	1.159025	0.333445	0.367924
C132	C	1.492358	0.666778	0.701257
C133	C	0.824563	0.000104	0.111694
C134	C	1.157896	0.333438	0.445027
C135	C	1.491229	0.666771	0.778361
N136	N	0.820243	0.206678	-0.092412
N137	N	1.153576	0.540011	0.240921
N138	N	1.486909	0.873344	0.574255
C139	C	0.814755	0.000148	-0.219424
C140	C	1.148088	0.333481	0.113909
C141	C	1.481422	0.666815	0.447243
C142	C	0.815884	0.000161	-0.296527
C143	C	1.149217	0.333494	0.036806
C144	C	1.482551	0.666827	0.370139
C145	C	0.887331	0.000109	0.156396
C146	C	1.220665	0.333442	0.489729
C147	C	1.553998	0.666775	0.823063
C148	C	0.886270	0.000121	0.228843
C149	C	1.219604	0.333454	0.562176
C150	C	1.552937	0.666788	0.895510
C151	C	0.822438	0.000113	0.256585
C152	C	1.155771	0.333447	0.589918
C153	C	1.489104	0.666780	0.923251
C154	C	0.759661	0.000114	0.211873
C155	C	1.092994	0.333447	0.545206
C156	C	1.426327	0.666780	0.878540
C157	C	0.760723	0.000109	0.139428
C158	C	1.094056	0.333442	0.472761
C159	C	1.427390	0.666776	0.806094
C160	C	0.772253	-0.046332	0.364868
C161	C	1.105587	0.287001	0.698201
C162	C	1.438920	0.620335	1.031534
C163	C	0.771193	-0.046332	0.437312
C164	C	1.104527	0.287001	0.770646
C165	C	1.437860	0.620334	1.103979
C166	C	0.819158	0.000131	0.480030
C167	C	1.152491	0.333464	0.813363
C168	C	1.485825	0.666797	1.146697
C169	C	0.868194	0.046584	0.450296
C170	C	1.201527	0.379917	0.783630
C171	C	1.534861	0.713251	1.116963
C172	C	0.869257	0.046579	0.377851
C173	C	1.202590	0.379913	0.711184
C174	C	1.535923	0.713246	1.044518
C175	C	0.821278	0.000119	0.335139
C176	C	1.154612	0.333452	0.668472
C177	C	1.487945	0.666785	1.001805
C178	C	0.880781	0.000150	0.603288
C179	C	1.214114	0.333483	0.936621
C180	C	1.547447	0.666816	1.269955
C181	C	0.879717	0.000167	0.675736
C182	C	1.213051	0.333500	1.009069
C183	C	1.546384	0.666834	1.342403
C184	C	0.753106	0.000151	0.658764
C185	C	1.086439	0.333485	0.992098
C186	C	1.419772	0.666818	1.325431
C187	C	0.754171	0.000142	0.586318
C188	C	1.087504	0.333475	0.919651
C189	C	1.420838	0.666809	1.252985
C190	C	0.818010	0.000137	0.558584
C191	C	1.151344	0.333471	0.891918
C192	C	1.484677	0.666804	1.225251
H193	H	0.609415	0.131220	-0.096664
H194	H	0.942748	0.464553	0.236670
H195	H	1.276082	0.797887	0.570003
F196	F	0.693913	0.000105	0.091850
F197	F	1.027246	0.333438	0.425184
F198	F	1.360580	0.666772	0.758517
F199	F	0.687363	0.000134	0.538741
F200	F	1.020696	0.333468	0.872074
F201	F	1.354030	0.666801	1.205407
F202	F	0.691725	0.000110	0.241399
F203	F	1.025058	0.333444	0.574732
F204	F	1.358392	0.666777	0.908065
F205	F	0.256688	-0.114175	-0.007327
F206	F	0.590021	0.219158	0.326007
F207	F	0.923354	0.552491	0.659340
H208	H	0.896419	-0.785533	-0.168650
H209	H	1.229752	-0.452200	0.164683
H210	H	1.563085	-0.118866	0.498016
H211	H	0.162532	0.131269	-0.090088
H212	H	0.495865	0.464603	0.243245
H213	H	0.829199	0.797936	0.576578
F214	F	0.719008	-0.095775	0.468951
F215	F	1.052341	0.237559	0.802284
F216	F	1.385675	0.570892	1.135617
F217	F	0.953080	0.000127	0.276427
F218	F	1.286413	0.333460	0.609760
F219	F	1.619747	0.666794	0.943094
F220	F	0.406229	-0.114180	-0.009516
F221	F	0.739562	0.219154	0.323818
F222	F	1.072895	0.552487	0.657151
F223	F	0.171511	-0.149041	-0.090228
F224	F	0.504844	0.184292	0.243105
F225	F	0.838177	0.517625	0.576438
F226	F	0.468935	0.149302	-0.094600
F227	F	0.802269	0.482636	0.238734
F228	F	1.135602	0.815969	0.572067
H229	H	0.744053	-0.785610	-0.016179
H230	H	1.077387	-0.452276	0.317155
H231	H	1.410720	-0.118943	0.650488
H232	H	0.896389	-0.214135	-0.168654
H233	H	1.229722	0.119199	0.164679
H234	H	1.563055	0.452532	0.498013
H235	H	0.609342	-0.131022	-0.096688
H236	H	0.942675	0.202311	0.236646
H237	H	1.276009	0.535644	0.569979
F238	F	0.921440	0.096020	0.346208
F239	F	1.254773	0.429354	0.679541
F240	F	1.588107	0.762687	1.012875
F241	F	0.021968	-0.149026	-0.088028
F242	F	0.355301	0.184307	0.245305
F243	F	0.688634	0.517640	0.578639
F244	F	0.383767	0.114428	-0.177504
F245	F	0.717101	0.447761	0.155829
F246	F	1.050434	0.781095	0.489162
H247	H	0.744051	-0.634221	-0.016171
H248	H	1.077384	-0.300888	0.317162
H249	H	1.410717	0.032446	0.650495
H250	H	0.733193	-0.084172	0.330092
H251	H	1.066526	0.249161	0.663425
H252	H	1.399860	0.582495	0.996759
F253	F	0.948723	0.000141	0.573769
F254	F	1.282056	0.333474	0.907103
F255	F	1.615390	0.666808	1.240436
F256	F	0.906901	-0.375951	-0.179154
F257	F	1.240235	-0.042618	0.154179
F258	F	1.573568	0.290716	0.487513
H259	H	0.031106	0.131281	-0.088160
H260	H	0.364439	0.464614	0.245173
H261	H	0.697772	0.797948	0.578506
F262	F	0.234221	0.114439	-0.175308
F263	F	0.567554	0.447773	0.158026
F264	F	0.900888	0.781106	0.491359
H265	H	0.477911	-0.131000	-0.094743
H266	H	0.811244	0.202333	0.238590
H267	H	1.144577	0.535666	0.571923
F268	F	0.906904	-0.623692	-0.179161
F269	F	1.240238	-0.290359	0.154172
F270	F	1.573571	0.042975	0.487506
F271	F	0.733536	-0.203784	-0.005663
F272	F	1.066870	0.129549	0.327671
F273	F	1.400203	0.462883	0.661004
F274	F	0.733542	-0.376051	-0.005670
F275	F	1.066875	-0.042718	0.327663
F276	F	1.400209	0.290616	0.660996
F277	F	0.919245	0.096038	0.495754
F278	F	1.252579	0.429372	0.829088
F279	F	1.585912	0.762705	1.162421
F280	F	0.955275	0.000121	0.126884
F281	F	1.288608	0.333454	0.460218
F282	F	1.621942	0.666788	0.793551
H283	H	0.930833	0.000175	0.712132
H284	H	1.264167	0.333508	1.045466
H285	H	1.597500	0.666842	1.378799
F286	F	0.685169	0.000147	0.688284
F287	F	1.018503	0.333480	1.021618
F288	F	1.351836	0.666814	1.354951
