data_functionalizedCrystal
_audit_creation_method	'MofGen! by Chris Wilmer'
_symmetry_space_group_name_H-M	'P1'
_symmetry_Int_Tables_number	1
_symmetry_cell_setting	triclinic
loop_
_symmetry_equiv_pos_as_xyz
  x,y,z
_cell_length_a	6.817900
_cell_length_b	9.582860
_cell_length_c	12.200737
_cell_angle_alpha	91.578780
_cell_angle_beta	107.141108
_cell_angle_gamma	111.206767
loop_
_atom_site_label
_atom_site_type_symbol
_atom_site_fract_x
_atom_site_fract_y
_atom_site_fract_z
V1	V	-4.108275	-0.207405	-0.357451
V2	V	-3.774941	0.125929	-0.024117
V3	V	-3.441608	0.459262	0.309216
O4	O	-4.053162	0.009607	-0.350863
O5	O	-3.719829	0.342940	-0.017529
O6	O	-3.386496	0.676274	0.315804
O7	O	-4.098738	-0.410903	-0.354798
O8	O	-3.765405	-0.077570	-0.021465
O9	O	-3.432071	0.255764	0.311869
O10	O	-4.077402	-0.204372	-0.513442
O11	O	-3.744069	0.128961	-0.180109
O12	O	-3.410735	0.462295	0.153224
O13	O	-4.074646	-0.198353	-0.191120
O14	O	-3.741312	0.134980	0.142213
O15	O	-3.407979	0.468313	0.475547
V16	V	-4.584596	-0.181429	-0.337581
V17	V	-4.251262	0.151904	-0.004248
V18	V	-3.917929	0.485238	0.329085
O19	O	-4.385331	-0.264385	-0.401035
O20	O	-4.051998	0.068949	-0.067702
O21	O	-3.718665	0.402282	0.265631
O22	O	-4.757737	-0.124449	-0.293997
O23	O	-4.424403	0.208884	0.039337
O24	O	-4.091070	0.542218	0.372670
O25	O	-4.370926	0.022069	-0.340234
O26	O	-4.037593	0.355403	-0.006901
O27	O	-3.704259	0.688736	0.326432
O28	O	-4.757105	-0.398441	-0.344170
O29	O	-4.423772	-0.065108	-0.010836
O30	O	-4.090438	0.268226	0.322497
O31	O	-4.735622	-0.190480	-0.503912
O32	O	-4.402288	0.142853	-0.170579
O33	O	-4.068955	0.476186	0.162755
O34	O	-4.392262	-0.184462	-0.181590
O35	O	-4.058929	0.148872	0.151743
O36	O	-3.725595	0.482205	0.485077
C37	C	-3.952626	-0.460507	-0.349105
C38	C	-3.619292	-0.127173	-0.015772
C39	C	-3.285959	0.206160	0.317561
C40	C	-4.026232	-0.626870	-0.347976
C41	C	-3.692899	-0.293537	-0.014643
C42	C	-3.359565	0.039797	0.318690
C43	C	-3.925408	-0.197054	-0.551470
C44	C	-3.592075	0.136279	-0.218137
C45	C	-3.258742	0.469613	0.115196
C46	C	-3.981707	-0.195921	-0.678993
C47	C	-3.648374	0.137412	-0.345660
C48	C	-3.315041	0.470746	-0.012326
C49	C	-4.027426	-0.194999	-0.782555
C50	C	-3.694092	0.138334	-0.449222
C51	C	-3.360759	0.471667	-0.115889
C52	C	-4.084795	-0.193837	-0.912478
C53	C	-3.751462	0.139497	-0.579145
C54	C	-3.418129	0.472830	-0.245811
C55	C	-4.180381	0.071665	-0.345924
C56	C	-3.847048	0.404998	-0.012590
C57	C	-3.513715	0.738332	0.320743
C58	C	-4.086015	0.238027	-0.347060
C59	C	-3.752681	0.571360	-0.013727
C60	C	-3.419348	0.904694	0.319606
C61	C	-4.207598	-0.191785	-0.143556
C62	C	-3.874265	0.141549	0.189778
C63	C	-3.540931	0.474882	0.523111
C64	C	-4.130536	-0.192910	-0.016032
C65	C	-3.797203	0.140423	0.317301
C66	C	-3.463869	0.473757	0.650634
