data_functionalizedCrystal
_audit_creation_method	'MofGen! by Chris Wilmer'
_symmetry_space_group_name_H-M	'P1'
_symmetry_Int_Tables_number	1
_symmetry_cell_setting	triclinic
loop_
_symmetry_equiv_pos_as_xyz
  x,y,z
_cell_length_a	12.811487
_cell_length_b	19.288864
_cell_length_c	17.766277
_cell_angle_alpha	90.023209
_cell_angle_beta	95.426172
_cell_angle_gamma	96.405576
loop_
_atom_site_label
_atom_site_type_symbol
_atom_site_fract_x
_atom_site_fract_y
_atom_site_fract_z
O1	O	0.130931	-0.922003	-0.053897
O2	O	0.148593	-0.719830	-0.052640
O3	O	-0.013051	-0.826002	-0.063697
O4	O	0.292576	-0.815831	-0.042840
O5	O	-0.013059	-0.825984	0.061491
O6	O	0.148585	-0.719811	0.072548
O7	O	0.130923	-0.921984	0.071291
Cu8	Cu	0.139753	-0.820896	0.083350
Cu9	Cu	0.139763	-0.820918	-0.064699
O10	O	0.292567	-0.815812	0.082348
C11	C	0.148021	-0.693941	0.009922
C12	C	0.146315	-0.616829	0.009825
C13	C	-0.052156	-0.825423	-0.003773
C14	C	-0.168664	-0.823716	-0.011728
C15	C	0.131495	-0.947873	0.008727
C16	C	0.133201	-1.024985	0.008819
C17	C	-0.387619	-0.820499	0.109819
C18	C	-0.497088	-0.818895	0.102348
C19	C	-0.497075	-0.818908	-0.034139
C20	C	-0.387606	-0.820512	-0.026668
C21	C	-0.332881	-0.821307	0.045313
C22	C	-0.223409	-0.822906	0.052783
C23	C	-0.223399	-0.822924	-0.083703
C24	C	-0.332868	-0.821320	-0.091174
C25	C	0.331672	-0.816391	0.022422
C26	C	0.448180	-0.818099	0.030372
N27	N	0.139746	-0.820885	0.187480
C28	C	0.241161	-0.572604	0.016286
C29	C	0.239558	-0.500149	0.016169
C30	C	0.143104	-0.471922	0.009574
C31	C	0.048246	-0.516158	0.003117
C32	C	0.049851	-0.588611	0.003242
C33	C	0.067283	-0.363291	-0.039484
C34	C	0.065682	-0.290838	-0.039614
C35	C	0.138148	-0.248452	0.009191
C36	C	0.212234	-0.278526	0.058117
C37	C	0.213840	-0.350980	0.058242
C38	C	0.141353	-0.393360	0.009438
C39	C	0.231263	-0.125662	0.015525
C40	C	0.229656	-0.053206	0.015412
C41	C	0.038341	-0.069217	0.002353
C42	C	0.039951	-0.141671	0.002474
C43	C	0.136414	-0.169889	0.009057
N44	N	0.139762	-0.820934	-0.168830
C45	C	0.068205	-0.867914	0.221973
C46	C	0.068200	-0.867918	0.300774
C47	C	0.139754	-0.820900	0.345081
C48	C	0.211301	-0.773863	0.310579
C49	C	0.211297	-0.773855	0.231778
C50	C	0.235385	-0.812076	0.476447
C51	C	0.235391	-0.812088	0.555246
C52	C	0.139767	-0.820919	0.588128
C53	C	0.044133	-0.829752	0.542201
C54	C	0.044129	-0.829744	0.463401
C55	C	0.139766	-0.820903	0.430528
C56	C	0.068214	-0.867954	0.708066
C57	C	0.068208	-0.867953	0.786869
C58	C	0.211318	-0.773901	0.796673
C59	C	0.211315	-0.773899	0.717871
C60	C	0.139765	-0.820929	0.673573
H61	H	-0.343058	-0.821128	0.168428
H62	H	0.269560	-0.735579	0.346657
H63	H	0.008270	-0.397796	-0.079232
N64	N	0.345199	-0.603039	0.023381
H65	H	0.405041	-0.564024	0.027454
H66	H	0.350040	-0.632727	0.070125
H67	H	0.269555	-0.735558	0.203694
N68	N	0.288487	-0.723183	0.844451
H69	H	0.362952	-0.731387	0.835810
H70	H	0.276485	-0.673879	0.829924
H71	H	-0.030288	-0.493171	-0.002263
H72	H	-0.178818	-0.823573	-0.136228
N73	N	-0.556130	-0.818028	0.171921
H74	H	-0.504847	-0.818776	0.218651
H75	H	-0.592839	-0.774357	0.172404
N76	N	0.338534	-0.802556	0.604776
H77	H	0.324029	-0.803904	0.659685
H78	H	0.382103	-0.841290	0.593948
N79	N	-0.008968	-0.918641	0.337990
H80	H	-0.054296	-0.948432	0.297970
H81	H	0.031106	-0.949460	0.373399
H82	H	0.274159	-0.375463	0.098082
H83	H	-0.541652	-0.818269	-0.092742
H84	H	0.309809	-0.148638	0.020897
N85	N	-0.391895	-0.820467	-0.168806
H86	H	-0.469551	-0.819329	-0.163752
H87	H	-0.364048	-0.777742	-0.196691
H88	H	0.306894	-0.017198	0.020678
H89	H	-0.027386	-0.624620	-0.002020
N90	N	0.341859	-0.452436	0.023136
H91	H	0.403210	-0.481307	0.027325
H92	H	0.345350	-0.422055	-0.023044
N93	N	0.290408	-0.232821	0.110757
H94	H	0.278150	-0.182359	0.103259
H95	H	0.280875	-0.246279	0.164816
H96	H	-0.040193	-0.046236	-0.003063
N97	N	0.288485	-0.723173	0.680670
H98	H	0.362948	-0.731385	0.699454
H99	H	0.277537	-0.730324	0.624034
N100	N	-0.062348	-0.189377	-0.004495
H101	H	-0.123696	-0.160504	-0.008689
H102	H	-0.065849	-0.219815	-0.051135
N103	N	-0.014219	-0.258402	-0.092380
H104	H	-0.004172	-0.270226	-0.146420
H105	H	-0.087747	-0.277192	-0.080951
H106	H	0.313259	-0.804873	0.449682
H107	H	0.009941	-0.906207	0.185907
H108	H	-0.033739	-0.836935	0.426010
H109	H	0.009950	-0.906247	0.671997
N110	N	-0.164379	-0.823760	0.130415
H111	H	-0.215671	-0.823008	0.170145
H112	H	-0.127671	-0.867432	0.135878
N113	N	-0.059015	-0.839281	0.577653
H114	H	-0.044505	-0.837942	0.634541
H115	H	-0.102578	-0.800542	0.560927
N116	N	-0.008941	-0.918691	0.824078
H117	H	-0.054256	-0.948487	0.784055
H118	H	0.031155	-0.949502	0.859481
