data_functionalizedCrystal
_audit_creation_method	'MofGen! by Chris Wilmer'
_symmetry_space_group_name_H-M	'P1'
_symmetry_Int_Tables_number	1
_symmetry_cell_setting	triclinic
loop_
_symmetry_equiv_pos_as_xyz
  x,y,z
_cell_length_a	14.908783
_cell_length_b	17.637651
_cell_length_c	14.908308
_cell_angle_alpha	98.643595
_cell_angle_beta	90.211273
_cell_angle_gamma	103.762219
loop_
_atom_site_label
_atom_site_type_symbol
_atom_site_fract_x
_atom_site_fract_y
_atom_site_fract_z
Zn1	Zn	1.285512	-0.276155	0.520588
Zn2	Zn	1.267236	-0.400174	0.340031
Zn3	Zn	1.144010	-0.275301	0.361768
Zn4	Zn	1.104987	-0.415293	0.477972
O5	O	1.200436	-0.341731	0.425090
O6	O	1.410208	-0.286637	0.505376
O7	O	1.259572	-0.376924	0.218719
O8	O	1.186761	-0.164925	0.409768
O9	O	1.396780	-0.377753	0.372721
O10	O	1.290721	-0.165553	0.526453
O11	O	1.169039	-0.285181	0.234689
O12	O	1.011713	-0.299841	0.368444
O13	O	1.120251	-0.403521	0.607820
O14	O	0.983043	-0.402692	0.453818
O15	O	1.252882	-0.301297	0.639131
O16	O	1.221733	-0.512669	0.331397
O17	O	1.102530	-0.523776	0.432741
C18	C	0.964417	-0.352815	0.408866
C19	C	0.863441	-0.357577	0.401942
C20	C	0.687635	-0.271794	0.527203
C21	C	0.592760	-0.276266	0.520701
C22	C	0.578815	-0.370988	0.382432
C23	C	0.673690	-0.366516	0.388934
C24	C	0.728097	-0.316918	0.461323
C25	C	0.822973	-0.312451	0.467828
C26	C	0.809027	-0.407168	0.329556
C27	C	0.714152	-0.411640	0.323054
C28	C	1.155937	-0.546871	0.375107
C29	C	1.136981	-0.634628	0.353760
C30	C	1.345013	-0.924619	0.587584
C31	C	1.327173	-1.007081	0.567507
C32	C	1.219004	-1.006525	0.445899
C33	C	1.236838	-0.924061	0.465963
C34	C	1.299843	-0.883114	0.536807
C35	C	1.191668	-0.882556	0.415185
C36	C	1.209497	-0.800100	0.435251
C37	C	1.272497	-0.759148	0.506093
C38	C	1.317672	-0.800658	0.556872
C39	C	1.128659	-0.923505	0.344346
C40	C	1.083488	-0.882000	0.293568
C41	C	1.101322	-0.799542	0.313629
C42	C	1.164322	-0.758590	0.384472
C43	C	1.056147	-0.758032	0.262850
C44	C	1.073976	-0.675575	0.282916
C45	C	1.182151	-0.676133	0.404537
C46	C	1.437377	-0.330604	0.441377
C47	C	1.538347	-0.325862	0.448318
C48	C	1.184252	-0.354191	0.656578
C49	C	1.177356	-0.359500	0.755225
C50	C	1.245132	-0.135789	0.475289
C51	C	1.264179	-0.048029	0.496681
C52	C	1.216621	-0.329260	0.194519
C53	C	1.223742	-0.323719	0.095939
C54	C	1.302507	-0.263014	0.973202
C55	C	1.296030	-0.268000	1.065891
C56	C	1.157924	-0.374454	1.033292
C57	C	1.164400	-0.369468	0.940604
C58	C	1.236695	-0.313747	0.910563
C59	C	1.243174	-0.308765	0.817872
C60	C	1.105065	-0.415215	0.785276
C61	C	1.098588	-0.420201	0.877965
H62	H	1.233463	-0.642792	0.462219
H63	H	1.114135	-0.990647	0.328019
H64	H	0.841979	-0.443918	0.275917
O65	O	1.360062	-0.218684	1.126613
C66	C	1.497695	-0.112537	1.149167
C67	C	1.425253	-0.168355	1.080298
H68	H	1.550410	-0.071821	1.111750
H69	H	1.534371	-0.148845	1.186980
H70	H	1.461890	-0.075583	1.199772
H71	H	1.460986	-0.205321	1.029638
H72	H	1.388582	-0.132001	1.042553
H73	H	1.099065	-0.419819	1.057769
O74	O	1.028475	-0.474406	0.907180
C75	C	0.985819	-0.587178	0.985062
C76	C	1.065309	-0.525848	0.952010
H77	H	1.015570	-0.628774	1.021330
H78	H	0.939895	-0.622643	0.924395
H79	H	0.943138	-0.555478	1.033987
H80	H	1.108058	-0.557484	0.903101
H81	H	1.111167	-0.490385	1.012721
O82	O	0.875699	-0.264209	0.538181
C83	C	0.879503	-0.170765	0.674667
C84	C	0.819690	-0.225355	0.595028
H85	H	0.834241	-0.139350	0.720659
H86	H	0.935703	-0.125095	0.647164
H87	H	0.912842	-0.207487	0.715169
H88	H	0.786289	-0.188699	0.554494
H89	H	0.763543	-0.271028	0.622589
O90	O	0.740363	-0.223559	0.597559
C91	C	0.744170	-0.130133	0.734062
C92	C	0.684356	-0.184710	0.654416
H93	H	0.698910	-0.098722	0.780062
H94	H	0.800372	-0.084458	0.706567
H95	H	0.777508	-0.166863	0.774553
H96	H	0.650957	-0.148046	0.613893
H97	H	0.628207	-0.230387	0.681969
O98	O	0.553327	-0.232552	0.584709
C99	C	0.440173	-0.233592	0.699803
C100	C	0.484734	-0.283194	0.627326
H101	H	0.384720	-0.274516	0.734292
H102	H	0.407482	-0.192176	0.666199
H103	H	0.495383	-0.197357	0.752619
H104	H	0.429579	-0.319477	0.574488
H105	H	0.517446	-0.324561	0.660994
O106	O	1.041251	-0.464529	0.724332
C107	C	1.013202	-0.566118	0.592907
C108	C	1.085564	-0.510298	0.661851
H109	H	1.048999	-0.603148	0.542386
H110	H	0.976606	-0.529810	0.555010
H111	H	0.960411	-0.606760	0.630333
H112	H	1.138412	-0.469644	0.624495
H113	H	1.122090	-0.546654	0.699746
O114	O	0.525818	-0.419142	0.312194
C115	C	0.373487	-0.467950	0.240862
C116	C	0.433394	-0.413400	0.320467
H117	H	0.298754	-0.463314	0.247514
H118	H	0.377171	-0.531615	0.242080
H119	H	0.400209	-0.449263	0.174017
H120	H	0.406714	-0.432016	0.387353
H121	H	0.429708	-0.349748	0.319169
O122	O	1.029952	-0.635345	0.233610
C123	C	0.883922	-0.615110	0.185955
C124	C	0.933667	-0.660741	0.241807
H125	H	0.806068	-0.635614	0.192578
H126	H	0.901349	-0.626740	0.111532
H127	H	0.907535	-0.549145	0.212460
H128	H	0.910081	-0.726719	0.215380
H129	H	0.916239	-0.649046	0.316221
H130	H	0.669842	-0.452018	0.264115
O131	O	1.289730	-0.679060	0.525727
C132	C	1.286024	-0.566402	0.638008
C133	C	1.266444	-0.657107	0.615886
H134	H	1.267224	-0.548624	0.710907
H135	H	1.242897	-0.543722	0.589612
H136	H	1.362521	-0.539704	0.629895
H137	H	1.189970	-0.683871	0.624007
H138	H	1.309633	-0.679729	0.664279
O139	O	1.378870	-0.761000	0.625749
C140	C	1.484322	-0.770241	0.744235
C141	C	1.415032	-0.815252	0.666272
H142	H	1.513594	-0.814083	0.777008
H143	H	1.447705	-0.736135	0.797182
H144	H	1.543018	-0.727170	0.716184
H145	H	1.356320	-0.858363	0.694240
H146	H	1.451717	-0.849307	0.613338
O147	O	1.022348	-0.921898	0.224756
C148	C	0.946900	-1.048683	0.139975
C149	C	1.016176	-1.003599	0.217919
H150	H	0.941873	-1.114747	0.134434
H151	H	0.971416	-1.027935	0.073435
H152	H	0.876069	-1.036739	0.154395
H153	H	1.087028	-1.015521	0.203586
H154	H	0.991583	-1.024353	0.284433
O155	O	0.995001	-0.797932	0.194044
C156	C	0.919541	-0.924720	0.109278
C157	C	0.988827	-0.879632	0.187212
H158	H	0.914512	-0.990784	0.103742
H159	H	0.944048	-0.903978	0.042734
H160	H	0.848712	-0.912773	0.123706
H161	H	1.059676	-0.891558	0.172872
H162	H	0.964242	-0.900380	0.253732
O163	O	1.313321	-0.254532	0.788749
C164	C	1.388563	-0.116627	0.796204
C165	C	1.309069	-0.177966	0.829236
H166	H	1.385163	-0.054711	0.828937
H167	H	1.381905	-0.121705	0.719203
H168	H	1.457519	-0.128066	0.816065
H169	H	1.240076	-0.166567	0.809438
H170	H	1.315808	-0.172873	0.906232
H171	H	1.167703	-1.039875	0.388220
O172	O	1.406211	-0.884962	0.656461
C173	C	1.511663	-0.894202	0.774947
C174	C	1.442373	-0.939213	0.696984
H175	H	1.540935	-0.938044	0.807720
H176	H	1.475046	-0.860096	0.827894
H177	H	1.570359	-0.851131	0.746896
H178	H	1.383660	-0.982324	0.724952
H179	H	1.479058	-0.973268	0.644050
H180	H	1.361375	-0.217648	0.948742
H181	H	1.363947	-1.040872	0.608873
