data_functionalizedCrystal
_audit_creation_method	'MofGen! by Chris Wilmer'
_symmetry_space_group_name_H-M	'P1'
_symmetry_Int_Tables_number	1
_symmetry_cell_setting	triclinic
loop_
_symmetry_equiv_pos_as_xyz
  x,y,z
_cell_length_a	6.817900
_cell_length_b	11.102188
_cell_length_c	17.982968
_cell_angle_alpha	94.233461
_cell_angle_beta	102.451960
_cell_angle_gamma	108.603875
loop_
_atom_site_label
_atom_site_type_symbol
_atom_site_fract_x
_atom_site_fract_y
_atom_site_fract_z
V1	V	-4.041363	-0.177029	-0.237549
O2	O	-4.001741	0.007282	-0.233027
O3	O	-4.018610	-0.349841	-0.235924
O4	O	-3.987546	-0.174844	-0.341152
O5	O	-4.033021	-0.168927	-0.127070
V6	V	-4.522369	-0.154920	-0.224334
O7	O	-4.308141	-0.225528	-0.266535
O8	O	-4.705788	-0.106422	-0.195348
O9	O	-4.321915	0.017892	-0.225959
O10	O	-4.679388	-0.339231	-0.228856
O11	O	-4.648109	-0.163022	-0.334813
O12	O	-4.352980	-0.157106	-0.120731
C13	C	-3.870026	-0.391952	-0.232177
C14	C	-3.932674	-0.533232	-0.231539
C15	C	-3.922543	-0.581106	-0.161469
C16	C	-3.981431	-0.713854	-0.160873
C17	C	-4.060569	-0.750844	-0.300423
C18	C	-4.001696	-0.618098	-0.301018
C19	C	-3.830399	-0.168724	-0.366404
C20	C	-3.867851	-0.168080	-0.451100
C21	C	-4.068311	-0.174147	-0.494772
C22	C	-4.103489	-0.173541	-0.574352
C23	C	-3.938208	-0.166879	-0.610261
C24	C	-3.737729	-0.160808	-0.566583
C25	C	-3.702550	-0.161404	-0.487003
C26	C	-3.879599	-0.158401	-0.887520
C27	C	-3.914797	-0.157809	-0.967106
C28	C	-4.280538	-0.170538	-0.974869
C29	C	-4.245359	-0.171135	-0.895289
C30	C	-4.044881	-0.165057	-0.851618
C31	C	-4.006738	-0.165711	-0.765327
C32	C	-3.976352	-0.166234	-0.696551
C33	C	-4.133843	0.059996	-0.229704
C34	C	-4.050433	0.201274	-0.230347
C35	C	-4.173470	-0.163229	-0.095475
C36	C	-4.115256	-0.163867	-0.010778
H37	H	-4.116770	-0.819957	-0.356990
F38	F	-4.012491	-0.567145	-0.375600
H39	H	-3.866343	-0.512011	-0.104894
F40	F	-4.244237	-0.181247	-0.456564
H41	H	-3.973179	-0.752826	-0.103815
F42	F	-4.316850	-0.180011	-0.620829
F43	F	-3.666251	-0.151960	-0.841054
F44	F	-4.421279	-0.178233	-0.857078
H45	H	-4.443778	-0.175481	-1.010436
F46	F	-3.738870	-0.150716	-1.005320
H47	H	-3.539301	-0.156433	-0.451443
H48	H	-3.603153	-0.155376	-0.595825
