data_functionalizedCrystal
_audit_creation_method	'MofGen! by Chris Wilmer'
_symmetry_space_group_name_H-M	'P1'
_symmetry_Int_Tables_number	1
_symmetry_cell_setting	triclinic
loop_
_symmetry_equiv_pos_as_xyz
  x,y,z
_cell_length_a	19.121063
_cell_length_b	17.638336
_cell_length_c	17.640968
_cell_angle_alpha	65.689241
_cell_angle_beta	81.648500
_cell_angle_gamma	81.674337
loop_
_atom_site_label
_atom_site_type_symbol
_atom_site_fract_x
_atom_site_fract_y
_atom_site_fract_z
Zn1	Zn	-0.388313	1.338582	-0.735764
Zn2	Zn	-0.054979	1.671916	-0.402431
Zn3	Zn	0.278354	2.005249	-0.069097
Zn4	Zn	-0.523556	1.305199	-0.603323
Zn5	Zn	-0.190223	1.638532	-0.269989
Zn6	Zn	0.143110	1.971866	0.063344
Zn7	Zn	-0.388276	1.172903	-0.570148
Zn8	Zn	-0.054943	1.506236	-0.236814
Zn9	Zn	0.278390	1.839569	0.096519
Zn10	Zn	-0.484544	1.196871	-0.711728
Zn11	Zn	-0.151211	1.530205	-0.378395
Zn12	Zn	0.182122	1.863538	-0.045062
O13	O	-0.446172	1.253389	-0.655241
O14	O	-0.112839	1.586722	-0.321907
O15	O	0.220494	1.920056	0.011426
O16	O	-0.422595	1.448827	-0.742138
O17	O	-0.089262	1.782160	-0.408805
O18	O	0.244072	2.115493	-0.075471
O19	O	-0.521922	1.263648	-0.484243
O20	O	-0.188589	1.596981	-0.150909
O21	O	0.144744	1.930314	0.182424
O22	O	-0.291393	1.198821	-0.588292
O23	O	0.041941	1.532154	-0.254959
O24	O	0.375274	1.865487	0.078375
O25	O	-0.521958	1.424300	-0.644834
O26	O	-0.188624	1.757634	-0.311501
O27	O	0.144709	2.090967	0.021833
O28	O	-0.291420	1.320545	-0.709970
O29	O	0.041914	1.653878	-0.376636
O30	O	0.375247	1.987211	-0.043303
O31	O	-0.422533	1.166450	-0.459869
O32	O	-0.089199	1.499784	-0.126536
O33	O	0.244134	1.833117	0.206797
O34	O	-0.384704	1.061409	-0.564986
O35	O	-0.051371	1.394743	-0.231653
O36	O	0.281962	1.728076	0.101681
O37	O	-0.455468	1.239672	-0.829596
O38	O	-0.122134	1.573005	-0.496263
O39	O	0.211199	1.906338	-0.162929
O40	O	-0.455432	1.079019	-0.669005
O41	O	-0.122099	1.412352	-0.335671
O42	O	0.211234	1.745686	-0.002338
O43	O	-0.384767	1.343786	-0.847255
O44	O	-0.051433	1.677119	-0.513921
O45	O	0.281900	2.010453	-0.180588
O46	O	-0.615270	1.286889	-0.621528
O47	O	-0.281936	1.620222	-0.288194
O48	O	0.051397	1.953556	0.045139
O49	O	-0.586608	1.207301	-0.701173
O50	O	-0.253274	1.540635	-0.367840
O51	O	0.080059	1.873968	-0.034506
C52	C	-0.415831	1.040481	-0.610788
C53	C	-0.082498	1.373814	-0.277454
C54	C	0.250835	1.707148	0.055879
C55	C	-0.402865	0.949401	-0.591791
C56	C	-0.069532	1.282735	-0.258457
C57	C	0.263801	1.616068	0.074876
C58	C	-0.347687	0.811857	-0.510936
C59	C	-0.014354	1.145190	-0.177603
C60	C	0.318980	1.478524	0.155730
C61	C	-0.359875	0.897441	-0.528794
C62	C	-0.026541	1.230774	-0.195460
C63	C	0.306792	1.564108	0.137873
C64	C	-0.433689	0.915790	-0.636953
C65	C	-0.100356	1.249124	-0.303620
C66	C	0.232978	1.582457	0.029714
C67	C	-0.421510	0.830205	-0.619102
C68	C	-0.088177	1.163539	-0.285769
C69	C	0.245156	1.496872	0.047565
C70	C	-0.378508	0.778245	-0.556094
C71	C	-0.045175	1.111578	-0.222760
C72	C	0.288159	1.444912	0.110573
C73	C	-0.452331	0.796594	-0.664259
C74	C	-0.118998	1.129927	-0.330926
C75	C	0.214335	1.463260	0.002407
C76	C	-0.440151	0.711017	-0.646413
C77	C	-0.106817	1.044350	-0.313079
C78	C	0.226516	1.377683	0.020254
C79	C	-0.397149	0.659051	-0.583409
C80	C	-0.063815	0.992385	-0.250075
C81	C	0.269518	1.325718	0.083258
C82	C	-0.366327	0.692668	-0.538247
C83	C	-0.032994	1.026001	-0.204914
C84	C	0.300339	1.359335	0.128420
C85	C	-0.495329	0.848556	-0.727272
C86	C	-0.161996	1.181890	-0.393938
C87	C	0.171337	1.515223	-0.060605
C88	C	-0.526151	0.814944	-0.772429
C89	C	-0.192817	1.148278	-0.439096
C90	C	0.140516	1.481611	-0.105762
C91	C	-0.513974	0.729365	-0.754578
C92	C	-0.180641	1.062698	-0.421245
C93	C	0.152693	1.396032	-0.087912
C94	C	-0.470972	0.677400	-0.691575
C95	C	-0.137639	1.010733	-0.358241
C96	C	0.195695	1.344067	-0.024908
C97	C	-0.544795	0.695748	-0.799740
C98	C	-0.211462	1.029082	-0.466407
C99	C	0.121871	1.362415	-0.133074
C100	C	-0.532615	0.610172	-0.781894
C101	C	-0.199281	0.943505	-0.448560
C102	C	0.134052	1.276838	-0.115227
C103	C	-0.458791	0.591823	-0.673728
C104	C	-0.125458	0.925156	-0.340394
C105	C	0.207875	1.258490	-0.007061
C106	C	-0.626061	1.246099	-0.662365
C107	C	-0.292728	1.579433	-0.329031
C108	C	0.040605	1.912766	0.004302
C109	C	-0.703025	1.243062	-0.665455
C110	C	-0.369692	1.576395	-0.332122
C111	C	-0.036359	1.909728	0.001211
C112	C	-0.754082	1.283122	-0.625492
C113	C	-0.420749	1.616455	-0.292159
C114	C	-0.087416	1.949788	0.041174
C115	C	-0.826397	1.280270	-0.628405
C116	C	-0.493064	1.613604	-0.295072
C117	C	-0.159731	1.946937	0.038262
C118	C	-0.847654	1.237354	-0.671276
C119	C	-0.514320	1.570687	-0.337943
C120	C	-0.180987	1.904021	-0.004610
C121	C	-0.796591	1.197293	-0.711244
C122	C	-0.463257	1.530627	-0.377911
C123	C	-0.129924	1.863960	-0.044578
C124	C	-0.724277	1.200150	-0.708336
C125	C	-0.390944	1.533483	-0.375003
C126	C	-0.057610	1.866817	-0.041670
C127	C	-1.065248	1.226658	-0.682133
C128	C	-0.731915	1.559992	-0.348800
C129	C	-0.398581	1.893325	-0.015467
C130	C	-1.137568	1.223803	-0.685036
C131	C	-0.804234	1.557136	-0.351703
C132	C	-0.470901	1.890469	-0.018370
C133	C	-1.167369	1.306781	-0.602198
C134	C	-0.834036	1.640115	-0.268865
C135	C	-0.500703	1.973448	0.064469
C136	C	-1.095053	1.309630	-0.599289
C137	C	-0.761720	1.642963	-0.265956
C138	C	-0.428387	1.976296	0.067377
C139	C	-1.043996	1.269573	-0.639261
C140	C	-0.710663	1.602906	-0.305928
C141	C	-0.377330	1.936239	0.027405
C142	C	-0.921571	1.234437	-0.674252
C143	C	-0.588237	1.567770	-0.340919
C144	C	-0.254904	1.901103	-0.007586
C145	C	-0.970081	1.272496	-0.636290
C146	C	-0.636748	1.605829	-0.302956
C147	C	-0.303414	1.939162	0.030377
C148	C	-0.265582	1.260733	-0.648111
C149	C	0.067752	1.594066	-0.314778
C150	C	0.401085	1.927399	0.018555
C151	C	-0.188625	1.263862	-0.645073
C152	C	0.144709	1.597196	-0.311740
C153	C	0.478042	1.930529	0.021593
C154	C	-0.415770	1.298126	-0.868992
C155	C	-0.082436	1.631460	-0.535659
C156	C	0.250897	1.964793	-0.202325
C157	C	-0.402814	1.317191	-0.960080
C158	C	-0.069480	1.650524	-0.626747
C159	C	0.263853	1.983857	-0.293413
C160	C	-0.476632	1.467128	-0.699868
C161	C	-0.143299	1.800462	-0.366534
C162	C	0.190035	2.133795	-0.033201
C163	C	-0.489612	1.558211	-0.718885
C164	C	-0.156279	1.891545	-0.385552
C165	C	0.177054	2.224878	-0.052218
C166	C	-0.544265	1.108888	-1.213694
C167	C	-0.210931	1.442222	-0.880360
C168	C	0.122402	1.775555	-0.547027
C169	C	-0.532084	1.126820	-1.299288
C170	C	-0.198751	1.460153	-0.965955
C171	C	0.134582	1.793486	-0.632621
C172	C	-0.458470	1.235225	-1.317664
C173	C	-0.125137	1.568558	-0.984331
C174	C	0.208197	1.901891	-0.650997
C175	C	-0.470641	1.217300	-1.232069
C176	C	-0.137308	1.550633	-0.898736
C177	C	0.196025	1.883966	-0.565402
C178	C	-0.513540	1.154131	-1.180090
C179	C	-0.180207	1.487464	-0.846757
C180	C	0.153127	1.820798	-0.513424
C181	C	-0.439916	1.262543	-1.198466
C182	C	-0.106583	1.595876	-0.865132
C183	C	0.226750	1.929209	-0.531799
C184	C	-0.452090	1.244621	-1.112879
C185	C	-0.118757	1.577955	-0.779545
C186	C	0.214577	1.911288	-0.446212
C187	C	-0.494988	1.181458	-1.060895
C188	C	-0.161655	1.514791	-0.727562
C189	C	0.171678	1.848124	-0.394228
C190	C	-0.525714	1.136210	-1.094503
C191	C	-0.192380	1.469543	-0.761170
C192	C	0.140953	1.802877	-0.427837
C193	C	-0.397022	1.325715	-1.250447
C194	C	-0.063689	1.659048	-0.917113
C195	C	0.269645	1.992381	-0.583780
C196	C	-0.366297	1.370958	-1.216843
C197	C	-0.032964	1.704291	-0.883510
C198	C	0.300369	2.037624	-0.550177
C199	C	-0.378466	1.353033	-1.131254
C200	C	-0.045133	1.686366	-0.797920
C201	C	0.288200	2.019700	-0.464587
C202	C	-0.421365	1.289869	-1.079270
C203	C	-0.088032	1.623202	-0.745937
C204	C	0.245302	1.956536	-0.412604
C205	C	-0.347741	1.398280	-1.097646
C206	C	-0.014408	1.731614	-0.764312
C207	C	0.318925	2.064947	-0.430979
C208	C	-0.359915	1.380359	-1.012059
C209	C	-0.026582	1.713693	-0.678725
C210	C	0.306752	2.047026	-0.345392
C211	C	-0.433539	1.271948	-0.993683
C212	C	-0.100205	1.605281	-0.660350
C213	C	0.233128	1.938615	-0.327017
C214	C	-0.476414	1.208875	-0.442329
C215	C	-0.143080	1.542208	-0.108996
C216	C	0.190253	1.875541	0.224338
C217	C	-0.489197	1.189977	-0.351267
C218	C	-0.155864	1.523310	-0.017933
C219	C	0.177470	1.856644	0.315400
H220	H	-0.423774	0.549514	-0.622420
H221	H	-0.090441	0.882847	-0.289087
H222	H	0.242892	1.216180	0.044247
Cl223	Cl	-0.948300	1.180485	-0.728145
Cl224	Cl	-0.614967	1.513819	-0.394812
Cl225	Cl	-0.281633	1.847152	-0.061478
Cl226	Cl	-0.890581	1.330637	-0.578166
Cl227	Cl	-0.557248	1.663970	-0.244833
Cl228	Cl	-0.223914	1.997304	0.088500
Cl229	Cl	-1.068337	1.363598	-0.545406
Cl230	Cl	-0.735004	1.696931	-0.212073
Cl231	Cl	-0.401670	2.030265	0.121261
H232	H	-0.468699	0.958108	-0.688256
H233	H	-0.135366	1.291442	-0.354923
H234	H	0.197967	1.624775	-0.021590
Cl235	Cl	-1.231558	1.357142	-0.551958
Cl236	Cl	-0.898224	1.690475	-0.218624
Cl237	Cl	-0.564891	2.023808	0.114709
Cl238	Cl	-1.001072	1.176298	-0.732382
Cl239	Cl	-0.667738	1.509632	-0.399049
Cl240	Cl	-0.334405	1.842965	-0.065716
Cl241	Cl	-1.164288	1.169834	-0.738923
Cl242	Cl	-0.830955	1.503167	-0.405590
Cl243	Cl	-0.497621	1.836500	-0.072256
Cl244	Cl	-0.823313	1.143347	-0.765146
Cl245	Cl	-0.489980	1.476680	-0.431813
Cl246	Cl	-0.156646	1.810013	-0.098479
H247	H	-0.952772	1.307442	-0.601388
H248	H	-0.619438	1.640775	-0.268054
H249	H	-0.286105	1.974109	0.065279
H250	H	-0.682706	1.167530	-0.740880
H251	H	-0.349372	1.500864	-0.407546
H252	H	-0.016039	1.834197	-0.074213
H253	H	-0.504903	1.166871	-0.991206
H254	H	-0.171569	1.500204	-0.657872
H255	H	0.161764	1.833537	-0.324539
Cl256	Cl	-0.404544	1.314636	-1.383016
Cl257	Cl	-0.071211	1.647969	-1.049683
Cl258	Cl	0.262122	1.981302	-0.716350
H259	H	-0.387228	0.589371	-0.568883
H260	H	-0.053895	0.922704	-0.235549
H261	H	0.279438	1.256037	0.097784
H262	H	-0.334766	0.924805	-0.492023
H263	H	-0.001432	1.258138	-0.158690
H264	H	0.331901	1.591472	0.174643
Cl265	Cl	-0.312371	1.450368	-1.282195
Cl266	Cl	0.020962	1.783702	-0.948862
Cl267	Cl	0.354295	2.117035	-0.615529
Cl268	Cl	-0.510645	0.956140	-0.749705
Cl269	Cl	-0.177311	1.289473	-0.416372
Cl270	Cl	0.156022	1.622806	-0.083038
Cl271	Cl	-0.312278	0.627337	-0.459023
Cl272	Cl	0.021055	0.960670	-0.125689
Cl273	Cl	0.354388	1.294004	0.207644
H274	H	-0.468452	1.220491	-0.951354
H275	H	-0.135118	1.553824	-0.618021
H276	H	0.198215	1.887157	-0.284687
Cl277	Cl	-0.580214	0.880271	-0.851631
Cl278	Cl	-0.246881	1.213605	-0.518297
Cl279	Cl	0.086452	1.546938	-0.184964
H280	H	-0.312670	0.769547	-0.459628
H281	H	0.020663	1.102881	-0.126295
H282	H	0.353997	1.436214	0.207038
H283	H	-0.579802	0.738068	-0.851047
H284	H	-0.246469	1.071402	-0.517714
H285	H	0.086865	1.404735	-0.184380
Cl286	Cl	-0.381721	1.348247	-1.358044
Cl287	Cl	-0.048388	1.681580	-1.024711
Cl288	Cl	0.284946	2.014913	-0.691377
H289	H	-0.557710	0.582805	-0.818668
H290	H	-0.224377	0.916139	-0.485334
H291	H	0.108957	1.249472	-0.152001
H292	H	-0.736782	1.318064	-0.590578
H293	H	-0.403448	1.651398	-0.257244
H294	H	-0.070115	1.984731	0.076089
Cl295	Cl	-0.570713	1.069933	-1.341528
Cl296	Cl	-0.237379	1.403266	-1.008195
Cl297	Cl	0.095954	1.736599	-0.674862
Cl298	Cl	-0.579637	1.056790	-1.029150
Cl299	Cl	-0.246304	1.390123	-0.695817
Cl300	Cl	0.087029	1.723456	-0.362484
H301	H	-0.579178	1.057431	-1.171365
H302	H	-0.245844	1.390764	-0.838031
H303	H	0.087489	1.724098	-0.504698
H304	H	-0.312819	1.449717	-1.139980
H305	H	0.020514	1.783051	-0.806647
H306	H	0.353848	2.116384	-0.473314
Cl307	Cl	-0.321292	1.437239	-0.969811
Cl308	Cl	0.012041	1.770572	-0.636478
Cl309	Cl	0.345375	2.103906	-0.303144
