data_functionalizedCrystal
_audit_creation_method	'MofGen! by Chris Wilmer'
_symmetry_space_group_name_H-M	'P1'
_symmetry_Int_Tables_number	1
_symmetry_cell_setting	triclinic
loop_
_symmetry_equiv_pos_as_xyz
  x,y,z
_cell_length_a	27.731994
_cell_length_b	15.944551
_cell_length_c	14.421503
_cell_angle_alpha	89.996660
_cell_angle_beta	89.998531
_cell_angle_gamma	96.940364
loop_
_atom_site_label
_atom_site_type_symbol
_atom_site_fract_x
_atom_site_fract_y
_atom_site_fract_z
O1	O	0.641379	-0.099716	-0.076982
O2	O	0.500648	-0.114960	-0.077013
O3	O	0.574857	0.014988	-0.076988
O4	O	0.567171	-0.229664	-0.077006
O5	O	0.574844	0.014969	0.077235
O6	O	0.500636	-0.114980	0.077211
O7	O	0.641367	-0.099735	0.077242
Cu8	Cu	0.571000	-0.107359	0.091308
Cu9	Cu	0.571015	-0.107336	-0.091079
O10	O	0.567158	-0.229684	0.077217
C11	C	0.482633	-0.114657	0.000095
C12	C	0.428973	-0.113715	0.000084
C13	C	0.096222	-0.107790	0.084187
C14	C	-0.105452	-0.104207	0.084198
O15	O	-0.131532	-0.103717	0.155694
N16	N	-0.130662	-0.103752	0.000131
C17	C	-0.105450	-0.104187	-0.083945
O18	O	-0.131520	-0.103708	-0.155449
C19	C	0.096223	-0.107763	-0.083955
C20	C	0.121430	-0.108227	0.000118
C21	C	0.121429	-0.108253	0.168253
C22	C	0.171844	-0.109153	0.168249
C23	C	0.197052	-0.109590	0.084180
C24	C	0.171845	-0.109127	0.000114
C25	C	0.121435	-0.108192	-0.168030
C26	C	0.171856	-0.109084	-0.168025
C27	C	0.197063	-0.109547	-0.083952
C28	C	0.247468	-0.110464	-0.083959
N29	N	0.272678	-0.110920	0.000108
C30	C	0.247470	-0.110483	0.084178
C31	C	-0.211331	-0.102311	-0.083934
C32	C	-0.261750	-0.101418	-0.083932
C33	C	-0.261748	-0.101437	0.084211
C34	C	-0.211329	-0.102336	0.084208
C35	C	-0.186121	-0.102766	0.000133
C36	C	0.353345	-0.112374	0.084164
C37	C	0.403765	-0.113277	0.084153
C38	C	0.403759	-0.113254	-0.083990
C39	C	0.353344	-0.112354	-0.083979
C40	C	0.328138	-0.111912	0.000105
O41	O	0.273580	-0.110946	-0.155417
O42	O	0.273550	-0.110942	0.155671
C43	C	0.045807	-0.106890	0.084191
C44	C	0.020600	-0.106427	0.000125
C45	C	0.045808	-0.106864	-0.083945
C46	C	-0.029818	-0.105534	0.000127
C47	C	-0.055026	-0.105097	0.084196
C48	C	-0.029816	-0.105552	0.168263
C49	C	0.020599	-0.106452	0.168260
C50	C	0.020598	-0.106408	-0.168012
C51	C	-0.029817	-0.105509	-0.168001
C52	C	-0.055025	-0.105072	-0.083932
C53	C	0.574531	0.046268	0.000124
C54	C	0.573575	0.139501	0.000124
C55	C	0.659382	-0.100039	0.000132
C56	C	0.713042	-0.100981	0.000137
C57	C	0.567484	-0.260964	0.000103
C58	C	0.568440	-0.354197	0.000097
N59	N	0.570993	-0.107375	0.219589
C60	C	0.525290	0.353710	0.000101
C61	C	0.547706	0.415019	0.076147
C62	C	0.571844	0.310204	0.000117
C63	C	0.547729	0.415022	-0.075905
C64	C	0.570169	0.475094	0.000105
C65	C	0.594273	0.370285	0.076226
C66	C	0.594289	0.370281	-0.075895
C67	C	0.616739	0.431572	0.000170
C68	C	0.572808	0.215215	0.000124
C69	C	0.569209	0.570083	0.000105
N70	N	0.571025	-0.107314	-0.219360
C71	C	0.536673	-0.167436	0.469232
C72	C	0.580352	-0.183158	0.531043
C73	C	0.571005	-0.107355	0.408751
C74	C	0.527338	-0.091653	0.531034
C75	C	0.571013	-0.107337	0.591472
C76	C	0.614706	-0.123113	0.469201
C77	C	0.561663	-0.031576	0.469187
C78	C	0.605373	-0.047265	0.530970
C79	C	0.571000	-0.107367	0.303490
C80	C	0.571023	-0.107324	0.696731
H81	H	0.332829	-0.112021	0.152633
Cl82	Cl	0.465631	0.301485	0.000199
Cl83	Cl	0.435459	-0.113798	-0.189671
Cl84	Cl	0.517324	0.445645	-0.175158
Cl85	Cl	-0.061500	-0.104931	-0.273704
Cl86	Cl	0.203525	-0.109730	0.273946
Cl87	Cl	0.089747	-0.107708	0.273955
H88	H	0.041118	-0.106762	-0.236472
H89	H	0.613941	0.350550	0.140588
Cl90	Cl	-0.179649	-0.102854	-0.189640
Cl91	Cl	0.203543	-0.109623	-0.273726
Cl92	Cl	0.650250	0.031196	0.572568
Cl93	Cl	0.592563	-0.282085	0.572993
H94	H	0.613968	0.350422	-0.140181
H95	H	-0.282281	-0.101083	0.152664
Cl96	Cl	0.671739	-0.143722	0.427449
H97	H	0.332818	-0.111990	-0.152438
H98	H	0.655415	0.465250	0.000222
Cl99	Cl	0.517299	0.445646	0.175395
H100	H	0.100920	-0.107813	-0.236491
H101	H	-0.282270	-0.101054	-0.152392
H102	H	0.507670	-0.218285	0.442124
H103	H	0.553741	0.032480	0.441995
H104	H	-0.050350	-0.105201	0.236716
Cl105	Cl	0.435450	-0.113863	0.189852
Cl106	Cl	-0.179646	-0.102916	0.189903
Cl107	Cl	0.052280	-0.107034	0.273957
H108	H	0.490407	-0.078380	0.558197
