data_functionalizedCrystal
_audit_creation_method	'MofGen! by Chris Wilmer'
_symmetry_space_group_name_H-M	'P1'
_symmetry_Int_Tables_number	1
_symmetry_cell_setting	triclinic
loop_
_symmetry_equiv_pos_as_xyz
  x,y,z
_cell_length_a	19.288864
_cell_length_b	17.666332
_cell_length_c	19.288865
_cell_angle_alpha	89.989547
_cell_angle_beta	96.863755
_cell_angle_gamma	90.023099
loop_
_atom_site_label
_atom_site_type_symbol
_atom_site_fract_x
_atom_site_fract_y
_atom_site_fract_z
O1	O	0.921353	0.063200	-0.086648
O2	O	0.719092	0.063149	-0.098336
O3	O	0.826067	0.063161	0.008638
O4	O	0.814378	0.063188	-0.193622
O5	O	0.826048	-0.062736	0.008641
O6	O	0.719074	-0.062748	-0.098333
O7	O	0.921334	-0.062697	-0.086644
Cu8	Cu	0.820202	-0.074218	-0.092489
Cu9	Cu	0.820224	0.074670	-0.092492
O10	O	0.814360	-0.062709	-0.193619
C11	C	0.693207	0.000194	-0.097959
C12	C	0.616103	0.000174	-0.096830
N13	N	0.820192	-0.178937	-0.092486
C14	C	0.571407	0.000194	-0.159598
C15	C	0.498960	0.000203	-0.158537
C16	C	0.471212	0.000206	-0.094705
C17	C	0.515918	0.000181	-0.031929
C18	C	0.588364	0.000165	-0.032991
C19	C	0.362957	0.044332	-0.044527
C20	C	0.290512	0.044352	-0.043467
C21	C	0.247767	0.000251	-0.091425
C22	C	0.277473	-0.043861	-0.140455
C23	C	0.349918	-0.043877	-0.141518
C24	C	0.392658	0.000222	-0.093546
C25	C	0.124514	0.000279	-0.153047
C26	C	0.052066	0.000283	-0.151984
C27	C	0.069026	0.000269	-0.025374
C28	C	0.141473	0.000258	-0.026439
C29	C	0.169212	0.000267	-0.090278
C30	C	0.862179	-0.218523	-0.134509
C31	C	0.862190	-0.297771	-0.134507
C32	C	0.820201	-0.337429	-0.092490
C33	C	0.778211	-0.297833	-0.050457
C34	C	0.778206	-0.218587	-0.050455
N35	N	0.759369	-0.461885	-0.090783
N36	N	0.759375	-0.537165	-0.090789
C37	C	0.820214	-0.576193	-0.092492
N38	N	0.881046	-0.537097	-0.094203
N39	N	0.881039	-0.461810	-0.094200
C40	C	0.820202	-0.423358	-0.092487
C41	C	0.862217	-0.701709	-0.134516
C42	C	0.862229	-0.780958	-0.134509
C43	C	0.778244	-0.781019	-0.050463
C44	C	0.778237	-0.701771	-0.050466
C45	C	0.820223	-0.662121	-0.092496
C46	C	0.947220	0.000260	-0.087022
C47	C	1.024324	0.000285	-0.088151
C48	C	0.825682	0.000210	0.034516
C49	C	0.824553	0.000203	0.111620
N50	N	0.820241	0.179389	-0.092490
C51	C	0.814745	0.000244	-0.219497
C52	C	0.815874	0.000255	-0.296601
C53	C	0.887321	0.000215	0.156316
C54	C	0.886260	0.000227	0.228763
C55	C	0.822428	0.000211	0.256511
C56	C	0.759652	0.000204	0.211805
C57	C	0.760714	0.000200	0.139359
C58	C	0.772242	-0.043900	0.364799
C59	C	0.771182	-0.043901	0.437244
C60	C	0.819148	0.000228	0.479956
C61	C	0.868186	0.044346	0.450217
C62	C	0.869249	0.044342	0.377772
C63	C	0.821269	0.000216	0.335065
C64	C	0.880770	0.000253	0.603209
C65	C	0.879707	0.000270	0.675657
C66	C	0.753097	0.000239	0.658697
C67	C	0.754162	0.000230	0.586250
C68	C	0.818001	0.000234	0.558511
H69	H	0.593987	0.000203	-0.211580
H70	H	0.707679	0.000193	0.234401
H71	H	0.709599	0.000190	0.102967
H72	H	0.397755	0.080249	-0.005472
H73	H	0.624756	0.000149	0.018124
H74	H	0.242670	-0.079773	-0.179507
H75	H	0.907245	0.080280	0.484993
H76	H	0.909176	0.080267	0.353561
H77	H	0.177866	0.000245	0.024674
H78	H	0.493322	0.000194	0.020044
H79	H	0.744014	-0.186357	-0.016234
H80	H	0.939303	0.000221	0.133736
H81	H	0.462561	0.000217	-0.209652
H82	H	0.896370	-0.186245	-0.168731
H83	H	0.374102	-0.079796	-0.181437
H84	H	0.015674	0.000295	-0.203099
H85	H	0.147101	0.000275	-0.205028
H86	H	0.744024	-0.330128	-0.016245
H87	H	0.930822	0.000284	0.712049
H88	H	0.932751	0.000260	0.580622
H89	H	0.703049	0.000216	0.549857
H90	H	0.701123	0.000230	0.681288
H91	H	0.896404	-0.669424	-0.168739
H92	H	0.744056	-0.813308	-0.016250
H93	H	0.046435	0.000318	0.026600
H94	H	0.731249	-0.079820	0.461451
H95	H	0.266331	0.080274	-0.003547
H96	H	0.733180	-0.079839	0.330028
H97	H	0.896426	-0.813188	-0.168728
H98	H	0.937375	0.000240	0.265162
H99	H	0.744044	-0.669540	-0.016248
H100	H	0.896382	-0.330009	-0.168730
