data_functionalizedCrystal
_audit_creation_method	'MofGen! by Chris Wilmer'
_symmetry_space_group_name_H-M	'P1'
_symmetry_Int_Tables_number	1
_symmetry_cell_setting	triclinic
loop_
_symmetry_equiv_pos_as_xyz
  x,y,z
_cell_length_a	14.519710
_cell_length_b	12.837942
_cell_length_c	11.892095
_cell_angle_alpha	85.697431
_cell_angle_beta	86.094705
_cell_angle_gamma	90.745458
loop_
_atom_site_label
_atom_site_type_symbol
_atom_site_fract_x
_atom_site_fract_y
_atom_site_fract_z
O1	O	1.240925	-0.129293	-0.093978
O2	O	1.574259	0.204040	0.239356
O3	O	1.907592	0.537374	0.572689
O4	O	0.973832	-0.145298	-0.093985
O5	O	1.307165	0.188036	0.239348
O6	O	1.640498	0.521369	0.572681
O7	O	1.101456	0.013618	-0.093975
O8	O	1.434789	0.346951	0.239359
O9	O	1.768122	0.680285	0.572692
O10	O	1.113301	-0.288209	-0.093988
O11	O	1.446635	0.045125	0.239345
O12	O	1.779968	0.378458	0.572678
O13	O	1.090813	0.000388	0.094032
O14	O	1.424146	0.333722	0.427365
O15	O	1.757480	0.667055	0.760698
O16	O	0.963189	-0.158527	0.094021
O17	O	1.296522	0.174806	0.427355
O18	O	1.629856	0.508139	0.760688
O19	O	1.230282	-0.142523	0.094029
O20	O	1.563616	0.190811	0.427362
O21	O	1.896949	0.524144	0.760695
Zn22	Zn	1.095046	-0.152625	0.123875
Zn23	Zn	1.428379	0.180708	0.457208
Zn24	Zn	1.761713	0.514041	0.790542
Zn25	Zn	1.109068	-0.135195	-0.123832
Zn26	Zn	1.442402	0.198139	0.209502
Zn27	Zn	1.775735	0.531472	0.542835
O28	O	1.102659	-0.301438	0.094018
O29	O	1.435992	0.031895	0.427352
O30	O	1.769325	0.365228	0.760685
C31	C	1.092133	0.045631	0.000028
C32	C	1.425466	0.378965	0.333361
C33	C	1.758800	0.712298	0.666694
C34	C	1.080199	0.160731	0.000026
C35	C	1.413532	0.494064	0.333359
C36	C	1.746865	0.827397	0.666692
C37	C	0.934086	-0.151166	0.000017
C38	C	1.267420	0.182167	0.333350
C39	C	1.600753	0.515500	0.666684
C40	C	0.831512	-0.148931	0.000014
C41	C	1.164845	0.184402	0.333348
C42	C	1.498179	0.517736	0.666681
C43	C	1.270028	-0.136654	0.000024
C44	C	1.603362	0.196680	0.333357
C45	C	1.936695	0.530013	0.666691
C46	C	1.372603	-0.138888	0.000019
C47	C	1.705936	0.194445	0.333353
C48	C	2.039270	0.527778	0.666686
C49	C	1.748210	-0.147117	0.000018
C50	C	2.081543	0.186216	0.333352
C51	C	2.414876	0.519550	0.666685
C52	C	1.643704	-0.144832	0.000018
C53	C	1.977038	0.188501	0.333352
C54	C	2.310371	0.521835	0.666685
C55	C	1.560410	-0.143003	0.000018
C56	C	1.893743	0.190330	0.333351
C57	C	2.227076	0.523664	0.666684
C58	C	1.455898	-0.140718	0.000020
C59	C	1.789231	0.192616	0.333353
C60	C	2.122564	0.525949	0.666687
C61	C	1.111982	-0.333451	0.000013
C62	C	1.445315	-0.000118	0.333347
C63	C	1.778648	0.333215	0.666680
C64	C	1.123916	-0.448550	0.000008
C65	C	1.457249	-0.115217	0.333341
C66	C	1.790583	0.218117	0.666675
N67	N	1.085483	-0.164521	0.292928
N68	N	1.418816	0.168813	0.626262
N69	N	1.752149	0.502146	0.959595
C70	C	1.223670	0.401424	0.000006
C71	C	1.557004	0.734758	0.333339
C72	C	1.890337	1.068091	0.666673
C73	C	1.212462	0.509571	0.000004
C74	C	1.545795	0.842905	0.333337
C75	C	1.879128	1.176238	0.666671
C76	C	1.046574	0.485174	0.000011
C77	C	1.379907	0.818507	0.333344
C78	C	1.713240	1.151840	0.666678
C79	C	1.057783	0.377027	0.000013
C80	C	1.391116	0.710360	0.333346
C81	C	1.724449	1.043694	0.666680
C82	C	1.146334	0.335156	0.000012
C83	C	1.479667	0.668490	0.333346
C84	C	1.813000	1.001823	0.666679
C85	C	1.157541	0.227007	0.000023
C86	C	1.490874	0.560340	0.333356
C87	C	1.824208	0.893674	0.666689
C88	C	0.991654	0.202612	0.000022
C89	C	1.324988	0.535945	0.333355
C90	C	1.658321	0.869279	0.666688
C91	C	0.980446	0.310759	0.000019
C92	C	1.313779	0.644092	0.333353
C93	C	1.647112	0.977425	0.666686
N94	N	1.118638	-0.123291	-0.292885
N95	N	1.451971	0.210042	0.040448
N96	N	1.785305	0.543375	0.373782
C97	C	1.185178	-0.040459	0.529585
C98	C	1.518512	0.292875	0.862918
C99	C	1.851845	0.626208	1.196251
C100	C	1.178501	-0.048781	0.647926
C101	C	1.511834	0.284552	0.981259
C102	C	1.845168	0.617886	1.314593
C103	C	1.065447	-0.189482	0.647955
C104	C	1.398780	0.143851	0.981288
C105	C	1.732113	0.477185	1.314621
C106	C	1.072124	-0.181160	0.529613
C107	C	1.405457	0.152174	0.862947
C108	C	1.738791	0.485507	1.196280
C109	C	1.131993	-0.106647	0.470432
C110	C	1.465326	0.226687	0.803766
C111	C	1.798659	0.560020	1.137099
C112	C	1.138674	-0.098330	0.352089
C113	C	1.472008	0.235003	0.685422
C114	C	1.805341	0.568337	1.018756
C115	C	1.025616	-0.239025	0.352120
C116	C	1.358949	0.094308	0.685453
C117	C	1.692282	0.427641	1.018786
C118	C	1.018938	-0.247348	0.470461
C119	C	1.352272	0.085986	0.803794
C120	C	1.685605	0.419319	1.137128
H121	H	1.229644	0.192918	0.000026
H122	H	1.562977	0.526251	0.333360
H123	H	1.896310	0.859585	0.666693
F124	F	1.202394	-0.019030	0.289107
F125	F	1.535727	0.314303	0.622440
F126	F	1.869060	0.647636	0.955773
H127	H	1.233932	0.020206	0.481399
H128	H	1.567266	0.353539	0.814732
H129	H	1.900599	0.686872	1.148065
H130	H	0.928681	0.148644	0.000036
H131	H	1.262014	0.481977	0.333369
H132	H	1.595347	0.815310	0.666702
F133	F	1.294775	0.580096	-0.000006
F134	F	1.628108	0.913429	0.333327
F135	F	1.961441	1.246763	0.666661
H136	H	1.221809	0.005117	0.696084
H137	H	1.555142	0.338450	1.029418
H138	H	1.888475	0.671784	1.362751
F139	F	1.001725	-0.268770	0.710952
F140	F	1.335058	0.064563	1.044285
F141	F	1.668391	0.397897	1.377618
H142	H	0.970192	-0.308012	0.518660
H143	H	1.303525	0.025321	0.851993
H144	H	1.636858	0.358655	1.185326
H145	H	0.982311	-0.292923	0.303945
H146	H	1.315644	0.040410	0.637278
H147	H	1.648978	0.373744	0.970611
F148	F	1.317910	0.356859	0.000029
F149	F	1.651243	0.690192	0.333362
F150	F	1.984577	1.023525	0.666696
H151	H	0.908350	0.344865	0.000016
H152	H	1.241683	0.678199	0.333349
H153	H	1.575017	1.011532	0.666682
F154	F	0.952340	0.529756	-0.000016
F155	F	1.285674	0.863089	0.333317
F156	F	1.619007	1.196422	0.666650
