data_functionalizedCrystal
_audit_creation_method	'MofGen! by Chris Wilmer'
_symmetry_space_group_name_H-M	'P1'
_symmetry_Int_Tables_number	1
_symmetry_cell_setting	triclinic
loop_
_symmetry_equiv_pos_as_xyz
  x,y,z
_cell_length_a	21.395362
_cell_length_b	16.625545
_cell_length_c	21.395355
_cell_angle_alpha	90.016186
_cell_angle_beta	90.043940
_cell_angle_gamma	90.041436
loop_
_atom_site_label
_atom_site_type_symbol
_atom_site_fract_x
_atom_site_fract_y
_atom_site_fract_z
Zn1	Zn	0.957882	-0.320753	0.354596
Zn2	Zn	0.957794	-0.455568	0.249823
Zn3	Zn	0.853097	-0.320791	0.249797
Zn4	Zn	0.853075	-0.455585	0.354527
O5	O	0.905462	-0.388174	0.302186
O6	O	1.045548	-0.338614	0.340737
O7	O	0.943878	-0.437699	0.162141
O8	O	0.867043	-0.207953	0.263717
O9	O	1.045483	-0.437662	0.263760
O10	O	0.944028	-0.207926	0.340712
O11	O	0.866957	-0.338678	0.162122
O12	O	0.765416	-0.338694	0.263650
O13	O	0.867006	-0.437691	0.442214
O14	O	0.765400	-0.437727	0.340595
O15	O	0.944007	-0.338630	0.442265
O16	O	0.943857	-0.568403	0.263694
O17	O	0.866921	-0.568415	0.340620
C18	C	0.742674	-0.388217	0.302113
C19	C	0.673033	-0.388255	0.302097
C20	C	0.640328	-0.439889	0.342102
C21	C	0.574893	-0.439870	0.342130
C22	C	0.542165	-0.388224	0.302141
C23	C	0.574878	-0.336579	0.262133
C24	C	0.640312	-0.336594	0.262111
C25	C	0.438440	-0.381728	0.245736
C26	C	0.373007	-0.381718	0.245757
C27	C	0.340344	-0.388171	0.302211
C28	C	0.373123	-0.394651	0.358644
C29	C	0.438557	-0.394666	0.358622
C30	C	0.471212	-0.388201	0.302161
C31	C	0.236687	-0.439787	0.342249
C32	C	0.171250	-0.439762	0.342278
C33	C	0.171236	-0.336475	0.262276
C34	C	0.236671	-0.336496	0.262253
C35	C	0.269393	-0.388157	0.302239
C36	C	0.905394	-0.597665	0.302166
C37	C	0.905422	-0.687286	0.302178
C38	C	0.905446	-0.760069	0.302191
C39	C	0.905483	-0.851377	0.302205
C40	C	0.905515	-0.924154	0.302213
C41	C	0.905551	-1.015468	0.302226
C42	C	1.068885	-0.388132	0.302259
C43	C	1.138527	-0.388114	0.302290
C44	C	0.905514	-0.388158	0.465609
C45	C	0.905536	-0.388151	0.535250
C46	C	0.905547	-0.177865	0.302219
C47	C	0.905584	-0.088244	0.302233
C48	C	0.905446	-0.388132	0.139398
C49	C	0.905545	-0.387912	0.069757
C50	C	0.945629	-0.336568	0.567991
C51	C	0.945628	-0.336534	0.633426
C52	C	0.905541	-0.388096	0.666119
C53	C	0.865441	-0.439683	0.633370
C54	C	0.865438	-0.439710	0.567936
C55	C	0.900570	-0.460699	0.769785
C56	C	0.900577	-0.460672	0.835218
C57	C	0.905545	-0.388011	0.867940
C58	C	0.910519	-0.315373	0.835220
C59	C	0.910517	-0.315401	0.769786
C60	C	0.905539	-0.388072	0.737071
C61	C	0.945639	-0.336386	0.971632
C62	C	0.945634	-0.336350	1.037069
C63	C	0.865450	-0.439506	1.037012
C64	C	0.865451	-0.439535	0.971577
C65	C	0.905549	-0.387976	0.938891
H66	H	0.548259	-0.481916	0.374709
N67	N	0.988881	-0.280705	1.072376
H68	H	1.017903	-0.313452	1.099550
H69	H	0.963394	-0.243337	1.099465
N70	N	0.473663	-0.374764	0.184842
H71	H	0.462213	-0.421333	0.156744
H72	H	0.520077	-0.375730	0.193444
H73	H	0.978275	-0.294524	0.660088
H74	H	0.263330	-0.481848	0.374811
N75	N	0.895218	-0.539077	0.734497
H76	H	0.895970	-0.528073	0.688081
H77	H	0.854661	-0.566487	0.745905
H78	H	0.666940	-0.294545	0.229534
H79	H	0.548226	-0.294527	0.229576
N80	N	0.271957	-0.280817	0.219099
H81	H	0.299160	-0.243509	0.244605
H82	H	0.241262	-0.248146	0.193775
H83	H	0.346323	-0.376447	0.199805
N84	N	0.988874	-0.280959	0.532737
H85	H	1.014272	-0.248276	0.563411
H86	H	0.963385	-0.243661	0.505568
H87	H	0.144590	-0.294420	0.229720
H88	H	0.832787	-0.481714	0.541279
N89	N	0.337920	-0.401661	0.419545
H90	H	0.349371	-0.355116	0.447666
H91	H	0.349333	-0.453929	0.440702
H92	H	0.144623	-0.481807	0.374859
H93	H	0.666966	-0.481954	0.374662
H94	H	0.914565	-0.256257	0.743149
H95	H	0.832800	-0.481663	0.659993
N96	N	0.895217	-0.539013	0.870505
H97	H	0.892062	-0.585047	0.839849
H98	H	0.856614	-0.537847	0.897628
N99	N	0.473907	-0.401651	0.419487
H100	H	0.462585	-0.355077	0.447593
H101	H	0.520303	-0.400706	0.410851
N102	N	0.915884	-0.236995	0.870502
H103	H	0.915129	-0.247996	0.916919
H104	H	0.879667	-0.200960	0.859034
H105	H	0.978285	-0.294399	0.945018
H106	H	0.832804	-0.481481	1.063630
H107	H	0.832807	-0.481544	0.944919
