data_functionalizedCrystal
_audit_creation_method	'MofGen! by Chris Wilmer'
_symmetry_space_group_name_H-M	'P1'
_symmetry_Int_Tables_number	1
_symmetry_cell_setting	triclinic
loop_
_symmetry_equiv_pos_as_xyz
  x,y,z
_cell_length_a	14.519709
_cell_length_b	11.026607
_cell_length_c	10.065875
_cell_angle_alpha	79.268236
_cell_angle_beta	98.757930
_cell_angle_gamma	96.133081
loop_
_atom_site_label
_atom_site_type_symbol
_atom_site_fract_x
_atom_site_fract_y
_atom_site_fract_z
O1	O	-1.260605	-0.141346	-0.113307
O2	O	-0.760605	0.358654	0.386693
O3	O	-0.995219	-0.160080	-0.113348
O4	O	-0.495219	0.339920	0.386652
O5	O	-1.105917	0.025988	-0.113326
O6	O	-0.605917	0.525988	0.386674
O7	O	-1.149907	-0.327413	-0.113329
O8	O	-0.649907	0.172587	0.386671
O9	O	-1.084832	-0.009635	0.113659
O10	O	-0.584832	0.490365	0.613659
O11	O	-0.974135	-0.195703	0.113637
O12	O	-0.474135	0.304297	0.613637
O13	O	-1.239520	-0.176969	0.113678
O14	O	-0.739520	0.323031	0.613678
Zn15	Zn	-1.103480	-0.191992	0.149696
Zn16	Zn	-0.603480	0.308008	0.649696
Zn17	Zn	-1.131260	-0.145057	-0.149366
Zn18	Zn	-0.631260	0.354943	0.350634
O19	O	-1.128823	-0.363037	0.113656
O20	O	-0.628823	0.136963	0.613656
C21	C	-1.087259	0.053405	0.000164
C22	C	-0.587259	0.553405	0.500164
C23	C	-1.063067	0.188173	0.000155
C24	C	-0.563067	0.688173	0.500155
C25	C	-0.950174	-0.177017	0.000139
C26	C	-0.450174	0.322983	0.500139
C27	C	-0.847363	-0.174397	0.000123
C28	C	-0.347363	0.325603	0.500123
C29	C	-1.284566	-0.160032	0.000188
C30	C	-0.784566	0.339968	0.500188
C31	C	-1.387378	-0.162650	0.000195
C32	C	-0.887378	0.337350	0.500195
C33	C	-0.470874	-0.164772	0.000186
C34	C	0.029126	0.335228	0.500186
C35	C	-0.575624	-0.167445	0.000168
C36	C	-0.075624	0.332555	0.500168
C37	C	-0.659115	-0.169584	0.000153
C38	C	-0.159115	0.330416	0.500153
C39	C	-0.763872	-0.172258	0.000138
C40	C	-0.263872	0.327742	0.500138
C41	C	-1.147480	-0.390453	0.000163
C42	C	-0.647480	0.109547	0.500163
C43	C	-1.171673	-0.525220	0.000163
C44	C	-0.671673	-0.025220	0.500163
N45	N	-1.084527	-0.224023	0.353798
N46	N	-0.584527	0.275977	0.853798
C47	C	-1.129866	0.261832	0.000163
C48	C	-0.629866	0.761832	0.500163
C49	C	-1.104865	0.401122	0.000155
C50	C	-0.604865	0.901122	0.500155
N51	N	-1.150218	-0.113016	-0.353468
N52	N	-0.650218	0.386984	0.146532
C53	C	-1.124658	-0.156194	0.421585
C54	C	-0.624658	0.343806	0.921585
C55	C	-1.110081	-0.180855	0.578749
C56	C	-0.610081	0.319145	1.078749
H57	H	-1.205564	0.221773	0.000184
H58	H	-0.705564	0.721773	0.500184
H59	H	-1.029162	0.441175	0.000134
H60	H	-0.529162	0.941175	0.500134
H61	H	-1.247386	0.434746	0.000072
H62	H	-0.747386	0.934746	0.500072
C63	C	-1.184859	-0.054317	0.344085
C64	C	-0.684859	0.445683	0.844085
C65	C	-1.219040	0.003500	0.437081
C66	C	-0.719040	0.503500	0.937081
C67	C	-1.274491	0.097367	0.365742
C68	C	-0.774491	0.597367	0.865742
H69	H	-1.235800	-0.089101	0.288329
H70	H	-0.735800	0.410899	0.788329
H71	H	-1.148337	0.004939	0.288378
H72	H	-0.648337	0.504939	0.788378
H73	H	-1.255561	-0.055745	0.492764
H74	H	-0.755561	0.444255	0.992764
H75	H	-1.168121	0.038310	0.492839
H76	H	-0.668121	0.538310	0.992839
H77	H	-1.237969	0.156623	0.310036
H78	H	-0.737969	0.656623	0.810036
H79	H	-1.325426	0.062573	0.309989
H80	H	-0.825426	0.562573	0.809989
H81	H	-1.297683	0.136615	0.428829
H82	H	-0.797683	0.636615	0.928829
H83	H	-0.987370	0.228232	0.000135
H84	H	-0.487370	0.728232	0.500135
H85	H	-1.039372	-0.300348	0.412115
H86	H	-0.539372	0.199652	0.912115
H87	H	-1.064923	-0.257185	0.637061
H88	H	-0.564923	0.242815	1.137061
H89	H	-1.195367	-0.036678	0.588220
H90	H	-0.695367	0.463322	1.088220
