data_functionalizedCrystal
_audit_creation_method	'MofGen! by Chris Wilmer'
_symmetry_space_group_name_H-M	'P1'
_symmetry_Int_Tables_number	1
_symmetry_cell_setting	triclinic
loop_
_symmetry_equiv_pos_as_xyz
  x,y,z
_cell_length_a	15.995292
_cell_length_b	15.995350
_cell_length_c	13.930277
_cell_angle_alpha	89.993131
_cell_angle_beta	90.007768
_cell_angle_gamma	83.480495
loop_
_atom_site_label
_atom_site_type_symbol
_atom_site_fract_x
_atom_site_fract_y
_atom_site_fract_z
O1	O	1.111020	0.107683	0.079852
O2	O	0.867238	0.121061	0.079848
O3	O	0.995793	-0.007517	0.079849
O4	O	0.982465	0.236261	0.079851
O5	O	0.995774	-0.007497	-0.079813
O6	O	0.867219	0.121081	-0.079814
O7	O	1.111001	0.107703	-0.079810
Zn8	Zn	0.989107	0.114395	-0.105162
Zn9	Zn	0.989132	0.114369	0.105200
O10	O	0.982446	0.236281	-0.079811
C11	C	0.836033	0.120527	0.000016
C12	C	0.743080	0.118894	0.000015
C13	C	0.405341	0.112893	0.000026
C14	C	0.428654	0.205697	0.000383
C15	C	0.525329	0.207461	0.000019
C16	C	0.572897	0.115871	0.000021
C17	C	0.543785	0.069484	-0.091151
C18	C	0.446994	0.068367	-0.091223
C19	C	0.447160	0.066450	0.090342
C20	C	0.543653	0.069889	0.091543
C21	C	0.667593	0.117549	0.000015
C22	C	0.310646	0.111212	0.000025
C23	C	0.995232	-0.038702	0.000020
C24	C	0.993580	-0.131652	0.000025
C25	C	0.987648	-0.469398	0.000022
C26	C	0.896094	-0.421945	0.000378
C27	C	0.897746	-0.325255	0.000019
C28	C	0.990591	-0.301838	0.000024
C29	C	1.035738	-0.342914	-0.091148
C30	C	1.033438	-0.439549	-0.091224
C31	C	1.035351	-0.439930	0.090341
C32	C	1.035329	-0.342985	0.091546
C33	C	0.992259	-0.207141	0.000022
C34	C	0.985983	-0.564095	0.000018
C35	C	1.142206	0.108237	0.000024
C36	C	1.235159	0.109870	0.000032
C37	C	0.983006	0.267466	0.000020
C38	C	0.984658	0.360416	0.000021
N39	N	0.989096	0.114412	-0.248728
C40	C	1.039924	0.165156	-0.700986
C41	C	0.938366	0.063548	-0.700978
C42	C	0.938353	0.063561	-0.600482
C43	C	0.989127	0.114372	-0.550234
C44	C	1.039915	0.165169	-0.600481
C45	C	0.887573	0.012759	-0.550228
C46	C	0.887559	0.012770	-0.449726
C47	C	0.938330	0.063586	-0.399475
C48	C	0.989118	0.114385	-0.449729
C49	C	1.039893	0.165196	-0.399480
C50	C	1.090677	0.216001	-0.449731
C51	C	1.090685	0.215985	-0.550230
C52	C	0.938322	0.063602	-0.298976
C53	C	1.039883	0.165209	-0.298975
N54	N	0.989149	0.114345	0.248766
H55	H	0.400665	0.241460	0.065766
H56	H	0.897033	0.022175	-0.741896
H57	H	0.433167	-0.001861	0.090960
H58	H	1.081227	0.206590	-0.258070
H59	H	0.432443	0.000323	-0.095364
H60	H	1.004365	-0.314517	-0.158999
F61	F	1.144719	0.270070	-0.396242
F62	F	1.144727	0.270051	-0.603718
F63	F	1.123581	-0.481463	0.091150
H64	H	0.846206	-0.028598	-0.408819
H65	H	1.081269	0.206522	-0.741905
F66	F	0.411929	0.110381	-0.180304
H67	H	1.103948	-0.328802	-0.094535
F68	F	0.833539	-0.041313	-0.603710
H69	H	0.575653	0.002087	-0.094540
H70	H	0.543725	0.244025	-0.065448
F71	F	0.848271	-0.446165	0.085837
F72	F	0.569990	0.111608	-0.179840
H73	H	0.896976	0.022235	-0.258066
H74	H	0.418841	0.095449	0.159445
F75	F	0.550210	0.254943	0.085443
F76	F	0.567964	0.114012	0.179706
F77	F	0.586743	-0.017496	0.098741
F78	F	0.390714	0.252207	-0.084595
H79	H	0.862257	-0.296834	0.065374
H80	H	0.859655	-0.441523	-0.064640
H81	H	0.862002	-0.297375	-0.065450
F82	F	0.996230	-0.466770	0.180665
H83	H	1.000501	-0.457835	-0.159381
H84	H	1.100655	-0.471811	-0.095357
H85	H	1.002321	-0.315737	0.158993
H86	H	1.103036	-0.327638	0.097055
