data_functionalizedCrystal
_audit_creation_method	'MofGen! by Chris Wilmer'
_symmetry_space_group_name_H-M	'P1'
_symmetry_Int_Tables_number	1
_symmetry_cell_setting	triclinic
loop_
_symmetry_equiv_pos_as_xyz
  x,y,z
_cell_length_a	12.759401
_cell_length_b	12.827892
_cell_length_c	12.759393
_cell_angle_alpha	89.969094
_cell_angle_beta	89.980163
_cell_angle_gamma	90.016917
loop_
_atom_site_label
_atom_site_type_symbol
_atom_site_fract_x
_atom_site_fract_y
_atom_site_fract_z
Zn1	Zn	1.606250	-0.415928	-0.594025
Zn2	Zn	1.939583	-0.082595	-0.260692
Zn3	Zn	2.272917	0.250738	0.072641
Zn4	Zn	1.606142	-0.590709	-0.418348
Zn5	Zn	1.939476	-0.257376	-0.085014
Zn6	Zn	2.272809	0.075958	0.248319
Zn7	Zn	1.430552	-0.415987	-0.418361
Zn8	Zn	1.763885	-0.082654	-0.085027
Zn9	Zn	2.097219	0.250679	0.248306
Zn10	Zn	1.430538	-0.590633	-0.593985
Zn11	Zn	1.763872	-0.257299	-0.260652
Zn12	Zn	2.097205	0.076034	0.072682
O13	O	1.518371	-0.503314	-0.506180
O14	O	1.851704	-0.169981	-0.172846
O15	O	2.185037	0.163352	0.160487
O16	O	1.753257	-0.439121	-0.570733
O17	O	2.086590	-0.105787	-0.237400
O18	O	2.419923	0.227546	0.095934
O19	O	1.582810	-0.567589	-0.271328
O20	O	1.916144	-0.234255	0.062005
O21	O	2.249477	0.099078	0.395338
O22	O	1.453909	-0.269744	-0.441685
O23	O	1.787243	0.063590	-0.108352
O24	O	2.120576	0.396923	0.224982
O25	O	1.753178	-0.567531	-0.441663
O26	O	2.086511	-0.234198	-0.108330
O27	O	2.419844	0.099135	0.225003
O28	O	1.582994	-0.269700	-0.570745
O29	O	1.916327	0.063633	-0.237412
O30	O	2.249661	0.396967	0.095921
O31	O	1.453805	-0.439221	-0.271338
O32	O	1.787138	-0.105888	0.061996
O33	O	2.120472	0.227445	0.395329
O34	O	1.283529	-0.439147	-0.441646
O35	O	1.616863	-0.105814	-0.108313
O36	O	1.950196	0.227519	0.225021
O37	O	1.453886	-0.567401	-0.741011
O38	O	1.787220	-0.234068	-0.407678
O39	O	2.120553	0.099266	-0.074345
O40	O	1.283519	-0.567458	-0.570676
O41	O	1.616853	-0.234125	-0.237343
O42	O	1.950186	0.099208	0.095990
O43	O	1.582981	-0.439047	-0.741041
O44	O	1.916314	-0.105713	-0.407708
O45	O	2.249647	0.227620	-0.074374
O46	O	1.582797	-0.736935	-0.441624
O47	O	1.916131	-0.403602	-0.108291
O48	O	2.249464	-0.070268	0.225043
O49	O	1.453782	-0.736879	-0.570664
O50	O	1.787115	-0.403546	-0.237331
O51	O	2.120449	-0.070212	0.096003
C52	C	1.245403	-0.503302	-0.506159
C53	C	1.578737	-0.169968	-0.172825
C54	C	1.912070	0.163365	0.160508
C55	C	1.128627	-0.503321	-0.506175
C56	C	1.461960	-0.169988	-0.172841
C57	C	1.795293	0.163345	0.160492
C58	C	1.073787	-0.570235	-0.573255
C59	C	1.407120	-0.236901	-0.239922
C60	C	1.740454	0.096432	0.093412
C61	C	0.964063	-0.570239	-0.573276
C62	C	1.297396	-0.236905	-0.239943
C63	C	1.630730	0.096428	0.093391
C64	C	0.964028	-0.436413	-0.439127
C65	C	1.297361	-0.103080	-0.105794
C66	C	1.630695	0.230254	0.227540
C67	C	1.073750	-0.436405	-0.439112
C68	C	1.407083	-0.103071	-0.105779
C69	C	1.740417	0.230262	0.227554
C70	C	1.518305	-0.774824	-0.506161
C71	C	1.851638	-0.441491	-0.172828
C72	C	2.184972	-0.108158	0.160506
C73	C	1.518373	-0.890977	-0.506188
C74	C	1.851706	-0.557644	-0.172855
C75	C	2.185040	-0.224311	0.160478
C76	C	1.582290	-0.942755	-0.442406
C77	C	1.915623	-0.609422	-0.109073
C78	C	2.248956	-0.276089	0.224261
C79	C	1.582361	-1.062806	-0.442433
C80	C	1.915695	-0.729472	-0.109099
C81	C	2.249028	-0.396139	0.224234
C82	C	1.792404	-0.503328	-0.506201
C83	C	2.125737	-0.169995	-0.172868
C84	C	2.459071	0.163339	0.160466
C85	C	1.909181	-0.503334	-0.506210
C86	C	2.242514	-0.170000	-0.172877
C87	C	2.575847	0.163333	0.160456
C88	C	1.518444	-0.503209	-0.780213
C89	C	1.851777	-0.169875	-0.446880
C90	C	2.185111	0.163458	-0.113546
C91	C	1.518475	-0.503164	-0.896990
C92	C	1.851809	-0.169830	-0.563656
C93	C	2.185142	0.163503	-0.230323
C94	C	1.518465	-0.230744	-0.506221
C95	C	1.851799	0.102589	-0.172888
C96	C	2.185132	0.435922	0.160445
C97	C	1.518506	-0.114591	-0.506239
C98	C	1.851839	0.218742	-0.172906
C99	C	2.185172	0.552076	0.160428
C100	C	1.451326	-0.436311	-0.951856
C101	C	1.784660	-0.102977	-0.618523
C102	C	2.117993	0.230356	-0.285190
C103	C	1.451351	-0.436278	-1.061580
C104	C	1.784684	-0.102945	-0.728247
C105	C	2.118017	0.230388	-0.394914
C106	C	1.585682	-0.569955	-1.061562
C107	C	1.919016	-0.236622	-0.728229
C108	C	2.252349	0.096711	-0.394895
C109	C	1.585652	-0.569992	-0.951840
C110	C	1.918985	-0.236659	-0.618506
C111	C	2.252318	0.096675	-0.285173
C112	C	1.518358	-0.503344	-0.233212
C113	C	1.851691	-0.170011	0.100121
C114	C	2.185025	0.163322	0.433454
C115	C	1.518530	-0.503095	-0.116436
C116	C	1.851864	-0.169762	0.216897
C117	C	2.185197	0.163572	0.550231
H118	H	1.118402	-0.381909	-0.384487
H119	H	1.451735	-0.048576	-0.051154
H120	H	1.785068	0.284757	0.282180
H121	H	1.396670	-0.381841	-1.106248
H122	H	1.730004	-0.048508	-0.772914
H123	H	2.063337	0.284826	-0.439581
H124	H	1.396627	-0.381895	-0.907201
H125	H	1.729960	-0.048562	-0.573867
H126	H	2.063293	0.284772	-0.240534
H127	H	0.919334	-0.381934	-0.384525
H128	H	1.252667	-0.048600	-0.051192
H129	H	1.586001	0.284733	0.282141
Br130	Br	1.148260	-0.661047	-0.664270
Br131	Br	1.481593	-0.327714	-0.330937
Br132	Br	1.814926	0.005620	0.002396
Br133	Br	1.676846	-0.660646	-1.136008
Br134	Br	2.010180	-0.327312	-0.802674
Br135	Br	2.343513	0.006021	-0.469341
H136	H	0.919417	-0.624725	-0.627901
H137	H	1.252751	-0.291391	-0.294568
H138	H	1.586084	0.041942	0.038766
Br139	Br	1.673423	-0.868517	-0.351363
Br140	Br	2.006756	-0.535184	-0.018030
Br141	Br	2.340089	-0.201851	0.315303
Br142	Br	1.673565	-1.137014	-0.351404
Br143	Br	2.006898	-0.803681	-0.018071
Br144	Br	2.340231	-0.470347	0.315263
H145	H	1.640335	-0.624436	-0.907166
H146	H	1.973668	-0.291103	-0.573833
H147	H	2.307002	0.042231	-0.240500
Br148	Br	1.427282	-1.040389	-0.597253
Br149	Br	1.760615	-0.707056	-0.263919
Br150	Br	2.093948	-0.373723	0.069414
H151	H	1.463709	-0.935525	-0.560818
H152	H	1.797042	-0.602192	-0.227485
H153	H	2.130376	-0.268858	0.105848
