data_functionalizedCrystal
_audit_creation_method	'MofGen! by Chris Wilmer'
_symmetry_space_group_name_H-M	'P1'
_symmetry_Int_Tables_number	1
_symmetry_cell_setting	triclinic
loop_
_symmetry_equiv_pos_as_xyz
  x,y,z
_cell_length_a	6.394989
_cell_length_b	10.908937
_cell_length_c	10.065875
_cell_angle_alpha	83.441416
_cell_angle_beta	80.951547
_cell_angle_gamma	106.708167
loop_
_atom_site_label
_atom_site_type_symbol
_atom_site_fract_x
_atom_site_fract_y
_atom_site_fract_z
O1	O	0.357816	1.716845	-0.113544
O2	O	0.195618	1.345608	-0.113533
O3	O	0.582612	1.536496	-0.113539
O4	O	-0.029178	1.525957	-0.113537
O5	O	0.508573	1.500100	0.113451
O6	O	0.121580	1.309212	0.113457
O7	O	0.283777	1.680449	0.113446
Zn8	Zn	0.190923	1.489052	0.149491
Zn9	Zn	0.288472	1.537005	-0.149578
O10	O	-0.103216	1.489561	0.113453
C11	C	0.143441	1.279814	-0.000036
C12	C	0.098300	1.137992	-0.000033
C13	C	0.216385	0.939743	-0.000058
C14	C	0.263038	1.086320	-0.000041
C15	C	0.622692	1.516215	-0.000049
C16	C	0.856715	1.509847	-0.000051
C17	C	0.335956	1.746244	-0.000053
C18	C	0.381100	1.888067	-0.000066
N19	N	0.124353	1.456334	0.353598
N20	N	0.355062	1.569732	-0.353684
C21	C	0.265321	1.525613	0.421375
C22	C	0.214074	1.500443	0.578543
H23	H	0.556659	0.952341	-0.000069
O24	O	0.565215	1.672981	0.569075
H25	H	0.520779	1.746999	0.503959
H26	H	-0.077269	1.073725	-0.000041
O27	O	-0.085782	1.353085	0.430843
H28	H	-0.093068	1.349526	0.542167
H29	H	0.438610	1.150590	-0.000044
O30	O	0.475481	1.628829	0.344108
H31	H	0.431078	1.702850	0.278974
O32	O	-0.016179	0.854622	-0.000049
H33	H	-0.016332	0.752850	-0.000047
H34	H	0.055443	1.422487	0.636866
