data_functionalizedCrystal
_audit_creation_method	'MofGen! by Chris Wilmer'
_symmetry_space_group_name_H-M	'P1'
_symmetry_Int_Tables_number	1
_symmetry_cell_setting	triclinic
loop_
_symmetry_equiv_pos_as_xyz
  x,y,z
_cell_length_a	12.645330
_cell_length_b	12.759401
_cell_length_c	12.759393
_cell_angle_alpha	89.979062
_cell_angle_beta	90.028974
_cell_angle_gamma	89.980783
loop_
_atom_site_label
_atom_site_type_symbol
_atom_site_fract_x
_atom_site_fract_y
_atom_site_fract_z
Zn1	Zn	-0.421945	-1.606245	0.594031
Zn2	Zn	0.078055	-1.106245	1.094031
Zn3	Zn	-0.599246	-1.606126	0.418356
Zn4	Zn	-0.099246	-1.106126	0.918356
Zn5	Zn	-0.422001	-1.430543	0.418366
Zn6	Zn	0.077999	-0.930543	0.918366
Zn7	Zn	-0.599172	-1.430526	0.593993
Zn8	Zn	-0.099172	-0.930526	1.093993
O9	O	-0.510591	-1.518360	0.506187
O10	O	-0.010591	-1.018360	1.006187
O11	O	-0.445472	-1.753250	0.570739
O12	O	0.054528	-1.253250	1.070739
O13	O	-0.575788	-1.582793	0.271336
O14	O	-0.075788	-1.082793	0.771336
O15	O	-0.273647	-1.453907	0.441689
O16	O	0.226353	-0.953907	0.941689
O17	O	-0.575734	-1.753163	0.441671
O18	O	-0.075734	-1.253163	0.941671
O19	O	-0.273605	-1.582994	0.570749
O20	O	0.226395	-1.082994	1.070749
O21	O	-0.445568	-1.453793	0.271344
O22	O	0.054432	-0.953793	0.771344
O23	O	-0.445496	-1.283520	0.441652
O24	O	0.054504	-0.783520	0.941652
O25	O	-0.575607	-1.453878	0.741019
O26	O	-0.075607	-0.953878	1.241019
O27	O	-0.575662	-1.283507	0.570684
O28	O	-0.075662	-0.783507	1.070684
O29	O	-0.445400	-1.582977	0.741047
O30	O	0.054600	-1.082977	1.241047
O31	O	-0.747583	-1.582776	0.441634
O32	O	-0.247583	-1.082776	0.941634
O33	O	-0.747529	-1.453763	0.570674
O34	O	-0.247529	-0.953763	1.070674
C35	C	-0.786021	-1.518283	0.506172
C36	C	-0.286021	-1.018283	1.006172
C37	C	-0.903851	-1.518347	0.506201
C38	C	-0.403851	-1.018347	1.006201
C39	C	-0.510578	-1.245393	0.506166
C40	C	-0.010578	-0.745393	1.006166
C41	C	-0.510598	-1.128616	0.506182
C42	C	-0.010598	-0.628616	1.006182
C43	C	-0.510489	-1.518439	0.780220
C44	C	-0.010489	-1.018439	1.280220
C45	C	-0.510446	-1.518472	0.896997
C46	C	-0.010446	-1.018472	1.396997
C47	C	-1.071424	-1.437519	0.587630
C48	C	-0.571424	-0.937519	1.087630
C49	C	-0.948865	-1.437106	0.587368
C50	C	-0.448865	-0.937106	1.087368
C51	C	-0.948453	-1.488371	0.395479
C52	C	-0.448453	-0.988371	0.895479
C53	C	-1.071052	-1.487878	0.395973
C54	C	-0.571052	-0.987878	0.895973
C55	C	-1.070935	-1.629644	0.534596
C56	C	-0.570935	-1.129644	1.034596
C57	C	-0.948328	-1.628962	0.537017
C58	C	-0.448328	-1.128962	1.037017
C59	C	-0.234086	-1.518466	0.506224
C60	C	0.265914	-1.018466	1.006224
C61	C	-0.116255	-1.518511	0.506241
C62	C	0.383745	-1.018511	1.006241
C63	C	-0.510605	-1.792393	0.506208
C64	C	-0.010605	-1.292393	1.006208
C65	C	-0.510610	-1.909170	0.506217
C66	C	-0.010610	-1.409170	1.006217
C67	C	-0.578479	-1.073775	0.573263
C68	C	-0.078479	-0.573775	1.073263
C69	C	-0.578483	-0.964051	0.573284
C70	C	-0.078483	-0.464051	1.073284
C71	C	-0.442722	-0.964019	0.439133
C72	C	0.057278	-0.464019	0.939133
C73	C	-0.442714	-1.073741	0.439118
C74	C	0.057286	-0.573741	0.939118
C75	C	-0.510616	-1.518342	0.233219
C76	C	-0.010616	-1.018342	0.733219
C77	C	-0.510360	-1.518512	0.116443
C78	C	-0.010360	-1.018512	0.616443
C79	C	-0.442636	-1.585699	0.951875
C80	C	0.057364	-1.085699	1.451875
C81	C	-0.442590	-1.585717	1.061599
C82	C	0.057410	-1.085717	1.561599
C83	C	-0.578173	-1.451278	1.061557
C84	C	-0.078173	-0.951278	1.561557
C85	C	-0.578213	-1.451255	0.951835
C86	C	-0.078213	-0.951255	1.451835
H87	H	-0.918705	-1.455861	0.669468
H88	H	-0.418705	-0.955861	1.169468
Br89	Br	-0.670238	-1.360002	0.877350
Br90	Br	-0.170238	-0.860002	1.377350
Br91	Br	-1.120437	-1.468483	0.724924
Br92	Br	-0.620437	-0.968483	1.224924
Br93	Br	-1.122960	-1.301060	0.556749
Br94	Br	-0.622960	-0.801060	1.056749
Br95	Br	-1.119275	-1.730221	0.435811
Br96	Br	-0.619275	-1.230221	0.935811
Br97	Br	-0.350599	-0.889539	0.348123
Br98	Br	0.149401	-0.389539	0.848123
Br99	Br	-0.670142	-1.360063	1.135987
Br100	Br	-0.170142	-0.860063	1.635987
H101	H	-0.917680	-1.692482	0.482054
H102	H	-0.417680	-1.192482	0.982054
H103	H	-0.633752	-1.118451	0.627873
H104	H	-0.133752	-0.618451	1.127873
Br105	Br	-0.350573	-1.148175	0.348083
Br106	Br	0.149427	-0.648175	0.848083
H107	H	-0.633756	-0.919404	0.627910
H108	H	-0.133756	-0.419404	1.127910
Br109	Br	-1.120494	-1.581919	0.291448
Br110	Br	-0.620494	-1.081919	0.791448
Br111	Br	-1.118886	-1.352475	0.355935
Br112	Br	-0.618886	-0.852475	0.855935
H113	H	-0.387371	-1.640459	1.106276
H114	H	0.112629	-1.140459	1.606276
Br115	Br	-0.900134	-1.299783	0.556067
Br116	Br	-0.400134	-0.799783	1.056067
H117	H	-0.387452	-1.640429	0.907229
H118	H	0.112548	-1.140429	1.407229
H119	H	-0.919298	-1.545491	0.333180
H120	H	-0.419298	-1.045491	0.833180
Br121	Br	-0.897448	-1.354376	0.354714
Br122	Br	-0.397448	-0.854376	0.854714
H123	H	-0.919171	-1.651567	0.618502
H124	H	-0.419171	-1.151567	1.118502
Br125	Br	-1.122331	-1.675221	0.666878
Br126	Br	-0.622331	-1.175221	1.166878
