data_functionalizedCrystal
_audit_creation_method	'MofGen! by Chris Wilmer'
_symmetry_space_group_name_H-M	'P1'
_symmetry_Int_Tables_number	1
_symmetry_cell_setting	triclinic
loop_
_symmetry_equiv_pos_as_xyz
  x,y,z
_cell_length_a	13.032721
_cell_length_b	12.759401
_cell_length_c	12.759393
_cell_angle_alpha	89.979062
_cell_angle_beta	82.850774
_cell_angle_gamma	82.794169
loop_
_atom_site_label
_atom_site_type_symbol
_atom_site_fract_x
_atom_site_fract_y
_atom_site_fract_z
Zn1	Zn	-0.415945	-1.553113	0.647098
Zn2	Zn	-0.590725	-1.530669	0.493722
Zn3	Zn	-0.416001	-1.377404	0.471441
Zn4	Zn	-0.590652	-1.355078	0.669350
O5	O	-0.503331	-1.454066	0.570403
O6	O	-0.439137	-1.697156	0.626765
O7	O	-0.567601	-1.510289	0.343752
O8	O	-0.269756	-1.419449	0.476105
O9	O	-0.567547	-1.680666	0.514080
O10	O	-0.269715	-1.548541	0.605160
O11	O	-0.439232	-1.397686	0.327382
O12	O	-0.439161	-1.227423	0.497681
O13	O	-0.567423	-1.381397	0.813412
O14	O	-0.567477	-1.211019	0.643084
O15	O	-0.439067	-1.526892	0.797064
O16	O	-0.736953	-1.488640	0.535656
O17	O	-0.736899	-1.359634	0.664689
C18	C	-0.503318	-1.181100	0.570380
C19	C	-0.503338	-1.064321	0.570399
C20	C	-0.774844	-1.419307	0.605028
C21	C	-0.890999	-1.404533	0.619876
C22	C	-0.503230	-1.454157	0.844423
C23	C	-0.503188	-1.454196	0.961194
C24	C	-0.942776	-1.461832	0.562700
C25	C	-1.062828	-1.446564	0.578045
C26	C	-0.230757	-1.488989	0.535665
C27	C	-0.114602	-1.503872	0.520862
C28	C	-0.503344	-1.728097	0.570426
C29	C	-0.503350	-1.844873	0.570436
C30	C	-0.570253	-1.000932	0.646017
C31	C	-0.570257	-0.891208	0.646038
C32	C	-0.436427	-0.908271	0.494813
C33	C	-0.436419	-1.017994	0.494797
C34	C	-0.503355	-1.454045	0.297438
C35	C	-0.503104	-1.454247	0.180630
C36	C	-0.436342	-1.529962	1.007544
C37	C	-0.436297	-1.529986	1.117263
C38	C	-0.569952	-1.378473	1.134273
C39	C	-0.569991	-1.378446	1.024556
H40	H	-0.898229	-1.522197	0.502394
H41	H	-1.107373	-1.386205	0.638364
H42	H	-0.935548	-1.344178	0.680190
C43	C	-1.055030	-1.584270	0.440450
C44	C	-0.947800	-1.583407	0.441187
C45	C	-0.892891	-1.657443	0.367118
H46	H	-1.072668	-1.652669	0.458058
H47	H	-1.072873	-1.566664	0.372088
H48	H	-0.929965	-1.601020	0.509534
H49	H	-0.930132	-1.515026	0.423569
H50	H	-0.910733	-1.639837	0.298756
H51	H	-0.910536	-1.725837	0.384732
H52	H	-0.820130	-1.656860	0.367601
C53	C	-0.363607	-0.858050	0.412836
C54	C	-0.260235	-0.897962	0.422718
C55	C	-0.193124	-0.851717	0.347224
H56	H	-0.378677	-0.874026	0.344103
H57	H	-0.373123	-0.783622	0.423670
H58	H	-0.250724	-0.972373	0.411876
H59	H	-0.245133	-0.881988	0.491435
H60	H	-0.202640	-0.777289	0.358057
H61	H	-0.208203	-0.867696	0.278496
H62	H	-0.122979	-0.878783	0.353925
H63	H	-0.624740	-1.038649	0.707579
H64	H	-0.624745	-0.839601	0.707616
H65	H	-0.381943	-1.591640	0.955958
C66	C	-0.363893	-1.086753	0.412531
C67	C	-0.386542	-1.057138	0.311433
C68	C	-0.319764	-1.120464	0.235631
H69	H	-0.293660	-1.077815	0.418930
H70	H	-0.373480	-1.158743	0.423284
H71	H	-0.376946	-0.985165	0.300684
H72	H	-0.456763	-1.066080	0.305000
H73	H	-0.329351	-1.192455	0.246383
H74	H	-0.249535	-1.111521	0.242040
H75	H	-0.335128	-1.100386	0.167027
C76	C	-0.363684	-1.612370	1.167391
C77	C	-0.305211	-1.678713	1.088417
C78	C	-0.238315	-1.754628	1.134555
H79	H	-0.318036	-1.578157	1.204372
H80	H	-0.403625	-1.653091	1.215271
H81	H	-0.265272	-1.637997	1.040556
H82	H	-0.350831	-1.712950	1.051431
H83	H	-0.278256	-1.795350	1.182435
H84	H	-0.192674	-1.720407	1.171535
H85	H	-0.198640	-1.799657	1.080980
C86	C	-0.642445	-1.296359	1.203252
C87	C	-0.628127	-1.312615	1.309262
C88	C	-0.694902	-1.237000	1.372835
H89	H	-0.627218	-1.227673	1.183447
H90	H	-0.712690	-1.302740	1.194284
H91	H	-0.557898	-1.306225	1.318226
H92	H	-0.643361	-1.381286	1.329100
H93	H	-0.765146	-1.243381	1.363867
H94	H	-0.679669	-1.168319	1.353020
H95	H	-0.685203	-1.248026	1.444770
H96	H	-0.624424	-1.316741	0.986817
