data_functionalizedCrystal
_audit_creation_method	'MofGen! by Chris Wilmer'
_symmetry_space_group_name_H-M	'P1'
_symmetry_Int_Tables_number	1
_symmetry_cell_setting	triclinic
loop_
_symmetry_equiv_pos_as_xyz
  x,y,z
_cell_length_a	27.731993
_cell_length_b	13.339070
_cell_length_c	12.376457
_cell_angle_alpha	75.601917
_cell_angle_beta	78.815802
_cell_angle_gamma	80.875157
loop_
_atom_site_label
_atom_site_type_symbol
_atom_site_fract_x
_atom_site_fract_y
_atom_site_fract_z
O1	O	0.664080	-0.100418	-0.093687
O2	O	0.525810	-0.118724	-0.093755
O3	O	0.579076	0.037439	-0.093725
O4	O	0.610814	-0.256581	-0.093717
O5	O	0.565759	-0.001549	0.094279
O6	O	0.512493	-0.157712	0.094250
O7	O	0.650763	-0.139406	0.094317
Zn8	Zn	0.579513	-0.154749	0.124134
Zn9	Zn	0.597059	-0.103381	-0.123571
O10	O	0.597497	-0.295569	0.094288
C11	C	0.501093	-0.137840	0.000239
C12	C	0.447282	-0.136703	0.000213
C13	C	0.070247	-0.107253	-0.102214
C14	C	0.272501	-0.111563	-0.102245
O15	O	0.304819	-0.094006	-0.189403
N16	N	0.290537	-0.133355	0.000235
C17	C	0.258005	-0.154065	0.102729
O18	O	0.277986	-0.172688	0.189893
C19	C	0.055752	-0.149747	0.102758
C20	C	0.037720	-0.127964	0.000272
C21	C	0.052215	-0.085471	-0.204692
C22	C	0.001654	-0.084399	-0.204683
C23	C	-0.030873	-0.105110	-0.102197
C24	C	-0.012840	-0.126892	0.000281
C25	C	0.023220	-0.170449	0.205251
C26	C	-0.027346	-0.169365	0.205249
C27	C	-0.045378	-0.147582	0.102763
C28	C	-0.095928	-0.146531	0.102776
N29	N	-0.113964	-0.124739	0.000296
C30	C	-0.081436	-0.104029	-0.102190
C31	C	0.364192	-0.156332	0.102706
C32	C	0.414755	-0.157413	0.102699
C33	C	0.429247	-0.114910	-0.102275
C34	C	0.378684	-0.113836	-0.102266
C35	C	0.346156	-0.134540	0.000227
C36	C	-0.187617	-0.101780	-0.102164
C37	C	-0.238182	-0.100715	-0.102146
C38	C	-0.252670	-0.143212	0.102827
C39	C	-0.202109	-0.144283	0.102810
C40	C	-0.169583	-0.123562	0.000305
O41	O	-0.128275	-0.164067	0.189888
O42	O	-0.101428	-0.085385	-0.189341
C43	C	0.120807	-0.108325	-0.102223
C44	C	0.138840	-0.130107	0.000255
C45	C	0.106312	-0.150818	0.102741
C46	C	0.189403	-0.131189	0.000248
C47	C	0.221931	-0.110478	-0.102238
C48	C	0.203895	-0.088686	-0.204718
C49	C	0.153335	-0.087614	-0.204709
C50	C	0.124348	-0.172610	0.205220
C51	C	0.174909	-0.173681	0.205203
C52	C	0.207436	-0.152970	0.102717
C53	C	0.567056	0.055549	0.000273
C54	C	0.551076	0.167597	0.000261
C55	C	0.675480	-0.120289	0.000321
C56	C	0.729291	-0.121425	0.000340
C57	C	0.609517	-0.313678	0.000287
C58	C	0.625497	-0.425725	0.000292
N59	N	0.567542	-0.189806	0.293185
C60	C	0.675330	0.534371	0.000322
C61	C	0.690345	0.429095	0.000340
C62	C	0.655529	0.363716	0.000319
C63	C	0.605696	0.403622	0.000282
C64	C	0.590678	0.508906	0.000273
C65	C	0.570877	0.338251	0.000271
C66	C	0.521044	0.378157	0.000234
C67	C	0.506029	0.483431	0.000224
C68	C	0.540845	0.548810	0.000244
C69	C	0.585895	0.232967	0.000280
C70	C	0.501243	0.207502	0.000231
C71	C	0.486228	0.312777	0.000213
N72	N	0.609033	-0.068316	-0.292623
C73	C	0.636819	0.013082	0.648208
C74	C	0.645194	0.037618	0.529873
C75	C	0.625782	-0.019235	0.470695
C76	C	0.597993	-0.100630	0.529865
C77	C	0.589619	-0.125174	0.648211
C78	C	0.578583	-0.157492	0.470698
C79	C	0.550793	-0.238886	0.529867
C80	C	0.542421	-0.263426	0.648203
C81	C	0.561833	-0.206572	0.707380
C82	C	0.586956	-0.132947	0.352351
C83	C	0.539757	-0.271204	0.352354
C84	C	0.531381	-0.295740	0.470690
H85	H	0.429433	-0.175167	0.186153
C86	C	0.500812	-0.385272	0.535791
N87	N	0.477786	-0.452705	0.584827
H88	H	0.632603	0.000746	0.374341
H89	H	0.364006	-0.096099	-0.185720
C90	C	0.462943	0.135589	0.000206
N91	N	0.434097	0.081418	0.000188
C92	C	0.451210	0.527322	0.000194
N93	N	0.409920	0.560378	0.000171
C94	C	0.518400	-0.333746	0.287264
N95	N	0.502316	-0.380849	0.238230
H96	H	0.445652	0.345284	0.000184
C97	C	0.675759	0.127155	0.464796
N98	N	0.698780	0.194600	0.415779
H99	H	0.609582	-0.066676	0.304187
C100	C	0.658170	0.075609	0.713311
N101	N	0.674253	0.122710	0.762349
H102	H	0.555012	-0.226546	0.803739
H103	H	0.667758	0.277996	0.000334
C104	C	0.328418	-0.179131	0.215464
N105	N	0.301476	-0.196314	0.300395
C106	C	-0.288460	-0.165989	0.215556
N107	N	-0.315419	-0.183137	0.300465
H108	H	0.730920	0.396611	0.000372
C109	C	0.511854	-0.352967	0.713285
N110	N	0.488831	-0.420407	0.762304
H111	H	0.230388	-0.071829	-0.288166
C112	C	0.713621	0.606292	0.000351
N113	N	0.742464	0.660464	0.000375
C114	C	0.524330	0.664619	0.000237
N115	N	0.511892	0.751846	0.000238
H116	H	-0.161139	-0.084908	-0.185633
C117	C	-0.258013	-0.076743	-0.214893
N118	N	-0.272949	-0.058683	-0.299812
H119	H	0.078694	-0.068602	-0.288153
C120	C	0.465036	-0.092120	-0.215011
N121	N	0.491994	-0.074947	-0.299918
C122	C	0.043043	-0.194402	0.317996
N123	N	0.057971	-0.212441	0.402922
C124	C	-0.018175	-0.060414	-0.317427
N125	N	-0.033108	-0.042339	-0.402351
H126	H	-0.053828	-0.186233	0.288713
H127	H	-0.187426	-0.162041	0.186262
C128	C	0.133506	-0.063639	-0.317453
N129	N	0.118574	-0.045574	-0.402377
H130	H	0.189586	-0.191429	0.288666
H131	H	0.097868	-0.189470	0.288678
H132	H	0.626469	0.200486	0.000311
