data_functionalizedCrystal
_audit_creation_method	'MofGen! by Chris Wilmer'
_symmetry_space_group_name_H-M	'P1'
_symmetry_Int_Tables_number	1
_symmetry_cell_setting	triclinic
loop_
_symmetry_equiv_pos_as_xyz
  x,y,z
_cell_length_a	18.050591
_cell_length_b	19.805405
_cell_length_c	19.805399
_cell_angle_alpha	89.970699
_cell_angle_beta	90.023476
_cell_angle_gamma	89.977142
loop_
_atom_site_label
_atom_site_type_symbol
_atom_site_fract_x
_atom_site_fract_y
_atom_site_fract_z
Zn1	Zn	1.135329	0.269543	0.382782
Zn2	Zn	1.635329	0.769543	0.882782
Zn3	Zn	1.135236	0.382731	0.269590
Zn4	Zn	1.635236	0.882731	0.769590
Zn5	Zn	1.011140	0.269555	0.269599
Zn6	Zn	1.511140	0.769555	0.769599
Zn7	Zn	1.011100	0.382688	0.382729
Zn8	Zn	1.511100	0.882688	0.882729
O9	O	1.073201	0.326129	0.326175
O10	O	1.573201	0.826129	0.826175
O11	O	1.239241	0.284571	0.367785
O12	O	1.739241	0.784571	0.867785
O13	O	1.118752	0.367741	0.174875
O14	O	1.618752	0.867741	0.674875
O15	O	1.027670	0.174837	0.284638
O16	O	1.527670	0.674837	0.784638
O17	O	1.239173	0.367730	0.284624
O18	O	1.739173	0.867730	0.784624
O19	O	1.118911	0.174828	0.367794
O20	O	1.618911	0.674828	0.867794
O21	O	1.027579	0.284591	0.174881
O22	O	1.527579	0.784591	0.674881
O23	O	0.907210	0.284549	0.284587
O24	O	1.407210	0.784549	0.784587
O25	O	1.027602	0.367657	0.477453
O26	O	1.527602	0.867657	0.977453
O27	O	0.907181	0.367668	0.367704
O28	O	1.407181	0.867668	0.867704
O29	O	1.118872	0.284529	0.477492
O30	O	1.618872	0.784529	0.977492
O31	O	1.118713	0.477442	0.284573
O32	O	1.618713	0.977442	0.784573
O33	O	1.027511	0.477411	0.367696
O34	O	1.527511	0.977411	0.867696
C35	C	0.880249	0.326105	0.326141
C36	C	1.380249	0.826105	0.826141
C37	C	0.797703	0.326112	0.326143
C38	C	1.297703	0.826112	0.826143
C39	C	0.548872	0.280865	0.281051
C40	C	1.048872	0.780865	0.781051
C41	C	0.598308	0.264381	0.342823
C42	C	1.098308	0.764381	0.842823
C43	C	0.500583	0.326146	0.326198
C44	C	1.000583	0.826146	0.826198
C45	C	0.598229	0.342581	0.264403
C46	C	1.098229	0.842581	0.764403
C47	C	0.646568	0.326128	0.326168
C48	C	1.146568	0.826128	0.826168
C49	C	0.548932	0.309631	0.388003
C50	C	1.048932	0.809631	0.888003
C51	C	0.548848	0.387859	0.309541
C52	C	1.048848	0.887859	0.809541
C53	C	0.598262	0.371399	0.371356
C54	C	1.098262	0.871399	0.871356
C55	C	0.416485	0.326155	0.326215
C56	C	0.916485	0.826155	0.826215
C57	C	0.730665	0.326119	0.326158
C58	C	1.230665	0.826119	0.826158
C59	C	1.073118	0.501985	0.326142
C60	C	1.573118	1.001985	0.826142
C61	C	1.073150	0.577217	0.326151
C62	C	1.573150	1.077217	0.826151
C63	C	1.073243	0.326087	0.502718
C64	C	1.573243	0.826087	1.002718
C65	C	1.073261	0.326069	0.577950
C66	C	1.573261	0.826069	1.077950
C67	C	1.266907	0.326154	0.326210
C68	C	1.766907	0.826154	0.826210
C69	C	1.349453	0.326164	0.326224
C70	C	1.849453	0.826164	0.826224
C71	C	1.073305	0.149587	0.326223
C72	C	1.573305	0.649587	0.826223
C73	C	1.073350	0.074355	0.326243
C74	C	1.573350	0.574355	0.826243
C75	C	1.120685	0.612555	0.282914
C76	C	1.620685	1.112555	0.782914
C77	C	1.120716	0.683244	0.282929
C78	C	1.620716	1.183244	0.782929
C79	C	1.073209	0.718593	0.326178
C80	C	1.573209	1.218593	0.826178
C81	C	1.025672	0.683250	0.369420
C82	C	1.525672	1.183250	0.869420
C83	C	1.025645	0.612563	0.369407
C84	C	1.525645	1.112563	0.869407
C85	C	1.025781	0.968323	0.369470
C86	C	1.525781	1.468323	0.869470
C87	C	1.025811	1.039015	0.369477
C88	C	1.525811	1.539015	0.869477
C89	C	1.120853	1.039004	0.282992
C90	C	1.620853	1.539004	0.782992
C91	C	1.120826	0.968317	0.282979
C92	C	1.620826	1.468317	0.782979
C93	C	1.073292	0.932980	0.326223
C94	C	1.573292	1.432980	0.826223
C95	C	1.073259	0.856332	0.326207
C96	C	1.573259	1.356332	0.826207
C97	C	1.073237	0.795240	0.326191
C98	C	1.573237	1.295240	0.826191
C99	C	1.073203	0.326123	0.150319
C100	C	1.573203	0.826123	0.650319
C101	C	1.073329	0.325950	0.075088
C102	C	1.573329	0.825950	0.575088
C103	C	1.120786	0.282782	0.613315
C104	C	1.620786	0.782782	1.113315
C105	C	1.120794	0.282762	0.684004
C106	C	1.620794	0.782762	1.184004
C107	C	1.073279	0.326033	0.719326
C108	C	1.573279	0.826033	1.219326
C109	C	1.025748	0.369322	0.683955
C110	C	1.525748	0.869322	1.183955
C111	C	1.025738	0.369337	0.613268
C112	C	1.525738	0.869337	1.113268
C113	C	1.025790	0.369259	0.969029
C114	C	1.525790	0.869259	1.469029
C115	C	1.025806	0.369241	1.039721
C116	C	1.525806	0.869241	1.539721
C117	C	1.120847	0.282683	1.039764
C118	C	1.620847	0.782683	1.539764
C119	C	1.120836	0.282699	0.969077
C120	C	1.620836	0.782699	1.469077
C121	C	1.073303	0.325985	0.933713
C122	C	1.573303	0.825985	1.433713
C123	C	1.073294	0.326005	0.857065
C124	C	1.573294	0.826005	1.357065
C125	C	1.073291	0.326017	0.795973
C126	C	1.573291	0.826017	1.295973
H127	H	1.159368	0.583779	0.247693
H128	H	1.659368	1.083779	0.747693
H129	H	1.159530	0.247466	0.940322
H130	H	1.659530	0.747466	1.440322
N131	N	0.977223	0.932228	0.413631
N132	N	1.477223	1.432228	0.913631
N133	N	0.929901	0.892827	0.389774
N134	N	1.429901	1.392827	0.889774
H135	H	0.895607	0.867330	0.420965
H136	H	1.395607	1.367330	0.920965
H137	H	0.527367	0.295662	0.440265
H138	H	1.027367	0.795662	0.940265
N139	N	1.169342	0.238556	0.720139
N140	N	1.669342	0.738556	1.220139
N141	N	1.169346	0.238545	0.783252
N142	N	1.669346	0.738545	1.283252
H143	H	1.203634	0.207322	0.808773
H144	H	1.703634	0.707322	1.308773
H145	H	0.987111	0.404479	1.068478
H146	H	1.487111	0.904479	1.568478
H147	H	0.986993	0.712037	0.404636
H148	H	1.486993	1.212037	0.904636
H149	H	0.619810	0.409684	0.409566
H150	H	1.119810	0.909684	0.909566
N151	N	0.977234	0.413477	0.932922
N152	N	1.477234	0.913477	1.432922
N153	N	0.934817	0.452108	0.964470
N154	N	1.434817	0.952108	1.464470
H155	H	0.900522	0.483341	0.938967
H156	H	1.400522	0.983341	1.438967
N157	N	0.521579	0.453321	0.291850
N158	N	1.021579	0.953321	0.791850
N159	N	0.537329	0.478451	0.235759
N160	N	1.037329	0.978451	0.735759
H161	H	0.518070	0.524684	0.223257
H162	H	1.018070	1.024684	0.723257
H163	H	0.527188	0.242551	0.242932
H164	H	1.027188	0.742551	0.742932
H165	H	0.986938	0.583791	0.404616
H166	H	1.486938	1.083791	0.904616
N167	N	0.625406	0.360015	0.198860
N168	N	1.125406	0.860015	0.698860
N169	N	0.609569	0.324028	0.149079
N170	N	1.109569	0.824028	0.649079
H171	H	0.628765	0.336333	0.102788
H172	H	1.128765	0.836333	0.602788
N173	N	1.169269	0.719356	0.238773
N174	N	1.669269	1.219356	0.738773
N175	N	1.216591	0.758751	0.262641
N176	N	1.716591	1.258751	0.762641
H177	H	1.250884	0.784258	0.231456
H178	H	1.750884	1.284258	0.731456
H179	H	0.987125	1.067794	0.404700
H180	H	1.487125	1.567794	0.904700
N181	N	0.977211	0.413513	0.720044
N182	N	1.477211	0.913513	1.220044
N183	N	0.977227	0.413494	0.783157
N184	N	1.477227	0.913494	1.283157
H185	H	0.942947	0.444705	0.808644
H186	H	1.442947	0.944705	1.308644
H187	H	1.159508	0.939538	0.247760
H188	H	1.659508	1.439538	0.747760
N189	N	0.625555	0.198902	0.360495
N190	N	1.125555	0.698902	0.860495
N191	N	0.581152	0.152030	0.372631
N192	N	1.081152	0.652030	0.872631
H193	H	0.600392	0.105784	0.385109
H194	H	1.100392	0.605784	0.885109
N195	N	1.169405	1.075112	0.238822
N196	N	1.669405	1.575112	0.738822
N197	N	1.169426	1.138224	0.238835
N198	N	1.669426	1.638224	0.738835
H199	H	1.203713	1.163725	0.207640
H200	H	1.703713	1.663725	0.707640
N201	N	1.169332	0.238581	0.577249
N202	N	1.669332	0.738581	1.077249
N203	N	1.211761	0.199935	0.608837
N204	N	1.711761	0.699935	1.108837
H205	H	1.246047	0.168715	0.583367
H206	H	1.746047	0.668715	1.083367
N207	N	0.977182	0.413554	0.577151
N208	N	1.477182	0.913554	1.077151
N209	N	0.934759	0.452184	0.608695
N210	N	1.434759	0.952184	1.108695
H211	H	0.900461	0.483411	0.583188
H212	H	1.400461	0.983411	1.083188
N213	N	1.169398	0.238471	1.075900
N214	N	1.669398	0.738471	1.575900
N215	N	1.169404	0.238459	1.139013
N216	N	1.669404	0.738459	1.639013
H217	H	1.203694	0.207237	1.164533
H218	H	1.703694	0.707237	1.664533
