data_functionalizedCrystal
_audit_creation_method	'MofGen! by Chris Wilmer'
_symmetry_space_group_name_H-M	'P1'
_symmetry_Int_Tables_number	1
_symmetry_cell_setting	triclinic
loop_
_symmetry_equiv_pos_as_xyz
  x,y,z
_cell_length_a	15.538191
_cell_length_b	19.188930
_cell_length_c	14.185328
_cell_angle_alpha	104.823376
_cell_angle_beta	108.252531
_cell_angle_gamma	65.208438
loop_
_atom_site_label
_atom_site_type_symbol
_atom_site_fract_x
_atom_site_fract_y
_atom_site_fract_z
O1	O	1.269869	-0.217697	0.083405
O2	O	1.769869	0.282303	0.583405
O3	O	0.995280	-0.136993	0.083415
O4	O	1.495280	0.363007	0.583415
O5	O	1.140495	-0.280993	0.083390
O6	O	1.640495	0.219007	0.583390
O7	O	1.124655	-0.073697	0.083430
O8	O	1.624655	0.426303	0.583430
O9	O	1.102429	-0.299608	-0.083457
O10	O	1.602429	0.200392	0.416543
O11	O	0.957215	-0.155609	-0.083432
O12	O	1.457215	0.344391	0.416568
O13	O	1.231804	-0.236312	-0.083442
O14	O	1.731804	0.263688	0.416558
Cu15	Cu	1.091034	-0.197660	-0.098671
Cu16	Cu	1.591034	0.302340	0.401329
Cu17	Cu	1.136051	-0.175645	0.098644
Cu18	Cu	1.636051	0.324355	0.598644
O19	O	1.086590	-0.092312	-0.083417
O20	O	1.586590	0.407688	0.416583
C21	C	0.941118	-0.137857	-0.000007
C22	C	1.441118	0.362143	0.499993
C23	C	0.836441	-0.112706	-0.000004
C24	C	1.336441	0.387294	0.499996
C25	C	1.120948	-0.316183	-0.000036
C26	C	1.620948	0.183817	0.499964
C27	C	1.119405	-0.393302	-0.000045
C28	C	1.619405	0.106698	0.499955
C29	C	0.549673	-0.362575	-0.000037
C30	C	1.049673	0.137425	0.499963
C31	C	0.451310	-0.338924	-0.000032
C32	C	0.951310	0.161076	0.499968
C33	C	0.428325	-0.205893	-0.000006
C34	C	0.928325	0.294107	0.499994
C35	C	0.526686	-0.229533	-0.000016
C36	C	1.026686	0.270467	0.499984
C37	C	0.587353	-0.307875	-0.000031
C38	C	1.087353	0.192125	0.499969
C39	C	0.564366	-0.174833	-0.000010
C40	C	1.064366	0.325167	0.499990
C41	C	0.662720	-0.198472	-0.000015
C42	C	1.162720	0.301528	0.499985
C43	C	0.723393	-0.276810	-0.000026
C44	C	1.223393	0.223190	0.499974
C45	C	0.685706	-0.331513	-0.000035
C46	C	1.185706	0.168487	0.499965
C47	C	0.503700	-0.096491	0.000011
C48	C	1.003700	0.403509	0.500011
C49	C	0.541380	-0.041791	0.000017
C50	C	1.041380	0.458209	0.500017
C51	C	0.639734	-0.065430	0.000005
C52	C	1.139734	0.434570	0.500005
C53	C	0.700407	-0.143768	-0.000006
C54	C	1.200407	0.356232	0.499994
C55	C	0.677421	-0.010726	0.000015
C56	C	1.177421	0.489274	0.500015
C57	C	0.775774	-0.034365	0.000010
C58	C	1.275774	0.465635	0.500010
C59	C	0.798761	-0.167406	-0.000011
C60	C	1.298761	0.332594	0.499989
C61	C	1.204614	-0.459628	-0.000053
C62	C	1.704614	0.040372	0.499947
C63	C	1.203170	-0.532087	-0.000037
C64	C	1.703170	-0.032087	0.499963
C65	C	1.116509	-0.538216	-0.000033
C66	C	1.616509	-0.038216	0.499967
C67	C	1.031290	-0.471876	-0.000019
C68	C	1.531290	0.028124	0.499981
C69	C	1.032739	-0.399419	-0.000025
C70	C	1.532739	0.100581	0.499975
N71	N	1.037312	-0.635918	-0.056811
N72	N	1.537312	-0.135918	0.443189
N73	N	1.035941	-0.704752	-0.056808
N74	N	1.535941	-0.204752	0.443192
C75	C	1.112140	-0.756524	-0.000012
C76	C	1.612140	-0.256524	0.499988
N77	N	1.189773	-0.736869	0.056767
N78	N	1.689773	-0.236869	0.556767
N79	N	1.191145	-0.668030	0.056759
N80	N	1.691145	-0.168030	0.556759
C81	C	1.114929	-0.616781	-0.000025
C82	C	1.614929	-0.116781	0.499975
C83	C	1.195789	-0.901421	-0.000001
C84	C	1.695789	-0.401421	0.499999
C85	C	1.194343	-0.973879	0.000021
C86	C	1.694343	-0.473879	0.500021
C87	C	1.022458	-0.913667	0.000028
C88	C	1.522458	-0.413667	0.500028
C89	C	1.023909	-0.841210	0.000016
C90	C	1.523909	-0.341210	0.500016
C91	C	1.110576	-0.835093	-0.000003
C92	C	1.610576	-0.335093	0.499997
C93	C	1.285967	-0.235448	-0.000017
C94	C	1.785967	0.264552	0.499983
C95	C	1.390646	-0.260598	-0.000014
C96	C	1.890646	0.239402	0.499986
C97	C	1.106137	-0.057122	0.000012
C98	C	1.606137	0.442878	0.500012
C99	C	1.107681	0.019997	0.000027
C100	C	1.607681	0.519997	0.500027
N101	N	1.059378	-0.213146	-0.237453
N102	N	1.559378	0.286854	0.262547
C103	C	1.260641	-0.114630	-0.605037
C104	C	1.760641	0.385370	-0.105037
C105	C	1.236684	-0.126376	-0.710066
C106	C	1.736684	0.373624	-0.210066
C107	C	1.122668	-0.182220	-0.710065
C108	C	1.622668	0.317780	-0.210065
C109	C	1.146612	-0.170474	-0.605033
C110	C	1.646612	0.329526	-0.105033
C111	C	1.215600	-0.136680	-0.552528
C112	C	1.715600	0.363320	-0.052528
C113	C	1.101571	-0.192524	-0.552524
C114	C	1.601571	0.307476	-0.052524
C115	C	1.125516	-0.180783	-0.447501
C116	C	1.625516	0.319217	0.052499
C117	C	1.194503	-0.146992	-0.394988
C118	C	1.694503	0.353008	0.105012
C119	C	1.239545	-0.124939	-0.447505
C120	C	1.739545	0.375061	0.052495
C121	C	1.032588	-0.226324	-0.605031
C122	C	1.532588	0.273676	-0.105031
C123	C	0.987547	-0.248374	-0.552522
C124	C	1.487547	0.251626	-0.052522
C125	C	1.011487	-0.236628	-0.447497
C126	C	1.511487	0.263372	0.052503
C127	C	1.080474	-0.202837	-0.394985
C128	C	1.580474	0.297163	0.105015
C129	C	0.966445	-0.258682	-0.394981
C130	C	1.466445	0.241318	0.105019
C131	C	0.990391	-0.246941	-0.289958
C132	C	1.490391	0.253059	0.210042
C133	C	1.104420	-0.191096	-0.289962
C134	C	1.604420	0.308904	0.210038
N135	N	1.167714	-0.160167	0.237426
N136	N	1.667714	0.339833	0.737426
H137	H	0.848158	-0.231201	-0.000028
H138	H	1.348158	0.268799	0.499972
Cl139	Cl	1.224611	-0.132234	-0.262958
Cl140	Cl	1.724611	0.367766	0.237042
Cl141	Cl	0.403941	-0.407701	-0.000056
Cl142	Cl	0.903941	0.092299	0.499944
Cl143	Cl	1.191159	-0.148620	-0.223947
Cl144	Cl	1.691159	0.351380	0.276053
H145	H	1.266359	-0.896440	-0.000013
H146	H	1.766359	-0.396440	0.499987
Cl147	Cl	1.326284	-0.082463	-0.381490
Cl148	Cl	1.826284	0.417537	0.118510
H149	H	0.491973	0.021995	0.000033
H150	H	0.991973	0.521995	0.500033
Cl151	Cl	0.925610	-0.316031	-0.000016
Cl152	Cl	1.425610	0.183969	0.499984
H153	H	1.275185	-0.454654	-0.000065
H154	H	1.775185	0.045346	0.499935
Cl155	Cl	1.002493	-0.241092	-0.737061
Cl156	Cl	1.502493	0.258908	-0.237061
H157	H	1.263734	-1.027885	0.000020
H158	H	1.763734	-0.527885	0.500020
H159	H	1.316807	-0.087101	-0.562284
H160	H	1.816807	0.412899	-0.062284
H161	H	0.628014	0.053061	0.000036
H162	H	1.128014	0.553061	0.500036
H163	H	0.951898	-0.918656	0.000037
H164	H	1.451898	-0.418656	0.500037
H165	H	1.273368	-0.108417	-0.752816
H166	H	1.773368	0.391583	-0.252816
H167	H	1.066501	-0.209739	-0.752829
H168	H	1.566501	0.290261	-0.252829
H169	H	0.378918	-0.142106	0.000009
H170	H	0.878918	0.357894	0.500009
Cl171	Cl	0.922346	-0.479580	-0.000006
Cl172	Cl	1.422346	0.020420	0.499994
Cl173	Cl	0.625944	-0.461065	-0.000067
Cl174	Cl	1.125944	0.038935	0.499933
H175	H	0.954522	-0.787204	0.000017
H176	H	1.454522	-0.287204	0.500017
Cl177	Cl	0.900821	-0.290856	-0.618538
Cl178	Cl	1.400821	0.209144	-0.118538
H179	H	0.910282	-0.286205	-0.437746
H180	H	1.410282	0.213795	0.062254
H181	H	0.806451	0.010177	0.000006
H182	H	1.306451	0.510177	0.500006
Cl183	Cl	0.847042	-0.306528	-0.000026
Cl184	Cl	1.347042	0.193472	0.499974
Cl185	Cl	0.380053	-0.066775	0.000017
Cl186	Cl	0.880053	0.433225	0.500017
Cl187	Cl	0.761978	-0.430004	-0.000066
Cl188	Cl	1.261978	0.069996	0.499934
Cl189	Cl	1.310298	-0.615482	-0.000046
Cl190	Cl	1.810298	-0.115482	0.499954
Cl191	Cl	0.933787	-0.274680	-0.223941
Cl192	Cl	1.433787	0.225320	0.276059
