data_functionalizedCrystal
_audit_creation_method	'MofGen! by Chris Wilmer'
_symmetry_space_group_name_H-M	'P1'
_symmetry_Int_Tables_number	1
_symmetry_cell_setting	triclinic
loop_
_symmetry_equiv_pos_as_xyz
  x,y,z
_cell_length_a	10.654550
_cell_length_b	15.995350
_cell_length_c	9.730223
_cell_angle_alpha	90.000899
_cell_angle_beta	89.996251
_cell_angle_gamma	83.988639
loop_
_atom_site_label
_atom_site_type_symbol
_atom_site_fract_x
_atom_site_fract_y
_atom_site_fract_z
O1	O	1.666298	0.117599	-0.114395
O2	O	1.300673	0.128803	-0.114373
O3	O	1.493480	0.001371	-0.114383
O4	O	1.473491	0.245031	-0.114385
O5	O	1.493478	0.001375	0.114197
O6	O	1.300671	0.128806	0.114207
O7	O	1.666295	0.117602	0.114185
Zn8	Zn	1.483483	0.123205	0.150488
Zn9	Zn	1.483486	0.123200	-0.150676
O10	O	1.473488	0.245034	0.114195
C11	C	1.253885	0.127982	-0.000080
C12	C	1.114473	0.125521	-0.000071
C13	C	1.034008	0.200551	-0.000092
C14	C	0.903017	0.198233	-0.000116
C15	C	0.932971	0.045849	-0.000104
C16	C	1.063959	0.048168	-0.000071
C17	C	1.016713	0.288528	-0.000104
C18	C	0.885722	0.286211	-0.000128
C19	C	1.492652	-0.029827	-0.000096
C20	C	1.490175	-0.122791	-0.000104
C21	C	1.481278	-0.460591	-0.000098
C22	C	1.343964	-0.413954	-0.000603
C23	C	1.346442	-0.317249	-0.000087
C24	C	1.485691	-0.293004	-0.000102
C25	C	1.553417	-0.333687	0.130422
C26	C	1.549968	-0.430342	0.130531
C27	C	1.552807	-0.430688	-0.129407
C28	C	1.552775	-0.333743	-0.131132
C29	C	1.488192	-0.198292	-0.000099
C30	C	1.478780	-0.555303	-0.000092
C31	C	1.713084	0.118423	-0.000111
C32	C	1.852495	0.120884	-0.000129
C33	C	1.474316	0.276232	-0.000095
C34	C	1.476793	0.369197	-0.000097
N35	N	1.483490	0.123207	0.356024
N36	N	1.483488	0.123191	-0.356212
C37	C	1.568886	0.066800	0.427946
C38	C	1.568883	0.066789	0.571829
C39	C	1.398083	0.179602	0.571856
C40	C	1.398081	0.179607	0.427976
C41	C	1.667501	0.001671	0.427931
C42	C	1.667497	0.001661	0.571814
H43	H	1.293204	-0.289138	-0.093652
H44	H	1.129471	-0.012929	-0.000034
C45	C	0.745475	-0.025368	-0.000150
C46	C	0.877440	-0.039175	-0.000117
H47	H	0.711198	-0.077860	-0.000169
H48	H	0.717844	0.005552	0.079551
H49	H	0.717887	0.005557	-0.079872
H50	H	0.905029	-0.070095	0.079610
H51	H	0.905083	-0.070109	-0.079826
C52	C	1.346674	-0.497340	-0.205963
C53	C	1.269858	-0.439409	-0.126947
H54	H	1.300917	-0.513063	-0.283958
H55	H	1.419263	-0.472487	-0.235320
H56	H	1.371919	-0.545766	-0.152200
H57	H	1.244621	-0.390980	-0.180707
H58	H	1.197246	-0.464260	-0.097591
H59	H	1.289324	-0.433864	0.092484
C60	C	1.491011	-0.210172	-0.265014
C61	C	1.486027	-0.297276	-0.261491
H62	H	1.449808	-0.187658	-0.345494
H63	H	1.450005	-0.185301	-0.186108
H64	H	1.576606	-0.198488	-0.265852
H65	H	1.400431	-0.308961	-0.260643
H66	H	1.527030	-0.322156	-0.340417
C67	C	0.697777	0.328630	-0.129275
C68	C	0.828788	0.330950	-0.129275
H69	H	0.662631	0.356252	-0.208998
H70	H	0.679225	0.271828	-0.129275
H71	H	0.662624	0.356249	-0.049558
H72	H	0.863943	0.303325	-0.208987
H73	H	0.847350	0.387761	-0.129287
H74	H	1.045593	0.322938	0.095561
C75	C	1.228379	-0.344883	0.202110
C76	C	1.274112	-0.280045	0.126459
H77	H	1.183736	-0.321913	0.280245
H78	H	1.173277	-0.373250	0.146216
H79	H	1.297115	-0.383450	0.231193
H80	H	1.205374	-0.241480	0.097367
H81	H	1.329217	-0.251664	0.182364
C82	C	1.725313	-0.119335	0.713074
C83	C	1.627398	-0.080434	0.632088
H84	H	1.700553	-0.170011	0.750298
H85	H	1.798595	-0.131643	0.658110
H86	H	1.743179	-0.082737	0.785755
H87	H	1.609538	-0.117030	0.559401
H88	H	1.554094	-0.068129	0.687055
C89	C	1.446807	-0.383438	0.340318
C90	C	1.483281	-0.455440	0.262246
H91	H	1.405627	-0.398930	0.421629
H92	H	1.519336	-0.356760	0.364155
H93	H	1.390702	-0.345800	0.288121
H94	H	1.539393	-0.493075	0.314440
H95	H	1.410741	-0.482131	0.238412
H96	H	1.052003	0.316540	-0.098792
H97	H	1.650782	-0.462005	0.136444
H98	H	1.763822	0.016006	0.610858
H99	H	0.839703	0.312800	0.098556
H100	H	1.655720	-0.318967	0.135266
H101	H	1.506376	-0.305577	0.227563
C102	C	1.521362	-0.102818	0.423186
C103	C	1.639672	-0.085203	0.375204
H104	H	1.504179	-0.156447	0.390628
H105	H	1.521374	-0.102818	0.520801
H106	H	1.458293	-0.061142	0.390646
H107	H	1.702743	-0.126876	0.407752
H108	H	1.639670	-0.085210	0.277568
H109	H	1.507914	-0.451490	-0.228337
C110	C	1.716740	-0.261705	-0.030273
C111	C	1.689865	-0.312218	-0.141789
H112	H	1.801380	-0.248424	-0.036843
H113	H	1.660985	-0.211324	-0.031378
H114	H	1.706099	-0.291119	0.053030
H115	H	1.700496	-0.282802	-0.225093
H116	H	1.745636	-0.362608	-0.140697
C117	C	1.870843	0.047263	0.474835
C118	C	1.790235	0.029193	0.367665
H119	H	1.946615	0.064250	0.437625
H120	H	1.830609	0.091287	0.529778
H121	H	1.889987	-0.001499	0.529771
H122	H	1.771083	0.077957	0.312735
H123	H	1.830477	-0.014834	0.312699
H124	H	1.654048	-0.461861	-0.130294
C125	C	1.229246	0.291109	0.442462
C126	C	1.304203	0.241607	0.348919
H127	H	1.171293	0.329389	0.393652
H128	H	1.184090	0.255968	0.498576
H129	H	1.281523	0.321553	0.498582
H130	H	1.251926	0.211158	0.292805
H131	H	1.349362	0.276752	0.292780
H132	H	1.328544	0.225520	0.630455
