data_functionalizedCrystal
_audit_creation_method	'MofGen! by Chris Wilmer'
_symmetry_space_group_name_H-M	'P1'
_symmetry_Int_Tables_number	1
_symmetry_cell_setting	triclinic
loop_
_symmetry_equiv_pos_as_xyz
  x,y,z
_cell_length_a	21.295420
_cell_length_b	21.295420
_cell_length_c	16.120484
_cell_angle_alpha	92.894825
_cell_angle_beta	87.078650
_cell_angle_gamma	90.017013
loop_
_atom_site_label
_atom_site_type_symbol
_atom_site_fract_x
_atom_site_fract_y
_atom_site_fract_z
Zn1	Zn	0.949610	0.368639	0.332224
Zn2	Zn	1.282943	0.701973	0.665557
Zn3	Zn	1.616276	1.035306	0.998890
Zn4	Zn	0.944199	0.268704	0.471586
Zn5	Zn	1.277533	0.602037	0.804920
Zn6	Zn	1.610866	0.935371	1.138253
Zn7	Zn	0.844349	0.263383	0.332178
Zn8	Zn	1.177682	0.596716	0.665512
Zn9	Zn	1.511015	0.930049	0.998845
Zn10	Zn	0.838975	0.373936	0.471590
Zn11	Zn	1.172309	0.707269	0.804923
Zn12	Zn	1.505642	1.040602	1.138257
O13	O	0.894283	0.318665	0.401895
O14	O	1.227617	0.651999	0.735228
O15	O	1.560950	0.985332	1.068561
O16	O	1.036981	0.355393	0.350728
O17	O	1.370314	0.688726	0.684061
O18	O	1.703647	1.022060	1.017395
O19	O	0.930938	0.179908	0.453073
O20	O	1.264272	0.513241	0.786406
O21	O	1.597605	0.846574	1.119740
O22	O	0.862825	0.272902	0.215516
O23	O	1.196158	0.606235	0.548850
O24	O	1.529491	0.939568	0.882183
O25	O	1.033006	0.281971	0.453117
O26	O	1.366339	0.615304	0.786450
O27	O	1.699672	0.948638	1.119784
O28	O	0.940160	0.350233	0.215550
O29	O	1.273493	0.683567	0.548883
O30	O	1.606826	1.016900	0.882216
O31	O	0.857579	0.175998	0.350651
O32	O	1.190912	0.509332	0.683984
O33	O	1.524245	0.842665	1.017317
O34	O	0.755547	0.278037	0.350654
O35	O	1.088881	0.611371	0.683987
O36	O	1.422214	0.944704	1.017321
O37	O	0.853667	0.461323	0.453123
O38	O	1.187000	0.794657	0.786457
O39	O	1.520334	1.127990	1.119790
O40	O	0.751600	0.359260	0.453079
O41	O	1.084933	0.692593	0.786413
O42	O	1.418266	1.025927	1.119746
O43	O	0.934949	0.457432	0.350731
O44	O	1.268283	0.790765	0.684065
O45	O	1.601616	1.124099	1.017398
O46	O	0.925728	0.287106	0.588255
O47	O	1.259062	0.620440	0.921588
O48	O	1.592395	0.953773	1.254922
O49	O	0.848421	0.364420	0.588258
O50	O	1.181754	0.697753	0.921591
O51	O	1.515087	1.031086	1.254924
C52	C	0.730733	0.318646	0.401863
C53	C	1.064066	0.651980	0.735196
C54	C	1.397400	0.985313	1.068529
C55	C	0.660765	0.318654	0.401869
C56	C	0.994098	0.651987	0.735202
C57	C	1.327431	0.985321	1.068536
C58	C	0.163370	0.356976	0.348706
C59	C	0.496703	0.690309	0.682040
C60	C	0.830037	1.023643	1.015373
C61	C	0.229113	0.356976	0.348700
C62	C	0.562446	0.690309	0.682033
C63	C	0.895779	1.023642	1.015367
C64	C	0.259923	0.318681	0.401920
C65	C	0.593257	0.652014	0.735253
C66	C	0.926590	0.985348	1.068587
C67	C	0.224985	0.280396	0.455165
C68	C	0.558318	0.613729	0.788498
C69	C	0.891651	0.947062	1.121832
C70	C	0.159243	0.280402	0.455176
C71	C	0.492576	0.613735	0.788509
C72	C	0.825910	0.947068	1.121842
N73	N	0.362881	0.263801	0.408173
N74	N	0.696215	0.597134	0.741507
N75	N	1.029548	0.930468	1.074840
N76	N	0.425333	0.263797	0.408158
N77	N	0.758667	0.597130	0.741492
N78	N	1.092000	0.930463	1.074825
C79	C	0.457999	0.318661	0.401892
C80	C	0.791332	0.651995	0.735226
C81	C	1.124666	0.985328	1.068559
N82	N	0.425854	0.373531	0.395626
N83	N	0.759187	0.706864	0.728959
N84	N	1.092521	1.040198	1.062293
N85	N	0.363396	0.373534	0.395637
N86	N	0.696730	0.706868	0.728970
N87	N	1.030063	1.040201	1.062303
C88	C	0.331209	0.318670	0.401915
C89	C	0.664542	0.652004	0.735248
C90	C	0.997875	0.985337	1.068581
C91	C	0.564215	0.356947	0.348648
C92	C	0.897548	0.690281	0.681981
C93	C	1.230882	1.023614	1.015315
C94	C	0.629959	0.356948	0.348648
C95	C	0.963292	0.690282	0.681981
C96	C	1.296625	1.023615	1.015314
C97	C	0.625830	0.280362	0.455108
C98	C	0.959163	0.613696	0.788442
C99	C	1.292496	0.947029	1.121775
C100	C	0.560087	0.280367	0.455113
C101	C	0.893420	0.613701	0.788446
C102	C	1.226754	0.947034	1.121780
C103	C	0.529284	0.318659	0.401879
C104	C	0.862617	0.651992	0.735212
C105	C	1.195950	0.985325	1.068545
C106	C	0.894312	0.482857	0.401933
C107	C	1.227646	0.816190	0.735266
C108	C	1.560979	1.149524	1.068599
C109	C	0.894325	0.552826	0.401949
C110	C	1.227658	0.886159	0.735282
C111	C	1.560991	1.219492	1.068616
C112	C	0.936642	0.583668	0.348642
C113	C	1.269975	0.917001	0.681976
C114	C	1.603309	1.250334	1.015309
C115	C	0.936633	0.649410	0.348629
C116	C	1.269966	0.982743	0.681962
C117	C	1.603300	1.316076	1.015295
C118	C	0.894313	0.684308	0.401936
C119	C	1.227646	1.017641	0.735270
C120	C	1.560979	1.350974	1.068603
C121	C	0.851987	0.653458	0.455247
C122	C	1.185321	0.986791	0.788580
C123	C	1.518654	1.320125	1.121913
C124	C	0.851993	0.587717	0.455253
C125	C	1.185327	0.921050	0.788586
C126	C	1.518660	1.254384	1.121920
N127	N	0.886653	0.790319	0.474904
N128	N	1.219987	1.123652	0.808238
N129	N	1.553320	1.456985	1.141571
N130	N	0.886651	0.852770	0.474896
N131	N	1.219985	1.186103	0.808229
N132	N	1.553318	1.519436	1.141563
C133	C	0.894291	0.882382	0.401919
C134	C	1.227624	1.215715	0.735252
C135	C	1.560958	1.549049	1.068586
N136	N	0.901945	0.847184	0.328950
N137	N	1.235279	1.180517	0.662283
N138	N	1.568612	1.513850	0.995616
N139	N	0.901950	0.784727	0.328959
N140	N	1.235284	1.118060	0.662292
N141	N	1.568617	1.451393	0.995626
C142	C	0.894301	0.755593	0.401935
C143	C	1.227635	1.088926	0.735268
C144	C	1.560968	1.422260	1.068602
C145	C	0.936601	0.984509	0.348593
C146	C	1.269934	1.317842	0.681926
C147	C	1.603268	1.651175	1.015260
C148	C	0.936588	1.050252	0.348578
C149	C	1.269921	1.383585	0.681911
C150	C	1.603254	1.716918	1.015244
C151	C	0.851945	1.054299	0.455203
C152	C	1.185278	1.387633	0.788537
C153	C	1.518612	1.720966	1.121870
C154	C	0.851955	0.988557	0.455211
C155	C	1.185289	1.321890	0.788544
C156	C	1.518622	1.655224	1.121878
C157	C	0.894287	0.953666	0.401907
C158	C	1.227620	1.286999	0.735240
C159	C	1.560953	1.620332	1.068574
C160	C	1.058472	0.318685	0.401927
C161	C	1.391806	0.652018	0.735261
C162	C	1.725139	0.985351	1.068594
C163	C	1.128440	0.318693	0.401941
C164	C	1.461773	0.652026	0.735274
C165	C	1.795107	0.985360	1.068608
C166	C	0.885921	0.326929	0.618507
C167	C	1.219255	0.660262	0.951840
C168	C	1.552588	0.993596	1.285174
C169	C	0.882402	0.330485	0.711175
C170	C	1.215735	0.663819	1.044508
C171	C	1.549068	0.997152	1.377841
C172	C	0.894256	1.155113	0.401882
C173	C	1.227590	1.488447	0.735215
C174	C	1.560923	1.821780	1.068548
C175	C	0.894266	1.085145	0.401885
C176	C	1.227599	1.418479	0.735218
C177	C	1.560933	1.751812	1.068552
C178	C	0.902695	0.310383	0.184436
C179	C	1.236028	0.643717	0.517770
C180	C	1.569362	0.977050	0.851103
C181	C	0.906280	0.306854	0.091769
C182	C	1.239613	0.640187	0.425102
C183	C	1.572946	0.973521	0.758435
C184	C	0.875979	0.336991	0.880840
C185	C	1.209313	0.670324	1.214173
C186	C	1.542646	1.003658	1.547506
C187	C	0.912700	0.300350	0.922109
C188	C	1.246034	0.633683	1.255442
C189	C	1.579367	0.967017	1.588776
C190	C	0.909127	0.303970	1.016516
C191	C	1.242460	0.637303	1.349850
C192	C	1.575793	0.970637	1.683183
C193	C	0.879552	0.333372	0.786424
C194	C	1.212885	0.666705	1.119757
C195	C	1.546219	1.000039	1.453090
H196	H	0.138294	0.388159	0.305362
H197	H	0.471627	0.721492	0.638695
H198	H	0.804961	1.054825	0.972029
O199	O	0.830778	0.382134	0.927957
O200	O	1.164112	0.715467	1.261290
O201	O	1.497445	1.048800	1.594624
H202	H	0.842157	0.430926	0.911288
H203	H	1.175490	0.764260	1.244622
H204	H	1.508824	1.097593	1.577955
O205	O	0.266800	0.398261	0.291273
O206	O	0.600134	0.731594	0.624606
O207	O	0.933467	1.064928	0.957939
H208	H	0.234336	0.424884	0.254253
H209	H	0.567670	0.758217	0.587586
H210	H	0.901003	1.091551	0.920920
H211	H	0.971092	0.674526	0.305215
H212	H	1.304425	1.007859	0.638549
H213	H	1.637759	1.341193	0.971882
O214	O	0.806340	0.554457	0.512750
O215	O	1.139673	0.887791	0.846084
O216	O	1.473007	1.221124	1.179417
H217	H	0.832866	0.526136	0.555182
H218	H	1.166200	0.859469	0.888515
H219	H	1.499533	1.192803	1.221849
H220	H	0.971047	1.075362	0.305164
H221	H	1.304380	1.408695	0.638498
H222	H	1.637713	1.742028	0.971831
H223	H	0.130803	0.249227	0.498528
H224	H	0.464136	0.582560	0.831861
H225	H	0.797470	0.915893	1.165194
H226	H	0.817481	1.082712	0.498599
H227	H	1.150814	1.416046	0.831932
H228	H	1.484147	1.749379	1.165266
H229	H	0.250075	0.249218	0.498499
H230	H	0.583408	0.582551	0.831833
H231	H	0.916741	0.915884	1.165166
H232	H	0.539134	0.388126	0.305301
H233	H	0.872467	0.721460	0.638635
H234	H	1.205800	1.054793	0.971968
O235	O	0.667639	0.398236	0.291221
O236	O	1.000972	0.731569	0.624555
O237	O	1.334306	1.064902	0.957888
H238	H	0.635172	0.424855	0.254201
H239	H	0.968505	0.758188	0.587534
H240	H	1.301839	1.091521	0.920867
O241	O	0.659050	0.239055	0.512510
O242	O	0.992383	0.572388	0.845844
O243	O	1.325717	0.905722	1.179177
H244	H	0.710634	0.245478	0.503557
H245	H	1.043967	0.578812	0.836890
H246	H	1.377300	0.912145	1.170224
O247	O	0.957899	0.255195	0.874998
O248	O	1.291233	0.588529	1.208331
O249	O	1.624566	0.921862	1.541664
H250	H	0.946516	0.206409	0.891688
H251	H	1.279849	0.539742	1.225021
H252	H	1.613182	0.873075	1.558354
O253	O	0.522406	0.239065	0.512517
O254	O	0.855739	0.572399	0.845850
O255	O	1.189073	0.905732	1.179184
H256	H	0.554873	0.212430	0.549518
H257	H	0.888207	0.545764	0.882851
H258	H	1.221540	0.879097	1.216184
H259	H	0.817528	0.681876	0.498648
H260	H	1.150861	1.015210	0.831981
H261	H	1.484195	1.348543	1.165314
O262	O	0.982295	0.546033	0.291150
O263	O	1.315628	0.879366	0.624484
O264	O	1.648962	1.212700	0.957817
H265	H	1.011717	0.578529	0.254076
H266	H	1.345051	0.911862	0.587410
H267	H	1.678384	1.245195	0.920743
H268	H	0.971066	0.956098	0.305185
H269	H	1.304400	1.289432	0.638518
H270	H	1.637733	1.622765	0.971852
O271	O	0.806297	0.955284	0.512684
O272	O	1.139630	1.288617	0.846017
O273	O	1.472964	1.621951	1.179351
H274	H	0.776862	0.990593	0.549745
H275	H	1.110195	1.323927	0.883078
H276	H	1.443528	1.657260	1.216411
