data_functionalizedCrystal
_audit_creation_method	'MofGen! by Chris Wilmer'
_symmetry_space_group_name_H-M	'P1'
_symmetry_Int_Tables_number	1
_symmetry_cell_setting	triclinic
loop_
_symmetry_equiv_pos_as_xyz
  x,y,z
_cell_length_a	10.654551
_cell_length_b	10.654550
_cell_length_c	9.482900
_cell_angle_alpha	99.426343
_cell_angle_beta	80.619896
_cell_angle_gamma	84.485087
loop_
_atom_site_label
_atom_site_type_symbol
_atom_site_fract_x
_atom_site_fract_y
_atom_site_fract_z
O1	O	1.687240	0.156914	-0.120873
O2	O	1.321763	0.173717	-0.120879
O3	O	1.512904	-0.017423	-0.120870
O4	O	1.496100	0.348054	-0.120881
O5	O	1.474080	0.021559	0.120920
O6	O	1.282939	0.212700	0.120911
O7	O	1.648417	0.195896	0.120918
Cu8	Cu	1.462133	0.207857	0.142992
Cu9	Cu	1.508047	0.161756	-0.142953
O10	O	1.457276	0.387036	0.120909
C11	C	1.255553	0.191974	0.000015
C12	C	1.116111	0.188282	0.000013
C13	C	0.898416	0.204313	0.131814
C14	C	1.029436	0.207794	0.131815
C15	C	1.071758	0.165300	-0.131799
C16	C	0.940739	0.161829	-0.131798
C17	C	0.811748	0.223814	0.263625
C18	C	0.856091	0.246798	0.395437
C19	C	0.987112	0.250278	0.395438
C20	C	1.073789	0.230775	0.263626
C21	C	1.492258	-0.044730	0.000023
C22	C	1.488567	-0.184174	0.000018
C23	C	1.601108	-0.263658	0.000024
C24	C	1.597633	-0.394681	0.000014
C25	C	1.369066	-0.366721	-0.000003
C26	C	1.372544	-0.235703	-0.000003
C27	C	1.717131	-0.212130	0.000045
C28	C	1.829680	-0.291615	0.000053
C29	C	1.826206	-0.422638	0.000043
C30	C	1.710181	-0.474175	0.000025
C31	C	1.714627	0.177638	0.000020
C32	C	1.854071	0.181330	0.000013
C33	C	1.477922	0.414343	0.000012
C34	C	1.481615	0.553785	0.000008
N35	N	1.429849	0.240281	0.344111
N36	N	1.540340	0.129322	-0.344072
C37	C	1.498516	0.171313	0.416313
C38	C	1.471664	0.198300	0.583729
H39	H	1.719973	-0.105446	0.000058
H40	H	1.351178	0.319302	0.406237
H41	H	1.917851	-0.487354	0.000035
O42	O	1.706435	-0.615493	0.000020
H43	H	1.672018	-0.659893	-0.098536
O44	O	1.602717	0.066619	0.334051
H45	H	1.580913	-0.026679	0.363202
O46	O	1.644547	0.024626	0.573663
H47	H	1.649290	0.019857	0.455078
H48	H	1.392987	0.277327	0.645850
H49	H	1.274604	-0.408693	-0.000015
H50	H	0.705063	0.220980	0.263640
H51	H	0.904634	0.143117	-0.239122
O52	O	0.762544	0.268437	0.537600
H53	H	0.663962	0.262364	0.515461
O54	O	1.034932	0.275101	0.537602
H55	H	1.010102	0.199177	0.600814
O56	O	1.215106	0.234529	0.263617
H57	H	1.231385	0.253783	0.377413
H58	H	1.142340	0.149421	-0.239113
H59	H	1.924149	-0.249650	0.000032
O60	O	1.251164	-0.149956	0.000004
H61	H	1.169897	-0.207792	0.000016
