data_functionalizedCrystal
_audit_creation_method	'MofGen! by Chris Wilmer'
_symmetry_space_group_name_H-M	'P1'
_symmetry_Int_Tables_number	1
_symmetry_cell_setting	triclinic
loop_
_symmetry_equiv_pos_as_xyz
  x,y,z
_cell_length_a	12.645331
_cell_length_b	12.645330
_cell_length_c	18.215399
_cell_angle_alpha	89.974416
_cell_angle_beta	89.980457
_cell_angle_gamma	90.012860
loop_
_atom_site_label
_atom_site_type_symbol
_atom_site_fract_x
_atom_site_fract_y
_atom_site_fract_z
Zn1	Zn	1.620734	-0.422040	-0.416134
Zn2	Zn	1.954067	-0.088706	-0.082801
Zn3	Zn	2.287401	0.244627	0.250533
Zn4	Zn	1.620642	-0.599323	-0.293074
Zn5	Zn	1.953975	-0.265990	0.040260
Zn6	Zn	2.287308	0.067343	0.373593
Zn7	Zn	1.443459	-0.422075	-0.293081
Zn8	Zn	1.776792	-0.088742	0.040252
Zn9	Zn	2.110126	0.244592	0.373586
Zn10	Zn	1.443446	-0.599262	-0.416098
Zn11	Zn	1.776779	-0.265929	-0.082765
Zn12	Zn	2.110113	0.067404	0.250569
O13	O	1.532070	-0.510675	-0.354597
O14	O	1.865403	-0.177342	-0.021263
O15	O	2.198737	0.155992	0.312070
O16	O	1.769069	-0.445568	-0.399822
O17	O	2.102402	-0.112234	-0.066488
O18	O	2.435736	0.221099	0.266845
O19	O	1.597104	-0.575851	-0.190090
O20	O	1.930438	-0.242518	0.143243
O21	O	2.263771	0.090815	0.476576
O22	O	1.467019	-0.273723	-0.309422
O23	O	1.800352	0.059610	0.023911
O24	O	2.133686	0.392944	0.357245
O25	O	1.769001	-0.575817	-0.309410
O26	O	2.102334	-0.242484	0.023924
O27	O	2.435668	0.090850	0.357257
O28	O	1.597262	-0.273697	-0.399829
O29	O	1.930596	0.059636	-0.066495
O30	O	2.263929	0.392969	0.266838
O31	O	1.466929	-0.445628	-0.190096
O32	O	1.800262	-0.112294	0.143238
O33	O	2.133596	0.221039	0.476571
O34	O	1.295110	-0.445569	-0.309387
O35	O	1.628443	-0.112235	0.023946
O36	O	1.961777	0.221098	0.357279
O37	O	1.466997	-0.575713	-0.519087
O38	O	1.800330	-0.242380	-0.185754
O39	O	2.133664	0.090954	0.147579
O40	O	1.295101	-0.575747	-0.399768
O41	O	1.628434	-0.242414	-0.066434
O42	O	1.961767	0.090919	0.266899
O43	O	1.597250	-0.445508	-0.519113
O44	O	1.930583	-0.112175	-0.185780
O45	O	2.263917	0.221158	0.147553
O46	O	1.597092	-0.747662	-0.309375
O47	O	1.930425	-0.414329	0.023958
O48	O	2.263759	-0.080996	0.357292
O49	O	1.466907	-0.747618	-0.399761
O50	O	1.800241	-0.414284	-0.066427
O51	O	2.133574	-0.080951	0.266906
C52	C	1.256640	-0.510656	-0.354575
C53	C	1.589974	-0.177323	-0.021242
C54	C	1.923307	0.156011	0.312092
C55	C	1.138810	-0.510673	-0.354583
C56	C	1.472144	-0.177340	-0.021250
C57	C	1.805477	0.155994	0.312084
C58	C	1.093899	-0.428650	-0.297818
C59	C	1.427232	-0.095317	0.035516
C60	C	1.760565	0.238016	0.368849
C61	C	0.971339	-0.428347	-0.298012
C62	C	1.304672	-0.095014	0.035321
C63	C	1.638006	0.238319	0.368655
C64	C	0.970972	-0.480884	-0.432271
C65	C	1.304305	-0.147550	-0.098938
C66	C	1.637639	0.185783	0.234395
C67	C	1.093570	-0.480271	-0.431917
C68	C	1.426903	-0.146937	-0.098583
C69	C	1.760237	0.186396	0.234750
C70	C	1.093607	-0.622730	-0.334393
C71	C	1.426940	-0.289397	-0.001060
C72	C	1.760273	0.043936	0.332273
C73	C	0.970999	-0.622145	-0.332709
C74	C	1.304332	-0.288812	0.000624
C75	C	1.637666	0.044522	0.333957
C76	C	1.532017	-0.786105	-0.354579
C77	C	1.865350	-0.452771	-0.021246
C78	C	2.198684	-0.119438	0.312087
C79	C	1.532091	-0.903935	-0.354596
C80	C	1.865425	-0.570602	-0.021263
C81	C	2.198758	-0.237268	0.312070
C82	C	1.613859	-1.071483	-0.297619
C83	C	1.947192	-0.738150	0.035714
C84	C	2.280526	-0.404816	0.369047
C85	C	1.614125	-0.948923	-0.297759
C86	C	1.947459	-0.615589	0.035574
C87	C	2.280792	-0.282256	0.368908
C88	C	1.562385	-0.948320	-0.432171
C89	C	1.895718	-0.614986	-0.098838
C90	C	2.229052	-0.281653	0.234496
C91	C	1.563034	-1.070918	-0.431869
C92	C	1.896367	-0.737584	-0.098535
C93	C	2.229700	-0.404251	0.234798
C94	C	1.419998	-1.071262	-0.334763
C95	C	1.753331	-0.737929	-0.001430
C96	C	2.086664	-0.404595	0.331903
C97	C	1.420535	-0.948657	-0.333024
C98	C	1.753868	-0.615324	0.000310
C99	C	2.087202	-0.281991	0.333643
C100	C	1.808575	-0.510695	-0.354619
C101	C	2.141909	-0.177362	-0.021286
C102	C	2.475242	0.155971	0.312048
C103	C	1.926405	-0.510704	-0.354628
C104	C	2.259739	-0.177370	-0.021295
C105	C	2.593072	0.155963	0.312038
C106	C	1.532132	-0.510600	-0.546550
C107	C	1.865466	-0.177267	-0.213216
C108	C	2.198799	0.156067	0.120117
C109	C	1.532159	-0.510568	-0.628349
C110	C	1.865492	-0.177235	-0.295015
C111	C	2.198826	0.156099	0.038318
C112	C	1.532152	-0.234170	-0.354630
C113	C	1.865486	0.099164	-0.021297
C114	C	2.198819	0.432497	0.312036
C115	C	1.532187	-0.116340	-0.354645
C116	C	1.865521	0.216994	-0.021311
C117	C	2.198854	0.550327	0.312022
C118	C	1.600021	-0.442679	-0.893421
C119	C	1.933354	-0.109346	-0.560088
C120	C	2.266687	0.223988	-0.226755
C121	C	1.600008	-0.442708	-0.816562
C122	C	1.933341	-0.109374	-0.483229
C123	C	2.266675	0.223959	-0.149896
C124	C	1.464383	-0.578303	-0.816525
C125	C	1.797717	-0.244970	-0.483191
C126	C	2.131050	0.088363	-0.149858
C127	C	1.464402	-0.578279	-0.893382
C128	C	1.797735	-0.244946	-0.560049
C129	C	2.131069	0.088388	-0.226715
C130	C	1.532219	-0.510461	-0.931828
C131	C	1.865552	-0.177128	-0.598495
C132	C	2.198886	0.156206	-0.265162
C133	C	1.532188	-0.510514	-0.778112
C134	C	1.865521	-0.177180	-0.444779
C135	C	2.198855	0.156153	-0.111445
C136	C	1.532174	-0.510545	-0.694778
C137	C	1.865507	-0.177212	-0.361445
C138	C	2.198840	0.156121	-0.028112
C139	C	1.532235	-0.510431	-1.015167
C140	C	1.865568	-0.177097	-0.681834
C141	C	2.198901	0.156236	-0.348501
C142	C	1.532069	-0.510673	-0.163390
C143	C	1.865402	-0.177340	0.169943
C144	C	2.198736	0.155993	0.503276
C145	C	1.532248	-0.510407	-0.081592
C146	C	1.865581	-0.177073	0.251741
C147	C	2.198915	0.156260	0.585075
H148	H	0.941202	-0.446952	-0.240450
H149	H	1.274535	-0.113618	0.092883
H150	H	1.607868	0.219715	0.426216
F151	F	1.589403	-1.110113	-0.222215
F152	F	1.922736	-0.776779	0.111119
F153	F	2.256070	-0.443446	0.444452
H154	H	1.409189	-0.633481	-0.924654
H155	H	1.742522	-0.300148	-0.591321
H156	H	2.075855	0.033185	-0.257987
F157	F	1.672196	-0.370499	-0.934336
F158	F	2.005529	-0.037166	-0.601003
F159	F	2.338862	0.296167	-0.267669
F160	F	1.672174	-0.370567	-0.775690
F161	F	2.005507	-0.037233	-0.442357
F162	F	2.338841	0.296100	-0.109023
F163	F	1.132372	-0.452659	-0.222327
F164	F	1.465705	-0.119326	0.111006
F165	F	1.799038	0.214008	0.444340
H166	H	1.124717	-0.346088	-0.311050
H167	H	1.458050	-0.012754	0.022284
H168	H	1.791384	0.320579	0.355617
H169	H	0.942021	-0.345322	-0.311420
H170	H	1.275355	-0.011989	0.021913
H171	H	1.608688	0.321344	0.355246
H172	H	1.409167	-0.633517	-0.785212
H173	H	1.742501	-0.300184	-0.451879
H174	H	2.075834	0.033150	-0.118546
H175	H	1.123286	-0.537440	-0.475676
H176	H	1.456619	-0.204106	-0.142343
H177	H	1.789953	0.129227	0.190991
F178	F	0.932942	-0.556594	-0.489092
F179	F	1.266275	-0.223260	-0.155758
F180	F	1.599608	0.110073	0.177575
F181	F	1.130968	-0.373227	-0.454224
F182	F	1.464301	-0.039894	-0.120890
F183	F	1.797635	0.293440	0.212443
H184	H	1.595172	-0.918918	-0.240239
H185	H	1.928506	-0.585584	0.093095
H186	H	2.261839	-0.252251	0.426428
F187	F	0.930861	-0.375028	-0.454979
F188	F	1.264194	-0.041695	-0.121646
F189	F	1.597527	0.291639	0.211688
H190	H	0.941867	-0.644639	-0.275567
H191	H	1.275200	-0.311306	0.057766
H192	H	1.608534	0.022028	0.391099
F193	F	1.133955	-0.658320	-0.261619
F194	F	1.467288	-0.324986	0.071714
F195	F	1.800621	0.008347	0.405047
H196	H	1.122648	-0.683836	-0.375739
H197	H	1.455982	-0.350502	-0.042406
H198	H	1.789315	-0.017169	0.290928
F199	F	1.721890	-1.111645	-0.314614
F200	F	2.055223	-0.778311	0.018719
F201	F	2.388557	-0.444978	0.352052
F202	F	0.931055	-0.706256	-0.382803
F203	F	1.264388	-0.372923	-0.049470
F204	F	1.597722	-0.039590	0.283864
F205	F	1.722736	-0.910479	-0.314950
F206	F	2.056069	-0.577146	0.018383
F207	F	2.389402	-0.243813	0.351716
F208	F	1.486994	-0.910239	-0.489195
F209	F	1.820328	-0.576905	-0.155861
F210	F	2.153661	-0.243572	0.177472
F211	F	1.488649	-1.109701	-0.489291
F212	F	1.821982	-0.776368	-0.155958
F213	F	2.155316	-0.443034	0.177376
F214	F	1.670220	-1.108189	-0.453879
F215	F	2.003553	-0.774856	-0.120545
F216	F	2.336887	-0.441523	0.212788
F217	F	1.668361	-0.908081	-0.454551
F218	F	2.001695	-0.574748	-0.121218
F219	F	2.335028	-0.241414	0.212115
H220	H	1.392449	-1.102269	-0.279181
H221	H	1.725782	-0.768936	0.054152
H222	H	2.059115	-0.435603	0.387485
H223	H	1.397693	-0.919659	-0.275935
H224	H	1.731027	-0.586326	0.057398
H225	H	2.064360	-0.252992	0.390731
F226	F	1.340458	-1.109181	-0.389049
F227	F	1.673792	-0.775848	-0.055715
F228	F	2.007125	-0.442514	0.277618
H229	H	1.356401	-0.918045	-0.371512
H230	H	1.689734	-0.584711	-0.038179
H231	H	2.023068	-0.251378	0.295154
