data_functionalizedCrystal
_audit_creation_method	'MofGen! by Chris Wilmer'
_symmetry_space_group_name_H-M	'P1'
_symmetry_Int_Tables_number	1
_symmetry_cell_setting	triclinic
loop_
_symmetry_equiv_pos_as_xyz
  x,y,z
_cell_length_a	19.288867
_cell_length_b	10.654551
_cell_length_c	17.766277
_cell_angle_alpha	89.996514
_cell_angle_beta	89.992126
_cell_angle_gamma	83.811215
loop_
_atom_site_label
_atom_site_type_symbol
_atom_site_fract_x
_atom_site_fract_y
_atom_site_fract_z
O1	O	0.922378	0.156669	-0.062563
O2	O	0.720256	0.177799	-0.062570
O3	O	0.825964	-0.015605	-0.062567
O4	O	0.816670	0.350072	-0.062566
O5	O	0.825945	-0.015615	0.062622
O6	O	0.720237	0.177789	0.062619
O7	O	0.922359	0.156659	0.062625
Cu8	Cu	0.821297	0.167223	0.074053
Cu9	Cu	0.821319	0.167235	-0.073997
O10	O	0.816652	0.350062	0.062622
C11	C	0.694366	0.177114	0.000023
C12	C	0.617249	0.175071	0.000021
C13	C	0.061598	0.160367	-0.068211
C14	C	0.134058	0.162278	-0.068214
C15	C	0.170282	0.163234	0.000026
C16	C	0.134043	0.162247	0.068274
C17	C	0.061585	0.160323	0.068275
C18	C	0.280104	0.239829	0.052307
C19	C	0.352559	0.241760	0.052304
C20	C	0.393767	0.169163	0.000027
C21	C	0.362508	0.094649	-0.052259
C22	C	0.290050	0.092725	-0.052259
C23	C	0.248851	0.165320	0.000033
C24	C	0.508567	0.172214	-0.068220
C25	C	0.581029	0.174117	-0.068220
C26	C	0.581012	0.174099	0.068270
C27	C	0.508553	0.172182	0.068268
C28	C	0.472334	0.171246	0.000021
C29	C	0.825272	-0.062393	0.000026
C30	C	0.823230	-0.201793	0.000021
C31	C	0.822282	-0.267279	-0.068218
C32	C	0.820358	-0.398258	-0.068215
C33	C	0.820331	-0.398254	0.068272
C34	C	0.822251	-0.267276	0.068268
C35	C	0.822300	-0.267283	-0.147018
C36	C	0.820376	-0.398262	-0.147015
C37	C	0.948250	0.157344	0.000030
C38	C	1.025367	0.159386	0.000028
C39	C	0.817344	0.396851	0.000028
C40	C	0.819386	0.536250	0.000028
N41	N	0.821286	0.167214	0.178183
N42	N	0.821335	0.167234	-0.178128
C43	C	0.868109	0.081617	0.217571
C44	C	0.868113	0.081611	0.296373
C45	C	0.821301	0.167224	0.335784
C46	C	0.774469	0.252828	0.296386
C47	C	0.774462	0.252823	0.217585
C48	C	0.812752	0.281645	0.460621
C49	C	0.812764	0.281652	0.539420
C50	C	0.821320	0.167239	0.578830
C51	C	0.829878	0.052815	0.539431
C52	C	0.829870	0.052810	0.460631
C53	C	0.821303	0.167238	0.421229
C54	C	0.868149	0.081628	0.703664
C55	C	0.868148	0.081621	0.782467
C56	C	0.774508	0.252849	0.782478
C57	C	0.774505	0.252845	0.703677
C58	C	0.821330	0.167237	0.664274
H59	H	0.610506	0.174872	0.123832
C60	C	0.468695	0.171134	0.143337
N61	N	0.438674	0.170348	0.199883
H62	H	0.769724	-0.426744	-0.171475
C63	C	0.620884	0.175180	-0.143292
N64	N	0.650904	0.175979	-0.199839
H65	H	0.906243	0.011905	0.328449
C66	C	0.919648	-0.012569	0.825794
N67	N	0.958436	-0.083521	0.858429
C68	C	0.234783	0.319689	0.109824
N69	N	0.200648	0.379836	0.153146
H70	H	0.032113	0.159599	-0.123783
H71	H	0.868379	-0.445578	-0.177269
H72	H	0.819533	-0.451586	0.123837
H73	H	0.836837	-0.040358	0.428555
H74	H	0.378002	0.302464	0.094862
H75	H	0.736332	0.322528	0.185515
H76	H	0.264603	0.032052	-0.094830
H77	H	0.163542	0.163023	0.123836
H78	H	0.736353	0.322533	0.328478
H79	H	0.906235	0.011906	0.185492
H80	H	0.805772	0.374819	0.428541
H81	H	0.736390	0.322552	0.814566
C82	C	0.021729	0.159262	0.143347
N83	N	-0.008293	0.158471	0.199892
H84	H	0.836844	-0.040351	0.571516
C85	C	0.407831	0.014783	-0.109768
N86	N	0.441971	-0.045368	-0.153083
H87	H	0.774308	-0.219973	-0.177279
C88	C	0.890740	-0.228795	-0.180048
N89	N	0.942289	-0.199806	-0.204924
H90	H	0.906275	0.011917	0.671581
C91	C	0.823283	-0.195243	0.143336
N92	N	0.824060	-0.140988	0.199880
C93	C	0.723046	0.347101	0.660348
N94	N	0.684301	0.418127	0.627713
C95	C	0.803343	0.407519	0.582751
N96	N	0.796242	0.502326	0.615387
H97	H	0.163562	0.163083	-0.123784
H98	H	0.479077	0.171447	-0.123791
