data_functionalizedCrystal
_audit_creation_method	'MofGen! by Chris Wilmer'
_symmetry_space_group_name_H-M	'P1'
_symmetry_Int_Tables_number	1
_symmetry_cell_setting	triclinic
loop_
_symmetry_equiv_pos_as_xyz
  x,y,z
_cell_length_a	16.959455
_cell_length_b	19.121063
_cell_length_c	19.121605
_cell_angle_alpha	90.075163
_cell_angle_beta	87.545906
_cell_angle_gamma	92.465894
loop_
_atom_site_label
_atom_site_type_symbol
_atom_site_fract_x
_atom_site_fract_y
_atom_site_fract_z
Zn1	Zn	1.215354	-0.262268	-0.408276
Zn2	Zn	1.204000	-0.384509	-0.296033
Zn3	Zn	1.077313	-0.267282	-0.291055
Zn4	Zn	1.077741	-0.379465	-0.413232
O5	O	1.143602	-0.323381	-0.352149
O6	O	1.324459	-0.278496	-0.393396
O7	O	1.182264	-0.373168	-0.197267
O8	O	1.100197	-0.168510	-0.302447
O9	O	1.316117	-0.368306	-0.310932
O10	O	1.201615	-0.164826	-0.388569
O11	O	1.089188	-0.287042	-0.193609
O12	O	0.966759	-0.282151	-0.307252
O13	O	1.100926	-0.359709	-0.510680
O14	O	0.967073	-0.364571	-0.397015
O15	O	1.202030	-0.273605	-0.507039
O16	O	1.182679	-0.481947	-0.315737
O17	O	1.089917	-0.478241	-0.401842
C18	C	0.938236	-0.323359	-0.352132
C19	C	0.850380	-0.323365	-0.352142
C20	C	0.478722	-0.280424	-0.305501
C21	C	0.479084	-0.366394	-0.398839
C22	C	0.561631	-0.366384	-0.398834
C23	C	0.602726	-0.323394	-0.352162
C24	C	0.561276	-0.280415	-0.305494
C25	C	0.603087	-0.409368	-0.445496
C26	C	0.685638	-0.409361	-0.445493
C27	C	0.726735	-0.366367	-0.398823
C28	C	0.685280	-0.323385	-0.352154
C29	C	0.726375	-0.280395	-0.305482
C30	C	0.684922	-0.237409	-0.258815
C31	C	0.602373	-0.237421	-0.258824
C32	C	0.809284	-0.366355	-0.398814
C33	C	0.808929	-0.280385	-0.305474
C34	C	1.135134	-0.505532	-0.359883
C35	C	1.131585	-0.583455	-0.363215
C36	C	1.178256	-0.621969	-0.319987
C37	C	1.174923	-0.695186	-0.323124
C38	C	1.124915	-0.729889	-0.369487
C39	C	1.078243	-0.691370	-0.412720
C40	C	1.081580	-0.618154	-0.409585
C41	C	1.112423	-0.950859	-0.381196
C42	C	1.109087	-1.024080	-0.384326
C43	C	1.205768	-1.027891	-0.294731
C44	C	1.209098	-0.954673	-0.291598
C45	C	1.162429	-0.916161	-0.334833
C46	C	1.121505	-0.804729	-0.372694
C47	C	1.165844	-0.841322	-0.331629
C48	C	1.349770	-0.323404	-0.352166
C49	C	1.437626	-0.323414	-0.352174
C50	C	1.152792	-0.315535	-0.535009
C51	C	1.156708	-0.312192	-0.612933
C52	C	1.152125	-0.140519	-0.344400
C53	C	1.155757	-0.062594	-0.341098
C54	C	1.181538	-0.291036	-1.053560
C55	C	1.177853	-0.294180	-0.980342
C56	C	1.123368	-0.340579	-0.945632
C57	C	1.072569	-0.383840	-0.984144
C58	C	1.076258	-0.380698	-1.057361
C59	C	1.109599	-0.352311	-0.724661
C60	C	1.105912	-0.355448	-0.651439
C61	C	1.211197	-0.265789	-0.647642
C62	C	1.214879	-0.262648	-0.720860
C63	C	1.164083	-0.305912	-0.759366
C64	C	1.119598	-0.343793	-0.870792
C65	C	1.167857	-0.302701	-0.834205
C66	C	1.134496	-0.331146	-0.169998
C67	C	1.130742	-0.334292	-0.092066
H68	H	0.719383	-0.444362	-0.483492
F69	F	1.047919	-0.404834	-0.614500
H70	H	1.243765	-1.059255	-0.259533
F71	F	1.225845	-0.253325	-0.871147
H72	H	0.568614	-0.202424	-0.220830
F73	F	0.434605	-0.234674	-0.255842
F74	F	1.265250	-0.219744	-0.606657
F75	F	1.224598	-0.736171	-0.277117
H76	H	0.718392	-0.202410	-0.220812
H77	H	0.445619	-0.401398	-0.436834
H78	H	0.569620	-0.444373	-0.483490
H79	H	1.037529	-0.719631	-0.450473
F80	F	0.853398	-0.412105	-0.448473
H81	H	1.218974	-0.593719	-0.282230
H82	H	1.249818	-0.926420	-0.253846
H83	H	1.068374	-1.052333	-0.422093
H84	H	1.075235	-0.381569	-0.842523
F85	F	1.031910	-0.577166	-0.455596
H86	H	1.074421	-0.919508	-0.416399
F87	F	1.239522	-0.241645	-1.090494
H88	H	1.206563	-0.813065	-0.293883
H89	H	1.068236	-0.387538	-0.756003
H90	H	1.080787	-0.832992	-0.410441
F91	F	1.014583	-0.433223	-0.947201
F92	F	1.231919	-0.248141	-0.939364
F93	F	1.272903	-0.213296	-0.757797
F94	F	1.022195	-0.426739	-1.098342
H95	H	0.842384	-0.245373	-0.267471
