data_functionalizedCrystal
_audit_creation_method	'MofGen! by Chris Wilmer'
_symmetry_space_group_name_H-M	'P1'
_symmetry_Int_Tables_number	1
_symmetry_cell_setting	triclinic
loop_
_symmetry_equiv_pos_as_xyz
  x,y,z
_cell_length_a	19.077105
_cell_length_b	12.827892
_cell_length_c	19.077174
_cell_angle_alpha	92.275857
_cell_angle_beta	85.483752
_cell_angle_gamma	87.711895
loop_
_atom_site_label
_atom_site_type_symbol
_atom_site_fract_x
_atom_site_fract_y
_atom_site_fract_z
Zn1	Zn	1.093762	-0.507757	-0.441866
Zn2	Zn	1.088965	-0.675196	-0.323985
Zn3	Zn	0.971145	-0.493148	-0.319263
Zn4	Zn	0.975859	-0.675128	-0.437103
O5	O	1.032433	-0.587807	-0.380554
O6	O	1.191776	-0.536110	-0.430198
O7	O	1.069356	-0.644962	-0.224709
O8	O	0.987445	-0.348853	-0.335543
O9	O	1.188252	-0.659127	-0.343592
O10	O	1.077531	-0.359586	-0.425619
O11	O	0.982794	-0.511213	-0.221239
O12	O	0.873120	-0.511146	-0.330925
O13	O	0.995479	-0.659010	-0.536385
O14	O	0.876583	-0.644846	-0.417502
O15	O	1.082102	-0.536044	-0.539884
O16	O	1.073927	-0.821420	-0.338974
O17	O	0.990828	-0.821370	-0.422081
C18	C	0.849272	-0.576404	-0.373184
C19	C	0.770916	-0.571552	-0.370048
C20	C	0.735923	-0.638979	-0.413580
C21	C	0.662299	-0.634406	-0.410637
C22	C	0.623669	-0.562411	-0.364158
C23	C	0.658668	-0.494977	-0.320624
C24	C	0.732290	-0.499545	-0.323571
C25	C	0.403286	-0.541268	-0.350520
C26	C	0.329658	-0.536707	-0.347574
C27	C	0.333295	-0.676136	-0.437588
C28	C	0.406918	-0.680702	-0.440529
C29	C	0.441910	-0.613264	-0.396998
N30	N	0.548414	-0.557738	-0.361146
N31	N	0.517165	-0.617934	-0.400013
C32	C	1.032388	-0.859314	-0.380539
C33	C	1.032434	-0.975471	-0.380559
C34	C	0.987965	-1.142079	-0.335988
C35	C	0.987916	-1.022024	-0.335967
C36	C	1.216308	-0.599256	-0.387953
C37	C	1.294665	-0.604134	-0.391106
C38	C	1.039851	-0.599149	-0.564428
C39	C	1.043013	-0.603982	-0.642785
C40	C	1.032497	-0.315243	-0.380585
C41	C	1.032525	-0.199092	-0.380598
C42	C	0.999432	-0.536618	-0.677790
C43	C	1.002400	-0.541168	-0.751414
C44	C	1.048952	-0.613077	-0.790031
C45	C	1.092535	-0.680449	-0.755021
C46	C	1.089563	-0.675903	-0.681399
C47	C	1.062669	-0.634144	-1.010414
C48	C	1.065639	-0.638682	-1.084041
C49	C	0.975503	-0.499402	-1.080429
C50	C	0.972538	-0.494858	-1.006805
C51	C	1.016118	-0.562233	-0.971801
N52	N	1.051988	-0.617727	-0.865287
N53	N	1.013078	-0.557587	-0.896547
C54	C	1.025083	-0.576437	-0.197397
C55	C	1.022059	-0.571318	-0.119046
H56	H	0.633811	-0.689313	-0.446084
H57	H	1.070588	-1.024474	-0.418751
C58	C	0.616175	-0.415776	-0.269501
C59	C	0.626550	-0.297984	-0.275804
C60	C	0.584057	-0.218782	-0.224680
C61	C	0.531189	-0.257373	-0.167254
C62	C	0.520812	-0.375171	-0.160949
C63	C	0.563305	-0.454372	-0.212072
H64	H	0.665688	-0.269412	-0.318317
H65	H	0.591740	-0.131580	-0.229348
H66	H	0.499734	-0.198743	-0.129409
H67	H	0.481674	-0.403743	-0.118436
H68	H	0.555622	-0.541574	-0.207404
H69	H	1.098148	-0.689016	-0.981922
C70	C	0.778411	-0.718176	-0.464709
C71	C	0.831279	-0.679580	-0.522134
C72	C	0.873765	-0.758776	-0.573266
C73	C	0.863384	-0.876569	-0.566974
C74	C	0.810514	-0.915170	-0.509547
C75	C	0.768028	-0.835974	-0.458415
H76	H	0.838965	-0.592378	-0.526794
H77	H	0.912903	-0.730200	-0.615778
H78	H	0.894835	-0.935194	-0.604826
H79	H	0.802827	-1.002373	-0.504887
H80	H	0.728890	-0.864550	-0.415903
C81	C	1.137502	-0.750010	-0.642893
C82	C	1.104885	-0.827029	-0.591046
C83	C	1.152821	-0.901146	-0.552542
C84	C	1.233373	-0.898245	-0.565886
C85	C	1.265994	-0.821223	-0.617736
C86	C	1.218059	-0.747106	-0.656239
H87	H	1.045251	-0.829179	-0.581165
H88	H	1.128672	-0.958162	-0.514159
H89	H	1.268858	-0.953111	-0.537383
H90	H	1.325628	-0.819073	-0.627616
H91	H	1.242207	-0.690090	-0.694622
H92	H	0.438366	-0.739331	-0.478375
H93	H	0.304796	-0.731039	-0.473030
H94	H	1.130435	-0.739004	-0.786470
H95	H	0.940022	-0.444550	-1.108937
C96	C	1.084017	-1.144974	-0.432176
C97	C	1.081448	-1.164423	-0.512090
C98	C	1.132941	-1.110308	-0.563669
C99	C	1.187004	-1.036745	-0.535335
C100	C	1.189575	-1.017293	-0.455417
C101	C	1.138081	-1.071407	-0.403837
H102	H	1.041425	-1.218881	-0.533069
H103	H	1.131037	-1.124708	-0.622830
H104	H	1.225123	-0.996686	-0.573517
H105	H	1.229597	-0.962834	-0.434438
H106	H	1.139985	-1.057007	-0.344676
C107	C	0.948222	-0.457515	-0.635313
C108	C	0.900281	-0.383420	-0.673822
C109	C	0.849069	-0.304317	-0.631348
C110	C	0.845797	-0.299309	-0.550365
C111	C	0.893740	-0.373406	-0.511853
C112	C	0.944952	-0.452509	-0.554327
H113	H	0.902702	-0.387125	-0.733774
H114	H	0.813578	-0.249465	-0.659858
H115	H	0.807887	-0.240752	-0.518924
H116	H	0.891320	-0.369701	-0.451901
H117	H	0.980443	-0.507360	-0.525817
C118	C	0.954464	-0.467055	-0.789916
C119	C	0.873911	-0.469949	-0.776563
C120	C	0.825974	-0.395830	-0.815063
C121	C	0.858588	-0.318818	-0.866916
C122	C	0.939145	-0.315921	-0.880272
C123	C	0.987082	-0.390040	-0.841772
H124	H	0.849765	-0.526960	-0.738175
H125	H	0.766340	-0.397975	-0.805176
H126	H	0.823102	-0.263951	-0.895416
H127	H	0.963291	-0.258910	-0.918659
H128	H	1.046716	-0.387895	-0.851659
C129	C	0.770787	-0.425375	-0.275687
C130	C	0.760918	-0.306327	-0.281176
C131	C	0.799415	-0.232149	-0.233294
C132	C	0.847781	-0.277019	-0.179923
C133	C	0.857653	-0.396073	-0.174432
C134	C	0.819156	-0.470251	-0.222314
H135	H	0.725113	-0.273106	-0.320686
H136	H	0.792108	-0.144018	-0.237359
H137	H	0.876279	-0.222109	-0.144478
H138	H	0.893458	-0.429294	-0.134922
H139	H	0.826463	-0.558383	-0.218249
H140	H	0.298208	-0.478068	-0.309730
C141	C	0.936375	-0.955824	-0.284368
C142	C	0.936400	-0.835783	-0.284420
C143	C	0.884857	-0.769580	-0.232819
C144	C	0.833289	-0.823419	-0.181166
C145	C	0.833263	-0.943466	-0.181112
C146	C	0.884806	-1.009669	-0.232713
H147	H	0.974575	-0.795923	-0.322658
H148	H	0.884877	-0.680713	-0.232859
H149	H	0.795134	-0.774412	-0.142967
H150	H	0.795088	-0.983327	-0.142873
H151	H	0.884786	-1.098536	-0.232672
C152	C	1.116825	-0.717810	-1.126535
C153	C	1.110600	-0.835619	-1.116173
C154	C	1.161773	-0.914748	-1.158673
C155	C	1.219171	-0.876069	-1.211535
C156	C	1.225398	-0.758254	-1.221899
C157	C	1.174225	-0.679124	-1.179400
H158	H	1.068109	-0.864257	-1.077039
H159	H	1.157163	-1.001963	-1.151000
H160	H	1.257052	-0.934645	-1.242995
H161	H	1.267890	-0.729616	-1.261033
H162	H	1.178836	-0.591910	-1.187073
H163	H	0.431767	-0.486363	-0.315069
H164	H	0.949850	-1.182147	-0.297814
H165	H	0.934628	-0.436304	-0.975367
