data_functionalizedCrystal
_audit_creation_method	'MofGen! by Chris Wilmer'
_symmetry_space_group_name_H-M	'P1'
_symmetry_Int_Tables_number	1
_symmetry_cell_setting	triclinic
loop_
_symmetry_equiv_pos_as_xyz
  x,y,z
_cell_length_a	27.732048
_cell_length_b	27.732048
_cell_length_c	18.366186
_cell_angle_alpha	89.996446
_cell_angle_beta	89.998500
_cell_angle_gamma	97.357346
loop_
_atom_site_label
_atom_site_type_symbol
_atom_site_fract_x
_atom_site_fract_y
_atom_site_fract_z
O1	O	-0.057518	0.640930	-0.060444
O2	O	0.192482	0.890930	0.189556
O3	O	0.442482	1.140930	0.439556
O4	O	0.692482	1.390930	0.689556
O5	O	-0.066263	0.500137	-0.060465
O6	O	0.183737	0.750137	0.189535
O7	O	0.433737	1.000137	0.439535
O8	O	0.683737	1.250137	0.689535
O9	O	0.008506	0.574906	-0.060463
O10	O	0.258506	0.824906	0.189537
O11	O	0.508506	1.074906	0.439537
O12	O	0.758506	1.324906	0.689537
O13	O	-0.132287	0.566161	-0.060445
O14	O	0.117713	0.816161	0.189555
O15	O	0.367713	1.066161	0.439555
O16	O	0.617713	1.316161	0.689555
O17	O	0.008510	0.574894	0.060636
O18	O	0.258510	0.824894	0.310636
O19	O	0.508510	1.074894	0.560636
O20	O	0.758510	1.324894	0.810636
O21	O	-0.066260	0.500124	0.060635
O22	O	0.183740	0.750124	0.310635
O23	O	0.433740	1.000124	0.560635
O24	O	0.683740	1.250124	0.810635
O25	O	-0.057514	0.640918	0.060655
O26	O	0.192486	0.890918	0.310655
O27	O	0.442486	1.140918	0.560655
O28	O	0.692486	1.390918	0.810655
Zn29	Zn	-0.061886	0.570519	0.079872
Zn30	Zn	0.188114	0.820519	0.329872
Zn31	Zn	0.438114	1.070519	0.579872
Zn32	Zn	0.688114	1.320519	0.829872
Zn33	Zn	-0.061891	0.570535	-0.079682
Zn34	Zn	0.188109	0.820535	0.170318
Zn35	Zn	0.438109	1.070535	0.420318
Zn36	Zn	0.688109	1.320535	0.670318
O37	O	-0.132284	0.566148	0.060654
O38	O	0.117716	0.816148	0.310654
O39	O	0.367716	1.066148	0.560654
O40	O	0.617716	1.316148	0.810654
C41	C	-0.066078	0.482124	0.000082
C42	C	0.183922	0.732124	0.250082
C43	C	0.433922	0.982124	0.500082
C44	C	0.683922	1.232124	0.750082
C45	C	-0.065525	0.428469	0.000074
C46	C	0.184475	0.678469	0.250074
C47	C	0.434475	0.928469	0.500074
C48	C	0.684475	1.178469	0.750074
C49	C	-0.106229	0.089654	0.000111
C50	C	0.143771	0.339654	0.250111
C51	C	0.393771	0.589654	0.500111
C52	C	0.643771	0.839654	0.750111
C53	C	-0.104178	-0.112006	0.000117
C54	C	0.145822	0.137994	0.250117
C55	C	0.395822	0.387994	0.500117
C56	C	0.645822	0.637994	0.750117
O57	O	-0.141398	-0.143262	0.000153
O58	O	0.108602	0.106738	0.250153
O59	O	0.358602	0.356738	0.500153
O60	O	0.608602	0.606738	0.750153
N61	N	-0.059843	-0.131130	0.000110
N62	N	0.190157	0.118870	0.250110
N63	N	0.440157	0.368870	0.500110
N64	N	0.690157	0.618870	0.750110
C65	C	-0.016017	-0.099835	0.000106
C66	C	0.233983	0.150165	0.250106
C67	C	0.483983	0.400165	0.500106
C68	C	0.733983	0.650165	0.750106
O69	O	0.021740	-0.120728	0.000108
O70	O	0.271740	0.129272	0.250108
O71	O	0.521740	0.379272	0.500108
O72	O	0.771740	0.629272	0.750108
C73	C	-0.018068	0.101824	0.000105
C74	C	0.231932	0.351824	0.250105
C75	C	0.481932	0.601824	0.500105
C76	C	0.731932	0.851824	0.750105
C77	C	-0.062407	0.120944	0.000105
C78	C	0.187593	0.370944	0.250105
C79	C	0.437593	0.620944	0.500105
C80	C	0.687593	0.870944	0.750105
C81	C	-0.150563	0.108775	0.000111
C82	C	0.099437	0.358775	0.250111
C83	C	0.349437	0.608775	0.500111
C84	C	0.599437	0.858775	0.750111
C85	C	-0.151075	0.159187	0.000106
C86	C	0.098925	0.409187	0.250106
C87	C	0.348925	0.659187	0.500106
C88	C	0.598925	0.909187	0.750106
C89	C	-0.107253	0.190477	0.000100
C90	C	0.142747	0.440477	0.250100
C91	C	0.392747	0.690477	0.500100
C92	C	0.642747	0.940477	0.750100
C93	C	-0.062919	0.171356	0.000099
C94	C	0.187081	0.421356	0.250099
C95	C	0.437081	0.671356	0.500099
C96	C	0.687081	0.921356	0.750099
C97	C	0.025757	0.133117	0.000107
C98	C	0.275757	0.383117	0.250107
C99	C	0.525757	0.633117	0.500107
C100	C	0.775757	0.883117	0.750107
C101	C	0.025240	0.183535	0.000108
C102	C	0.275240	0.433535	0.250108
C103	C	0.525240	0.683535	0.500108
C104	C	0.775240	0.933535	0.750108
C105	C	-0.019098	0.202655	0.000108
C106	C	0.230902	0.452655	0.250108
C107	C	0.480902	0.702655	0.500108
C108	C	0.730902	0.952655	0.750108
C109	C	-0.019609	0.253059	0.000088
C110	C	0.230391	0.503059	0.250088
C111	C	0.480391	0.753059	0.500088
C112	C	0.730391	1.003059	0.750088
N113	N	-0.063944	0.272183	0.000095
N114	N	0.186056	0.522183	0.250095
N115	N	0.436056	0.772183	0.500095
N116	N	0.686056	1.022183	0.750095
C117	C	-0.107766	0.240892	0.000101
C118	C	0.142234	0.490892	0.250101
C119	C	0.392234	0.740892	0.500101
C120	C	0.642234	0.990892	0.750101
C121	C	-0.014943	-0.205709	0.000105
C122	C	0.235057	0.044291	0.250105
C123	C	0.485057	0.294291	0.500105
C124	C	0.735057	0.544291	0.750105
C125	C	-0.014430	-0.256124	0.000104
C126	C	0.235570	-0.006124	0.250104
C127	C	0.485570	0.243876	0.500104
C128	C	0.735570	0.493876	0.750104
C129	C	-0.102591	-0.268291	0.000116
C130	C	0.147409	-0.018291	0.250116
C131	C	0.397409	0.231709	0.500116
C132	C	0.647409	0.481709	0.750116
C133	C	-0.103104	-0.217876	0.000112
C134	C	0.146896	0.032124	0.250112
C135	C	0.396896	0.282124	0.500112
C136	C	0.646896	0.532124	0.750112
C137	C	-0.059278	-0.186585	0.000112
C138	C	0.190722	0.063415	0.250112
C139	C	0.440722	0.313415	0.500112
C140	C	0.690722	0.563415	0.750112
C141	C	-0.108839	0.346761	0.000088
C142	C	0.141161	0.596761	0.250088
C143	C	0.391161	0.846761	0.500088
C144	C	0.641161	1.096761	0.750088
C145	C	-0.109347	0.397178	0.000080
C146	C	0.140653	0.647178	0.250080
C147	C	0.390653	0.897178	0.500080
C148	C	0.640653	1.147178	0.750080
C149	C	-0.021186	0.409341	0.000072
C150	C	0.228814	0.659341	0.250072
C151	C	0.478814	0.909341	0.500072
C152	C	0.728814	1.159341	0.750072
C153	C	-0.020678	0.358929	0.000076
C154	C	0.229322	0.608929	0.250076
C155	C	0.479322	0.858929	0.500076
C156	C	0.729322	1.108929	0.750076
C157	C	-0.064508	0.327639	0.000087
C158	C	0.185492	0.577639	0.250087
C159	C	0.435492	0.827639	0.500087
C160	C	0.685492	1.077639	0.750087
O161	O	0.017592	0.284343	0.000060
O162	O	0.267592	0.534343	0.250060
O163	O	0.517592	0.784343	0.500060
O164	O	0.767592	1.034343	0.750060
O165	O	-0.145518	0.261794	0.000115
O166	O	0.104482	0.511794	0.250115
O167	O	0.354482	0.761794	0.500115
O168	O	0.604482	1.011794	0.750115
C169	C	-0.105716	0.039242	0.000116
C170	C	0.144284	0.289242	0.250116
C171	C	0.394284	0.539242	0.500116
C172	C	0.644284	0.789242	0.750116
C173	C	-0.061382	0.020120	0.000116
C174	C	0.188618	0.270120	0.250116
C175	C	0.438618	0.520120	0.500116
C176	C	0.688618	0.770120	0.750116
C177	C	-0.017560	0.051411	0.000110
C178	C	0.232440	0.301411	0.250110
C179	C	0.482440	0.551411	0.500110
C180	C	0.732440	0.801411	0.750110
C181	C	-0.060869	-0.030294	0.000115
C182	C	0.189131	0.219706	0.250115
C183	C	0.439131	0.469706	0.500115
C184	C	0.689131	0.719706	0.750115
C185	C	-0.104691	-0.061585	0.000121
C186	C	0.145309	0.188415	0.250121
C187	C	0.395309	0.438415	0.500121
C188	C	0.645309	0.688415	0.750121
C189	C	-0.149026	-0.042461	0.000128
C190	C	0.100974	0.207539	0.250128
C191	C	0.350974	0.457539	0.500128
C192	C	0.600974	0.707539	0.750128
C193	C	-0.149539	0.007951	0.000122
C194	C	0.100461	0.257951	0.250122
C195	C	0.350461	0.507951	0.500122
C196	C	0.600461	0.757951	0.750122
C197	C	0.026775	0.032287	0.000103
C198	C	0.276775	0.282287	0.250103
C199	C	0.526775	0.532287	0.500103
C200	C	0.776775	0.782287	0.750103
C201	C	0.027284	-0.018125	0.000108
C202	C	0.277284	0.231875	0.250108
C203	C	0.527284	0.481875	0.500108
C204	C	0.777284	0.731875	0.750108
C205	C	-0.016538	-0.049416	0.000114
C206	C	0.233462	0.200584	0.250114
C207	C	0.483462	0.450584	0.500114
C208	C	0.733462	0.700584	0.750114
C209	C	-0.150292	0.566338	0.000107
C210	C	0.099708	0.816338	0.250107
C211	C	0.349708	1.066338	0.500107
C212	C	0.599708	1.316338	0.750107
C213	C	-0.203947	0.566891	0.000114
C214	C	0.046053	0.816891	0.250114
C215	C	0.296053	1.066891	0.500114
C216	C	0.546053	1.316891	0.750114
C217	C	-0.542762	0.526187	0.000073
C218	C	-0.292762	0.776187	0.250073
C219	C	-0.042762	1.026187	0.500073
C220	C	0.207238	1.276187	0.750073
C221	C	-0.744422	0.528238	0.000065
C222	C	-0.494422	0.778238	0.250065
C223	C	-0.244422	1.028238	0.500065
C224	C	0.005578	1.278238	0.750065
O225	O	-0.775677	0.491017	0.000027
O226	O	-0.525677	0.741017	0.250027
O227	O	-0.275677	0.991017	0.500027
O228	O	-0.025677	1.241017	0.750027
N229	N	-0.763546	0.572573	0.000072
N230	N	-0.513546	0.822573	0.250072
N231	N	-0.263546	1.072573	0.500072
N232	N	-0.013546	1.322573	0.750072
C233	C	-0.732251	0.616399	0.000077
C234	C	-0.482251	0.866399	0.250077
C235	C	-0.232251	1.116399	0.500077
C236	C	0.017749	1.366399	0.750077
O237	O	-0.753144	0.654156	0.000075
O238	O	-0.503144	0.904156	0.250075
O239	O	-0.253144	1.154156	0.500075
O240	O	-0.003144	1.404156	0.750075
C241	C	-0.530592	0.614347	0.000080
C242	C	-0.280592	0.864347	0.250080
C243	C	-0.030592	1.114347	0.500080
C244	C	0.219408	1.364347	0.750080
C245	C	-0.511472	0.570009	0.000080
C246	C	-0.261472	0.820009	0.250080
C247	C	-0.011472	1.070009	0.500080
C248	C	0.238528	1.320009	0.750080
C249	C	-0.523641	0.481853	0.000072
C250	C	-0.273641	0.731853	0.250072
C251	C	-0.023641	0.981853	0.500072
C252	C	0.226359	1.231853	0.750072
C253	C	-0.473229	0.481340	0.000078
C254	C	-0.223229	0.731340	0.250078
C255	C	0.026771	0.981340	0.500078
C256	C	0.276771	1.231340	0.750078
C257	C	-0.441938	0.525162	0.000085
C258	C	-0.191938	0.775162	0.250085
C259	C	0.058062	1.025162	0.500085
C260	C	0.308062	1.275162	0.750085
C261	C	-0.461060	0.569497	0.000086
C262	C	-0.211060	0.819497	0.250086
C263	C	0.038940	1.069497	0.500086
C264	C	0.288940	1.319497	0.750086
C265	C	-0.499299	0.658172	0.000080
C266	C	-0.249299	0.908172	0.250080
C267	C	0.000701	1.158172	0.500080
C268	C	0.250701	1.408172	0.750080
C269	C	-0.448881	0.657656	0.000078
C270	C	-0.198881	0.907656	0.250078
C271	C	0.051119	1.157656	0.500078
C272	C	0.301119	1.407656	0.750078
C273	C	-0.429761	0.613317	0.000078
C274	C	-0.179761	0.863317	0.250078
C275	C	0.070239	1.113317	0.500078
C276	C	0.320239	1.363317	0.750078
C277	C	-0.379357	0.612807	0.000099
C278	C	-0.129357	0.862807	0.250099
C279	C	0.120643	1.112807	0.500099
C280	C	0.370643	1.362807	0.750099
N281	N	-0.360233	0.568472	0.000092
N282	N	-0.110233	0.818472	0.250092
N283	N	0.139767	1.068472	0.500092
N284	N	0.389767	1.318472	0.750092
C285	C	-0.391524	0.524649	0.000085
C286	C	-0.141524	0.774649	0.250085
C287	C	0.108476	1.024649	0.500085
C288	C	0.358476	1.274649	0.750085
C289	C	-0.838125	0.617473	0.000077
C290	C	-0.588125	0.867473	0.250077
C291	C	-0.338125	1.117473	0.500077
C292	C	-0.088125	1.367473	0.750077
C293	C	-0.888539	0.617986	0.000077
C294	C	-0.638539	0.867986	0.250077
C295	C	-0.388539	1.117986	0.500077
C296	C	-0.138539	1.367986	0.750077
C297	C	-0.900707	0.529825	0.000064
C298	C	-0.650707	0.779825	0.250064
C299	C	-0.400707	1.029825	0.500064
C300	C	-0.150707	1.279825	0.750064
C301	C	-0.850291	0.529312	0.000068
C302	C	-0.600291	0.779312	0.250068
C303	C	-0.350291	1.029312	0.500068
C304	C	-0.100291	1.279312	0.750068
C305	C	-0.819001	0.573138	0.000069
C306	C	-0.569001	0.823138	0.250069
C307	C	-0.319001	1.073138	0.500069
C308	C	-0.069001	1.323138	0.750069
C309	C	-0.285655	0.523577	0.000098
C310	C	-0.035655	0.773577	0.250098
C311	C	0.214345	1.023577	0.500098
C312	C	0.464345	1.273577	0.750098
C313	C	-0.235238	0.523069	0.000107
C314	C	0.014762	0.773069	0.250107
C315	C	0.264762	1.023069	0.500107
C316	C	0.514762	1.273069	0.750107
C317	C	-0.223075	0.611229	0.000117
C318	C	0.026925	0.861229	0.250117
C319	C	0.276925	1.111229	0.500117
C320	C	0.526925	1.361229	0.750117
C321	C	-0.273487	0.611738	0.000112
C322	C	-0.023487	0.861738	0.250112
C323	C	0.226513	1.111738	0.500112
C324	C	0.476513	1.361738	0.750112
C325	C	-0.304777	0.567908	0.000100
C326	C	-0.054777	0.817908	0.250100
C327	C	0.195223	1.067908	0.500100
C328	C	0.445223	1.317908	0.750100
O329	O	-0.348073	0.650008	0.000128
O330	O	-0.098073	0.900008	0.250128
O331	O	0.151927	1.150008	0.500128
O332	O	0.401927	1.400008	0.750128
O333	O	-0.370621	0.486898	0.000070
O334	O	-0.120621	0.736898	0.250070
O335	O	0.129379	0.986898	0.500070
O336	O	0.379379	1.236898	0.750070
C337	C	-0.593174	0.526699	0.000067
C338	C	-0.343174	0.776699	0.250067
C339	C	-0.093174	1.026699	0.500067
C340	C	0.156826	1.276699	0.750067
C341	C	-0.612295	0.571034	0.000068
C342	C	-0.362295	0.821034	0.250068
C343	C	-0.112295	1.071034	0.500068
C344	C	0.137705	1.321034	0.750068
C345	C	-0.581005	0.614856	0.000075
C346	C	-0.331005	0.864856	0.250075
C347	C	-0.081005	1.114856	0.500075
C348	C	0.168995	1.364856	0.750075
C349	C	-0.662710	0.571547	0.000068
C350	C	-0.412710	0.821547	0.250068
C351	C	-0.162710	1.071547	0.500068
C352	C	0.087290	1.321547	0.750068
C353	C	-0.694001	0.527725	0.000061
C354	C	-0.444001	0.777725	0.250061
C355	C	-0.194001	1.027725	0.500061
C356	C	0.055999	1.277725	0.750061
C357	C	-0.674877	0.483389	0.000054
C358	C	-0.424877	0.733389	0.250054
C359	C	-0.174877	0.983389	0.500054
C360	C	0.075123	1.233389	0.750054
C361	C	-0.624465	0.482877	0.000060
C362	C	-0.374465	0.732877	0.250060
C363	C	-0.124465	0.982877	0.500060
C364	C	0.125535	1.232877	0.750060
C365	C	-0.600129	0.659191	0.000082
C366	C	-0.350129	0.909191	0.250082
C367	C	-0.100129	1.159191	0.500082
C368	C	0.149871	1.409191	0.750082
C369	C	-0.650541	0.659700	0.000077
C370	C	-0.400541	0.909700	0.250077
C371	C	-0.150541	1.159700	0.500077
C372	C	0.099459	1.409700	0.750077
C373	C	-0.681832	0.615878	0.000070
C374	C	-0.431832	0.865878	0.250070
C375	C	-0.181832	1.115878	0.500070
C376	C	0.068168	1.365878	0.750070
C377	C	0.026515	0.574716	0.000082
C378	C	0.276515	0.824716	0.250082
C379	C	0.526515	1.074716	0.500082
C380	C	0.776515	1.324716	0.750082
C381	C	0.080170	0.574164	0.000070
C382	C	0.330170	0.824164	0.250070
C383	C	0.580170	1.074164	0.500070
C384	C	0.830170	1.324164	0.750070
C385	C	-0.057699	0.658931	0.000107
C386	C	0.192301	0.908931	0.250107
C387	C	0.442301	1.158931	0.500107
C388	C	0.692301	1.408931	0.750107
C389	C	-0.058252	0.712586	0.000110
C390	C	0.191748	0.962586	0.250110
C391	C	0.441748	1.212586	0.500110
C392	C	0.691748	1.462586	0.750110
N393	N	-0.061883	0.570511	0.188763
N394	N	0.188117	0.820511	0.438763
N395	N	0.438117	1.070511	0.688763
N396	N	0.688117	1.320511	0.938763
N397	N	-0.061891	0.570547	-0.188573
N398	N	0.188109	0.820547	0.061427
N399	N	0.438109	1.070547	0.311427
N400	N	0.688109	1.320547	0.561427
C401	C	-0.028791	0.603630	0.226864
C402	C	0.221209	0.853630	0.476864
C403	C	0.471209	1.103630	0.726864
C404	C	0.721209	1.353630	0.976864
C405	C	-0.028789	0.603633	0.303092
C406	C	0.221211	0.853633	0.553092
C407	C	0.471211	1.103633	0.803092
C408	C	0.721211	1.353633	1.053092
C409	C	-0.061887	0.570522	0.341216
C410	C	0.188113	0.820522	0.591216
C411	C	0.438113	1.070522	0.841216
C412	C	0.688113	1.320522	1.091216
C413	C	-0.094981	0.537397	0.303106
C414	C	0.155019	0.787397	0.553106
C415	C	0.405019	1.037397	0.803106
C416	C	0.655019	1.287397	1.053106
C417	C	-0.094979	0.537392	0.226880
C418	C	0.155021	0.787392	0.476880
C419	C	0.405021	1.037392	0.726880
C420	C	0.655021	1.287392	0.976880
C421	C	-0.105958	0.563860	0.461981
C422	C	0.144042	0.813860	0.711981
C423	C	0.394042	1.063860	0.961981
C424	C	0.644042	1.313860	1.211981
C425	C	-0.105961	0.563869	0.538206
C426	C	0.144039	0.813869	0.788206
C427	C	0.394039	1.063869	1.038206
C428	C	0.644039	1.313869	1.288206
C429	C	-0.061893	0.570536	0.576324
C430	C	0.188107	0.820536	0.826324
C431	C	0.438107	1.070536	1.076324
C432	C	0.688107	1.320536	1.326324
C433	C	-0.017820	0.577204	0.538206
C434	C	0.232180	0.827204	0.788206
C435	C	0.482180	1.077204	1.038206
C436	C	0.732180	1.327204	1.288206
C437	C	-0.017818	0.577199	0.461980
C438	C	0.232182	0.827199	0.711980
C439	C	0.482182	1.077199	0.961980
C440	C	0.732182	1.327199	1.211980
C441	C	-0.061892	0.570524	0.423871
C442	C	0.188108	0.820524	0.673871
C443	C	0.438108	1.070524	0.923871
C444	C	0.688108	1.320524	1.173871
C445	C	-0.028796	0.603659	0.697079
C446	C	0.221204	0.853659	0.947079
C447	C	0.471204	1.103659	1.197079
C448	C	0.721204	1.353659	1.447079
C449	C	-0.028793	0.603659	0.773309
C450	C	0.221207	0.853659	1.023309
C451	C	0.471207	1.103659	1.273309
C452	C	0.721207	1.353659	1.523309
C453	C	-0.094989	0.537426	0.773321
C454	C	0.155011	0.787426	1.023321
C455	C	0.405011	1.037426	1.273321
C456	C	0.655011	1.287426	1.523321
C457	C	-0.094988	0.537424	0.697093
C458	C	0.155012	0.787424	0.947093
C459	C	0.405012	1.037424	1.197093
C460	C	0.655012	1.287424	1.447093
C461	C	-0.061892	0.570543	0.658977
C462	C	0.188108	0.820543	0.908977
C463	C	0.438108	1.070543	1.158977
C464	C	0.688108	1.320543	1.408977
H465	H	0.061861	0.117558	0.000108
H466	H	0.311861	0.367558	0.250108
H467	H	0.561861	0.617558	0.500108
H468	H	0.811861	0.867558	0.750108
H469	H	-0.185643	0.023514	0.000123
H470	H	0.064357	0.273514	0.250123
H471	H	0.314357	0.523514	0.500123
H472	H	0.564357	0.773514	0.750123
Cl473	Cl	-0.204116	-0.081807	0.000132
Cl474	Cl	0.045884	0.168193	0.250132
Cl475	Cl	0.295884	0.418193	0.500132
Cl476	Cl	0.545884	0.668193	0.750132
Cl477	Cl	-0.205662	0.069446	0.000117
Cl478	Cl	0.044338	0.319446	0.250117
Cl479	Cl	0.294338	0.569446	0.500117
Cl480	Cl	0.544338	0.819446	0.750117
H481	H	-0.197589	0.646908	0.000126
H482	H	0.052411	0.896908	0.250126
H483	H	0.302411	1.146908	0.500126
H484	H	0.552411	1.396908	0.750126
Cl485	Cl	0.083029	-0.042156	0.000099
Cl486	Cl	0.333029	0.207844	0.250099
Cl487	Cl	0.583029	0.457844	0.500099
Cl488	Cl	0.833029	0.707844	0.750099
Cl489	Cl	-0.523323	0.713915	0.000062
Cl490	Cl	-0.273323	0.963915	0.250062
Cl491	Cl	-0.023323	1.213915	0.500062
Cl492	Cl	0.226677	1.463915	0.750062
H493	H	-0.141846	0.558422	0.430953
H494	H	0.108154	0.808422	0.680953
H495	H	0.358154	1.058422	0.930953
H496	H	0.608154	1.308422	1.180953
H497	H	-0.001843	0.630627	0.804331
H498	H	0.248157	0.880627	1.054331
H499	H	0.498157	1.130627	1.304331
H500	H	0.748157	1.380627	1.554331
H501	H	-0.926193	0.494143	0.000061
H502	H	-0.676193	0.744143	0.250061
H503	H	-0.426193	0.994143	0.500061
H504	H	-0.176193	1.244143	0.750061
Cl505	Cl	-0.158845	-0.193844	0.000114
Cl506	Cl	0.091155	0.056156	0.250114
Cl507	Cl	0.341155	0.306156	0.500114
Cl508	Cl	0.591155	0.556156	0.750114
Cl509	Cl	-0.674571	0.715445	0.000076
Cl510	Cl	-0.424571	0.965445	0.250076
Cl511	Cl	-0.174571	1.215445	0.500076
Cl512	Cl	0.075429	1.465445	0.750076
H513	H	-0.121929	0.510437	0.334150
H514	H	0.128071	0.760437	0.584150
H515	H	0.378071	1.010437	0.834150
H516	H	0.628071	1.260437	1.084150
Cl517	Cl	-0.165091	0.421212	0.000077
Cl518	Cl	0.084909	0.671212	0.250077
Cl519	Cl	0.334909	0.921212	0.500077
Cl520	Cl	0.584909	1.171212	0.750077
H521	H	-0.121927	0.510422	0.195857
H522	H	0.128073	0.760422	0.445857
H523	H	0.378073	1.010422	0.695857
H524	H	0.628073	1.260422	0.945857
H525	H	-0.001841	0.630596	0.195832
H526	H	0.248159	0.880596	0.445832
H527	H	0.498159	1.130596	0.695832
H528	H	0.748159	1.380596	0.945832
H529	H	-0.608902	0.446773	0.000061
H530	H	-0.358902	0.696773	0.250061
H531	H	-0.108902	0.946773	0.500061
H532	H	0.141098	1.196773	0.750061
Cl533	Cl	-0.826260	0.473571	0.000066
Cl534	Cl	-0.576260	0.723571	0.250066
Cl535	Cl	-0.326260	0.973571	0.500066
Cl536	Cl	-0.076260	1.223571	0.750066
H537	H	0.062462	0.057760	0.000100
H538	H	0.312462	0.307760	0.250100
H539	H	0.562462	0.557760	0.500100
H540	H	0.812462	0.807760	0.750100
Cl541	Cl	0.033901	0.448687	0.000068
Cl542	Cl	0.283901	0.698687	0.250068
Cl543	Cl	0.533901	0.948687	0.500068
Cl544	Cl	0.783901	1.198687	0.750068
H545	H	-0.904103	0.654090	0.000089
H546	H	-0.654103	0.904090	0.250089
H547	H	-0.404103	1.154090	0.500089
H548	H	-0.154103	1.404090	0.750089
Cl549	Cl	0.035062	0.334890	0.000080
Cl550	Cl	0.285062	0.584890	0.250080
Cl551	Cl	0.535062	0.834890	0.500080
Cl552	Cl	0.785062	1.084890	0.750080
Cl553	Cl	-0.136594	0.495789	0.649190
Cl554	Cl	0.113406	0.745789	0.899190
Cl555	Cl	0.363406	0.995789	1.149190
Cl556	Cl	0.613406	1.245789	1.399190
Cl557	Cl	-0.157681	-0.307637	0.000127
Cl558	Cl	0.092319	-0.057637	0.250127
Cl559	Cl	0.342319	0.192363	0.500127
Cl560	Cl	0.592319	0.442363	0.750127
H561	H	0.021674	-0.271687	0.000093
H562	H	0.271674	-0.021687	0.250093
H563	H	0.521674	0.228313	0.500093
H564	H	0.771674	0.478313	0.750093
H565	H	-0.121937	0.510464	0.804361
H566	H	0.128063	0.760464	1.054361
H567	H	0.378063	1.010464	1.304361
H568	H	0.628063	1.260464	1.554361
H569	H	-0.700363	0.447708	0.000053
H570	H	-0.450363	0.697708	0.250053
H571	H	-0.200363	0.947708	0.500053
H572	H	0.049637	1.197708	0.750053
Cl573	Cl	-0.560799	0.714288	0.000094
Cl574	Cl	-0.310799	0.964288	0.250094
Cl575	Cl	-0.060799	1.214288	0.500094
Cl576	Cl	0.189201	1.464288	0.750094
Cl577	Cl	-0.562970	0.426754	0.000062
Cl578	Cl	-0.312970	0.676754	0.250062
Cl579	Cl	-0.062970	0.926754	0.500062
Cl580	Cl	0.187030	1.176754	0.750062
Cl581	Cl	-0.211204	0.467325	0.000108
Cl582	Cl	0.038796	0.717325	0.250108
Cl583	Cl	0.288796	0.967325	0.500108
Cl584	Cl	0.538796	1.217325	0.750108
H585	H	0.020747	-0.180236	0.000105
H586	H	0.270747	0.069764	0.250105
H587	H	0.520747	0.319764	0.500105
H588	H	0.770747	0.569764	0.750105
H589	H	-0.001840	0.630603	0.334119
H590	H	0.248160	0.880603	0.584119
H591	H	0.498160	1.130603	0.834119
H592	H	0.748160	1.380603	1.084119
H593	H	-0.423407	0.693344	0.000075
H594	H	-0.173407	0.943344	0.250075
H595	H	0.076593	1.193344	0.500075
H596	H	0.326593	1.443344	0.750075
Cl597	Cl	-0.798795	0.672573	0.000083
Cl598	Cl	-0.548795	0.922573	0.250083
Cl599	Cl	-0.298795	1.172573	0.500083
Cl600	Cl	-0.048795	1.422573	0.750083
Cl601	Cl	-0.163940	0.307434	0.000101
Cl602	Cl	0.086060	0.557434	0.250101
Cl603	Cl	0.336060	0.807434	0.500101
Cl604	Cl	0.586060	1.057434	0.750101
Cl605	Cl	-0.449199	0.425598	0.000069
Cl606	Cl	-0.199199	0.675598	0.250069
Cl607	Cl	0.050801	0.925598	0.500069
Cl608	Cl	0.300801	1.175598	0.750069
H609	H	0.018065	0.582633	0.569240
H610	H	0.268065	0.832633	0.819240
H611	H	0.518065	1.082633	1.069240
H612	H	0.768065	1.332633	1.319240
Cl613	Cl	-0.206818	0.183216	0.000110
Cl614	Cl	0.043182	0.433216	0.250110
Cl615	Cl	0.293182	0.683216	0.500110
Cl616	Cl	0.543182	0.933216	0.750110
Cl617	Cl	0.037585	0.585576	0.414064
Cl618	Cl	0.287585	0.835576	0.664064
Cl619	Cl	0.537585	1.085576	0.914064
Cl620	Cl	0.787585	1.335576	1.164064
H621	H	-0.311125	0.487886	0.000088
H622	H	-0.061125	0.737886	0.250088
H623	H	0.188875	0.987886	0.500088
H624	H	0.438875	1.237886	0.750088
Cl625	Cl	0.080338	0.222868	0.000110
Cl626	Cl	0.330338	0.472868	0.250110
Cl627	Cl	0.580338	0.722868	0.500110
Cl628	Cl	0.830338	0.972868	0.750110
H629	H	-0.141847	0.558442	0.569235
H630	H	0.108153	0.808442	0.819235
H631	H	0.358153	1.058442	1.069235
H632	H	0.608153	1.308442	1.319235
H633	H	-0.289056	0.647842	0.000122
H634	H	-0.039056	0.897842	0.250122
H635	H	0.210944	1.147842	0.500122
H636	H	0.460944	1.397842	0.750122
Cl637	Cl	0.012813	0.645292	0.649161
Cl638	Cl	0.262813	0.895292	0.899161
Cl639	Cl	0.512813	1.145292	1.149161
Cl640	Cl	0.762813	1.395292	1.399161
