data_functionalizedCrystal
_audit_creation_method	'MofGen! by Chris Wilmer'
_symmetry_space_group_name_H-M	'P1'
_symmetry_Int_Tables_number	1
_symmetry_cell_setting	triclinic
loop_
_symmetry_equiv_pos_as_xyz
  x,y,z
_cell_length_a	15.297327
_cell_length_b	21.395364
_cell_length_c	21.395355
_cell_angle_alpha	90.025298
_cell_angle_beta	99.659679
_cell_angle_gamma	80.276484
loop_
_atom_site_label
_atom_site_type_symbol
_atom_site_fract_x
_atom_site_fract_y
_atom_site_fract_z
Zn1	Zn	-0.358899	-0.914745	-0.397393
Zn2	Zn	-0.509755	-0.896525	-0.310740
Zn3	Zn	-0.358943	-0.809955	-0.292634
Zn4	Zn	-0.509776	-0.791805	-0.415481
O5	O	-0.434343	-0.853258	-0.354062
O6	O	-0.378883	-1.000009	-0.385906
O7	O	-0.489760	-0.885013	-0.220661
O8	O	-0.232679	-0.839076	-0.291383
O9	O	-0.489717	-0.986624	-0.322242
O10	O	-0.232647	-0.916065	-0.368349
O11	O	-0.378959	-0.821410	-0.207359
O12	O	-0.378979	-0.719866	-0.308922
O13	O	-0.489752	-0.808142	-0.500758
O14	O	-0.489795	-0.706531	-0.399178
O15	O	-0.378903	-0.898466	-0.487469
O16	O	-0.636016	-0.867413	-0.339781
O17	O	-0.636031	-0.790475	-0.416734
C18	C	-0.434395	-0.690464	-0.354048
C19	C	-0.434438	-0.620817	-0.354060
C20	C	-0.376823	-0.595085	-0.387283
C21	C	-0.376802	-0.529652	-0.387282
C22	C	-0.434412	-0.489952	-0.354067
C23	C	-0.492031	-0.515692	-0.320836
C24	C	-0.492044	-0.581124	-0.320833
C25	C	-0.515669	-0.376466	-0.358790
C26	C	-0.515658	-0.311035	-0.358798
C27	C	-0.434371	-0.288136	-0.354073
C28	C	-0.353094	-0.330678	-0.349353
C29	C	-0.353107	-0.396110	-0.349350
C30	C	-0.434404	-0.419001	-0.354066
C31	C	-0.376728	-0.191455	-0.387296
C32	C	-0.376706	-0.126021	-0.387291
C33	C	-0.491943	-0.112061	-0.320850
C34	C	-0.491958	-0.177494	-0.320851
C35	C	-0.434351	-0.217187	-0.354078
C36	C	-0.668761	-0.825015	-0.382199
C37	C	-0.769046	-0.812989	-0.394257
C38	C	-1.051575	-0.939461	-0.268094
C39	C	-0.957353	-0.950759	-0.256762
C40	C	-0.910271	-0.916318	-0.291135
C41	C	-0.957422	-0.870576	-0.336842
C42	C	-1.051654	-0.859274	-0.348172
C43	C	-0.910350	-0.836131	-0.371212
C44	C	-0.957500	-0.790389	-0.416920
C45	C	-1.051723	-0.779089	-0.428248
C46	C	-1.098804	-0.813530	-0.393875
C47	C	-0.816118	-0.847433	-0.359882
C48	C	-0.816196	-0.767246	-0.439960
C49	C	-0.910419	-0.755948	-0.451293
C50	C	-0.199011	-0.881628	-0.325829
C51	C	-0.098726	-0.893718	-0.313797
C52	C	-0.434325	-0.853312	-0.517483
C53	C	-0.434317	-0.853335	-0.587123
C54	C	-0.434304	-0.016686	-0.354074
C55	C	-0.434315	-0.086325	-0.354074
C56	C	-0.376596	-0.900365	-0.612917
C57	C	-0.376557	-0.900369	-0.678348
C58	C	-0.434256	-0.853347	-0.717984
C59	C	-0.491981	-0.806309	-0.692183
C60	C	-0.492012	-0.806302	-0.626752
C61	C	-0.515497	-0.838612	-0.831410
C62	C	-0.515468	-0.838622	-0.896840
C63	C	-0.434161	-0.853362	-0.919794
C64	C	-0.352880	-0.868106	-0.877310
C65	C	-0.352911	-0.868100	-0.811879
C66	C	-0.434229	-0.853348	-0.788933
C67	C	-0.376392	-0.900400	-1.016535
C68	C	-0.376352	-0.900399	-1.081967
C69	C	-0.491784	-0.806341	-1.095801
C70	C	-0.491816	-0.806339	-1.030369
C71	C	-0.434122	-0.853372	-0.990740
C72	C	-0.434297	-0.853247	-0.191269
C73	C	-0.434050	-0.853376	-0.121598
H74	H	-0.329816	-0.223775	-0.414347
N75	N	-0.554111	-0.205256	-0.285029
H76	H	-0.517388	-0.236826	-0.251626
H77	H	-0.590595	-0.170143	-0.264027
N78	N	-0.554258	-0.755568	-0.598926
H79	H	-0.590800	-0.725775	-0.633960
H80	H	-0.596023	-0.776028	-0.576802
N81	N	-0.314175	-0.951123	-0.973782
H82	H	-0.249702	-0.949169	-0.977408
H83	H	-0.323046	-0.943950	-0.928442
H84	H	-0.948822	-0.718704	-0.488508
N85	N	-0.314097	-0.951125	-1.109797
H86	H	-0.272278	-0.930703	-1.131908
H87	H	-0.277613	-0.980904	-1.074735
H88	H	-0.286928	-0.430745	-0.345504
H89	H	-0.777864	-0.739199	-0.467949
N90	N	-0.603318	-0.265157	-0.363886
H91	H	-0.602007	-0.238146	-0.325124
H92	H	-0.611813	-0.237039	-0.403096
H93	H	-0.538754	-0.768050	-1.128071
N94	N	-0.765264	-0.896768	-0.310592
H95	H	-0.781708	-0.885088	-0.267794
H96	H	-0.781608	-0.939552	-0.322385
H97	H	-0.329615	-0.938662	-0.580655
N98	N	-0.906500	-1.000098	-0.207475
H99	H	-0.922943	-0.988422	-0.164675
H100	H	-0.922846	-1.042880	-0.219272
N101	N	-0.314683	-0.637889	-0.423117
H102	H	-0.250197	-0.634281	-0.405717
H103	H	-0.323501	-0.683228	-0.418067
N104	N	-0.314657	-0.501888	-0.423116
H105	H	-0.278166	-0.536962	-0.444163
H106	H	-0.351448	-0.470310	-0.456483
H107	H	-0.538825	-0.768045	-1.009369
N108	N	-0.603130	-0.822726	-0.942659
H109	H	-0.654641	-0.813379	-0.918190
H110	H	-0.601826	-0.784280	-0.969637
H111	H	-0.286902	-0.312036	-0.345506
H112	H	-0.329549	-0.938666	-0.699354
N113	N	-1.102353	-0.976594	-0.231014
H114	H	-1.169199	-0.962489	-0.245124
H115	H	-1.085816	-1.023324	-0.238809
N116	N	-0.265253	-0.884002	-0.766057
H117	H	-0.213736	-0.893343	-0.790522
H118	H	-0.256900	-0.846833	-0.737888
H119	H	-0.538957	-0.768022	-0.724458
N120	N	-0.314544	-0.098266	-0.423112
H121	H	-0.278054	-0.133342	-0.444157
H122	H	-0.351318	-0.066682	-0.456481
H123	H	-0.538850	-0.079738	-0.293805
H124	H	-0.581867	-0.395103	-0.362638
H125	H	-0.833551	-0.925519	-0.281904
H126	H	-0.538937	-0.483364	-0.293792
N127	N	-1.200433	-0.801344	-0.406100
H128	H	-1.223099	-0.830107	-0.377391
H129	H	-1.223137	-0.755625	-0.397292
H130	H	-0.538963	-0.602074	-0.293778
N131	N	-0.603200	-0.822718	-0.806658
H132	H	-0.611652	-0.859869	-0.780541
H133	H	-0.601959	-0.784236	-0.779379
N134	N	-1.102571	-0.729745	-0.477538
H135	H	-1.086130	-0.741425	-0.520338
H136	H	-1.169391	-0.727828	-0.479446
N137	N	-0.265176	-0.884012	-0.902055
H138	H	-0.277486	-0.881777	-0.949951
H139	H	-0.224853	-0.852642	-0.885756
