data_functionalizedCrystal
_audit_creation_method	'MofGen! by Chris Wilmer'
_symmetry_space_group_name_H-M	'P1'
_symmetry_Int_Tables_number	1
_symmetry_cell_setting	triclinic
loop_
_symmetry_equiv_pos_as_xyz
  x,y,z
_cell_length_a	14.560432
_cell_length_b	12.477989
_cell_length_c	12.478026
_cell_angle_alpha	84.724577
_cell_angle_beta	57.041056
_cell_angle_gamma	64.370318
loop_
_atom_site_label
_atom_site_type_symbol
_atom_site_fract_x
_atom_site_fract_y
_atom_site_fract_z
Zr1	Zr	0.980203	-0.224036	1.051532
O2	O	1.155336	-0.371196	0.889327
O3	O	0.793651	-0.178928	1.101258
O4	O	0.961535	-0.390854	1.115154
O5	O	1.006160	0.007905	0.864468
O6	O	0.959800	-0.406356	1.293290
O7	O	0.987451	-0.159270	0.875430
O8	O	0.659486	-0.027259	1.268432
O9	O	1.306474	-0.371192	0.889326
O10	O	0.873318	-0.171254	1.255405
O11	O	0.888574	-0.034924	1.114283
O12	O	1.086236	-0.284440	1.130645
O13	O	1.101493	-0.148110	0.989522
Zr14	Zr	1.007274	0.017863	1.318155
Zr15	Zr	0.977437	-0.248761	1.335639
Zr16	Zr	1.010041	0.042588	1.034049
Zr17	Zr	1.221252	-0.224030	1.051531
Zr18	Zr	0.766226	0.017857	1.318156
O19	O	1.193827	-0.027245	1.268429
O20	O	1.151402	-0.406351	1.293289
O21	O	1.197761	0.007910	0.864467
O22	O	0.832142	0.165023	1.480360
O23	O	0.789717	-0.214083	1.505220
O24	O	0.836076	0.200178	1.076398
O25	O	0.981318	-0.214078	1.505219
O26	O	1.025942	0.184681	1.254533
O27	O	1.027677	0.200183	1.076397
O28	O	1.000026	-0.046903	1.494257
O29	O	1.304275	-0.390845	1.115153
O30	O	0.683203	0.184672	1.254534
O31	O	0.681003	0.165019	1.480361
O32	O	0.657286	-0.046912	1.494258
O33	O	1.330191	-0.159261	0.875429
O34	O	1.327992	-0.178914	1.101255
O35	O	0.901241	0.078267	1.239043
O36	O	0.885985	-0.058063	1.380165
O37	O	1.098903	-0.171249	1.255404
O38	O	1.114160	-0.034919	1.114282
C39	C	0.692224	-0.103094	1.184845
C40	C	0.589893	-0.103097	1.184845
C41	C	0.997200	-0.072160	0.829470
C42	C	0.998374	-0.061663	0.708860
C43	C	1.031061	0.230420	1.162974
C44	C	1.043728	0.343609	1.155552
C45	C	0.573957	-0.245438	1.332166
C46	C	0.517918	-0.316610	1.405820
C47	C	0.421769	-0.316607	1.405816
C48	C	0.381655	-0.245422	1.332153
C49	C	0.437695	-0.174250	1.258500
C50	C	0.533847	-0.174264	1.258508
C51	C	0.453624	-0.031904	1.111188
C52	C	0.549779	-0.031912	1.111183
C53	C	0.413510	0.039281	1.037525
C54	C	0.469556	0.110447	0.963862
C55	C	0.565711	0.110440	0.963868
C56	C	0.605818	0.039259	1.037529
C57	C	1.295253	-0.103079	1.184842
C58	C	1.397585	-0.103076	1.184842
C59	C	0.956417	-0.436593	1.206713
C60	C	0.943750	-0.549782	1.214136
C61	C	0.990278	-0.134013	1.540217
C62	C	0.989103	-0.144510	1.660828
C63	C	0.688763	-0.134021	1.540219
C64	C	0.585257	-0.144520	1.660830
C65	C	0.729546	0.230412	1.162975
C66	C	0.639882	0.343599	1.155553
C67	C	0.726085	0.199485	1.518349
C68	C	0.635246	0.302175	1.631537
C69	C	1.261392	-0.405658	0.851338
C70	C	1.352231	-0.508348	0.738150
C71	C	1.298714	-0.072152	0.829469
C72	C	1.402220	-0.061653	0.708858
C73	C	1.257931	-0.436585	1.206712
C74	C	1.347596	-0.549772	1.214134
C75	C	0.604388	0.455848	1.217190
C76	C	0.520153	0.562209	1.210211
C77	C	0.471407	0.556318	1.141602
C78	C	0.506909	0.444057	1.079957
C79	C	0.591149	0.337699	1.086929
C80	C	0.584623	0.279236	1.758368
C81	C	0.499282	0.375713	1.864732
C82	C	0.464559	0.495129	1.844263
C83	C	0.515191	0.518067	1.717419
C84	C	0.600537	0.421591	1.611058
C85	C	1.402866	-0.485409	0.611319
C86	C	1.488237	-0.581886	0.504955
C87	C	1.522965	-0.701302	0.525424
C88	C	1.472326	-0.724240	0.652268
C89	C	1.386964	-0.627764	0.758629
C90	C	1.396315	-0.543841	1.282754
C91	C	1.480553	-0.650184	1.289753
C92	C	1.516076	-0.762455	1.228123
C93	C	1.467347	-0.768383	1.159501
C94	C	1.383104	-0.662042	1.152510
H95	H	0.652257	-0.245460	1.332164
N96	N	1.169953	0.337410	1.081592
H97	H	1.217158	0.298917	0.987573
H98	H	1.215754	0.287321	1.121157
H99	H	0.450090	0.017279	1.657709
H100	H	0.641744	0.440286	1.507790
N101	N	1.330563	-0.668446	1.078492
H102	H	1.365858	-0.755709	1.040514
H103	H	1.352606	-0.621098	1.006010
H104	H	0.458065	0.357015	1.968005
N105	N	1.509788	-0.853041	0.674336
H106	H	1.571543	-0.910666	0.587703
H107	H	1.434771	-0.867264	0.725079
H108	H	0.604941	-0.223490	1.711980
H109	H	0.848464	0.454897	1.269971
H110	H	1.007205	0.017307	0.657710
H111	H	1.374595	-0.388182	0.594628
H112	H	0.376137	-0.374556	1.465797
N113	N	0.561190	-0.393396	1.485257
H114	H	0.550471	-0.339762	1.551181
H115	H	0.650978	-0.453378	1.425804
N116	N	0.277938	-0.245399	1.332165
H117	H	0.248519	-0.301281	1.390008
H118	H	0.308241	-0.274238	1.240570
N119	N	0.309801	0.039297	1.037525
H120	H	0.280387	-0.016593	1.095358
H121	H	0.340113	0.010462	0.945925
H122	H	0.436882	0.168406	0.903898
N123	N	0.977393	-0.249106	0.728572
H124	H	0.978185	-0.242034	0.808019
H125	H	1.048670	-0.327808	0.667164
H126	H	0.611332	0.168399	0.903891
N127	N	1.332330	-0.652520	0.895423
H128	H	1.272976	-0.573291	0.959708
H129	H	1.400391	-0.700465	0.909012
N130	N	1.505677	-0.889480	1.093025
H131	H	1.462036	-0.877114	1.048487
H132	H	1.483067	-0.941982	1.159830
N133	N	0.629455	0.216610	1.020462
H134	H	0.721391	0.175668	0.953722
H135	H	0.585728	0.229081	0.976006
H136	H	1.520221	-0.645334	1.345630
H137	H	0.486907	0.615308	1.700772
N138	N	0.709528	0.039246	1.037527
H139	H	0.726432	-0.016647	1.095367
H140	H	0.685478	0.124044	1.071216
N141	N	0.656947	0.462230	1.291198
H142	H	0.702456	0.512374	1.251704
H143	H	0.715645	0.377789	1.286257
N144	N	0.481851	0.683280	1.276722
H145	H	0.504474	0.735857	1.210006
H146	H	0.525514	0.670762	1.321260
N147	N	1.615027	-0.805358	0.410705
H148	H	1.695333	-0.800646	0.356167
H149	H	1.581977	-0.800589	0.356267
N150	N	0.380537	0.671043	1.134109
H151	H	0.300367	0.667663	1.173607
H152	H	0.415011	0.679228	1.040102
N153	N	0.454320	0.437706	1.005972
H154	H	0.476338	0.485012	0.933440
H155	H	0.361809	0.473377	1.067027
N156	N	0.622058	0.150451	1.780484
H157	H	0.713741	0.107246	1.739638
H158	H	0.600405	0.107336	1.739670
N159	N	1.358001	-0.422754	1.349235
H160	H	1.432824	-0.409617	1.312195
H161	H	1.318243	-0.421321	1.445649
H162	H	0.395064	0.573675	1.930881
H163	H	1.584673	-0.849035	1.233825
H164	H	1.529453	-0.563186	0.401683
