data_functionalizedCrystal
_audit_creation_method	'MofGen! by Chris Wilmer'
_symmetry_space_group_name_H-M	'P1'
_symmetry_Int_Tables_number	1
_symmetry_cell_setting	triclinic
loop_
_symmetry_equiv_pos_as_xyz
  x,y,z
_cell_length_a	12.594517
_cell_length_b	16.625546
_cell_length_c	16.625539
_cell_angle_alpha	90.028532
_cell_angle_beta	89.982613
_cell_angle_gamma	89.977732
loop_
_atom_site_label
_atom_site_type_symbol
_atom_site_fract_x
_atom_site_fract_y
_atom_site_fract_z
Zn1	Zn	1.627178	0.321019	-0.455905
Zn2	Zn	1.627061	0.455858	-0.321067
Zn3	Zn	1.449194	0.321043	-0.321084
Zn4	Zn	1.449144	0.455813	-0.455856
O5	O	1.538144	0.388433	-0.388478
O6	O	1.776108	0.338915	-0.438031
O7	O	1.603439	0.438003	-0.208237
O8	O	1.472874	0.208207	-0.338996
O9	O	1.776023	0.437980	-0.338967
O10	O	1.603638	0.208190	-0.438048
O11	O	1.472761	0.338955	-0.208250
O12	O	1.300242	0.338911	-0.338949
O13	O	1.472789	0.437904	-0.568695
O14	O	1.300205	0.437927	-0.437965
O15	O	1.603590	0.338871	-0.568731
O16	O	1.603390	0.568685	-0.338919
O17	O	1.472676	0.568652	-0.437948
C18	C	1.261603	0.388417	-0.388454
C19	C	1.143298	0.388430	-0.388463
C20	C	1.538044	0.597924	-0.388444
C21	C	1.538098	0.687545	-0.388457
C22	C	1.538197	0.388380	-0.598787
C23	C	1.538219	0.388357	-0.688408
C24	C	1.074034	0.334502	-0.334711
C25	C	1.003214	0.408049	-0.314872
C26	C	1.003319	0.314919	-0.408316
C27	C	1.074036	0.462015	-0.368586
C28	C	1.074148	0.368836	-0.462064
C29	C	1.003360	0.442433	-0.442253
C30	C	1.815765	0.388450	-0.388502
C31	C	1.934071	0.388457	-0.388513
C32	C	1.538275	0.178124	-0.388530
C33	C	1.538330	0.088503	-0.388552
C34	C	1.538284	1.015721	-0.388541
C35	C	1.538229	0.924412	-0.388520
C36	C	1.538190	0.851636	-0.388498
C37	C	1.538137	0.760322	-0.388478
C38	C	1.538236	0.388340	-0.761191
C39	C	1.538261	0.388310	-0.852499
C40	C	1.538286	0.388281	-0.925276
C41	C	1.538313	0.388252	-1.016590
C42	C	1.538154	0.388428	-0.178987
C43	C	1.538338	0.388224	-0.089367
H44	H	0.972058	0.424639	-0.252651
C45	C	1.047640	0.542409	-0.540876
C46	C	0.961721	0.504083	-0.503644
H47	H	1.021930	0.580473	-0.578769
H48	H	1.090131	0.503550	-0.567714
H49	H	1.089119	0.569207	-0.501393
H50	H	0.920246	0.477280	-0.543127
H51	H	0.919212	0.542948	-0.476805
C52	C	0.850214	0.232076	-0.431448
C53	C	0.961381	0.230982	-0.430959
H54	H	0.824328	0.180254	-0.445416
H55	H	0.826025	0.270324	-0.469707
H56	H	0.824898	0.246379	-0.379545
H57	H	0.986698	0.216684	-0.482864
H58	H	0.985580	0.192720	-0.392698
C59	C	1.227421	0.347360	-0.545263
C60	C	1.116256	0.346410	-0.546033
H61	H	1.253417	0.333513	-0.597103
H62	H	1.252660	0.309578	-0.506929
H63	H	1.251577	0.399641	-0.531247
H64	H	1.092100	0.294128	-0.560043
H65	H	1.091007	0.384194	-0.584379
H66	H	1.104970	0.524212	-0.351746
C67	C	1.080122	0.293729	-0.196265
C68	C	1.115937	0.272997	-0.273276
H69	H	1.105997	0.255763	-0.158339
H70	H	1.004713	0.293655	-0.195526
H71	H	1.105384	0.345828	-0.182699
H72	H	1.090668	0.220901	-0.286845
H73	H	1.191362	0.273063	-0.274017
