data_functionalizedCrystal
_audit_creation_method	'MofGen! by Chris Wilmer'
_symmetry_space_group_name_H-M	'P1'
_symmetry_Int_Tables_number	1
_symmetry_cell_setting	triclinic
loop_
_symmetry_equiv_pos_as_xyz
  x,y,z
_cell_length_a	23.204063
_cell_length_b	23.204116
_cell_length_c	23.204065
_cell_angle_alpha	120.002660
_cell_angle_beta	89.997950
_cell_angle_gamma	119.999629
loop_
_atom_site_label
_atom_site_type_symbol
_atom_site_fract_x
_atom_site_fract_y
_atom_site_fract_z
O1	O	0.491191	0.508341	0.903686
O2	O	0.407387	0.390329	0.701869
O3	O	0.407385	0.508338	0.819876
O4	O	0.491194	0.390331	0.785678
O5	O	0.311535	0.412488	0.819876
O6	O	0.311537	0.294478	0.701869
O7	O	0.395341	0.412491	0.903686
Zn8	Zn	0.338220	0.338266	0.802777
Zn9	Zn	0.464508	0.464553	0.802777
O10	O	0.395343	0.294481	0.785678
C11	C	0.248541	0.694394	0.838587
C12	C	0.284103	0.765519	0.833693
C13	C	0.283385	0.659881	0.839075
C14	C	0.144183	0.590035	0.838587
C15	C	0.068165	0.549578	0.833693
C16	C	0.179186	0.555680	0.839075
C17	C	0.248543	0.590036	0.838587
C18	C	0.284106	0.549580	0.833693
C19	C	0.179184	0.659880	0.839075
C20	C	0.312837	0.516895	0.829738
C21	C	0.312832	0.822979	0.829738
C22	C	0.006749	0.516892	0.829737
C23	C	0.348882	0.475891	0.824776
C24	C	0.348875	0.895066	0.824777
C25	C	-0.070300	0.475887	0.824776
O26	O	-0.298168	0.390322	0.785678
O27	O	-0.096356	0.508333	0.819876
O28	O	-0.214359	0.390322	0.701868
O29	O	-0.180166	0.508334	0.903685
O30	O	-0.214355	0.294473	0.701868
O31	O	-0.096352	0.412485	0.819876
O32	O	-0.298164	0.294473	0.785678
Zn33	Zn	-0.197257	0.338261	0.802777
Zn34	Zn	-0.197263	0.464546	0.802777
O35	O	-0.180162	0.412485	0.903686
C36	C	0.248541	0.212790	0.356974
C37	C	0.284103	0.253248	0.321413
C38	C	0.179183	0.142947	0.322132
C39	C	0.248543	0.212787	0.461332
C40	C	0.284107	0.253241	0.537350
C41	C	0.179185	0.142944	0.426331
C42	C	0.144182	0.108432	0.356975
C43	C	0.068163	0.037310	0.321414
C44	C	0.283386	0.247143	0.426331
C45	C	0.006747	-0.020148	0.292684
C46	C	0.312833	0.285934	0.292683
C47	C	0.312839	0.285924	0.598766
C48	C	-0.070303	-0.092234	0.256642
C49	C	0.348877	0.326940	0.256641
C50	C	0.348884	0.326927	0.675814
C51	C	0.492073	0.181452	0.777895
C52	C	0.456509	0.110327	0.782790
C53	C	0.561430	0.215964	0.777408
C54	C	0.492076	0.285812	0.777895
C55	C	0.456515	0.326270	0.782789
C56	C	0.561433	0.320165	0.777407
C57	C	0.596433	0.285808	0.777895
C58	C	0.672452	0.326263	0.782789
C59	C	0.457231	0.215967	0.777408
O60	O	0.491187	1.083834	0.785679
O61	O	0.407378	0.916220	0.819877
O62	O	0.407381	0.916215	0.701869
O63	O	0.491184	1.083838	0.903686
O64	O	0.311530	0.916217	0.701869
O65	O	0.311527	0.916221	0.819876
O66	O	0.395337	1.083835	0.785679
Zn67	Zn	0.338214	1.000028	0.802777
Zn68	Zn	0.464501	1.000026	0.802778
O69	O	0.395334	1.083840	0.903686
O70	O	-0.298169	-0.280996	0.210189
O71	O	-0.096356	-0.113388	0.293990
O72	O	-0.214356	-0.113378	0.294004
O73	O	-0.180169	-0.281007	0.210175
O74	O	-0.214358	-0.113375	0.198154
O75	O	-0.096358	-0.113386	0.198140
O76	O	-0.298171	-0.280993	0.114339
Zn77	Zn	-0.197265	-0.197189	0.141021
Zn78	Zn	-0.197262	-0.197193	0.267307
O79	O	-0.180171	-0.281004	0.114325
O80	O	0.395337	0.412505	0.114337
O81	O	0.311528	0.294495	0.198139
O82	O	0.311533	0.412510	0.198153
O83	O	0.395331	0.294491	0.114323
O84	O	0.407386	0.508356	0.294002
O85	O	0.407380	0.390341	0.293989
O86	O	0.491189	0.508351	0.210187
Zn87	Zn	0.464503	0.464564	0.267306
Zn88	Zn	0.338214	0.338283	0.141020
O89	O	0.491183	0.390337	0.210173
C90	C	0.596431	0.621375	1.113450
C91	C	0.672449	0.692501	1.149013
C92	C	0.561429	0.586863	1.148295
C93	C	0.492074	0.517013	1.009089
C94	C	0.456512	0.476553	0.933069
C95	C	0.457230	0.482659	1.044092
C96	C	0.492072	0.517018	1.113451
C97	C	0.456510	0.476563	1.149015
C98	C	0.561430	0.586858	1.044092
C99	C	-0.172390	0.517001	1.113447
C100	C	-0.177270	0.476553	1.149013
C101	C	-0.171926	0.586833	1.148286
C102	C	-0.172395	0.516997	1.009086
C103	C	-0.177279	0.476544	0.933068
C104	C	-0.171930	0.586829	1.044083
C105	C	-0.172427	0.621338	1.113439
C106	C	-0.177345	0.692447	1.148996
C107	C	-0.171894	0.482650	1.044091
C108	C	0.492069	1.285826	1.113452
C109	C	0.456507	1.326286	1.149017
C110	C	0.561425	1.320181	1.148295
C111	C	0.492068	1.181461	1.009090
C112	C	0.456506	1.110334	0.933069
C113	C	0.561424	1.215974	1.044091
C114	C	0.596426	1.285822	1.113450
C115	C	0.672444	1.326277	1.149012
C116	C	0.457226	1.215978	1.044093
C117	C	-0.233058	0.108398	0.356965
C118	C	-0.228161	0.037274	0.321403
C119	C	-0.233547	0.142908	0.322119
C120	C	-0.233063	0.212760	0.461325
C121	C	-0.228170	0.253221	0.537345
C122	C	-0.233552	0.247112	0.426321
C123	C	-0.233063	0.212753	0.356962
C124	C	-0.228171	0.253206	0.321397
C125	C	-0.233547	0.142916	0.426324
C126	C	-0.224217	0.285888	0.292665
C127	C	-0.224203	-0.020187	0.292674
C128	C	-0.224216	0.285910	0.598762
C129	C	-0.219258	0.326890	0.256619
C130	C	-0.219238	-0.092274	0.256631
C131	C	-0.219256	0.326918	0.675813
O132	O	-0.214329	0.390342	1.293994
O133	O	-0.180168	0.508336	1.210184
O134	O	-0.298157	0.390306	1.210173
O135	O	-0.096340	0.508372	1.294004
O136	O	-0.298128	0.294472	1.114326
O137	O	-0.180139	0.412503	1.114337
O138	O	-0.214299	0.294509	1.198147
Zn139	Zn	-0.197214	0.338290	1.141024
Zn140	Zn	-0.197253	0.464555	1.267307
O141	O	-0.096310	0.412539	1.198158
C142	C	0.144194	0.590017	0.356963
C143	C	0.068176	0.549559	0.321399
C144	C	0.179196	0.555660	0.322120
C145	C	0.248549	0.694379	0.461325
C146	C	0.284109	0.765507	0.537346
C147	C	0.283394	0.659864	0.426324
C148	C	0.248553	0.590017	0.356965
C149	C	0.284116	0.549559	0.321403
C150	C	0.179193	0.659864	0.426322
C151	C	0.312848	0.516872	0.292673
C152	C	0.006761	0.516872	0.292667
C153	C	0.312838	0.822970	0.598763
C154	C	0.348893	0.475866	0.256629
C155	C	-0.070287	0.475866	0.256621
C156	C	0.348879	0.895060	0.675814
H157	H	0.151082	0.688762	0.839851
H158	H	0.151075	0.499463	0.839838
C159	C	-0.170807	0.406742	1.006135
C160	C	-0.231213	0.327386	0.937717
C161	C	-0.230125	0.251481	0.899763
C162	C	-0.168632	0.254932	0.930228
C163	C	-0.108221	0.334291	0.998650
C164	C	-0.109308	0.410196	1.036604
H165	H	-0.276738	0.324828	0.915161
H166	H	-0.274846	0.192734	0.849112
H167	H	-0.167827	0.198743	0.902132
H168	H	-0.062696	0.336848	1.021206
H169	H	-0.064588	0.468942	1.087255
H170	H	0.340373	0.688772	0.839862
C171	C	0.599399	0.625883	1.225276
C172	C	0.610329	0.576383	1.244184
C173	C	0.648302	0.615399	1.321161
C174	C	0.675345	0.703914	1.379229
C175	C	0.664416	0.753419	1.360322
C176	C	0.626443	0.714404	1.283346
H177	H	0.590310	0.510855	1.201198
H178	H	0.656393	0.578752	1.335156
H179	H	0.703456	0.732796	1.436211
H180	H	0.684436	0.818948	1.403309
H181	H	0.618352	0.751051	1.269351
C182	C	0.599384	0.625875	1.006123
C183	C	0.626408	0.714384	1.036572
C184	C	0.664357	0.753397	0.998602
C185	C	0.675281	0.703901	0.930183
C186	C	0.648256	0.615386	0.899730
C187	C	0.610308	0.576374	0.937700
H188	H	0.618322	0.751028	1.087223
H189	H	0.684362	0.818921	1.021146
H190	H	0.703372	0.732780	0.902075
H191	H	0.656342	0.578742	0.849079
H192	H	0.590302	0.510849	0.915156
H193	H	0.589533	0.376369	0.776624
C194	C	0.380236	0.176944	0.776315
C195	C	0.322191	0.088440	0.714811
C196	C	0.245195	0.049418	0.713703
C197	C	0.226243	0.098900	0.774100
C198	C	0.284290	0.187409	0.835609
C199	C	0.361286	0.226431	0.836717
H200	H	0.336219	0.051806	0.670098
H201	H	0.202225	-0.016103	0.668170
H202	H	0.169246	0.070013	0.773280
H203	H	0.270262	0.224043	0.880322
H204	H	0.404256	0.291952	0.882250
H205	H	0.151087	0.114061	0.454435
C206	C	0.141214	0.103918	0.245147
C207	C	0.072799	0.095924	0.226231
C208	C	0.034829	0.056893	0.149249
C209	C	0.065273	0.025856	0.091183
C210	C	0.133692	0.033849	0.110097
C211	C	0.171662	0.072880	0.187079
H212	H	0.050259	0.118901	0.269216
H213	H	-0.015819	0.050976	0.135247
H214	H	0.037165	-0.003038	0.034196
H215	H	0.156232	0.010872	0.067112
H216	H	0.222310	0.078797	0.201081
C217	C	0.599363	1.176915	1.006126
C218	C	0.626349	1.145860	1.036582
C219	C	0.664275	1.106787	0.998618
C220	C	0.675216	1.098769	0.930198
C221	C	0.648229	1.129825	0.899738
C222	C	0.610303	1.168899	0.937702
H223	H	0.618251	1.151794	1.087233
H224	H	0.684253	1.083797	1.021166
H225	H	0.703291	1.069845	0.902095
H226	H	0.656327	1.123891	0.849087
H227	H	0.590325	1.191889	0.915154
H228	H	-0.171212	0.615668	1.015958
C229	C	-0.234603	0.103906	0.464296
C230	C	-0.296088	0.072870	0.491319
C231	C	-0.297142	0.033866	0.529293
C232	C	-0.236711	0.025898	0.540245
C233	C	-0.175221	0.056934	0.513222
C234	C	-0.174167	0.095938	0.475248
H235	H	-0.340827	0.078768	0.483212
H236	H	-0.342662	0.010891	0.549297
H237	H	-0.237491	-0.002975	0.568357
H238	H	-0.130482	0.051036	0.521329
H239	H	-0.128647	0.118913	0.455244
C240	C	0.141231	0.698887	0.464289
C241	C	0.064775	0.660921	0.425805
C242	C	0.026815	0.699942	0.463774
C243	C	0.065311	0.776930	0.540227
C244	C	0.141771	0.814901	0.578716
C245	C	0.179731	0.775880	0.540747
H246	H	0.036274	0.603926	0.369206
H247	H	-0.029787	0.671833	0.435282
H248	H	0.037211	0.805816	0.568334
H249	H	0.170273	0.871896	0.635316
H250	H	0.236333	0.803989	0.569240
C251	C	0.360371	0.323066	0.464296
C252	C	0.398863	0.361039	0.425813
C253	C	0.475845	0.436960	0.463779
C254	C	0.514334	0.474907	0.540228
C255	C	0.475841	0.436934	0.578716
C256	C	0.398860	0.361014	0.540750
H257	H	0.370371	0.332948	0.369217
H258	H	0.504339	0.465070	0.435287
H259	H	0.571320	0.531108	0.568333
H260	H	0.504333	0.465026	0.635312
H261	H	0.370365	0.332904	0.569241
C262	C	0.599393	1.396103	1.225284
C263	C	0.568942	1.392678	1.283343
C264	C	0.606911	1.468594	1.360330
C265	C	0.675330	1.547935	1.379258
C266	C	0.705784	1.551363	1.321197
C267	C	0.667815	1.475447	1.244211
H268	H	0.518291	1.333942	1.269333
H269	H	0.584366	1.466056	1.403311
H270	H	0.703436	1.604133	1.436249
H271	H	0.756435	1.610099	1.335208
H272	H	0.690360	1.477985	1.201230
C273	C	-0.170875	0.625858	1.225270
C274	C	-0.231308	0.633830	1.244180
C275	C	-0.230257	0.672857	1.321161
C276	C	-0.168773	0.703913	1.379232
C277	C	-0.108334	0.695942	1.360323
C278	C	-0.109385	0.656915	1.283342
H279	H	-0.276827	0.610840	1.201192
H280	H	-0.274998	0.678757	1.335158
H281	H	-0.167995	0.732803	1.436217
H282	H	-0.062816	0.718932	1.403312
H283	H	-0.064645	0.651015	1.269345
H284	H	0.589523	0.187065	0.776610
C285	C	0.380241	1.176948	1.006126
C286	C	0.322181	1.145917	1.036576
C287	C	0.245199	1.106883	0.998608
C288	C	0.226276	1.098881	0.930189
C289	C	0.284338	1.129913	0.899736
C290	C	0.361320	1.168946	0.937704
H291	H	0.336187	1.151840	1.087227
H292	H	0.202218	1.083911	1.021152
H293	H	0.169290	1.069986	0.902083
H294	H	0.270332	1.123990	0.849085
H295	H	0.404301	1.191918	0.915160
C296	C	-0.234617	0.103894	0.245129
C297	C	-0.174196	0.095914	0.226181
C298	C	-0.175270	0.056907	0.149193
C299	C	-0.236766	0.025879	0.091153
C300	C	-0.297191	0.033858	0.110100
C301	C	-0.296117	0.072866	0.187088
H302	H	-0.128669	0.118883	0.269147
H303	H	-0.130539	0.051000	0.135167
H304	H	-0.237561	-0.002996	0.034162
H305	H	-0.342718	0.010889	0.067134
H306	H	-0.340848	0.078772	0.201114
H307	H	-0.234335	0.303317	0.454426
H308	H	0.340379	0.688751	0.454430
C309	C	0.380244	0.406739	1.006140
C310	C	0.361316	0.327397	0.995217
C311	C	0.284332	0.251483	0.957272
C312	C	0.226275	0.254910	0.930249
C313	C	0.245201	0.334255	0.941172
C314	C	0.322185	0.410169	0.979117
H315	H	0.404295	0.324857	1.015222
H316	H	0.270322	0.192746	0.949187
H317	H	0.169286	0.198714	0.902160
H318	H	0.202222	0.336795	0.921167
H319	H	0.336195	0.468905	0.987202
C320	C	0.141244	0.479740	0.245130
C321	C	0.064792	0.441772	0.206632
C322	C	0.026845	0.365859	0.129643
C323	C	0.065349	0.327914	0.091153
C324	C	0.141805	0.365881	0.129651
C325	C	0.179753	0.441794	0.206639
H326	H	0.036285	0.469862	0.235125
H327	H	-0.029753	0.337753	0.101145
H328	H	0.037258	0.271718	0.034161
H329	H	0.170312	0.337791	0.101158
H330	H	0.236351	0.469900	0.235138
