data_functionalizedCrystal
_audit_creation_method	'MofGen! by Chris Wilmer'
_symmetry_space_group_name_H-M	'P1'
_symmetry_Int_Tables_number	1
_symmetry_cell_setting	triclinic
loop_
_symmetry_equiv_pos_as_xyz
  x,y,z
_cell_length_a	12.759401
_cell_length_b	16.959454
_cell_length_c	12.759393
_cell_angle_alpha	90.030714
_cell_angle_beta	90.018496
_cell_angle_gamma	90.020236
loop_
_atom_site_label
_atom_site_type_symbol
_atom_site_fract_x
_atom_site_fract_y
_atom_site_fract_z
Zn1	Zn	1.606216	-0.314632	0.593988
Zn2	Zn	2.106216	0.185368	1.093988
Zn3	Zn	1.606094	-0.446833	0.418310
Zn4	Zn	2.106094	0.053167	0.918310
Zn5	Zn	1.430518	-0.314673	0.418327
Zn6	Zn	1.930518	0.185327	0.918327
Zn7	Zn	1.430490	-0.446772	0.593952
Zn8	Zn	1.930490	0.053228	1.093952
O9	O	1.518330	-0.380727	0.506144
O10	O	2.018330	0.119273	1.006144
O11	O	1.753221	-0.332177	0.570692
O12	O	2.253221	0.167823	1.070692
O13	O	1.582764	-0.429345	0.271291
O14	O	2.082764	0.070655	0.771291
O15	O	1.453888	-0.204057	0.441651
O16	O	1.953888	0.295943	0.941651
O17	O	1.753131	-0.429304	0.441622
O18	O	2.253131	0.070696	0.941622
O19	O	1.582972	-0.204026	0.570708
O20	O	2.082972	0.295974	1.070708
O21	O	1.453769	-0.332247	0.271304
O22	O	1.953769	0.167753	0.771304
O23	O	1.283493	-0.332188	0.441616
O24	O	1.783493	0.167812	0.941616
O25	O	1.453840	-0.429201	0.740978
O26	O	1.953840	0.070799	1.240978
O27	O	1.283473	-0.429241	0.570647
O28	O	1.783473	0.070759	1.070647
O29	O	1.582945	-0.332118	0.741004
O30	O	2.082945	0.167882	1.241004
O31	O	1.582737	-0.557436	0.441588
O32	O	2.082737	-0.057436	0.941588
O33	O	1.453722	-0.557391	0.570631
O34	O	1.953722	-0.057391	1.070631
C35	C	1.245362	-0.380713	0.506130
C36	C	1.745362	0.119287	1.006130
C37	C	1.128586	-0.380726	0.506149
C38	C	1.628586	0.119274	1.006149
C39	C	1.073740	-0.431342	0.573224
C40	C	1.573740	0.068658	1.073224
C41	C	0.964016	-0.431352	0.573235
C42	C	1.464016	0.068648	1.073235
C43	C	0.963992	-0.330127	0.439087
C44	C	1.463992	0.169873	0.939087
C45	C	1.073714	-0.330114	0.439082
C46	C	1.573714	0.169886	0.939082
C47	C	1.128612	-0.481954	0.640291
C48	C	1.628612	0.018046	1.140291
C49	C	1.073766	-0.532575	0.707370
C50	C	1.573766	-0.032575	1.207370
C51	C	0.964042	-0.532585	0.707382
C52	C	1.464042	-0.032585	1.207382
C53	C	0.909164	-0.481974	0.640313
C54	C	1.409164	0.018026	1.140313
C55	C	1.518242	-0.586094	0.506126
C56	C	2.018242	-0.086094	1.006126
C57	C	1.518300	-0.673950	0.506154
C58	C	2.018300	-0.173950	1.006154
C59	C	1.451249	-1.045433	0.573330
C60	C	1.951249	-0.545433	1.073330
C61	C	1.585703	-1.045419	0.439066
C62	C	2.085703	-0.545419	0.939066
C63	C	1.585666	-0.962873	0.439056
C64	C	2.085666	-0.462873	0.939056
C65	C	1.518419	-0.921603	0.506183
C66	C	2.018419	-0.421603	1.006183
C67	C	1.451208	-0.962879	0.573320
C68	C	1.951208	-0.462879	1.073320
C69	C	1.652869	-0.921591	0.371913
C70	C	2.152869	-0.421591	0.871913
C71	C	1.652834	-0.839040	0.371900
C72	C	2.152834	-0.339040	0.871900
C73	C	1.585591	-0.797769	0.439033
C74	C	2.085591	-0.297769	0.939033
C75	C	1.518378	-0.839050	0.506173
C76	C	2.018378	-0.339050	1.006173
C77	C	1.451130	-0.797780	0.573300
C78	C	1.951130	-0.297780	1.073300
C79	C	1.383922	-0.839059	0.640447
C80	C	1.883922	-0.339059	1.140447
C81	C	1.383965	-0.921607	0.640453
C82	C	1.883965	-0.421607	1.140453
C83	C	1.585548	-0.715220	0.439027
C84	C	2.085548	-0.215220	0.939027
C85	C	1.451089	-0.715226	0.573291
C86	C	1.951089	-0.215226	1.073291
C87	C	1.792363	-0.380743	0.506159
C88	C	2.292363	0.119257	1.006159
C89	C	1.909140	-0.380749	0.506165
C90	C	2.409140	0.119251	1.006165
C91	C	1.518403	-0.380648	0.780178
C92	C	2.018403	0.119352	1.280178
C93	C	1.518435	-0.380614	0.896954
C94	C	2.018435	0.119386	1.396954
C95	C	1.518447	-0.174559	0.506185
C96	C	2.018447	0.325441	1.006185
C97	C	1.518496	-0.086703	0.506203
C98	C	2.018496	0.413297	1.006203
C99	C	1.518317	-0.380750	0.233177
C100	C	2.018317	0.119250	0.733177
C101	C	1.518489	-0.380561	0.116401
C102	C	2.018489	0.119439	0.616401
C103	C	1.585669	-0.330058	0.951832
C104	C	2.085669	0.169942	1.451832
C105	C	1.585694	-0.330029	1.061556
C106	C	2.085694	0.169971	1.561556
C107	C	1.451247	-0.431119	1.061516
C108	C	1.951247	0.068881	1.561516
C109	C	1.451218	-0.431143	0.951793
C110	C	1.951218	0.068857	1.451793
C111	C	1.652886	-0.279528	0.896993
C112	C	2.152886	0.220472	1.396993
C113	C	1.720126	-0.228968	0.951870
C114	C	2.220126	0.271032	1.451870
C115	C	1.720151	-0.228940	1.061594
C116	C	2.220151	0.271060	1.561594
C117	C	1.652935	-0.279471	1.116441
C118	C	2.152935	0.220529	1.616441
H119	H	1.118456	-0.573776	0.761982
H120	H	1.618456	-0.073776	1.261982
H121	H	1.652875	-0.279547	0.807650
H122	H	2.152875	0.220453	1.307650
H123	H	0.919301	-0.288923	0.384483
H124	H	1.419301	0.211077	0.884483
O125	O	1.132879	-0.275522	0.366738
O126	O	1.632879	0.224478	0.866738
H127	H	1.182847	-0.310847	0.313211
H128	H	1.682847	0.189153	0.813211
H129	H	1.396332	-0.681629	0.627958
H130	H	1.896332	-0.181629	1.127958
H131	H	1.707610	-0.955199	0.317254
H132	H	2.207610	-0.455199	0.817254
H133	H	1.329246	-0.955225	0.695119
H134	H	1.829246	-0.455225	1.195119
H135	H	1.396533	-1.079046	0.628001
H136	H	1.896533	-0.579046	1.128001
O137	O	1.378698	-0.485671	0.892600
O138	O	1.878698	0.014329	1.392600
H139	H	1.389962	-0.477190	0.807091
H140	H	1.889962	0.022810	1.307091
H141	H	1.329164	-0.805447	0.695097
H142	H	1.829164	-0.305447	1.195097
H143	H	0.919390	-0.573797	0.762009
H144	H	1.419390	-0.073797	1.262009
H145	H	1.640447	-1.079026	0.384408
H146	H	2.140447	-0.579026	0.884408
H147	H	1.707559	-0.805436	0.317227
H148	H	2.207559	-0.305436	0.817227
H149	H	1.217954	-0.481953	0.640287
H150	H	1.717954	0.018047	1.140287
H151	H	1.774894	-0.187766	1.106273
H152	H	2.274894	0.312234	1.606273
O153	O	1.658029	-0.670695	0.366618
O154	O	2.158029	-0.170695	0.866618
H155	H	1.704799	-0.713261	0.319945
H156	H	2.204799	-0.213261	0.819945
O157	O	1.792624	-0.174471	0.892724
O158	O	2.292624	0.325529	1.392724
H159	H	1.781323	-0.182989	0.807207
H160	H	2.281323	0.317011	1.307207
O161	O	1.652957	-0.279443	1.234788
O162	O	2.152957	0.220557	1.734788
H163	H	1.711004	-0.235800	1.263737
H164	H	2.211004	0.264200	1.763737
H165	H	1.396523	-0.472259	1.106180
H166	H	1.896523	0.027741	1.606180
H167	H	0.819819	-0.481980	0.640337
H168	H	1.319819	0.018020	1.140337
