data_functionalizedCrystal
_audit_creation_method	'MofGen! by Chris Wilmer'
_symmetry_space_group_name_H-M	'P1'
_symmetry_Int_Tables_number	1
_symmetry_cell_setting	triclinic
loop_
_symmetry_equiv_pos_as_xyz
  x,y,z
_cell_length_a	11.792254
_cell_length_b	17.019294
_cell_length_c	10.268362
_cell_angle_alpha	86.115747
_cell_angle_beta	89.995475
_cell_angle_gamma	83.795489
loop_
_atom_site_label
_atom_site_type_symbol
_atom_site_fract_x
_atom_site_fract_y
_atom_site_fract_z
O1	O	1.505768	0.108168	-0.120427
O2	O	1.175312	0.119300	-0.121679
O3	O	1.349758	-0.001059	-0.108173
O4	O	1.331321	0.228527	-0.133933
O5	O	1.349743	-0.001064	0.108428
O6	O	1.175297	0.119295	0.094923
O7	O	1.505752	0.108163	0.096174
Cu8	Cu	1.340523	0.113728	0.115326
Cu9	Cu	1.340541	0.113734	-0.140830
O10	O	1.331306	0.228522	0.082668
C11	C	1.133021	0.118596	-0.013300
C12	C	1.007030	0.116497	-0.013065
C13	C	0.904711	0.114792	-0.012879
C14	C	0.776347	0.112659	-0.012641
C15	C	1.349051	-0.030454	0.003422
C16	C	1.346954	-0.118033	0.013241
C17	C	1.345980	-0.159171	-0.100215
C18	C	1.344002	-0.241461	-0.090986
C19	C	1.343006	-0.282612	0.031700
C20	C	1.343977	-0.241468	0.145165
C21	C	1.345947	-0.159179	0.135934
C22	C	1.337051	-0.531071	0.065477
C23	C	1.335085	-0.613366	0.074699
C24	C	1.335107	-0.613353	-0.161453
C25	C	1.337083	-0.531063	-0.170672
C26	C	1.338048	-0.489926	-0.057208
C27	C	1.340988	-0.366726	0.041137
C28	C	1.340058	-0.405813	-0.066646
C29	C	1.548043	0.108867	-0.012208
C30	C	1.674034	0.110966	-0.012451
C31	C	1.332013	0.257917	-0.028930
C32	C	1.334110	0.345496	-0.038757
N33	N	1.340519	0.113724	0.295492
N34	N	1.340554	0.113733	-0.320996
C35	C	1.340535	0.113733	0.561162
C36	C	1.340522	0.113730	0.413324
H37	H	1.343213	-0.274952	-0.183374
H38	H	1.337859	-0.497589	0.157868
H39	H	1.343160	-0.274979	0.245059
C40	C	1.336890	-0.539318	-0.403172
C41	C	1.338168	-0.485831	-0.305534
H42	H	1.337555	-0.511391	-0.486429
H43	H	1.402270	-0.577141	-0.394021
H44	H	1.269964	-0.565685	-0.395294
H45	H	1.405098	-0.459468	-0.313406
H46	H	1.272781	-0.447994	-0.314689
C47	C	1.345714	-0.167451	0.370285
C48	C	1.347006	-0.113956	0.260648
H49	H	1.346366	-0.139531	0.447278
H50	H	1.278804	-0.193821	0.368317
H51	H	1.411110	-0.205273	0.369621
H52	H	1.281606	-0.076137	0.261306
H53	H	1.413924	-0.087573	0.262617
C54	C	1.244745	-0.304830	-0.214959
C55	C	1.341136	-0.360586	-0.201506
H56	H	1.245415	-0.276902	-0.298215
H57	H	1.177842	-0.331209	-0.207093
H58	H	1.245621	-0.268556	-0.148702
H59	H	1.340256	-0.396863	-0.267757
H60	H	1.408057	-0.334205	-0.209385
C61	C	1.332086	-0.739489	-0.252165
C62	C	1.334030	-0.658571	-0.286167
H63	H	1.331411	-0.767402	-0.329165
H64	H	1.397911	-0.758703	-0.201510
H65	H	1.265605	-0.747238	-0.202778
H66	H	1.400516	-0.650822	-0.335547
H67	H	1.268199	-0.639351	-0.336844
C68	C	1.348975	-0.033022	-0.219226
C69	C	1.347047	-0.113939	-0.235077
H70	H	1.349630	-0.005100	-0.302488
H71	H	1.283154	-0.013820	-0.172855
H72	H	1.415461	-0.025269	-0.171603
H73	H	1.280557	-0.121692	-0.282693
H74	H	1.412874	-0.133147	-0.281468
H75	H	1.334268	-0.646868	0.174610
C76	C	1.241277	-0.450847	0.187562
C77	C	1.339920	-0.411971	0.175988
H78	H	1.240626	-0.478786	0.270809
H79	H	1.175902	-0.413017	0.178445
H80	H	1.240416	-0.487113	0.121291
H81	H	1.340776	-0.375700	0.242254
H82	H	1.405312	-0.449805	0.185119
