data_functionalizedCrystal
_audit_creation_method	'MofGen! by Chris Wilmer'
_symmetry_space_group_name_H-M	'P1'
_symmetry_Int_Tables_number	1
_symmetry_cell_setting	triclinic
loop_
_symmetry_equiv_pos_as_xyz
  x,y,z
_cell_length_a	18.050589
_cell_length_b	16.625548
_cell_length_c	16.625539
_cell_angle_alpha	90.022345
_cell_angle_beta	89.975176
_cell_angle_gamma	89.971920
loop_
_atom_site_label
_atom_site_type_symbol
_atom_site_fract_x
_atom_site_fract_y
_atom_site_fract_z
Zn1	Zn	-0.295661	-1.232648	-0.455967
Zn2	Zn	0.204339	-0.732648	0.044033
Zn3	Zn	-0.419859	-1.232538	-0.321142
Zn4	Zn	0.080141	-0.732538	0.178858
Zn5	Zn	-0.295687	-1.097810	-0.321143
Zn6	Zn	0.204313	-0.597810	0.178857
Zn7	Zn	-0.419813	-1.097767	-0.455928
Zn8	Zn	0.080187	-0.597767	0.044072
O9	O	-0.357755	-1.165191	-0.388545
O10	O	0.142245	-0.665191	0.111455
O11	O	-0.312144	-1.345466	-0.438098
O12	O	0.187856	-0.845466	0.061902
O13	O	-0.403417	-1.214638	-0.208310
O14	O	0.096583	-0.714638	0.291690
O15	O	-0.191759	-1.115761	-0.339045
O16	O	0.308241	-0.615761	0.160955
O17	O	-0.403392	-1.345385	-0.339043
O18	O	0.096608	-0.845385	0.160957
O19	O	-0.191740	-1.214826	-0.438099
O20	O	0.308260	-0.714826	0.061901
O21	O	-0.312188	-1.115654	-0.208311
O22	O	0.187812	-0.615654	0.291689
O23	O	-0.312144	-0.984972	-0.339007
O24	O	0.187856	-0.484972	0.160993
O25	O	-0.403315	-1.115687	-0.568766
O26	O	0.096685	-0.615687	-0.068766
O27	O	-0.403339	-0.984940	-0.438033
O28	O	0.096661	-0.484940	0.061967
O29	O	-0.312100	-1.214784	-0.568794
O30	O	0.187900	-0.714784	-0.068794
O31	O	-0.523777	-1.214596	-0.339005
O32	O	-0.023777	-0.714596	0.160995
O33	O	-0.523744	-1.115580	-0.438032
O34	O	-0.023744	-0.615580	0.061968
C35	C	-0.550707	-1.165093	-0.388532
C36	C	-0.050707	-0.665093	0.111468
C37	C	-0.633253	-1.165126	-0.388553
C38	C	-0.133253	-0.665126	0.111447
C39	C	-0.357740	-0.955700	-0.388516
C40	C	0.142260	-0.455700	0.111484
C41	C	-0.357752	-0.866079	-0.388523
C42	C	0.142248	-0.366079	0.111477
C43	C	-0.357699	-1.165243	-0.598854
C44	C	0.142301	-0.665243	-0.098854
C45	C	-0.357676	-1.165266	-0.688475
C46	C	0.142324	-0.665266	-0.188475
C47	C	-0.832712	-1.111334	-0.442385
C48	C	-0.332712	-0.611334	0.057615
C49	C	-0.882154	-1.091677	-0.368808
C50	C	-0.382154	-0.591677	0.131192
C51	C	-0.784383	-1.165205	-0.388564
C52	C	-0.284383	-0.665205	0.111436
C53	C	-0.882023	-1.184901	-0.462149
C54	C	-0.382023	-0.684901	0.037851
C55	C	-0.930368	-1.165280	-0.388580
C56	C	-0.430368	-0.665280	0.111420
C57	C	-0.832738	-1.145510	-0.314948
C58	C	-0.332738	-0.645510	0.185052
C59	C	-0.832602	-1.238767	-0.408338
C60	C	-0.332602	-0.738767	0.091662
C61	C	-0.882022	-1.219139	-0.334711
C62	C	-0.382022	-0.719139	0.165289
C63	C	-0.700285	-1.165160	-0.388555
C64	C	-0.200285	-0.665160	0.111445
C65	C	-1.014465	-1.165325	-0.388580
C66	C	-0.514465	-0.665325	0.111420
C67	C	-0.164049	-1.165310	-0.388576
C68	C	0.335951	-0.665310	0.111424
C69	C	-0.081503	-1.165361	-0.388590
C70	C	0.418497	-0.665361	0.111410
C71	C	-0.357750	-0.537903	-0.388547
C72	C	0.142250	-0.037903	0.111453
C73	C	-0.357749	-0.629212	-0.388538
C74	C	0.142251	-0.129212	0.111462
C75	C	-0.357751	-0.701988	-0.388534
C76	C	0.142249	-0.201988	0.111466
C77	C	-0.357749	-0.793302	-0.388526
C78	C	0.142251	-0.293302	0.111474
C79	C	-0.357765	-0.375500	-0.388567
C80	C	0.142235	0.124500	0.111433
C81	C	-0.357757	-0.465121	-0.388557
C82	C	0.142243	0.034879	0.111443
C83	C	-0.357593	-1.165303	-1.016651
C84	C	0.142407	-0.665303	-0.516651
C85	C	-0.357618	-1.165290	-0.925343
C86	C	0.142382	-0.665290	-0.425343
C87	C	-0.357635	-1.165285	-0.852566
C88	C	0.142365	-0.665285	-0.352566
C89	C	-0.357659	-1.165271	-0.761252
C90	C	0.142341	-0.665271	-0.261252
C91	C	-0.357756	-1.165185	-0.179054
C92	C	0.142244	-0.665185	0.320946
C93	C	-0.357571	-1.165319	-0.089434
C94	C	0.142429	-0.665319	0.410566
H95	H	-0.811060	-1.065710	-0.487835
H96	H	-0.311060	-0.565710	0.012165
O97	O	-0.804189	-1.123392	-0.232499
O98	O	-0.304189	-0.623392	0.267501
H99	H	-0.824527	-1.062557	-0.216037
H100	H	-0.324527	-0.562557	0.283963
O101	O	-0.910698	-1.206936	-0.544568
O102	O	-0.410698	-0.706936	-0.044568
H103	H	-0.890949	-1.162089	-0.589116
H104	H	-0.390949	-0.662089	-0.089116
O105	O	-0.803746	-1.321133	-0.430411
O106	O	-0.303746	-0.821133	0.069589
H107	H	-0.824396	-1.365912	-0.386279
H108	H	-0.324396	-0.865912	0.113721
H109	H	-0.903936	-1.029503	-0.352098
H110	H	-0.403936	-0.529503	0.147902
O111	O	-0.910528	-1.279531	-0.274370
O112	O	-0.410528	-0.779531	0.225630
H113	H	-0.890682	-1.263024	-0.213381
H114	H	-0.390682	-0.763024	0.286619
