data_functionalizedCrystal
_audit_creation_method	'MofGen! by Chris Wilmer'
_symmetry_space_group_name_H-M	'P1'
_symmetry_Int_Tables_number	1
_symmetry_cell_setting	triclinic
loop_
_symmetry_equiv_pos_as_xyz
  x,y,z
_cell_length_a	16.974800
_cell_length_b	17.038272
_cell_length_c	15.455446
_cell_angle_alpha	92.867063
_cell_angle_beta	83.686872
_cell_angle_gamma	87.242888
loop_
_atom_site_label
_atom_site_type_symbol
_atom_site_fract_x
_atom_site_fract_y
_atom_site_fract_z
O1	O	1.055938	0.099491	-0.002020
O2	O	1.555938	0.599491	0.497980
O3	O	0.825863	0.112961	0.014139
O4	O	1.325863	0.612961	0.514139
O5	O	0.939533	-0.007584	0.006149
O6	O	1.439533	0.492416	0.506149
O7	O	0.942267	0.220036	0.005970
O8	O	1.442267	0.720036	0.505970
O9	O	0.945996	-0.014452	-0.138565
O10	O	1.445996	0.485548	0.361435
O11	O	0.832326	0.106093	-0.130575
O12	O	1.332326	0.606093	0.369425
O13	O	1.062401	0.092622	-0.146733
O14	O	1.562401	0.592622	0.353267
Cu15	Cu	0.947953	0.098730	-0.151867
Cu16	Cu	1.447953	0.598730	0.348133
Cu17	Cu	0.940310	0.106853	0.019273
Cu18	Cu	1.440310	0.606853	0.519273
O19	O	0.948730	0.213168	-0.138743
O20	O	1.448730	0.713168	0.361257
C21	C	0.799510	0.109144	-0.056140
C22	C	1.299510	0.609144	0.443860
C23	C	0.711360	0.107995	-0.049950
C24	C	1.211360	0.607995	0.450050
C25	C	0.673474	0.103709	-0.125927
C26	C	1.173474	0.603709	0.374073
C27	C	0.590648	0.102616	-0.120112
C28	C	1.090648	0.602616	0.379888
C29	C	0.545708	0.105815	-0.038320
C30	C	1.045708	0.605815	0.461680
C31	C	0.583600	0.110099	0.037662
C32	C	1.083600	0.610099	0.537662
C33	C	0.666425	0.111186	0.031847
C34	C	1.166425	0.611186	0.531847
C35	C	0.297620	0.102960	-0.012470
C36	C	0.797620	0.602960	0.487530
C37	C	0.214789	0.101875	-0.006660
C38	C	0.714789	0.601875	0.493340
C39	C	0.221843	0.094391	-0.164435
C40	C	0.721843	0.594391	0.335565
C41	C	0.304669	0.095483	-0.170243
C42	C	0.804669	0.595483	0.329757
C43	C	0.342553	0.099763	-0.094261
C44	C	0.842553	0.599763	0.405739
N45	N	0.461046	0.104701	-0.032375
N46	N	0.961046	0.604701	0.467625
N47	N	0.427214	0.100871	-0.100207
N48	N	0.927214	0.600871	0.399793
C49	C	0.940277	-0.040136	-0.066033
C50	C	1.440277	0.459864	0.433967
C51	C	0.932856	-0.126898	-0.065512
C52	C	1.432856	0.373102	0.434488
C53	C	1.000990	-0.177298	-0.070298
C54	C	1.500990	0.322702	0.429702
C55	C	0.994012	-0.258819	-0.069800
C56	C	1.494012	0.241181	0.430200
C57	C	0.918900	-0.289938	-0.064521
C58	C	1.418900	0.210062	0.435479
C59	C	0.850761	-0.239531	-0.059733
C60	C	1.350761	0.260469	0.440267
C61	C	0.857739	-0.158012	-0.060225
C62	C	1.357739	0.341988	0.439775
C63	C	0.894246	-0.535592	-0.062778
C64	C	1.394246	-0.035592	0.437222
C65	C	0.887273	-0.617118	-0.062289
C66	C	1.387273	-0.117118	0.437711
C67	C	1.030525	-0.636400	-0.072354
C68	C	1.530525	-0.136400	0.427646
C69	C	1.037497	-0.554878	-0.072851
C70	C	1.537497	-0.054878	0.427149
C71	C	0.969358	-0.504478	-0.068058
C72	C	1.469358	-0.004478	0.431942
C73	C	0.911765	-0.373265	-0.064015
C74	C	1.411765	0.126735	0.435985
C75	C	0.976492	-0.421152	-0.068558
C76	C	1.476492	0.078848	0.431442
C77	C	1.088753	0.096439	-0.076452
C78	C	1.588753	0.596439	0.423548
C79	C	1.176903	0.097589	-0.082637
C80	C	1.676903	0.597589	0.417363
C81	C	0.947986	0.245720	-0.066559
C82	C	1.447986	0.745720	0.433441
C83	C	0.955407	0.332482	-0.067075
C84	C	1.455407	0.832482	0.432925
N85	N	0.953335	0.093017	-0.272239
N86	N	1.453335	0.593017	0.227761
C87	C	0.983236	0.061369	-0.818335
C88	C	1.483236	0.561369	-0.318335
C89	C	0.979149	0.065700	-0.727241
C90	C	1.479149	0.565700	-0.227241
C91	C	0.926755	0.121219	-0.678171
C92	C	1.426755	0.621219	-0.178171
C93	C	0.878452	0.172416	-0.720199
C94	C	1.378452	0.672416	-0.220199
C95	C	0.882543	0.168089	-0.811291
C96	C	1.382543	0.668089	-0.311291
C97	C	0.909123	0.139887	-0.405358
C98	C	1.409123	0.639887	0.094642
C99	C	0.905033	0.144209	-0.314260
C100	C	1.405033	0.644209	0.185740
C101	C	1.005732	0.037492	-0.321309
C102	C	1.505732	0.537492	0.178691
C103	C	1.009816	0.033167	-0.412402
C104	C	1.509816	0.533167	0.087598
C105	C	0.961515	0.084367	-0.454422
C106	C	1.461515	0.584367	0.045578
N107	N	0.922575	0.125645	-0.585059
N108	N	1.422575	0.625645	-0.085059
N109	N	0.965700	0.079943	-0.547533
N110	N	1.465700	0.579943	-0.047533
N111	N	0.934934	0.112561	0.139644
N112	N	1.434934	0.612561	0.639644
H113	H	0.697270	0.114678	0.093716
H114	H	1.197270	0.614678	0.593716
H115	H	1.062155	-0.151968	-0.074601
H116	H	1.562155	0.348032	0.425399
C117	C	1.040872	0.000291	-0.872304
C118	C	1.540872	0.500291	-0.372304
N119	N	1.084286	-0.045714	-0.912951
N120	N	1.584286	0.454286	-0.412951
C121	C	1.068966	-0.314257	-0.075079
C122	C	1.568966	0.185743	0.424921
N123	N	1.125426	-0.356013	-0.079059
N124	N	1.625426	0.143987	0.420941
H125	H	0.710057	0.101110	-0.192531
H126	H	1.210057	0.601110	0.307469
C127	C	0.768136	-0.273766	-0.053934
C128	C	1.268136	0.226234	0.446066
N129	N	0.705902	-0.299550	-0.049573
N130	N	1.205902	0.200450	0.450427
C131	C	1.120127	-0.520654	-0.078659
C132	C	1.620127	-0.020654	0.421341
N133	N	1.182364	-0.494876	-0.083036
N134	N	1.682364	0.005124	0.416964
C135	C	1.105473	-0.691845	-0.077619
C136	C	1.605473	-0.191845	0.422381
N137	N	1.161926	-0.733607	-0.081580
N138	N	1.661926	-0.233607	0.418420
C139	C	0.829144	-0.407506	-0.058227
C140	C	1.329144	0.092494	0.441773
N141	N	0.766914	-0.433299	-0.053871
N142	N	1.266914	0.066701	0.446129
H143	H	0.838762	-0.494565	-0.058875
H144	H	1.338762	0.005435	0.441125
C145	C	1.032281	0.009380	-0.681022
C146	C	1.532281	0.509380	-0.181022
N147	N	1.072302	-0.033043	-0.646210
N148	N	1.572302	0.466957	-0.146210
C149	C	1.067428	-0.027932	-0.466371
C150	C	1.567428	0.472068	0.033629
N151	N	1.110811	-0.073963	-0.507020
N152	N	1.610811	0.426037	-0.007020
H153	H	0.559806	0.099113	-0.181981
H154	H	1.059806	0.599113	0.318019
C155	C	0.804640	-0.651346	-0.056476
C156	C	1.304640	-0.151346	0.443524
N157	N	0.742403	-0.677127	-0.052097
N158	N	1.242403	-0.177127	0.447903
H159	H	0.802257	-0.116976	-0.056327
H160	H	1.302257	0.383024	0.443673
C161	C	1.058855	-0.018827	-0.275079
C162	C	1.558855	0.481173	0.224921
N163	N	1.098870	-0.061250	-0.240259
N164	N	1.598870	0.438750	0.259741
H165	H	1.037648	-0.395810	-0.072837
H166	H	1.537648	0.104190	0.427163
C167	C	0.847346	0.205243	-0.260281
C168	C	1.347346	0.705243	0.239719
N169	N	0.803879	0.251195	-0.219623
N170	N	1.303879	0.751195	0.280377
H171	H	0.869793	0.181574	-0.439564
H172	H	1.369793	0.681574	0.060436
C173	C	0.820817	0.233488	-0.666218
C174	C	1.320817	0.733488	-0.166218
N175	N	0.777404	0.279487	-0.625560
N176	N	1.277404	0.779487	-0.125560
C177	C	0.829405	0.224402	-0.857514
C178	C	1.329405	0.724402	-0.357514
N179	N	0.789381	0.266821	-0.892327
N180	N	1.289381	0.766821	-0.392327
H181	H	0.178201	0.104483	0.059948
H182	H	0.678201	0.604483	0.559948
H183	H	0.328455	0.106443	0.049401
H184	H	0.828455	0.606443	0.549401
H185	H	0.341253	0.092874	-0.236847
H186	H	0.841253	0.592874	0.263153
H187	H	0.547004	0.112699	0.104259
H188	H	1.047004	0.612699	0.604259
H189	H	0.190988	0.090905	-0.226296
H190	H	0.690988	0.590905	0.273704
