data_functionalizedCrystal
_audit_creation_method	'MofGen! by Chris Wilmer'
_symmetry_space_group_name_H-M	'P1'
_symmetry_Int_Tables_number	1
_symmetry_cell_setting	triclinic
loop_
_symmetry_equiv_pos_as_xyz
  x,y,z
_cell_length_a	16.120484
_cell_length_b	10.685980
_cell_length_c	16.120256
_cell_angle_alpha	91.719938
_cell_angle_beta	84.383827
_cell_angle_gamma	97.500660
loop_
_atom_site_label
_atom_site_type_symbol
_atom_site_fract_x
_atom_site_fract_y
_atom_site_fract_z
Zn1	Zn	-0.266959	1.864194	0.579448
Zn2	Zn	-0.399652	1.864036	0.446750
Zn3	Zn	-0.269513	1.664441	0.430051
Zn4	Zn	-0.417401	1.641847	0.575748
O5	O	-0.338381	1.758630	0.507999
O6	O	-0.276064	2.040758	0.570383
O7	O	-0.376030	1.846948	0.328026
O8	O	-0.151750	1.700461	0.444428
O9	O	-0.373553	2.040641	0.472890
O10	O	-0.149873	1.847219	0.554190
O11	O	-0.280417	1.700307	0.315757
O12	O	-0.297628	1.484860	0.440840
O13	O	-0.403803	1.661953	0.692748
O14	O	-0.406280	1.468260	0.547883
O15	O	-0.293274	1.825310	0.695467
O16	O	-0.519430	1.825040	0.469302
O17	O	-0.532471	1.661799	0.564076
C18	C	-0.354158	1.430773	0.492148
C19	C	-0.360929	1.290512	0.485388
C20	C	-0.556397	1.740983	0.518120
C21	C	-0.649660	1.733547	0.522482
C22	C	-0.820415	1.719977	0.530466
C23	C	-0.855497	1.797507	0.485557
C24	C	-0.950510	1.789957	0.489999
C25	C	-0.725393	1.727526	0.526025
C26	C	-0.119514	1.776378	0.497859
C27	C	-0.026245	1.783941	0.493538
C28	C	-0.350234	1.741129	0.725161
C29	C	-0.355284	1.733671	0.817703
C30	C	-0.322543	2.087766	0.523912
C31	C	-0.315794	2.228024	0.530694
C32	C	-0.326511	1.776140	0.291682
C33	C	-0.321212	1.783861	0.199142
C34	C	-0.312020	1.797521	1.029711
C35	C	-0.364473	1.720015	0.987129
C36	C	-0.359359	1.727616	0.892852
C37	C	-0.317133	1.789922	1.123997
H38	H	-0.271968	1.281830	0.574652
H39	H	-0.404752	1.236700	0.441421
N40	N	-0.250863	1.887907	0.986627
N41	N	-0.196947	1.851685	0.933440
H42	H	-0.153755	1.915520	0.903003
N43	N	-0.803661	1.887856	0.433116
N44	N	-0.754048	1.851571	0.375654
H45	H	-0.717437	1.915368	0.338611
H46	H	-0.861734	1.647935	0.572244
N47	N	-0.425622	1.629616	1.030224
N48	N	-0.429743	1.623493	1.107859
H49	H	-0.472928	1.559653	1.138300
