data_functionalizedCrystal
_audit_creation_method	'MofGen! by Chris Wilmer'
_symmetry_space_group_name_H-M	'P1'
_symmetry_Int_Tables_number	1
_symmetry_cell_setting	triclinic
loop_
_symmetry_equiv_pos_as_xyz
  x,y,z
_cell_length_a	10.540514
_cell_length_b	10.489716
_cell_length_c	9.016244
_cell_angle_alpha	90.001835
_cell_angle_beta	89.992124
_cell_angle_gamma	84.522148
loop_
_atom_site_label
_atom_site_type_symbol
_atom_site_fract_x
_atom_site_fract_y
_atom_site_fract_z
O1	O	1.685917	0.179608	-0.123344
O2	O	1.316501	0.196579	-0.123342
O3	O	1.509631	0.002492	-0.123348
O4	O	1.492787	0.373695	-0.123338
O5	O	1.509603	0.002496	0.123332
O6	O	1.316472	0.196583	0.123339
O7	O	1.685889	0.179612	0.123336
Cu8	Cu	1.501178	0.188098	0.145862
Cu9	Cu	1.501212	0.188093	-0.145867
O10	O	1.492759	0.373699	0.123343
C11	C	1.269183	0.195315	-0.000001
C12	C	1.128233	0.191528	-0.000001
C13	C	1.057532	0.330337	-0.000000
C14	C	0.910919	0.326444	-0.000568
C15	C	0.935909	0.116035	-0.140605
C16	C	1.082449	0.120912	-0.140715
C17	C	1.082819	0.118863	0.139817
C18	C	0.935840	0.117523	0.141657
C19	C	1.508351	-0.045038	-0.000013
C20	C	1.504565	-0.186668	-0.000026
C21	C	1.622999	-0.284367	-0.000013
C22	C	1.560430	-0.361717	-0.121636
C23	C	1.560374	-0.361676	0.121572
C24	C	1.442045	-0.262152	-0.121749
C25	C	1.442007	-0.262106	0.121568
C26	C	1.379351	-0.339407	-0.000084
C27	C	1.733207	0.180876	-0.000007
C28	C	1.874156	0.184663	-0.000017
C29	C	1.494038	0.421229	0.000004
C30	C	1.497825	0.562859	0.000008
N31	N	1.501164	0.188101	0.351048
N32	N	1.501236	0.188080	-0.351053
C33	C	1.397535	0.291577	0.586084
C34	C	1.397764	0.291964	0.414193
C35	C	1.633889	0.218368	0.413386
C36	C	1.633323	0.219101	0.585331
C37	C	1.473385	0.054019	0.585588
C38	C	1.470340	0.054888	0.413633
H39	H	1.086062	0.386648	0.100801
N40	N	1.375829	-0.204408	0.257762
H41	H	1.284294	-0.225410	0.258747
H42	H	1.420757	-0.240786	0.349525
N43	N	1.666889	0.346455	0.356334
H44	H	1.596060	0.385052	0.290122
H45	H	1.677820	0.405581	0.442847
H46	H	1.726015	-0.259712	-0.000138
H47	H	0.894835	0.167678	0.245666
H48	H	1.610437	-0.405224	-0.224461
N49	N	0.855650	0.397616	-0.134851
H50	H	0.760071	0.395382	-0.135778
H51	H	0.876779	0.489458	-0.130798
H52	H	0.911651	0.014180	0.150562
N53	N	1.266490	0.267838	0.640915
H54	H	1.201379	0.335303	0.599284
H55	H	1.245732	0.180346	0.607365
N56	N	1.097579	0.403843	-0.133337
H57	H	1.161321	0.347618	-0.193742
H58	H	1.020367	0.430747	-0.196246
N59	N	1.573519	-0.048038	0.639427
H60	H	1.660300	-0.027348	0.604625
H61	H	1.572107	-0.051140	0.751367
H62	H	1.712943	0.145044	0.372479
N63	N	1.375866	-0.204795	-0.258101
H64	H	1.378895	-0.108851	-0.257293
H65	H	1.420278	-0.242034	-0.349784
H66	H	1.276257	-0.363816	-0.000148
N67	N	0.906341	-0.021899	-0.147015
H68	H	0.858229	-0.036874	-0.241317
H69	H	0.988527	-0.079881	-0.145323
H70	H	1.610383	-0.405157	0.224392
N71	N	1.267136	0.267849	0.358352
H72	H	1.208886	0.256872	0.445435
H73	H	1.231335	0.342991	0.296300
N74	N	1.420971	0.422594	0.643223
H75	H	1.498466	0.415197	0.709661
H76	H	1.435798	0.480546	0.556747
N77	N	1.421234	0.423826	0.359848
H78	H	1.506381	0.446627	0.397676
H79	H	1.421355	0.424704	0.247837
H80	H	0.893316	0.163074	-0.245626
N81	N	1.665576	0.348651	0.638466
H82	H	1.752728	0.365152	0.600692
H83	H	1.600005	0.417104	0.599822
H84	H	1.712964	0.146756	0.626911
N85	N	1.119868	0.187293	-0.280446
H86	H	1.041203	0.213120	-0.341390
H87	H	1.162914	0.266067	-0.253333
H88	H	1.378646	0.025209	0.629035
N89	N	1.340962	0.024534	0.359773
H90	H	1.302473	0.096756	0.295087
H91	H	1.350333	-0.057548	0.300543
N92	N	1.563763	-0.052037	0.356730
H93	H	1.627679	-0.015477	0.289274
H94	H	1.609725	-0.096776	0.443237
H95	H	1.130452	0.018947	-0.146720
N96	N	0.854397	0.397942	0.132898
H97	H	0.875316	0.489855	0.128874
H98	H	0.758848	0.395456	0.132714
N99	N	1.124518	0.180061	0.281019
H100	H	1.173278	0.255517	0.255777
H101	H	1.047045	0.210241	0.342014
H102	H	1.130072	0.016476	0.141171
