data_functionalizedCrystal
_audit_creation_method	'MofGen! by Chris Wilmer'
_symmetry_space_group_name_H-M	'P1'
_symmetry_Int_Tables_number	1
_symmetry_cell_setting	triclinic
loop_
_symmetry_equiv_pos_as_xyz
  x,y,z
_cell_length_a	13.897448
_cell_length_b	17.077404
_cell_length_c	17.077396
_cell_angle_alpha	89.982940
_cell_angle_beta	90.028971
_cell_angle_gamma	89.982083
loop_
_atom_site_label
_atom_site_type_symbol
_atom_site_fract_x
_atom_site_fract_y
_atom_site_fract_z
Zn1	Zn	-0.383994	-1.200064	0.443849
Zn2	Zn	0.116006	-0.700064	0.943849
Zn3	Zn	-0.545311	-1.199989	0.312585
Zn4	Zn	-0.045311	-0.699989	0.812585
Zn5	Zn	-0.384032	-1.068801	0.312597
Zn6	Zn	0.115968	-0.568801	0.812597
Zn7	Zn	-0.545249	-1.068776	0.443809
Zn8	Zn	-0.045249	-0.568776	0.943809
O9	O	-0.464647	-1.134407	0.378210
O10	O	0.035353	-0.634407	0.878210
O11	O	-0.405403	-1.309901	0.426448
O12	O	0.094597	-0.809901	0.926448
O13	O	-0.523959	-1.182566	0.202740
O14	O	-0.023959	-0.682566	0.702740
O15	O	-0.249045	-1.086256	0.330029
O16	O	0.250955	-0.586256	0.830029
O17	O	-0.523922	-1.309846	0.330010
O18	O	-0.023922	-0.809846	0.830010
O19	O	-0.249017	-1.182694	0.426459
O20	O	0.250983	-0.682694	0.926459
O21	O	-0.405468	-1.086183	0.202748
O22	O	0.094532	-0.586183	0.702748
O23	O	-0.405408	-0.958951	0.329990
O24	O	0.094592	-0.458951	0.829990
O25	O	-0.523816	-1.086212	0.553661
O26	O	-0.023816	-0.586212	1.053661
O27	O	-0.523854	-0.958932	0.426391
O28	O	-0.023854	-0.458932	0.926391
O29	O	-0.405343	-1.182669	0.553690
O30	O	0.094657	-0.682669	1.053690
O31	O	-0.680284	-1.182541	0.329971
O32	O	-0.180284	-0.682541	0.829971
O33	O	-0.680239	-1.086139	0.426380
O34	O	-0.180239	-0.586139	0.926380
C35	C	-0.464629	-0.930460	0.378188
C36	C	0.035371	-0.430460	0.878188
C37	C	-0.464645	-0.843210	0.378198
C38	C	0.035355	-0.343210	0.878198
C39	C	-0.715261	-1.134350	0.378187
C40	C	-0.215261	-0.634350	0.878187
C41	C	-0.822475	-1.134397	0.378204
C42	C	-0.322475	-0.634397	0.878204
C43	C	-0.464568	-1.134446	0.582954
C44	C	0.035432	-0.634446	1.082954
C45	C	-0.464535	-1.134463	0.670204
C46	C	0.035465	-0.634463	1.170204
C47	C	-1.018770	-1.134480	0.378253
C48	C	-0.518770	-0.634480	0.878253
C49	C	-0.909537	-1.134432	0.378228
C50	C	-0.409537	-0.634432	0.878228
C51	C	-0.213054	-1.134486	0.378250
C52	C	0.286946	-0.634486	0.878250
C53	C	-0.105840	-1.134520	0.378267
C54	C	0.394160	-0.634520	0.878267
C55	C	-0.464665	-1.339152	0.378232
C56	C	0.035335	-0.839152	0.878232
C57	C	-0.464673	-1.426401	0.378242
C58	C	0.035327	-0.926401	0.878242
C59	C	-0.526412	-0.802230	0.428313
C60	C	-0.026412	-0.302230	0.928313
C61	C	-0.526415	-0.720250	0.428326
C62	C	-0.026415	-0.220250	0.928326
C63	C	-0.464653	-0.679250	0.378218
C64	C	0.035347	-0.179250	0.878218
C65	C	-0.402879	-0.720236	0.328100
C66	C	0.097121	-0.220236	0.828100
C67	C	-0.402873	-0.802215	0.328092
C68	C	0.097127	-0.302215	0.828092
C69	C	-0.402898	-0.549366	0.328119
C70	C	0.097102	-0.049366	0.828119
C71	C	-0.402905	-0.467381	0.328126
C72	C	0.097095	0.032619	0.828126
C73	C	-0.526440	-0.467401	0.428353
C74	C	-0.026440	0.032599	0.928353
C75	C	-0.526433	-0.549380	0.428345
C76	C	-0.026433	-0.049380	0.928345
C77	C	-0.464660	-0.590359	0.378226
C78	C	0.035340	-0.090359	0.878226
C79	C	-0.464655	-1.134414	0.174262
C80	C	0.035345	-0.634414	0.674262
C81	C	-0.464416	-1.134550	0.087013
C82	C	0.035584	-0.634550	0.587013
C83	C	-0.526121	-1.184721	1.046017
C84	C	-0.026121	-0.684721	1.546017
C85	C	-0.526149	-1.184701	0.964036
C86	C	-0.026149	-0.684701	1.464036
C87	C	-0.464467	-1.134513	0.923053
C88	C	0.035533	-0.634513	1.423053
C89	C	-0.402760	-1.084337	0.964055
C90	C	0.097240	-0.584337	1.464055
C91	C	-0.402737	-1.084353	1.046034
C92	C	0.097263	-0.584353	1.546034
C93	C	-0.402809	-1.084307	0.793185
C94	C	0.097191	-0.584307	1.293185
C95	C	-0.402831	-1.084292	0.711200
C96	C	0.097169	-0.584292	1.211200
C97	C	-0.526221	-1.184655	0.711187
C98	C	-0.026221	-0.684655	1.211187
C99	C	-0.526199	-1.184671	0.793166
C100	C	-0.026199	-0.684671	1.293166
C101	C	-0.464490	-1.134496	0.834162
C102	C	0.035510	-0.634496	1.334162
H103	H	-0.576709	-0.835606	0.469114
H104	H	-0.076709	-0.335606	0.969114
H105	H	-0.352587	-0.686847	0.287305
H106	H	0.147413	-0.186847	0.787305
O107	O	-0.343027	-0.427504	0.279397
O108	O	0.156973	0.072496	0.779397
C109	C	-0.397839	-0.380021	0.228632
C110	C	0.102161	0.119979	0.728632
H111	H	-0.473794	-0.404713	0.223625
H112	H	0.026206	0.095287	0.723625
H113	H	-0.401229	-0.317910	0.252930
H114	H	0.098771	0.182090	0.752930
C115	C	-0.257243	-0.348371	0.153268
C116	C	0.242757	0.151629	0.653268
C117	C	-0.350529	-0.378702	0.147114
C118	C	0.149471	0.121298	0.647114
H119	H	-0.228059	-0.347554	0.102985
H120	H	0.271941	0.152446	0.602985
H121	H	-0.220314	-0.380359	0.187471
H122	H	0.279686	0.119641	0.687471
H123	H	-0.260081	-0.296615	0.173520
H124	H	0.239919	0.203385	0.673520
H125	H	-0.347690	-0.430460	0.126873
H126	H	0.152310	0.069540	0.626873
H127	H	-0.387457	-0.346723	0.112906
H128	H	0.112543	0.153277	0.612906
O129	O	-0.586293	-0.589293	0.477058
O130	O	-0.086293	-0.089293	0.977058
C131	C	-0.531443	-0.636728	0.527842
C132	C	-0.031443	-0.136728	1.027842
H133	H	-0.458301	-0.649009	0.500258
H134	H	0.041699	-0.149009	1.000258
H135	H	-0.520936	-0.605159	0.586032
H136	H	-0.020936	-0.105159	1.086032
C137	C	-0.674360	-0.699512	0.575853
C138	C	-0.174360	-0.199512	1.075853
C139	C	-0.584528	-0.714602	0.541970
C140	C	-0.084528	-0.214602	1.041970
H141	H	-0.707106	-0.747547	0.584571
H142	H	-0.207106	-0.247547	1.084571
H143	H	-0.711314	-0.667553	0.541641
H144	H	-0.211314	-0.167553	1.041641
H145	H	-0.665591	-0.673203	0.624341
H146	H	-0.165591	-0.173203	1.124341
H147	H	-0.593298	-0.740902	0.493479
H148	H	-0.093298	-0.240902	0.993479
H149	H	-0.547576	-0.746568	0.576174
H150	H	-0.047576	-0.246568	1.076174
H151	H	-0.576735	-0.434031	0.469164
H152	H	-0.076735	0.065969	0.969164
H153	H	-0.352560	-1.043449	0.826561
H154	H	0.147440	-0.543449	1.326561
H155	H	-0.576421	-1.225542	0.826532
H156	H	-0.076421	-0.725542	1.326532
O157	O	-0.585950	-1.233477	0.924124
O158	O	-0.085950	-0.733477	1.424124
C159	C	-0.531048	-1.284193	0.876733
C160	C	-0.031048	-0.784193	1.376733
H161	H	-0.457950	-1.256526	0.864468
H162	H	0.042050	-0.756526	1.364468
H163	H	-0.520444	-1.342376	0.908332
H164	H	-0.020444	-0.842376	1.408332
C165	C	-0.673921	-1.332352	0.813914
C166	C	-0.173921	-0.832352	1.313914
C167	C	-0.584144	-1.298368	0.798844
C168	C	-0.084144	-0.798368	1.298844
H169	H	-0.706675	-1.341099	0.765870
H170	H	-0.206675	-0.841099	1.265870
H171	H	-0.710911	-1.298186	0.845844
H172	H	-0.210911	-0.798186	1.345844
H173	H	-0.665073	-1.380834	0.840249
H174	H	-0.165073	-0.880834	1.340249
H175	H	-0.592994	-1.249882	0.772519
H176	H	-0.092994	-0.749882	1.272519
H177	H	-0.547157	-1.332526	0.766908
H178	H	-0.047157	-0.832526	1.266908
H179	H	-0.576713	-0.686888	0.469134
H180	H	-0.076713	-0.186888	0.969134
H181	H	-0.576345	-1.225593	1.079379
H182	H	-0.076345	-0.725593	1.579379
O183	O	-0.342867	-0.589053	0.279355
O184	O	0.157133	-0.089053	0.779355
C185	C	-0.288344	-0.535289	0.235139
C186	C	0.211656	-0.035289	0.735139
H187	H	-0.327850	-0.476840	0.232378
H188	H	0.172150	0.023160	0.732378
H189	H	-0.215124	-0.526602	0.263981
H190	H	0.284876	-0.026602	0.763981
C191	C	-0.225809	-0.639037	0.154998
C192	C	0.274191	-0.139037	0.654998
C193	C	-0.274334	-0.567251	0.151602
C194	C	0.225666	-0.067251	0.651602
H195	H	-0.217162	-0.658754	0.103469
H196	H	0.282838	-0.158754	0.603469
H197	H	-0.262539	-0.675260	0.184788
H198	H	0.237461	-0.175260	0.684788
H199	H	-0.164797	-0.631788	0.179036
H200	H	0.335203	-0.131788	0.679036
H201	H	-0.335349	-0.574503	0.127573
H202	H	0.164651	-0.074503	0.627573
H203	H	-0.237614	-0.531030	0.121805
H204	H	0.262386	-0.031030	0.621805
H205	H	-0.352542	-1.043470	0.930680
H206	H	0.147458	-0.543470	1.430680
H207	H	-0.352601	-1.043427	0.677834
H208	H	0.147399	-0.543427	1.177834
O209	O	-0.342705	-1.035593	1.085739
O210	O	0.157295	-0.535593	1.585739
C211	C	-0.288283	-0.991279	1.031989
C212	C	0.211717	-0.491279	1.531989
H213	H	-0.284961	-1.023421	0.973556
H214	H	0.215039	-0.523421	1.473556
H215	H	-0.323603	-0.931649	1.023255
H216	H	0.176397	-0.431649	1.523255
C217	C	-0.189695	-0.940525	1.135777
C218	C	0.310305	-0.440525	1.635777
C219	C	-0.185607	-0.980007	1.064010
C220	C	0.314393	-0.480007	1.564010
H221	H	-0.126360	-0.933568	1.155529
H222	H	0.373640	-0.433568	1.655529
H223	H	-0.226362	-0.970378	1.171990
H224	H	0.273638	-0.470378	1.671990
H225	H	-0.219132	-0.890838	1.128488
H226	H	0.280868	-0.390838	1.628488
H227	H	-0.156181	-1.029696	1.071301
H228	H	0.343819	-0.529696	1.571301
H229	H	-0.148933	-0.950162	1.027799
H230	H	0.351067	-0.450162	1.527799
H231	H	-0.352570	-0.835579	0.287287
H232	H	0.147430	-0.335579	0.787287
H233	H	-0.576467	-1.225510	0.677804
H234	H	-0.076467	-0.725510	1.177804
