data_functionalizedCrystal
_audit_creation_method	'MofGen! by Chris Wilmer'
_symmetry_space_group_name_H-M	'P1'
_symmetry_Int_Tables_number	1
_symmetry_cell_setting	triclinic
loop_
_symmetry_equiv_pos_as_xyz
  x,y,z
_cell_length_a	20.919309
_cell_length_b	20.919309
_cell_length_c	20.919309
_cell_angle_alpha	60.101124
_cell_angle_beta	90.173912
_cell_angle_gamma	60.099716
loop_
_atom_site_label
_atom_site_type_symbol
_atom_site_fract_x
_atom_site_fract_y
_atom_site_fract_z
Zr1	Zr	0.671047	0.642241	-0.079791
O2	O	0.574397	0.774997	-0.186785
O3	O	0.696808	0.509485	-0.043684
O4	O	0.707153	0.631893	-0.176441
O5	O	0.560291	0.660751	0.046929
O6	O	0.816274	0.623730	-0.172043
O7	O	0.564052	0.652588	-0.054029
O8	O	0.797768	0.404764	0.065434
O9	O	0.578797	0.879717	-0.190548
O10	O	0.793903	0.557997	-0.029000
O11	O	0.709661	0.570180	0.043063
O12	O	0.721841	0.714300	-0.113241
O13	O	0.637600	0.726483	-0.041179
Zr14	Zr	0.839084	0.642240	0.088238
Zr15	Zr	0.845082	0.629222	-0.072778
Zr16	Zr	0.665050	0.655258	0.081225
Zr17	Zr	0.678065	0.809257	-0.085792
Zr18	Zr	0.832067	0.475223	0.094239
O19	O	0.813324	0.774996	0.052132
O20	O	0.821851	0.756486	-0.176813
O21	O	0.565869	0.793506	0.042159
O22	O	0.935735	0.509484	0.195232
O23	O	0.944262	0.490974	-0.033712
O24	O	0.688280	0.527994	0.185260
O25	O	0.949840	0.623730	-0.038482
O26	O	0.802978	0.652588	0.184888
O27	O	0.693858	0.660750	0.180490
O28	O	0.946080	0.631892	0.062476
O29	O	0.717131	0.869369	-0.184973
O30	O	0.793001	0.415111	0.193420
O31	O	0.931335	0.404764	0.198995
O32	O	0.936102	0.394416	0.071008
O33	O	0.574030	0.890064	-0.062561
O34	O	0.712364	0.879716	-0.056986
O35	O	0.788290	0.570180	0.121688
O36	O	0.872532	0.557997	0.049626
O37	O	0.800470	0.714300	-0.034615
O38	O	0.716229	0.726483	0.037447
C39	C	0.746288	0.433328	0.011730
C40	C	0.743309	0.362425	0.014277
C41	C	0.785881	0.322756	-0.022142
C42	C	0.783083	0.256130	-0.019741
C43	C	0.737709	0.229181	0.019075
C44	C	0.695136	0.268853	0.055498
C45	C	0.697939	0.335473	0.053102
C46	C	0.727052	0.028347	0.028197
C47	C	0.724251	-0.038275	0.030589
C48	C	0.812199	-0.050995	-0.044649
C49	C	0.814994	0.015630	-0.047046
C50	C	0.772424	0.055294	-0.010619
C51	C	0.734847	0.161081	0.021528
C52	C	0.775292	0.123387	-0.013068
C53	C	0.537375	0.658524	-0.004549
C54	C	0.463493	0.664051	-0.007527
C55	C	0.466397	0.585061	0.035044
C56	C	0.396974	0.590259	0.032244
C57	C	0.324649	0.674448	-0.013130
C58	C	0.321747	0.753444	-0.055702
C59	C	0.391169	0.748246	-0.052898
C60	C	0.113158	0.694227	-0.023794
C61	C	0.043735	0.699420	-0.026597
C62	C	0.118967	0.536234	0.061351
C63	C	0.188386	0.531042	0.064148
C64	C	0.185479	0.610039	0.021580
C65	C	0.253687	0.679763	-0.015995
C66	C	0.256440	0.604723	0.024449
C67	C	0.972756	0.625956	0.012996
C68	C	1.046638	0.620430	0.015974
C69	C	0.762568	0.625957	-0.197183
C70	C	0.765114	0.620431	-0.265539
C71	C	0.763844	0.851152	-0.003282
C72	C	0.766823	0.922055	-0.005830
C73	C	0.728696	0.699421	-0.341625
C74	C	0.731099	0.694222	-0.405850
C75	C	0.769915	0.610033	-0.393986
C76	C	0.806338	0.531037	-0.317891
C77	C	0.803939	0.536236	-0.253668
C78	C	0.779042	0.590253	-0.585697
C79	C	0.781436	0.585060	-0.649927
C80	C	0.706198	0.748246	-0.737881
C81	C	0.703799	0.753438	-0.673654
C82	C	0.740225	0.674441	-0.597565
C83	C	0.772369	0.604717	-0.459632
C84	C	0.737775	0.679758	-0.531920
C85	C	0.747564	0.658524	0.205630
C86	C	0.745018	0.664050	0.273986
C87	C	0.963979	0.417044	0.020502
C88	C	1.034882	0.340614	0.026027
C89	C	0.738786	0.449611	0.213136
C90	C	0.733261	0.384235	0.284039
C91	C	0.956477	0.433327	0.221909
C92	C	1.024833	0.362424	0.295790
C93	C	0.553655	0.851153	-0.213462
C94	C	0.485298	0.922056	-0.287342
C95	C	0.546153	0.867437	-0.012055
C96	C	0.475250	0.943866	-0.017580
C97	C	0.771346	0.834869	-0.204689
C98	C	0.776871	0.900246	-0.275592
C99	C	1.027135	0.304722	-0.012427
C100	C	1.093751	0.232917	-0.007251
C101	C	1.168111	0.197001	0.036383
C102	C	1.175856	0.232901	0.074838
C103	C	1.109242	0.304709	0.069657
C104	C	0.771709	0.353534	0.358385
C105	C	0.766515	0.292116	0.425012
C106	C	0.722876	0.261395	0.417292
C107	C	0.684423	0.292102	0.342938
C108	C	0.689613	0.353524	0.276313
C109	C	1.100915	0.322767	0.292869
C110	C	1.165151	0.256155	0.362282
C111	C	1.153303	0.229195	0.434614
C112	C	1.077214	0.268859	0.437532
C113	C	1.012980	0.335475	0.368120
C114	C	0.409217	0.961721	-0.284422
C115	C	0.344982	1.028355	-0.353835
C116	C	0.356830	1.055317	-0.426168
C117	C	0.432919	1.015649	-0.429086
C118	C	0.497153	0.949022	-0.359674
C119	C	0.482997	0.979765	0.020867
C120	C	0.416383	1.051587	0.015673
C121	C	0.342023	1.087505	-0.027964
C122	C	0.334278	1.051603	-0.066415
C123	C	0.400891	0.979786	-0.061226
C124	C	0.820516	0.930947	-0.267847
C125	C	0.825723	0.992365	-0.334461
C126	C	0.787279	1.023087	-0.408820
C127	C	0.743632	0.992379	-0.416563
C128	C	0.738431	0.930957	-0.349950
H129	H	0.817749	0.223831	-0.049395
C130	C	0.824137	0.492450	-0.636878
H131	H	0.820338	0.500671	-0.686026
H132	H	0.877660	0.456900	-0.606736
H133	H	0.800739	0.462652	-0.609833
H134	H	0.697082	0.767977	-0.351295
H135	H	1.205614	0.174951	0.491127
C136	C	0.267941	0.438437	0.114065
H137	H	0.308870	0.446654	0.109634
H138	H	0.270691	0.408642	0.167256
H139	H	0.273348	0.402886	0.096088
C140	C	1.248839	0.212527	0.359058
H141	H	1.246689	0.238116	0.306037
H142	H	1.277282	0.223184	0.383236
H143	H	1.274172	0.149362	0.385901
C144	C	1.064191	0.239189	0.517100
H145	H	1.113347	0.193828	0.558015
H146	H	1.037147	0.289616	0.519870
H147	H	1.034055	0.215797	0.522509
H148	H	0.951032	0.367756	0.370509
C149	C	0.564787	0.940268	0.068866
H150	H	0.603357	0.892349	0.066461
H151	H	0.573607	0.986070	0.047966
H152	H	0.567856	0.918007	0.121790
C153	C	0.864911	0.045267	-0.089736
H154	H	0.860478	0.090629	-0.085951
H155	H	0.918102	-0.005174	-0.066341
H156	H	0.846934	0.068648	-0.143262
C157	C	0.701293	1.026235	-0.498362
H158	H	0.674539	0.999170	-0.493444
H159	H	0.664719	1.089982	-0.528885
H160	H	0.738490	1.010441	-0.523220
C161	C	0.261293	1.071970	-0.350611
H162	H	0.263442	1.046354	-0.297590
H163	H	0.235954	1.135130	-0.377440
H164	H	0.232857	1.061315	-0.374803
H165	H	1.110577	0.344707	0.233980
H166	H	0.718656	0.211381	0.471549
H167	H	0.808703	0.525928	-0.523750
C168	C	0.396169	0.932084	-0.204867
H169	H	0.341655	0.965267	-0.213081
H170	H	0.417838	0.869454	-0.174891
H171	H	0.420952	0.943274	-0.177556
H172	H	0.422705	1.080807	0.046989
C173	C	0.286170	1.128603	-0.502516
H174	H	0.304118	1.138988	-0.546017
H175	H	0.253849	1.109112	-0.502993
H176	H	0.256957	1.182929	-0.505644
C177	C	1.257652	0.193377	0.122848
H178	H	1.252733	0.225033	0.145011
H179	H	1.282455	0.131332	0.163476
H180	H	1.288227	0.199392	0.089671
C181	C	0.445941	1.045308	-0.508653
H182	H	0.396785	1.090661	-0.549568
H183	H	0.476087	1.068686	-0.514073
H184	H	0.472974	0.994867	-0.511411
C185	C	0.862810	0.897158	-0.186059
H186	H	0.853462	0.856184	-0.147489
H187	H	0.917433	0.867437	-0.177240
H188	H	0.843617	0.947015	-0.182991
C189	C	0.793000	1.090657	-0.482088
H190	H	0.824495	1.104545	-0.466819
H191	H	0.815924	1.064779	-0.509448
H192	H	0.742106	1.144347	-0.515191
C193	C	0.819703	0.387328	0.366891
H194	H	0.841844	0.360250	0.420714
H195	H	0.860348	0.371510	0.345491
H196	H	0.786513	0.451080	0.339729
C197	C	0.835796	0.352391	-0.064836
H198	H	0.860756	0.319213	-0.086174
H199	H	0.803140	0.415022	-0.105793
H200	H	0.874303	0.341198	-0.028868
H201	H	0.559100	0.916726	-0.362060
H202	H	0.846859	-0.083296	-0.074305
C203	C	0.651107	0.379113	0.093159
H204	H	0.623676	0.353528	0.116613
H205	H	0.685954	0.368459	0.132245
H206	H	0.614785	0.442277	0.055324
C207	C	0.268755	1.166499	-0.033663
H208	H	0.284025	1.182725	-0.004508
H209	H	0.241397	1.216782	-0.086901
H210	H	0.235648	1.148714	-0.013079
H211	H	0.833594	0.471913	-0.191715
C212	C	0.252479	1.091113	-0.114406
H213	H	0.213921	1.139017	-0.111977
H214	H	0.249393	1.113380	-0.167331
H215	H	0.243652	1.045312	-0.093500
C216	C	0.400171	0.503369	0.079065
H217	H	0.453188	0.452484	0.106481
H218	H	0.373329	0.504872	0.115385
H219	H	0.375979	0.499135	0.044208
C220	C	0.808824	0.258340	0.506790
H221	H	0.835566	0.285424	0.501841
H222	H	0.771606	0.274166	0.531616
H223	H	0.845416	0.194588	0.537362
H224	H	0.394572	0.950560	-0.092532
H225	H	0.861263	1.017361	-0.328141
H226	H	0.702887	0.905967	-0.356267
H227	H	0.706174	0.748304	-0.541576
H228	H	1.087429	0.203696	-0.038567
C229	C	0.680219	0.071977	0.068257
H230	H	0.652789	0.046392	0.091707
H231	H	0.715063	0.061324	0.107346
H232	H	0.643897	0.135142	0.030422
C233	C	0.674389	-0.067972	0.073344
H234	H	0.649458	-0.034830	0.094718
H235	H	0.635873	-0.056816	0.037423
H236	H	0.707099	-0.130609	0.114295
H237	H	0.803973	0.536170	-0.449980
H238	H	0.697903	0.139131	0.053131
C239	C	0.849033	0.438430	-0.304840
H240	H	0.845239	0.446646	-0.353986
H241	H	0.902555	0.402879	-0.274694
H242	H	0.825630	0.408639	-0.277797
H243	H	0.672193	0.821994	-0.683322
H244	H	0.676542	0.812560	-0.799838
H245	H	0.658196	0.246901	0.087107
C246	C	0.109954	0.781119	-0.070626
H247	H	0.056937	0.832000	-0.098057
H248	H	0.134141	0.785367	-0.035782
H249	H	0.136798	0.779605	-0.106946
C250	C	0.387978	0.835135	-0.099692
H251	H	0.439680	0.819983	-0.091508
H252	H	0.362473	0.866668	-0.153809
H253	H	0.359821	0.872355	-0.082604
C254	C	0.122160	0.449347	0.108181
H255	H	0.070458	0.464497	0.100020
H256	H	0.150320	0.412089	0.091131
H257	H	0.147663	0.417854	0.162293
C258	C	-0.035824	0.792033	-0.076502
H259	H	-0.027614	0.838337	-0.101446
H260	H	-0.063146	0.794583	-0.115009
H261	H	-0.065789	0.800316	-0.043830
C262	C	0.545951	0.492454	0.084955
H263	H	0.586882	0.500667	0.080524
H264	H	0.548701	0.462657	0.138145
H265	H	0.551354	0.456907	0.066975
H266	H	0.966594	0.333962	-0.047968
C267	C	1.117772	0.344173	0.111971
H268	H	1.171600	0.312487	0.138704
H269	H	1.096369	0.406220	0.074758
H270	H	1.090621	0.338139	0.148571
H271	H	0.262854	0.821993	-0.092643
H272	H	1.222346	0.138530	0.040596
H273	H	0.812239	0.145328	-0.044668
H274	H	0.194792	0.748310	-0.052939
C275	C	0.691035	0.781112	-0.489543
H276	H	0.667566	0.831996	-0.487410
H277	H	0.728863	0.779605	-0.514875
H278	H	0.651946	0.785348	-0.517973
C279	C	0.636434	0.258293	0.334457
H280	H	0.638863	0.217307	0.384789
H281	H	0.583508	0.308131	0.303800
H282	H	0.657342	0.228560	0.309562
H283	H	0.315329	0.536177	0.061396
H284	H	0.658306	0.378512	0.215780
