data_functionalizedCrystal
_audit_creation_method	'MofGen! by Chris Wilmer'
_symmetry_space_group_name_H-M	'P1'
_symmetry_Int_Tables_number	1
_symmetry_cell_setting	triclinic
loop_
_symmetry_equiv_pos_as_xyz
  x,y,z
_cell_length_a	6.817900
_cell_length_b	11.102188
_cell_length_c	12.200875
_cell_angle_alpha	92.493457
_cell_angle_beta	107.143593
_cell_angle_gamma	108.603875
loop_
_atom_site_label
_atom_site_type_symbol
_atom_site_fract_x
_atom_site_fract_y
_atom_site_fract_z
V1	V	-4.094460	-0.176128	-0.357661
O2	O	-4.053827	0.008167	-0.350853
O3	O	-4.071344	-0.348946	-0.355215
O4	O	-4.063800	-0.173549	-0.513649
O5	O	-4.061423	-0.168445	-0.191321
V6	V	-4.572513	-0.154068	-0.337765
O7	O	-4.367717	-0.224516	-0.401304
O8	O	-4.749453	-0.105680	-0.294123
O9	O	-4.372422	0.018750	-0.340211
O10	O	-4.730542	-0.338362	-0.344574
O11	O	-4.722946	-0.161751	-0.504105
O12	O	-4.379966	-0.156647	-0.181777
C13	C	-3.921922	-0.391071	-0.349573
C14	C	-3.984427	-0.532353	-0.348613
C15	C	-3.912297	-0.167333	-0.551670
C16	C	-3.968681	-0.166368	-0.679191
C17	C	-3.958635	-0.580493	-0.243113
C18	C	-4.017389	-0.713244	-0.242215
C19	C	-4.127719	-0.749703	-0.452326
C20	C	-4.068980	-0.616955	-0.453223
C21	C	-4.149487	-0.876921	-0.118458
C22	C	-4.123658	-0.925064	-0.012951
C23	C	-3.937777	-0.861725	0.083188
C24	C	-3.777674	-0.750242	0.073828
C25	C	-3.803488	-0.702106	-0.031680
C26	C	-3.989413	-0.765444	-0.127817
C27	C	-3.936861	-0.453273	-0.576973
C28	C	-3.962660	-0.405134	-0.682481
C29	C	-4.148533	-0.468472	-0.778630
C30	C	-4.308614	-0.579960	-0.769280
C31	C	-4.282815	-0.628099	-0.663772
C32	C	-4.096941	-0.564752	-0.567622
C33	C	-4.071870	-0.164603	-0.912666
C34	C	-4.014440	-0.165585	-0.782744
C35	C	-4.185187	0.060868	-0.345851
C36	C	-4.101921	0.202149	-0.346818
C37	C	-4.194811	-0.162867	-0.143750
C38	C	-4.117665	-0.163826	-0.016228
H39	H	-3.673129	-0.611343	-0.039303
H40	H	-4.196565	-0.818602	-0.537496
H41	H	-3.626306	-0.698687	0.152114
N42	N	-3.799093	-0.291270	-0.692025
N43	N	-3.633132	-0.234728	-0.606172
H44	H	-3.517607	-0.154315	-0.612912
H45	H	-3.785499	-0.401690	-0.498683
H46	H	-3.889789	-0.511612	-0.157932
N47	N	-4.174827	-0.419301	-0.886407
N48	N	-4.031870	-0.319776	-0.894756
H49	H	-4.050439	-0.285054	-0.970873
N50	N	-4.446209	-0.742081	-0.654280
N51	N	-4.612068	-0.798693	-0.740164
H52	H	-4.727413	-0.879229	-0.733478
N53	N	-4.287207	-1.038940	-0.003409
N54	N	-4.453188	-1.095478	-0.089254
H55	H	-4.568684	-1.175906	-0.082514
H56	H	-3.916753	-0.900932	0.169094
H57	H	-4.300871	-0.928493	-0.196731
H58	H	-4.459961	-0.631537	-0.847574
