data_functionalizedCrystal
_audit_creation_method	'MofGen! by Chris Wilmer'
_symmetry_space_group_name_H-M	'P1'
_symmetry_Int_Tables_number	1
_symmetry_cell_setting	triclinic
loop_
_symmetry_equiv_pos_as_xyz
  x,y,z
_cell_length_a	10.654538
_cell_length_b	10.654550
_cell_length_c	9.130313
_cell_angle_alpha	89.999112
_cell_angle_beta	90.007796
_cell_angle_gamma	95.517502
loop_
_atom_site_label
_atom_site_type_symbol
_atom_site_fract_x
_atom_site_fract_y
_atom_site_fract_z
O1	O	-1.667852	0.176323	-0.121878
O2	O	-1.302372	0.193145	-0.121862
O3	O	-1.493515	0.001994	-0.121865
O4	O	-1.476709	0.367474	-0.121875
O5	O	-1.493494	0.001999	0.121734
O6	O	-1.302351	0.193149	0.121736
O7	O	-1.667831	0.176327	0.121721
Cu8	Cu	-1.485089	0.184738	0.143971
Cu9	Cu	-1.485114	0.184734	-0.144113
O10	O	-1.476688	0.367478	0.121724
C11	C	-1.255563	0.191915	-0.000061
C12	C	-1.116119	0.188229	-0.000055
C13	C	-1.492270	-0.044801	-0.000067
C14	C	-1.488578	-0.184245	-0.000072
C15	C	-1.050635	0.186482	-0.132845
C16	C	-0.919614	0.183009	-0.132853
C17	C	-0.919572	0.183024	0.132732
C18	C	-1.050590	0.186506	0.132738
C19	C	-1.116164	0.188205	-0.265638
C20	C	-1.050681	0.186457	-0.398440
C21	C	-0.919660	0.182984	-0.398447
C22	C	-0.854122	0.181258	-0.265654
C23	C	-1.601121	-0.263735	-0.000073
C24	C	-1.597644	-0.394756	-0.000083
C25	C	-1.369073	-0.366783	-0.000086
C26	C	-1.372551	-0.235764	-0.000086
C27	C	-1.717148	-0.212215	-0.000059
C28	C	-1.829699	-0.291707	-0.000057
C29	C	-1.826223	-0.422728	-0.000067
C30	C	-1.710195	-0.474256	-0.000079
C31	C	-0.714639	0.177565	-0.000076
C32	C	-0.854080	0.181273	-0.000069
C33	C	-1.477932	0.414274	-0.000077
C34	C	-1.481624	0.553717	-0.000082
N35	N	-1.485081	0.184741	0.346594
C36	C	-1.400430	0.269346	0.423285
C37	C	-1.400453	0.269345	0.576621
C38	C	-1.569781	0.100125	0.576563
C39	C	-1.569763	0.100132	0.423229
C40	C	-1.315748	0.353955	0.346649
C41	C	-1.231089	0.438565	0.423340
C42	C	-1.231112	0.438565	0.576677
C43	C	-1.315793	0.353954	0.653323
N44	N	-1.485121	0.184733	0.653265
H45	H	-1.222849	0.191031	-0.265647
C46	C	-1.315828	0.353956	0.821990
H47	H	-1.378386	0.291452	0.856649
H48	H	-1.235419	0.336026	0.856713
H49	H	-1.333725	0.434393	0.856663
C50	C	-1.241452	-0.423457	-0.000092
H51	H	-1.174922	-0.357349	-0.000105
H52	H	-1.235334	-0.473988	0.084855
H53	H	-1.235359	-0.473983	-0.085053
C54	C	-0.847474	0.181204	0.278789
H55	H	-0.760064	0.178896	0.259766
H56	H	-0.860015	0.254913	0.333285
H57	H	-0.877852	0.108684	0.333418
C58	C	-1.662909	0.007051	0.660870
H59	H	-1.650786	0.019155	0.763174
H60	H	-1.746842	0.021462	0.635721
H61	H	-1.648530	-0.076898	0.635740
H62	H	-1.924165	-0.249743	-0.000085
C63	C	-1.950020	-0.510164	-0.000069
H64	H	-2.019615	-0.460712	-0.000050
H65	H	-1.953432	-0.561856	-0.085017
H66	H	-1.953400	-0.561855	0.084890
C67	C	-1.720970	-0.068097	-0.000052
H68	H	-1.637325	-0.028133	-0.000046
H69	H	-1.763980	-0.043617	-0.084993
H70	H	-1.763946	-0.043629	0.084914
H71	H	-1.707373	-0.580943	-0.000103
C72	C	-1.248758	-0.148320	-0.000084
H73	H	-1.179159	-0.197766	-0.000072
H74	H	-1.245378	-0.096629	-0.085032
H75	H	-1.245357	-0.096630	0.084875
C76	C	-1.122765	0.188360	-0.544499
H77	H	-1.210176	0.190668	-0.525480
H78	H	-1.092357	0.260897	-0.599068
H79	H	-1.110248	0.114669	-0.599053
C80	C	-1.315727	0.353957	0.177985
H81	H	-1.378267	0.291446	0.143285
H82	H	-1.333594	0.434390	0.143286
H83	H	-1.235304	0.336008	0.143328
C84	C	-1.137954	0.531634	0.339037
H85	H	-1.150055	0.519513	0.236732
H86	H	-1.152318	0.615581	0.364159
H87	H	-1.054019	0.517208	0.364197
H88	H	-0.747434	0.178444	-0.265671
C89	C	-1.137992	0.531628	0.661033
H90	H	-1.087552	0.582007	0.593427
H91	H	-1.183616	0.584333	0.720839
H92	H	-1.085332	0.485945	0.720860
H93	H	-0.866345	0.181573	-0.506580
C94	C	-1.662872	0.007065	0.338864
H95	H	-1.713295	-0.043339	0.406463
H96	H	-1.715530	0.052733	0.279031
H97	H	-1.617226	-0.045635	0.279063
H98	H	-1.103907	0.187935	0.240867
