data_functionalizedCrystal
_audit_creation_method	'MofGen! by Chris Wilmer'
_symmetry_space_group_name_H-M	'P1'
_symmetry_Int_Tables_number	1
_symmetry_cell_setting	triclinic
loop_
_symmetry_equiv_pos_as_xyz
  x,y,z
_cell_length_a	11.026607
_cell_length_b	8.559649
_cell_length_c	10.066280
_cell_angle_alpha	100.819749
_cell_angle_beta	82.321477
_cell_angle_gamma	90.817659
loop_
_atom_site_label
_atom_site_type_symbol
_atom_site_fract_x
_atom_site_fract_y
_atom_site_fract_z
O1	O	1.535861	-0.626825	0.113475
O2	O	1.189470	-0.552623	0.113478
O3	O	1.393183	-0.365900	0.113475
O4	O	1.332148	-0.813547	0.113478
O5	O	1.420317	-0.415510	-0.113500
O6	O	1.216604	-0.602233	-0.113496
O7	O	1.562995	-0.676435	-0.113499
Zn8	Zn	1.394108	-0.647211	-0.149535
Zn9	Zn	1.358357	-0.581847	0.149513
O10	O	1.359282	-0.863158	-0.113496
C11	C	1.159102	-0.563739	-0.000009
C12	C	1.028190	-0.522932	-0.000007
N13	N	1.418515	-0.691821	-0.353627
C14	C	1.411375	-0.332505	-0.000010
C15	C	1.425142	-0.159084	-0.000003
C16	C	0.943884	-0.635606	-0.000006
C17	C	0.808580	-0.593432	-0.000004
C18	C	1.593363	-0.665318	-0.000010
C19	C	1.724273	-0.706123	-0.000002
C20	C	1.341089	-0.896552	-0.000009
C21	C	1.327321	-1.069971	-0.000007
C22	C	1.385641	-0.631693	-0.578588
C23	C	1.366827	-0.597341	-0.421431
N24	N	1.333960	-0.537227	0.353606
H25	H	0.971876	-0.763294	-0.000012
C26	C	1.199945	-0.146131	0.000002
N27	N	1.104004	-0.203504	0.000012
C28	C	1.552524	-0.082918	-0.000011
N29	N	1.648467	-0.025548	-0.000016
H30	H	1.443809	-0.738005	-0.636884
C31	C	1.288301	-0.453649	-0.342687
N32	N	1.229183	-0.345398	-0.283375
C33	C	1.255437	-0.393542	-0.567646
N34	N	1.196319	-0.285291	-0.508334
C35	C	0.770778	-0.420921	-0.000005
N36	N	0.742303	-0.290987	-0.000004
C37	C	0.990382	-0.350428	-0.000009
N38	N	0.961907	-0.220495	-0.000007
C39	C	0.762072	-0.878636	-0.000000
N40	N	0.790543	-1.008570	0.000005
C41	C	1.497112	-0.835449	-0.432368
N42	N	1.556313	-0.943626	-0.491677
