data_functionalizedCrystal
_audit_creation_method	'MofGen! by Chris Wilmer'
_symmetry_space_group_name_H-M	'P1'
_symmetry_Int_Tables_number	1
_symmetry_cell_setting	triclinic
loop_
_symmetry_equiv_pos_as_xyz
  x,y,z
_cell_length_a	19.188925
_cell_length_b	19.188930
_cell_length_c	15.072220
_cell_angle_alpha	89.993728
_cell_angle_beta	89.986568
_cell_angle_gamma	83.143665
loop_
_atom_site_label
_atom_site_type_symbol
_atom_site_fract_x
_atom_site_fract_y
_atom_site_fract_z
O1	O	0.926156	0.087145	-0.073812
O2	O	1.426156	0.587145	0.426188
O3	O	0.722844	0.098883	-0.073810
O4	O	1.222844	0.598883	0.426190
O5	O	0.830367	-0.008642	-0.073794
O6	O	1.330367	0.491358	0.426206
O7	O	0.818633	0.194670	-0.073828
O8	O	1.318633	0.694670	0.426172
O9	O	0.830341	-0.008636	0.073771
O10	O	1.330341	0.491364	0.573771
O11	O	0.722818	0.098889	0.073755
O12	O	1.222818	0.598889	0.573755
O13	O	0.926129	0.087151	0.073754
O14	O	1.426129	0.587151	0.573754
Zn15	Zn	0.824469	0.093021	0.097183
Zn16	Zn	1.324469	0.593021	0.597183
Zn17	Zn	0.824504	0.093013	-0.097240
Zn18	Zn	1.324504	0.593013	0.402760
O19	O	0.818606	0.194676	0.073737
O20	O	1.318606	0.694676	0.573737
C21	C	0.696820	0.098507	-0.000027
C22	C	1.196820	0.598507	0.499973
C23	C	0.619315	0.097367	-0.000026
C24	C	1.119315	0.597367	0.499974
C25	C	0.057545	0.152831	-0.000038
C26	C	0.557545	0.652831	0.499962
C27	C	0.130368	0.153908	-0.000043
C28	C	0.630368	0.653908	0.499957
C29	C	0.175302	0.090816	-0.000030
C30	C	0.675302	0.590816	0.499970
C31	C	0.147408	0.026642	-0.000036
C32	C	0.647408	0.526642	0.499964
C33	C	0.074586	0.025568	-0.000040
C34	C	0.574586	0.525568	0.499960
N35	N	0.295971	0.045142	0.050210
N36	N	0.795971	0.545142	0.550210
N37	N	0.365148	0.046167	0.050215
N38	N	0.865148	0.546167	0.550215
C39	C	0.394712	0.094050	-0.000021
C40	C	0.894712	0.594050	0.499979
N41	N	0.352483	0.140880	-0.050251
N42	N	0.852483	0.640880	0.449749
N43	N	0.283299	0.139856	-0.050253
N44	N	0.783299	0.639856	0.449747
C45	C	0.254267	0.091974	-0.000027
C46	C	0.754267	0.591974	0.499973
C47	C	0.501561	0.159386	-0.000027
C48	C	1.001561	0.659386	0.499973
C49	C	0.574385	0.160460	-0.000037
C50	C	1.074385	0.660460	0.499963
C51	C	0.591425	0.033193	-0.000021
C52	C	1.091425	0.533193	0.499979
C53	C	0.518601	0.032121	-0.000020
C54	C	1.018601	0.532121	0.499980
C55	C	0.473673	0.095220	-0.000018
C56	C	0.973673	0.595220	0.499982
C57	C	0.829974	-0.034650	-0.000009
C58	C	1.329974	0.465350	0.499991
C59	C	0.828833	-0.112154	-0.000001
C60	C	1.328833	0.387846	0.499999
C61	C	0.891924	-0.157079	0.000003
C62	C	1.391924	0.342921	0.500003
C63	C	0.890852	-0.229903	-0.000011
C64	C	1.390852	0.270097	0.499989
C65	C	0.826686	-0.257799	-0.000012
C66	C	1.326686	0.242201	0.499988
C67	C	0.763587	-0.212864	-0.000020
C68	C	1.263587	0.287136	0.499980
C69	C	0.764660	-0.140041	-0.000015
C70	C	1.264660	0.359959	0.499985
N71	N	0.777630	-0.365801	0.050208
N72	N	1.277630	0.134199	0.550208
N73	N	0.776614	-0.434979	0.050205
N74	N	1.276614	0.065021	0.550205
C75	C	0.823448	-0.477207	-0.000029
C76	C	1.323448	0.022793	0.499971
N77	N	0.871346	-0.447645	-0.050249
N78	N	1.371346	0.052355	0.449751
N79	N	0.872364	-0.378460	-0.050242
N80	N	1.372364	0.121540	0.449758
C81	C	0.825515	-0.336761	-0.000018
C82	C	1.325515	0.163239	0.499982
C83	C	0.885381	-0.601097	-0.000042
C84	C	1.385381	-0.101097	0.499958
C85	C	0.884307	-0.673922	-0.000062
C86	C	1.384307	-0.173922	0.499938
C87	C	0.757040	-0.656880	-0.000062
C88	C	1.257040	-0.156880	0.499938
C89	C	0.758116	-0.584057	-0.000051
C90	C	1.258116	-0.084057	0.499949
C91	C	0.822289	-0.556170	-0.000037
C92	C	1.322289	-0.056170	0.499963
C93	C	0.952154	0.087527	-0.000031
C94	C	1.452154	0.587527	0.499969
C95	C	1.029658	0.088666	-0.000038
C96	C	1.529658	0.588666	0.499962
C97	C	0.819000	0.220684	-0.000050
C98	C	1.319000	0.720684	0.499950
C99	C	0.820140	0.298188	-0.000064
C100	C	1.320140	0.798188	0.499936
N101	N	0.824450	0.093026	0.229872
N102	N	1.324450	0.593026	0.729872
N103	N	0.824528	0.093002	-0.229929
N104	N	1.324528	0.593002	0.270071
C105	C	0.824503	0.093010	0.589074
C106	C	1.324503	0.593010	1.089074
C107	C	0.766777	0.150353	0.551458
C108	C	1.266777	0.650353	1.051458
C109	C	0.766909	0.150561	0.448632
C110	C	1.266909	0.650561	0.948632
C111	C	0.824476	0.093018	0.410870
C112	C	1.324476	0.593018	0.910870
C113	C	0.897279	0.108706	0.448157
C114	C	1.397279	0.608706	0.948157
C115	C	0.896955	0.109113	0.551015
C116	C	1.396955	0.609113	1.051015
C117	C	0.810076	0.019808	0.551187
C118	C	1.310076	0.519808	1.051187
C119	C	0.808403	0.020302	0.448323
C120	C	1.308403	0.520302	0.948323
C121	C	0.824466	0.093021	0.310156
C122	C	1.324466	0.593021	0.810156
C123	C	0.824518	0.093009	0.689787
C124	C	1.324518	0.593009	1.189787
H125	H	0.944179	-0.134379	0.000011
H126	H	1.444179	0.365621	0.500011
H127	H	0.909702	0.162492	0.574987
H128	H	1.409702	0.662492	1.074987
H129	H	0.628010	-0.018178	-0.000018
H130	H	1.128010	0.481822	0.499982
H131	H	0.935686	-0.710500	-0.000064
H132	H	1.435686	-0.210500	0.499936
H133	H	0.758153	0.004668	0.577180
H134	H	1.258153	0.504668	1.077180
H135	H	0.464978	0.210765	-0.000027
H136	H	0.964978	0.710765	0.499973
H137	H	0.183999	-0.024728	-0.000028
H138	H	0.683999	0.475272	0.499972
H139	H	0.153078	0.206160	-0.000034
H140	H	0.653078	0.706160	0.499966
H141	H	0.776098	0.204888	0.424009
H142	H	1.276098	0.704888	0.924009
H143	H	0.051883	-0.026685	-0.000040
H144	H	0.551883	0.473315	0.499960
H145	H	0.495896	-0.020129	-0.000015
H146	H	0.995896	0.479871	0.499985
H147	H	0.704794	-0.679592	-0.000067
H148	H	1.204794	-0.179592	0.499933
H149	H	0.942230	-0.266488	-0.000012
H150	H	1.442230	0.233512	0.499988
H151	H	0.941240	0.068982	0.575896
H152	H	1.441240	0.568982	1.075896
H153	H	0.597088	0.212713	-0.000044
H154	H	1.097088	0.712713	0.499956
H155	H	0.711342	-0.235581	-0.000023
H156	H	1.211342	0.264419	0.499977
H157	H	0.706740	-0.547478	-0.000050
H158	H	1.206740	-0.047478	0.499950
H159	H	0.941251	0.068042	0.423694
H160	H	1.441251	0.568042	0.923694
H161	H	0.713282	-0.103462	-0.000018
H162	H	1.213282	0.396538	0.499982
H163	H	0.937635	-0.578390	-0.000035
H164	H	1.437635	-0.078390	0.499965
H165	H	0.910336	0.161475	0.422379
H166	H	1.410336	0.661475	0.922379
H167	H	0.712786	0.141247	0.423423
H168	H	1.212786	0.641247	0.923423
H169	H	0.712479	0.141196	0.576222
H170	H	1.212479	0.641196	1.076222
H171	H	0.775839	0.204374	0.577287
H172	H	1.275839	0.704374	1.077287
H173	H	0.754849	0.008391	0.423954
H174	H	1.254849	0.508391	0.923954
H175	H	0.852175	-0.022862	0.575512
H176	H	1.352175	0.477138	1.075512
H177	H	0.020968	0.204211	-0.000041
H178	H	0.520968	0.704211	0.499959
H179	H	0.847733	-0.024352	0.422622
H180	H	1.347733	0.475648	0.922622
