data_functionalizedCrystal
_audit_creation_method	'MofGen! by Chris Wilmer'
_symmetry_space_group_name_H-M	'P1'
_symmetry_Int_Tables_number	1
_symmetry_cell_setting	triclinic
loop_
_symmetry_equiv_pos_as_xyz
  x,y,z
_cell_length_a	15.297327
_cell_length_b	14.908571
_cell_length_c	14.908294
_cell_angle_alpha	90.175425
_cell_angle_beta	102.308241
_cell_angle_gamma	96.991395
loop_
_atom_site_label
_atom_site_type_symbol
_atom_site_fract_x
_atom_site_fract_y
_atom_site_fract_z
Zn1	Zn	-0.470252	1.259451	-0.663961
Zn2	Zn	-0.612781	1.242014	-0.536751
Zn3	Zn	-0.452944	1.120926	-0.502148
Zn4	Zn	-0.611711	1.083237	-0.678229
O5	O	-0.536922	1.176407	-0.595272
O6	O	-0.496850	1.381560	-0.655597
O7	O	-0.584783	1.234428	-0.405232
O8	O	-0.329146	1.162373	-0.503160
O9	O	-0.601566	1.368749	-0.562136
O10	O	-0.341862	1.264146	-0.622043
O11	O	-0.467351	1.145465	-0.379809
O12	O	-0.466313	0.991505	-0.516995
O13	O	-0.599741	1.098136	-0.803265
O14	O	-0.582958	0.963814	-0.646361
O15	O	-0.495812	1.227599	-0.792782
O16	O	-0.738733	1.197882	-0.575971
O17	O	-0.737946	1.081228	-0.679914
C18	C	-0.522642	0.945398	-0.579472
C19	C	-0.516556	0.846566	-0.572737
C20	C	-0.771037	1.133596	-0.633267
C21	C	-0.871198	1.115360	-0.649558
C22	C	-0.626753	0.632042	-0.694665
C23	C	-0.621038	0.539180	-0.688341
C24	C	-0.499406	0.567978	-0.553770
C25	C	-0.505122	0.660840	-0.560094
C26	C	-0.568798	0.692869	-0.630543
C27	C	-0.574517	0.785732	-0.636862
C28	C	-0.452882	0.814529	-0.502296
C29	C	-0.447167	0.721667	-0.495972
C30	C	-1.155071	1.307085	-0.479177
C31	C	-1.060964	1.324218	-0.463867
C32	C	-1.013518	1.272005	-0.510288
C33	C	-1.060188	1.202656	-0.572022
C34	C	-1.154304	1.185517	-0.587329
C35	C	-1.012751	1.150437	-0.618440
C36	C	-1.059422	1.081088	-0.680174
C37	C	-1.153529	1.063952	-0.695478
C38	C	-1.200975	1.116165	-0.649057
C39	C	-0.918635	1.167576	-0.603134
C40	C	-0.917868	1.046008	-0.711286
C41	C	-1.011976	1.028875	-0.726596
C42	C	-0.301895	1.219408	-0.557150
C43	C	-0.201741	1.237733	-0.540905
C44	C	-0.549588	1.160608	-0.831855
C45	C	-0.554986	1.153876	-0.932672
C46	C	-0.551258	1.408318	-0.611135
C47	C	-0.557367	1.507144	-0.617895
C48	C	-0.616693	1.076986	-1.080227
C49	C	-0.611628	1.083309	-0.985501
C50	C	-0.503403	1.218123	-0.974575
C51	C	-0.508468	1.211800	-1.069302
C52	C	-0.565116	1.141230	-1.122125
C53	C	-0.570185	1.134911	-1.216853
C54	C	-0.461956	1.269721	-1.205925
C55	C	-0.456891	1.276044	-1.111199
C56	C	-0.524243	1.192207	-0.359603
C57	C	-0.518602	1.199158	-0.258756
H58	H	-0.626367	0.811807	-0.694224
H59	H	-0.419960	1.322035	-1.240047
C60	C	-1.010189	1.399570	-0.396981
C61	C	-0.962340	1.462924	-0.443475
C62	C	-0.915544	1.532348	-0.381885
H63	H	-1.051820	1.428320	-0.371493
H64	H	-0.969255	1.374935	-0.349154
H65	H	-1.003270	1.487557	-0.491286
H66	H	-0.920694	1.434202	-0.468960
H67	H	-0.874610	1.507714	-0.334058
H68	H	-0.957181	1.561090	-0.356401
H69	H	-0.883067	1.575338	-0.413420
H70	H	-0.678605	0.658119	-0.752023
H71	H	-0.395321	0.695576	-0.438617
H72	H	-0.457278	1.275574	-0.931550
C73	C	-0.430118	0.533281	-0.477382
C74	C	-0.343458	0.570833	-0.484381
C75	C	-0.279600	0.538891	-0.414037
H76	H	-0.440756	0.550149	-0.419521
H77	H	-0.434937	0.469267	-0.482789
H78	H	-0.338642	0.634834	-0.478967
H79	H	-0.332791	0.553970	-0.542227
H80	H	-0.284420	0.474877	-0.419444
H81	H	-0.290247	0.555761	-0.356181
H82	H	-0.220794	0.564359	-0.418781
C83	C	-0.390005	0.880719	-0.432786
C84	C	-0.408624	0.968902	-0.453410
C85	C	-0.350718	1.029899	-0.389404
H86	H	-0.398850	0.867279	-0.372873
H87	H	-0.329243	0.875727	-0.435304
H88	H	-0.469371	0.973890	-0.450882
H89	H	-0.399773	0.982370	-0.513312
H90	H	-0.289956	1.024907	-0.391922
H91	H	-0.359567	1.016450	-0.329495
H92	H	-0.363337	1.089738	-0.403393
C93	C	-1.303141	1.097373	-0.665671
C94	C	-1.327902	1.008599	-0.641779
C95	C	-1.422011	0.991255	-0.657086
H96	H	-1.324829	1.138315	-0.629208
H97	H	-1.328496	1.104870	-0.728736
H98	H	-1.302558	1.001110	-0.578725
H99	H	-1.306239	0.967638	-0.678237
H100	H	-1.447367	0.998752	-0.720151
H101	H	-1.443690	1.032202	-0.620622
H102	H	-1.438824	0.931019	-0.640885
H103	H	-0.653621	1.030990	-0.951391
H104	H	-0.880644	1.224041	-0.552869
H105	H	-0.936891	1.285958	-0.497818
C106	C	-0.684070	0.473279	-0.758021
C107	C	-0.741068	0.521208	-0.821055
C108	C	-0.799154	0.460529	-0.885255
H109	H	-0.649651	0.440682	-0.789640
H110	H	-0.719242	0.432210	-0.727190
H111	H	-0.705900	0.562261	-0.851883
H112	H	-0.775507	0.553801	-0.789463
H113	H	-0.834325	0.419459	-0.854424
H114	H	-0.764727	0.427935	-0.916867
H115	H	-0.837839	0.493038	-0.928026
C116	C	-1.204041	0.988643	-0.762567
C117	C	-1.142354	0.946599	-0.799964
C118	C	-1.188852	0.877229	-0.861777
H119	H	-1.236553	0.945469	-0.731264
H120	H	-1.244909	1.013287	-0.810447
H121	H	-1.101502	0.921955	-0.752091
H122	H	-1.109841	0.989749	-0.831283
H123	H	-1.229720	0.901873	-0.909657
H124	H	-1.221362	0.834061	-0.830467
H125	H	-1.147006	0.848699	-0.887164
C126	C	-0.678340	1.000407	-1.137497
C127	C	-0.767454	1.004987	-1.130230
C128	C	-0.824268	0.934451	-1.182963
H129	H	-0.674088	1.005764	-1.199943
H130	H	-0.660687	0.944090	-1.115738
H131	H	-0.785102	1.061290	-1.151993
H132	H	-0.771735	0.999620	-1.067797
H133	H	-0.806615	0.878133	-1.161204
H134	H	-0.820008	0.939813	-1.245405
H135	H	-0.884737	0.937544	-1.178033
H136	H	-0.616313	1.077451	-1.259861
C137	C	-0.395483	1.352623	-1.053695
C138	C	-0.402103	1.344425	-0.961774
C139	C	-0.345559	1.414964	-0.908780
H140	H	-0.334926	1.349730	-1.058393
H141	H	-0.413209	1.408932	-1.075398
H142	H	-0.384372	1.288131	-0.940078
H143	H	-0.462647	1.347328	-0.957048
H144	H	-0.363285	1.471273	-0.930483
H145	H	-0.285006	1.412065	-0.913486
H146	H	-0.350049	1.409416	-0.846408
H147	H	-1.049988	0.972410	-0.776860
H148	H	-1.193710	1.349584	-0.441381
C149	C	-0.866208	0.989445	-0.761639
C150	C	-0.773803	1.019315	-0.735043
C151	C	-0.726181	0.967241	-0.781413
H152	H	-0.877174	0.927765	-0.746787
H153	H	-0.885612	0.995555	-0.825995
H154	H	-0.754407	1.013197	-0.670702
H155	H	-0.762811	1.080987	-0.749897
H156	H	-0.745585	0.973351	-0.845768
H157	H	-0.737154	0.905564	-0.766557
H158	H	-0.663481	0.987506	-0.763380
