data_functionalizedCrystal
_audit_creation_method	'MofGen! by Chris Wilmer'
_symmetry_space_group_name_H-M	'P1'
_symmetry_Int_Tables_number	1
_symmetry_cell_setting	triclinic
loop_
_symmetry_equiv_pos_as_xyz
  x,y,z
_cell_length_a	10.967819
_cell_length_b	13.262508
_cell_length_c	10.065875
_cell_angle_alpha	114.496368
_cell_angle_beta	69.228723
_cell_angle_gamma	87.884987
loop_
_atom_site_label
_atom_site_type_symbol
_atom_site_fract_x
_atom_site_fract_y
_atom_site_fract_z
O1	O	1.735215	0.080993	-0.491538
O2	O	1.356069	0.108471	-0.392168
O3	O	1.565113	-0.066682	-0.506344
O4	O	1.526171	0.256146	-0.377362
O5	O	1.525244	-0.033153	-0.257534
O6	O	1.316200	0.142000	-0.143357
O7	O	1.695346	0.114522	-0.242728
Zn8	Zn	1.499443	0.133585	-0.153538
Zn9	Zn	1.551972	0.089408	-0.481357
O10	O	1.486302	0.289675	-0.128551
C11	C	1.287786	0.125768	-0.256194
C12	C	1.143724	0.127343	-0.221727
C13	C	0.951263	0.112312	-0.299654
C14	C	1.100159	0.110677	-0.335271
C15	C	1.546662	-0.091137	-0.397591
C16	C	1.551067	-0.213959	-0.444223
C17	C	1.476543	-0.487077	-0.033146
C18	C	1.472394	-0.371678	0.010671
C19	C	1.492062	-0.332242	-0.103048
C20	C	1.515879	-0.408217	-0.260594
C21	C	1.520018	-0.523626	-0.304413
C22	C	1.535538	-0.368792	-0.374315
C23	C	1.559355	-0.444767	-0.531860
C24	C	1.563494	-0.560164	-0.575672
C25	C	1.543826	-0.599599	-0.461952
C26	C	1.531399	-0.253383	-0.330496
C27	C	1.574874	-0.289932	-0.601762
C28	C	1.579023	-0.405331	-0.645580
C29	C	1.763630	0.097224	-0.378705
C30	C	1.907693	0.095648	-0.413181
C31	C	1.504753	0.314130	-0.237308
C32	C	1.500350	0.436950	-0.190686
N33	N	1.463602	0.163733	0.070187
N34	N	1.587824	0.059251	-0.705088
C35	C	1.539494	0.099891	0.096420
C36	C	1.511920	0.123102	0.268688
H37	H	1.511995	-0.191533	-0.202218
Br38	Br	1.449821	-0.540597	0.121178
Br39	Br	1.730445	-0.060248	0.119822
Br40	Br	1.321268	0.283469	0.245307
H41	H	1.453015	-0.309829	0.138941
H42	H	1.582876	-0.622019	-0.703952
H43	H	1.070797	0.142828	-0.098152
H44	H	0.980622	0.080178	-0.536741
Br45	Br	1.486424	-0.175626	-0.043577
Br46	Br	1.369580	0.242843	0.443806
H47	H	0.878332	0.127794	-0.176088
Br48	Br	1.549460	-0.756218	-0.521416
H49	H	1.173085	0.095206	-0.458839
H50	H	1.598414	-0.467206	-0.773855
Br51	Br	1.681506	-0.020123	-0.078726
Br52	Br	1.601534	-0.236419	-0.756097
