data_functionalizedCrystal
_audit_creation_method	'MofGen! by Chris Wilmer'
_symmetry_space_group_name_H-M	'P1'
_symmetry_Int_Tables_number	1
_symmetry_cell_setting	triclinic
loop_
_symmetry_equiv_pos_as_xyz
  x,y,z
_cell_length_a	16.120490
_cell_length_b	16.120484
_cell_length_c	12.759393
_cell_angle_alpha	92.862882
_cell_angle_beta	87.082392
_cell_angle_gamma	90.164100
loop_
_atom_site_label
_atom_site_type_symbol
_atom_site_fract_x
_atom_site_fract_y
_atom_site_fract_z
Zn1	Zn	1.254497	-0.395616	-0.699332
Zn2	Zn	1.754497	0.104384	-0.199332
Zn3	Zn	1.247335	-0.534690	-0.532064
Zn4	Zn	1.747335	-0.034690	-0.032064
Zn5	Zn	1.115430	-0.388592	-0.514342
Zn6	Zn	1.615430	0.111408	-0.014342
Zn7	Zn	1.108348	-0.527561	-0.698374
Zn8	Zn	1.608348	-0.027561	-0.198374
O9	O	1.181402	-0.461615	-0.611028
O10	O	1.681402	0.038385	-0.111028
O11	O	1.369912	-0.419988	-0.684961
O12	O	1.869912	0.080012	-0.184961
O13	O	1.229804	-0.515353	-0.382693
O14	O	1.729804	-0.015353	0.117307
O15	O	1.139839	-0.273161	-0.531865
O16	O	1.639839	0.226839	-0.031865
O17	O	1.364651	-0.522165	-0.562070
O18	O	1.864651	-0.022165	-0.062070
O19	O	1.242010	-0.278322	-0.667776
O20	O	1.742010	0.221678	-0.167776
O21	O	1.132894	-0.408015	-0.369672
O22	O	1.632894	0.091985	0.130328
O23	O	0.998125	-0.401103	-0.530936
O24	O	1.498125	0.098897	-0.030936
O25	O	1.127769	-0.510015	-0.845522
O26	O	1.627769	-0.010015	-0.345522
O27	O	0.992922	-0.503204	-0.666145
O28	O	1.492922	-0.003204	-0.166145
O29	O	1.235143	-0.413076	-0.846225
O30	O	1.735143	0.086924	-0.346225
O31	O	1.222937	-0.650107	-0.561142
O32	O	1.722937	-0.150107	-0.061142
O33	O	1.120824	-0.644869	-0.683329
O34	O	1.620824	-0.144869	-0.183329
C35	C	0.965351	-0.450618	-0.596514
C36	C	1.465351	0.049382	-0.096514
C37	C	0.872922	-0.445934	-0.590331
C38	C	1.372922	0.054066	-0.090331
C39	C	0.659954	-0.485907	-0.643101
C40	C	1.159954	0.014093	-0.143101
C41	C	0.703699	-0.437389	-0.579042
C42	C	1.203699	0.062611	-0.079042
C43	C	0.797863	-0.442144	-0.585325
C44	C	1.297863	0.057856	-0.085325
C45	C	0.565781	-0.481153	-0.636819
C46	C	1.065781	0.018847	-0.136819
C47	C	1.170357	-0.677660	-0.624079
C48	C	1.670357	-0.177660	-0.124079
C49	C	1.165708	-0.770090	-0.629703
C50	C	1.665708	-0.270090	-0.129703
C51	C	1.157225	-0.939319	-0.639992
C52	C	1.657225	-0.439319	-0.139992
C53	C	1.205729	-0.983077	-0.582091
C54	C	1.705729	-0.483077	-0.082091
C55	C	1.201009	-1.077243	-0.587816
C56	C	1.701009	-0.577243	-0.087816
C57	C	1.161944	-0.845145	-0.634268
C58	C	1.661944	-0.345145	-0.134268
C59	C	1.398297	-0.472655	-0.625599
C60	C	1.898297	0.027345	-0.125599
C61	C	1.490725	-0.477360	-0.631809
C62	C	1.990725	0.022640	-0.131809
C63	C	1.181465	-0.461534	-0.885060
C64	C	1.681465	0.038466	-0.385060
C65	C	1.181492	-0.461499	-1.001837
C66	C	1.681492	0.038501	-0.501837
C67	C	1.192513	-0.244727	-0.597950
C68	C	1.692513	0.255273	-0.097950
C69	C	1.197248	-0.152302	-0.592377
C70	C	1.697248	0.347698	-0.092377
C71	C	1.237409	-0.411018	-1.057067
C72	C	1.737409	0.088982	-0.557067
C73	C	1.237430	-0.410989	-1.166790
C74	C	1.737430	0.089011	-0.666790
C75	C	1.125614	-0.511929	-1.166044
C76	C	1.625614	-0.011929	-0.666044
C77	C	1.125589	-0.511953	-1.056322
C78	C	1.625589	-0.011953	-0.556322
C79	C	1.301968	-0.352744	-1.057499
C80	C	1.801968	0.147256	-0.557499
C81	C	1.301989	-0.352715	-1.167222
C82	C	1.801989	0.147285	-0.667222
C83	C	1.181391	-0.461638	-0.338061
C84	C	1.681391	0.038362	0.161939
C85	C	1.181538	-0.461446	-0.221282
C86	C	1.681538	0.038554	0.278718
H87	H	0.670429	-0.392279	-0.519479
H88	H	1.170429	0.107721	-0.019479
H89	H	0.693221	-0.531014	-0.702658
H90	H	1.193221	-0.031014	-0.202658
H91	H	1.365516	-0.373237	-1.202367
H92	H	1.865516	0.126763	-0.702367
H93	H	1.112159	-0.972575	-0.693857
H94	H	1.612159	-0.472575	-0.193857
C95	C	1.064066	-0.567466	-0.995570
C96	C	1.564066	-0.067466	-0.495570
H97	H	1.030780	-0.597511	-1.043737
H98	H	1.530780	-0.097511	-0.543737
H99	H	1.029462	-0.533810	-0.948425
H100	H	1.529462	-0.033810	-0.448425
H101	H	1.094000	-0.605336	-0.957080
H102	H	1.594000	-0.105336	-0.457080
C103	C	1.266590	-0.938154	-0.509285
C104	C	1.766590	-0.438154	-0.009285
H105	H	1.261805	-0.879839	-0.514920
H106	H	1.761805	-0.379839	-0.014920
H107	H	1.321771	-0.955106	-0.529281
H108	H	1.821771	-0.455106	-0.029281
H109	H	1.253721	-0.951790	-0.438721
H110	H	1.753721	-0.451790	0.061279
C111	C	1.064133	-0.567431	-1.225982
C112	C	1.564133	-0.067431	-0.725982
H113	H	1.072159	-0.560191	-1.299240
H114	H	1.572159	-0.060191	-0.799240
H115	H	1.008881	-0.552424	-1.203514
H116	H	1.508881	-0.052424	-0.703514
H117	H	1.073444	-0.623928	-1.212182
H118	H	1.573444	-0.123928	-0.712182
C119	C	1.283108	-0.264572	-1.010465
C120	C	1.783108	0.235428	-0.510465
H121	H	1.275360	-0.228294	-1.065579
H122	H	1.775360	0.271706	-0.565579
H123	H	1.328269	-0.245425	-0.970776
H124	H	1.828269	0.254575	-0.470776
H125	H	1.234042	-0.265602	-0.966034
H126	H	1.734042	0.234398	-0.466034
H127	H	1.282060	-0.290355	-1.196020
H128	H	1.782060	0.209645	-0.696020
H129	H	1.361953	-0.378939	-1.028964
H130	H	1.861953	0.121061	-0.528964
