data_functionalizedCrystal
_audit_creation_method	'MofGen! by Chris Wilmer'
_symmetry_space_group_name_H-M	'P1'
_symmetry_Int_Tables_number	1
_symmetry_cell_setting	triclinic
loop_
_symmetry_equiv_pos_as_xyz
  x,y,z
_cell_length_a	25.639242
_cell_length_b	18.101395
_cell_length_c	25.639234
_cell_angle_alpha	89.979024
_cell_angle_beta	89.973005
_cell_angle_gamma	90.026632
loop_
_atom_site_label
_atom_site_type_symbol
_atom_site_fract_x
_atom_site_fract_y
_atom_site_fract_z
Zn1	Zn	0.799278	-0.294965	-0.295755
Zn2	Zn	0.799205	-0.418800	-0.208325
Zn3	Zn	0.711846	-0.294967	-0.208319
Zn4	Zn	0.711811	-0.418760	-0.295715
O5	O	0.755535	-0.356873	-0.252029
O6	O	0.872433	-0.311408	-0.284177
O7	O	0.787602	-0.402391	-0.135159
O8	O	0.723490	-0.191334	-0.219932
O9	O	0.872380	-0.402389	-0.219942
O10	O	0.787725	-0.191333	-0.284171
O11	O	0.723420	-0.311411	-0.135155
O12	O	0.638677	-0.311373	-0.219893
O13	O	0.723428	-0.402321	-0.368886
O14	O	0.638650	-0.402323	-0.284103
O15	O	0.787690	-0.311369	-0.368915
O16	O	0.787567	-0.522428	-0.219903
O17	O	0.723358	-0.522398	-0.284108
C18	C	0.755465	-0.549284	-0.252013
C19	C	0.755483	-0.631598	-0.252024
C20	C	0.619692	-0.356844	-0.251993
C21	C	0.561578	-0.356849	-0.251991
C22	C	0.755598	-0.930689	-0.252052
C23	C	0.715293	-0.899376	-0.292549
C24	C	0.715102	-0.813758	-0.292422
C25	C	0.755541	-0.782306	-0.252039
C26	C	0.740624	-0.813447	-0.196933
C27	C	0.740364	-0.899092	-0.197176
C28	C	0.810907	-0.899041	-0.266177
C29	C	0.810582	-0.813390	-0.267385
C30	C	0.755509	-0.698447	-0.252028
C31	C	0.755628	-1.014548	-0.252060
C32	C	0.201210	-0.404310	-0.285431
C33	C	0.146606	-0.404314	-0.285439
O34	O	0.118365	-0.444631	-0.313841
N35	N	0.119296	-0.356894	-0.252063
C36	C	0.146593	-0.309460	-0.218680
O37	O	0.118349	-0.269124	-0.190292
C38	C	0.201196	-0.309452	-0.218675
C39	C	0.228504	-0.356881	-0.252049
C40	C	0.228518	-0.451735	-0.318803
C41	C	0.283118	-0.451731	-0.318794
C42	C	0.310412	-0.404302	-0.285413
C43	C	0.283104	-0.356878	-0.252040
C44	C	0.228492	-0.262015	-0.185295
C45	C	0.283099	-0.262011	-0.185293
C46	C	0.310406	-0.309440	-0.218668
C47	C	0.364998	-0.309445	-0.218650
N48	N	0.392308	-0.356866	-0.252026
C49	C	0.365015	-0.404295	-0.285407
C50	C	0.031922	-0.309479	-0.218694
C51	C	-0.022680	-0.309489	-0.218696
C52	C	-0.022663	-0.404343	-0.285456
C53	C	0.031940	-0.404336	-0.285451
C54	C	0.059232	-0.356899	-0.252070
C55	C	0.479680	-0.404284	-0.285386
C56	C	0.534285	-0.404278	-0.285372
C57	C	0.534263	-0.309421	-0.218614
C58	C	0.479663	-0.309430	-0.218626
C59	C	0.452372	-0.356863	-0.252016
O60	O	0.393273	-0.269147	-0.190264
O61	O	0.393265	-0.444616	-0.313796
C62	C	0.891908	-0.356903	-0.252065
C63	C	0.950022	-0.356916	-0.252080
C64	C	0.755563	-0.356840	-0.388402
C65	C	0.755575	-0.356827	-0.446516
C66	C	0.755619	-0.163711	-0.252056
C67	C	0.755655	-0.081397	-0.252067
C68	C	0.789009	-0.404139	-0.697704
C69	C	0.789003	-0.404154	-0.643100
O70	O	0.817405	-0.444463	-0.614859
N71	N	0.755587	-0.356791	-0.615790
C72	C	0.722170	-0.309414	-0.643087
O73	O	0.693746	-0.269129	-0.614844
C74	C	0.722173	-0.309403	-0.697690
C75	C	0.755596	-0.356764	-0.724998
C76	C	0.822428	-0.451497	-0.725011
C77	C	0.822434	-0.451480	-0.779612
C78	C	0.789021	-0.404105	-0.806905
C79	C	0.755602	-0.356747	-0.779598
C80	C	0.688754	-0.262030	-0.724987
C81	C	0.688760	-0.262023	-0.779594
C82	C	0.722182	-0.309385	-0.806901
C83	C	0.722194	-0.309356	-0.861492
N84	N	0.755611	-0.356720	-0.888802
C85	C	0.789024	-0.404094	-0.861509
C86	C	0.722165	-0.309442	-0.528416
C87	C	0.722164	-0.309449	-0.473814
C88	C	0.788997	-0.404190	-0.473831
C89	C	0.789000	-0.404179	-0.528434
C90	C	0.755581	-0.356805	-0.555726
C91	C	0.789035	-0.404055	-0.976174
C92	C	0.789039	-0.404032	-1.030779
C93	C	0.722205	-0.309294	-1.030758
C94	C	0.722202	-0.309314	-0.976157
C95	C	0.755618	-0.356700	-0.948867
O96	O	0.693805	-0.269070	-0.889768
O97	O	0.817439	-0.444379	-0.889758
C98	C	0.755537	-0.356852	-0.116186
C99	C	0.755626	-0.356658	-0.058073
H100	H	0.724434	-0.792701	-0.333282
N101	N	0.450254	-0.455452	-0.321395
H102	H	0.427578	-0.489732	-0.300107
H103	H	0.427652	-0.425362	-0.345664
H104	H	0.661537	-0.223465	-0.702763
H105	H	0.556517	-0.442903	-0.312550
H106	H	0.661546	-0.223445	-0.801813
N107	N	0.825079	-0.455156	-0.946741
H108	H	0.803818	-0.489482	-0.924074
H109	H	0.846243	-0.485101	-0.972363
H110	H	0.824507	-0.920596	-0.305675
N111	N	0.686123	-0.258335	-0.557851
H112	H	0.661879	-0.288418	-0.580490
H113	H	0.664992	-0.228347	-0.532228
H114	H	0.305347	-0.490351	-0.345972
H115	H	0.769057	-0.793075	-0.165937
N116	N	-0.052106	-0.455497	-0.321464
H117	H	-0.042626	-0.508395	-0.313278
H118	H	-0.090830	-0.448236	-0.316384
H119	H	0.768447	-0.919808	-0.165974
H120	H	0.695002	-0.270721	-1.052990
N121	N	0.686159	-0.258227	-0.946701
H122	H	0.664994	-0.228212	-0.972279
H123	H	0.661946	-0.288377	-0.924037
H124	H	0.674546	-0.920956	-0.283310
N125	N	0.727524	-0.926605	-0.346850
H126	H	0.759310	-0.959504	-0.345728
H127	H	0.696822	-0.955497	-0.360740
N128	N	0.312535	-0.210842	-0.149292
H129	H	0.286947	-0.180799	-0.128153
H130	H	0.335168	-0.240931	-0.125052
H131	H	0.674105	-0.793329	-0.283066
H132	H	0.206302	-0.490357	-0.345989
H133	H	0.699934	-0.919129	-0.185212
N134	N	0.852460	-0.785031	-0.231159
H135	H	0.869889	-0.828075	-0.213155
H136	H	0.879242	-0.756522	-0.251910
N137	N	0.858472	-0.502600	-0.695582
H138	H	0.895831	-0.491096	-0.705109
H139	H	0.853363	-0.495407	-0.656855
H140	H	0.700622	-0.792056	-0.184756
N141	N	0.061392	-0.455485	-0.321451
H142	H	0.084026	-0.489760	-0.300160
H143	H	0.035780	-0.485481	-0.342589
H144	H	0.821830	-0.793034	-0.307940
H145	H	-0.044909	-0.270875	-0.191514
N146	N	0.850686	-0.925857	-0.227110
H147	H	0.832995	-0.958346	-0.200389
H148	H	0.878577	-0.955081	-0.245757
N149	N	0.061357	-0.258312	-0.182689
H150	H	0.035767	-0.228275	-0.161549
H151	H	0.083992	-0.288400	-0.158450
N152	N	0.199048	-0.210859	-0.149297
H153	H	0.224631	-0.180814	-0.128155
H154	H	0.176416	-0.176629	-0.170625
H155	H	0.457428	-0.270810	-0.191448
H156	H	0.556495	-0.270809	-0.191434
H157	H	0.816258	-0.442600	-1.053010
H158	H	0.849648	-0.490049	-0.801840
H159	H	0.816203	-0.442766	-0.451598
N160	N	0.825047	-0.455261	-0.557885
H161	H	0.846213	-0.485271	-0.532304
H162	H	0.803752	-0.489527	-0.580524
H163	H	0.694954	-0.270874	-0.451585
