data_functionalizedCrystal
_audit_creation_method	'MofGen! by Chris Wilmer'
_symmetry_space_group_name_H-M	'P1'
_symmetry_Int_Tables_number	1
_symmetry_cell_setting	triclinic
loop_
_symmetry_equiv_pos_as_xyz
  x,y,z
_cell_length_a	12.827892
_cell_length_b	12.759401
_cell_length_c	12.759393
_cell_angle_alpha	89.981287
_cell_angle_beta	90.029806
_cell_angle_gamma	89.983083
loop_
_atom_site_label
_atom_site_type_symbol
_atom_site_fract_x
_atom_site_fract_y
_atom_site_fract_z
Zn1	Zn	-0.415940	-1.606238	0.594025
Zn2	Zn	-0.590717	-1.606134	0.418348
Zn3	Zn	-0.415995	-1.430544	0.418361
Zn4	Zn	-0.590644	-1.430527	0.593985
O5	O	-0.503324	-1.518361	0.506180
O6	O	-0.439132	-1.753245	0.570733
O7	O	-0.567594	-1.582805	0.271328
O8	O	-0.269752	-1.453901	0.441685
O9	O	-0.567540	-1.753169	0.441663
O10	O	-0.269711	-1.582983	0.570745
O11	O	-0.439226	-1.453800	0.271338
O12	O	-0.439156	-1.283521	0.441646
O13	O	-0.567415	-1.453872	0.741011
O14	O	-0.567469	-1.283508	0.570676
O15	O	-0.439061	-1.582966	0.741041
O16	O	-0.736943	-1.582789	0.441624
O17	O	-0.736890	-1.453771	0.570664
C18	C	-0.774834	-1.518295	0.506161
C19	C	-0.890987	-1.518363	0.506188
C20	C	-0.503311	-1.245393	0.506159
C21	C	-0.503331	-1.128617	0.506175
C22	C	-0.503224	-1.518429	0.780213
C23	C	-0.503181	-1.518458	0.896990
C24	C	-0.942764	-1.582281	0.442406
C25	C	-1.062814	-1.582353	0.442433
C26	C	-0.230754	-1.518455	0.506221
C27	C	-0.114601	-1.518496	0.506239
C28	C	-0.503338	-1.792394	0.506201
C29	C	-0.503343	-1.909171	0.506210
C30	C	-0.570246	-1.073776	0.573255
C31	C	-0.570250	-0.964052	0.573276
C32	C	-0.436421	-0.964019	0.439127
C33	C	-0.436413	-1.073741	0.439112
C34	C	-0.607747	-0.814150	0.697137
C35	C	-0.674678	-0.759306	0.764208
C36	C	-0.776661	-0.794902	0.780157
C37	C	-0.811734	-0.885340	0.729020
C38	C	-0.744809	-0.940179	0.661941
C39	C	-0.642811	-0.904585	0.646012
C40	C	-0.398927	-1.223645	0.315250
C41	C	-0.332006	-1.278486	0.248165
C42	C	-0.230021	-1.242892	0.232205
C43	C	-0.194951	-1.152450	0.283324
C44	C	-0.261872	-1.097608	0.350409
C45	C	-0.363856	-1.133210	0.366370
C46	C	-0.503349	-1.518353	0.233212
C47	C	-0.503097	-1.518528	0.116436
C48	C	-0.569984	-1.451261	0.951838
C49	C	-0.569945	-1.451298	1.061562
C50	C	-0.436291	-1.585732	1.061580
C51	C	-0.436336	-1.585699	0.951858
C52	C	-0.693125	-1.413760	1.211498
C53	C	-0.759919	-1.346547	1.266350
C54	C	-0.775971	-1.244016	1.230734
C55	C	-0.725213	-1.208677	1.140269
C56	C	-0.658412	-1.275885	1.085423
C57	C	-0.642380	-1.378431	1.121036
C58	C	-0.313155	-1.623227	0.801920
C59	C	-0.246347	-1.690430	0.747072
C60	C	-0.230285	-1.792963	0.782685
C61	C	-0.281023	-1.828297	0.873154
C62	C	-0.347831	-1.761094	0.928003
C63	C	-0.363895	-1.658562	0.892382
H64	H	-0.898217	-1.636955	0.387783
Br65	Br	-0.965227	-1.427247	0.597250
Br66	Br	-0.056543	-1.104128	0.261654
Br67	Br	-1.137021	-1.673558	0.351404
H68	H	-1.070082	-1.463766	0.560844
H69	H	-0.617083	-1.247112	1.011770
H70	H	-0.624732	-1.118452	0.627864
Br71	Br	-0.792398	-1.062907	0.592539
H72	H	-0.894784	-0.914309	0.742002
H73	H	-0.646111	-0.685671	0.805845
Br74	Br	-0.867491	-0.720471	0.871188
H75	H	-0.175538	-1.287549	0.177569
H76	H	-0.680073	-1.497252	1.240497
H77	H	-0.524700	-0.785167	0.684168
Br78	Br	-0.345609	-0.889539	0.348118
Br79	Br	-0.334970	-1.484076	0.753568
Br80	Br	-0.866616	-1.152799	1.305181
Br81	Br	-0.214281	-0.974856	0.419778
Br82	Br	-0.379609	-1.401217	0.178768
Br83	Br	-0.537401	-1.271851	0.336762
Br84	Br	-0.660704	-1.360007	0.877377
Br85	Br	-0.746982	-1.069512	1.091951
Br86	Br	-0.828804	-1.394505	1.389118
H87	H	-0.381867	-1.640477	1.106267
Br88	Br	-0.416684	-1.809044	1.050791
H89	H	-0.267938	-1.911785	0.902157
H90	H	-0.175871	-1.847674	0.738025
Br91	Br	-0.177481	-1.642474	0.624293
