data_functionalizedCrystal
_audit_creation_method	'MofGen! by Chris Wilmer'
_symmetry_space_group_name_H-M	'P1'
_symmetry_Int_Tables_number	1
_symmetry_cell_setting	triclinic
loop_
_symmetry_equiv_pos_as_xyz
  x,y,z
_cell_length_a	17.699083
_cell_length_b	17.699092
_cell_length_c	15.021413
_cell_angle_alpha	89.993746
_cell_angle_beta	90.000631
_cell_angle_gamma	83.284691
loop_
_atom_site_label
_atom_site_type_symbol
_atom_site_fract_x
_atom_site_fract_y
_atom_site_fract_z
O1	O	-1.004080	-0.095714	0.073895
O2	O	-0.504080	0.404286	0.573895
O3	O	-0.783702	-0.108167	0.073926
O4	O	-0.283702	0.391833	0.573926
O5	O	-0.900114	0.008248	0.073908
O6	O	-0.400114	0.508248	0.573908
O7	O	-0.887668	-0.212129	0.073913
O8	O	-0.387668	0.287871	0.573913
O9	O	-0.900101	0.008259	-0.074157
O10	O	-0.400101	0.508259	0.425843
O11	O	-0.783690	-0.108156	-0.074138
O12	O	-0.283690	0.391844	0.425862
O13	O	-1.004068	-0.095704	-0.074169
O14	O	-0.504068	0.404296	0.425831
Zn15	Zn	-0.893877	-0.101928	-0.097662
Zn16	Zn	-0.393877	0.398072	0.402338
Zn17	Zn	-0.893893	-0.101942	0.097419
Zn18	Zn	-0.393893	0.398058	0.597419
O19	O	-0.887656	-0.212119	-0.074151
O20	O	-0.387656	0.287881	0.425849
C21	C	-0.755499	-0.107715	-0.000102
C22	C	-0.255499	0.392285	0.499898
C23	C	-0.671480	-0.106377	-0.000091
C24	C	-0.171480	0.393623	0.499909
C25	C	-0.622862	-0.174710	-0.000089
C26	C	-0.122862	0.325290	0.499911
C27	C	-0.543918	-0.173448	-0.000100
C28	C	-0.043918	0.326552	0.499900
C29	C	-0.513595	-0.103851	-0.000106
C30	C	-0.013595	0.396149	0.499894
C31	C	-0.562220	-0.035513	-0.000111
C32	C	-0.062220	0.464487	0.499889
C33	C	-0.641162	-0.036776	-0.000106
C34	C	-0.141162	0.463224	0.499894
C35	C	-0.243857	-0.030418	-0.000130
C36	C	0.256143	0.469582	0.499870
C37	C	-0.164909	-0.029160	-0.000132
C38	C	0.335091	0.470840	0.499868
C39	C	-0.146613	-0.167089	-0.000123
C40	C	0.353387	0.332911	0.499877
C41	C	-0.225555	-0.168352	-0.000119
C42	C	0.274445	0.331648	0.499881
C43	C	-0.274173	-0.100014	-0.000128
C44	C	0.225827	0.399986	0.499872
C45	C	-0.359772	-0.101384	-0.000118
C46	C	0.140228	0.398616	0.499882
C47	C	-0.427998	-0.102481	-0.000110
C48	C	0.072002	0.397519	0.499890
N49	N	-0.893871	-0.101919	-0.230800
N50	N	-0.393871	0.398081	0.269200
C51	C	-0.899661	0.036450	-0.000123
C52	C	-0.399661	0.536450	0.499877
C53	C	-0.898319	0.120468	-0.000119
C54	C	-0.398319	0.620468	0.499881
C55	C	-0.032271	-0.096155	-0.000137
C56	C	0.467729	0.403845	0.499863
C57	C	-0.116289	-0.097494	-0.000136
C58	C	0.383711	0.402506	0.499864
C59	C	-0.888109	-0.240321	-0.000118
C60	C	-0.388109	0.259679	0.499882
C61	C	-0.889450	-0.324339	-0.000117
C62	C	-0.389450	0.175661	0.499883
C63	C	-0.897698	0.159930	0.080592
C64	C	-0.397698	0.659930	0.580592
C65	C	-0.896433	0.238873	0.080593
C66	C	-0.396433	0.738873	0.580593
C67	C	-0.895795	0.278353	-0.000117
C68	C	-0.395795	0.778353	0.499883
C69	C	-0.896415	0.238886	-0.080835
C70	C	-0.396415	0.738886	0.419165
C71	C	-0.897674	0.159943	-0.080835
C72	C	-0.397674	0.659943	0.419165
C73	C	-0.891334	0.557251	-0.080835
C74	C	-0.391334	1.057251	0.419165
C75	C	-0.890077	0.636199	-0.080829
C76	C	-0.390077	1.136199	0.419171
C77	C	-0.890093	0.636180	0.080593
C78	C	-0.390093	1.136180	0.580593
C79	C	-0.891352	0.557238	0.080593
C80	C	-0.391352	1.057238	0.580593
C81	C	-0.891968	0.517777	-0.000124
C82	C	-0.391968	1.017777	0.499876
C83	C	-0.893338	0.432178	-0.000124
C84	C	-0.393338	0.932178	0.499876
C85	C	-0.894430	0.363952	-0.000118
C86	C	-0.394430	0.863952	0.499882
N87	N	-0.893904	-0.101946	0.230556
N88	N	-0.393904	0.398054	0.730556
C89	C	-0.947837	-0.048191	0.529539
C90	C	-0.447837	0.451809	1.029539
C91	C	-0.879526	-0.033490	0.470181
C92	C	-0.379526	0.466510	0.970181
C93	C	-0.893881	-0.101928	0.587593
C94	C	-0.393881	0.398072	1.087593
C95	C	-0.962201	-0.116602	0.470209
C96	C	-0.462201	0.383398	0.970209
C97	C	-0.893896	-0.101934	0.412169
C98	C	-0.393896	0.398066	0.912169
C99	C	-0.825535	-0.087192	0.529542
C100	C	-0.325535	0.412808	1.029542
C101	C	-0.908255	-0.170334	0.529575
C102	C	-0.408255	0.329666	1.029575
C103	C	-0.839895	-0.155662	0.470244
C104	C	-0.339895	0.344338	0.970244
C105	C	-0.893873	-0.101922	0.688651
C106	C	-0.393873	0.398078	1.188651
C107	C	-0.893896	-0.101941	0.311114
C108	C	-0.393896	0.398059	0.811114
H109	H	-0.504335	-0.229091	-0.000097
H110	H	-0.004335	0.270909	0.499903
F111	F	-0.863630	0.042119	0.436088
F112	F	-0.363630	0.542119	0.936088
H113	H	-0.895930	0.271000	0.146316
H114	H	-0.395930	0.771000	0.646316
H115	H	-0.767750	-0.074718	0.555495
H116	H	-0.267750	0.425282	1.055495
H117	H	-0.891875	0.525097	0.146316
H118	H	-0.391875	1.025097	0.646316
H119	H	-0.107018	-0.222733	-0.000121
H120	H	0.392982	0.277267	0.499879
H121	H	-0.993408	-0.002716	0.555575
H122	H	-0.493408	0.497284	1.055575
H123	H	-0.889555	0.668341	-0.146557
H124	H	-0.389555	1.168341	0.353443
F125	F	-0.780200	-0.215068	0.436427
F126	F	-0.280200	0.284932	0.936427
H127	H	-0.647544	-0.231383	-0.000083
H128	H	-0.147544	0.268617	0.499917
F129	F	-0.924174	-0.245920	0.563705
F130	F	-0.424174	0.254080	1.063705
F131	F	-0.257822	-0.242426	-0.000107
F132	F	0.242178	0.257574	0.499893
F133	F	-1.037712	-0.132821	0.436139
F134	F	-0.537712	0.367179	0.936139
F135	F	-0.898382	0.117920	0.166497
F136	F	-0.398382	0.617920	0.666497
H137	H	-0.283433	0.025227	-0.000138
H138	H	0.216567	0.525227	0.499862
F139	F	-0.132640	0.044918	-0.000139
F140	F	0.367360	0.544918	0.499861
F141	F	-0.895727	0.280905	-0.166733
F142	F	-0.395727	0.780905	0.333267
F143	F	-0.529947	0.038557	-0.000123
F144	F	-0.029947	0.538557	0.499877
F145	F	-0.889436	0.678184	0.166500
F146	F	-0.389436	1.178184	0.666500
F147	F	-0.898335	0.117946	-0.166738
F148	F	-0.398335	0.617946	0.333262
F149	F	-0.692906	0.035954	-0.000111
F150	F	-0.192906	0.535954	0.499889
F151	F	-0.891979	0.515262	-0.166741
F152	F	-0.391979	1.015262	0.333259
