data_functionalizedCrystal
_audit_creation_method	'MofGen! by Chris Wilmer'
_symmetry_space_group_name_H-M	'P1'
_symmetry_Int_Tables_number	1
_symmetry_cell_setting	triclinic
loop_
_symmetry_equiv_pos_as_xyz
  x,y,z
_cell_length_a	13.262390
_cell_length_b	19.188924
_cell_length_c	12.376457
_cell_angle_alpha	101.235232
_cell_angle_beta	63.168449
_cell_angle_gamma	83.812011
loop_
_atom_site_label
_atom_site_type_symbol
_atom_site_fract_x
_atom_site_fract_y
_atom_site_fract_z
O1	O	1.512328	0.014816	-0.558985
O2	O	1.185081	0.039301	-0.458374
O3	O	1.358149	-0.074964	-0.511570
O4	O	1.339260	0.129080	-0.505789
O5	O	1.314898	-0.046435	-0.310264
O6	O	1.141829	0.067830	-0.257067
O7	O	1.469077	0.043345	-0.357679
Zn8	Zn	1.298586	0.060117	-0.275411
Zn9	Zn	1.355572	0.022529	-0.540641
O10	O	1.296008	0.157609	-0.304483
C11	C	1.121588	0.054817	-0.344849
C12	C	0.996838	0.058537	-0.306494
C13	C	0.739506	0.006806	-0.637326
C14	C	0.856716	0.003307	-0.673364
C15	C	0.891753	0.017114	-0.581649
C16	C	0.809567	0.034421	-0.453891
C17	C	0.692346	0.037915	-0.417849
C18	C	0.844593	0.048223	-0.362173
C19	C	0.762407	0.065529	-0.234414
C20	C	0.645199	0.069023	-0.198379
C21	C	0.610162	0.055216	-0.290093
C22	C	0.961814	0.044729	-0.398214
C23	C	0.914654	0.075838	-0.178738
C24	C	0.797444	0.079337	-0.142700
C25	C	1.335913	-0.086687	-0.410728
C26	C	1.334079	-0.164119	-0.410161
C27	C	1.356800	-0.216036	-0.519631
C28	C	1.355064	-0.288793	-0.519105
C29	C	1.330628	-0.309631	-0.409112
C30	C	1.307898	-0.257703	-0.299626
C31	C	1.309623	-0.184947	-0.300151
N32	N	1.374322	-0.420106	-0.346271
N33	N	1.372687	-0.489223	-0.345781
C34	C	1.325425	-0.528839	-0.407523
N35	N	1.279878	-0.496732	-0.469797
N36	N	1.281519	-0.427611	-0.470292
C37	C	1.328753	-0.388521	-0.408530
C38	C	1.346263	-0.659647	-0.516430
C39	C	1.344519	-0.732404	-0.515898
C40	C	1.297363	-0.701313	-0.296418
C41	C	1.299097	-0.628558	-0.296950
C42	C	1.323553	-0.607730	-0.406961
C43	C	1.532570	0.027828	-0.471207
C44	C	1.657322	0.024107	-0.509570
C45	C	1.318246	0.169331	-0.405328
C46	C	1.320081	0.246763	-0.405902
N47	N	1.259703	0.085769	-0.094402
N48	N	1.394464	-0.003130	-0.721654
C49	C	1.484724	-0.062690	0.191418
C50	C	1.511932	-0.080644	0.064716
C51	C	1.448877	-0.039043	0.024930
C52	C	1.358609	0.020516	0.111860
C53	C	1.331405	0.038475	0.238573
C54	C	1.295557	0.062123	0.072085
C55	C	1.205290	0.121682	0.159015
C56	C	1.178089	0.139638	0.285715
C57	C	1.241144	0.098036	0.325501
C58	C	1.322762	0.044164	-0.054629
C59	C	1.169443	0.145330	-0.007474
C60	C	1.142235	0.163283	0.119229
H61	H	0.987192	0.014265	-0.611000
H62	H	1.396258	-0.004329	-0.125397
H63	H	1.218989	0.112652	0.428673
C64	C	1.068315	0.212086	0.500884
C65	C	1.078873	0.205108	0.381270
H66	H	1.007067	0.252508	0.559870
H67	H	1.051888	0.168921	0.525332
H68	H	1.138826	0.219576	0.498571
H69	H	1.008364	0.197613	0.383581
H70	H	1.095293	0.248284	0.356816
C71	C	1.571313	-0.119845	-0.182239
C72	C	1.478773	-0.058782	-0.114341
H73	H	1.589763	-0.132036	-0.268220
H74	H	1.636928	-0.109128	-0.175665
H75	H	1.549998	-0.159788	-0.148890
H76	H	1.500092	-0.018837	-0.147684
H77	H	1.413145	-0.069496	-0.120923
C78	C	1.466520	-0.844060	-0.672302
C79	C	1.369496	-0.789480	-0.636231
H80	H	1.481934	-0.879300	-0.746586
H81	H	1.531722	-0.823034	-0.688086
H82	H	1.451692	-0.866871	-0.606699
H83	H	1.384327	-0.766666	-0.701831
H84	H	1.304280	-0.810509	-0.620454
C85	C	1.298103	-0.325904	-0.676282
C86	C	1.380006	-0.345878	-0.639421
H87	H	1.313496	-0.361145	-0.750557
H88	H	1.222627	-0.323425	-0.610947
H89	H	1.302655	-0.279598	-0.692362
H90	H	1.375447	-0.392181	-0.623332
H91	H	1.455500	-0.348365	-0.704771
C92	C	1.638988	-0.164492	0.132104
C93	C	1.554020	-0.108419	0.235154
H94	H	1.681772	-0.192723	0.159107
H95	H	1.602944	-0.194717	0.097041
H96	H	1.689883	-0.144062	0.070286
H97	H	1.503119	-0.128849	0.296969
H98	H	1.590064	-0.078189	0.270237
C99	C	0.939098	0.217696	0.218168
C100	C	1.043016	0.228750	0.214793
H101	H	0.877845	0.258110	0.277173
H102	H	0.946275	0.212965	0.137025
H103	H	0.922692	0.174521	0.242615
H104	H	1.059427	0.271922	0.190337
H105	H	1.035840	0.233489	0.295953
C106	C	1.175165	0.221162	-0.142329
C107	C	1.100125	0.191064	-0.051192
H108	H	1.132376	0.249391	-0.169329
H109	H	1.211194	0.251390	-0.107252
H110	H	1.232806	0.183112	-0.212226
H111	H	1.042489	0.229115	0.018709
H112	H	1.064077	0.160834	-0.086267
H113	H	0.730512	0.093427	-0.038676
C114	C	1.025154	0.077655	-0.592400
C115	C	1.052144	0.025716	-0.538639
H116	H	1.080927	0.065919	-0.679095
H117	H	0.950342	0.077753	-0.584060
H118	H	1.025909	0.124516	-0.550515
H119	H	1.051381	-0.021145	-0.580518
H120	H	1.126976	0.025610	-0.546988
H121	H	0.923625	-0.010787	-0.777385
H122	H	1.277459	-0.718278	-0.206857
C123	C	1.289295	-0.140526	-0.617757
C124	C	1.383531	-0.193173	-0.640546
H125	H	1.305761	-0.126417	-0.692404
H126	H	1.222149	-0.160280	-0.592723
H127	H	1.276080	-0.099171	-0.552700
H128	H	1.396741	-0.234530	-0.705597
H129	H	1.450697	-0.173420	-0.665598
H130	H	0.514722	0.058066	-0.260757
C131	C	1.279030	-0.584042	-0.614669
C132	C	1.373159	-0.636736	-0.637343
H133	H	1.295648	-0.569895	-0.689314
H134	H	1.211865	-0.603773	-0.589796
H135	H	1.265753	-0.542717	-0.549530
H136	H	1.386431	-0.678064	-0.702475
H137	H	1.440344	-0.617007	-0.662233
C138	C	0.610357	0.099428	0.014946
C139	C	0.554859	0.088043	-0.057946
H140	H	0.554584	0.111174	0.101643
H141	H	0.665822	0.056374	-0.006359
H142	H	0.648290	0.138466	-0.000997
H143	H	0.516934	0.049001	-0.042010
H144	H	0.499374	0.131102	-0.036632
H145	H	1.280604	-0.586286	-0.207811
H146	H	1.585428	-0.129136	-0.006058
H147	H	1.291116	-0.142674	-0.211003
H148	H	0.710968	-0.004441	-0.711986
C149	C	1.073389	0.084301	-0.136526
C150	C	0.953152	0.091018	-0.077913
H151	H	1.097158	0.093674	-0.074284
H152	H	1.111047	0.036295	-0.190201
H153	H	1.093500	0.118389	-0.184826
H154	H	0.933042	0.056926	-0.029620
H155	H	0.915481	0.139030	-0.024216
C156	C	1.284325	-0.355431	-0.201375
C157	C	1.281036	-0.280605	-0.178718
H158	H	1.267742	-0.369567	-0.126727
H159	H	1.228216	-0.365734	-0.226231
H160	H	1.359257	-0.381736	-0.266520
H161	H	1.206101	-0.254300	-0.113578
H162	H	1.337148	-0.270295	-0.153844
