data_functionalizedCrystal
_audit_creation_method	'MofGen! by Chris Wilmer'
_symmetry_space_group_name_H-M	'P1'
_symmetry_Int_Tables_number	1
_symmetry_cell_setting	triclinic
loop_
_symmetry_equiv_pos_as_xyz
  x,y,z
_cell_length_a	10.540539
_cell_length_b	19.188930
_cell_length_c	9.616153
_cell_angle_alpha	89.992615
_cell_angle_beta	89.995174
_cell_angle_gamma	83.835137
loop_
_atom_site_label
_atom_site_type_symbol
_atom_site_fract_x
_atom_site_fract_y
_atom_site_fract_z
O1	O	1.683724	0.098389	-0.115598
O2	O	1.314107	0.107659	-0.115617
O3	O	1.509582	0.001439	-0.115579
O4	O	1.488249	0.204608	-0.115635
O5	O	1.509555	0.001441	0.115712
O6	O	1.314080	0.107661	0.115675
O7	O	1.683697	0.098391	0.115694
Zn8	Zn	1.498885	0.103026	0.152407
Zn9	Zn	1.498920	0.103023	-0.152330
O10	O	1.488222	0.204610	0.115657
C11	C	1.266806	0.106965	0.000027
C12	C	1.125904	0.104885	0.000021
C13	C	0.944233	0.025184	0.000583
C14	C	1.090805	0.027292	0.000047
C15	C	1.063423	0.142224	-0.132063
C16	C	0.916937	0.139576	-0.132158
C17	C	0.916384	0.141157	0.130863
C18	C	1.063350	0.141872	0.132594
C19	C	1.508878	-0.024575	0.000070
C20	C	1.506804	-0.102094	0.000082
C21	C	1.621502	-0.146253	0.000095
C22	C	1.619554	-0.219090	0.000072
C23	C	1.502901	-0.247764	0.000065
C24	C	1.388187	-0.203595	0.000045
C25	C	1.390139	-0.130760	0.000053
N26	N	1.413724	-0.356363	0.078774
N27	N	1.411878	-0.425554	0.078769
C28	C	1.497014	-0.467212	0.000037
N29	N	1.584085	-0.437067	-0.078672
N30	N	1.585935	-0.367870	-0.078661
C31	C	1.500772	-0.326741	0.000055
C32	C	1.609608	-0.590350	0.000023
C33	C	1.607655	-0.663188	-0.000008
C34	C	1.376285	-0.647691	-0.000021
C35	C	1.378241	-0.574855	-0.000004
C36	C	1.494906	-0.546189	0.000025
C37	C	1.730998	0.099085	0.000047
C38	C	1.871901	0.101165	0.000044
C39	C	1.488927	0.230625	0.000004
C40	C	1.491000	0.308143	-0.000017
N41	N	1.498870	0.103028	0.360381
N42	N	1.498945	0.103016	-0.360304
C43	C	1.393992	0.159658	0.580731
C44	C	1.394216	0.159870	0.419564
C45	C	1.631228	0.119601	0.418832
C46	C	1.630655	0.120002	0.580050
C47	C	1.472715	0.029640	0.580311
C48	C	1.469658	0.030115	0.419084
H49	H	1.106595	0.116284	-0.230348
H50	H	1.133213	-0.002297	-0.094785
H51	H	1.704603	-0.567009	0.000040
H52	H	0.885379	0.116047	0.230981
H53	H	1.653830	0.173535	0.617625
N54	N	1.414665	0.227561	0.631529
N55	N	1.506357	0.234421	0.710968
H56	H	1.520962	0.282377	0.746846
H57	H	1.086329	0.198442	0.140553
H58	H	1.716500	-0.122918	0.000113
H59	H	1.295819	0.149898	0.380047
H60	H	1.296735	-0.094804	0.000044
H61	H	1.711170	0.080409	0.619052
N62	N	1.724835	-0.708288	-0.000014
N63	N	1.828983	-0.682680	0.000006
H64	H	1.911745	-0.714533	0.000000
H65	H	1.549256	-0.012519	0.618442
N66	N	0.855567	0.211459	0.131965
N67	N	0.736581	0.222491	0.136260
H68	H	0.693622	0.272139	0.137029
H69	H	1.295284	0.149839	0.619541
H70	H	1.281303	-0.671037	-0.000034
N71	N	0.882335	0.104955	-0.256005
N72	N	0.966332	0.082911	-0.341765
H73	H	0.941902	0.058458	-0.429235
N74	N	1.736732	-0.264198	0.000083
N75	N	1.840884	-0.238594	0.000105
H76	H	1.923643	-0.270450	0.000116
N77	N	1.731536	0.069275	0.370742
N78	N	1.844203	0.074059	0.406795
H79	H	1.915047	0.038516	0.372831
H80	H	1.293208	-0.226946	0.000036
H81	H	0.867739	0.195380	-0.138168
N82	N	1.415095	0.228176	0.371158
N83	N	1.429559	0.275837	0.456443
H84	H	1.444285	0.324085	0.422259
N85	N	1.660992	0.185998	0.368136
N86	N	1.584946	0.221222	0.288975
H87	H	1.605960	0.268117	0.253171
N88	N	1.354272	0.009875	0.631367
N89	N	1.287748	0.049634	0.712155
H90	H	1.204089	0.035685	0.748209
N91	N	1.261066	-0.529753	-0.000012
N92	N	1.156918	-0.555360	-0.000024
H93	H	1.074156	-0.523507	-0.000033
N94	N	1.089891	0.213708	-0.138235
N95	N	1.155257	0.237987	-0.045133
H96	H	1.173952	0.288473	-0.049488
N97	N	1.347509	0.014360	0.371185
N98	N	1.249623	0.054313	0.400603
H99	H	1.163353	0.043189	0.366768
N100	N	1.145053	-0.009573	0.118823
N101	N	1.074673	-0.037043	0.202694
H102	H	1.112981	-0.063085	0.286580
N103	N	0.909279	-0.013242	0.119486
N104	N	0.830641	0.014918	0.205214
H105	H	0.805977	-0.012212	0.289219
H106	H	1.541158	-0.014059	0.378804
H107	H	0.914709	-0.005341	-0.093599
H108	H	1.104902	0.114594	0.230309
