data_functionalizedCrystal
_audit_creation_method	'MofGen! by Chris Wilmer'
_symmetry_space_group_name_H-M	'P1'
_symmetry_Int_Tables_number	1
_symmetry_cell_setting	triclinic
loop_
_symmetry_equiv_pos_as_xyz
  x,y,z
_cell_length_a	14.971486
_cell_length_b	16.109301
_cell_length_c	14.048226
_cell_angle_alpha	89.992144
_cell_angle_beta	89.998499
_cell_angle_gamma	83.537805
loop_
_atom_site_label
_atom_site_type_symbol
_atom_site_fract_x
_atom_site_fract_y
_atom_site_fract_z
O1	O	1.186791	0.108348	-0.079054
O2	O	1.520124	0.441681	0.254279
O3	O	1.853457	0.775014	0.587612
O4	O	0.926372	0.121323	-0.079081
O5	O	1.259705	0.454656	0.254253
O6	O	1.593039	0.787989	0.587586
O7	O	1.063735	-0.006187	-0.079057
O8	O	1.397069	0.327146	0.254276
O9	O	1.730402	0.660480	0.587610
O10	O	1.049427	0.235857	-0.079078
O11	O	1.382761	0.569191	0.254256
O12	O	1.716094	0.902524	0.587589
O13	O	1.063719	-0.006194	0.079264
O14	O	1.397052	0.327139	0.412598
O15	O	1.730385	0.660472	0.745931
O16	O	0.926355	0.121315	0.079241
O17	O	1.259689	0.454648	0.412574
O18	O	1.593022	0.787982	0.745907
O19	O	1.186774	0.108340	0.079267
O20	O	1.520108	0.441674	0.412600
O21	O	1.853441	0.775007	0.745934
Zn22	Zn	1.056562	0.114826	0.104391
Zn23	Zn	1.389896	0.448160	0.437724
Zn24	Zn	1.723229	0.781493	0.771058
Zn25	Zn	1.056584	0.114836	-0.104204
Zn26	Zn	1.389917	0.448170	0.229129
Zn27	Zn	1.723251	0.781503	0.562462
O28	O	1.049411	0.235850	0.079244
O29	O	1.382744	0.569183	0.412577
O30	O	1.716078	0.902516	0.745910
C31	C	0.893040	0.120739	0.000077
C32	C	1.226373	0.454072	0.333410
C33	C	1.559706	0.787405	0.666744
C34	C	0.793745	0.119000	0.000067
C35	C	1.127079	0.452333	0.333400
C36	C	1.460412	0.785666	0.666734
C37	C	0.736412	0.193908	0.000062
C38	C	1.069745	0.527241	0.333395
C39	C	1.403078	0.860575	0.666729
C40	C	0.643115	0.192269	0.000076
C41	C	0.976448	0.525603	0.333410
C42	C	1.309781	0.858936	0.666743
C43	C	0.607153	0.115721	0.000089
C44	C	0.940486	0.449055	0.333422
C45	C	1.273819	0.782388	0.666756
C46	C	0.664494	0.040807	0.000097
C47	C	0.997827	0.374140	0.333430
C48	C	1.331160	0.707474	0.666764
C49	C	0.757789	0.042447	0.000089
C50	C	1.091122	0.375780	0.333423
C51	C	1.424455	0.709113	0.666756
C52	C	0.470036	0.037395	0.000110
C53	C	0.803369	0.370728	0.333444
C54	C	1.136703	0.704062	0.666777
C55	C	0.376734	0.035755	0.000116
C56	C	0.710068	0.369088	0.333449
C57	C	1.043401	0.702421	0.666783
C58	C	0.355362	0.187217	0.000097
C59	C	0.688695	0.520551	0.333431
C60	C	1.022029	0.853884	0.666764
C61	C	0.448657	0.188857	0.000090
C62	C	0.781990	0.522190	0.333423
C63	C	1.115324	0.855524	0.666756
C64	C	0.505991	0.113942	0.000096
C65	C	0.839325	0.447276	0.333429
C66	C	1.172658	0.780609	0.666763
C67	C	1.063147	-0.037166	0.000104
C68	C	1.396481	0.296167	0.333437
C69	C	1.729814	0.629500	0.666771
C70	C	1.061410	-0.129464	0.000105
C71	C	1.394743	0.203870	0.333439
C72	C	1.728076	0.537203	0.666772
C73	C	1.138878	-0.351640	0.000098
C74	C	1.472212	-0.018306	0.333431
C75	C	1.805545	0.315027	0.666765
C76	C	1.137239	-0.438362	0.000090
C77	C	1.470572	-0.105029	0.333423
C78	C	1.803905	0.228305	0.666757
C79	C	0.974262	-0.418691	0.000077
C80	C	1.307595	-0.085357	0.333411
C81	C	1.640928	0.247976	0.666744
C82	C	0.975902	-0.331970	0.000078
C83	C	1.309236	0.001363	0.333412
C84	C	1.642569	0.334697	0.666745
C85	C	1.058213	-0.298447	0.000094
C86	C	1.391546	0.034886	0.333427
C87	C	1.724880	0.368220	0.666760
C88	C	1.054933	-0.471890	0.000085
C89	C	1.388266	-0.138557	0.333418
C90	C	1.721600	0.194776	0.666751
C91	C	1.053155	-0.565918	0.000076
C92	C	1.386488	-0.232585	0.333409
C93	C	1.719821	0.100748	0.666743
C94	C	1.059992	-0.204413	0.000101
C95	C	1.393325	0.128921	0.333434
C96	C	1.726659	0.462254	0.666767
C97	C	1.220106	0.108924	0.000108
C98	C	1.553440	0.442258	0.333441
C99	C	1.886773	0.775591	0.666774
C100	C	1.319401	0.110663	0.000111
C101	C	1.652734	0.443996	0.333444
C102	C	1.986068	0.777330	0.666778
C103	C	1.049999	0.266829	0.000080
C104	C	1.383332	0.600162	0.333414
C105	C	1.716665	0.933496	0.666747
C106	C	1.051736	0.359127	0.000073
C107	C	1.385070	0.692460	0.333406
C108	C	1.718403	1.025793	0.666740
N109	N	1.056554	0.114819	0.246752
N110	N	1.389887	0.448153	0.580085
N111	N	1.723221	0.781486	0.913418
N112	N	1.056599	0.114837	-0.246565
N113	N	1.389933	0.448170	0.086768
N114	N	1.723266	0.781504	0.420102
C115	C	1.117397	0.058381	0.296580
C116	C	1.450731	0.391715	0.629913
C117	C	1.784064	0.725048	0.963247
C118	C	1.117403	0.058381	0.396238
C119	C	1.450737	0.391714	0.729571
C120	C	1.784070	0.725048	1.062904
C121	C	1.056570	0.114823	0.446065
C122	C	1.389903	0.448156	0.779398
C123	C	1.723236	0.781490	1.112732
C124	C	0.995719	0.171263	0.396230
C125	C	1.329053	0.504597	0.729563
C126	C	1.662386	0.837930	1.062896
C127	C	0.995710	0.171259	0.296574
C128	C	1.329043	0.504593	0.629907
C129	C	1.662377	0.837926	0.963240
C130	C	0.995745	0.171269	0.603944
C131	C	1.329079	0.504603	0.937277
C132	C	1.662412	0.837936	1.270610
C133	C	0.995756	0.171275	0.703607
C134	C	1.329089	0.504608	1.036940
C135	C	1.662422	0.837942	1.370273
C136	C	1.117439	0.058391	0.703608
C137	C	1.450772	0.391724	1.036941
C138	C	1.784106	0.725058	1.370274
C139	C	1.117429	0.058387	0.603952
C140	C	1.450763	0.391720	0.937285
C141	C	1.784096	0.725054	1.270619
C142	C	1.056580	0.114829	0.554123
C143	C	1.389913	0.448162	0.887457
C144	C	1.723247	0.781495	1.220790
H145	H	0.765684	0.256242	0.000051
H146	H	1.099017	0.589576	0.333384
H147	H	1.432351	0.922909	0.666718
H148	H	1.166946	0.012424	0.436808
H149	H	1.500280	0.345758	0.770141
H150	H	1.833613	0.679091	1.103474
H151	H	1.205901	-0.324348	0.000108
H152	H	1.539234	0.008985	0.333442
H153	H	1.872568	0.342318	0.666775
H154	H	0.596437	0.253267	0.000071
H155	H	0.929770	0.586601	0.333404
H156	H	1.263104	0.919934	0.666738
H157	H	0.516716	-0.023609	0.000117
H158	H	0.850049	0.309725	0.333450
H159	H	1.183382	0.643058	0.666784
H160	H	0.907247	-0.445996	0.000067
H161	H	1.240580	-0.112663	0.333400
H162	H	1.573914	0.220671	0.666733
H163	H	0.946192	0.217228	0.563377
H164	H	1.279526	0.550561	0.896710
H165	H	1.612859	0.883894	1.230043
H166	H	0.308675	0.248215	0.000097
H167	H	0.642009	0.581549	0.333430
H168	H	0.975342	0.914882	0.666763
H169	H	0.910211	-0.288658	0.000072
H170	H	1.243544	0.044675	0.333405
H171	H	1.576878	0.378009	0.666739
H172	H	0.804470	-0.018551	0.000093
H173	H	1.137803	0.314782	0.333426
H174	H	1.471136	0.648115	0.666760
H175	H	1.166969	0.012432	0.563383
H176	H	1.500302	0.345765	0.896716
H177	H	1.833636	0.679098	1.230049
H178	H	1.166984	0.012434	0.744184
H179	H	1.500317	0.345768	1.077517
H180	H	1.833651	0.679101	1.410851
H181	H	0.477934	0.251189	0.000070
H182	H	0.811267	0.584522	0.333404
H183	H	1.144601	0.917856	0.666737
H184	H	0.946218	0.217235	0.744171
H185	H	1.279551	0.550568	1.077504
H186	H	1.612884	0.883902	1.410838
H187	H	0.946183	0.217217	0.436805
H188	H	1.279516	0.550550	0.770138
H189	H	1.612849	0.883884	1.103471
H190	H	1.202924	-0.481669	0.000092
H191	H	1.536258	-0.148335	0.333425
H192	H	1.869591	0.184998	0.666758
H193	H	1.166939	0.012423	0.256017
H194	H	1.500272	0.345757	0.589350
H195	H	1.833606	0.679090	0.922684
H196	H	0.347458	-0.026577	0.000128
H197	H	0.680791	0.306756	0.333461
H198	H	1.014124	0.640089	0.666794
H199	H	0.946164	0.217216	0.256004
H200	H	1.279497	0.550549	0.589338
H201	H	1.612830	0.883882	0.922671
H202	H	0.635206	-0.021520	0.000121
H203	H	0.968539	0.311814	0.333454
H204	H	1.301873	0.645147	0.666788
