data_functionalizedCrystal
_audit_creation_method	'MofGen! by Chris Wilmer'
_symmetry_space_group_name_H-M	'P1'
_symmetry_Int_Tables_number	1
_symmetry_cell_setting	triclinic
loop_
_symmetry_equiv_pos_as_xyz
  x,y,z
_cell_length_a	10.968094
_cell_length_b	12.811415
_cell_length_c	9.482900
_cell_angle_alpha	94.039455
_cell_angle_beta	92.548310
_cell_angle_gamma	85.526424
loop_
_atom_site_label
_atom_site_type_symbol
_atom_site_fract_x
_atom_site_fract_y
_atom_site_fract_z
O1	O	1.614808	0.182173	0.259601
O2	O	1.265657	0.184443	0.171836
O3	O	1.445973	0.033439	0.236921
O4	O	1.434491	0.333177	0.194515
O5	O	1.409350	0.064240	0.465477
O6	O	1.229034	0.215244	0.400392
O7	O	1.578185	0.212974	0.488156
Cu8	Cu	1.400265	0.216922	0.465143
Cu9	Cu	1.443576	0.180495	0.194849
O10	O	1.397868	0.363979	0.423071
C11	C	1.202596	0.197352	0.275232
C12	C	1.069255	0.189917	0.242810
C13	C	0.853017	0.194862	0.313236
C14	C	0.990828	0.202556	0.346759
C15	C	1.425896	0.010352	0.355830
C16	C	1.420620	-0.104329	0.369623
C17	C	1.450614	-0.353400	0.146336
C18	C	1.445658	-0.461154	0.159290
C19	C	1.405742	-0.427593	0.408480
C20	C	1.410698	-0.319839	0.395526
C21	C	1.433137	-0.282747	0.264451
C22	C	1.438102	-0.174992	0.251501
C23	C	1.398177	-0.141432	0.500687
C24	C	1.393221	-0.249186	0.513641
C25	C	1.641246	0.200064	0.384757
C26	C	1.774588	0.207498	0.417171
C27	C	1.417946	0.387065	0.304160
C28	C	1.423224	0.501745	0.290358
N29	N	1.369811	0.242542	0.655256
N30	N	1.474040	0.154868	0.004740
C31	C	1.434585	0.188046	0.750868
C32	C	1.409256	0.209371	0.909128
H33	H	1.025702	0.219067	0.460568
H34	H	0.809469	0.224008	0.530971
C35	C	0.805914	0.172568	0.159494
H36	H	0.872990	0.165636	0.098634
H37	H	0.750223	0.228939	0.132715
H38	H	0.765486	0.109363	0.152280
C39	C	1.381067	-0.468408	0.552648
H40	H	1.380627	-0.542702	0.543441
H41	H	1.303909	-0.438819	0.583592
H42	H	1.443468	-0.448898	0.619852
C43	C	1.269564	0.326899	0.702938
H44	H	1.265698	0.330170	0.803052
H45	H	1.192835	0.309453	0.661164
H46	H	1.288331	0.393129	0.674029
H47	H	1.034383	0.173403	0.129001
H48	H	1.468895	-0.323201	0.039612
H49	H	1.508789	0.125599	0.715564
C50	C	1.378955	-0.063715	0.630624
H51	H	1.364893	-0.101244	0.710541
H52	H	1.310290	-0.015939	0.612621
H53	H	1.449848	-0.026029	0.648886
C54	C	1.462779	-0.134190	0.107325
H55	H	1.472465	-0.191705	0.038834
H56	H	1.535316	-0.097890	0.115222
H57	H	1.395757	-0.087817	0.078957
H58	H	1.335040	0.271814	0.944426
C59	C	1.368548	-0.289994	0.657813
H60	H	1.368107	-0.364289	0.648616
H61	H	1.291391	-0.260402	0.688757
H62	H	1.430950	-0.270480	0.725013
H63	H	1.459885	-0.518677	0.063107
C64	C	1.574323	0.070533	0.957073
H65	H	1.578212	0.067277	0.856961
H66	H	1.555602	0.004295	0.985978
H67	H	1.651042	0.088020	0.998858
