data_functionalizedCrystal
_audit_creation_method	'MofGen! by Chris Wilmer'
_symmetry_space_group_name_H-M	'P1'
_symmetry_Int_Tables_number	1
_symmetry_cell_setting	triclinic
loop_
_symmetry_equiv_pos_as_xyz
  x,y,z
_cell_length_a	23.096457
_cell_length_b	18.426585
_cell_length_c	18.426585
_cell_angle_alpha	89.999024
_cell_angle_beta	119.998248
_cell_angle_gamma	60.003850
loop_
_atom_site_label
_atom_site_type_symbol
_atom_site_fract_x
_atom_site_fract_y
_atom_site_fract_z
Zr1	Zr	0.633750	-0.095221	-0.699131
O2	O	0.754528	-0.211088	-0.583258
O3	O	0.512966	-0.059706	-0.734649
O4	O	0.633747	-0.211098	-0.734653
O5	O	0.633751	0.059730	-0.583255
O6	O	0.633751	-0.211102	-0.854079
O7	O	0.633747	-0.059695	-0.583254
O8	O	0.417696	0.059712	-0.854072
O9	O	0.849806	-0.211083	-0.583261
O10	O	0.562651	-0.044556	-0.838927
O11	O	0.562651	0.044572	-0.749801
O12	O	0.704855	-0.133673	-0.749805
O13	O	0.704855	-0.044544	-0.660679
Zr14	Zr	0.633762	0.095244	-0.889602
Zr15	Zr	0.633756	-0.095226	-0.889601
Zr16	Zr	0.633756	0.095250	-0.699131
Zr17	Zr	0.785707	-0.095213	-0.699135
Zr18	Zr	0.481805	0.095236	-0.889597
O19	O	0.754546	0.059729	-0.854083
O20	O	0.754537	-0.211095	-0.854082
O21	O	0.754537	0.059737	-0.583258
O22	O	0.512984	0.211111	-1.005474
O23	O	0.512975	-0.059713	-1.005474
O24	O	0.512975	0.211119	-0.734650
O25	O	0.633761	-0.059707	-1.005478
O26	O	0.633765	0.211122	-0.854080
O27	O	0.633761	0.211125	-0.734654
O28	O	0.633765	0.059719	-1.005478
O29	O	0.849811	-0.211087	-0.734660
O30	O	0.417701	0.211110	-0.854073
O31	O	0.417706	0.211106	-1.005471
O32	O	0.417701	0.059707	-1.005471
O33	O	0.849811	-0.059684	-0.583261
O34	O	0.849816	-0.059688	-0.734660
O35	O	0.562657	0.133696	-0.838927
O36	O	0.562657	0.044567	-0.928053
O37	O	0.704861	-0.044549	-0.838931
O38	O	0.704861	0.044580	-0.749805
C39	C	0.443681	0.000002	-0.794360
C40	C	0.379171	-0.000002	-0.794358
C41	C	0.633748	0.000018	-0.556117
C42	C	0.633745	0.000020	-0.475257
C43	C	0.633764	0.238261	-0.794367
C44	C	0.633767	0.319121	-0.794367
C45	C	0.348870	-0.046529	-0.840875
C46	C	0.288247	-0.046522	-0.840884
C47	C	0.257940	0.000001	-0.794358
C48	C	0.288245	0.046538	-0.747839
C49	C	0.348860	0.046537	-0.747839
N50	N	0.195542	-0.006448	-0.718646
N51	N	0.137961	-0.006452	-0.718648
C52	C	0.075308	0.000009	-0.794357
N53	N	0.072419	0.006456	-0.870063
N54	N	0.130007	0.006455	-0.870060
C55	C	0.192212	0.000008	-0.794354
C56	C	-0.020727	-0.046513	-0.840888
C57	C	-0.081354	-0.046499	-0.840899
C58	C	-0.081350	0.046555	-0.747846
C59	C	-0.020730	0.046548	-0.747843
C60	C	0.009581	0.000009	-0.794362
C61	C	0.823831	0.000022	-0.794372
C62	C	0.888341	0.000025	-0.794374
C63	C	0.633748	-0.238238	-0.794366
C64	C	0.633745	-0.319098	-0.794365
C65	C	0.633742	0.615236	-0.794368
C66	C	0.633746	0.532850	-0.794370
C67	C	0.633754	0.467181	-0.794368
C68	C	0.633758	0.384790	-0.794369
C69	C	0.633770	0.000006	-0.179142
C70	C	0.633766	0.000007	-0.261528
C71	C	0.633758	0.000012	-0.327197
C72	C	0.633754	0.000016	-0.409588
C73	C	0.633764	0.000006	-0.032616
C74	C	0.633767	0.000005	-0.113475
C75	C	0.443689	-0.000005	-1.032610
C76	C	0.379181	-0.000011	-1.113467
C77	C	0.443689	0.238251	-0.794361
C78	C	0.379181	0.319107	-0.794359
C79	C	0.443697	0.238245	-1.032610
C80	C	0.379192	0.319099	-1.113468
C81	C	0.823815	-0.238221	-0.556122
C82	C	0.888320	-0.319075	-0.475264
C83	C	0.823823	0.000028	-0.556123
C84	C	0.888331	0.000034	-0.475265
C85	C	0.823823	-0.238228	-0.794372
C86	C	0.888331	-0.319084	-0.794374
C87	C	0.348885	-0.046543	-1.104916
C88	C	0.288282	-0.046566	-1.180883
C89	C	0.257973	-0.000051	-1.265401
C90	C	0.288275	0.046483	-1.273950
C91	C	0.348881	0.046500	-1.197984
C92	C	0.348891	0.403608	-0.840881
C93	C	0.288289	0.479588	-0.840876
C94	C	0.257973	0.471066	-0.794353
C95	C	0.288269	0.386557	-0.747825
C96	C	0.348875	0.310578	-0.747826
C97	C	0.348900	0.310544	-1.197971
C98	C	0.288300	0.386508	-1.273952
C99	C	0.257989	0.471025	-1.265430
C100	C	0.288286	0.479578	-1.180918
C101	C	0.348890	0.403615	-1.104938
C102	C	0.918619	-0.310521	-0.390762
C103	C	0.979238	-0.386485	-0.314780
C104	C	1.009553	-0.471002	-0.323303
C105	C	0.979251	-0.479555	-0.407814
C106	C	0.918637	-0.403592	-0.483794
C107	C	0.918633	0.046558	-0.483816
C108	C	0.979253	0.046560	-0.407849
C109	C	1.009565	0.000043	-0.323332
C110	C	0.979259	-0.046487	-0.314782
C111	C	0.918645	-0.046494	-0.390748
C112	C	0.918627	-0.310533	-0.840905
C113	C	0.979230	-0.386499	-0.840924
C114	C	1.009540	-0.471015	-0.794406
C115	C	0.979238	-0.479564	-0.747873
C116	C	0.918631	-0.403599	-0.747860
H117	H	0.263572	-0.084411	-0.878765
O118	O	0.885960	-0.412834	-0.697667
H119	H	0.838718	-0.345818	-0.705473
O120	O	1.074920	-0.552944	-0.794412
H121	H	1.051659	-0.552887	-0.863693
H122	H	-0.106026	0.084435	-0.709964
O123	O	1.011923	0.096761	-0.417080
H124	H	0.980645	0.129119	-0.488614
H125	H	0.893958	-0.241723	-0.878786
O126	O	1.011940	-0.570722	-0.697690
H127	H	1.059180	-0.622101	-0.705513
H128	H	0.208641	0.532872	-1.327305
O129	O	0.192601	0.553017	-0.794359
H130	H	0.137371	0.552965	-0.823467
O131	O	0.011957	0.096734	-0.697677
H132	H	0.078819	0.049774	-0.646263
O133	O	0.255614	0.570731	-0.891067
H134	H	0.188752	0.607572	-0.942478
O135	O	0.381559	-0.096717	-0.891051
H136	H	0.350296	-0.129065	-0.923404
H137	H	1.003900	-0.379504	-0.245975
H138	H	0.263637	0.379529	-1.342758
O139	O	0.255547	0.377389	-0.697667
H140	H	0.306404	0.340515	-0.626156
H141	H	-0.106030	-0.084384	-0.878784
O142	O	1.011952	-0.570716	-0.416998
H143	H	0.961076	-0.578455	-0.453883
H144	H	0.893974	-0.084377	-0.383773
H145	H	1.003949	-0.084361	-0.245957
H146	H	0.373529	0.241777	-0.709945
O147	O	0.885932	-0.219371	-0.381550
H148	H	0.838685	-0.167976	-0.448574
H149	H	0.373540	0.084397	-1.204959
O150	O	1.074938	-0.552932	-0.241349
H151	H	1.090908	-0.532775	-0.181161
O152	O	1.074919	0.000082	-0.241398
H153	H	1.090880	0.040268	-0.261553
O154	O	0.255608	-0.096758	-1.171644
H155	H	0.208381	-0.088972	-1.238662
O156	O	0.381541	0.412859	-1.013801
H157	H	0.448401	0.380490	-0.976945
H158	H	0.893968	-0.410567	-0.552598
H159	H	0.373571	0.241733	-1.204927
O160	O	0.255571	0.096653	-1.365115
H161	H	0.306439	0.069775	-1.372865
H162	H	0.263598	0.548402	-1.173992
H163	H	1.003896	-0.379521	-0.878816
O164	O	0.192598	-0.000065	-1.347334
H165	H	0.176621	-0.040231	-1.327180
O166	O	0.381578	-0.096725	-1.013762
H167	H	0.350330	-0.129092	-1.020593
O168	O	0.885958	0.096719	-0.574970
H169	H	0.917232	0.129053	-0.568140
O170	O	0.381578	0.412819	-0.891065
H171	H	0.428806	0.345796	-0.883265
O172	O	0.255566	0.096713	-0.697651
H173	H	0.208333	0.088888	-0.705456
H174	H	0.003950	-0.084405	-0.878769
O175	O	0.381555	0.096713	-0.697657
H176	H	0.350302	0.129062	-0.665301
