data_functionalizedCrystal
_audit_creation_method	'MofGen! by Chris Wilmer'
_symmetry_space_group_name_H-M	'P1'
_symmetry_Int_Tables_number	1
_symmetry_cell_setting	triclinic
loop_
_symmetry_equiv_pos_as_xyz
  x,y,z
_cell_length_a	8.497374
_cell_length_b	8.497374
_cell_length_c	25.639242
_cell_angle_alpha	90.003377
_cell_angle_beta	90.012325
_cell_angle_gamma	90.005237
loop_
_atom_site_label
_atom_site_type_symbol
_atom_site_fract_x
_atom_site_fract_y
_atom_site_fract_z
Zn1	Zn	0.892552	0.628518	0.799311
Zn2	Zn	0.628818	0.892263	0.799307
Zn3	Zn	0.628731	0.628471	0.711902
Zn4	Zn	0.892501	0.892229	0.711890
O5	O	0.760651	0.760370	0.755602
O6	O	0.857626	0.663538	0.872476
O7	O	0.408044	0.857265	0.787716
O8	O	0.663713	0.407715	0.723504
O9	O	0.663861	0.857311	0.872473
O10	O	0.857541	0.407749	0.787723
O11	O	0.407980	0.663458	0.723500
O12	O	0.663663	0.663425	0.638735
O13	O	1.113270	0.857252	0.723483
O14	O	0.857453	0.857207	0.638726
O15	O	1.113308	0.663505	0.787711
O16	O	0.663811	1.113021	0.787704
O17	O	0.857538	1.112996	0.723479
C18	C	0.760544	0.760308	0.619760
C19	C	0.760535	0.760319	0.561646
C20	C	1.172131	0.760372	0.755599
C21	C	1.350775	0.760389	0.755600
C22	C	0.760673	1.170250	0.755596
C23	C	0.760648	1.348894	0.755610
C24	C	0.861462	0.861441	0.201287
C25	C	0.861487	0.861451	0.146683
O26	O	0.947207	0.947351	0.118449
N27	N	0.760754	0.760414	0.119363
C28	C	0.660000	0.659349	0.146651
O29	O	0.574322	0.573409	0.118400
C30	C	0.659985	0.659333	0.201255
C31	C	0.760713	0.760388	0.228571
C32	C	0.962183	0.962487	0.228603
C33	C	0.962156	0.962479	0.283204
C34	C	0.861407	0.861425	0.310488
C35	C	0.760686	0.760380	0.283171
C36	C	0.559240	0.558261	0.228541
C37	C	0.559234	0.558252	0.283149
C38	C	0.659963	0.659308	0.310465
C39	C	0.659909	0.659318	0.365056
N40	N	0.760642	0.760355	0.392375
C41	C	0.861391	0.861409	0.365091
C42	C	0.660043	0.659389	0.031981
C43	C	0.660050	0.659412	-0.022622
C44	C	0.861538	0.861513	-0.022587
C45	C	0.861523	0.861496	0.032017
C46	C	0.760776	0.760426	0.059300
C47	C	0.861325	0.861385	0.479756
C48	C	0.861284	0.861373	0.534362
C49	C	0.659802	0.659268	0.534322
C50	C	0.659836	0.659285	0.479721
C51	C	0.760611	0.760349	0.452440
O52	O	0.574237	0.573457	0.393324
O53	O	0.947070	0.947320	0.393349
C54	C	0.760759	0.760434	0.891975
C55	C	0.760805	0.760461	0.950089
H56	H	0.943311	0.943670	0.556600
H57	H	1.044234	1.044777	0.206394
O58	O	0.959527	0.959701	0.058469
C59	C	1.048414	1.048921	0.022671
H60	H	1.053968	0.984319	-0.016254
H61	H	1.172687	1.065941	0.038456
H62	H	0.990467	1.168646	0.016865
O63	O	0.562010	0.560892	0.560772
C64	C	0.596754	0.403713	0.547439
H65	H	0.657415	0.400540	0.507800
H66	H	0.483006	0.332792	0.545558
H67	H	0.677932	0.350707	0.578178
H68	H	1.044183	1.044765	0.305440
H69	H	0.943579	0.943791	-0.044811
O70	O	0.959267	0.959704	0.453341
C71	C	1.048180	1.048846	0.489169
H72	H	0.983520	1.054188	0.528082
H73	H	1.064840	1.173176	0.473405
H74	H	1.168074	0.991259	0.494992
O75	O	0.461587	0.460067	0.201947
C76	C	0.551522	0.358290	0.170365
H77	H	0.671016	0.414080	0.162204
H78	H	0.487292	0.337115	0.131960
H79	H	0.568979	0.241378	0.191394
H80	H	0.578011	0.577139	-0.044858
H81	H	0.577992	0.577087	0.054191
O82	O	0.461207	0.460029	0.309570
C83	C	0.372343	0.370823	0.273746
H84	H	0.366814	0.435441	0.234825
H85	H	0.248060	0.353799	0.289503
H86	H	0.430292	0.251100	0.267942
O87	O	0.561776	0.561209	0.453235
C88	C	0.404472	0.595447	0.466539
H89	H	0.401063	0.656080	0.506186
H90	H	0.333912	0.481473	0.468390
H91	H	0.351242	0.676469	0.435801
