data_functionalizedCrystal
_audit_creation_method	'MofGen! by Chris Wilmer'
_symmetry_space_group_name_H-M	'P1'
_symmetry_Int_Tables_number	1
_symmetry_cell_setting	triclinic
loop_
_symmetry_equiv_pos_as_xyz
  x,y,z
_cell_length_a	6.817900
_cell_length_b	19.551786
_cell_length_c	10.773894
_cell_angle_alpha	96.638889
_cell_angle_beta	96.645922
_cell_angle_gamma	101.662645
loop_
_atom_site_label
_atom_site_type_symbol
_atom_site_fract_x
_atom_site_fract_y
_atom_site_fract_z
V1	V	-3.940085	-0.094103	-0.389508
O2	O	-3.938614	0.007164	-0.381497
O3	O	-3.883188	-0.189132	-0.387417
O4	O	-3.857991	-0.091496	-0.559124
O5	O	-3.963985	-0.091147	-0.208601
V6	V	-4.429180	-0.082127	-0.367800
O7	O	-4.189121	-0.120373	-0.437125
O8	O	-4.630342	-0.055858	-0.320183
O9	O	-4.262871	0.012901	-0.369891
O10	O	-4.548049	-0.183395	-0.375811
O11	O	-4.522677	-0.085083	-0.548707
O12	O	-4.288068	-0.084734	-0.198184
C13	C	-3.727212	-0.212334	-0.381420
C14	C	-3.761754	-0.290013	-0.380841
C15	C	-3.996021	-0.840551	-0.262520
C16	C	-3.963548	-0.767561	-0.263051
C17	C	-3.961982	-0.740246	-0.377542
C18	C	-3.992839	-0.785927	-0.491508
C19	C	-4.025290	-0.858915	-0.490973
C20	C	-4.037931	-0.633970	-0.470672
C21	C	-4.005492	-0.560983	-0.471203
C22	C	-3.861883	-0.515129	-0.379198
C23	C	-3.750740	-0.542268	-0.286640
C24	C	-3.783191	-0.615256	-0.286105
C25	C	-3.926794	-0.661105	-0.378135
C26	C	-3.795806	-0.390314	-0.265814
C27	C	-3.763322	-0.317323	-0.266349
C28	C	-3.792634	-0.335691	-0.494811
C29	C	-3.825097	-0.408680	-0.494271
C30	C	-3.826690	-0.435987	-0.379770
C31	C	-3.695070	-0.087789	-0.600448
C32	C	-3.709177	-0.086287	-0.739114
C33	C	-3.887019	-0.088891	-0.806992
C34	C	-3.901602	-0.087338	-0.950311
C35	C	-4.082189	0.036100	-0.375885
C36	C	-4.026884	0.113779	-0.376472
C37	C	-4.114332	-0.088443	-0.156853
C38	C	-4.079464	-0.089942	-0.018186
H39	H	-3.997310	-0.862778	-0.169283
H40	H	-3.567714	-0.082903	-0.787103
H41	H	-4.154872	-0.671300	-0.545603
H42	H	-4.220941	-0.093324	-0.970204
H43	H	-3.938405	-0.730368	-0.170255
C44	C	-3.737651	-0.306504	-0.040476
C45	C	-3.729389	-0.267117	-0.141083
H46	H	-3.716713	-0.275507	0.036857
H47	H	-3.635330	-0.333043	-0.040262
H48	H	-3.866532	-0.337665	-0.049786
H49	H	-3.600502	-0.235960	-0.131778
H50	H	-3.831716	-0.240567	-0.141295
C51	C	-3.528098	-0.589435	-0.103736
C52	C	-3.661010	-0.645089	-0.184384
H53	H	-3.452656	-0.607855	-0.040946
H54	H	-3.603257	-0.559354	-0.064447
H55	H	-3.438217	-0.563359	-0.151123
H56	H	-3.750901	-0.671163	-0.136999
H57	H	-3.585845	-0.675182	-0.223677
C58	C	-4.110128	-0.154704	-0.684848
C59	C	-4.078001	-0.093454	-0.742222
H60	H	-4.228044	-0.157522	-0.644871
H61	H	-3.996673	-0.153265	-0.623697
H62	H	-4.127489	-0.194866	-0.747075
H63	H	-4.060625	-0.053292	-0.679994
H64	H	-4.191483	-0.094887	-0.803379
H65	H	-3.633801	-0.504934	-0.211721
H66	H	-3.797090	-0.412548	-0.172579
H67	H	-3.791348	-0.313452	-0.588031
C68	C	-3.678489	-0.021526	-1.072456
C69	C	-3.710611	-0.082776	-1.015080
H70	H	-3.560589	-0.018713	-1.112449
H71	H	-3.661117	0.018632	-1.010240
H72	H	-3.791969	-0.022966	-1.133609
H73	H	-3.597137	-0.081333	-0.953920
H74	H	-3.727969	-0.122944	-1.077303
C75	C	-3.850832	-0.419502	-0.720142
C76	C	-3.859056	-0.458887	-0.619534
H77	H	-3.871805	-0.450500	-0.797477
H78	H	-3.721972	-0.388344	-0.710851
H79	H	-3.953168	-0.392961	-0.720340
H80	H	-3.756709	-0.485424	-0.619330
H81	H	-3.987933	-0.490058	-0.628827
H82	H	-3.991557	-0.763683	-0.584728
C83	C	-4.230679	-0.900448	-0.692534
C84	C	-4.059241	-0.909123	-0.616238
H85	H	-4.251647	-0.931449	-0.769863
H86	H	-4.211105	-0.853077	-0.709238
H87	H	-4.345561	-0.910946	-0.650247
H88	H	-3.944356	-0.898619	-0.658520
H89	H	-4.078802	-0.956505	-0.599536
C90	C	-4.334299	-0.551519	-0.564834
C91	C	-4.127663	-0.531159	-0.572943
H92	H	-4.409721	-0.533112	-0.627653
H93	H	-4.359178	-0.533704	-0.483692
H94	H	-4.374139	-0.601551	-0.577682
H95	H	-4.087819	-0.481127	-0.560086
H96	H	-4.102772	-0.548970	-0.654105
