data_functionalizedCrystal
_audit_creation_method	'MofGen! by Chris Wilmer'
_symmetry_space_group_name_H-M	'P1'
_symmetry_Int_Tables_number	1
_symmetry_cell_setting	triclinic
loop_
_symmetry_equiv_pos_as_xyz
  x,y,z
_cell_length_a	16.109302
_cell_length_b	10.654545
_cell_length_c	15.186229
_cell_angle_alpha	89.998599
_cell_angle_beta	89.994701
_cell_angle_gamma	83.973604
loop_
_atom_site_label
_atom_site_type_symbol
_atom_site_fract_x
_atom_site_fract_y
_atom_site_fract_z
O1	O	1.104090	0.161423	-0.073264
O2	O	0.862148	0.181511	-0.073256
O3	O	0.988681	-0.011348	-0.073259
O4	O	0.977557	0.354282	-0.073260
O5	O	0.988673	-0.011350	0.073198
O6	O	0.862140	0.181508	0.073201
O7	O	1.104082	0.161421	0.073194
Zn8	Zn	0.983109	0.171464	0.096451
Zn9	Zn	0.983121	0.171467	-0.096513
O10	O	0.977549	0.354279	0.073197
C11	C	0.831164	0.180695	-0.000027
C12	C	0.738854	0.178255	-0.000024
C13	C	0.526475	0.172612	0.079801
C14	C	0.439741	0.170306	0.079798
C15	C	0.439761	0.170315	-0.079878
C16	C	0.526494	0.172612	-0.079874
C17	C	0.569848	0.173767	-0.000032
C18	C	0.396382	0.169164	-0.000039
C19	C	0.302341	0.166664	-0.000042
C20	C	0.663895	0.176265	-0.000027
C21	C	0.987860	-0.058136	-0.000032
C22	C	0.985416	-0.197546	-0.000037
C23	C	0.985435	-0.197552	-0.159710
C24	C	0.984299	-0.263049	-0.239545
C25	C	0.982003	-0.394037	-0.239546
C26	C	0.980840	-0.459530	-0.159703
C27	C	0.981975	-0.394032	-0.079867
C28	C	0.984274	-0.263042	-0.079875
C29	C	0.981950	-0.394026	0.079803
C30	C	0.984252	-0.263039	0.079806
C31	C	0.980786	-0.459518	0.159646
C32	C	0.981928	-0.394022	0.239484
C33	C	0.984226	-0.263027	0.239482
C34	C	0.985388	-0.197542	0.159642
C35	C	1.135066	0.162236	-0.000038
C36	C	1.227376	0.164676	-0.000046
C37	C	0.978370	0.401067	-0.000032
C38	C	0.980814	0.540477	-0.000033
N39	N	0.983108	0.171461	0.228143
N40	N	0.983129	0.171461	-0.228206
C41	C	1.039156	0.086092	0.453865
C42	C	1.039159	0.086089	0.546054
C43	C	0.927074	0.256834	0.546066
C44	C	0.927068	0.256830	0.453878
C45	C	0.983114	0.171460	0.407780
C46	C	0.983123	0.171461	0.592158
C47	C	0.983125	0.171459	0.692114
C48	C	0.983111	0.171461	0.307818
H49	H	0.985245	-0.209710	-0.304552
H50	H	0.881444	0.326341	0.583609
O51	O	0.397511	0.169257	-0.157353
C52	C	0.311660	0.166954	-0.140240
H53	H	0.296592	0.206369	-0.071627
H54	H	0.273776	0.227020	-0.191227
H55	H	0.295188	0.065614	-0.144029
O56	O	0.397485	0.169122	0.157269
C57	C	0.311634	0.166870	0.140150
H58	H	0.303010	0.126829	0.071535
H59	H	0.283598	0.105053	0.191134
H60	H	0.278871	0.266903	0.143940
H61	H	0.978959	-0.566185	-0.159711
O62	O	1.093520	0.003212	0.590957
C63	C	1.081524	0.021534	0.682211
H64	H	1.015697	0.068438	0.694812
H65	H	1.090230	-0.073568	0.717246
H66	H	1.128942	0.084543	0.708364
H67	H	0.881428	0.326347	0.416354
O68	O	0.568577	0.173960	-0.157451
C69	C	0.538588	0.282083	-0.206030
H70	H	0.508593	0.357424	-0.159318
H71	H	0.592683	0.320080	-0.242237
H72	H	0.490239	0.256179	-0.255816
O73	O	0.568467	0.173661	0.157435
C74	C	0.511579	0.172175	0.227896
H75	H	0.452969	0.130808	0.204484
H76	H	0.541559	0.111896	0.283731
H77	H	0.494209	0.272616	0.252450
O78	O	0.987524	-0.070283	-0.159754
C79	C	0.916436	-0.012265	-0.203576
H80	H	0.864870	-0.077783	-0.202174
H81	H	0.893843	0.080154	-0.169181
H82	H	0.933110	0.007752	-0.274806
H83	H	0.981070	-0.447363	-0.304555
O84	O	0.978409	-0.586730	0.159692
C85	C	0.905768	-0.616249	0.203497
H86	H	0.856850	-0.530807	0.202082
H87	H	0.880115	-0.699102	0.169097
H88	H	0.921600	-0.642710	0.274730
H89	H	0.980975	-0.447356	0.304486
H90	H	0.987263	-0.090886	0.159632
O91	O	0.985353	-0.199606	0.317115
C92	C	0.983805	-0.285500	0.387578
H93	H	1.008453	-0.384081	0.364178
H94	H	1.024742	-0.255641	0.443427
H95	H	0.916971	-0.286234	0.412108
H96	H	1.084791	0.016577	0.416334
