data_functionalizedCrystal
_audit_creation_method	'MofGen! by Chris Wilmer'
_symmetry_space_group_name_H-M	'P1'
_symmetry_Int_Tables_number	1
_symmetry_cell_setting	triclinic
loop_
_symmetry_equiv_pos_as_xyz
  x,y,z
_cell_length_a	17.699077
_cell_length_b	11.792241
_cell_length_c	16.176319
_cell_angle_alpha	89.999276
_cell_angle_beta	89.993156
_cell_angle_gamma	83.736996
loop_
_atom_site_label
_atom_site_type_symbol
_atom_site_fract_x
_atom_site_fract_y
_atom_site_fract_z
O1	O	1.004847	0.143484	-0.068736
O2	O	0.784568	0.162165	-0.068740
O3	O	0.900053	-0.012410	-0.068732
O4	O	0.889362	0.318059	-0.068744
O5	O	0.900036	-0.012401	0.068761
O6	O	0.784550	0.162174	0.068753
O7	O	1.004830	0.143494	0.068757
Cu8	Cu	0.894688	0.152835	0.081309
Cu9	Cu	0.894709	0.152824	-0.081292
O10	O	0.889344	0.318069	0.068749
C11	C	0.756358	0.161501	0.000006
C12	C	0.672329	0.159497	0.000005
C13	C	0.632847	0.158557	0.074953
C14	C	0.553895	0.156656	0.074954
C15	C	0.514425	0.155701	0.000006
C16	C	0.553913	0.156637	-0.074949
C17	C	0.632864	0.158531	-0.074949
C18	C	0.235509	0.149000	-0.074950
C19	C	0.156551	0.147109	-0.074944
C20	C	0.156539	0.147124	0.074953
C21	C	0.235491	0.149018	0.074953
C22	C	0.274972	0.149948	-0.000001
C23	C	0.360582	0.152007	-0.000001
C24	C	0.428816	0.153650	0.000005
C25	C	0.899373	-0.054688	0.000014
C26	C	0.897363	-0.180678	0.000013
C27	C	0.893666	-0.411346	-0.000000
C28	C	0.895720	-0.282985	0.000007
C29	C	1.033039	0.144157	0.000009
C30	C	1.117068	0.146162	0.000005
C31	C	0.890025	0.360347	0.000001
C32	C	0.892035	0.486336	-0.000003
N33	N	0.894679	0.152842	0.195675
N34	N	0.894724	0.152807	-0.195657
C35	C	0.945868	0.075533	0.761061
C36	C	0.945864	0.075541	0.674514
C37	C	0.894713	0.152818	0.631250
C38	C	0.843567	0.230101	0.674538
C39	C	0.843575	0.230097	0.761083
C40	C	0.843537	0.230116	0.325510
C41	C	0.843532	0.230112	0.238958
C42	C	0.945826	0.075560	0.238940
C43	C	0.945834	0.075557	0.325485
C44	C	0.894691	0.152843	0.368766
C45	C	0.894696	0.152835	0.462610
C46	C	0.894704	0.152822	0.537407
H47	H	0.521770	0.155852	-0.135973
H48	H	0.521754	0.155872	0.135985
H49	H	0.801877	0.293044	0.203734
H50	H	0.124384	0.146362	0.135984
F51	F	1.000272	-0.006695	0.371526
H52	H	0.987517	0.012601	0.796280
F53	F	0.277517	0.149990	-0.154722
H54	H	0.124417	0.146332	-0.135980
H55	H	0.665009	0.159298	-0.135979
F56	F	0.789131	0.312352	0.628493
F57	F	1.000298	-0.006701	0.628450
F58	F	1.000260	-0.006692	0.192872
H59	H	0.801893	0.293043	0.360742
F60	F	0.674847	0.159580	0.154725
H61	H	0.801930	0.293023	0.796323
H62	H	0.267623	0.149800	0.135984
