data_functionalizedCrystal
_audit_creation_method	'MofGen! by Chris Wilmer'
_symmetry_space_group_name_H-M	'P1'
_symmetry_Int_Tables_number	1
_symmetry_cell_setting	triclinic
loop_
_symmetry_equiv_pos_as_xyz
  x,y,z
_cell_length_a	17.640112
_cell_length_b	21.295417
_cell_length_c	17.639306
_cell_angle_alpha	101.182150
_cell_angle_beta	87.804122
_cell_angle_gamma	101.256239
loop_
_atom_site_label
_atom_site_type_symbol
_atom_site_fract_x
_atom_site_fract_y
_atom_site_fract_z
Zn1	Zn	1.247725	-0.080914	-0.195061
Zn2	Zn	1.581059	0.252419	0.138272
Zn3	Zn	1.914392	0.585753	0.471605
Zn4	Zn	1.221964	-0.169894	-0.068081
Zn5	Zn	1.555297	0.163439	0.265253
Zn6	Zn	1.888630	0.496773	0.598586
Zn7	Zn	1.095076	-0.089221	-0.093713
Zn8	Zn	1.428409	0.244112	0.239620
Zn9	Zn	1.761742	0.577446	0.572953
Zn10	Zn	1.120668	-0.210748	-0.220650
Zn11	Zn	1.454001	0.122585	0.112683
Zn12	Zn	1.787334	0.455919	0.446017
O13	O	1.171358	-0.137694	-0.144376
O14	O	1.504691	0.195639	0.188957
O15	O	1.838025	0.528972	0.522290
O16	O	1.350585	-0.072143	-0.156781
O17	O	1.683919	0.261190	0.176552
O18	O	2.017252	0.594523	0.509886
O19	O	1.183640	-0.145572	0.034784
O20	O	1.516973	0.187762	0.368118
O21	O	1.850307	0.521095	0.701451
O22	O	1.115396	-0.000021	-0.107176
O23	O	1.448729	0.333312	0.226157
O24	O	1.782063	0.666645	0.559491
O25	O	1.331658	-0.137517	-0.063489
O26	O	1.664992	0.195817	0.269844
O27	O	1.998325	0.529150	0.603178
O28	O	1.227547	0.006082	-0.181636
O29	O	1.560881	0.339415	0.151697
O30	O	1.894214	0.672749	0.485031
O31	O	1.090416	-0.086302	0.015952
O32	O	1.423749	0.247032	0.349285
O33	O	1.757083	0.580365	0.682619
O34	O	0.992193	-0.125916	-0.131988
O35	O	1.325526	0.207418	0.201345
O36	O	1.658860	0.540751	0.534679
O37	O	1.159014	-0.207146	-0.323521
O38	O	1.492347	0.126187	0.009813
O39	O	1.825680	0.459521	0.343146
O40	O	1.010995	-0.215201	-0.225248
O41	O	1.344329	0.118132	0.108086
O42	O	1.677662	0.451466	0.441419
O43	O	1.252363	-0.111758	-0.304721
O44	O	1.585696	0.221576	0.028612
O45	O	1.919029	0.554909	0.361946
O46	O	1.208455	-0.263411	-0.088301
O47	O	1.541789	0.069922	0.245032
O48	O	1.875122	0.403255	0.578366
O49	O	1.134034	-0.293426	-0.200393
O50	O	1.467367	0.039907	0.132941
O51	O	1.800700	0.373240	0.466274
C52	C	0.974038	-0.175893	-0.184177
C53	C	1.307371	0.157440	0.149157
C54	C	1.640705	0.490773	0.482490
C55	C	0.889627	-0.192253	-0.201221
C56	C	1.222960	0.141081	0.132112
C57	C	1.556294	0.474414	0.465445
C58	C	0.563034	-0.013405	-0.014896
C59	C	0.896367	0.319929	0.318437
C60	C	1.229700	0.653262	0.651771
C61	C	0.483719	-0.028791	-0.030922
C62	C	0.817052	0.304543	0.302411
C63	C	1.150386	0.637876	0.635744
C64	C	0.503318	-0.121853	-0.127866
C65	C	0.836652	0.211481	0.205467
C66	C	1.169985	0.544814	0.538800
C67	C	0.582637	-0.106473	-0.111851
C68	C	0.915970	0.226861	0.221483
C69	C	1.249303	0.560194	0.554816
C70	C	0.612488	-0.052248	-0.055364
C71	C	0.945821	0.281085	0.277969
C72	C	1.279154	0.614419	0.611302
C73	C	0.632091	-0.145316	-0.152319
C74	C	0.965424	0.188017	0.181015
C75	C	1.298758	0.521351	0.514348
C76	C	0.711402	-0.129939	-0.136301
C77	C	1.044735	0.203394	0.197032
C78	C	1.378069	0.536728	0.530365
C79	C	0.741259	-0.075718	-0.079816
C80	C	1.074592	0.257615	0.253517
C81	C	1.407925	0.590948	0.586851
C82	C	0.691799	-0.036871	-0.039347
C83	C	1.025132	0.296462	0.293986
C84	C	1.358465	0.629796	0.627320
C85	C	0.602238	-0.199543	-0.208801
C86	C	0.935571	0.133790	0.124532
C87	C	1.268904	0.467124	0.457866
C88	C	0.651692	-0.238387	-0.249269
C89	C	0.985025	0.094947	0.084064
C90	C	1.318358	0.428280	0.417397
C91	C	0.731005	-0.223007	-0.233256
C92	C	1.064338	0.110326	0.100077
C93	C	1.397672	0.443660	0.433411
C94	C	0.760862	-0.168786	-0.176771
C95	C	1.094195	0.164547	0.156563
C96	C	1.427529	0.497880	0.489896
C97	C	0.780465	-0.261854	-0.273725
C98	C	1.113798	0.071479	0.059608
C99	C	1.447132	0.404812	0.392942
C100	C	0.859776	-0.246477	-0.257708
C101	C	1.193109	0.086856	0.075626
C102	C	1.526443	0.420190	0.408959
C103	C	0.840173	-0.153409	-0.160753
C104	C	1.173506	0.179924	0.172580
C105	C	1.506840	0.513258	0.505914
C106	C	1.171250	-0.301260	-0.144354
C107	C	1.504583	0.032074	0.188979
C108	C	1.837917	0.365407	0.522312
C109	C	1.171278	-0.371224	-0.144356
C110	C	1.504612	-0.037890	0.188977
C111	C	1.837945	0.295443	0.522310
C112	C	1.210083	-0.388439	-0.086031
C113	C	1.543416	-0.055105	0.247302
C114	C	1.876750	0.278228	0.580635
C115	C	1.210122	-0.454176	-0.086041
C116	C	1.543455	-0.120843	0.247292
C117	C	1.876789	0.212490	0.580626
C118	C	1.171341	-0.502698	-0.144371
C119	C	1.504675	-0.169365	0.188962
C120	C	1.838008	0.163968	0.522296
C121	C	1.132535	-0.485477	-0.202706
C122	C	1.465868	-0.152144	0.130627
C123	C	1.799202	0.181189	0.463960
C124	C	1.132504	-0.419740	-0.202699
C125	C	1.465837	-0.086407	0.130634
C126	C	1.799170	0.246927	0.463968
N127	N	1.106074	-0.619573	-0.163561
N128	N	1.439407	-0.286240	0.169772
N129	N	1.772740	0.047093	0.503106
N130	N	1.106105	-0.682020	-0.163563
N131	N	1.439438	-0.348687	0.169770
N132	N	1.772771	-0.015353	0.503104
C133	C	1.171435	-0.700762	-0.144397
C134	C	1.504769	-0.367429	0.188936
C135	C	1.838102	-0.034095	0.522269
N136	N	1.236732	-0.654696	-0.125214
N137	N	1.570065	-0.321363	0.208119
N138	N	1.903398	0.011970	0.541452
N139	N	1.236699	-0.592243	-0.125209
N140	N	1.570032	-0.258910	0.208125
N141	N	1.903366	0.074423	0.541458
C142	C	1.171372	-0.573981	-0.144386
C143	C	1.504705	-0.240648	0.188948
C144	C	1.838038	0.092686	0.522281
C145	C	1.210286	-0.789256	-0.086079
C146	C	1.543619	-0.455923	0.247254
C147	C	1.876952	-0.122590	0.580587
C148	C	1.210327	-0.854996	-0.086094
C149	C	1.543660	-0.521662	0.247239
C150	C	1.876994	-0.188329	0.580572
C151	C	1.132733	-0.886296	-0.202757
C152	C	1.466066	-0.552963	0.130576
C153	C	1.799399	-0.219630	0.463910
C154	C	1.132699	-0.820557	-0.202745
C155	C	1.466032	-0.487224	0.130589
C156	C	1.799365	-0.153891	0.463922
C157	C	1.171474	-0.772041	-0.144402
C158	C	1.504807	-0.438708	0.188931
C159	C	1.838140	-0.105374	0.522265
C160	C	1.369449	-0.099346	-0.104421
C161	C	1.702782	0.233987	0.228912
C162	C	2.036116	0.567320	0.562245
C163	C	1.453863	-0.083005	-0.087395
C164	C	1.787197	0.250329	0.245938
C165	C	2.120530	0.583662	0.579272
C166	C	1.211417	-0.163082	-0.342445
C167	C	1.544750	0.170251	-0.009111
C168	C	1.878083	0.503584	0.324222
C169	C	1.228487	-0.173901	-0.426850
C170	C	1.561820	0.159432	-0.093516
C171	C	1.895154	0.492765	0.239817
C172	C	1.171491	0.026512	-0.144411
C173	C	1.504824	0.359845	0.188922
C174	C	1.838157	0.693179	0.522256
C175	C	1.171547	0.096487	-0.144426
C176	C	1.504880	0.429820	0.188908
C177	C	1.838214	0.763153	0.522241
C178	C	1.041970	-0.055212	-0.753490
C179	C	1.375304	0.278121	-0.420157
C180	C	1.708637	0.611454	-0.086824
C181	C	1.058028	-0.065388	-0.832798
C182	C	1.391361	0.267945	-0.499465
C183	C	1.724694	0.601278	-0.166131
C184	C	1.155092	-0.127100	-0.813170
C185	C	1.488425	0.206233	-0.479837
C186	C	1.821759	0.539567	-0.146503
C187	C	1.139045	-0.116926	-0.733858
C188	C	1.472378	0.216407	-0.400525
C189	C	1.805712	0.549740	-0.067192
C190	C	1.082483	-0.080983	-0.704025
C191	C	1.415816	0.252351	-0.370692
C192	C	1.749150	0.585684	-0.037359
C193	C	1.179558	-0.142697	-0.684394
C194	C	1.512891	0.190636	-0.351060
C195	C	1.846224	0.523970	-0.017727
C196	C	1.163509	-0.132527	-0.605089
C197	C	1.496843	0.200806	-0.271756
C198	C	1.830176	0.534140	0.061577
C199	C	1.106948	-0.096587	-0.575250
C200	C	1.440281	0.236747	-0.241917
C201	C	1.773615	0.570080	0.091416
C202	C	1.066434	-0.070813	-0.624721
C203	C	1.399768	0.262520	-0.291388
C204	C	1.733101	0.595854	0.041945
C205	C	1.236116	-0.178644	-0.714229
C206	C	1.569449	0.154689	-0.380896
C207	C	1.902783	0.488022	-0.047562
C208	C	1.276629	-0.204415	-0.664764
C209	C	1.609962	0.128919	-0.331431
C210	C	1.943295	0.462252	0.001903
C211	C	1.260584	-0.194241	-0.585458
C212	C	1.593918	0.139092	-0.252124
C213	C	1.927251	0.472426	0.081209
C214	C	1.204023	-0.158301	-0.555619
C215	C	1.537356	0.175033	-0.222285
C216	C	1.870690	0.508366	0.111048
C217	C	1.301098	-0.220015	-0.535987
C218	C	1.634431	0.113318	-0.202654
C219	C	1.967765	0.446652	0.130680
C220	C	1.285049	-0.209845	-0.456683
C221	C	1.618383	0.123488	-0.123349
C222	C	1.951716	0.456822	0.209984
C223	C	1.187974	-0.148131	-0.476315
C224	C	1.521308	0.185203	-0.142981
C225	C	1.854641	0.518536	0.190352
C226	C	1.131499	-0.112351	0.052930
C227	C	1.464832	0.220982	0.386263
C228	C	1.798166	0.554316	0.719597
C229	C	1.114576	-0.101326	0.137364
C230	C	1.447909	0.232007	0.470698
C231	C	1.781242	0.565340	0.804031
H232	H	0.756147	-0.306007	-0.319711
H233	H	1.089480	0.027326	0.013623
H234	H	1.422814	0.360659	0.346956
C235	C	1.253771	-0.189827	-0.801466
C236	C	1.587105	0.143506	-0.468133
C237	C	1.920438	0.476839	-0.134800
N238	N	1.267071	-0.198248	-0.867173
N239	N	1.600404	0.135086	-0.533840
N240	N	1.933738	0.468419	-0.200507
C241	C	1.252952	-0.735885	-0.021911
C242	C	1.586285	-0.402552	0.311422
C243	C	1.919618	-0.069219	0.644756
N244	N	1.285091	-0.695688	0.026419
N245	N	1.618425	-0.362354	0.359752
N246	N	1.951758	-0.029021	0.693086
C247	C	1.090075	-0.939667	-0.266922
C248	C	1.423408	-0.606333	0.066411
C249	C	1.756741	-0.273000	0.399745
N250	N	1.057945	-0.979869	-0.315254
N251	N	1.391279	-0.646536	0.018079
N252	N	1.724612	-0.313202	0.351413
H253	H	1.241932	-0.869008	-0.038600
H254	H	1.575265	-0.535675	0.294734
H255	H	1.908598	-0.202342	0.628067
C256	C	1.252727	-0.335074	-0.021846
C257	C	1.586060	-0.001741	0.311487
C258	C	1.919393	0.331592	0.644821
N259	N	1.284842	-0.294880	0.026502
N260	N	1.618176	0.038454	0.359835
N261	N	1.951509	0.371787	0.693168
C262	C	1.125756	-0.108588	-0.443493
C263	C	1.459089	0.224746	-0.110160
C264	C	1.792422	0.558079	0.223173
N265	N	1.078893	-0.078807	-0.418772
N266	N	1.412227	0.254527	-0.085439
N267	N	1.745560	0.587860	0.247894
C268	C	1.090029	-0.801620	-0.266920
C269	C	1.423362	-0.468287	0.066413
C270	C	1.756695	-0.134953	0.399746
N271	N	1.057898	-0.787357	-0.315267
N272	N	1.391231	-0.454023	0.018066
N273	N	1.724564	-0.120690	0.351399
H274	H	0.537657	-0.212061	-0.221840
H275	H	0.870990	0.121272	0.111493
H276	H	1.204323	0.454606	0.444826
H277	H	0.627375	-0.282538	-0.295258
H278	H	0.960709	0.050796	0.038075
H279	H	1.294042	0.384129	0.371408
C280	C	0.914179	-0.289205	-0.302228
C281	C	1.247513	0.044129	0.031105
C282	C	1.580846	0.377462	0.364439
N283	N	0.955156	-0.321389	-0.335762
N284	N	1.288489	0.011944	-0.002428
N285	N	1.621823	0.345278	0.330905
H286	H	1.322679	-0.233683	-0.689066
H287	H	1.656012	0.099651	-0.355733
H288	H	1.989346	0.432984	-0.022399
H289	H	1.100961	-0.524988	-0.250200
H290	H	1.434295	-0.191655	0.083133
H291	H	1.767628	0.141679	0.416467
C292	C	1.329610	-0.238199	-0.402269
C293	C	1.662944	0.095134	-0.068936
C294	C	1.996277	0.428468	0.264397
N295	N	1.363171	-0.259560	-0.361286
N296	N	1.696505	0.073773	-0.027952
N297	N	2.029838	0.407107	0.305381
C298	C	0.873014	-0.093757	-0.098618
C299	C	1.206347	0.239576	0.234716
C300	C	1.539680	0.572909	0.568049
N301	N	0.897749	-0.048830	-0.051818
N302	N	1.231083	0.284503	0.281515
N303	N	1.564416	0.617836	0.614849
H304	H	1.241724	-0.468196	-0.038545
H305	H	1.575058	-0.134862	0.294788
H306	H	1.908391	0.198471	0.628121
H307	H	0.805839	-0.063200	-0.066774
H308	H	1.139172	0.270133	0.266559
H309	H	1.472506	0.603466	0.599893
C310	C	1.363153	-0.259716	-0.568847
C311	C	1.696486	0.073618	-0.235514
C312	C	2.029820	0.406951	0.097819
N313	N	1.409837	-0.289677	-0.593609
N314	N	1.743171	0.043657	-0.260275
N315	N	2.076504	0.376990	0.073058
H316	H	1.093877	-0.088312	-0.510676
H317	H	1.427210	0.245021	-0.177343
H318	H	1.760544	0.578354	0.155990
H319	H	1.100904	-0.405725	-0.250195
H320	H	1.434237	-0.072392	0.083138
H321	H	1.767570	0.260942	0.416471
C322	C	1.004216	-0.031270	-0.591900
C323	C	1.337549	0.302064	-0.258567
C324	C	1.670882	0.635397	0.074767
N325	N	0.957353	-0.001489	-0.567179
N326	N	1.290687	0.331845	-0.233846
N327	N	1.624020	0.665178	0.099488
C328	C	0.979752	-0.015669	-0.720669
C329	C	1.313085	0.317664	-0.387336
C330	C	1.646418	0.650997	-0.054002
N331	N	0.932889	0.014112	-0.695948
N332	N	1.266222	0.347445	-0.362615
N333	N	1.599556	0.680779	-0.029281
H334	H	1.025036	-0.044397	-0.873071
H335	H	1.358369	0.288936	-0.539737
H336	H	1.691703	0.622269	-0.206404
H337	H	1.201142	-0.156368	-0.837472
H338	H	1.534476	0.176966	-0.504139
H339	H	1.867809	0.510299	-0.170805
H340	H	0.587342	0.030758	0.031090
H341	H	0.920675	0.364092	0.364423
H342	H	1.254009	0.697425	0.697756
C343	C	0.429321	0.013946	0.013600
C344	C	0.762654	0.347279	0.346933
C345	C	1.095987	0.680612	0.680266
N346	N	0.388348	0.046134	0.047134
N347	N	0.721682	0.379467	0.380467
N348	N	1.055015	0.712800	0.713800
C349	C	0.724639	0.022781	0.022789
C350	C	1.057973	0.356114	0.356122
C351	C	1.391306	0.689448	0.689455
N352	N	0.749375	0.067708	0.069588
N353	N	1.082709	0.401041	0.402922
N354	N	1.416042	0.734374	0.736255
H355	H	0.479002	-0.166004	-0.173855
H356	H	0.812335	0.167330	0.159478
H357	H	1.145668	0.500663	0.492811
