data_functionalizedCrystal
_audit_creation_method	'MofGen! by Chris Wilmer'
_symmetry_space_group_name_H-M	'P1'
_symmetry_Int_Tables_number	1
_symmetry_cell_setting	triclinic
loop_
_symmetry_equiv_pos_as_xyz
  x,y,z
_cell_length_a	14.446369
_cell_length_b	18.760492
_cell_length_c	18.760490
_cell_angle_alpha	90.015487
_cell_angle_beta	60.025577
_cell_angle_gamma	59.995794
loop_
_atom_site_label
_atom_site_type_symbol
_atom_site_fract_x
_atom_site_fract_y
_atom_site_fract_z
Zr1	Zr	1.013611	-0.093499	0.686552
O2	O	1.206669	-0.207335	0.572767
O3	O	0.820511	-0.058597	0.721433
O4	O	1.013630	-0.207311	0.721442
O5	O	1.013550	0.058682	0.572751
O6	O	1.013693	-0.207297	0.838720
O7	O	1.013550	-0.058621	0.572757
O8	O	0.668238	0.058725	0.838704
O9	O	1.359005	-0.207340	0.572768
O10	O	0.899998	-0.043707	0.823833
O11	O	0.899951	0.043824	0.736305
O12	O	1.127324	-0.131267	0.736316
O13	O	1.127277	-0.043736	0.648788
Zr14	Zr	1.013711	0.093608	0.873588
Zr15	Zr	1.013712	-0.093477	0.873598
Zr16	Zr	1.013611	0.093586	0.686542
Zr17	Zr	1.256569	-0.093507	0.686554
Zr18	Zr	0.770753	0.093616	0.873586
O19	O	1.206812	0.058706	0.838708
O20	O	1.206812	-0.207304	0.838721
O21	O	1.206669	0.058675	0.572753
O22	O	0.820653	0.207444	0.987374
O23	O	0.820654	-0.058566	0.987387
O24	O	0.820510	0.207413	0.721419
O25	O	1.013773	-0.058573	0.987389
O26	O	1.013692	0.207420	0.838699
O27	O	1.013629	0.207406	0.721420
O28	O	1.013772	0.058730	0.987383
O29	O	1.359085	-0.207323	0.721444
O30	O	0.668237	0.207432	0.838696
O31	O	0.668317	0.207449	0.987373
O32	O	0.668318	0.058742	0.987380
O33	O	1.359005	-0.058633	0.572760
O34	O	1.359085	-0.058616	0.721436
O35	O	0.899998	0.131376	0.823824
O36	O	0.900045	0.043845	0.911352
O37	O	1.127371	-0.043715	0.823835
O38	O	1.127324	0.043816	0.736307
C39	C	0.709758	0.000065	0.780068
C40	C	0.606616	0.000069	0.780067
C41	C	1.013535	0.000027	0.546104
C42	C	1.013493	0.000018	0.466699
C43	C	1.013661	0.234069	0.780058
C44	C	1.013661	0.313491	0.780054
C45	C	0.459576	0.055528	0.725128
C46	C	0.567196	0.055304	0.724829
C47	C	0.655590	-0.095066	0.739803
C48	C	0.548357	-0.094778	0.739391
C49	C	0.373209	0.038926	0.875310
C50	C	0.479360	0.040867	0.875169
C51	C	1.317564	0.000044	0.780072
C52	C	1.420706	0.000040	0.780073
C53	C	1.013662	-0.233960	0.780082
C54	C	1.013662	-0.313382	0.780086
C55	C	0.894995	0.695014	0.825769
C56	C	1.132327	0.603595	0.734399
C57	C	1.132329	0.528973	0.734390
C58	C	1.013662	0.537368	0.780073
C59	C	0.894993	0.620386	0.825764
C60	C	1.250996	0.445950	0.688707
C61	C	1.251003	0.371322	0.688698
C62	C	1.132334	0.379717	0.734376
C63	C	1.013660	0.462741	0.780068
C64	C	0.894993	0.471136	0.825750
C65	C	0.776318	0.554159	0.871437
C66	C	0.776324	0.628781	0.871441
C67	C	1.132328	0.305095	0.734371
C68	C	0.894991	0.396509	0.825745
C69	C	1.013795	-0.064543	0.130714
C70	C	1.013795	0.064710	0.130824
C71	C	1.013730	0.064695	0.205470
C72	C	1.013696	0.000062	0.242743
C73	C	1.013726	-0.064557	0.205369
C74	C	1.013686	0.129319	0.242854
C75	C	1.013619	0.129308	0.317506
C76	C	1.013594	0.064670	0.354776
C77	C	1.013627	0.000047	0.317397
C78	C	1.013592	-0.064586	0.354670
C79	C	1.013634	-0.129213	0.317289
C80	C	1.013701	-0.129195	0.242640
C81	C	1.013527	0.064652	0.429426
C82	C	1.013523	-0.064601	0.429325
C83	C	1.013787	0.000082	1.014036
C84	C	1.013830	0.000091	1.093442
C85	C	0.709884	0.000092	1.014034
C86	C	0.606784	0.000105	1.093439
C87	C	0.709757	0.234079	0.780056
C88	C	0.606615	0.313505	0.780051
C89	C	0.709883	0.234107	1.014022
C90	C	0.606784	0.313542	1.093422
C91	C	1.317439	-0.233998	0.546119
C92	C	1.420539	-0.313433	0.466718
C93	C	1.317439	0.000017	0.546107
C94	C	1.420538	0.000004	0.466701
C95	C	1.317565	-0.233970	0.780084
C96	C	1.420707	-0.313396	0.780089
C97	C	0.558343	-0.045598	1.085044
C98	C	0.461484	-0.045603	1.159647
C99	C	0.413061	0.000100	1.242643
C100	C	0.461511	0.045804	1.251036
C101	C	0.558375	0.045804	1.176434
C102	C	0.558203	0.396514	0.825733
C103	C	0.461304	0.471150	0.825725
C104	C	0.412812	0.462776	0.780040
C105	C	0.461233	0.379759	0.734352
C106	C	0.558137	0.305125	0.734356
C107	C	0.558392	0.305155	1.176407
C108	C	0.461532	0.379785	1.251020
C109	C	0.413060	0.462802	1.242646
C110	C	0.461462	0.471187	1.159653
C111	C	0.558326	0.396558	1.085042
C112	C	1.468942	-0.305046	0.383733
C113	C	1.565832	-0.379676	0.309121
C114	C	1.614309	-0.462693	0.317494
C115	C	1.565901	-0.471078	0.400487
C116	C	1.469020	-0.396449	0.475098
C117	C	1.468989	0.045699	0.475096
C118	C	1.565875	0.045684	0.400494
C119	C	1.614302	-0.000022	0.317498
C120	C	1.565847	-0.045723	0.309105
C121	C	1.468969	-0.045712	0.383706
C122	C	1.469168	-0.304994	0.825783
C123	C	1.566069	-0.379616	0.825805
C124	C	1.614512	-0.462639	0.780127
C125	C	1.566041	-0.471040	0.734431
C126	C	1.469136	-0.396419	0.734415
H127	H	0.370723	0.125756	0.751993
H128	H	0.597675	0.403349	0.862935
H129	H	0.421890	0.538739	0.862932
C130	C	0.306503	0.000104	1.324699
H131	H	0.284599	0.033864	1.375335
H132	H	0.230900	0.024567	1.324690
H133	H	0.338283	-0.058124	1.324700
H134	H	1.013834	-0.117163	0.100275
H135	H	0.597714	0.403399	1.017476
C136	C	1.381537	0.280006	0.638436
H137	H	1.452209	0.285695	0.611226
H138	H	1.386499	0.248987	0.677862
H139	H	1.386442	0.249003	0.595194
H140	H	0.597804	0.083026	1.183281
H141	H	0.679705	0.696382	0.908639
H142	H	0.333906	0.523555	0.780044
C143	C	1.013832	0.135800	0.089826
H144	H	1.013884	0.126552	0.040012
H145	H	0.937912	0.191593	0.131274
H146	H	1.089747	0.133104	0.072882
C147	C	0.611372	0.213820	0.684110
H148	H	0.568598	0.219530	0.656910
H149	H	0.702844	0.182788	0.640874
H150	H	0.595488	0.182818	0.723552
H151	H	1.605311	0.082902	0.407344
C152	C	0.611698	0.213846	1.185635
H153	H	0.569004	0.219552	1.245748
H154	H	0.595797	0.182829	1.158437
H155	H	0.703185	0.182831	1.158428
H156	H	0.500886	0.004657	0.919556
H157	H	0.421736	0.372954	0.697157
H158	H	0.422134	0.372942	1.318589
C159	C	0.645789	0.563391	0.921678
H160	H	0.575109	0.623521	0.948890
H161	H	0.640852	0.536173	0.882234
H162	H	0.640872	0.536183	0.964916
C163	C	1.415635	-0.213735	0.374510
H164	H	1.350994	-0.170481	0.430826
H165	H	1.485192	-0.207196	0.343516
H166	H	1.377815	-0.207194	0.343504
C167	C	1.720858	-0.544778	0.235417
H168	H	1.742723	-0.527885	0.184798
H169	H	1.796484	-0.578551	0.235399
H170	H	1.689079	-0.578530	0.235411
H171	H	0.334187	0.523563	1.303406
H172	H	1.693419	-0.523394	0.780146
C173	C	0.507815	0.019429	0.630791
H174	H	0.504374	-0.029313	0.624743
H175	H	0.453441	0.063540	0.617806
H176	H	0.595411	0.001772	0.591622
C177	C	1.619349	-0.562367	0.684182
H178	H	1.684013	-0.605598	0.690732
H179	H	1.549808	-0.568927	0.706729
H180	H	1.657146	-0.568925	0.624070
H181	H	1.605290	-0.082935	0.241519
H182	H	1.429611	-0.403288	0.542665
C183	C	0.764462	0.786330	0.876024
H184	H	0.781451	0.829574	0.869490
H185	H	0.715680	0.792880	0.853463
H186	H	0.715732	0.792879	0.936133
H187	H	0.421981	0.538790	1.152849
H188	H	1.429523	-0.082920	0.376859
H189	H	1.605229	-0.372832	0.241552
H190	H	1.605384	-0.538679	0.407294
C191	C	1.415856	-0.405667	0.684134
H192	H	1.351202	-0.349340	0.690661
H193	H	1.485419	-0.436689	0.624035
H194	H	1.378057	-0.436671	0.706696
H195	H	1.013587	0.181929	0.347936
H196	H	1.429568	0.082924	0.542669
C197	C	0.611598	-0.095881	0.993758
H198	H	0.568876	-0.123105	0.999456
H199	H	0.595697	-0.056447	0.962746
H200	H	0.703083	-0.139131	0.962761
C201	C	1.720861	-0.000024	0.235444
H202	H	1.742766	0.033746	0.252338
H203	H	1.796464	-0.058247	0.201690
H204	H	1.689076	0.024450	0.201690
C205	C	1.415893	-0.213679	0.876036
H206	H	1.458634	-0.219375	0.903257
H207	H	1.431758	-0.182669	0.836605
H208	H	1.324416	-0.182663	0.919269
H209	H	1.013704	0.181945	0.212508
H210	H	1.605523	-0.372760	0.863014
H211	H	1.013598	-0.181835	0.347648
H212	H	0.655959	0.028345	0.654580
C213	C	0.603272	-0.136819	0.644720
H214	H	0.690775	-0.153909	0.606873
H215	H	0.601812	-0.186651	0.640412
H216	H	0.551118	-0.095819	0.628461
C217	C	1.013737	-0.200272	0.201524
H218	H	1.013768	-0.190999	0.151733
H219	H	1.089638	-0.256070	0.184540
H220	H	0.937803	-0.197583	0.242933
H221	H	1.228940	0.596766	0.697212
H222	H	0.526409	-0.138367	0.776826
C223	C	0.694517	-0.153338	0.791260
H224	H	0.681222	-0.120086	0.837866
H225	H	0.642201	-0.174954	0.814124
H226	H	0.784163	-0.200918	0.753534
H227	H	0.279481	0.107901	0.908950
C228	C	0.780262	-0.137419	0.646047
H229	H	0.802640	-0.097274	0.631298
H230	H	0.850092	-0.188431	0.642322
H231	H	0.764960	-0.152670	0.606678
H232	H	0.530501	0.125357	0.751837
H233	H	0.439775	0.110953	0.905249
H234	H	0.347256	-0.001297	0.916440
H235	H	1.013484	0.117273	0.459861
H236	H	0.798357	0.403356	0.862941
H237	H	1.228951	0.237502	0.697177
C238	C	1.381520	0.436715	0.638473
H239	H	1.452195	0.376585	0.611274
H240	H	1.386445	0.463924	0.595239
H241	H	1.386455	0.463930	0.677925
H242	H	1.013502	-0.117237	0.459665
H243	H	0.422047	-0.082821	1.152796
H244	H	0.422071	0.083014	1.318621
