data_functionalizedCrystal
_audit_creation_method	'MofGen! by Chris Wilmer'
_symmetry_space_group_name_H-M	'P1'
_symmetry_Int_Tables_number	1
_symmetry_cell_setting	triclinic
loop_
_symmetry_equiv_pos_as_xyz
  x,y,z
_cell_length_a	12.759401
_cell_length_b	25.639240
_cell_length_c	25.639234
_cell_angle_alpha	89.968234
_cell_angle_beta	89.984920
_cell_angle_gamma	90.033035
loop_
_atom_site_label
_atom_site_type_symbol
_atom_site_fract_x
_atom_site_fract_y
_atom_site_fract_z
Zn1	Zn	1.606088	-0.208180	-0.295550
Zn2	Zn	1.605937	-0.295608	-0.208103
Zn3	Zn	1.430400	-0.208189	-0.208132
Zn4	Zn	1.430323	-0.295587	-0.295511
O5	O	1.518187	-0.251891	-0.251824
O6	O	1.753089	-0.219783	-0.283954
O7	O	1.582621	-0.284024	-0.134942
O8	O	1.453801	-0.135023	-0.219757
O9	O	1.752978	-0.284016	-0.219707
O10	O	1.582878	-0.135016	-0.283982
O11	O	1.453655	-0.219798	-0.134963
O12	O	1.283369	-0.219777	-0.219719
O13	O	1.453669	-0.283980	-0.368682
O14	O	1.283312	-0.283988	-0.283916
O15	O	1.582803	-0.219763	-0.368710
O16	O	1.582546	-0.368771	-0.219670
O17	O	1.453523	-0.368755	-0.283888
C18	C	1.245220	-0.251882	-0.251817
C19	C	1.128443	-0.251890	-0.251826
C20	C	0.963848	-0.285384	-0.285205
C21	C	1.073572	-0.285378	-0.285199
C22	C	1.073584	-0.218410	-0.218453
C23	C	0.963862	-0.218419	-0.218456
C24	C	1.518039	-0.387734	-0.251783
C25	C	1.518071	-0.445848	-0.251783
C26	C	1.585431	-0.806169	-0.285327
C27	C	1.585462	-0.860773	-0.285337
O28	O	1.642556	-0.888975	-0.313815
N29	N	1.518333	-0.888130	-0.251875
C30	C	1.451161	-0.860880	-0.218403
O31	O	1.394065	-0.889163	-0.189942
C32	C	1.451125	-0.806277	-0.218396
C33	C	1.518266	-0.778923	-0.251857
C34	C	1.652565	-0.778815	-0.318786
C35	C	1.652535	-0.724214	-0.318774
C36	C	1.585371	-0.696968	-0.285304
C37	C	1.518236	-0.724322	-0.251845
C38	C	1.383949	-0.779027	-0.184927
C39	C	1.383919	-0.724420	-0.184922
C40	C	1.451060	-0.697066	-0.218383
C41	C	1.451042	-0.642475	-0.218363
N42	N	1.518171	-0.615118	-0.251826
C43	C	1.585335	-0.642365	-0.285296
C44	C	1.451239	-0.975550	-0.218422
C45	C	1.451279	-1.030153	-0.218427
C46	C	1.585579	-1.030043	-0.285362
C47	C	1.585543	-0.975439	-0.285354
C48	C	1.518368	-0.948194	-0.251885
C49	C	1.585268	-0.527700	-0.285269
C50	C	1.585235	-0.473094	-0.285253
C51	C	1.450933	-0.473209	-0.218321
C52	C	1.450969	-0.527810	-0.218334
C53	C	1.518140	-0.555054	-0.251813
O54	O	1.393973	-0.614239	-0.189902
O55	O	1.642412	-0.614075	-0.313758
C56	C	1.792220	-0.251901	-0.251832
C57	C	1.908997	-0.251905	-0.251835
C58	C	1.518244	-0.251868	-0.388197
C59	C	1.518268	-0.251858	-0.446311
C60	C	1.518365	-0.115518	-0.251877
C61	C	1.518440	-0.057404	-0.251899
C62	C	1.585449	-0.285258	-0.697486
C63	C	1.585438	-0.285269	-0.642882
O64	O	1.642508	-0.313724	-0.614629
N65	N	1.518291	-0.251833	-0.615585
C66	C	1.451144	-0.218387	-0.642896
O67	O	1.394029	-0.189949	-0.614664
C68	C	1.451150	-0.218380	-0.697499
C69	C	1.518309	-0.251814	-0.724793
C70	C	1.652601	-0.318690	-0.724780
C71	C	1.652613	-0.318678	-0.779381
C72	C	1.585473	-0.285235	-0.806687
C73	C	1.518321	-0.251802	-0.779394
C74	C	1.383998	-0.184937	-0.724809
C75	C	1.384010	-0.184932	-0.779416
C76	C	1.451169	-0.218367	-0.806710
C77	C	1.451193	-0.218347	-0.861301
N78	N	1.518340	-0.251783	-0.888597
C79	C	1.585480	-0.285227	-0.861291
C80	C	1.451134	-0.218407	-0.528225
C81	C	1.451132	-0.218412	-0.473623
C82	C	1.585425	-0.285294	-0.473613
C83	C	1.585431	-0.285287	-0.528216
C84	C	1.518280	-0.251843	-0.555522
C85	C	1.585501	-0.285199	-0.975956
C86	C	1.585510	-0.285183	-1.030561
C87	C	1.451214	-0.218303	-1.030567
C88	C	1.451208	-0.218317	-0.975966
C89	C	1.518355	-0.251769	-0.948662
O90	O	1.394149	-0.189907	-0.889588
O91	O	1.642575	-0.313665	-0.889529
C92	C	1.518191	-0.251876	-0.115982
C93	C	1.518370	-0.251739	-0.057868
H94	H	0.919180	-0.312651	-0.312384
F95	F	1.131943	-0.321012	-0.320715
H96	H	1.118269	-0.191146	-0.191278
F97	F	0.905482	-0.182786	-0.182936
F98	F	1.379456	-0.444202	-0.182700
F99	F	1.312485	-0.808128	-0.149314
F100	F	1.656701	-0.443985	-0.320868
F101	F	1.656761	-0.556687	-0.320900
F102	F	1.723990	-0.695109	-0.354391
F103	F	1.724053	-0.807805	-0.354414
H104	H	1.329327	-0.157698	-0.801645
F105	F	1.657002	-0.946332	-0.320968
H106	H	1.640266	-1.052237	-0.312616
H107	H	1.396618	-1.052420	-0.191174
H108	H	1.640185	-0.312436	-0.953731
H109	H	1.396540	-0.953370	-0.191163
F110	F	1.724083	-0.354269	-0.808422
F111	F	1.312419	-0.695427	-0.149299
F112	F	1.656878	-0.320891	-0.444541
F113	F	1.379524	-0.556923	-0.182715
F114	F	1.656993	-0.320769	-1.059606
F115	F	1.724066	-0.354289	-0.695726
H116	H	1.640117	-0.312512	-0.550435
F117	F	1.379666	-0.182820	-0.444581
F118	F	1.379764	-0.182710	-1.059638
H119	H	1.396455	-0.191169	-0.550454
F120	F	1.312517	-0.149351	-0.695772
F121	F	1.379742	-0.182727	-0.946917
