data_functionalizedCrystal
_audit_creation_method	'MofGen! by Chris Wilmer'
_symmetry_space_group_name_H-M	'P1'
_symmetry_Int_Tables_number	1
_symmetry_cell_setting	triclinic
loop_
_symmetry_equiv_pos_as_xyz
  x,y,z
_cell_length_a	9.065218
_cell_length_b	8.559649
_cell_length_c	8.140239
_cell_angle_alpha	89.998339
_cell_angle_beta	89.997198
_cell_angle_gamma	77.397275
loop_
_atom_site_label
_atom_site_type_symbol
_atom_site_fract_x
_atom_site_fract_y
_atom_site_fract_z
O1	O	1.931006	0.233903	-0.136609
O2	O	2.431006	0.733903	0.363391
O3	O	1.499310	0.253088	-0.136610
O4	O	1.999310	0.753088	0.363390
O5	O	1.753191	0.011444	-0.136608
O6	O	2.253191	0.511444	0.363392
O7	O	1.677125	0.475547	-0.136611
O8	O	2.177125	0.975547	0.363389
O9	O	1.753179	0.011441	0.136619
O10	O	2.253179	0.511441	0.636619
O11	O	1.499298	0.253085	0.136617
O12	O	1.999298	0.753085	0.636617
O13	O	1.930994	0.233900	0.136618
O14	O	2.430994	0.733900	0.636618
Zn15	Zn	1.715144	0.243492	0.179998
Zn16	Zn	2.215144	0.743492	0.679998
Zn17	Zn	1.715160	0.243496	-0.179990
Zn18	Zn	2.215160	0.743496	0.320010
O19	O	1.677113	0.475544	0.136616
O20	O	2.177113	0.975544	0.636616
C21	C	1.444549	0.251243	0.000003
C22	C	1.944549	0.751243	0.500003
C23	C	1.281399	0.245730	0.000002
C24	C	1.781399	0.745730	0.500002
C25	C	1.758949	-0.048004	0.000003
C26	C	2.258949	0.451996	0.500003
C27	C	1.776108	-0.225136	-0.000006
C28	C	2.276108	0.274864	0.499994
C29	C	1.985755	0.235745	0.000001
C30	C	2.485755	0.735745	0.500001
C31	C	2.148905	0.241258	-0.000008
C32	C	2.648905	0.741258	0.499992
C33	C	1.671355	0.534992	0.000002
C34	C	2.171355	1.034992	0.500002
C35	C	1.654196	0.712124	-0.000000
C36	C	2.154196	1.212124	0.500000
N37	N	1.715144	0.243489	0.425681
N38	N	2.215144	0.743489	0.925681
N39	N	1.715173	0.243487	-0.425673
N40	N	2.215173	0.743487	0.074327
H41	H	1.893616	-0.306941	0.000007
H42	H	2.393616	0.193059	0.500007
H43	H	1.536695	-0.206080	0.000005
H44	H	2.036695	0.293920	0.500005
