data_functionalizedCrystal
_audit_creation_method	'MofGen! by Chris Wilmer'
_symmetry_space_group_name_H-M	'P1'
_symmetry_Int_Tables_number	1
_symmetry_cell_setting	triclinic
loop_
_symmetry_equiv_pos_as_xyz
  x,y,z
_cell_length_a	19.188925
_cell_length_b	17.666332
_cell_length_c	10.540539
_cell_angle_alpha	90.004288
_cell_angle_beta	83.834020
_cell_angle_gamma	90.010303
loop_
_atom_site_label
_atom_site_type_symbol
_atom_site_fract_x
_atom_site_fract_y
_atom_site_fract_z
O1	O	0.927208	0.062961	0.158439
O2	O	1.427208	0.562961	0.658439
O3	O	0.724039	0.062959	0.179779
O4	O	1.224039	0.562959	0.679779
O5	O	0.830259	0.062959	-0.015700
O6	O	1.330259	0.562959	0.484300
O7	O	0.820988	0.062961	0.353917
O8	O	1.320988	0.562961	0.853917
O9	O	0.830240	-0.062938	-0.015710
O10	O	1.330240	0.437062	0.484290
O11	O	0.724020	-0.062938	0.179768
O12	O	1.224020	0.437062	0.679768
O13	O	0.927189	-0.062936	0.158428
O14	O	1.427189	0.437064	0.658428
Cu15	Cu	0.825603	-0.074432	0.169097
Cu16	Cu	1.325603	0.425568	0.669097
Cu17	Cu	0.825625	0.074455	0.169110
Cu18	Cu	1.325625	0.574455	0.669110
O19	O	0.820969	-0.062936	0.353907
O20	O	1.320969	0.437064	0.853907
C21	C	0.698013	0.000010	0.179084
C22	C	1.198013	0.500010	0.679084
C23	C	0.620495	0.000009	0.177013
C24	C	1.120495	0.500009	0.677013
C25	C	0.059397	0.000011	0.277845
C26	C	0.559397	0.500011	0.777845
C27	C	0.132233	0.000016	0.279802
C28	C	0.632233	0.500016	0.779802
C29	C	0.176403	0.000014	0.165102
C30	C	0.676403	0.500014	0.665102
C31	C	0.147731	0.000027	0.048435
C32	C	0.647731	0.500027	0.548435
C33	C	0.074896	0.000031	0.046482
C34	C	0.574896	0.500031	0.546482
N35	N	0.296520	-0.042843	0.082060
N36	N	0.796520	0.457157	0.582060
N37	N	0.365710	-0.042848	0.083923
N38	N	0.865710	0.457152	0.583923
C39	C	0.395851	0.000005	0.170981
C40	C	0.895851	0.500005	0.670981
N41	N	0.354188	0.042853	0.256124
N42	N	0.854188	0.542853	0.756124
N43	N	0.284992	0.042854	0.254264
N44	N	0.784992	0.542854	0.754264
C45	C	0.255381	0.000010	0.167207
C46	C	0.755381	0.500010	0.667207
C47	C	0.503492	0.000001	0.289762
C48	C	1.003492	0.500001	0.789762
C49	C	0.576330	0.000010	0.291714
C50	C	1.076330	0.500010	0.791714
C51	C	0.591827	0.000014	0.060344
C52	C	1.091827	0.500014	0.560344
C53	C	0.518990	0.000013	0.058395
C54	C	1.018990	0.500013	0.558395
C55	C	0.474827	0.000003	0.173108
C56	C	0.974827	0.500003	0.673108
N57	N	0.825592	-0.179152	0.169088
N58	N	1.325592	0.320848	0.669088
C59	C	0.872642	-0.218761	0.082572
C60	C	1.372642	0.281239	0.582572
C61	C	0.872646	-0.298009	0.082566
C62	C	1.372646	0.201991	0.582566
C63	C	0.825607	-0.337644	0.169098
C64	C	1.325607	0.162356	0.669098
C65	C	0.778548	-0.298025	0.255620
C66	C	1.278548	0.201975	0.755620
C67	C	0.778541	-0.218779	0.255615
C68	C	1.278541	0.281221	0.755615
N69	N	0.817280	-0.462062	0.281463
N70	N	1.317280	0.037938	0.781463
N71	N	0.817291	-0.537342	0.281463
N72	N	1.317291	-0.037342	0.781463
C73	C	0.825625	-0.576408	0.169115
C74	C	1.325625	-0.076408	0.669115
N75	N	0.833962	-0.537349	0.056763
N76	N	1.333962	-0.037349	0.556763
N77	N	0.833954	-0.462061	0.056764
N78	N	1.333954	0.037939	0.556764
C79	C	0.825610	-0.423573	0.169112
C80	C	1.325610	0.076427	0.669112
C81	C	0.872682	-0.701947	0.082586
C82	C	1.372682	-0.201947	0.582586
C83	C	0.872681	-0.781196	0.082578
C84	C	1.372681	-0.281196	0.582578
C85	C	0.778587	-0.781210	0.255643
C86	C	1.278587	-0.281210	0.755643
C87	C	0.778585	-0.701963	0.255640
C88	C	1.278585	-0.201963	0.755640
C89	C	0.825636	-0.662336	0.169112
C90	C	1.325636	-0.162336	0.669112
C91	C	0.953214	0.000015	0.159123
C92	C	1.453214	0.500015	0.659123
C93	C	1.030733	0.000021	0.161194
C94	C	1.530733	0.500021	0.661194
N95	N	0.825641	0.179175	0.169109
N96	N	1.325641	0.679175	0.669109
C97	C	0.829554	0.000012	-0.062993
C98	C	1.329554	0.500012	0.437007
C99	C	0.827474	0.000016	-0.203895
C100	C	1.327474	0.500016	0.296105
C101	C	0.747773	0.000298	-0.385563
C102	C	1.247773	0.500298	0.114437
C103	C	0.749881	0.000014	-0.238991
C104	C	1.249881	0.500014	0.261009
C105	C	0.864804	-0.071877	-0.266383
C106	C	1.364804	0.428123	0.233617
C107	C	0.862156	-0.071937	-0.412869
C108	C	1.362156	0.428063	0.087131
C109	C	0.863756	0.071231	-0.413410
C110	C	1.363756	0.571231	0.086590
C111	C	0.864471	0.072181	-0.266444
C112	C	1.364471	0.572181	0.233556
C113	C	0.821674	0.000013	0.401200
C114	C	1.321674	0.500013	0.901200
C115	C	0.823754	0.000014	0.542102
C116	C	1.323754	0.500014	1.042102
H117	H	0.599666	0.000009	0.386709
H118	H	1.099666	0.500009	0.886709
H119	H	0.910993	-0.813446	0.012119
H120	H	1.410993	-0.313446	0.512119
H121	H	0.740284	-0.813480	0.326094
H122	H	1.240284	-0.313480	0.826094
C123	C	0.726837	-0.658390	0.350822
C124	C	1.226837	-0.158390	0.850822
H125	H	0.698826	-0.693343	0.402365
H126	H	1.198826	-0.193343	0.902365
H127	H	0.697546	-0.627486	0.305295
H128	H	1.197546	-0.127486	0.805295
H129	H	0.752217	-0.627467	0.403550
H130	H	1.252217	-0.127467	0.903550
H131	H	0.910952	-0.186499	0.012114
H132	H	1.410952	0.313501	0.512114
C133	C	0.824857	-0.144530	-0.450152
C134	C	1.324857	0.355470	0.049848
H135	H	0.811459	-0.173704	-0.375806
H136	H	1.311459	0.326296	0.124194
H137	H	0.855755	-0.173275	-0.507891
H138	H	1.355755	0.326725	-0.007891
H139	H	0.784330	-0.131393	-0.489739
H140	H	1.284330	0.368607	0.010261
H141	H	0.720507	0.051550	-0.195735
H142	H	1.220507	0.551550	0.304265
C143	C	0.706368	0.069936	-0.423290
C144	C	1.206368	0.569936	0.076710
H145	H	0.735045	0.099461	-0.483499
H146	H	1.235045	0.599461	0.016501
H147	H	0.692700	0.099543	-0.349570
H148	H	1.192700	0.599543	0.150430
H149	H	0.665817	0.053763	-0.460109
H150	H	1.165817	0.553763	0.039891
H151	H	0.740247	-0.330299	0.326073
H152	H	1.240247	0.169701	0.826073
C153	C	0.924404	-0.341589	-0.012603
C154	C	1.424404	0.158411	0.487397
H155	H	0.952426	-0.306638	-0.064130
H156	H	1.452426	0.193362	0.435870
H157	H	0.899034	-0.372516	-0.065327
H158	H	1.399034	0.127484	0.434673
H159	H	0.953694	-0.372488	0.032947
H160	H	1.453694	0.127512	0.532947
C161	C	0.454907	-0.000002	0.415934
C162	C	0.954907	0.499998	0.915934
H163	H	0.407423	-0.000009	0.398065
H164	H	0.907423	0.499991	0.898065
H165	H	0.463665	0.043900	0.463794
H166	H	0.963665	0.543900	0.963794
H167	H	0.463654	-0.043912	0.463776
H168	H	0.963654	0.456088	0.963776
C169	C	0.940902	0.078042	-0.235453
C170	C	1.440902	0.578042	0.264547
H171	H	0.961940	0.122123	-0.274434
H172	H	1.461940	0.622123	0.225566
H173	H	0.966186	0.034563	-0.267164
H174	H	1.466186	0.534563	0.232836
H175	H	0.941733	0.081061	-0.145641
H176	H	1.441733	0.581061	0.354359
H177	H	0.837156	0.125366	-0.224978
H178	H	1.337156	0.625366	0.275022
H179	H	0.921786	-0.074549	-0.245287
H180	H	1.421786	0.425451	0.254713
C181	C	0.706523	-0.068963	-0.425447
C182	C	1.206523	0.431037	0.074553
H183	H	0.735406	-0.098053	-0.485987
H184	H	1.235406	0.401947	0.014013
H185	H	0.666150	-0.052435	-0.462430
H186	H	1.166150	0.447565	0.037570
H187	H	0.692577	-0.099140	-0.352522
H188	H	1.192577	0.400860	0.147478
H189	H	0.023443	0.000007	0.371254
H190	H	0.523443	0.500007	0.871254
H191	H	0.917960	-0.075198	-0.462069
H192	H	1.417960	0.424802	0.037931
C193	C	0.709911	-0.069728	-0.181699
C194	C	1.209911	0.430272	0.318301
H195	H	0.692326	-0.098001	-0.248018
H196	H	1.192326	0.401999	0.251982
H197	H	0.672000	-0.053701	-0.122405
H198	H	1.172000	0.446299	0.377595
H199	H	0.740757	-0.100520	-0.139346
H200	H	1.240757	0.399480	0.360654
C201	C	0.829748	-0.144154	-0.208090
C202	C	1.329748	0.355846	0.291910
H203	H	0.792367	-0.130671	-0.145687
H204	H	1.292367	0.369329	0.354313
H205	H	0.863280	-0.173243	-0.169260
H206	H	1.363280	0.326757	0.330740
H207	H	0.811951	-0.173130	-0.273370
H208	H	1.311951	0.326870	0.226630
H209	H	0.838651	0.125721	-0.444404
H210	H	1.338651	0.625721	0.055596
H211	H	0.627789	0.000018	-0.033047
H212	H	1.127789	0.500018	0.466953
H213	H	0.155576	0.000001	0.374797
H214	H	0.655576	0.500001	0.874797
C215	C	0.939464	0.071893	-0.478887
C216	C	1.439464	0.571893	0.021113
H217	H	0.946688	0.029005	-0.533081
H218	H	1.446688	0.529005	-0.033081
H219	H	0.971321	0.070317	-0.415905
H220	H	1.471321	0.570317	0.084095
H221	H	0.947082	0.116762	-0.528100
H222	H	1.447082	0.616762	-0.028100
H223	H	0.495652	0.000015	-0.036595
H224	H	0.995652	0.500015	0.463405
H225	H	0.051559	0.000038	-0.048512
H226	H	0.551559	0.500038	0.451488
C227	C	0.196315	0.000022	-0.077732
C228	C	0.696315	0.500022	0.422268
H229	H	0.243798	0.000011	-0.059862
H230	H	0.743798	0.500011	0.440138
H231	H	0.187573	0.043927	-0.125578
H232	H	0.687573	0.543927	0.374422
H233	H	0.187551	-0.043885	-0.125587
H234	H	0.687551	0.456115	0.374413
C235	C	0.726789	-0.175206	0.350796
C236	C	1.226789	0.324794	0.850796
H237	H	0.698776	-0.210158	0.402337
H238	H	1.198776	0.289842	0.902337
H239	H	0.697500	-0.144300	0.305268
H240	H	1.197500	0.355700	0.805268
H241	H	0.752169	-0.144286	0.403525
H242	H	1.252169	0.355714	0.903525
H243	H	0.910992	-0.669681	0.012126
H244	H	1.410992	-0.169681	0.512126
