data_functionalizedCrystal
_audit_creation_method	'MofGen! by Chris Wilmer'
_symmetry_space_group_name_H-M	'P1'
_symmetry_Int_Tables_number	1
_symmetry_cell_setting	triclinic
loop_
_symmetry_equiv_pos_as_xyz
  x,y,z
_cell_length_a	9.065218
_cell_length_b	14.519731
_cell_length_c	12.996460
_cell_angle_alpha	89.988498
_cell_angle_beta	90.005633
_cell_angle_gamma	95.647631
loop_
_atom_site_label
_atom_site_type_symbol
_atom_site_fract_x
_atom_site_fract_y
_atom_site_fract_z
O1	O	1.957886	-0.135227	0.085584
O2	O	2.457886	0.364773	0.585584
O3	O	1.528395	-0.146319	0.085586
O4	O	2.028395	0.353681	0.585586
O5	O	1.754511	-0.006619	0.085564
O6	O	2.254511	0.493381	0.585564
O7	O	1.731769	-0.274927	0.085606
O8	O	2.231769	0.225073	0.585606
O9	O	1.754488	-0.006611	-0.085570
O10	O	2.254488	0.493389	0.414430
O11	O	1.528371	-0.146311	-0.085547
O12	O	2.028371	0.353689	0.414453
O13	O	1.957862	-0.135219	-0.085550
O14	O	2.457862	0.364781	0.414450
Cu15	Cu	1.743114	-0.140764	-0.101175
Cu16	Cu	2.243114	0.359236	0.398825
Cu17	Cu	1.743142	-0.140774	0.101211
Cu18	Cu	2.243142	0.359226	0.601211
O19	O	1.731746	-0.274919	-0.085528
O20	O	2.231746	0.225081	0.414472
C21	C	1.473416	-0.145249	0.000020
C22	C	1.973416	0.354751	0.500020
C23	C	1.309632	-0.142062	0.000020
C24	C	1.809632	0.357938	0.500020
C25	C	1.753434	0.027752	-0.000006
C26	C	2.253434	0.527752	0.499994
C27	C	1.750241	0.130156	-0.000015
C28	C	2.250241	0.630156	0.499985
C29	C	2.012841	-0.136289	0.000019
C30	C	2.512841	0.363711	0.500019
C31	C	2.176624	-0.139476	0.000026
C32	C	2.676624	0.360524	0.500026
N33	N	1.743106	-0.140757	-0.243522
N34	N	2.243106	0.359243	0.256478
C35	C	1.747646	0.213319	-0.000020
C36	C	2.247646	0.713319	0.499980
C37	C	1.744404	0.317651	-0.000021
C38	C	2.244404	0.817651	0.499979
C39	C	1.741831	0.400809	-0.000021
C40	C	2.241831	0.900809	0.499979
C41	C	1.738589	0.505148	-0.000024
C42	C	2.238589	1.005148	0.499976
C43	C	1.732823	0.690710	0.000023
C44	C	2.232823	1.190710	0.500023
C45	C	1.736016	0.588306	-0.000025
C46	C	2.236016	1.088306	0.499975
C47	C	1.743140	-0.140775	-0.663336
C48	C	2.243140	0.359225	-0.163336
C49	C	1.743126	-0.140773	-0.546531
C50	C	2.243126	0.359227	-0.046531
C51	C	1.743124	-0.140767	-0.453433
C52	C	2.243124	0.359233	0.046567
C53	C	1.743108	-0.140763	-0.336620
C54	C	2.243108	0.359237	0.163380
N55	N	1.743163	-0.140774	0.243558
N56	N	2.243163	0.359226	0.743558
