data_functionalizedCrystal
_audit_creation_method	'MofGen! by Chris Wilmer'
_symmetry_space_group_name_H-M	'P1'
_symmetry_Int_Tables_number	1
_symmetry_cell_setting	triclinic
loop_
_symmetry_equiv_pos_as_xyz
  x,y,z
_cell_length_a	15.944493
_cell_length_b	15.944551
_cell_length_c	14.421503
_cell_angle_alpha	89.996660
_cell_angle_beta	89.992936
_cell_angle_gamma	96.513109
loop_
_atom_site_label
_atom_site_type_symbol
_atom_site_fract_x
_atom_site_fract_y
_atom_site_fract_z
O1	O	1.114560	-0.108089	-0.077101
O2	O	0.870003	-0.121496	-0.077106
O3	O	0.998960	0.007484	-0.077095
O4	O	0.985603	-0.237068	-0.077112
O5	O	0.998938	0.007465	0.077128
O6	O	0.869982	-0.121515	0.077117
O7	O	1.114538	-0.108108	0.077122
Cu8	Cu	0.992258	-0.114813	0.091201
Cu9	Cu	0.992283	-0.114790	-0.091186
O10	O	0.985582	-0.237087	0.077111
C11	C	0.838698	-0.120957	0.000005
C12	C	0.745449	-0.119314	0.000003
C13	C	0.509689	-0.195235	-0.000002
C14	C	0.459120	-0.154303	0.076045
C15	C	0.574728	-0.116270	0.000005
C16	C	0.459146	-0.154266	-0.076008
C17	C	0.409819	-0.113336	0.000003
C18	C	0.525388	-0.075360	0.076115
C19	C	0.525417	-0.075334	-0.076005
C20	C	0.474880	-0.034345	0.000060
C21	C	0.669728	-0.117963	0.000007
C22	C	0.314821	-0.111637	0.000008
C23	C	0.998395	0.038768	0.000017
C24	C	0.996732	0.132014	0.000017
C25	C	1.145844	-0.108646	0.000009
C26	C	1.239092	-0.110289	0.000004
N27	N	0.992246	-0.114828	0.219483
C28	C	0.986147	-0.268372	-0.000003
C29	C	0.987809	-0.361617	-0.000009
C30	C	0.912826	0.346853	0.000003
C31	C	0.951779	0.407869	0.076045
C32	C	0.993725	0.302739	0.000010
C33	C	0.951819	0.407872	-0.076007
C34	C	0.990814	0.467651	-0.000001
C35	C	1.032700	0.362527	0.076115
C36	C	1.032729	0.362523	-0.076006
C37	C	1.071741	0.423521	0.000055
C38	C	0.995399	0.207737	0.000017
C39	C	0.989146	0.562652	-0.000002
N40	N	0.992302	-0.114768	-0.219467
C41	C	0.932607	-0.174442	0.469131
C42	C	1.008509	-0.190733	0.530934
C43	C	0.992267	-0.114808	0.408644
C44	C	0.916384	-0.098537	0.530935
C45	C	0.992280	-0.114791	0.591366
C46	C	1.068207	-0.131138	0.469086
C47	C	0.976033	-0.038908	0.469082
C48	C	1.051990	-0.055167	0.530857
C49	C	0.992258	-0.114821	0.303383
C50	C	0.992297	-0.114778	0.696625
H51	H	0.554206	-0.042040	0.140471
F52	F	1.159587	0.466883	0.000110
F53	F	1.077428	0.336229	-0.160037
F54	F	0.454659	0.054626	0.000124
H55	H	1.066879	0.342536	0.140473
H56	H	0.525313	-0.263254	0.000064
H57	H	0.430174	-0.187659	0.140331
H58	H	0.554372	-0.042003	-0.140295
H59	H	0.430217	-0.187622	-0.140290
H60	H	0.917552	0.427962	0.140331
H61	H	0.852207	-0.084782	0.558105
F62	F	0.907087	0.434133	-0.160030
H63	H	0.845675	0.313532	0.000077
F64	F	0.958040	0.044954	0.433540
H65	H	0.882205	-0.224912	0.442029
H66	H	1.022251	-0.254913	0.558102
H67	H	1.102504	-0.004726	0.557789
H68	H	1.132399	-0.144970	0.442033
