data_functionalizedCrystal
_audit_creation_method	'MofGen! by Chris Wilmer'
_symmetry_space_group_name_H-M	'P1'
_symmetry_Int_Tables_number	1
_symmetry_cell_setting	triclinic
loop_
_symmetry_equiv_pos_as_xyz
  x,y,z
_cell_length_a	16.109318
_cell_length_b	11.026607
_cell_length_c	15.186229
_cell_angle_alpha	89.997819
_cell_angle_beta	90.002030
_cell_angle_gamma	96.027290
loop_
_atom_site_label
_atom_site_type_symbol
_atom_site_fract_x
_atom_site_fract_y
_atom_site_fract_z
O1	O	1.126511	0.156067	0.073151
O2	O	1.626511	0.656067	0.573151
O3	O	0.887357	0.175456	0.073169
O4	O	1.387357	0.675456	0.573169
O5	O	0.987113	-0.010886	0.073158
O6	O	1.487113	0.489114	0.573158
O7	O	1.026755	0.342408	0.073162
O8	O	1.526755	0.842408	0.573162
O9	O	0.987100	-0.010875	-0.073299
O10	O	1.487100	0.489125	0.426701
O11	O	0.887343	0.175466	-0.073289
O12	O	1.387343	0.675466	0.426711
O13	O	1.126498	0.156078	-0.073306
O14	O	1.626498	0.656078	0.426694
Zn15	Zn	1.006919	0.165774	-0.096551
Zn16	Zn	1.506919	0.665774	0.403449
Zn17	Zn	1.006936	0.165760	0.096413
Zn18	Zn	1.506936	0.665760	0.596413
O19	O	1.026742	0.342419	-0.073296
O20	O	1.526742	0.842419	0.426704
C21	C	0.856257	0.174672	-0.000058
C22	C	1.356257	0.674672	0.499942
C23	C	0.763608	0.172306	-0.000051
C24	C	1.263608	0.672306	0.499949
C25	C	0.463397	0.164660	0.079767
C26	C	0.963397	0.664660	0.579767
C27	C	0.550450	0.166875	0.079773
C28	C	1.050450	0.666875	0.579773
C29	C	0.550452	0.166870	-0.079903
C30	C	1.050452	0.666870	0.420097
C31	C	0.463400	0.164646	-0.079908
C32	C	0.963400	0.664646	0.420092
C33	C	0.419875	0.163548	-0.000070
C34	C	0.919875	0.663548	0.499930
C35	C	0.593980	0.167986	-0.000060
C36	C	1.093980	0.667986	0.499940
C37	C	0.688367	0.170387	-0.000055
C38	C	1.188367	0.670387	0.499945
C39	C	0.325482	0.161144	-0.000075
C40	C	0.825482	0.661144	0.499925
C41	C	0.979793	-0.056089	-0.000069
C42	C	1.479793	0.443911	0.499931
C43	C	0.957992	-0.190796	-0.000064
C44	C	1.457992	0.309204	0.499936
C45	C	1.018188	-0.264620	-0.000067
C46	C	1.518188	0.235380	0.499933
C47	C	0.995658	-0.403848	-0.000062
C48	C	1.495658	0.096152	0.499938
C49	C	1.157598	0.156861	-0.000078
C50	C	1.657598	0.656861	0.499922
C51	C	1.250247	0.159227	-0.000079
C52	C	1.750247	0.659227	0.499921
C53	C	1.034062	0.387622	-0.000067
C54	C	1.534062	0.887622	0.499933
C55	C	1.055863	0.522330	-0.000065
C56	C	1.555863	1.022330	0.499935
N57	N	1.006913	0.165783	-0.228243
N58	N	1.506913	0.665783	0.271757
C59	C	1.068366	0.239388	-0.453969
C60	C	1.568366	0.739388	0.046031
C61	C	1.068374	0.239379	-0.546159
C62	C	1.568374	0.739379	-0.046159
C63	C	0.945491	0.092127	-0.546162
C64	C	1.445491	0.592127	-0.046162
C65	C	0.945487	0.092130	-0.453974
C66	C	1.445487	0.592130	0.046026
C67	C	1.006924	0.165768	-0.407880
C68	C	1.506924	0.665768	0.092120
C69	C	1.006936	0.165756	-0.592257
C70	C	1.506936	0.665756	-0.092257
C71	C	1.006944	0.165746	-0.692214
C72	C	1.506944	0.665746	-0.192214
C73	C	1.006918	0.165776	-0.307917
C74	C	1.506918	0.665776	0.192083
N75	N	1.006948	0.165741	0.228106
N76	N	1.506948	0.665741	0.728106
H77	H	0.427963	0.163739	-0.144924
H78	H	0.927963	0.663739	0.355076
O79	O	0.885848	0.020720	-0.591073
O80	O	1.385848	0.520720	-0.091073
C81	C	0.898994	0.036546	-0.682325
C82	C	1.398994	0.536546	-0.182325
H83	H	0.936424	0.128492	-0.694902
H84	H	1.436424	0.628492	-0.194902
H85	H	0.934981	-0.039500	-0.708528
H86	H	1.434981	0.460500	-0.208528
C87	C	0.768208	-0.080572	-0.714172
C88	C	1.268208	0.419428	-0.214172
C89	C	0.814174	0.032363	-0.729619
C90	C	1.314174	0.532363	-0.229619
H91	H	0.715888	-0.083158	-0.743346
H92	H	1.215888	0.416842	-0.243346
H93	H	0.759352	-0.091239	-0.652694
H94	H	1.259352	0.408761	-0.152694
H95	H	0.798206	-0.143932	-0.736008
H96	H	1.298206	0.356068	-0.236008
H97	H	0.784181	0.095719	-0.707774
H98	H	1.284181	0.595719	-0.207774
H99	H	0.823023	0.043041	-0.791095
H100	H	1.323023	0.543041	-0.291095
H101	H	1.118392	0.299348	-0.416442
H102	H	1.618392	0.799348	0.083558
H103	H	1.118406	0.299327	-0.583680
H104	H	1.618406	0.799327	-0.083680
H105	H	0.889776	-0.230667	-0.000053
H106	H	1.389776	0.269333	0.499947
O107	O	0.885691	0.020753	-0.409241
O108	O	1.385691	0.520753	0.090759
C109	C	0.806333	0.054316	-0.431794
C110	C	1.306333	0.554316	0.068206
H111	H	0.812943	0.152170	-0.457140
H112	H	1.312943	0.652170	0.042860
H113	H	0.777517	-0.009309	-0.485306
H114	H	1.277517	0.490691	0.014694
C115	C	0.741525	-0.075446	-0.318778
C116	C	1.241525	0.424554	0.181222
C117	C	0.749642	0.044744	-0.349900
C118	C	1.249642	0.544744	0.150100
H119	H	0.706553	-0.081356	-0.268263
H120	H	1.206553	0.418644	0.231737
H121	H	0.794989	-0.098062	-0.303585
H122	H	1.294989	0.401938	0.196415
H123	H	0.717514	-0.128453	-0.363379
H124	H	1.217514	0.371547	0.136621
H125	H	0.773662	0.097746	-0.305303
H126	H	1.273662	0.597746	0.194697
H127	H	0.696180	0.067368	-0.365084
H128	H	1.196180	0.567368	0.134916
O129	O	0.421216	0.163749	0.157374
O130	O	0.921216	0.663749	0.657374
C131	C	0.448778	0.269337	0.205932
C132	C	0.948778	0.769337	0.705932
H133	H	0.514085	0.305965	0.183233
H134	H	1.014085	0.805965	0.683233
H135	H	0.404199	0.341633	0.194860
H136	H	0.904199	0.841633	0.694860
C137	C	0.370672	0.192546	0.332471
C138	C	0.870672	0.692546	0.832471
C139	C	0.450887	0.237528	0.304597
C140	C	0.950887	0.737528	0.804597
H141	H	0.371969	0.172929	0.393332
H142	H	0.871969	0.672929	0.893332
H143	H	0.352100	0.121412	0.299756
H144	H	0.852100	0.621412	0.799756
H145	H	0.333531	0.252801	0.323237
H146	H	0.833531	0.752801	0.823237
H147	H	0.488023	0.177269	0.313820
H148	H	0.988023	0.677269	0.813820
H149	H	0.469465	0.308652	0.337316
H150	H	0.969465	0.808652	0.837316
O151	O	0.592828	0.168126	0.157271
O152	O	1.092828	0.668126	0.657271
C153	C	0.649474	0.274455	0.162055
C154	C	1.149474	0.774455	0.662055
H155	H	0.664620	0.309797	0.092737
H156	H	1.164620	0.809797	0.592737
H157	H	0.620339	0.347149	0.201445
H158	H	1.120339	0.847149	0.701445
C159	C	0.711644	0.201254	0.292847
C160	C	1.211644	0.701254	0.792847
C161	C	0.730252	0.244656	0.207708
C162	C	1.230252	0.744656	0.707708
H163	H	0.761470	0.182876	0.321012
H164	H	1.261470	0.682876	0.821012
H165	H	0.673479	0.129620	0.289626
H166	H	1.173479	0.629620	0.789626
H167	H	0.687363	0.261840	0.325661
H168	H	1.187363	0.761840	0.825661
H169	H	0.754523	0.184065	0.174893
H170	H	1.254523	0.684065	0.674893
H171	H	0.768423	0.316280	0.210925
H172	H	1.268423	0.816280	0.710925
H173	H	0.927437	-0.443713	-0.000052
H174	H	1.427437	0.056287	0.499948
O175	O	0.592651	0.168106	-0.157510
O176	O	1.092651	0.668106	0.342490
C177	C	0.577697	0.272606	-0.206074
C178	C	1.077697	0.772606	0.293926
H179	H	0.516593	0.306007	-0.183376
H180	H	1.016593	0.806007	0.316624
H181	H	0.631105	0.347405	-0.195009
H182	H	1.131105	0.847405	0.304991
C183	C	0.646808	0.199571	-0.332611
C184	C	1.146808	0.699571	0.167389
C185	C	0.571755	0.240590	-0.304737
C186	C	1.071755	0.740590	0.195263
H187	H	0.643146	0.179826	-0.393471
H188	H	1.143146	0.679826	0.106529
H189	H	0.656886	0.129169	-0.299891
H190	H	1.156886	0.629169	0.200109
H191	H	0.691306	0.261911	-0.323382
H192	H	1.191306	0.761911	0.176618
H193	H	0.527260	0.178245	-0.313956
H194	H	1.027260	0.678245	0.186044
H195	H	0.561670	0.310981	-0.337461
H196	H	1.061670	0.810981	0.162539
O197	O	1.099530	-0.216866	-0.000114
O198	O	1.599530	0.283134	0.499886
C199	C	1.103917	-0.088485	-0.000093
C200	C	1.603917	0.411515	0.499907
H201	H	1.043448	-0.058867	-0.027815
H202	H	1.543448	0.441133	0.472185
H203	H	1.113195	-0.053243	0.070169
H204	H	1.613195	0.446757	0.570169
C205	C	1.252130	-0.072243	-0.023486
C206	C	1.752130	0.427757	0.476514
C207	C	1.177863	-0.035865	-0.057542
C208	C	1.677863	0.464135	0.442458
H209	H	1.297745	-0.039783	-0.058919
H210	H	1.797745	0.460217	0.441081
H211	H	1.249175	-0.158736	-0.023496
H212	H	1.749175	0.341264	0.476504
H213	H	1.259850	-0.042872	0.035065
H214	H	1.759850	0.457128	0.535065
H215	H	1.170139	-0.065249	-0.116087
H216	H	1.670139	0.434751	0.383913
H217	H	1.180819	0.050624	-0.057542
H218	H	1.680819	0.550624	0.442458
H219	H	1.124084	-0.437807	-0.000004
H220	H	1.624084	0.062193	0.499996
