data_functionalizedCrystal
_audit_creation_method	'MofGen! by Chris Wilmer'
_symmetry_space_group_name_H-M	'P1'
_symmetry_Int_Tables_number	1
_symmetry_cell_setting	triclinic
loop_
_symmetry_equiv_pos_as_xyz
  x,y,z
_cell_length_a	19.077105
_cell_length_b	12.827892
_cell_length_c	12.827893
_cell_angle_alpha	90.007453
_cell_angle_beta	92.302424
_cell_angle_gamma	87.711903
loop_
_atom_site_label
_atom_site_type_symbol
_atom_site_fract_x
_atom_site_fract_y
_atom_site_fract_z
Zn1	Zn	1.075931	-0.480516	0.655011
Zn2	Zn	1.075891	-0.655222	0.480269
Zn3	Zn	0.958262	-0.473466	0.473267
Zn4	Zn	0.958221	-0.648180	0.647951
O5	O	1.017076	-0.564346	0.564125
O6	O	1.174417	-0.509588	0.637715
O7	O	1.060288	-0.631109	0.333104
O8	O	0.973905	-0.328167	0.497400
O9	O	1.174387	-0.637945	0.509333
O10	O	1.060356	-0.333346	0.630926
O11	O	0.973866	-0.497573	0.327960
O12	O	0.859766	-0.490745	0.490555
O13	O	0.973835	-0.625942	0.795124
O14	O	0.859736	-0.619107	0.618895
O15	O	1.060316	-0.502760	0.800310
O16	O	1.060248	-0.800522	0.502488
O17	O	0.973796	-0.795348	0.625684
C18	C	0.834213	-0.553397	0.553200
C19	C	0.755984	-0.548738	0.548551
C20	C	0.719234	-0.613482	0.613081
C21	C	0.645729	-0.609091	0.608718
C22	C	0.608975	-0.539961	0.539819
C23	C	0.645730	-0.475210	0.475286
C24	C	0.719233	-0.479597	0.479655
C25	C	0.389142	-0.519659	0.519603
C26	C	0.315633	-0.515279	0.515236
C27	C	0.315637	-0.649159	0.648671
C28	C	0.389142	-0.653544	0.653029
C29	C	0.425891	-0.588790	0.588500
N30	N	0.533841	-0.535473	0.535355
N31	N	0.501023	-0.593273	0.592970
C32	C	1.017032	-0.835853	0.564103
C33	C	1.017078	-0.952009	0.564133
C34	C	1.059908	-1.006322	0.503246
C35	C	1.059956	-1.126376	0.503275
C36	C	1.200654	-0.575338	0.575093
C37	C	1.278883	-0.580023	0.579767
C38	C	1.017075	-0.564352	0.836695
C39	C	1.017075	-0.564354	0.952848
C40	C	1.017140	-0.291780	0.564170
C41	C	1.017167	-0.175628	0.564189
C42	C	0.974285	-0.625304	1.002066
C43	C	0.974284	-0.625308	1.122116
C44	C	1.017072	-0.564363	1.292614
C45	C	1.017073	-0.564361	1.176461
H46	H	0.615810	-0.661812	0.661265
H47	H	1.096622	-1.173074	0.451144
H48	H	0.937655	-0.677486	0.955327
F49	F	0.926395	-0.693509	1.177449
H50	H	0.285710	-0.458973	0.459136
H51	H	0.419054	-0.466939	0.467050
F52	F	1.064956	-0.496146	1.121135
F53	F	1.064962	-0.496157	1.013934
H54	H	0.749153	-0.669778	0.669183
H55	H	0.419062	-0.709839	0.709132
H56	H	0.285708	-0.701876	0.701208
H57	H	0.615799	-0.418919	0.419191
H58	H	1.096544	-0.963946	0.451099
H59	H	0.980448	-0.994388	0.616287
F60	F	0.758345	-0.410686	0.410974
F61	F	0.969231	-1.114600	0.632324
