data_functionalizedCrystal
_audit_creation_method	'MofGen! by Chris Wilmer'
_symmetry_space_group_name_H-M	'P1'
_symmetry_Int_Tables_number	1
_symmetry_cell_setting	triclinic
loop_
_symmetry_equiv_pos_as_xyz
  x,y,z
_cell_length_a	15.624884
_cell_length_b	15.538191
_cell_length_c	14.750779
_cell_angle_alpha	97.569385
_cell_angle_beta	94.870295
_cell_angle_gamma	66.735156
loop_
_atom_site_label
_atom_site_type_symbol
_atom_site_fract_x
_atom_site_fract_y
_atom_site_fract_z
O1	O	-1.013798	-0.233466	-0.432819
O2	O	-0.773959	-0.226788	-0.349308
O3	O	-0.940564	-0.097217	-0.407324
O4	O	-0.847193	-0.363037	-0.374804
O5	O	-0.987660	-0.060593	-0.264074
O6	O	-0.821055	-0.190164	-0.206058
O7	O	-1.060894	-0.196842	-0.289569
Zn8	Zn	-0.948452	-0.187688	-0.225069
Zn9	Zn	-0.886401	-0.235942	-0.413808
O10	O	-0.894289	-0.326413	-0.231553
C11	C	-0.767561	-0.205150	-0.267256
C12	C	-0.678335	-0.195229	-0.236188
C13	C	-0.256602	-0.262391	-0.524531
C14	C	-0.172769	-0.253051	-0.495339
C15	C	-0.224090	-0.213123	-0.339166
C16	C	-0.307932	-0.222455	-0.368345
C17	C	-0.324180	-0.247091	-0.461029
C18	C	-0.375509	-0.207155	-0.304843
C19	C	-0.459341	-0.216492	-0.334020
C20	C	-0.475596	-0.241129	-0.426699
C21	C	-0.408012	-0.256427	-0.490205
C22	C	-0.359257	-0.182526	-0.212159
C23	C	-0.426834	-0.167226	-0.148657
C24	C	-0.510671	-0.176556	-0.177835
C25	C	-0.526926	-0.201193	-0.270514
C26	C	-0.578255	-0.161257	-0.114328
C27	C	-0.662087	-0.170594	-0.143505
C28	C	-0.610757	-0.210530	-0.299690
N29	N	-0.990806	-0.154756	-0.096262
C30	C	-0.973880	-0.044693	-0.339103
C31	C	-1.002977	0.057249	-0.349244
C32	C	-0.067290	-0.218485	-0.371618
C33	C	-0.156511	-0.228424	-0.402674
C34	C	-0.860972	-0.378937	-0.299776
C35	C	-0.831874	-0.480881	-0.289641
C36	C	-0.713887	0.371167	-0.248563
C37	C	-0.741251	0.466961	-0.258089
C38	C	-0.895166	0.475496	-0.311683
C39	C	-0.867813	0.379700	-0.302165
C40	C	-0.777173	0.327543	-0.270604
C41	C	-0.931100	0.336076	-0.324206
C42	C	-0.903750	0.240289	-0.314685
C43	C	-0.813114	0.188127	-0.283123
C44	C	-0.749823	0.231757	-0.261083
C45	C	-1.021742	0.388236	-0.355761
C46	C	-1.085028	0.344612	-0.377802
C47	C	-1.057677	0.248822	-0.368287
C48	C	-0.967041	0.196659	-0.336725
C49	C	-1.120968	0.205192	-0.390327
C50	C	-1.093618	0.109406	-0.380805
C51	C	-0.939691	0.100873	-0.327203
N52	N	-0.844056	-0.268867	-0.542618
C53	C	-0.725779	-0.360799	0.347845
C54	C	-0.755462	-0.337730	0.438007
C55	C	-0.903000	-0.223043	0.386594
C56	C	-0.873327	-0.246100	0.296426
C57	C	-0.784716	-0.314979	0.277059
C58	C	-0.932264	-0.200280	0.225640
C59	C	-0.902596	-0.223338	0.135479
C60	C	-0.813990	-0.292217	0.116104
C61	C	-0.755047	-0.338038	0.186898
C62	C	-1.020877	-0.131405	0.245008
C63	C	-1.079815	-0.085585	0.174222
C64	C	-1.050144	-0.108639	0.084060
C65	C	-0.961538	-0.177518	0.064684
C66	C	-1.109086	-0.062818	0.013265
C67	C	-1.079417	-0.085877	-0.076896
C68	C	-0.931869	-0.200576	-0.025477
H69	H	-0.210847	-0.193068	-0.263702
H70	H	-1.151964	-0.029505	0.190001
H71	H	-0.290992	-0.174930	-0.188406
H72	H	-0.790849	0.110133	-0.275366
H73	H	-0.117744	-0.265515	-0.547057
F74	F	-1.203394	0.010478	0.033887
F75	F	-0.997305	-0.149740	0.407214
F76	F	-0.782416	-0.316762	0.020144
H77	H	-0.717110	-0.158140	-0.091794
H78	H	-0.543856	-0.248736	-0.450452
F79	F	-0.653350	0.176240	-0.227500
F80	F	-0.617413	0.315651	-0.214981
H81	H	-0.623987	-0.230587	-0.375163
F82	F	-1.217435	0.260716	-0.423901
H83	H	-0.269832	-0.282449	-0.600003
H84	H	-0.859709	-0.256658	-0.041242
H85	H	-0.413591	-0.147171	-0.073194
F86	F	-0.660732	-0.411340	0.166287
H87	H	-0.653619	-0.416881	0.332079
F88	F	-0.843218	0.045356	-0.293621
F89	F	-0.560945	-0.135052	-0.015689
H90	H	-0.421242	-0.276485	-0.565678
H91	H	-1.127411	-0.048566	-0.134532
F92	F	-0.673887	0.513386	-0.234623
H93	H	-1.145152	0.073887	-0.398752
H94	H	-0.968967	0.517976	-0.337376
H95	H	-1.044004	0.466229	-0.363520
H96	H	-1.158829	0.387091	-0.403495
F97	F	-0.692724	-0.386508	0.513341
F98	F	-1.052451	-0.106871	0.340967
