data_functionalizedCrystal
_audit_creation_method	'MofGen! by Chris Wilmer'
_symmetry_space_group_name_H-M	'P1'
_symmetry_Int_Tables_number	1
_symmetry_cell_setting	triclinic
loop_
_symmetry_equiv_pos_as_xyz
  x,y,z
_cell_length_a	19.188905
_cell_length_b	27.732025
_cell_length_c	18.266242
_cell_angle_alpha	90.008162
_cell_angle_beta	89.983837
_cell_angle_gamma	82.884015
loop_
_atom_site_label
_atom_site_type_symbol
_atom_site_fract_x
_atom_site_fract_y
_atom_site_fract_z
O1	O	0.925769	0.060291	-0.060978
O2	O	0.722402	0.068427	-0.060950
O3	O	0.830410	-0.006019	-0.060987
O4	O	0.817761	0.134738	-0.060941
O5	O	0.830392	-0.006023	0.060775
O6	O	0.722384	0.068424	0.060812
O7	O	0.925751	0.060287	0.060784
Zn8	Zn	0.824064	0.064355	0.080130
Zn9	Zn	0.824088	0.064360	-0.080297
O10	O	0.817743	0.134734	0.060821
C11	C	0.696384	0.068164	-0.000066
C12	C	0.618883	0.067379	-0.000057
C13	C	0.582504	0.067004	-0.066431
C14	C	0.509685	0.066261	-0.066440
C15	C	0.473250	0.065884	-0.000072
C16	C	0.509638	0.066262	0.066312
C17	C	0.582454	0.067009	0.066319
N18	N	0.364409	0.037200	0.049311
N19	N	0.295237	0.036489	0.049299
C20	C	0.253858	0.063632	-0.000090
N21	N	0.284267	0.091507	-0.049479
N22	N	0.353446	0.092216	-0.049469
C23	C	0.394293	0.065073	-0.000072
C24	C	0.138520	0.062452	-0.066479
C25	C	0.065699	0.061712	-0.066486
C26	C	0.065655	0.061707	0.066268
C27	C	0.138473	0.062452	0.066273
C28	C	0.174902	0.062822	-0.000103
C29	C	0.830138	-0.024029	-0.000114
C30	C	0.829346	-0.077687	-0.000135
C31	C	0.823727	-0.460867	-0.066464
C32	C	0.826692	-0.259199	-0.066488
O33	O	0.827111	-0.233129	-0.122937
N34	N	0.827052	-0.233979	-0.000118
C35	C	0.826676	-0.259179	0.066263
O36	O	0.827059	-0.233101	0.122715
C37	C	0.823717	-0.460847	0.066287
C38	C	0.823349	-0.486064	-0.000088
C39	C	0.823360	-0.486084	-0.132834
C40	C	0.822615	-0.536498	-0.132827
C41	C	0.822237	-0.561695	-0.066451
C42	C	0.822604	-0.536478	-0.000082
C43	C	0.823346	-0.486047	0.132667
C44	C	0.822608	-0.536467	0.132667
C45	C	0.822240	-0.561684	0.066292
C46	C	0.821481	-0.612088	0.066301
N47	N	0.821120	-0.637308	-0.000069
C48	C	0.821498	-0.612112	-0.066445
C49	C	0.828229	-0.153300	0.066247
C50	C	0.828968	-0.102884	0.066241
C51	C	0.828984	-0.102907	-0.066511
C52	C	0.828240	-0.153324	-0.066505
C53	C	0.827868	-0.178521	-0.000124
C54	C	0.819933	-0.717984	-0.066426
C55	C	0.819185	-0.768402	-0.066414
C56	C	0.819173	-0.768374	0.066338
C57	C	0.819917	-0.717960	0.066326
C58	C	0.820299	-0.692767	-0.000062
O59	O	0.821069	-0.638190	0.122721
O60	O	0.821132	-0.638200	-0.122888
C61	C	0.824472	-0.410454	-0.066471
C62	C	0.824839	-0.385236	-0.000102
C63	C	0.824461	-0.410433	0.066275
C64	C	0.825578	-0.334820	-0.000107
C65	C	0.825955	-0.309623	-0.066483
C66	C	0.825595	-0.334843	-0.132854
C67	C	0.824850	-0.385257	-0.132847
C68	C	0.824822	-0.385213	0.132645
C69	C	0.825566	-0.334799	0.132633
C70	C	0.825944	-0.309602	0.066257
C71	C	0.951769	0.060551	-0.000102
C72	C	1.029270	0.061335	-0.000116
C73	C	0.818015	0.152744	-0.000054
C74	C	0.818807	0.206402	-0.000038
N75	N	0.824053	0.064351	0.189617
N76	N	0.824105	0.064360	-0.189783
C77	C	0.871894	0.031402	0.227909
C78	C	0.871899	0.031400	0.304554
C79	C	0.824069	0.064355	0.342904
C80	C	0.776219	0.097306	0.304602
C81	C	0.776211	0.097305	0.227959
N82	N	0.814715	0.107146	0.463251
N83	N	0.814727	0.107146	0.536059
C84	C	0.824088	0.064362	0.573826
N85	N	0.833452	0.021576	0.536035
N86	N	0.833444	0.021576	0.463220
C87	C	0.824072	0.064360	0.426011
C88	C	0.871937	0.031408	0.695226
C89	C	0.871937	0.031405	0.771872
C90	C	0.776260	0.097316	0.771919
C91	C	0.776257	0.097314	0.695274
C92	C	0.824099	0.064361	0.656932
H93	H	0.168181	0.062759	-0.120526
H94	H	0.829287	-0.082383	-0.120557
C95	C	0.025581	0.061293	0.139275
N96	N	-0.004607	0.060981	0.194266
H97	H	0.737273	0.124138	0.335830
C98	C	0.924557	-0.004852	0.813994
N99	N	0.964188	-0.032163	0.845720
H100	H	0.827926	-0.173811	0.120305
C101	C	0.178494	0.062858	0.139291
N102	N	0.208637	0.063164	0.194292
H103	H	0.910858	0.004568	0.335738
H104	H	0.479968	0.065955	0.120350
H105	H	0.818883	-0.788931	-0.120466
C106	C	0.823754	-0.458320	0.205686
N107	N	0.824062	-0.437436	0.260688
H108	H	0.480059	0.065957	-0.120492
C109	C	0.822195	-0.564179	0.205693
N110	N	0.821881	-0.585051	0.260696
H111	H	0.820245	-0.697477	-0.120486
H112	H	0.036080	0.061410	-0.120538
C113	C	0.723610	0.133574	0.185836
N114	N	0.684001	0.160900	0.154108
C115	C	0.820318	-0.690221	0.139341
N116	N	0.820627	-0.669331	0.194337
H117	H	0.818862	-0.788898	0.120379
C118	C	0.822266	-0.564235	-0.205845
N119	N	0.822024	-0.585126	-0.260846
C120	C	0.824475	-0.412992	-0.205865
N121	N	0.824204	-0.433880	-0.260866
H122	H	0.825897	-0.314319	-0.186899
C123	C	0.622474	0.067418	0.139340
N124	N	0.652618	0.067724	0.194340
H125	H	0.823670	-0.465575	-0.186888
H126	H	0.829254	-0.082355	0.120290
H127	H	0.612160	0.067306	-0.120480
H128	H	0.827939	-0.173853	-0.120553
C129	C	0.825969	-0.307066	0.205656
N130	N	0.826279	-0.286180	0.260655
C131	C	0.924516	-0.004852	0.185738
N132	N	0.964149	-0.032161	0.153973
C133	C	0.924558	-0.004846	0.653047
N134	N	0.964191	-0.032153	0.621280
H135	H	0.824516	-0.405723	0.186698
H136	H	0.737313	0.124146	0.803142
H137	H	0.737303	0.124146	0.664094
