data_functionalizedCrystal
_audit_creation_method	'MofGen! by Chris Wilmer'
_symmetry_space_group_name_H-M	'P1'
_symmetry_Int_Tables_number	1
_symmetry_cell_setting	triclinic
loop_
_symmetry_equiv_pos_as_xyz
  x,y,z
_cell_length_a	13.033304
_cell_length_b	13.032721
_cell_length_c	13.032268
_cell_angle_alpha	103.289627
_cell_angle_beta	89.077769
_cell_angle_gamma	105.183092
loop_
_atom_site_label
_atom_site_type_symbol
_atom_site_fract_x
_atom_site_fract_y
_atom_site_fract_z
Zn1	Zn	-1.451133	0.335813	0.818131
Zn2	Zn	-1.451019	0.490910	0.663066
Zn3	Zn	-1.301797	0.330110	0.623681
Zn4	Zn	-1.250931	0.535896	0.818005
O5	O	-1.363720	0.423183	0.730721
O6	O	-1.597353	0.339947	0.814097
O7	O	-1.452464	0.448366	0.511621
O8	O	-1.342943	0.179836	0.633046
O9	O	-1.597269	0.453897	0.700172
O10	O	-1.452659	0.184026	0.775907
O11	O	-1.342832	0.330227	0.482685
O12	O	-1.148815	0.373848	0.632923
O13	O	-1.256248	0.530569	0.964242
O14	O	-1.111443	0.525038	0.775692
O15	O	-1.403335	0.383568	0.964335
O16	O	-1.403141	0.647909	0.700049
O17	O	-1.256137	0.680960	0.813882
C18	C	-1.092212	0.453707	0.700021
C19	C	-0.976052	0.466795	0.686914
C20	C	-0.924277	0.416366	0.737549
C21	C	-0.804220	0.429892	0.724004
C22	C	-1.324132	0.703595	0.761252
C23	C	-1.307287	0.823551	0.774359
C24	C	-1.324130	0.462723	1.003262
C25	C	-1.307259	0.479572	1.119403
C26	C	-0.636290	0.392534	0.761534
C27	C	-0.752448	0.379456	0.774646
C28	C	-1.403488	0.141675	0.700097
C29	C	-1.420434	0.021713	0.687047
C30	C	-1.372560	0.860644	0.723934
C31	C	-1.355151	0.984625	0.737479
C32	C	-1.403227	0.383712	0.459238
C33	C	-1.420343	0.366535	0.343088
C34	C	-1.372514	0.414352	1.171228
C35	C	-1.355079	0.431765	1.291266
H36	H	-0.796999	0.326258	0.828021
H37	H	-1.238479	0.548295	1.163899
O38	O	-1.273222	1.056337	0.801032
C39	C	-1.220809	1.205676	0.954347
C40	C	-1.313688	1.124543	0.882447
H41	H	-1.253493	1.260827	1.020201
H42	H	-1.165813	1.257763	0.905957
H43	H	-1.174357	1.158441	0.990153
H44	H	-1.360222	1.171691	0.846625
H45	H	-1.368609	1.072457	0.930888
H46	H	-0.968833	0.363174	0.790922
O47	O	-1.502405	0.949962	0.623578
C48	C	-1.594557	0.760973	0.552291
C49	C	-1.501673	0.842109	0.624182
H50	H	-1.594010	0.673757	0.552773
H51	H	-1.585438	0.772865	0.468325
H52	H	-1.673043	0.776245	0.582615
H53	H	-1.423144	0.826887	0.593953
H54	H	-1.510886	0.830199	0.708135
H55	H	-0.759669	0.483080	0.670621
H56	H	-0.931497	0.519979	0.633535
O57	O	-1.502358	0.284599	1.289860
C58	C	-1.594427	0.192443	1.121665
C59	C	-1.501531	0.285301	1.181821
H60	H	-1.593775	0.192965	1.034301
H61	H	-1.672976	0.204964	1.154559
H62	H	-1.585257	0.110595	1.131598
H63	H	-1.510598	0.367189	1.171912
H64	H	-1.423018	0.272683	1.148914
H65	H	-1.441336	0.800617	0.670739
H66	H	-1.238519	0.883581	0.827562
H67	H	-1.441285	0.345619	1.126729
H68	H	-1.286294	0.500493	1.335758
