data_functionalizedCrystal
_audit_creation_method	'MofGen! by Chris Wilmer'
_symmetry_space_group_name_H-M	'P1'
_symmetry_Int_Tables_number	1
_symmetry_cell_setting	triclinic
loop_
_symmetry_equiv_pos_as_xyz
  x,y,z
_cell_length_a	12.594517
_cell_length_b	17.077402
_cell_length_c	17.077396
_cell_angle_alpha	90.029086
_cell_angle_beta	89.987112
_cell_angle_gamma	89.968790
loop_
_atom_site_label
_atom_site_type_symbol
_atom_site_fract_x
_atom_site_fract_y
_atom_site_fract_z
Zn1	Zn	1.627140	0.312509	-0.443701
Zn2	Zn	1.626988	0.443784	-0.312434
Zn3	Zn	1.449148	0.312536	-0.312464
Zn4	Zn	1.449078	0.443737	-0.443672
O5	O	1.538088	0.378141	-0.378068
O6	O	1.776065	0.329931	-0.426287
O7	O	1.603362	0.426405	-0.202591
O8	O	1.472851	0.202686	-0.329898
O9	O	1.775954	0.426379	-0.329846
O10	O	1.603621	0.202666	-0.426317
O11	O	1.472704	0.329977	-0.202613
O12	O	1.300193	0.329932	-0.329870
O13	O	1.472733	0.426298	-0.553523
O14	O	1.300142	0.426324	-0.426268
O15	O	1.603554	0.329886	-0.553544
O16	O	1.603295	0.553625	-0.329818
O17	O	1.472586	0.553590	-0.426238
C18	C	1.261547	0.378126	-0.378070
C19	C	1.143242	0.378139	-0.378089
C20	C	1.003228	0.430662	-0.430423
C21	C	1.073994	0.449765	-0.358780
C22	C	1.074047	0.359071	-0.449724
C23	C	1.003222	0.397304	-0.306385
C24	C	1.003269	0.306577	-0.397377
C25	C	1.074003	0.325653	-0.325685
C26	C	1.537945	0.582089	-0.378039
C27	C	1.537981	0.669339	-0.378053
C28	C	1.606029	0.710251	-0.428297
C29	C	1.606058	0.792232	-0.428312
C30	C	1.538045	0.833299	-0.378077
C31	C	1.469991	0.792381	-0.327830
C32	C	1.469956	0.710402	-0.327820
C33	C	1.470069	0.963251	-0.327853
C34	C	1.470104	1.045235	-0.327861
C35	C	1.606170	1.045081	-0.428345
C36	C	1.606136	0.963102	-0.428335
C37	C	1.538083	0.922190	-0.378086
C38	C	1.815709	0.378157	-0.378066
C39	C	1.934015	0.378164	-0.378066
C40	C	1.538153	0.378084	-0.582812
C41	C	1.538180	0.378059	-0.670062
C42	C	1.538215	1.173397	-0.378107
C43	C	1.538151	1.086147	-0.378106
C44	C	1.606301	0.327853	-0.711064
C45	C	1.606314	0.327827	-0.793045
C46	C	1.538210	0.378011	-0.834021
C47	C	1.470082	0.428220	-0.793013
C48	C	1.470065	0.428241	-0.711034
C49	C	1.470125	0.428172	-0.963883
C50	C	1.470143	0.428152	-1.045868
C51	C	1.606374	0.327758	-1.045894
C52	C	1.606357	0.327780	-0.963915
C53	C	1.538230	0.377989	-0.922912
C54	C	1.538085	0.378142	-0.174120
C55	C	1.538264	0.377946	-0.086870
H56	H	0.972153	0.475102	-0.474634
H57	H	1.661417	0.676820	-0.469201
H58	H	1.661844	0.286874	-1.079282
O59	O	0.966039	0.234450	-0.416971
C60	C	0.860871	0.158435	-0.507046
C61	C	0.902945	0.240165	-0.484923
H62	H	0.809870	0.163026	-0.561997
H63	H	0.811013	0.134253	-0.456863
H64	H	0.930657	0.117507	-0.518685
H65	H	0.833223	0.281152	-0.473297
H66	H	0.952834	0.264283	-0.535119
H67	H	1.661581	1.078396	-0.469259
H68	H	0.972243	0.413516	-0.245778
O69	O	1.111037	0.339904	-0.522065
C70	C	1.117076	0.373650	-0.658984
C71	C	1.075098	0.395427	-0.577105
H72	H	1.088055	0.418537	-0.703503
H73	H	1.086742	0.313084	-0.675931
H74	H	1.207584	0.373233	-0.658121
H75	H	0.984593	0.395889	-0.577905
H76	H	1.105514	0.455979	-0.560190
H77	H	1.414717	1.078669	-0.286959
H78	H	1.661787	0.286946	-0.826425
H79	H	1.661477	0.825539	-0.469220
O80	O	1.672240	0.923330	-0.477203
C81	C	1.807251	0.931823	-0.576835
C82	C	1.732427	0.976962	-0.521543
H83	H	1.855948	0.975165	-0.612686
H84	H	1.758387	0.893468	-0.617898
H85	H	1.862867	0.893409	-0.540806
H86	H	1.676796	1.015418	-0.557508
H87	H	1.781357	1.015268	-0.480478
O88	O	1.111032	0.272684	-0.272879
C89	C	1.264771	0.212803	-0.213975
C90	C	1.222977	0.272797	-0.273819
H91	H	1.355282	0.212886	-0.214704
H92	H	1.234505	0.151942	-0.229902
H93	H	1.235453	0.229206	-0.152968
H94	H	1.252277	0.256467	-0.334847
H95	H	1.253234	0.333641	-0.257825
O96	O	1.672308	0.279061	-0.671178
C97	C	1.686686	0.173068	-0.578692
C98	C	1.611817	0.228292	-0.623795
H99	H	1.637809	0.131996	-0.540384
H100	H	1.742291	0.209071	-0.540251
H101	H	1.735395	0.137215	-0.622099
H102	H	1.563040	0.264157	-0.580444
H103	H	1.556283	0.192243	-0.662248
O104	O	1.403884	0.476922	-1.085553
C105	C	1.268794	0.576527	-1.076881
C106	C	1.343760	0.521322	-1.031841
H107	H	1.220180	0.612450	-1.033475
H108	H	1.213116	0.540506	-1.115248
H109	H	1.317650	0.617533	-1.115274
H110	H	1.294989	0.480304	-0.993406
H111	H	1.399441	0.557391	-0.993523
H112	H	1.414609	0.825823	-0.286931
O113	O	1.403924	0.923628	-0.278971
C114	C	1.268920	0.932428	-0.179343
C115	C	1.343787	0.977397	-0.234647
H116	H	1.220263	0.975881	-0.143504
H117	H	1.317747	0.894062	-0.138269
H118	H	1.213268	0.894041	-0.215361
H119	H	1.399453	1.015827	-0.198692
H120	H	1.294893	1.015714	-0.275723
H121	H	1.661819	0.286919	-0.930554
H122	H	1.105061	0.510294	-0.342450
H123	H	1.414544	0.677091	-0.286907
O124	O	1.403929	0.476940	-0.671081
C125	C	1.343569	0.521498	-0.544773
C126	C	1.418510	0.466296	-0.589921
H127	H	1.355348	0.512924	-0.479149
H128	H	1.257736	0.507701	-0.560833
H129	H	1.362197	0.584782	-0.560923
H130	H	1.399979	0.402993	-0.573796
H131	H	1.504321	0.480160	-0.573858
O132	O	1.404104	0.476985	-0.923960
C133	C	1.389715	0.583016	-0.831404
C134	C	1.464589	0.527771	-0.876559
H135	H	1.438588	0.624102	-0.793082
H136	H	1.334101	0.547030	-0.792973
H137	H	1.341016	0.618854	-0.874778
H138	H	1.513356	0.491922	-0.833241
H139	H	1.520132	0.563803	-0.915002
O140	O	1.403773	0.476886	-0.832779
C141	C	1.222698	0.515007	-0.857807
C142	C	1.297669	0.459828	-0.812741
H143	H	1.136898	0.501246	-0.841611
H144	H	1.234319	0.506369	-0.923453
H145	H	1.241387	0.578302	-0.841680
H146	H	1.279026	0.396511	-0.828802
H147	H	1.286034	0.468534	-0.747106
