data_functionalizedCrystal
_audit_creation_method	'MofGen! by Chris Wilmer'
_symmetry_space_group_name_H-M	'P1'
_symmetry_Int_Tables_number	1
_symmetry_cell_setting	triclinic
loop_
_symmetry_equiv_pos_as_xyz
  x,y,z
_cell_length_a	13.033293
_cell_length_b	29.839131
_cell_length_c	13.032268
_cell_angle_alpha	82.859460
_cell_angle_beta	90.920818
_cell_angle_gamma	97.210335
loop_
_atom_site_label
_atom_site_type_symbol
_atom_site_fract_x
_atom_site_fract_y
_atom_site_fract_z
Zn1	Zn	1.498333	-0.139774	0.781438
Zn2	Zn	1.520016	-0.204336	0.609444
Zn3	Zn	1.348195	-0.137401	0.587614
Zn4	Zn	1.326249	-0.223065	0.759478
O5	O	1.423198	-0.176144	0.684494
O6	O	1.645134	-0.141493	0.776949
O7	O	1.515482	-0.186627	0.462643
O8	O	1.368221	-0.074846	0.613380
O9	O	1.661065	-0.188927	0.650586
O10	O	1.478527	-0.076589	0.755781
O11	O	1.389246	-0.137450	0.446605
O12	O	1.201359	-0.155610	0.592086
O13	O	1.330818	-0.220847	0.906297
O14	O	1.185235	-0.218547	0.718354
O15	O	1.457247	-0.159654	0.922431
O16	O	1.494202	-0.269691	0.629293
O17	O	1.351843	-0.283451	0.739522
C18	C	1.155979	-0.188854	0.650469
C19	C	1.041658	-0.194303	0.635938
C20	C	0.982796	-0.173311	0.692078
C21	C	0.864639	-0.178943	0.677060
C22	C	1.423019	-0.292873	0.684419
C23	C	1.423032	-0.342807	0.684434
C24	C	1.497432	-0.645267	0.627209
C25	C	1.497554	-0.832937	0.627265
O26	O	1.560669	-0.851099	0.578552
N27	N	1.423402	-0.863581	0.684598
C28	C	1.349218	-0.847305	0.741928
O29	O	1.286156	-0.877676	0.790703
C30	C	1.349101	-0.659637	0.741877
C31	C	1.423252	-0.628994	0.684531
C32	C	1.571578	-0.614626	0.569868
C33	C	1.571543	-0.567711	0.569851
C34	C	1.497363	-0.551438	0.627173
C35	C	1.423217	-0.582080	0.684513
C36	C	1.274923	-0.643362	0.799211
C37	C	1.274902	-0.596441	0.799195
C38	C	1.349052	-0.565799	0.741850
C39	C	1.349002	-0.518892	0.741817
N40	N	1.423155	-0.488248	0.684484
C41	C	1.497335	-0.504521	0.627161
C42	C	1.349283	-0.945833	0.741949
C43	C	1.349311	-0.992750	0.741960
C44	C	1.497649	-0.978379	0.627298
C45	C	1.497615	-0.931461	0.627282
C46	C	1.423435	-0.915189	0.684615
C47	C	1.497256	-0.405998	0.627127
C48	C	1.497212	-0.359080	0.627111
C49	C	1.348878	-0.373456	0.741777
C50	C	1.348918	-0.420370	0.741789
C51	C	1.423116	-0.436639	0.684462
O52	O	1.285927	-0.500698	0.790514
O53	O	1.560402	-0.474144	0.578411
C54	C	1.497467	-0.692182	0.627227
C55	C	1.423321	-0.722824	0.684567
C56	C	1.349141	-0.706551	0.741889
C57	C	1.423349	-0.769740	0.684578
C58	C	1.497529	-0.786013	0.627256
C59	C	1.571682	-0.755369	0.569922
C60	C	1.571647	-0.708455	0.569904
C61	C	1.274989	-0.737195	0.799223
C62	C	1.275029	-0.784109	0.799235
C63	C	1.349209	-0.800381	0.741913
C64	C	1.691461	-0.163386	0.718652
C65	C	1.805779	-0.157949	0.733208
C66	C	1.389165	-0.192604	0.952720
C67	C	1.374663	-0.199618	1.067022
C68	C	1.423403	-0.058960	0.684595
C69	C	1.423491	-0.009023	0.684638
C70	C	1.457158	-0.159713	0.417318
C71	C	1.471860	-0.152563	0.303042
C72	C	1.430751	-0.172468	1.125964
C73	C	1.415763	-0.179717	1.244102
H74	H	1.557595	-0.334132	0.580410
H75	H	0.827563	-0.201084	0.617872
Cl76	Cl	1.324480	-0.223891	1.301209
H77	H	1.315540	-0.228227	1.104020
Cl78	Cl	1.255633	-0.352989	0.813841
Cl79	Cl	1.521999	-0.128283	1.068848
H80	H	1.558049	-0.991636	0.580625
Cl81	Cl	0.863012	-0.123758	0.824580
H82	H	1.004578	-0.216443	0.576754
H83	H	1.557677	-0.419238	0.580449
Cl84	Cl	1.563153	-0.108392	1.245939
Cl85	Cl	1.664846	-0.635074	0.497796
Cl86	Cl	1.664780	-0.529197	0.497772
Cl87	Cl	1.040036	-0.139125	0.783450
H88	H	1.557996	-0.906514	0.580587
H89	H	1.214583	-0.723950	0.845903
H90	H	1.214637	-0.809055	0.845931
H91	H	1.288874	-0.932589	0.788637
Cl92	Cl	1.181708	-0.681873	0.871322
Cl93	Cl	1.256078	-1.031266	0.814041
H94	H	1.214496	-0.583196	0.845886
H95	H	1.288541	-0.445320	0.788488
Cl96	Cl	1.664875	-0.669940	0.497813
H97	H	1.632079	-0.768627	0.523245
