data_functionalizedCrystal
_audit_creation_method	'MofGen! by Chris Wilmer'
_symmetry_space_group_name_H-M	'P1'
_symmetry_Int_Tables_number	1
_symmetry_cell_setting	triclinic
loop_
_symmetry_equiv_pos_as_xyz
  x,y,z
_cell_length_a	14.519731
_cell_length_b	10.654550
_cell_length_c	9.130313
_cell_angle_alpha	89.995631
_cell_angle_beta	90.003615
_cell_angle_gamma	95.913108
loop_
_atom_site_label
_atom_site_type_symbol
_atom_site_fract_x
_atom_site_fract_y
_atom_site_fract_z
O1	O	1.224708	-0.164750	0.121802
O2	O	1.558042	0.168583	0.455135
O3	O	1.891375	0.501916	0.788469
O4	O	0.956334	-0.184109	0.121804
O5	O	1.289668	0.149224	0.455138
O6	O	1.623001	0.482558	0.788471
O7	O	1.096692	0.008368	0.121794
O8	O	1.430025	0.341702	0.455127
O9	O	1.763358	0.675035	0.788461
O10	O	1.084351	-0.357228	0.121812
O11	O	1.417684	-0.023894	0.455146
O12	O	1.751018	0.309439	0.788479
O13	O	1.096682	0.008374	-0.121805
O14	O	1.430015	0.341707	0.211528
O15	O	1.763349	0.675041	0.544862
O16	O	0.956325	-0.184103	-0.121795
O17	O	1.289658	0.149230	0.211539
O18	O	1.622991	0.482563	0.544872
O19	O	1.224699	-0.164745	-0.121797
O20	O	1.558032	0.168589	0.211537
O21	O	1.891365	0.501922	0.544870
Cu22	Cu	1.090511	-0.174424	-0.144038
Cu23	Cu	1.423844	0.158910	0.189295
Cu24	Cu	1.757177	0.492243	0.522629
Cu25	Cu	1.090522	-0.174430	0.144046
Cu26	Cu	1.423856	0.158903	0.477379
Cu27	Cu	1.757189	0.492237	0.810712
O28	O	1.084341	-0.357222	-0.121786
O29	O	1.417675	-0.023889	0.211547
O30	O	1.751008	0.309445	0.544880
C31	C	0.921965	-0.183199	0.000005
C32	C	1.255299	0.150134	0.333338
C33	C	1.588632	0.483468	0.666672
C34	C	0.819571	-0.180481	0.000006
C35	C	1.152904	0.152852	0.333339
C36	C	1.486238	0.486186	0.666672
C37	C	0.736416	-0.178272	0.000012
C38	C	1.069749	0.155061	0.333345
C39	C	1.403082	0.488394	0.666678
C40	C	0.632093	-0.175513	0.000012
C41	C	0.965426	0.157821	0.333345
C42	C	1.298759	0.491154	0.666679
C43	C	0.548942	-0.173322	0.000012
C44	C	0.882275	0.160011	0.333345
C45	C	1.215609	0.493344	0.666678
C46	C	0.444612	-0.170563	0.000015
C47	C	0.777946	0.162770	0.333348
C48	C	1.111279	0.496104	0.666682
C49	C	1.095781	0.055160	-0.000005
C50	C	1.429114	0.388494	0.333329
C51	C	1.762448	0.721827	0.666662
C52	C	1.093070	0.194578	-0.000002
C53	C	1.426403	0.527911	0.333331
C54	C	1.759736	0.861245	0.666664
C55	C	1.259068	-0.165655	0.000006
C56	C	1.592401	0.167679	0.333339
C57	C	1.925734	0.501012	0.666672
C58	C	1.361462	-0.168373	0.000015
C59	C	1.694795	0.164961	0.333348
C60	C	2.028129	0.498294	0.666681
C61	C	1.085252	-0.404014	0.000015
C62	C	1.418586	-0.070681	0.333349
C63	C	1.751919	0.262653	0.666682
C64	C	1.087963	-0.543432	0.000023
C65	C	1.421297	-0.210098	0.333356
C66	C	1.754630	0.123235	0.666689
N67	N	1.090509	-0.174418	-0.346661
N68	N	1.423843	0.158915	-0.013327
N69	N	1.757176	0.492248	0.320006
C70	C	1.175710	0.274850	-0.000003
C71	C	1.509043	0.608183	0.333331
C72	C	1.842377	0.941516	0.666664
C73	C	1.173157	0.405846	0.000015
C74	C	1.506491	0.739179	0.333349
C75	C	1.839824	1.072513	0.666682
C76	C	1.005317	0.376286	0.000027
C77	C	1.338650	0.709620	0.333361
C78	C	1.671983	1.042953	0.666694
C79	C	1.007871	0.245293	0.000020
C80	C	1.341204	0.578626	0.333353
C81	C	1.674537	0.911959	0.666687
C82	C	1.152681	-0.089225	-0.423317
C83	C	1.486014	0.244108	-0.089984
C84	C	1.819348	0.577442	0.243349
C85	C	1.152690	-0.089225	-0.576654
C86	C	1.486023	0.244108	-0.243321
C87	C	1.819356	0.577442	0.090013
C88	C	1.028353	-0.259623	-0.576665
C89	C	1.361686	0.073711	-0.243331
C90	C	1.695019	0.407044	0.090002
C91	C	1.028340	-0.259616	-0.423330
C92	C	1.361674	0.073718	-0.089997
C93	C	1.695007	0.407051	0.243336
N94	N	1.090531	-0.174426	0.346668
N95	N	1.423864	0.158908	0.680002
N96	N	1.757198	0.492241	1.013335
H97	H	1.245085	0.233562	-0.000018
H98	H	1.578418	0.566896	0.333316
H99	H	1.911751	0.900229	0.666649
Cl100	Cl	0.950171	-0.366718	-0.326953
Cl101	Cl	1.283505	-0.033385	0.006380
Cl102	Cl	1.616838	0.299949	0.339714
H103	H	0.940571	0.179931	0.000024
H104	H	1.273904	0.513265	0.333358
H105	H	1.607237	0.846598	0.666691
H106	H	0.977737	-0.328990	-0.639104
H107	H	1.311070	0.004343	-0.305771
H108	H	1.644404	0.337676	0.027562
H109	H	1.240451	0.471199	0.000018
H110	H	1.573785	0.804532	0.333352
H111	H	1.907118	1.137866	0.666685
H112	H	1.203302	-0.019850	-0.360896
H113	H	1.536635	0.313483	-0.027563
H114	H	1.869968	0.646816	0.305770
H115	H	0.935950	0.417595	0.000043
H116	H	1.269284	0.750928	0.333376
H117	H	1.602617	1.084261	0.666709
H118	H	1.203314	-0.019852	-0.639064
H119	H	1.536647	0.313482	-0.305730
H120	H	1.869981	0.646815	0.027603
