data_functionalizedCrystal
_audit_creation_method	'MofGen! by Chris Wilmer'
_symmetry_space_group_name_H-M	'P1'
_symmetry_Int_Tables_number	1
_symmetry_cell_setting	triclinic
loop_
_symmetry_equiv_pos_as_xyz
  x,y,z
_cell_length_a	10.686220
_cell_length_b	29.839131
_cell_length_c	10.686551
_cell_angle_alpha	94.405920
_cell_angle_beta	89.691918
_cell_angle_gamma	94.423430
loop_
_atom_site_label
_atom_site_type_symbol
_atom_site_fract_x
_atom_site_fract_y
_atom_site_fract_z
Zn1	Zn	1.972144	-0.109530	0.562385
Zn2	Zn	1.955808	-0.190847	0.352625
Zn3	Zn	1.746247	-0.121023	0.368702
Zn4	Zn	1.762239	-0.189936	0.578403
O5	O	1.859110	-0.152834	0.465529
O6	O	2.145525	-0.115888	0.521128
O7	O	1.914480	-0.186775	0.179212
O8	O	1.776357	-0.056627	0.394419
O9	O	2.133523	-0.175631	0.367018
O10	O	1.942322	-0.048183	0.536717
O11	O	1.760517	-0.135476	0.191024
O12	O	1.572821	-0.134593	0.409951
O13	O	1.803613	-0.174080	0.751823
O14	O	1.584570	-0.185224	0.564017
O15	O	1.957829	-0.115006	0.740055
O16	O	1.929987	-0.253598	0.382550
O17	O	1.787773	-0.252929	0.548428
C18	C	1.533178	-0.161057	0.490468
C19	C	1.393745	-0.164585	0.501167
C20	C	1.858879	-0.269564	0.465508
C21	C	1.858898	-0.319497	0.465532
C22	C	1.785110	-0.675744	0.551892
C23	C	1.784941	-0.488077	0.551865
O24	O	1.721929	-0.463531	0.625289
N25	N	1.859033	-0.464938	0.465559
C26	C	1.933179	-0.488718	0.379259
O27	O	1.996205	-0.464730	0.305858
C28	C	1.933354	-0.676384	0.379292
C29	C	1.859247	-0.699522	0.465596
C30	C	1.711011	-0.698882	0.638189
C31	C	1.711048	-0.745796	0.638191
C32	C	1.785185	-0.769573	0.551895
C33	C	1.859285	-0.746436	0.465597
C34	C	2.007505	-0.700163	0.292999
C35	C	2.007545	-0.747083	0.293017
C36	C	1.933438	-0.770220	0.379320
C37	C	1.933460	-0.817127	0.379302
N38	N	1.859368	-0.840267	0.465608
C39	C	1.785231	-0.816490	0.551905
C40	C	1.933080	-0.390190	0.379246
C41	C	1.933035	-0.343274	0.379236
C42	C	1.784799	-0.342636	0.551844
C43	C	1.784838	-0.389554	0.551847
C44	C	1.858988	-0.413329	0.465552
C45	C	1.785315	-0.915013	0.551900
C46	C	1.785355	-0.961932	0.551890
C47	C	1.933596	-0.962565	0.379287
C48	C	1.933551	-0.915651	0.379292
C49	C	1.859407	-0.891876	0.465609
O50	O	1.996450	-0.841701	0.305926
O51	O	1.722235	-0.840485	0.625313
C52	C	1.785072	-0.628830	0.551891
C53	C	1.859172	-0.605693	0.465593
C54	C	1.933309	-0.629470	0.379297
C55	C	1.859126	-0.558776	0.465583
C56	C	1.784989	-0.534999	0.551879
C57	C	1.710897	-0.558139	0.638185
C58	C	1.710935	-0.605053	0.638187
C59	C	2.007401	-0.606331	0.292991
C60	C	2.007356	-0.559416	0.292996
C61	C	1.933219	-0.535639	0.379292
C62	C	2.186314	-0.144579	0.440493
C63	C	2.325749	-0.141062	0.429824
C64	C	1.884327	-0.143159	0.792729
C65	C	1.895073	-0.139036	0.932162
C66	C	1.859378	-0.035647	0.465575
C67	C	1.859492	0.014291	0.465594
C68	C	1.834063	-0.162437	0.139596
C69	C	1.823560	-0.166428	0.000145
H70	H	1.374204	-0.118224	0.360559
O71	O	1.335746	-0.191798	0.583777
C72	C	1.139222	-0.220282	0.670025
C73	C	1.204746	-0.189439	0.576441
H74	H	1.033296	-0.218392	0.664107
H75	H	1.172650	-0.208813	0.769301
H76	H	1.163220	-0.256503	0.645885
H77	H	1.180778	-0.153210	0.600466
H78	H	1.171314	-0.200945	0.477192
H79	H	1.650640	-0.679526	0.708468
O80	O	1.713337	-0.984335	0.635854
C81	C	1.566248	-0.978745	0.807009
C82	C	1.647764	-0.953319	0.712010
H83	H	1.513191	-0.953681	0.868588
H84	H	1.628807	-0.997276	0.868341
H85	H	1.496326	-1.004110	0.754355
H86	H	1.717696	-0.927932	0.764561
H87	H	1.585126	-0.934819	0.650680
H88	H	1.993464	-0.409544	0.308968
H89	H	2.067850	-0.681331	0.222723
O90	O	1.713479	-0.891893	0.635862
C91	C	1.709431	-0.834324	0.806477
C92	C	1.790940	-0.860480	0.711487
H93	H	1.772022	-0.808914	0.867627
H94	H	1.656509	-0.858901	0.868240
H95	H	1.639394	-0.815770	0.753817
H96	H	1.861045	-0.879036	0.764044
H97	H	1.843774	-0.835881	0.649727
O98	O	1.712829	-0.411955	0.635810
C99	C	1.565738	-0.406361	0.806962
C100	C	1.647251	-0.380938	0.711955
H101	H	1.512677	-0.381295	0.868533
H102	H	1.628302	-0.424887	0.868303
H103	H	1.495820	-0.431730	0.754316
H104	H	1.717179	-0.355547	0.764498
H105	H	1.584609	-0.362442	0.650617
O106	O	2.005548	-0.985736	0.295558
C107	C	2.071172	-1.058308	0.218987
C108	C	1.989661	-1.032120	0.313907
H109	H	2.058335	-1.095816	0.233772
H110	H	2.174043	-1.045879	0.233329
H111	H	2.041411	-1.052615	0.119518
H112	H	2.019311	-1.037801	0.413414
H113	H	1.886808	-1.044554	0.299455
H114	H	1.650592	-0.623887	0.708466
O115	O	1.978035	-0.107281	0.989777
C116	C	2.136227	-0.046644	0.964075
C117	C	2.042350	-0.082592	0.898665
H118	H	2.188232	-0.026666	0.890443
H119	H	2.206533	-0.063800	1.020351
H120	H	2.083342	-0.022831	1.029876
H121	H	2.095128	-0.106415	0.832804
H122	H	1.972047	-0.065405	0.842468
O123	O	1.712901	-0.319463	0.635630
C124	C	1.647116	-0.246899	0.712057
C125	C	1.728604	-0.273088	0.617120
H126	H	1.659763	-0.209401	0.697108
H127	H	1.676882	-0.252522	0.811576
H128	H	1.544294	-0.259394	0.697714
H129	H	1.831446	-0.260610	0.631348
H130	H	1.698732	-0.267465	0.517635
H131	H	1.650701	-0.764631	0.708466
O132	O	2.005125	-0.320869	0.295341
C133	C	2.152106	-0.326469	0.124095
C134	C	2.070535	-0.351895	0.219052
H135	H	2.204991	-0.351544	0.062373
H136	H	2.222158	-0.301126	0.176654
H137	H	2.089477	-0.307914	0.062900
H138	H	2.133065	-0.370477	0.280272
H139	H	2.000474	-0.377213	0.166415
H140	H	2.067933	-0.766438	0.222747
H141	H	1.993881	-0.896813	0.309004
H142	H	1.754116	-0.193034	0.951676
H143	H	1.650527	-0.538772	0.708447
H144	H	2.067775	-0.625685	0.222717
O145	O	2.079463	-0.537011	0.209103
C146	C	2.226458	-0.542610	0.037869
C147	C	2.144871	-0.568037	0.132813
H148	H	2.279342	-0.567685	-0.023854
H149	H	2.296511	-0.517271	0.090440
H150	H	2.163840	-0.524051	-0.023327
H151	H	2.207389	-0.586623	0.194034
H152	H	2.074809	-0.593351	0.080164
