data_functionalizedCrystal
_audit_creation_method	'MofGen! by Chris Wilmer'
_symmetry_space_group_name_H-M	'P1'
_symmetry_Int_Tables_number	1
_symmetry_cell_setting	triclinic
loop_
_symmetry_equiv_pos_as_xyz
  x,y,z
_cell_length_a	10.967926
_cell_length_b	10.967829
_cell_length_c	10.065875
_cell_angle_alpha	86.921207
_cell_angle_beta	93.120479
_cell_angle_gamma	87.248880
loop_
_atom_site_label
_atom_site_type_symbol
_atom_site_fract_x
_atom_site_fract_y
_atom_site_fract_z
O1	O	1.622282	0.210055	0.218659
O2	O	1.272392	0.213494	0.135556
O3	O	1.449083	0.036855	0.218663
O4	O	1.445591	0.386694	0.135552
O5	O	1.415397	0.070679	0.429772
O6	O	1.238705	0.247319	0.346665
O7	O	1.588596	0.243879	0.429769
Zn8	Zn	1.408302	0.250969	0.421735
Zn9	Zn	1.452685	0.206404	0.143589
O10	O	1.411904	0.420519	0.346662
C11	C	1.210630	0.227600	0.231205
C12	C	1.076785	0.219225	0.201695
C13	C	0.999662	0.233013	0.297899
C14	C	0.861326	0.224357	0.267401
C15	C	1.429441	0.008854	0.334121
C16	C	1.421085	-0.124975	0.363625
C17	C	1.434811	-0.202155	0.267417
C18	C	1.426176	-0.340474	0.297910
C19	C	1.650358	0.229773	0.334116
C20	C	1.784204	0.238147	0.363619
C21	C	1.431547	0.448519	0.231201
C22	C	1.439904	0.582346	0.201688
N23	N	1.378021	0.281383	0.611565
N24	N	1.482976	0.175981	-0.046236
C25	C	1.442142	0.216978	0.709574
C26	C	1.418846	0.240395	0.855754
H27	H	1.040399	0.201009	0.096753
H28	H	1.402934	-0.161298	0.468565
O29	O	1.042897	0.254903	0.423111
C30	C	1.041309	0.392543	0.601788
C31	C	0.992235	0.367893	0.459986
H32	H	1.000390	0.483906	0.631635
H33	H	1.014802	0.316416	0.674607
H34	H	1.145149	0.395587	0.604065
H35	H	0.888394	0.364872	0.457580
H36	H	1.018837	0.444026	0.387230
O37	O	1.404311	-0.383707	0.423083
C38	C	1.266849	-0.381883	0.601816
C39	C	1.291446	-0.332851	0.460042
H40	H	1.175611	-0.340766	0.631751
H41	H	1.263647	-0.485714	0.604167
H42	H	1.343137	-0.355403	0.674529
H43	H	1.215189	-0.359241	0.387247
H44	H	1.294695	-0.229028	0.457800
O45	O	1.568886	0.089261	0.925006
C46	C	1.635861	-0.123697	0.947367
C47	C	1.538488	-0.025561	0.979902
H48	H	1.611334	-0.216548	0.991759
H49	H	1.639428	-0.127453	0.834674
H50	H	1.728969	-0.099716	0.991664
H51	H	1.445330	-0.049471	0.935692
H52	H	1.535029	-0.021825	1.092606
H53	H	1.514280	0.144497	0.685266
O54	O	1.461301	-0.374222	0.076453
C55	C	1.387517	-0.244673	-0.114812
C56	C	1.363203	-0.293715	0.027039
H57	H	1.308209	-0.179594	-0.154817
H58	H	1.475796	-0.193837	-0.112259
H59	H	1.396514	-0.324363	-0.182416
H60	H	1.354146	-0.214097	0.094723
H61	H	1.274947	-0.344588	0.024381
O62	O	0.827549	0.259665	0.488903
C63	C	0.843794	0.189960	0.720618
C64	C	0.794663	0.165430	0.578802
H65	H	0.817202	0.113802	0.793345
H66	H	0.947639	0.193006	0.723014
H67	H	0.802837	0.281297	0.750495
H68	H	0.835528	0.074091	0.548836
H69	H	0.690815	0.162463	0.576484
O70	O	1.332609	0.326729	0.884669
C71	C	1.119965	0.394926	0.862588
C72	C	1.217497	0.297058	0.829771
H73	H	1.026880	0.370986	0.818194
H74	H	1.116404	0.398404	0.975308
H75	H	1.144434	0.487901	0.818476
H76	H	1.193099	0.204033	0.873797
H77	H	1.221040	0.293688	0.717040
H78	H	0.824946	0.206140	0.162452
H79	H	1.305873	0.353855	0.635875
H80	H	1.452950	-0.165831	0.162475
