data_functionalizedCrystal
_audit_creation_method	'MofGen! by Chris Wilmer'
_symmetry_space_group_name_H-M	'P1'
_symmetry_Int_Tables_number	1
_symmetry_cell_setting	triclinic
loop_
_symmetry_equiv_pos_as_xyz
  x,y,z
_cell_length_a	15.995343
_cell_length_b	15.995350
_cell_length_c	15.072220
_cell_angle_alpha	89.991130
_cell_angle_beta	89.989711
_cell_angle_gamma	96.509221
loop_
_atom_site_label
_atom_site_type_symbol
_atom_site_fract_x
_atom_site_fract_y
_atom_site_fract_z
O1	O	1.110976	-0.107905	0.073689
O2	O	1.610976	0.392095	0.573689
O3	O	0.867200	-0.121239	0.073710
O4	O	1.367200	0.378761	0.573710
O5	O	0.995752	0.007316	0.073698
O6	O	1.495752	0.507316	0.573698
O7	O	0.982424	-0.236460	0.073701
O8	O	1.482424	0.263540	0.573701
O9	O	0.995768	0.007338	-0.073867
O10	O	1.495768	0.507338	0.426133
O11	O	0.867216	-0.121217	-0.073855
O12	O	1.367216	0.378783	0.426145
O13	O	1.110992	-0.107882	-0.073876
O14	O	1.610992	0.392118	0.426124
Zn15	Zn	0.989107	-0.114546	-0.097295
Zn16	Zn	1.489107	0.385454	0.402705
Zn17	Zn	0.989085	-0.114575	0.097129
Zn18	Zn	1.489085	0.385425	0.597129
O19	O	0.982440	-0.236437	-0.073864
O20	O	1.482440	0.263563	0.426136
C21	C	0.836013	-0.120678	-0.000070
C22	C	1.336013	0.379322	0.499930
C23	C	0.743062	-0.119028	-0.000062
C24	C	1.243062	0.380972	0.499938
C25	C	0.995209	0.038522	-0.000083
C26	C	1.495209	0.538522	0.499917
C27	C	0.993557	0.131472	-0.000078
C28	C	1.493557	0.631472	0.499922
N29	N	0.989128	-0.114525	-0.229984
N30	N	1.489128	0.385475	0.270016
C31	C	0.572876	-0.116035	-0.000074
C32	C	1.072876	0.383965	0.499926
C33	C	0.549530	-0.023238	-0.000075
C34	C	1.049530	0.476762	0.499925
C35	C	0.452852	-0.021492	-0.000415
C36	C	0.952852	0.478508	0.499585
C37	C	0.405316	-0.113086	-0.000085
C38	C	0.905316	0.386914	0.499915
C39	C	0.434417	-0.159733	-0.084183
C40	C	0.934417	0.340267	0.415817
C41	C	0.531209	-0.160834	-0.084249
C42	C	1.031209	0.339166	0.415751
C43	C	0.531101	-0.162218	0.083566
C44	C	1.031101	0.337782	0.583566
C45	C	0.434606	-0.158793	0.084666
C46	C	0.934606	0.341207	0.584666
C47	C	0.310618	-0.111425	-0.000094
C48	C	0.810618	0.388575	0.499906
C49	C	0.667574	-0.117699	-0.000071
C50	C	1.167574	0.382301	0.499929
C51	C	1.142179	-0.108444	-0.000094
C52	C	1.642179	0.391556	0.499906
C53	C	1.235130	-0.110093	-0.000097
C54	C	1.735130	0.389907	0.499903
C55	C	0.982983	-0.267643	-0.000082
C56	C	1.482983	0.232357	0.499918
C57	C	0.984635	-0.360594	-0.000081
C58	C	1.484635	0.139406	0.499919
C59	C	0.987625	0.469220	-0.000080
C60	C	1.487625	0.969220	0.499920
C61	C	0.896072	0.421783	0.000259
C62	C	1.396072	0.921783	0.500259
C63	C	0.897725	0.325093	-0.000074
C64	C	1.397725	0.825093	0.499926
C65	C	0.990567	0.301659	-0.000078
C66	C	1.490567	0.801659	0.499922
C67	C	1.035733	0.342751	-0.084348
C68	C	1.535733	0.842751	0.415652
C69	C	1.033434	0.439386	-0.084418
C70	C	1.533434	0.939386	0.415582
C71	C	1.035306	0.439719	0.083391
C72	C	1.535306	0.939719	0.583391
C73	C	1.035284	0.342773	0.084505
C74	C	1.535284	0.842773	0.584505
C75	C	0.992235	0.206962	-0.000080
C76	C	1.492235	0.706962	0.499920
C77	C	0.985960	0.563917	-0.000084
C78	C	1.485960	1.063917	0.499916
N79	N	0.989071	-0.114590	0.229817
N80	N	1.489071	0.385410	0.729817
C81	C	0.989109	-0.114546	0.589019
C82	C	1.489109	0.385454	1.089019
C83	C	0.920397	-0.183408	0.551418
C84	C	1.420397	0.316592	1.051418
C85	C	0.920141	-0.183244	0.448592
C86	C	1.420141	0.316756	0.948592
C87	C	0.989090	-0.114568	0.410815
C88	C	1.489090	0.385432	0.910815
C89	C	0.970238	-0.027133	0.448123
C90	C	1.470238	0.472867	0.948123
C91	C	0.969755	-0.027524	0.550981
C92	C	1.469755	0.472476	1.050981
C93	C	1.076876	-0.132339	0.551097
C94	C	1.576876	0.367661	1.051097
C95	C	1.076280	-0.134337	0.448233
C96	C	1.576280	0.365663	0.948233
C97	C	0.989081	-0.114575	0.310101
C98	C	1.489081	0.385425	0.810101
C99	C	0.989116	-0.114533	0.689732
C100	C	1.489116	0.385467	1.189732
H101	H	0.433826	0.015024	0.059858
H102	H	0.933826	0.515024	0.559858
H103	H	1.018959	0.025345	0.423650
H104	H	1.518959	0.525345	0.923650
Br105	Br	1.100135	-0.241547	0.407602
Br106	Br	1.600135	0.258453	0.907602
Br107	Br	0.575871	-0.107591	-0.189428
Br108	Br	1.075871	0.392409	0.310572
Br109	Br	0.835065	0.452648	0.100984
Br110	Br	1.335065	0.952648	0.600984
H111	H	0.859649	0.441385	-0.059830
H112	H	1.359649	0.941385	0.440170
Br113	Br	1.107171	-0.236343	0.594359
Br114	Br	1.607171	0.263657	1.094359
H115	H	0.906968	-0.011112	0.422363
H116	H	1.406968	0.488888	0.922363
Br117	Br	0.838170	0.278655	-0.100916
Br118	Br	1.338170	0.778655	0.399084
H119	H	0.545783	-0.228884	-0.087844
H120	H	1.045783	0.271116	0.412156
H121	H	1.129789	-0.087457	0.422515
H122	H	1.629789	0.412543	0.922515
H123	H	1.100650	0.471637	-0.088244
H124	H	1.600650	0.971637	0.411756
H125	H	0.402571	-0.227144	-0.087074
H126	H	0.902571	0.272856	0.412926
H127	H	0.545114	-0.230523	0.084378
H128	H	1.045114	0.269477	0.584378
H129	H	0.855628	-0.172180	0.577274
H130	H	1.355628	0.327820	1.077274
H131	H	1.128008	-0.082127	0.575415
H132	H	1.628008	0.417873	1.075415
H133	H	1.000512	0.457697	-0.147407
H134	H	1.500512	0.957697	0.352593
H135	H	1.102807	0.471482	0.083954
H136	H	1.602807	0.971482	0.583954
H137	H	0.401649	-0.225626	0.090006
H138	H	0.901649	0.274374	0.590006
H139	H	1.103943	0.328627	-0.087485
H140	H	1.603943	0.828627	0.412515
H141	H	0.905753	-0.011878	0.574979
H142	H	1.405753	0.488122	1.074979
H143	H	0.855002	-0.171859	0.423995
H144	H	1.355002	0.328141	0.923995
Br145	Br	0.983474	0.295465	-0.188867
Br146	Br	1.483474	0.795465	0.311133
Br147	Br	0.400945	-0.106361	-0.188899
Br148	Br	0.900945	0.393639	0.311101
Br149	Br	1.148129	0.317166	0.092989
Br150	Br	1.648129	0.817166	0.592989
H151	H	0.931337	-0.248230	0.423370
H152	H	1.431337	0.251770	0.923370
H153	H	1.005366	0.460248	0.147262
H154	H	1.505366	0.960248	0.647262
Br155	Br	0.596198	0.036704	0.100429
Br156	Br	1.096198	0.536704	0.600429
H157	H	0.578521	0.012154	-0.060294
H158	H	1.078521	0.512154	0.439706
Br159	Br	1.050013	0.060465	0.592440
Br160	Br	1.550013	0.560465	1.092440
Br161	Br	0.980706	0.296801	0.188427
Br162	Br	1.480706	0.796801	0.688427
H163	H	0.559364	-0.132950	0.147330
H164	H	1.059364	0.367050	0.647330
Br165	Br	0.422124	0.039098	-0.101496
Br166	Br	0.922124	0.539098	0.398504
Br167	Br	0.938745	-0.292080	0.592675
Br168	Br	1.438745	0.207920	1.092675
H169	H	0.862222	0.296661	0.060334
H170	H	1.362222	0.796661	0.560334
Br171	Br	0.403699	-0.102155	0.188370
Br172	Br	0.903699	0.397845	0.688370
