data_functionalizedCrystal
_audit_creation_method	'MofGen! by Chris Wilmer'
_symmetry_space_group_name_H-M	'P1'
_symmetry_Int_Tables_number	1
_symmetry_cell_setting	triclinic
loop_
_symmetry_equiv_pos_as_xyz
  x,y,z
_cell_length_a	25.639242
_cell_length_b	11.169416
_cell_length_c	11.169409
_cell_angle_alpha	90.030874
_cell_angle_beta	89.968060
_cell_angle_gamma	89.994132
loop_
_atom_site_label
_atom_site_type_symbol
_atom_site_fract_x
_atom_site_fract_y
_atom_site_fract_z
Zn1	Zn	0.799379	0.477853	-0.678943
Zn2	Zn	0.799330	0.678593	-0.478265
Zn3	Zn	0.711940	0.477907	-0.478235
Zn4	Zn	0.711943	0.678477	-0.678867
O5	O	0.755648	0.578208	-0.578577
O6	O	0.872537	0.504508	-0.652367
O7	O	0.787716	0.652044	-0.310311
O8	O	0.723558	0.309950	-0.504878
O9	O	0.872502	0.651991	-0.504929
O10	O	0.787798	0.309910	-0.652338
O11	O	0.723511	0.504600	-0.310289
O12	O	0.638775	0.504487	-0.504805
O13	O	0.723563	0.651792	-0.846827
O14	O	0.638778	0.651845	-0.652209
O15	O	0.787802	0.504395	-0.846883
O16	O	0.787719	0.846528	-0.504856
O17	O	0.723517	0.846442	-0.652238
C18	C	0.755627	0.890032	-0.578568
C19	C	0.755666	1.023432	-0.578605
C20	C	0.619805	0.578160	-0.578496
C21	C	0.561691	0.578169	-0.578490
C22	C	0.755688	0.578074	-0.891620
C23	C	0.755705	0.578018	-1.025020
C24	C	0.201339	0.655065	-0.655258
C25	C	0.146734	0.655073	-0.655277
O26	O	0.118506	0.720393	-0.720479
N27	N	0.119409	0.578241	-0.578656
C28	C	0.146691	0.501388	-0.502019
O29	O	0.118435	0.436037	-0.436850
C30	C	0.201294	0.501376	-0.502007
C31	C	0.228617	0.578221	-0.578625
C32	C	0.228661	0.731903	-0.731870
C33	C	0.283262	0.731897	-0.731849
C34	C	0.310540	0.655053	-0.655216
C35	C	0.283217	0.578215	-0.578604
C36	C	0.228575	0.424518	-0.425378
C37	C	0.283182	0.424511	-0.425373
C38	C	0.310505	0.501357	-0.501991
C39	C	0.365096	0.501365	-0.501950
N40	N	0.392421	0.578196	-0.578571
C41	C	0.365143	0.655041	-0.655204
C42	C	0.032020	0.501419	-0.502052
C43	C	-0.022582	0.501436	-0.502057
C44	C	-0.022535	0.655119	-0.655316
C45	C	0.032068	0.655107	-0.655304
C46	C	0.059345	0.578250	-0.578673
C47	C	0.479808	0.655023	-0.655154
C48	C	0.534413	0.655013	-0.655123
C49	C	0.534361	0.501326	-0.501868
C50	C	0.479761	0.501340	-0.501895
C51	C	0.452485	0.578192	-0.578547
O52	O	0.393359	0.436073	-0.436785
O53	O	0.393406	0.720370	-0.720374
C54	C	0.892021	0.578256	-0.578660
C55	C	0.950135	0.578277	-0.578695
C56	C	0.755683	0.265165	-0.578613
C57	C	0.755698	0.131765	-0.578628
C58	C	0.755638	0.578254	-0.266753
C59	C	0.755722	0.577973	-0.133353
H60	H	0.556657	0.717595	-0.717515
H61	H	0.457607	0.717600	-0.717575
Br62	Br	0.191509	0.320214	-0.321397
H63	H	-0.044755	0.717687	-0.717719
H64	H	0.054311	0.717680	-0.717695
Br65	Br	0.571392	0.397043	-0.397871
H66	H	0.206457	0.794480	-0.794281
Br67	Br	0.320198	0.320196	-0.321371
H68	H	0.305503	0.794470	-0.794242
Br69	Br	0.442679	0.397072	-0.397890
Br70	Br	-0.059656	0.397161	-0.398053
H71	H	0.054226	0.438834	-0.439641
