data_functionalizedCrystal
_audit_creation_method	'MofGen! by Chris Wilmer'
_symmetry_space_group_name_H-M	'P1'
_symmetry_Int_Tables_number	1
_symmetry_cell_setting	triclinic
loop_
_symmetry_equiv_pos_as_xyz
  x,y,z
_cell_length_a	14.853567
_cell_length_b	10.268362
_cell_length_c	14.853569
_cell_angle_alpha	90.006454
_cell_angle_beta	83.635248
_cell_angle_gamma	90.001612
loop_
_atom_site_label
_atom_site_type_symbol
_atom_site_fract_x
_atom_site_fract_y
_atom_site_fract_z
O1	O	1.196365	0.108214	0.117705
O2	O	1.696365	0.608214	0.617705
O3	O	0.933906	0.108237	0.131726
O4	O	1.433906	0.608237	0.631726
O5	O	1.072146	0.108212	-0.006514
O6	O	1.572146	0.608212	0.493486
O7	O	1.058126	0.108238	0.255945
O8	O	1.558126	0.608238	0.755945
O9	O	1.072134	-0.108388	-0.006520
O10	O	1.572134	0.391612	0.493480
O11	O	0.933894	-0.108364	0.131720
O12	O	1.433894	0.391636	0.631720
O13	O	1.196353	-0.108387	0.117699
O14	O	1.696353	0.391613	0.617699
Cu15	Cu	1.065123	-0.128153	0.124709
Cu16	Cu	1.565123	0.371847	0.624709
Cu17	Cu	1.065137	0.128003	0.124716
Cu18	Cu	1.565137	0.628003	0.624716
O19	O	1.058114	-0.108362	0.255939
O20	O	1.558114	0.391638	0.755939
C21	C	0.900311	-0.000061	0.131088
C22	C	1.400311	0.499939	0.631088
C23	C	0.800228	-0.000053	0.129184
C24	C	1.300228	0.499947	0.629184
N25	N	1.065119	-0.308319	0.124704
N26	N	1.565119	0.191681	0.624704
C27	C	0.387693	-0.000091	0.039019
C28	C	0.887693	0.499909	0.539019
C29	C	0.366413	-0.000073	0.203251
C30	C	0.866413	0.499927	0.703251
C31	C	0.460447	-0.000069	0.205041
C32	C	0.960447	0.499931	0.705041
C33	C	0.518108	-0.000073	0.123819
C34	C	1.018108	0.499927	0.623819
C35	C	0.481736	-0.000082	0.040806
C36	C	0.981736	0.499918	0.540806
C37	C	0.496826	-0.000046	0.288053
C38	C	0.996826	0.499954	0.788053
C39	C	0.590866	-0.000041	0.289846
C40	C	1.090866	0.499959	0.789846
C41	C	0.648529	-0.000055	0.208622
C42	C	1.148529	0.499945	0.708622
C43	C	0.612151	-0.000065	0.125606
C44	C	1.112151	0.499935	0.625606
C45	C	0.669813	-0.000070	0.044384
C46	C	1.169813	0.499930	0.544384
C47	C	0.633437	-0.000090	-0.038633
C48	C	1.133437	0.499910	0.461367
C49	C	0.539399	-0.000096	-0.040417
C50	C	1.039399	0.499904	0.459583
C51	C	0.742566	-0.000048	0.210407
C52	C	1.242566	0.499952	0.710407
C53	C	0.763855	-0.000062	0.046172
C54	C	1.263855	0.499938	0.546172
C55	C	1.065132	-0.573989	0.124714
C56	C	1.565132	-0.073989	0.624714
C57	C	1.065122	-0.426151	0.124711
C58	C	1.565122	0.073849	0.624711
C59	C	1.229948	-0.000086	0.118337
C60	C	1.729948	0.499914	0.618337
C61	C	1.330032	-0.000086	0.120241
C62	C	1.830032	0.499914	0.620241
C63	C	1.071504	-0.000088	-0.040106
C64	C	1.571504	0.499912	0.459894
C65	C	1.069600	-0.000090	-0.140189
C66	C	1.569600	0.499910	0.359811
N67	N	1.065147	0.308169	0.124714
N68	N	1.565147	0.808169	0.624714
C69	C	0.986589	-0.000085	-0.176566
C70	C	1.486589	0.499915	0.323434
C71	C	1.150822	-0.000085	-0.197855
C72	C	1.650822	0.499915	0.302145
C73	C	1.149035	-0.000079	-0.291890
C74	C	1.649035	0.499921	0.208110
C75	C	1.066024	-0.000074	-0.328266
C76	C	1.566024	0.499926	0.171734
C77	C	0.984800	-0.000075	-0.270608
C78	C	1.484800	0.499925	0.229392
C79	C	1.230258	-0.000065	-0.349554
C80	C	1.730258	0.499935	0.150446
C81	C	1.228475	-0.000058	-0.443594
C82	C	1.728475	0.499942	0.056406
C83	C	1.145463	-0.000062	-0.479972
C84	C	1.645463	0.499938	0.020028
C85	C	1.064235	-0.000064	-0.422309
C86	C	1.564235	0.499936	0.077691
C87	C	0.981224	-0.000060	-0.458685
C88	C	1.481224	0.499940	0.041315
C89	C	0.899996	-0.000071	-0.401023
C90	C	1.399996	0.499929	0.098977
C91	C	0.901788	-0.000079	-0.306987
C92	C	1.401788	0.499921	0.193013
C93	C	1.143670	-0.000054	-0.574009
C94	C	1.643670	0.499946	-0.074009
C95	C	0.979435	-0.000050	-0.552728
C96	C	1.479435	0.499950	-0.052728
C97	C	1.058755	-0.000059	0.289531
C98	C	1.558755	0.499941	0.789531
C99	C	1.060660	-0.000049	0.389615
C100	C	1.560660	0.499951	0.889615
H101	H	0.810798	-0.000071	-0.019971
H102	H	1.310798	0.499929	0.480029
H103	H	0.620474	-0.000024	0.357443
H104	H	1.120474	0.499976	0.857443
H105	H	0.772179	-0.000034	0.277998
H106	H	1.272179	0.499966	0.777998
Cl107	Cl	0.493663	-0.000113	-0.144771
Cl108	Cl	0.993663	0.499887	0.355229
H109	H	0.911837	-0.000058	-0.582338
H110	H	1.411837	0.499942	-0.082338
Cl111	Cl	0.705936	-0.000086	-0.140737
Cl112	Cl	1.205936	0.499914	0.359263
Cl113	Cl	0.799682	-0.000082	-0.234493
Cl114	Cl	1.299682	0.499918	0.265507
Cl115	Cl	0.795643	-0.000049	-0.446765
Cl116	Cl	1.295643	0.499951	0.053235
H117	H	0.920455	-0.000099	-0.129613
H118	H	1.420455	0.499901	0.370387
Cl119	Cl	1.330589	-0.000052	-0.516075
Cl120	Cl	1.830589	0.499948	-0.016075
Cl121	Cl	1.245777	-0.000026	-0.646493
Cl122	Cl	1.745777	0.499974	-0.146493
H123	H	1.218405	-0.000115	-0.168231
H124	H	1.718405	0.499885	0.331769
Cl125	Cl	0.341966	-0.000122	-0.065340
Cl126	Cl	0.841966	0.499878	0.434660
H127	H	1.297841	-0.000149	-0.319929
H128	H	1.797841	0.499851	0.180071
H129	H	0.319460	-0.000058	0.269379
H130	H	0.819460	0.499942	0.769379
H131	H	0.449872	-0.000029	0.354179
H132	H	0.949872	0.499971	0.854179
