data_functionalizedCrystal
_audit_creation_method	'MofGen! by Chris Wilmer'
_symmetry_space_group_name_H-M	'P1'
_symmetry_Int_Tables_number	1
_symmetry_cell_setting	triclinic
loop_
_symmetry_equiv_pos_as_xyz
  x,y,z
_cell_length_a	19.288864
_cell_length_b	19.188930
_cell_length_c	18.366186
_cell_angle_alpha	89.993572
_cell_angle_beta	89.979684
_cell_angle_gamma	83.140512
loop_
_atom_site_label
_atom_site_type_symbol
_atom_site_fract_x
_atom_site_fract_y
_atom_site_fract_z
O1	O	0.921357	0.087094	-0.060791
O2	O	1.254691	0.420428	0.272542
O3	O	1.588024	0.753761	0.605875
O4	O	0.719097	0.098844	-0.060743
O5	O	1.052431	0.432177	0.272591
O6	O	1.385764	0.765511	0.605924
O7	O	0.826064	-0.008687	-0.060754
O8	O	1.159397	0.324646	0.272579
O9	O	1.492731	0.657980	0.605913
O10	O	0.814391	0.194625	-0.060780
O11	O	1.147724	0.527959	0.272554
O12	O	1.481057	0.861292	0.605887
O13	O	0.826050	-0.008683	0.060345
O14	O	1.159383	0.324651	0.393679
O15	O	1.492717	0.657984	0.727012
O16	O	0.719083	0.098848	0.060357
O17	O	1.052417	0.432181	0.393690
O18	O	1.385750	0.765515	0.727023
O19	O	0.921343	0.087099	0.060308
O20	O	1.254677	0.420432	0.393641
O21	O	1.588010	0.753765	0.726975
Zn22	Zn	0.820211	0.092974	0.079560
Zn23	Zn	1.153544	0.426307	0.412893
Zn24	Zn	1.486878	0.759641	0.746226
Zn25	Zn	0.820230	0.092968	-0.079994
Zn26	Zn	1.153563	0.426302	0.253339
Zn27	Zn	1.486896	0.759635	0.586673
O28	O	0.814377	0.194629	0.060320
O29	O	1.147710	0.527963	0.393653
O30	O	1.481043	0.861296	0.726986
C31	C	0.693214	0.098468	-0.000186
C32	C	1.026547	0.431801	0.333147
C33	C	1.359881	0.765135	0.666480
C34	C	0.616110	0.097333	-0.000167
C35	C	0.949444	0.430666	0.333166
C36	C	1.282777	0.764000	0.666499
C37	C	0.571419	0.160427	-0.000187
C38	C	0.904752	0.493761	0.333147
C39	C	1.238085	0.827094	0.666480
C40	C	0.498972	0.159361	-0.000195
C41	C	0.832305	0.492694	0.333139
C42	C	1.165638	0.826028	0.666472
C43	C	0.471219	0.095197	-0.000198
C44	C	0.804553	0.428530	0.333136
C45	C	1.137886	0.761864	0.666469
C46	C	0.515921	0.032095	-0.000174
C47	C	0.849254	0.365428	0.333159
C48	C	1.182587	0.698761	0.666493
C49	C	0.588366	0.033163	-0.000159
C50	C	0.921700	0.366496	0.333174
C51	C	1.255033	0.699829	0.666508
C52	C	0.362958	0.044756	-0.042642
C53	C	0.696292	0.378089	0.290691
C54	C	1.029625	0.711422	0.624024
C55	C	0.290514	0.043690	-0.042662
C56	C	0.623847	0.377024	0.290671
C57	C	0.957180	0.710357	0.624005
C58	C	0.247773	0.091900	-0.000241
C59	C	0.581107	0.425234	0.333092
C60	C	0.914440	0.758567	0.666425
C61	C	0.277485	0.141188	0.042190
C62	C	0.610818	0.474521	0.375523
C63	C	0.944152	0.807854	0.708856
C64	C	0.349930	0.142256	0.042205
C65	C	0.683264	0.475589	0.375538
C66	C	1.016597	0.808922	0.708872
C67	C	0.392665	0.094032	-0.000214
C68	C	0.725998	0.427365	0.333120
C69	C	1.059332	0.760699	0.666453
C70	C	0.124526	0.153843	-0.000268
C71	C	0.457859	0.487176	0.333065
C72	C	0.791192	0.820510	0.666398
C73	C	0.052078	0.152774	-0.000272
C74	C	0.385411	0.486107	0.333062
C75	C	0.718744	0.819441	0.666395
C76	C	0.069028	0.025506	-0.000259
C77	C	0.402362	0.358839	0.333075
C78	C	0.735695	0.692172	0.666408
C79	C	0.141475	0.026576	-0.000248
C80	C	0.474808	0.359910	0.333085
C81	C	0.808142	0.693243	0.666419
C82	C	0.169219	0.090747	-0.000256
C83	C	0.502552	0.424080	0.333077
C84	C	0.835886	0.757414	0.666410
C85	C	0.825679	-0.034696	-0.000202
C86	C	1.159012	0.298638	0.333131
C87	C	1.492346	0.631971	0.666464
C88	C	0.824544	-0.112200	-0.000196
C89	C	1.157878	0.221133	0.333138
C90	C	1.491211	0.554466	0.666471
C91	C	0.887309	-0.157129	-0.000207
C92	C	1.220642	0.176204	0.333126
C93	C	1.553975	0.509538	0.666459
C94	C	0.886243	-0.229953	-0.000219
C95	C	1.219576	0.103381	0.333115
C96	C	1.552909	0.436714	0.666448
C97	C	0.822408	-0.257844	-0.000204
C98	C	1.155742	0.075489	0.333129
C99	C	1.489075	0.408822	0.666463
C100	C	0.759636	-0.212906	-0.000196
C101	C	1.092969	0.120427	0.333137
C102	C	1.426302	0.453761	0.666470
C103	C	0.760704	-0.140084	-0.000192
C104	C	1.094037	0.193250	0.333141
C105	C	1.427370	0.526583	0.666474
N106	N	0.773610	-0.365844	0.041020
N107	N	1.106943	-0.032511	0.374354
N108	N	1.440277	0.300822	0.707687
N109	N	0.772600	-0.435023	0.041018
N110	N	1.105933	-0.101689	0.374351
N111	N	1.439267	0.231644	0.707685
C112	C	0.819187	-0.477253	-0.000218
C113	C	1.152520	-0.143919	0.333116
C114	C	1.485854	0.189414	0.666449
N115	N	0.866833	-0.447692	-0.041442
N116	N	1.200167	-0.114359	0.291891
N117	N	1.533500	0.218974	0.625225
N118	N	0.867846	-0.378508	-0.041436
N119	N	1.201179	-0.045174	0.291897
N120	N	1.534512	0.288159	0.625230
C121	C	0.821243	-0.336807	-0.000209
C122	C	1.154577	-0.003474	0.333125
C123	C	1.487910	0.329860	0.666458
C124	C	0.880800	-0.601146	-0.000243
C125	C	1.214133	-0.267813	0.333090
C126	C	1.547467	0.065521	0.666424
C127	C	0.879731	-0.673971	-0.000259
C128	C	1.213065	-0.340637	0.333075
C129	C	1.546398	-0.007304	0.666408
C130	C	0.753122	-0.656922	-0.000229
C131	C	1.086456	-0.323589	0.333104
C132	C	1.419789	0.009745	0.666438
C133	C	0.754193	-0.584099	-0.000220
C134	C	1.087526	-0.250766	0.333113
C135	C	1.420860	0.082568	0.666446
C136	C	0.818034	-0.556216	-0.000224
C137	C	1.151367	-0.222882	0.333109
C138	C	1.484700	0.110451	0.666443
C139	C	0.947227	0.087475	-0.000250
C140	C	1.280560	0.420808	0.333084
C141	C	1.613893	0.754141	0.666417
C142	C	1.024330	0.088609	-0.000274
C143	C	1.357664	0.421943	0.333060
C144	C	1.690997	0.755276	0.666393
C145	C	0.814762	0.220638	-0.000234
C146	C	1.148095	0.553972	0.333100
C147	C	1.481428	0.887305	0.666433
C148	C	0.815896	0.298143	-0.000245
C149	C	1.149230	0.631476	0.333088
C150	C	1.482563	0.964809	0.666422
N151	N	0.820203	0.092977	0.188451
N152	N	1.153537	0.426311	0.521784
N153	N	1.486870	0.759644	0.855117
C154	C	0.862236	0.135196	0.772984
C155	C	1.195570	0.468529	1.106317
C156	C	1.528903	0.801863	1.439651
C157	C	0.862229	0.135203	0.696756
C158	C	1.195563	0.468536	1.030090
C159	C	1.528896	0.801869	1.363423
C160	C	0.820234	0.092964	0.658662
C161	C	1.153568	0.426297	0.991995
C162	C	1.486901	0.759631	1.325329
C163	C	0.778230	0.050729	0.696802
C164	C	1.111563	0.384062	1.030135
C165	C	1.444897	0.717396	1.363469
C166	C	0.778233	0.050729	0.773028
C167	C	1.111566	0.384062	1.106362
C168	C	1.444900	0.717396	1.439695
C169	C	0.818503	0.030013	0.537905
C170	C	1.151837	0.363347	0.871238
C171	C	1.485170	0.696680	1.204572
C172	C	0.818505	0.030012	0.461680
C173	C	1.151838	0.363345	0.795013
C174	C	1.485172	0.696679	1.128347
C175	C	0.820221	0.092965	0.423555
C176	C	1.153555	0.426298	0.756888
C177	C	1.486888	0.759631	1.090221
C178	C	0.821950	0.155920	0.461663
C179	C	1.155283	0.489253	0.794997
C180	C	1.488616	0.822587	1.128330
C181	C	0.821953	0.155920	0.537890
C182	C	1.155286	0.489253	0.871223
C183	C	1.488619	0.822587	1.204556
C184	C	0.820226	0.092960	0.576007
C185	C	1.153560	0.426293	0.909341
C186	C	1.486893	0.759626	1.242674
C187	C	0.862212	0.135208	0.302769
C188	C	1.195545	0.468541	0.636102
C189	C	1.528878	0.801874	0.969435
C190	C	0.862200	0.135216	0.226540
C191	C	1.195533	0.468549	0.559873
C192	C	1.528866	0.801882	0.893206
C193	C	0.778204	0.050736	0.226587
C194	C	1.111538	0.384069	0.559920
C195	C	1.444871	0.717402	0.893254
C196	C	0.778212	0.050734	0.302815
C197	C	1.111546	0.384067	0.636148
C198	C	1.444879	0.717401	0.969481
C199	C	0.820220	0.092969	0.340901
C200	C	1.153553	0.426302	0.674234
C201	C	1.486886	0.759636	1.007568
N202	N	0.820240	0.092964	0.811115
N203	N	1.153574	0.426297	1.144448
N204	N	1.486907	0.759631	1.477781
H205	H	0.374119	0.182385	0.076756
H206	H	0.707452	0.515718	0.410089
H207	H	1.040785	0.849052	0.743423
H208	H	0.177864	-0.024802	-0.000236
H209	H	0.511197	0.308531	0.333097
H210	H	0.844531	0.641865	0.666431
H211	H	0.744034	0.016338	0.804074
H212	H	1.077367	0.349671	1.137408
H213	H	1.410700	0.683004	1.470741
H214	H	0.896413	0.169601	0.333780
H215	H	1.229747	0.502934	0.667114
H216	H	1.563080	0.836268	1.000447
O217	O	0.003871	0.220831	-0.000285
O218	O	0.337205	0.554164	0.333049
O219	O	0.670538	0.887497	0.666382
H220	H	-0.029522	0.223382	-0.049644
H221	H	0.303811	0.556716	0.283689
H222	H	0.637145	0.890049	0.617023
H223	H	0.896427	0.169596	0.665704
H224	H	1.229760	0.502930	0.999037
H225	H	1.563093	0.836263	1.332371
O226	O	0.039108	-0.043703	-0.000262
O227	O	0.372441	0.289630	0.333071
O228	O	0.705775	0.622963	0.666404
H229	H	-0.018777	-0.033847	-0.000280
H230	H	0.314556	0.299486	0.333054
H231	H	0.647890	0.632819	0.666387
H232	H	0.939293	-0.134431	-0.000213
H233	H	1.272626	0.198902	0.333121
H234	H	1.605960	0.532235	0.666454
O235	O	0.823816	0.223815	0.578994
O236	O	1.157150	0.557149	0.912328
O237	O	1.490483	0.890482	1.245661
H238	H	0.777320	0.260968	0.564387
H239	H	1.110653	0.594301	0.897720
H240	H	1.443987	0.927635	1.231054
O241	O	0.231399	0.193189	0.087953
O242	O	0.564733	0.526522	0.421287
O243	O	0.898066	0.859856	0.754620
H244	H	0.176033	0.184162	0.080825
H245	H	0.509366	0.517495	0.414158
H246	H	0.842699	0.850829	0.747492
O247	O	0.947434	-0.722430	-0.000274
O248	O	1.280767	-0.389097	0.333059
O249	O	1.614100	-0.055764	0.666393
H250	H	0.935968	-0.777754	-0.000286
H251	H	1.269301	-0.444420	0.333047
H252	H	1.602635	-0.111087	0.666381
H253	H	0.147116	0.206094	-0.000264
H254	H	0.480449	0.539428	0.333069
H255	H	0.813783	0.872761	0.666402
H256	H	0.817103	-0.021250	0.430658
H257	H	1.150436	0.312083	0.763991
H258	H	1.483769	0.645416	1.097325
O259	O	0.823793	0.223827	0.420553
O260	O	1.157126	0.557160	0.753887
O261	O	1.490460	0.890493	1.087220
H262	H	0.871186	0.219875	0.385796
H263	H	1.204519	0.553208	0.719129
H264	H	1.537853	0.886542	1.052462
O265	O	0.907537	0.180756	0.814059
O266	O	1.240871	0.514089	1.147392
O267	O	1.574204	0.847423	1.480726
H268	H	0.944973	0.147187	0.848772
H269	H	1.278307	0.480520	1.182106
H270	H	1.611640	0.813853	1.515439
O271	O	0.686494	-0.535637	-0.000189
O272	O	1.019827	-0.202304	0.333144
O273	O	1.353160	0.131029	0.666477
H274	H	0.655933	-0.545522	-0.049536
H275	H	0.989267	-0.212189	0.283798
H276	H	1.322600	0.121145	0.617131
H277	H	0.701147	-0.679631	-0.000221
H278	H	1.034481	-0.346297	0.333113
H279	H	1.367814	-0.012964	0.666446
O280	O	0.258469	-0.009473	-0.088414
O281	O	0.591802	0.323860	0.244919
O282	O	0.925136	0.657193	0.578252
H283	H	0.300360	-0.042830	-0.117895
H284	H	0.633693	0.290504	0.215439
H285	H	0.967027	0.623837	0.548772
O286	O	0.953940	-0.278426	-0.000221
O287	O	1.287274	0.054908	0.333112
O288	O	1.620607	0.388241	0.666445
H289	H	0.998511	-0.246802	-0.000217
H290	H	1.331845	0.086531	0.333116
H291	H	1.665178	0.419865	0.666449
H292	H	0.744018	0.016341	0.333861
H293	H	1.077351	0.349674	0.667195
H294	H	1.410685	0.683007	1.000528
H295	H	0.624755	-0.018218	-0.000144
H296	H	0.958088	0.315115	0.333190
H297	H	1.291422	0.648449	0.666523
H298	H	0.462577	0.210742	-0.000208
H299	H	0.795910	0.544075	0.333125
H300	H	1.129243	0.877408	0.666458
H301	H	0.397753	0.005496	-0.077191
H302	H	0.731086	0.338829	0.256143
H303	H	1.064419	0.672162	0.589476
O304	O	0.732923	0.005168	0.185502
O305	O	1.066256	0.338501	0.518835
O306	O	1.399590	0.671835	0.852169
H307	H	0.695494	0.038731	0.150775
H308	H	1.028827	0.372065	0.484108
H309	H	1.362161	0.705398	0.817442
H310	H	0.709591	-0.103502	-0.000183
H311	H	1.042925	0.229831	0.333151
H312	H	1.376258	0.563165	0.666484
O313	O	0.907493	0.180772	0.185407
O314	O	1.240827	0.514105	0.518740
O315	O	1.574160	0.847439	0.852073
H316	H	0.936705	0.210135	0.224700
H317	H	1.270039	0.543468	0.558033
H318	H	1.603372	0.876801	0.891367
H319	H	0.817099	-0.021253	0.568941
H320	H	1.150433	0.312080	0.902274
H321	H	1.483766	0.645414	1.235607
O322	O	0.732968	0.005135	0.655722
O323	O	1.066302	0.338469	0.989055
O324	O	1.399635	0.671802	1.322388
H325	H	0.740039	0.012212	0.596310
H326	H	1.073372	0.345546	0.929643
H327	H	1.406706	0.678879	1.262977
H328	H	0.493320	-0.020148	-0.000187
H329	H	0.826653	0.313185	0.333147
H330	H	1.159987	0.646518	0.666480
O331	O	0.601345	0.229636	-0.000175
O332	O	0.934678	0.562970	0.333159
O333	O	1.268012	0.896303	0.666492
H334	H	0.558092	0.273331	-0.000179
H335	H	0.891425	0.606664	0.333155
H336	H	1.224759	0.939998	0.666488
H337	H	0.707661	-0.235620	-0.000186
H338	H	1.040995	0.097713	0.333147
H339	H	1.374328	0.431047	0.666481
H340	H	0.932783	-0.578442	-0.000249
H341	H	1.266116	-0.245109	0.333084
H342	H	1.599450	0.088225	0.666418
