data_functionalizedCrystal
_audit_creation_method	'MofGen! by Chris Wilmer'
_symmetry_space_group_name_H-M	'P1'
_symmetry_Int_Tables_number	1
_symmetry_cell_setting	triclinic
loop_
_symmetry_equiv_pos_as_xyz
  x,y,z
_cell_length_a	17.699077
_cell_length_b	16.974813
_cell_length_c	16.176319
_cell_angle_alpha	86.338635
_cell_angle_beta	89.993140
_cell_angle_gamma	83.338069
loop_
_atom_site_label
_atom_site_type_symbol
_atom_site_fract_x
_atom_site_fract_y
_atom_site_fract_z
O1	O	1.004154	0.099970	-0.075422
O2	O	0.783784	0.112984	-0.076297
O3	O	0.900112	-0.008639	-0.068154
O4	O	0.887826	0.221592	-0.083565
O5	O	0.900096	-0.008647	0.069339
O6	O	0.783768	0.112976	0.061197
O7	O	1.004138	0.099962	0.062071
Cu8	Cu	0.893952	0.106468	0.074188
Cu9	Cu	0.893971	0.106478	-0.088414
O10	O	0.887810	0.221585	0.053929
C11	C	0.755579	0.112515	-0.007519
C12	C	0.671560	0.111118	-0.007427
C13	C	0.632083	0.110456	0.067565
C14	C	0.553140	0.109131	0.067655
C15	C	0.513673	0.108474	-0.007249
C16	C	0.553156	0.109134	-0.082248
C17	C	0.632099	0.110453	-0.082336
C18	C	0.234789	0.103813	-0.081893
C19	C	0.155840	0.102496	-0.081799
C20	C	0.155830	0.102491	0.068098
C21	C	0.234772	0.103810	0.068010
C22	C	0.274248	0.104465	-0.006988
C23	C	0.359848	0.105900	-0.007084
C24	C	0.428074	0.107045	-0.007155
C25	C	0.899637	-0.038100	0.002563
C26	C	0.898234	-0.125875	0.008432
C27	C	0.897586	-0.167102	-0.063757
C28	C	0.896264	-0.249575	-0.058239
C29	C	0.895595	-0.290819	0.019469
C30	C	0.896241	-0.249585	0.091664
C31	C	0.897558	-0.167113	0.086145
C32	C	0.891651	-0.537474	0.044011
C33	C	0.890336	-0.619952	0.049525
C34	C	0.890357	-0.619936	-0.100380
C35	C	0.891679	-0.537463	-0.105891
C36	C	0.892321	-0.496236	-0.033696
N37	N	0.894246	-0.375120	0.025111
N38	N	0.893665	-0.411936	-0.039339
C39	C	1.032343	0.100431	-0.006708
C40	C	1.116363	0.101828	-0.006805
C41	C	0.888286	0.251046	-0.016790
C42	C	0.889688	0.338821	-0.022665
N43	N	0.893944	0.106461	0.188554
N44	N	0.893984	0.106478	-0.202779
C45	C	0.945469	0.052629	0.235422
C46	C	0.945473	0.052628	0.321970
C47	C	0.893955	0.106464	0.361647
C48	C	0.842424	0.160299	0.314772
C49	C	0.842417	0.160296	0.228227
C50	C	0.842450	0.160314	0.663799
C51	C	0.842462	0.160315	0.750351
C52	C	0.945506	0.052646	0.757542
C53	C	0.945499	0.052643	0.670997
C54	C	0.893966	0.106475	0.624130
C55	C	0.893961	0.106474	0.530286
C56	C	0.893962	0.106469	0.455489
H57	H	0.266921	0.104344	-0.142961
H58	H	0.800507	0.204157	0.782654
O59	O	0.995508	0.000396	0.632347
C60	C	1.042148	0.042568	0.579331
H61	H	1.043544	0.104900	0.601231
H62	H	1.018335	0.046813	0.513512
C63	C	1.121664	-0.077856	0.553850
C64	C	1.123383	-0.001301	0.580752
H65	H	1.171772	-0.104918	0.554723
H66	H	1.090240	-0.106270	0.589566
H67	H	1.101816	-0.074308	0.499004
H68	H	1.143222	-0.004850	0.635601
H69	H	1.154813	0.027111	0.545046
O70	O	0.117467	0.101702	0.140942
C71	C	0.080439	0.032493	0.150057
H72	H	0.110277	-0.014952	0.110701
H73	H	0.018655	0.046968	0.128956
C74	C	0.046496	0.059705	0.290019
C75	C	0.083148	0.001429	0.241687
H76	H	0.048164	0.040545	0.346541
H77	H	0.071440	0.106335	0.283878
H78	H	-0.004987	0.071762	0.272425
H79	H	0.134632	-0.010619	0.259274
H80	H	0.058213	-0.045203	0.247833
H81	H	0.895692	-0.283172	0.154936
H82	H	0.266901	0.104349	0.129004
H83	H	0.892224	-0.503888	-0.169170
H84	H	0.892189	-0.503918	0.102798
O85	O	0.514767	0.108637	-0.154998
C86	C	0.460446	0.176319	-0.164002
H87	H	0.478191	0.224558	-0.124700
H88	H	0.402569	0.159844	-0.142761
C89	C	0.433524	0.148096	-0.303894
C90	C	0.455323	0.207346	-0.255628
H91	H	0.430361	0.167233	-0.360414
H92	H	0.470120	0.102495	-0.297828
H93	H	0.385296	0.134372	-0.286184
H94	H	0.503554	0.221062	-0.273332
H95	H	0.418735	0.252950	-0.261700
H96	H	0.889788	-0.653530	0.112807
O97	O	0.995397	0.000267	0.196816
C98	C	0.954887	-0.048472	0.150075
H99	H	0.895645	-0.016872	0.134984
H100	H	0.949773	-0.106878	0.187380
C101	C	1.070330	-0.104315	0.087544
C102	C	0.997571	-0.065500	0.069003
H103	H	1.096661	-0.114822	0.037536
H104	H	1.097624	-0.071480	0.119036
H105	H	1.066059	-0.152982	0.118633
H106	H	1.001844	-0.016829	0.037923
H107	H	0.970279	-0.098326	0.037503
O108	O	0.995527	0.000236	0.802989
C109	C	0.983295	-0.078021	0.787102
H110	H	0.954119	-0.077883	0.724260
H111	H	0.945651	-0.102423	0.837452
C112	C	1.096030	-0.130898	0.863804
C113	C	1.060201	-0.130729	0.786617
H114	H	1.143468	-0.163412	0.863509
H115	H	1.104270	-0.078175	0.874510
H116	H	1.064652	-0.151231	0.905755
H117	H	1.091575	-0.110387	0.744670
H118	H	1.051968	-0.183451	0.775904
H119	H	0.898075	-0.133545	0.144930
O120	O	0.895703	-0.289511	-0.128446
C121	C	0.896578	-0.235423	-0.198216
H122	H	0.921437	-0.179946	-0.179938
H123	H	0.836041	-0.218256	-0.222451
C124	C	0.915199	-0.342611	-0.288831
C125	C	0.945737	-0.274475	-0.266383
H126	H	0.945519	-0.366700	-0.330882
H127	H	0.914606	-0.379051	-0.241826
H128	H	0.864752	-0.328295	-0.309021
H129	H	0.996179	-0.288793	-0.246183
H130	H	0.946339	-0.238038	-0.313386
H131	H	0.987429	0.008793	0.360130
O132	O	0.792368	0.212685	0.618403
C133	C	0.746890	0.260189	0.671986
H134	H	0.777928	0.261041	0.733611
H135	H	0.690698	0.234589	0.682924
C136	C	0.693072	0.344463	0.556804
C137	C	0.731196	0.345516	0.632492
H138	H	0.683387	0.397096	0.532442
H139	H	0.723708	0.312457	0.520704
H140	H	0.646249	0.323126	0.565930
H141	H	0.778021	0.366843	0.623364
H142	H	0.700566	0.377527	0.668590
O143	O	0.117623	0.101820	-0.154637
C144	C	0.169390	0.102701	-0.220853
H145	H	0.228823	0.078615	-0.197272
H146	H	0.169779	0.166250	-0.248159
C147	C	0.072132	0.079935	-0.317116
C148	C	0.145127	0.050346	-0.288155
H149	H	0.057164	0.047643	-0.358633
H150	H	0.037254	0.079344	-0.272507
H151	H	0.072465	0.132892	-0.339865
H152	H	0.144790	-0.002606	-0.265397
H153	H	0.180004	0.050926	-0.332763
H154	H	0.800473	0.204131	0.347082
O155	O	0.889741	-0.659863	-0.170587
C156	C	0.890581	-0.605770	-0.240357
H157	H	0.915488	-0.550312	-0.222103
H158	H	0.830027	-0.588569	-0.264527
C159	C	0.909061	-0.712947	-0.330996
C160	C	0.939658	-0.644835	-0.308578
H161	H	0.939330	-0.737045	-0.373080
H162	H	0.908492	-0.749391	-0.283992
H163	H	0.858599	-0.698604	-0.351133
H164	H	0.990114	-0.659181	-0.288432
H165	H	0.940236	-0.608394	-0.355581
O166	O	0.670498	0.110960	-0.155155
C167	C	0.724822	0.043279	-0.155101
H168	H	0.707072	-0.004965	-0.109339
H169	H	0.782695	0.059754	-0.136069
C170	C	0.751764	0.071520	-0.298775
C171	C	0.729960	0.012262	-0.242574
H172	H	0.754936	0.052388	-0.352733
H173	H	0.715167	0.117119	-0.298811
H174	H	0.799989	0.085243	-0.282905
H175	H	0.681731	-0.001453	-0.258439
H176	H	0.766549	-0.033341	-0.242543
H177	H	0.800459	0.204131	0.190067
H178	H	0.898135	-0.133528	-0.127036
H179	H	0.521003	0.108578	0.128723
O180	O	0.670305	0.111056	0.140406
C181	C	0.618527	0.110205	0.206613
H182	H	0.565417	0.084244	0.186376
H183	H	0.602119	0.173473	0.225426
C184	C	0.721106	0.090765	0.305715
C185	C	0.655878	0.058873	0.280861
H186	H	0.744146	0.059104	0.351516
H187	H	0.755990	0.091341	0.261110
H188	H	0.707423	0.143487	0.321386
H189	H	0.669563	0.006156	0.265180
H190	H	0.620997	0.058287	0.325465
