data_functionalizedCrystal
_audit_creation_method	'MofGen! by Chris Wilmer'
_symmetry_space_group_name_H-M	'P1'
_symmetry_Int_Tables_number	1
_symmetry_cell_setting	triclinic
loop_
_symmetry_equiv_pos_as_xyz
  x,y,z
_cell_length_a	19.288864
_cell_length_b	10.489741
_cell_length_c	18.366186
_cell_angle_alpha	89.994090
_cell_angle_beta	89.977106
_cell_angle_gamma	83.837710
loop_
_atom_site_label
_atom_site_type_symbol
_atom_site_fract_x
_atom_site_fract_y
_atom_site_fract_z
O1	O	0.922420	0.159110	-0.060783
O2	O	0.720303	0.180573	-0.060733
O3	O	0.825960	-0.015860	-0.060755
O4	O	0.816762	0.355543	-0.060761
O5	O	0.825942	-0.015870	0.060344
O6	O	0.720285	0.180564	0.060366
O7	O	0.922402	0.159100	0.060316
Zn8	Zn	0.821340	0.169830	0.079568
Zn9	Zn	0.821364	0.169843	-0.079985
O10	O	0.816744	0.355534	0.060338
C11	C	0.694413	0.179878	-0.000177
C12	C	0.617295	0.177805	-0.000158
C13	C	0.573372	0.293063	-0.000171
C14	C	0.500912	0.291115	-0.000179
C15	C	0.472378	0.173903	-0.000189
C16	C	0.516311	0.058629	-0.000171
C17	C	0.588770	0.060580	-0.000156
C18	C	0.363505	0.081764	-0.042638
C19	C	0.291047	0.079818	-0.042658
C20	C	0.248892	0.167880	-0.000233
C21	C	0.279202	0.257911	0.042203
C22	C	0.351661	0.259862	0.042218
C23	C	0.393810	0.171774	-0.000205
C24	C	0.126399	0.281035	-0.000254
C25	C	0.053938	0.279082	-0.000257
C26	C	0.069339	0.046593	-0.000256
C27	C	0.141798	0.048549	-0.000245
C28	C	0.170324	0.165773	-0.000248
C29	C	0.825257	-0.063381	-0.000205
C30	C	0.823178	-0.204964	-0.000206
C31	C	0.755951	-0.271583	-0.000195
C32	C	0.787700	-0.364429	0.059505
C33	C	0.787734	-0.364394	-0.059889
C34	C	0.854954	-0.295944	0.059543
C35	C	0.854979	-0.295900	-0.059905
C36	C	0.886776	-0.388719	-0.000190
C37	C	0.948292	0.159796	-0.000241
C38	C	1.025409	0.161869	-0.000265
C39	C	0.817448	0.403055	-0.000213
C40	C	0.819526	0.544637	-0.000217
N41	N	0.821329	0.169821	0.188460
N42	N	0.821381	0.169842	-0.188876
C43	C	0.868130	0.082883	0.226550
C44	C	0.868134	0.082877	0.302778
C45	C	0.821344	0.169831	0.340912
C46	C	0.774535	0.256776	0.302812
C47	C	0.774527	0.256771	0.226586
C48	C	0.812826	0.286045	0.461672
C49	C	0.812838	0.286052	0.537897
C50	C	0.821364	0.169847	0.576020
C51	C	0.829893	0.053631	0.537908
C52	C	0.829885	0.053626	0.461682
C53	C	0.821347	0.169846	0.423567
C54	C	0.868172	0.082896	0.696766
C55	C	0.868172	0.082888	0.772995
C56	C	0.774576	0.256799	0.773027
C57	C	0.774573	0.256795	0.696800
C58	C	0.821375	0.169845	0.658673
H59	H	0.244881	0.329619	0.076750
H60	H	0.906281	0.012086	0.804009
C61	C	0.430921	0.294884	0.139153
C62	C	0.384981	0.358803	0.088869
H63	H	0.451493	0.355966	0.167952
H64	H	0.406044	0.242635	0.169728
H65	H	0.466389	0.242717	0.113878
H66	H	0.349509	0.410963	0.114144
H67	H	0.409859	0.411075	0.058290
H68	H	0.149625	0.376486	-0.000245
H69	H	0.493075	-0.036806	-0.000189
H70	H	0.759288	-0.394711	-0.110366
H71	H	0.596592	0.388516	-0.000175
C72	C	0.045997	0.509081	-0.000275
C73	C	0.005653	0.405785	-0.000272
H74	H	0.016186	0.587301	-0.000289
H75	H	0.074555	0.505011	0.041957
H76	H	0.074603	0.504992	-0.042503
H77	H	-0.022949	0.409868	0.041959
H78	H	-0.022916	0.409856	-0.042509
C79	C	0.177268	-0.148993	-0.062500
C80	C	0.190085	-0.078148	-0.000242
H81	H	0.207082	-0.227210	-0.062497
H82	H	0.130037	-0.166927	-0.062504
H83	H	0.186006	-0.100892	-0.104722
H84	H	0.181342	-0.126245	0.041980
H85	H	0.237327	-0.060217	-0.000232
H86	H	0.736476	0.327594	0.804076
C87	C	0.960653	-0.089019	0.295097
C88	C	0.919579	-0.012696	0.344659
H89	H	0.992414	-0.148017	0.320953
H90	H	0.931514	-0.134765	0.265386
H91	H	0.985898	-0.036033	0.265348
H92	H	0.894331	-0.065682	0.374405
H93	H	0.948722	0.033053	0.374383
C94	C	0.858063	-0.288976	-0.190520
C95	C	0.893355	-0.254835	-0.128060
H96	H	0.881750	-0.263612	-0.232600
H97	H	0.856654	-0.379199	-0.191253
H98	H	0.811852	-0.247249	-0.190072
H99	H	0.939565	-0.296569	-0.128506
H100	H	0.894772	-0.164594	-0.127328
H101	H	0.046108	-0.048844	-0.000309
H102	H	0.736466	0.327594	0.665784
H103	H	0.836827	-0.041001	0.430655
H104	H	0.266374	0.006515	-0.077214
H105	H	0.883367	-0.265759	0.110072
C106	C	0.706680	-0.039654	-0.000134
C107	C	0.637056	-0.066120	-0.000146
H108	H	0.736490	-0.117875	-0.000125
H109	H	0.715408	0.008422	-0.042360
H110	H	0.715362	0.008425	0.042100
H111	H	0.628373	-0.114191	-0.042383
H112	H	0.628325	-0.114216	0.042084
H113	H	0.942099	-0.439394	-0.000170
H114	H	0.906279	0.012092	0.665722
C115	C	0.367933	-0.094446	-0.126544
C116	C	0.409837	-0.015032	-0.089285
H117	H	0.396537	-0.154193	-0.155344
H118	H	0.342579	-0.139314	-0.092439
H119	H	0.336272	-0.043686	-0.157127
H120	H	0.441495	-0.065791	-0.058697
H121	H	0.435203	0.029840	-0.123394
H122	H	0.736415	0.327568	0.195572
H123	H	0.805898	0.380681	0.568921
C124	C	0.882044	-0.091154	0.141131
C125	C	0.919450	-0.013112	0.184774
H126	H	0.913692	-0.150534	0.115376
H127	H	0.852790	-0.136465	0.170981
H128	H	0.854290	-0.039386	0.107428
H129	H	0.947200	-0.064878	0.218480
H130	H	0.948716	0.032202	0.154921
C131	C	0.680791	-0.345719	0.127569
C132	C	0.749293	-0.405443	0.127658
H133	H	0.657078	-0.371043	0.169640
H134	H	0.681469	-0.255315	0.127838
H135	H	0.657367	-0.370314	0.085171
H136	H	0.772719	-0.380840	0.170053
H137	H	0.748618	-0.495867	0.127396
C138	C	0.465503	0.488656	-0.062459
C139	C	0.452617	0.417813	-0.000203
H140	H	0.435685	0.566868	-0.062476
H141	H	0.512732	0.506600	-0.062442
H142	H	0.456819	0.440549	-0.104682
H143	H	0.461306	0.465916	0.042020
H144	H	0.405377	0.399872	-0.000214
C145	C	0.654678	0.332225	0.326347
C146	C	0.723101	0.352354	0.344728
H147	H	0.622923	0.391225	0.352228
H148	H	0.647978	0.344671	0.275504
H149	H	0.646726	0.247130	0.338854
H150	H	0.731055	0.437447	0.332216
H151	H	0.729804	0.339919	0.395583
C152	C	0.780714	-0.084271	0.623650
C153	C	0.839265	-0.074121	0.579795
H154	H	0.786502	-0.163143	0.649505
H155	H	0.775643	-0.015079	0.657258
H156	H	0.740288	-0.081496	0.593925
H157	H	0.879690	-0.076887	0.609521
H158	H	0.844343	-0.143332	0.546184
C159	C	0.795997	0.515792	0.469317
C160	C	0.803466	0.413789	0.419772
H161	H	0.790225	0.594651	0.443449
H162	H	0.756278	0.508917	0.499064
H163	H	0.836430	0.512995	0.499033
H164	H	0.763030	0.416581	0.390059
H165	H	0.843189	0.420667	0.390013
H166	H	0.700678	-0.220682	-0.000121
