data_functionalizedCrystal
_audit_creation_method	'MofGen! by Chris Wilmer'
_symmetry_space_group_name_H-M	'P1'
_symmetry_Int_Tables_number	1
_symmetry_cell_setting	triclinic
loop_
_symmetry_equiv_pos_as_xyz
  x,y,z
_cell_length_a	6.817900
_cell_length_b	11.102288
_cell_length_c	11.102193
_cell_angle_alpha	91.949012
_cell_angle_beta	108.604059
_cell_angle_gamma	108.605689
loop_
_atom_site_label
_atom_site_type_symbol
_atom_site_fract_x
_atom_site_fract_y
_atom_site_fract_z
V1	V	-4.111515	-0.175848	-0.396258
O2	O	-4.070547	0.008441	-0.388714
O3	O	-4.088292	-0.348668	-0.393548
O4	O	-4.088289	-0.173147	-0.569079
O5	O	-4.070550	-0.168295	-0.211968
V6	V	-4.588618	-0.153805	-0.374215
O7	O	-4.386855	-0.224203	-0.444610
O8	O	-4.763476	-0.105450	-0.325863
O9	O	-4.388634	0.019016	-0.376925
O10	O	-4.746982	-0.338094	-0.381758
O11	O	-4.746979	-0.161358	-0.558505
O12	O	-4.388637	-0.156505	-0.201393
C13	C	-3.938603	-0.390798	-0.387297
C14	C	-4.001070	-0.532081	-0.386233
C15	C	-4.214425	-0.604929	-0.392074
C16	C	-4.273113	-0.737681	-0.391084
C17	C	-3.905067	-0.724722	-0.378407
C18	C	-3.846387	-0.591975	-0.379406
C19	C	-3.938598	-0.166902	-0.611203
C20	C	-4.001058	-0.165837	-0.752485
C21	C	-4.121387	-0.398616	-0.788813
C22	C	-4.210887	-0.514499	-0.873349
C23	C	-4.269573	-0.513492	-1.006095
C24	C	-4.238760	-0.396588	-1.054306
C25	C	-4.149261	-0.280704	-0.969770
C26	C	-4.090574	-0.281724	-0.837022
C27	C	-4.028948	-0.047930	-0.933443
C28	C	-3.970246	-0.048934	-0.800696
C29	C	-3.998135	0.068974	-0.981654
C30	C	-3.908620	0.184861	-0.897117
C31	C	-3.849930	0.183849	-0.764364
C32	C	-3.880746	0.066950	-0.716160
C33	C	-4.201666	0.061139	-0.383173
C34	C	-4.118438	0.202420	-0.384245
C35	C	-4.201670	-0.162755	-0.159263
C36	C	-4.118447	-0.163813	-0.017979
H37	H	-4.446843	-0.796989	-0.395843
C38	C	-4.244060	-0.641283	-0.820750
C39	C	-4.173457	-0.617370	-0.686402
C40	C	-4.203962	-0.734130	-0.637909
H41	H	-4.396067	-0.693103	-0.853968
H42	H	-4.160596	-0.684881	-0.845757
H43	H	-4.256923	-0.573792	-0.661408
H44	H	-4.021451	-0.565570	-0.653151
H45	H	-4.120497	-0.777728	-0.662915
H46	H	-4.355971	-0.785941	-0.671135
H47	H	-4.156044	-0.717920	-0.546750
C48	C	-3.614698	-0.512685	-0.372864
C49	C	-3.513497	-0.418944	-0.263237
C50	C	-3.300087	-0.345869	-0.257181
H51	H	-3.530706	-0.567203	-0.368575
H52	H	-3.622580	-0.472162	-0.447409
H53	H	-3.505602	-0.459464	-0.188711
H54	H	-3.597423	-0.364396	-0.267502
H55	H	-3.307970	-0.305346	-0.331726
H56	H	-3.216116	-0.400398	-0.252896
H57	H	-3.231403	-0.282250	-0.182807
H58	H	-3.779137	-0.773504	-0.372846
C59	C	-4.366619	-0.639438	-1.097673
C60	C	-4.381006	-0.742032	-1.027047
C61	C	-4.470369	-0.858071	-1.111364
H62	H	-4.509797	-0.648121	-1.154383
H63	H	-4.274266	-0.639884	-1.146054
H64	H	-4.473359	-0.741589	-0.978688
H65	H	-4.237858	-0.733393	-0.970340
H66	H	-4.378016	-0.858516	-1.159745
H67	H	-4.613542	-0.866740	-1.168070
H68	H	-4.480124	-0.927694	-1.063456
H69	H	-3.883555	0.280034	-0.936383
H70	H	-4.073576	-0.399447	-0.680725
C71	C	-4.061828	0.070337	-1.125741
C72	C	-4.015746	0.197512	-1.149866
C73	C	-4.074415	0.198821	-1.282584
H74	H	-3.979658	0.031736	-1.158491
H75	H	-4.215082	0.023572	-1.166653
H76	H	-3.862518	0.244258	-1.108970
H77	H	-4.097910	0.236137	-1.117147
H78	H	-4.227670	0.152056	-1.323496
H79	H	-3.992241	0.160215	-1.315322
H80	H	-4.043176	0.285106	-1.298971
H81	H	-3.777066	0.278216	-0.695541
H82	H	-4.340381	-0.556168	-0.397631
H83	H	-4.286577	-0.395779	-1.162397
H84	H	-3.832952	0.066115	-0.608073
