data_functionalizedCrystal
_audit_creation_method	'MofGen! by Chris Wilmer'
_symmetry_space_group_name_H-M	'P1'
_symmetry_Int_Tables_number	1
_symmetry_cell_setting	triclinic
loop_
_symmetry_equiv_pos_as_xyz
  x,y,z
_cell_length_a	21.295411
_cell_length_b	11.169417
_cell_length_c	11.169416
_cell_angle_alpha	89.988973
_cell_angle_beta	89.988389
_cell_angle_gamma	90.021194
loop_
_atom_site_label
_atom_site_type_symbol
_atom_site_fract_x
_atom_site_fract_y
_atom_site_fract_z
Zn1	Zn	-0.355899	-1.834980	-0.477916
Zn2	Zn	-0.250643	-1.834865	-0.678587
Zn3	Zn	-0.250650	-1.634261	-0.477920
Zn4	Zn	-0.355881	-1.634274	-0.678559
O5	O	-0.303268	-1.734595	-0.578245
O6	O	-0.341941	-2.002915	-0.504546
O7	O	-0.162554	-1.808201	-0.651982
O8	O	-0.264622	-1.660930	-0.309970
O9	O	-0.264610	-2.002830	-0.651978
O10	O	-0.341948	-1.808397	-0.309967
O11	O	-0.162560	-1.660818	-0.504552
O12	O	-0.264605	-1.466313	-0.504525
O13	O	-0.443972	-1.660952	-0.651929
O14	O	-0.341917	-1.466323	-0.651933
O15	O	-0.443986	-1.808409	-0.504518
O16	O	-0.264592	-1.808214	-0.846533
O17	O	-0.341910	-1.660840	-0.846512
C18	C	-0.303262	-1.734549	-0.890070
C19	C	-0.303280	-1.734639	-1.023470
C20	C	-0.303260	-1.422770	-0.578227
C21	C	-0.303271	-1.289371	-0.578248
C22	C	-0.467458	-1.734695	-0.578220
C23	C	-0.537426	-1.734737	-0.578209
C24	C	-0.570301	-1.811515	-0.501449
C25	C	-0.636044	-1.811514	-0.501397
C26	C	-0.668909	-1.734747	-0.578127
C27	C	-0.636026	-1.657954	-0.654892
C28	C	-0.570285	-1.657949	-0.654934
N29	N	-0.772134	-1.725524	-0.683118
N30	N	-0.834586	-1.725536	-0.683075
C31	C	-0.866984	-1.734754	-0.578005
N32	N	-0.834571	-1.743984	-0.472976
N33	N	-0.772114	-1.743979	-0.473020
C34	C	-0.740194	-1.734742	-0.578090
C35	C	-0.971144	-1.811534	-0.501181
C36	C	-1.036888	-1.811524	-0.501127
C37	C	-1.036869	-1.657971	-0.654634
C38	C	-0.971127	-1.657974	-0.654677
C39	C	-0.938268	-1.734763	-0.577953
C40	C	-0.139716	-1.734565	-0.578184
C41	C	-0.069749	-1.734755	-0.577857
C42	C	-0.303276	-2.047637	-0.578264
C43	C	-0.303280	-2.181037	-0.578273
C44	C	-0.303288	-1.734675	-0.265203
C45	C	-0.303297	-1.734708	-0.131803
H46	H	-0.662815	-1.874033	-0.438882
O47	O	-0.538375	-1.583500	-0.729682
C48	C	-0.518292	-1.525149	-0.933843
C49	C	-0.554460	-1.609551	-0.849324
H50	H	-0.531293	-1.546164	-1.030590
H51	H	-0.465653	-1.538345	-0.920799
H52	H	-0.531187	-1.428384	-0.912693
H53	H	-0.541617	-1.706348	-0.870422
H54	H	-0.607090	-1.596251	-0.862383
O55	O	-0.939247	-1.885984	-0.426477
C56	C	-0.919148	-1.944340	-0.222347
C57	C	-0.955298	-1.859934	-0.306810
H58	H	-0.932122	-1.923325	-0.125580
H59	H	-0.866506	-1.931147	-0.235467
H60	H	-0.932086	-2.041103	-0.243479
H61	H	-0.942412	-1.763138	-0.285730
H62	H	-1.007931	-1.873230	-0.293674
H63	H	-0.662790	-1.595446	-0.717363
H64	H	-0.543552	-1.874041	-0.438972
H65	H	-1.063653	-1.874044	-0.438613
O66	O	-0.939121	-1.583567	-0.729314
C67	C	-0.864937	-1.567378	-0.891450
C68	C	-0.901132	-1.651786	-0.806981
H69	H	-0.834224	-1.622500	-0.954282
H70	H	-0.834101	-1.504652	-0.836432
H71	H	-0.899730	-1.512483	-0.946227
H72	H	-0.866383	-1.706759	-0.752186
H73	H	-0.931977	-1.714433	-0.862068
O74	O	-1.068884	-1.583520	-0.729141
C75	C	-1.170154	-1.515440	-0.797077
C76	C	-1.133972	-1.599836	-0.712653
H77	H	-1.222784	-1.528584	-0.783758
H78	H	-1.157283	-1.536506	-0.893885
H79	H	-1.157174	-1.418678	-0.776030
H80	H	-1.146933	-1.696626	-0.733592
H81	H	-1.146847	-1.578666	-0.615871
