data_functionalizedCrystal
_audit_creation_method	'MofGen! by Chris Wilmer'
_symmetry_space_group_name_H-M	'P1'
_symmetry_Int_Tables_number	1
_symmetry_cell_setting	triclinic
loop_
_symmetry_equiv_pos_as_xyz
  x,y,z
_cell_length_a	10.654559
_cell_length_b	10.654546
_cell_length_c	13.448316
_cell_angle_alpha	89.992337
_cell_angle_beta	90.005083
_cell_angle_gamma	95.513916
loop_
_atom_site_label
_atom_site_type_symbol
_atom_site_fract_x
_atom_site_fract_y
_atom_site_fract_z
O1	O	-0.176380	1.667853	-0.082710
O2	O	-0.193191	1.302375	-0.082707
O3	O	-0.002047	1.493511	-0.082706
O4	O	-0.367524	1.476717	-0.082711
O5	O	-0.002035	1.493487	0.082678
O6	O	-0.193179	1.302351	0.082677
O7	O	-0.176368	1.667829	0.082674
Cu8	Cu	-0.184772	1.485088	0.097776
Cu9	Cu	-0.184787	1.485116	-0.097809
O10	O	-0.367512	1.476693	0.082672
C11	C	-0.191951	1.255565	-0.000015
C12	C	-0.188261	1.116121	-0.000014
C13	C	-0.186522	1.050640	-0.090169
C14	C	-0.183044	0.919619	-0.090177
C15	C	-0.183041	0.919573	0.090134
C16	C	-0.186528	1.050591	0.090141
C17	C	-0.186518	1.050665	-0.194270
C18	C	-0.183040	0.919645	-0.194278
C19	C	-0.414316	1.477940	-0.000020
C20	C	-0.553758	1.481637	-0.000023
C21	C	-0.605297	1.597649	-0.000027
C22	C	-0.736319	1.601115	-0.000022
C23	C	-0.764254	1.372545	-0.000012
C24	C	-0.633234	1.369081	-0.000010
C25	C	-0.589170	1.729613	-0.000037
C26	C	-0.720192	1.733078	-0.000032
C27	C	0.044757	1.492264	-0.000015
C28	C	0.184200	1.488567	-0.000019
C29	C	-0.177607	1.714639	-0.000021
C30	C	-0.181298	1.854083	-0.000028
N31	N	-0.184762	1.485077	0.235340
N32	N	-0.184787	1.485137	-0.235374
C33	C	-0.100158	1.569738	0.287381
C34	C	-0.100157	1.569746	0.391485
C35	C	-0.184767	1.485097	0.443545
C36	C	-0.269374	1.400426	0.391497
C37	C	-0.269368	1.400413	0.287395
C38	C	-0.269383	1.400461	0.608477
C39	C	-0.269391	1.400475	0.712585
C40	C	-0.100172	1.569794	0.712566
C41	C	-0.100166	1.569781	0.608465
C42	C	-0.184775	1.485111	0.556424
H43	H	-0.097079	1.102390	-0.226563
C44	C	-0.303867	0.849782	-0.237923
C45	C	-0.410986	0.924903	-0.275314
C46	C	-0.531813	0.855037	-0.318950
C47	C	-0.545522	0.710050	-0.325194
C48	C	-0.438400	0.634920	-0.287802
C49	C	-0.317572	0.704786	-0.244166
H50	H	-0.400841	1.032239	-0.270693
H51	H	-0.611112	0.910654	-0.346630
H52	H	-0.634965	0.658331	-0.357496
H53	H	-0.448544	0.527584	-0.292423
H54	H	-0.238274	0.649169	-0.216486
C55	C	-0.768330	1.789856	0.096426
C56	C	-0.674592	1.834937	0.179076
C57	C	-0.722733	1.891712	0.275531
C58	C	-0.864613	1.903408	0.289336
C59	C	-0.958360	1.858326	0.206684
C60	C	-0.910219	1.801550	0.110229
H61	H	-0.569556	1.826280	0.168859
H62	H	-0.653334	1.925085	0.336716
H63	H	-0.900250	1.945437	0.360738
H64	H	-1.063396	1.866983	0.216901
H65	H	-0.979618	1.768178	0.049044
C66	C	-0.759892	1.802797	-0.093531
C67	C	-0.708095	1.940847	-0.111660
C68	C	-0.747797	2.010562	-0.205154
C69	C	-0.839297	1.942226	-0.280519
C70	C	-0.891100	1.804168	-0.262393
C71	C	-0.851397	1.734453	-0.168898
H72	H	-0.640357	1.991441	-0.055868
H73	H	-0.709449	2.112763	-0.218572
H74	H	-0.868687	1.993834	-0.349729
H75	H	-0.958838	1.753575	-0.318184
H76	H	-0.889745	1.632253	-0.155480
C77	C	-0.007099	1.662894	0.551193
C78	C	0.135940	1.659549	0.565512
C79	C	0.229010	1.752659	0.508239
C80	C	0.179040	1.849115	0.436646
C81	C	0.035993	1.852463	0.422323
C82	C	-0.057077	1.759353	0.479596
H83	H	0.172938	1.588144	0.618513
H84	H	0.334903	1.750180	0.518842
H85	H	0.247935	1.918041	0.394249
H86	H	-0.001005	1.923869	0.369323
H87	H	-0.162970	1.761833	0.468993
H88	H	-0.094361	0.894833	-0.234245
C89	C	-0.306318	1.084218	-0.248263
C90	C	-0.328363	1.046617	-0.357894
C91	C	-0.448160	1.080169	-0.411884
C92	C	-0.545912	1.151321	-0.356244
C93	C	-0.523870	1.188926	-0.246606
C94	C	-0.404073	1.155374	-0.192616
H95	H	-0.255998	0.993942	-0.399087
H96	H	-0.464476	1.052331	-0.493045
H97	H	-0.634593	1.176158	-0.396211
H98	H	-0.596235	1.241601	-0.205412
H99	H	-0.387757	1.183212	-0.111455
C100	C	-0.851679	1.248738	-0.000005
C101	C	-0.845177	1.153971	0.085877
C102	C	-0.932598	1.030160	0.085882
C103	C	-1.026523	1.001117	0.000005
C104	C	-1.033029	1.095887	-0.085884
C105	C	-0.945607	1.219698	-0.085889
H106	H	-0.775645	1.175468	0.149455
H107	H	-0.927782	0.960006	0.149463
H108	H	-1.091237	0.909465	0.000008
H109	H	-1.102560	1.074390	-0.149462
H110	H	-0.950424	1.289853	-0.149470
H111	H	-0.338259	1.331472	0.245025
H112	H	-0.031265	1.638675	0.245001
C113	C	-0.576548	1.241462	0.000008
C114	C	-0.606091	1.147663	0.085899
C115	C	-0.549410	1.020036	0.085921
C116	C	-0.463186	0.986208	0.000050
C117	C	-0.433638	1.080010	-0.085847
C118	C	-0.490320	1.207636	-0.085868
H119	H	-0.669924	1.172702	0.149471
H120	H	-0.571283	0.950598	0.149508
H121	H	-0.421227	0.891731	0.000066
H122	H	-0.369806	1.054970	-0.149419
H123	H	-0.468446	1.277074	-0.149456
H124	H	-0.187958	1.103899	0.163554
H125	H	-0.031266	1.638683	0.433856
H126	H	-0.181631	0.866202	0.163534
H127	H	-0.031281	1.638735	0.754944
H128	H	-0.547416	1.779335	0.069170
H129	H	-0.543532	1.769493	-0.071446
H130	H	-0.338287	1.331544	0.754968
H131	H	-0.338276	1.331510	0.566109
H132	H	-0.338260	1.331497	0.433890
