data_functionalizedCrystal
_audit_creation_method	'MofGen! by Chris Wilmer'
_symmetry_space_group_name_H-M	'P1'
_symmetry_Int_Tables_number	1
_symmetry_cell_setting	triclinic
loop_
_symmetry_equiv_pos_as_xyz
  x,y,z
_cell_length_a	18.101395
_cell_length_b	10.686220
_cell_length_c	10.685986
_cell_angle_alpha	99.031303
_cell_angle_beta	85.587711
_cell_angle_gamma	94.412841
loop_
_atom_site_label
_atom_site_type_symbol
_atom_site_fract_x
_atom_site_fract_y
_atom_site_fract_z
Zn1	Zn	-0.184159	1.885434	-0.569024
Zn2	Zn	-0.316858	1.901503	-0.356785
Zn3	Zn	-0.201862	1.689426	-0.373053
Zn4	Zn	-0.316805	1.673101	-0.585229
O5	O	-0.254921	1.787366	-0.471023
O6	O	-0.194375	2.065184	-0.527279
O7	O	-0.309034	1.886928	-0.181324
O8	O	-0.095875	1.715534	-0.399076
O9	O	-0.291868	2.076989	-0.371348
O10	O	-0.082869	1.859541	-0.543054
O11	O	-0.224547	1.731115	-0.193276
O12	O	-0.224496	1.509643	-0.414789
O13	O	-0.291779	1.687710	-0.760698
O14	O	-0.308944	1.497648	-0.570674
O15	O	-0.194324	1.843711	-0.748792
O16	O	-0.420490	1.871098	-0.387062
O17	O	-0.420451	1.703291	-0.554899
C18	C	-0.268636	1.457591	-0.496256
C19	C	-0.274520	1.316510	-0.507081
C20	C	-0.447340	1.787199	-0.470998
C21	C	-0.529651	1.787241	-0.471021
C22	C	-0.828728	1.787514	-0.471068
C23	C	-0.797390	1.682143	-0.576893
C24	C	-0.711804	1.681702	-0.576621
C25	C	-0.680352	1.787378	-0.471046
C26	C	-0.718584	1.761404	-0.340048
C27	C	-0.804231	1.760728	-0.340685
C28	C	-0.790055	1.919163	-0.495048
C29	C	-0.704314	1.918148	-0.498043
C30	C	-0.596497	1.787304	-0.471025
C31	C	-0.912583	1.787585	-0.471081
C32	C	-0.061748	1.787566	-0.471072
C33	C	0.020571	1.787651	-0.471093
C34	C	-0.241071	1.762097	-0.802088
C35	C	-0.235169	1.751329	-0.943168
C36	C	-0.241153	2.118429	-0.445691
C37	C	-0.235286	2.259508	-0.434897
C38	C	-0.268661	1.812610	-0.141240
C39	C	-0.274344	1.823624	-0.000142
H40	H	-0.197196	1.318637	-0.364814
H41	H	-0.312617	1.257374	-0.577160
C42	C	-0.691415	1.862425	-0.231226
N43	N	-0.670948	1.938514	-0.149263
C44	C	-0.676488	1.702048	-0.708281
N45	N	-0.649893	1.717367	-0.807455
C46	C	-0.183762	1.656581	-1.023078
N47	N	-0.145042	1.585215	-1.083276
H48	H	-0.829569	1.664798	-0.319177
C49	C	-0.325753	1.918377	-0.920225
N50	N	-0.364475	1.989742	-0.860031
C51	C	-0.833366	1.550819	-0.556845
N52	N	-0.860463	1.451906	-0.541737
C53	C	-0.818292	1.702147	-0.709011
N54	N	-0.834043	1.717213	-0.808525
H55	H	-0.696469	1.583914	-0.561548
H56	H	-0.825267	1.834701	-0.259701
H57	H	-0.702473	1.666554	-0.317940
H58	H	-0.810254	1.997542	-0.417847
C59	C	-0.811906	1.953847	-0.621172
N60	N	-0.828365	1.979956	-0.716176
C61	C	-0.669696	1.944896	-0.628188
N62	N	-0.643608	1.965048	-0.726205
H63	H	-0.682473	1.999986	-0.425765
