data_functionalizedCrystal
_audit_creation_method	'MofGen! by Chris Wilmer'
_symmetry_space_group_name_H-M	'P1'
_symmetry_Int_Tables_number	1
_symmetry_cell_setting	triclinic
loop_
_symmetry_equiv_pos_as_xyz
  x,y,z
_cell_length_a	17.019311
_cell_length_b	16.098538
_cell_length_c	14.971486
_cell_angle_alpha	92.731634
_cell_angle_beta	96.494255
_cell_angle_gamma	96.609511
loop_
_atom_site_label
_atom_site_type_symbol
_atom_site_fract_x
_atom_site_fract_y
_atom_site_fract_z
O1	O	1.054165	0.144847	-0.105619
O2	O	0.823672	0.128317	-0.121098
O3	O	0.945097	0.137031	0.016883
O4	O	0.932741	0.136133	-0.243600
O5	O	0.938004	-0.001990	0.008854
O6	O	0.816579	-0.010705	-0.129126
O7	O	1.047072	0.005825	-0.113648
Zn8	Zn	0.930699	-0.024512	-0.122662
Zn9	Zn	0.940045	0.158655	-0.112084
O10	O	0.925648	-0.002889	-0.251628
C11	C	0.790628	0.056691	-0.124682
C12	C	0.702735	0.050389	-0.123391
N13	N	0.924327	-0.149519	-0.129881
C14	C	0.205434	0.010942	-0.116337
C15	C	0.288018	0.016865	-0.117550
C16	C	0.333178	0.095610	-0.113774
C17	C	0.295748	0.168435	-0.108793
C18	C	0.213164	0.162510	-0.107586
C19	C	0.582721	0.117289	-0.117204
C20	C	0.665311	0.123208	-0.118408
C21	C	0.657575	-0.028362	-0.127167
C22	C	0.574991	-0.034279	-0.125955
C23	C	0.537567	0.038546	-0.120979
C24	C	0.417593	0.101666	-0.115011
C25	C	0.453153	0.032488	-0.119748
C26	C	0.975884	-0.189404	-0.071337
C27	C	0.971433	-0.276912	-0.076395
C28	C	0.915430	-0.324534	-0.140002
C29	C	0.863868	-0.284643	-0.198549
C30	C	0.868315	-0.197136	-0.193485
C31	C	0.899309	-0.588941	-0.158341
C32	C	0.894867	-0.676453	-0.163402
C33	C	1.002432	-0.668716	-0.041246
C34	C	1.006877	-0.581208	-0.036193
C35	C	0.955313	-0.541325	-0.094736
C36	C	0.910881	-0.413981	-0.145176
C37	C	0.959858	-0.451880	-0.089557
C38	C	1.080116	0.077453	-0.110063
C39	C	1.168009	0.083761	-0.111354
N40	N	0.946423	0.283662	-0.104858
C41	C	0.929747	0.066660	-0.280935
C42	C	0.931402	0.066774	-0.380222
C43	C	0.860069	0.061660	-0.437917
C44	C	0.861630	0.061783	-0.531206
C45	C	0.934525	0.067015	-0.566797
C46	C	1.005864	0.072133	-0.509094
C47	C	1.004303	0.072015	-0.415807
C48	C	1.009114	0.072375	-0.703534
C49	C	1.010676	0.072490	-0.796828
C50	C	0.866441	0.062142	-0.818933
C51	C	0.864880	0.062025	-0.725646
C52	C	0.936219	0.067141	-0.667950
C53	C	0.940998	0.067484	0.046190
C54	C	0.939343	0.067376	0.145476
H55	H	0.168670	-0.053180	-0.119417
H56	H	0.857324	-0.556475	-0.206011
C57	C	0.849253	-0.466366	-0.215112
H58	H	0.819171	-0.430083	-0.249246
H59	H	0.876002	-0.498471	-0.254196
H60	H	0.814545	-0.502856	-0.185023
H61	H	0.332523	0.232550	-0.105723
C62	C	1.037493	-0.137024	-0.001377
H63	H	1.032765	-0.079194	-0.006751
H64	H	1.028118	-0.151988	0.057452
H65	H	1.089610	-0.147566	-0.011683
C66	C	0.811606	-0.153263	-0.257887
H67	H	0.777620	-0.194155	-0.296500
H68	H	0.780356	-0.121501	-0.223893
H69	H	0.841859	-0.117073	-0.293014
C70	C	0.541569	0.197394	-0.111701
H71	H	0.580296	0.245137	-0.109608
H72	H	0.503525	0.197821	-0.163201
H73	H	0.515506	0.198651	-0.058877
C74	C	0.714985	0.209830	-0.114263
H75	H	0.680869	0.252354	-0.111137
H76	H	0.753347	0.215725	-0.062393
H77	H	0.741375	0.214852	-0.166719
H78	H	0.800708	0.057389	-0.408947
H79	H	1.005453	-0.413104	-0.037765
C80	C	0.802240	-0.337022	-0.268490
H81	H	0.772160	-0.300733	-0.302618
H82	H	0.828993	-0.369119	-0.307577
H83	H	0.767529	-0.373519	-0.238411
C84	C	0.783162	0.056147	-0.594668
H85	H	0.739525	0.053002	-0.560111
H86	H	0.783238	0.104456	-0.628716
H87	H	0.778307	0.007491	-0.634321
C88	C	1.028153	-0.320782	-0.012005
H89	H	1.062152	-0.279887	0.026592
H90	H	0.997914	-0.356974	0.023126
H91	H	1.059402	-0.352540	-0.046013
H92	H	0.805522	0.057760	-0.696671
H93	H	1.052480	-0.542436	0.015601
H94	H	0.808354	0.057973	-0.865915
C95	C	0.171994	0.242609	-0.102104
H96	H	0.116341	0.227803	-0.101936
H97	H	0.193098	0.275150	-0.048344
H98	H	0.181132	0.274284	-0.152670
H99	H	0.849260	-0.715223	-0.215202
H100	H	0.416380	-0.031625	-0.122828
H101	H	1.070034	0.076752	-0.825803
C102	C	1.059140	-0.712590	0.023153
H103	H	1.048469	-0.771526	0.011036
H104	H	1.112716	-0.694446	0.014524
H105	H	1.051208	-0.698874	0.083640
C106	C	1.087586	0.078000	-0.640070
H107	H	1.131223	0.081124	-0.674627
H108	H	1.092451	0.126648	-0.600411
H109	H	1.087498	0.029682	-0.606029
H110	H	0.454372	0.165780	-0.111933
H111	H	0.318485	-0.042432	-0.121606
H112	H	0.538229	-0.098401	-0.129011
H113	H	1.065217	0.076391	-0.538080
C114	C	1.082767	0.077642	-0.352338
H115	H	1.071398	0.076832	-0.291682
H116	H	1.110185	0.031309	-0.365885
H117	H	1.115123	0.128274	-0.360281
C118	C	0.698741	-0.108462	-0.132652
H119	H	0.754392	-0.093659	-0.132838
H120	H	0.689603	-0.140146	-0.082099
H121	H	0.677631	-0.140994	-0.186423
