data_functionalizedCrystal
_audit_creation_method	'MofGen! by Chris Wilmer'
_symmetry_space_group_name_H-M	'P1'
_symmetry_Int_Tables_number	1
_symmetry_cell_setting	triclinic
loop_
_symmetry_equiv_pos_as_xyz
  x,y,z
_cell_length_a	16.625547
_cell_length_b	18.050590
_cell_length_c	16.625539
_cell_angle_alpha	89.970044
_cell_angle_beta	89.975178
_cell_angle_gamma	90.018489
loop_
_atom_site_label
_atom_site_type_symbol
_atom_site_fract_x
_atom_site_fract_y
_atom_site_fract_z
Zn1	Zn	1.232702	-0.295659	-0.455992
Zn2	Zn	1.482702	-0.045659	-0.205992
Zn3	Zn	1.732702	0.204341	0.044008
Zn4	Zn	1.982702	0.454341	0.294008
Zn5	Zn	1.232615	-0.419857	-0.321155
Zn6	Zn	1.482615	-0.169857	-0.071155
Zn7	Zn	1.732615	0.080143	0.178845
Zn8	Zn	1.982615	0.330143	0.428845
Zn9	Zn	1.097864	-0.295685	-0.321162
Zn10	Zn	1.347864	-0.045685	-0.071162
Zn11	Zn	1.597864	0.204315	0.178838
Zn12	Zn	1.847864	0.454315	0.428838
Zn13	Zn	1.097844	-0.419812	-0.455935
Zn14	Zn	1.347844	-0.169812	-0.205935
Zn15	Zn	1.597844	0.080188	0.044065
Zn16	Zn	1.847844	0.330188	0.294065
O17	O	1.165256	-0.357753	-0.388561
O18	O	1.415256	-0.107753	-0.138561
O19	O	1.665256	0.142247	0.111439
O20	O	1.915256	0.392247	0.361439
O21	O	1.345523	-0.312142	-0.438126
O22	O	1.595523	-0.062142	-0.188126
O23	O	1.845523	0.187858	0.061874
O24	O	2.095523	0.437858	0.311874
O25	O	1.214712	-0.403415	-0.208323
O26	O	1.464712	-0.153415	0.041677
O27	O	1.714712	0.096585	0.291677
O28	O	1.964712	0.346585	0.541677
O29	O	1.115796	-0.191757	-0.339074
O30	O	1.365796	0.058243	-0.089074
O31	O	1.615796	0.308243	0.160926
O32	O	1.865796	0.558243	0.410926
O33	O	1.345459	-0.403390	-0.339062
O34	O	1.595459	-0.153390	-0.089062
O35	O	1.845459	0.096610	0.160938
O36	O	2.095459	0.346610	0.410938
O37	O	1.214861	-0.191738	-0.438133
O38	O	1.464861	0.058262	-0.188133
O39	O	1.714861	0.308262	0.061867
O40	O	1.964861	0.558262	0.311867
O41	O	1.115711	-0.312186	-0.208329
O42	O	1.365711	-0.062186	0.041671
O43	O	1.615711	0.187814	0.291671
O44	O	1.865711	0.437814	0.541671
O45	O	0.985029	-0.312143	-0.339019
O46	O	1.235029	-0.062143	-0.089019
O47	O	1.485029	0.187857	0.160981
O48	O	1.735029	0.437857	0.410981
O49	O	1.115761	-0.403313	-0.568775
O50	O	1.365761	-0.153313	-0.318775
O51	O	1.615761	0.096687	-0.068775
O52	O	1.865761	0.346687	0.181225
O53	O	0.985014	-0.403338	-0.438036
O54	O	1.235014	-0.153338	-0.188036
O55	O	1.485014	0.096662	0.061964
O56	O	1.735014	0.346662	0.311964
O57	O	1.214841	-0.312099	-0.568817
O58	O	1.464841	-0.062099	-0.318817
O59	O	1.714841	0.187901	-0.068817
O60	O	1.964841	0.437901	0.181183
O61	O	1.214692	-0.523776	-0.339007
O62	O	1.464692	-0.273776	-0.089007
O63	O	1.714692	-0.023776	0.160993
O64	O	1.964692	0.226224	0.410993
O65	O	1.115676	-0.523742	-0.438029
O66	O	1.365676	-0.273742	-0.188029
O67	O	1.615676	-0.023742	0.061971
O68	O	1.865676	0.226258	0.311971
C69	C	0.955766	-0.357739	-0.388523
C70	C	1.205766	-0.107739	-0.138523
C71	C	1.455766	0.142261	0.111477
C72	C	1.705766	0.392261	0.361477
C73	C	0.866144	-0.357751	-0.388526
C74	C	1.116144	-0.107751	-0.138526
C75	C	1.366144	0.142249	0.111474
C76	C	1.616144	0.392249	0.361474
C77	C	0.793362	-0.357752	-0.388536
C78	C	1.043362	-0.107752	-0.138536
C79	C	1.293362	0.142248	0.111464
C80	C	1.543362	0.392248	0.361464
C81	C	0.702054	-0.357756	-0.388556
C82	C	0.952054	-0.107756	-0.138556
C83	C	1.202054	0.142244	0.111444
C84	C	1.452054	0.392244	0.361444
C85	C	0.629277	-0.357763	-0.388576
C86	C	0.879277	-0.107763	-0.138576
C87	C	1.129277	0.142237	0.111424
C88	C	1.379277	0.392237	0.361424
C89	C	0.537963	-0.357768	-0.388596
C90	C	0.787963	-0.107768	-0.138596
C91	C	1.037963	0.142232	0.111404
C92	C	1.287963	0.392232	0.361404
C93	C	1.165194	-0.550705	-0.388529
C94	C	1.415194	-0.300705	-0.138529
C95	C	1.665194	-0.050705	0.111471
C96	C	1.915194	0.199295	0.361471
C97	C	1.165242	-0.633251	-0.388542
C98	C	1.415242	-0.383251	-0.138542
C99	C	1.665242	-0.133251	0.111458
C100	C	1.915242	0.116749	0.361458
C101	C	1.219198	-0.832693	-0.334769
C102	C	1.469198	-0.582693	-0.084769
C103	C	1.719198	-0.332693	0.165231
C104	C	1.969198	-0.082693	0.415231
C105	C	1.238896	-0.882024	-0.408360
C106	C	1.488896	-0.632024	-0.158360
C107	C	1.738896	-0.382024	0.091640
C108	C	1.988896	-0.132024	0.341640
C109	C	1.165287	-0.784382	-0.388574
C110	C	1.415287	-0.534382	-0.138574
C111	C	1.665287	-0.284382	0.111426
C112	C	1.915287	-0.034382	0.361426
C113	C	1.145672	-0.882132	-0.315016
C114	C	1.395672	-0.632132	-0.065016
C115	C	1.645672	-0.382132	0.184984
C116	C	1.895672	-0.132132	0.434984
C117	C	1.165333	-0.930367	-0.388599
C118	C	1.415333	-0.680367	-0.138599
C119	C	1.665333	-0.430367	0.111401
C120	C	1.915333	-0.180367	0.361401
C121	C	1.185022	-0.832625	-0.462204
C122	C	1.435022	-0.582625	-0.212204
C123	C	1.685022	-0.332625	0.037796
C124	C	1.935022	-0.082625	0.287796
C125	C	1.091765	-0.832730	-0.368810
C126	C	1.341765	-0.582730	-0.118810
C127	C	1.591765	-0.332730	0.131190
C128	C	1.841765	-0.082730	0.381190
C129	C	1.111434	-0.882038	-0.442452
C130	C	1.361434	-0.632038	-0.192452
C131	C	1.611434	-0.382038	0.057548
C132	C	1.861434	-0.132038	0.307548
C133	C	1.165263	-0.700283	-0.388559
C134	C	1.415263	-0.450283	-0.138559
C135	C	1.665263	-0.200283	0.111441
C136	C	1.915263	0.049717	0.361441
C137	C	1.165357	-1.014463	-0.388622
C138	C	1.415357	-0.764463	-0.138622
C139	C	1.665357	-0.514463	0.111378
C140	C	1.915357	-0.264463	0.361378
C141	C	1.375565	-0.357768	-0.388600
C142	C	1.625565	-0.107768	-0.138600
C143	C	1.875565	0.142232	0.111400
C144	C	2.125565	0.392232	0.361400
C145	C	1.465186	-0.357775	-0.388616
C146	C	1.715186	-0.107775	-0.138616
C147	C	1.965186	0.142225	0.111384
C148	C	2.215186	0.392225	0.361384
C149	C	1.165309	-0.357698	-0.598870
C150	C	1.415309	-0.107698	-0.348870
C151	C	1.665309	0.142302	-0.098870
C152	C	1.915309	0.392302	0.151130
C153	C	1.165331	-0.357674	-0.688491
C154	C	1.415331	-0.107674	-0.438491
C155	C	1.665331	0.142326	-0.188491
C156	C	1.915331	0.392326	0.061509
C157	C	1.165341	-0.164048	-0.388611
C158	C	1.415341	0.085952	-0.138611
C159	C	1.665341	0.335952	0.111389
C160	C	1.915341	0.585952	0.361389
C161	C	1.165376	-0.081502	-0.388632
C162	C	1.415376	0.168498	-0.138632
C163	C	1.665376	0.418498	0.111368
C164	C	1.915376	0.668498	0.361368
C165	C	1.165368	-0.357591	-1.016667
C166	C	1.415368	-0.107591	-0.766667
C167	C	1.665368	0.142409	-0.516667
C168	C	1.915368	0.392409	-0.266667
C169	C	1.165356	-0.357617	-0.925358
C170	C	1.415356	-0.107617	-0.675358
C171	C	1.665356	0.142383	-0.425358
C172	C	1.915356	0.392383	-0.175358
C173	C	1.165350	-0.357633	-0.852582
C174	C	1.415350	-0.107633	-0.602582
C175	C	1.665350	0.142367	-0.352582
C176	C	1.915350	0.392367	-0.102582
C177	C	1.165337	-0.357658	-0.761268
C178	C	1.415337	-0.107658	-0.511268
C179	C	1.665337	0.142342	-0.261268
C180	C	1.915337	0.392342	-0.011268
C181	C	1.165251	-0.357755	-0.179070
C182	C	1.415251	-0.107755	0.070930
C183	C	1.665251	0.142245	0.320930
C184	C	1.915251	0.392245	0.570930
C185	C	1.165384	-0.357569	-0.089449
C186	C	1.415384	-0.107569	0.160551
C187	C	1.665384	0.142431	0.410551
C188	C	1.915384	0.392431	0.660551
H189	H	1.264804	-0.811025	-0.289314
H190	H	1.514804	-0.561025	-0.039314
H191	H	1.764804	-0.311025	0.210686
H192	H	2.014804	-0.061025	0.460686
F193	F	1.123962	-0.910557	-0.233694
F194	F	1.373962	-0.660557	0.016306
F195	F	1.623962	-0.410557	0.266306
F196	F	1.873962	-0.160557	0.516306
F197	F	1.010490	-0.804407	-0.346914
F198	F	1.260490	-0.554407	-0.096914
F199	F	1.510490	-0.304407	0.153086
F200	F	1.760490	-0.054407	0.403086
H201	H	1.301092	-0.903678	-0.425092
H202	H	1.551092	-0.653678	-0.175092
H203	H	1.801092	-0.403678	0.074908
H204	H	2.051092	-0.153678	0.324908
H205	H	1.201570	-0.810971	-0.524475
H206	H	1.451570	-0.560971	-0.274475
H207	H	1.701570	-0.310971	-0.024475
H208	H	1.951570	-0.060971	0.225525
H209	H	1.065863	-0.903568	-0.488017
H210	H	1.315863	-0.653568	-0.238017
H211	H	1.565863	-0.403568	0.011983
H212	H	1.815863	-0.153568	0.261983
