data_functionalizedCrystal
_audit_creation_method	'MofGen! by Chris Wilmer'
_symmetry_space_group_name_H-M	'P1'
_symmetry_Int_Tables_number	1
_symmetry_cell_setting	triclinic
loop_
_symmetry_equiv_pos_as_xyz
  x,y,z
_cell_length_a	11.792254
_cell_length_b	15.944551
_cell_length_c	10.268362
_cell_angle_alpha	89.993764
_cell_angle_beta	89.995475
_cell_angle_gamma	83.848668
loop_
_atom_site_label
_atom_site_type_symbol
_atom_site_fract_x
_atom_site_fract_y
_atom_site_fract_z
O1	O	1.505951	0.115179	-0.108302
O2	O	1.175514	0.127033	-0.108305
O3	O	1.349756	-0.001128	-0.108292
O4	O	1.331709	0.243340	-0.108316
O5	O	1.349741	-0.001133	0.108309
O6	O	1.175499	0.127028	0.108295
O7	O	1.505936	0.115174	0.108298
Cu8	Cu	1.340716	0.121100	0.128074
Cu9	Cu	1.340734	0.121106	-0.128081
O10	O	1.331694	0.243334	0.108285
C11	C	1.133222	0.126284	-0.000005
C12	C	1.007228	0.124049	-0.000006
C13	C	0.904906	0.122233	-0.000011
C14	C	0.776538	0.119962	-0.000012
C15	C	1.349000	-0.032428	0.000009
C16	C	1.346753	-0.125684	0.000009
C17	C	1.233381	-0.341056	-0.000010
C18	C	1.286020	-0.401837	0.106788
C19	C	1.342690	-0.296428	-0.000001
C20	C	1.286061	-0.401815	-0.106763
C21	C	1.338757	-0.461359	-0.000016
C22	C	1.395359	-0.355981	0.106885
C23	C	1.395384	-0.355952	-0.106762
C24	C	1.448102	-0.416715	0.000062
C25	C	1.344953	-0.201416	0.000009
C26	C	1.336503	-0.556370	-0.000017
C27	C	1.548228	0.115923	-0.000004
C28	C	1.674223	0.118158	-0.000012
C29	C	1.332451	0.274634	-0.000018
C30	C	1.334697	0.367891	-0.000028
N31	N	1.340712	0.121095	0.308240
N32	N	1.340748	0.121105	-0.308247
C33	C	1.340729	0.121105	0.573911
C34	C	1.340716	0.121102	0.426073
H35	H	1.142650	-0.308161	0.000096
H36	H	1.538913	-0.449461	0.000123
C37	C	1.223559	-0.429299	0.228758
C38	C	1.097885	-0.395677	0.252218
C39	C	1.035416	-0.423135	0.374182
C40	C	1.098621	-0.484215	0.472685
C41	C	1.224302	-0.517840	0.449227
C42	C	1.286771	-0.490382	0.327264
H43	H	1.051091	-0.350459	0.179298
H44	H	0.942378	-0.398243	0.391546
H45	H	1.052378	-0.504541	0.562969
H46	H	1.271096	-0.563059	0.522148
H47	H	1.379809	-0.515274	0.309900
H48	H	1.441584	-0.335610	-0.197055
H49	H	1.441547	-0.335782	0.197273
H50	H	1.239820	-0.422100	-0.197059
