data_functionalizedCrystal
_audit_creation_method	'MofGen! by Chris Wilmer'
_symmetry_space_group_name_H-M	'P1'
_symmetry_Int_Tables_number	1
_symmetry_cell_setting	triclinic
loop_
_symmetry_equiv_pos_as_xyz
  x,y,z
_cell_length_a	6.817900
_cell_length_b	16.417825
_cell_length_c	17.078481
_cell_angle_alpha	96.278205
_cell_angle_beta	99.306161
_cell_angle_gamma	103.385495
loop_
_atom_site_label
_atom_site_type_symbol
_atom_site_fract_x
_atom_site_fract_y
_atom_site_fract_z
V1	V	-3.979103	-0.115690	-0.247639
O2	O	-3.968072	0.005761	-0.242639
O3	O	-3.930419	-0.229587	-0.246221
O4	O	-3.910158	-0.113822	-0.355518
O5	O	-3.988474	-0.110806	-0.132585
V6	V	-4.465430	-0.101173	-0.233844
O7	O	-4.234211	-0.147533	-0.277899
O8	O	-4.660520	-0.069330	-0.203584
O9	O	-4.290908	0.012724	-0.235263
O10	O	-4.593858	-0.222623	-0.238844
O11	O	-4.573457	-0.106057	-0.348898
O12	O	-4.311169	-0.103041	-0.125966
C13	C	-3.776016	-0.257355	-0.242385
C14	C	-3.817360	-0.350467	-0.241944
C15	C	-3.886178	-0.552789	-0.168264
C16	C	-3.925047	-0.640279	-0.167857
C17	C	-3.977734	-0.664074	-0.313228
C18	C	-3.938879	-0.576586	-0.313635
C19	C	-3.893091	-0.520945	-0.241151
C20	C	-3.970815	-0.695923	-0.240336
C21	C	-4.012959	-0.790783	-0.239894
C22	C	-3.850948	-0.426079	-0.241592
C23	C	-3.750169	-0.109684	-0.381803
C24	C	-3.775080	-0.108911	-0.469996
C25	C	-3.968105	-0.112729	-0.515481
C26	C	-3.991499	-0.112001	-0.598347
C27	C	-3.821869	-0.107462	-0.635728
C28	C	-3.628828	-0.103642	-0.590237
C29	C	-3.605433	-0.104363	-0.507371
C30	C	-3.872392	-0.104851	-0.883125
C31	C	-3.895803	-0.104133	-0.965998
C32	C	-4.258473	-0.112491	-0.974102
C33	C	-4.235064	-0.113217	-0.891235
C34	C	-4.042023	-0.109392	-0.845750
N35	N	-3.845779	-0.106721	-0.720431
N36	N	-4.018113	-0.110127	-0.761048
C37	C	-4.108654	0.040488	-0.239096
C38	C	-4.046546	0.133599	-0.239542
C39	C	-4.134501	-0.107181	-0.099676
C40	C	-4.088828	-0.107950	-0.011482
H41	H	-3.848895	-0.507488	-0.109243
H42	H	-4.148675	-0.115105	-0.635377
H43	H	-3.448243	-0.101234	-0.470335
Cl44	Cl	-3.916363	-0.680307	-0.076224
Cl45	Cl	-3.629726	-0.100066	-0.825959
H46	H	-4.015015	-0.709387	-0.372242
Cl47	Cl	-4.181373	-0.118441	-0.468497
Cl48	Cl	-4.448327	-0.118927	-0.844249
Cl49	Cl	-4.501138	-0.117295	-1.031287
Cl50	Cl	-3.947583	-0.536551	-0.405272
Cl51	Cl	-3.682536	-0.098426	-1.012989
H52	H	-3.490711	-0.099941	-0.620678
