data_functionalizedCrystal
_audit_creation_method	'MofGen! by Chris Wilmer'
_symmetry_space_group_name_H-M	'P1'
_symmetry_Int_Tables_number	1
_symmetry_cell_setting	triclinic
loop_
_symmetry_equiv_pos_as_xyz
  x,y,z
_cell_length_a	18.215407
_cell_length_b	17.640280
_cell_length_c	18.215399
_cell_angle_alpha	101.224603
_cell_angle_beta	90.019833
_cell_angle_gamma	78.800709
loop_
_atom_site_label
_atom_site_type_symbol
_atom_site_fract_x
_atom_site_fract_y
_atom_site_fract_z
Zn1	Zn	1.184366	-0.314661	0.356963
Zn2	Zn	1.209181	-0.446838	0.209048
Zn3	Zn	1.061303	-0.314687	0.233905
Zn4	Zn	1.086163	-0.446794	0.332082
O5	O	1.135253	-0.380745	0.282999
O6	O	1.290643	-0.332202	0.337352
O7	O	1.189546	-0.429337	0.109356
O8	O	1.056838	-0.204079	0.271045
O9	O	1.308875	-0.429312	0.228680
O10	O	1.147252	-0.204060	0.361454
O11	O	1.080901	-0.332246	0.127618
O12	O	0.961615	-0.332203	0.246918
O13	O	1.099208	-0.429237	0.438372
O14	O	0.979879	-0.429262	0.319048
O15	O	1.171357	-0.332159	0.456652
O16	O	1.213652	-0.557436	0.204553
O17	O	1.123271	-0.557404	0.294945
C18	C	0.944044	-0.380731	0.282981
C19	C	0.862248	-0.380745	0.282987
C20	C	0.683598	-0.431363	0.320471
C21	C	0.606740	-0.431365	0.320479
C22	C	0.587662	-0.330142	0.245542
C23	C	0.664519	-0.330136	0.245538
C24	C	0.712485	-0.380751	0.283000
C25	C	0.558771	-0.380759	0.283013
C26	C	0.475438	-0.380761	0.283022
C27	C	0.795824	-0.380748	0.282993
C28	C	1.173871	-0.586099	0.244368
C29	C	1.190460	-0.673950	0.227866
C30	C	1.009534	-0.962935	0.408631
C31	C	1.025123	-1.045484	0.393101
C32	C	1.119295	-1.045452	0.299071
C33	C	1.103717	-0.962901	0.314596
C34	C	1.048835	-0.921649	0.369375
C35	C	1.143018	-0.921615	0.275340
C36	C	1.127438	-0.839071	0.290861
C37	C	1.072557	-0.797813	0.345636
C38	C	1.033255	-0.839105	0.384896
C39	C	1.197896	-0.962869	0.220557
C40	C	1.237196	-0.921583	0.181301
C41	C	1.221620	-0.839038	0.196825
C42	C	1.166739	-0.797780	0.251601
C43	C	1.260922	-0.797746	0.157566
C44	C	1.245342	-0.715202	0.173086
C45	C	1.151159	-0.715236	0.267122
C46	C	1.327209	-0.380759	0.283018
C47	C	1.409009	-0.380765	0.283027
C48	C	1.135288	-0.380690	0.474963
C49	C	1.135302	-0.380667	0.556766
C50	C	1.096504	-0.174589	0.321798
C51	C	1.079991	-0.086738	0.338331
C52	C	1.135250	-0.380742	0.091794
C53	C	1.135336	-0.380543	0.010033
C54	C	1.172878	-0.330072	0.754489
C55	C	1.172883	-0.330049	0.831352
C56	C	1.097755	-0.431141	0.812304
C57	C	1.097747	-0.431159	0.735444
C58	C	1.135313	-0.380626	0.706537
C59	C	1.135326	-0.380584	0.860261
C60	C	1.135330	-0.380560	0.943600
C61	C	1.135307	-0.380649	0.623194
H62	H	0.548599	-0.288934	0.215039
Cl63	Cl	1.217508	-1.066640	0.201072
Cl64	Cl	1.329908	-0.849616	0.088698
Cl65	Cl	0.700836	-0.266499	0.198434
H66	H	1.203471	-0.288881	0.870391
H67	H	0.583224	-0.472577	0.350993
H68	H	1.067172	-0.472285	0.835849
H69	H	1.203465	-0.288922	0.730956
Cl70	Cl	1.050512	-0.494714	0.675158
Cl71	Cl	1.082171	-0.663369	0.335996
Cl72	Cl	0.743896	-0.494989	0.367570
H73	H	1.059867	-0.730600	0.358267
Cl74	Cl	0.940546	-0.911068	0.477505
Cl75	Cl	0.964266	-0.787238	0.453770
Cl76	Cl	0.975701	-1.097384	0.442449
H77	H	1.163978	-1.079051	0.254467
H78	H	1.281879	-0.955182	0.136698
Cl79	Cl	1.294742	-0.663296	0.123729
