data_functionalizedCrystal
_audit_creation_method	'MofGen! by Chris Wilmer'
_symmetry_space_group_name_H-M	'P1'
_symmetry_Int_Tables_number	1
_symmetry_cell_setting	triclinic
loop_
_symmetry_equiv_pos_as_xyz
  x,y,z
_cell_length_a	9.065218
_cell_length_b	6.394989
_cell_length_c	7.540329
_cell_angle_alpha	90.000635
_cell_angle_beta	90.005135
_cell_angle_gamma	85.756832
loop_
_atom_site_label
_atom_site_type_symbol
_atom_site_fract_x
_atom_site_fract_y
_atom_site_fract_z
O1	O	-1.963204	-0.306375	-0.147561
O2	O	-1.463204	0.193625	0.352439
O3	O	-1.534149	-0.331505	-0.147543
O4	O	-1.034149	0.168495	0.352457
O5	O	-1.754766	-0.014991	-0.147553
O6	O	-1.254766	0.485009	0.352447
O7	O	-1.742586	-0.622889	-0.147550
O8	O	-1.242586	-0.122889	0.352450
O9	O	-1.754753	-0.014987	0.147412
O10	O	-1.254753	0.485013	0.647412
O11	O	-1.534135	-0.331501	0.147422
O12	O	-1.034135	0.168499	0.647422
O13	O	-1.963190	-0.306371	0.147405
O14	O	-1.463190	0.193629	0.647405
Cu15	Cu	-1.748662	-0.318936	0.174346
Cu16	Cu	-1.248662	0.181064	0.674346
Cu17	Cu	-1.748678	-0.318941	-0.174484
Cu18	Cu	-1.248678	0.181059	0.325516
O19	O	-1.742573	-0.622885	0.147415
O20	O	-1.242573	-0.122885	0.647415
C21	C	-1.479134	-0.329088	-0.000059
C22	C	-0.979134	0.170912	0.499941
C23	C	-1.315225	-0.321866	-0.000052
C24	C	-0.815225	0.178134	0.499948
C25	C	-1.018206	-0.308788	-0.000073
C26	C	-0.518206	0.191212	0.499927
C27	C	-1.182115	-0.316009	-0.000058
C28	C	-0.682115	0.183991	0.499942
C29	C	-1.752352	0.062878	-0.000077
C30	C	-1.252352	0.562878	0.499923
C31	C	-1.744991	0.299252	-0.000079
C32	C	-1.244991	0.799252	0.499921
N33	N	-1.748661	-0.318931	0.419694
N34	N	-1.248661	0.181069	0.919694
N35	N	-1.748690	-0.318929	-0.419833
N36	N	-1.248690	0.181071	0.080167
