data_functionalizedCrystal
_audit_creation_method	'MofGen! by Chris Wilmer'
_symmetry_space_group_name_H-M	'P1'
_symmetry_Int_Tables_number	1
_symmetry_cell_setting	triclinic
loop_
_symmetry_equiv_pos_as_xyz
  x,y,z
_cell_length_a	19.805407
_cell_length_b	13.897448
_cell_length_c	19.805399
_cell_angle_alpha	89.973574
_cell_angle_beta	89.983114
_cell_angle_gamma	90.017692
loop_
_atom_site_label
_atom_site_type_symbol
_atom_site_fract_x
_atom_site_fract_y
_atom_site_fract_z
Zn1	Zn	1.034759	-0.384024	-0.382732
Zn2	Zn	1.534759	0.115976	0.117268
Zn3	Zn	1.034696	-0.545334	-0.269549
Zn4	Zn	1.534696	-0.045334	0.230451
Zn5	Zn	0.921579	-0.384054	-0.269556
Zn6	Zn	1.421579	0.115946	0.230444
Zn7	Zn	0.921554	-0.545279	-0.382695
Zn8	Zn	1.421554	-0.045279	0.117305
O9	O	0.978147	-0.464673	-0.326133
O10	O	1.478147	0.035327	0.173867
O11	O	1.129467	-0.405432	-0.367730
O12	O	1.629467	0.094568	0.132270
O13	O	1.019675	-0.523976	-0.174833
O14	O	1.519675	-0.023976	0.325167
O15	O	0.936629	-0.249069	-0.284588
O16	O	1.436629	0.250931	0.215412
O17	O	1.129421	-0.523946	-0.284575
O18	O	1.629421	-0.023946	0.215425
O19	O	1.019782	-0.249046	-0.367737
O20	O	1.519782	0.250954	0.132263
O21	O	0.936568	-0.405484	-0.174839
O22	O	1.436568	0.094516	0.325161
O23	O	0.826859	-0.405431	-0.284552
O24	O	1.326859	0.094569	0.215448
O25	O	0.936587	-0.523852	-0.477417
O26	O	1.436587	-0.023852	0.022583
O27	O	0.826841	-0.523882	-0.367675
O28	O	1.326841	-0.023882	0.132325
O29	O	1.019758	-0.405379	-0.477443
O30	O	1.519758	0.094621	0.022557
O31	O	1.019651	-0.680308	-0.284539
O32	O	1.519651	-0.180308	0.215461
O33	O	0.936526	-0.680268	-0.367668
O34	O	1.436526	-0.180268	0.132332
C35	C	0.802291	-0.464654	-0.326111
C36	C	1.302291	0.035346	0.173889
C37	C	0.727059	-0.464670	-0.326118
C38	C	1.227059	0.035330	0.173882
C39	C	0.691723	-0.526440	-0.369330
C40	C	1.191723	-0.026440	0.130670
C41	C	0.621035	-0.526441	-0.369339
C42	C	1.121035	-0.026441	0.130661
C43	C	0.585683	-0.464677	-0.326133
C44	C	1.085683	0.035323	0.173867
C45	C	0.621024	-0.402900	-0.282919
C46	C	1.121024	0.097100	0.217081
C47	C	0.691711	-0.402894	-0.282913
C48	C	1.191711	0.097106	0.217087
C49	C	0.335951	-0.402921	-0.282941
C50	C	0.835951	0.097079	0.217059
C51	C	0.265259	-0.402934	-0.282949
C52	C	0.765259	0.097066	0.217051
C53	C	0.265274	-0.526469	-0.369367
C54	C	0.765274	-0.026469	0.130633
C55	C	0.335961	-0.526463	-0.369362
C56	C	0.835961	-0.026463	0.130638
C57	C	0.371296	-0.464683	-0.326151
C58	C	0.871296	0.035317	0.173849
C59	C	0.447944	-0.464680	-0.326142
C60	C	0.947944	0.035320	0.173858
C61	C	0.509036	-0.464684	-0.326138
C62	C	1.009036	0.035316	0.173862
C63	C	0.978098	-0.715287	-0.326113
C64	C	1.478098	-0.215287	0.173887
C65	C	0.978138	-0.822501	-0.326128
C66	C	1.478138	-0.322501	0.173872
C67	C	0.978209	-1.018796	-0.326170
C68	C	1.478209	-0.518796	0.173830
C69	C	0.978168	-0.909564	-0.326149
C70	C	1.478168	-0.409564	0.173851
C71	C	1.154690	-0.464692	-0.326155
C72	C	1.654690	0.035308	0.173845
C73	C	1.229922	-0.464700	-0.326165
C74	C	1.729922	0.035300	0.173835
C75	C	0.978177	-0.464606	-0.502676
C76	C	1.478177	0.035394	-0.002676
C77	C	0.978189	-0.464577	-0.577908
C78	C	1.478189	0.035423	-0.077908
C79	C	0.978215	-0.213080	-0.326167
C80	C	1.478215	0.286920	0.173833
C81	C	0.978244	-0.105866	-0.326182
C82	C	1.478244	0.394134	0.173818
C83	C	0.934928	-0.402873	-0.613254
C84	C	1.434928	0.097127	-0.113254
C85	C	0.934937	-0.402854	-0.683943
C86	C	1.434937	0.097146	-0.183943
C87	C	0.978212	-0.464536	-0.719283
C88	C	1.478212	0.035464	-0.219283
C89	C	1.021475	-0.526247	-0.683932
C90	C	1.521475	-0.026247	-0.183932
C91	C	1.021462	-0.526269	-0.613245
C92	C	1.521462	-0.026269	-0.113245
C93	C	1.021529	-0.526156	-0.969005
C94	C	1.521529	-0.026156	-0.469005
C95	C	1.021540	-0.526127	-1.039697
C96	C	1.521540	-0.026127	-0.539697
C97	C	0.935004	-0.402741	-1.039704
C98	C	1.435004	0.097259	-0.539704
C99	C	0.934991	-0.402764	-0.969016
C100	C	1.434991	0.097236	-0.469016
C101	C	0.978251	-0.464478	-0.933671
C102	C	1.478251	0.035522	-0.433671
C103	C	0.978240	-0.464499	-0.857022
C104	C	1.478240	0.035501	-0.357022
C105	C	0.978227	-0.464510	-0.795931
C106	C	1.478227	0.035490	-0.295931
C107	C	0.978156	-0.464670	-0.150277
C108	C	1.478156	0.035330	0.349723
C109	C	0.978275	-0.464427	-0.075045
C110	C	1.478275	0.035573	0.424955
H111	H	0.236478	-0.352632	-0.247765
H112	H	0.736478	0.147368	0.252235
H113	H	0.592235	-0.352606	-0.247743
H114	H	1.092235	0.147394	0.252257
H115	H	0.364741	-0.576761	-0.404542
H116	H	0.864741	-0.076761	0.095458
H117	H	0.899755	-0.352533	-0.940246
H118	H	1.399755	0.147467	-0.440246
O119	O	0.892953	-0.342986	-0.578823
O120	O	1.392953	0.157014	-0.078823
C121	C	0.902204	-0.356251	-0.508852
C122	C	1.402204	0.143749	-0.008852
H123	H	0.954429	-0.387848	-0.499197
H124	H	1.454429	0.112152	0.000803
H125	H	0.897626	-0.284007	-0.482000
H126	H	1.397626	0.215993	0.018000
H127	H	0.862040	-0.407621	-0.488780
H128	H	1.362040	0.092379	0.011220
H129	H	0.236496	-0.576769	-0.404554
H130	H	0.736496	-0.076769	0.095446
H131	H	0.364712	-0.352624	-0.247751
H132	H	0.864712	0.147376	0.252249
H133	H	0.720481	-0.352590	-0.247729
H134	H	1.220481	0.147410	0.252271
H135	H	0.899707	-0.352612	-0.712719
H136	H	1.399707	0.147388	-0.212719
O137	O	0.892901	-0.342936	-1.074069
O138	O	1.392901	0.157064	-0.574069
C139	C	0.849184	-0.397832	-1.114953
C140	C	1.349184	0.102168	-0.614953
H141	H	0.844979	-0.473809	-1.093638
H142	H	1.344979	0.026191	-0.593638
H143	H	0.797105	-0.362937	-1.115750
H144	H	1.297105	0.137063	-0.615750
H145	H	0.870116	-0.401139	-1.168529
H146	H	1.370116	0.098861	-0.668529
H147	H	1.056781	-0.576359	-1.068470
H148	H	1.556781	-0.076359	-0.568470
O149	O	1.063623	-0.586121	-0.934781
O150	O	1.563623	-0.086121	-0.434781
C151	C	1.101812	-0.640564	-0.981134
C152	C	1.601812	-0.140564	-0.481134
H153	H	1.104167	-0.601037	-1.031529
H154	H	1.604167	-0.101037	-0.531529
H155	H	1.155137	-0.650856	-0.960720
H156	H	1.655137	-0.150856	-0.460720
H157	H	1.077014	-0.713823	-0.988636
H158	H	1.577014	-0.213823	-0.488636
H159	H	1.056707	-0.576473	-0.712712
H160	H	1.556707	-0.076473	-0.212712
O161	O	1.063452	-0.586343	-0.578980
O162	O	1.563452	-0.086343	-0.078980
C163	C	1.048622	-0.682472	-0.596224
C164	C	1.548622	-0.182472	-0.096224
H165	H	1.022615	-0.684448	-0.647547
H166	H	1.522615	-0.184448	-0.147547
H167	H	1.097457	-0.725734	-0.598638
H168	H	1.597457	-0.225734	-0.098638
H169	H	1.013802	-0.714966	-0.556434
H170	H	1.513802	-0.214966	-0.056434
O171	O	0.726030	-0.586335	-0.411398
O172	O	1.226030	-0.086335	0.088602
C173	C	0.708772	-0.565392	-0.478883
C174	C	1.208772	-0.065392	0.021117
H175	H	0.689356	-0.488341	-0.482395
H176	H	1.189356	0.011659	0.017605
H177	H	0.755269	-0.573758	-0.512310
H178	H	1.255269	-0.073758	-0.012310
H179	H	0.667738	-0.617141	-0.496516
H180	H	1.167738	-0.117141	0.003484
O181	O	0.586683	-0.586314	-0.411386
O182	O	1.086683	-0.086314	0.088614
C183	C	0.545810	-0.531493	-0.455170
C184	C	1.045810	-0.031493	0.044830
H185	H	0.567123	-0.455526	-0.459446
H186	H	1.067123	0.044474	0.040554
H187	H	0.545028	-0.566484	-0.507213
H188	H	1.045028	-0.066484	-0.007213
H189	H	0.492228	-0.528139	-0.434256
H190	H	0.992228	-0.028139	0.065744
