data_functionalizedCrystal
_audit_creation_method	'MofGen! by Chris Wilmer'
_symmetry_space_group_name_H-M	'P1'
_symmetry_Int_Tables_number	1
_symmetry_cell_setting	triclinic
loop_
_symmetry_equiv_pos_as_xyz
  x,y,z
_cell_length_a	31.640172
_cell_length_b	14.560438
_cell_length_c	14.560438
_cell_angle_alpha	59.995857
_cell_angle_beta	89.994329
_cell_angle_gamma	59.995003
loop_
_atom_site_label
_atom_site_type_symbol
_atom_site_fract_x
_atom_site_fract_y
_atom_site_fract_z
Zr1	Zr	0.407181	1.005225	-0.120626
O2	O	0.339692	1.196851	-0.267281
O3	O	0.427869	0.813611	-0.075660
O4	O	0.427869	1.005223	-0.267277
O5	O	0.339692	1.005237	0.075476
O6	O	0.497426	1.005207	-0.267283
O7	O	0.339692	1.005239	-0.075665
O8	O	0.497425	0.662449	0.075484
O9	O	0.339693	1.347995	-0.267291
O10	O	0.488602	0.892409	-0.056497
O11	O	0.436693	0.892418	0.056302
O12	O	0.436693	1.118016	-0.169302
O13	O	0.384785	1.118026	-0.056503
Zr14	Zr	0.518115	1.005196	0.120416
Zr15	Zr	0.518115	1.005200	-0.120636
Zr16	Zr	0.407181	1.005221	0.120426
Zr17	Zr	0.407181	1.246282	-0.120642
Zr18	Zr	0.518114	0.764139	0.120432
O19	O	0.497427	1.196810	0.075450
O20	O	0.497426	1.196816	-0.267295
O21	O	0.339692	1.196845	0.075464
O22	O	0.585603	0.813570	0.267071
O23	O	0.585603	0.813576	-0.075674
O24	O	0.427869	0.813605	0.267085
O25	O	0.585604	1.005184	-0.075686
O26	O	0.497426	1.005198	0.267067
O27	O	0.427870	1.005214	0.267073
O28	O	0.585604	1.005182	0.075455
O29	O	0.427871	1.347975	-0.267299
O30	O	0.497425	0.662446	0.267089
O31	O	0.585603	0.662426	0.267081
O32	O	0.585603	0.662430	0.075477
O33	O	0.339693	1.347991	-0.075687
O34	O	0.427871	1.347972	-0.075694
O35	O	0.488602	0.892405	0.169092
O36	O	0.540511	0.892395	0.056293
O37	O	0.488603	1.118003	-0.056512
O38	O	0.436694	1.118012	0.056287
C39	C	0.462647	0.703685	-0.000086
C40	C	0.462646	0.601350	-0.000079
C41	C	0.424326	0.636574	-0.083358
C42	C	0.424329	0.540434	-0.083387
C43	C	0.500973	0.373847	0.083153
C44	C	0.500973	0.469986	0.083176
C45	C	0.323886	1.005241	-0.000093
C46	C	0.276792	1.005252	-0.000089
C47	C	-0.015214	1.005189	-0.083368
C48	C	-0.192200	1.005172	-0.083376
O49	O	-0.215073	1.005116	-0.154162
N50	N	-0.214331	1.005173	-0.000112
C51	C	-0.192210	1.005170	0.083164
O52	O	-0.215092	1.005157	0.153991
C53	C	-0.015223	1.005177	0.083176
C54	C	0.006903	1.005189	-0.000100
C55	C	0.006912	1.005199	-0.166636
C56	C	0.051154	1.005210	-0.166636
C57	C	0.073271	1.005211	-0.083369
C58	C	0.051145	1.005200	-0.000101
C59	C	0.006899	1.005165	0.166455
C60	C	0.051150	1.005163	0.166453
C61	C	0.073275	1.005175	0.083177
C62	C	0.117504	1.005212	0.083166
N63	N	0.139635	1.005211	-0.000097
C64	C	0.117518	1.005210	-0.083365
C65	C	-0.285132	1.005169	0.083150
C66	C	-0.329379	1.005170	0.083146
C67	C	-0.329366	1.005169	-0.083392
C68	C	-0.285120	1.005178	-0.083392
C69	C	-0.263002	1.005168	-0.000113
C70	C	0.210430	1.005235	-0.083360
C71	C	0.254675	1.005251	-0.083356
C72	C	0.254659	1.005245	0.083185
C73	C	0.210416	1.005235	0.083178
C74	C	0.188304	1.005226	-0.000100
O75	O	0.140407	1.005254	0.153923
O76	O	0.140414	1.005194	-0.154167
C77	C	-0.059456	1.005177	-0.083367
C78	C	-0.081582	1.005167	-0.000099
C79	C	-0.059465	1.005167	0.083169
C80	C	-0.125829	1.005167	-0.000103
C81	C	-0.147946	1.005167	-0.083370
C82	C	-0.125815	1.005166	-0.166634
C83	C	-0.081573	1.005177	-0.166634
C84	C	-0.081596	1.005169	0.166432
C85	C	-0.125839	1.005159	0.166425
C86	C	-0.147955	1.005158	0.083158
C87	C	0.601409	1.005179	-0.000117
C88	C	0.648504	1.005169	-0.000121
C89	C	0.462648	1.005216	-0.301625
C90	C	0.462647	1.005218	-0.403958
C91	C	0.462649	1.306736	-0.000124
C92	C	0.462649	1.409071	-0.000131
C93	C	0.500966	1.005210	-0.452037
C94	C	0.500968	1.005198	-0.548183
C95	C	0.424327	1.005207	-0.548164
C96	C	0.424328	1.005209	-0.452016
C97	C	0.462648	1.005205	0.301415
C98	C	0.462648	1.005203	0.403748
C99	C	0.601408	0.703654	-0.000098
C100	C	0.648503	0.601308	-0.000095
C101	C	0.462647	0.703680	0.301434
C102	C	0.462647	0.601343	0.403774
C103	C	0.601409	0.703649	0.301422
C104	C	0.648503	0.601301	0.403757
C105	C	0.323887	1.306772	-0.301632
C106	C	0.276793	1.409120	-0.403967
C107	C	0.323887	1.306767	-0.000112
C108	C	0.276793	1.409112	-0.000115
C109	C	0.462649	1.306741	-0.301644
C110	C	0.462649	1.409078	-0.403984
C111	C	0.643522	0.553253	-0.058980
C112	C	0.687768	0.457102	-0.059000
C113	C	0.736993	0.409001	-0.000128
C114	C	0.741972	0.457066	0.058758
C115	C	0.697727	0.553222	0.058771
C116	C	0.697719	0.553233	0.392935
C117	C	0.741974	0.457080	0.489081
C118	C	0.737010	0.408991	0.596048
C119	C	0.687788	0.457069	0.606868
C120	C	0.643535	0.553226	0.510723
C121	C	0.227576	1.457200	-0.393145
C122	C	0.183322	1.553382	-0.489291
C123	C	0.188285	1.601477	-0.596258
C124	C	0.237507	1.553393	-0.607078
C125	C	0.281760	1.457218	-0.510933
C126	C	0.281773	1.457178	0.058759
C127	C	0.237527	1.553356	0.058753
C128	C	0.188302	1.601460	-0.000122
C129	C	0.183323	1.553390	-0.059003
C130	C	0.227568	1.457221	-0.059003
C131	C	0.489742	0.553256	0.510728
C132	C	0.489736	0.457108	0.606883
C133	C	0.435538	0.457140	0.489115
C134	C	0.435542	0.553292	0.392963
H135	H	0.272687	1.005265	-0.151173
Cl136	Cl	-0.153629	1.005170	-0.271315
H137	H	0.532176	0.266882	0.150937
Cl138	Cl	0.121436	1.613872	-0.133006
Cl139	Cl	0.376154	1.005204	-0.608588
Cl140	Cl	0.792611	0.288115	-0.000153
Cl141	Cl	0.581644	0.613708	-0.133004
H142	H	0.321851	1.418019	0.106710
H143	H	0.143248	1.592516	-0.480459
Cl144	Cl	0.376147	0.801713	-0.188025
H145	H	0.413471	0.418004	0.480327
H146	H	0.241542	1.592563	-0.694182
Cl147	Cl	0.243799	1.613760	0.132787
Cl148	Cl	0.132684	1.722357	-0.000108
Cl149	Cl	0.703997	0.613614	0.132813
Cl150	Cl	0.792648	0.288103	0.716906
H151	H	0.223525	1.418047	-0.306056
H152	H	0.393124	1.005211	-0.412865
H153	H	0.683704	0.417979	-0.106952
Cl154	Cl	0.401473	0.613756	0.258494
Cl155	Cl	0.803860	0.396577	0.132768
H156	H	0.393125	0.569126	-0.151202
Cl157	Cl	0.221298	1.396798	-0.133015
Cl158	Cl	0.523815	0.613663	0.524322
Cl159	Cl	0.549152	0.425701	0.187875
H160	H	0.701770	0.592373	0.305846
H161	H	-0.011091	1.005194	-0.234443
Cl162	Cl	0.803846	0.396654	0.475453
H163	H	0.192431	1.005225	-0.151172
Cl164	Cl	0.549143	1.005185	-0.608621
Cl165	Cl	0.681557	0.396598	0.741350
H166	H	-0.011109	1.005154	0.234266
Cl167	Cl	0.523799	0.396664	0.741340
H168	H	0.532169	1.005214	-0.412909
Cl169	Cl	0.581665	0.613636	0.524348
H170	H	0.069167	1.005215	-0.234444
H171	H	-0.267108	1.005187	-0.151202
Cl172	Cl	0.132647	1.722381	-0.717117
H173	H	-0.347381	1.005172	-0.151194
Cl174	Cl	0.343631	1.396777	-0.524558
H175	H	-0.347395	1.005180	0.150947
H176	H	0.069158	1.005151	0.234271
Cl177	Cl	0.182598	1.005241	0.187861
Cl178	Cl	0.282470	1.005247	0.187860
Cl179	Cl	-0.053764	1.005189	-0.271328
Cl180	Cl	-0.153650	1.005151	0.271122
Cl181	Cl	-0.257333	1.005163	0.187850
H182	H	-0.063591	1.005167	0.234240
