data_functionalizedCrystal
_audit_creation_method	'MofGen! by Chris Wilmer'
_symmetry_space_group_name_H-M	'P1'
_symmetry_Int_Tables_number	1
_symmetry_cell_setting	triclinic
loop_
_symmetry_equiv_pos_as_xyz
  x,y,z
_cell_length_a	6.817900
_cell_length_b	9.514063
_cell_length_c	16.015572
_cell_angle_alpha	75.278535
_cell_angle_beta	104.485554
_cell_angle_gamma	118.843314
loop_
_atom_site_label
_atom_site_type_symbol
_atom_site_fract_x
_atom_site_fract_y
_atom_site_fract_z
V1	V	-4.016234	-0.064662	-0.269591
O2	O	-3.917025	0.164813	-0.263759
O3	O	-4.051422	-0.283737	-0.268422
O4	O	-3.925102	0.007287	-0.386862
O5	O	-4.044220	-0.128225	-0.144498
V6	V	-4.494568	-0.045598	-0.254547
O7	O	-4.288875	-0.106481	-0.302592
O8	O	-4.672125	-0.003779	-0.221547
O9	O	-4.236174	0.173477	-0.255717
O10	O	-4.711174	-0.275073	-0.260380
O11	O	-4.583979	0.017965	-0.379641
O12	O	-4.362494	-0.117547	-0.137277
C13	C	-3.918140	-0.339359	-0.264343
C14	C	-4.027913	-0.517999	-0.264168
C15	C	-3.757005	0.031871	-0.415424
C16	C	-3.764331	0.089247	-0.511298
C17	C	-4.247278	-0.420023	-0.890494
C18	C	-4.254146	-0.366058	-0.980578
C19	C	-4.070629	-0.086857	-0.955014
C20	C	-4.063734	-0.140799	-0.864926
C21	C	-4.152065	-0.307384	-0.832674
C22	C	-3.968522	-0.028160	-0.807106
C23	C	-3.961640	-0.082099	-0.717026
C24	C	-4.049969	-0.248677	-0.684767
C25	C	-4.145183	-0.361323	-0.742594
C26	C	-3.880207	0.138424	-0.839360
C27	C	-3.784995	0.251063	-0.781539
C28	C	-3.778096	0.197125	-0.691457
C29	C	-3.866426	0.030547	-0.659198
C30	C	-3.682883	0.309771	-0.633630
C31	C	-3.676000	0.255832	-0.543550
C32	C	-3.859543	-0.023392	-0.569118
C33	C	-4.032802	0.229090	-0.259794
C34	C	-3.902266	0.407731	-0.259974
C35	C	-4.193937	-0.142139	-0.108710
C36	C	-4.165846	-0.199507	-0.012836
H37	H	-3.710701	-0.519182	-0.256516
C38	C	-4.286695	-0.616723	-0.268839
N39	N	-4.481618	-0.691092	-0.272361
C40	C	-4.344431	-0.603276	-0.855012
N41	N	-4.417607	-0.741296	-0.828287
C42	C	-3.956697	-0.206645	-0.533636
N43	N	-4.029872	-0.344665	-0.506911
H44	H	-4.331676	-0.457795	-1.027654
H45	H	-3.598470	0.347555	-0.496471
H46	H	-4.044367	-0.292592	-0.611417
C47	C	-3.973455	0.096383	-0.990502
N48	N	-3.900248	0.234403	-1.017230
H49	H	-4.217083	-0.496972	-0.716333
C50	C	-3.687820	0.434303	-0.817027
N51	N	-3.614613	0.572323	-0.843755
C52	C	-3.585731	0.493010	-0.669121
N53	N	-3.512549	0.631028	-0.695852
H54	H	-3.885785	0.182337	-0.912709
