data_functionalizedCrystal
_audit_creation_method	'MofGen! by Chris Wilmer'
_symmetry_space_group_name_H-M	'P1'
_symmetry_Int_Tables_number	1
_symmetry_cell_setting	triclinic
loop_
_symmetry_equiv_pos_as_xyz
  x,y,z
_cell_length_a	31.640172
_cell_length_b	27.440280
_cell_length_c	27.440280
_cell_angle_alpha	89.991997
_cell_angle_beta	60.004956
_cell_angle_gamma	119.995421
loop_
_atom_site_label
_atom_site_type_symbol
_atom_site_fract_x
_atom_site_fract_y
_atom_site_fract_z
Zr1	Zr	0.462532	0.063885	0.469574
O2	O	0.550699	0.141703	0.391768
O3	O	0.374365	0.040030	0.493416
O4	O	0.462522	0.141692	0.493428
O5	O	0.462550	-0.040152	0.391756
O6	O	0.462513	0.141682	0.573631
O7	O	0.462542	0.040042	0.391755
O8	O	0.304818	-0.040172	0.573609
O9	O	0.620246	0.141702	0.391779
O10	O	0.410623	0.029848	0.563450
O11	O	0.410636	-0.029992	0.503597
O12	O	0.514428	0.089701	0.503611
O13	O	0.514441	0.029861	0.443758
Zr14	Zr	0.462532	-0.064030	0.597490
Zr15	Zr	0.462519	0.063869	0.597488
Zr16	Zr	0.462545	-0.064014	0.469576
Zr17	Zr	0.573452	0.063883	0.469591
Zr18	Zr	0.351612	-0.064029	0.597472
O19	O	0.550699	-0.040176	0.573648
O20	O	0.550680	0.141680	0.573645
O21	O	0.550717	-0.040153	0.391770
O22	O	0.374365	-0.141849	0.675296
O23	O	0.374347	0.040007	0.675293
O24	O	0.374384	-0.141826	0.493418
O25	O	0.462513	0.040006	0.675307
O26	O	0.462542	-0.141837	0.573635
O27	O	0.462550	-0.141827	0.493432
O28	O	0.462522	-0.040187	0.675308
O29	O	0.620236	0.141690	0.493453
O30	O	0.304828	-0.141835	0.573610
O31	O	0.304818	-0.141848	0.675285
O32	O	0.304807	-0.040185	0.675283
O33	O	0.620257	0.040040	0.391780
O34	O	0.620246	0.040027	0.493455
O35	O	0.410636	-0.089847	0.563452
O36	O	0.410623	-0.030007	0.623306
O37	O	0.514428	0.029846	0.563467
O38	O	0.514441	-0.029993	0.503613
C39	C	0.323788	-0.000071	0.533510
C40	C	0.276699	-0.000070	0.533502
C41	C	0.462516	0.159910	0.533529
C42	C	0.462510	0.214206	0.533529
C43	C	0.462548	-0.160055	0.533534
C44	C	0.462554	-0.214352	0.533535
C45	C	-0.015349	0.031157	0.564787
C46	C	-0.192345	0.031157	0.564799
O47	O	-0.215255	0.057701	0.591392
N48	N	-0.214468	-0.000077	0.533555
C49	C	-0.192341	-0.031317	0.502310
O50	O	-0.215224	-0.057889	0.475740
C51	C	-0.015350	-0.031320	0.502301
C52	C	0.006775	-0.000079	0.533542
C53	C	0.006775	0.062396	0.596025
C54	C	0.051024	0.062398	0.596019
C55	C	0.073148	0.031162	0.564775
C56	C	0.051024	-0.000076	0.533536
C57	C	0.006773	-0.062563	0.471059
C58	C	0.051022	-0.062563	0.471061
C59	C	0.073147	-0.031321	0.502302
C60	C	0.117397	-0.031310	0.502285
N61	N	0.139519	-0.000075	0.533529
C62	C	0.117395	0.031161	0.564773
C63	C	-0.285264	-0.031313	0.502315
C64	C	-0.329511	-0.031311	0.502316
C65	C	-0.329512	0.031162	0.564807
C66	C	-0.285261	0.031164	0.564802
C67	C	-0.263141	-0.000078	0.533559
C68	C	0.210321	0.031164	0.564758
C69	C	0.254575	0.031166	0.564747
C70	C	0.254570	-0.031310	0.502259
C71	C	0.210322	-0.031310	0.502267
C72	C	0.188197	-0.000071	0.533521
O73	O	0.140329	-0.057845	0.475712
O74	O	0.140276	0.057718	0.591350
C75	C	-0.059598	0.031155	0.564793
C76	C	-0.081722	-0.000083	0.533554
C77	C	-0.059598	-0.031320	0.502309
C78	C	-0.125969	-0.000082	0.533555
C79	C	-0.148093	0.031154	0.564800
C80	C	-0.125971	0.062389	0.596044
C81	C	-0.081722	0.062391	0.596038
C82	C	-0.081720	-0.062554	0.471065
C83	C	-0.125969	-0.062554	0.471073
C84	C	-0.148093	-0.031317	0.502318
C85	C	0.601276	-0.000075	0.533554
C86	C	0.648365	-0.000075	0.533561
C87	C	0.462548	-0.000053	0.373531
C88	C	0.462554	-0.000046	0.319228
C89	C	0.516727	0.582183	0.502302
C90	C	0.516730	0.633206	0.502304
O91	O	0.562813	0.686164	0.475757
N92	N	0.462546	0.627480	0.533538
C93	C	0.408354	0.570727	0.564777
O94	O	0.362266	0.570542	0.591345
C95	C	0.408352	0.519706	0.564778
C96	C	0.462540	0.525437	0.533537
C97	C	0.570911	0.587911	0.471064
C98	C	0.570907	0.536892	0.471061
C99	C	0.516720	0.480146	0.502297
C100	C	0.462536	0.474418	0.533535
C101	C	0.354161	0.462955	0.596021
C102	C	0.354163	0.411933	0.596020
C103	C	0.408351	0.417664	0.564779
C104	C	0.408345	0.366652	0.564768
N105	N	0.462530	0.372378	0.533534
C106	C	0.516717	0.429125	0.502298
C107	C	0.408364	0.677877	0.564773
C108	C	0.408366	0.728897	0.564768
C109	C	0.516742	0.791372	0.502295
C110	C	0.516740	0.740351	0.502297
C111	C	0.462549	0.683603	0.533538
C112	C	0.516706	0.321979	0.502295
C113	C	0.516697	0.270953	0.502293
C114	C	0.408322	0.208483	0.564768
C115	C	0.408330	0.259504	0.564768
C116	C	0.462526	0.316254	0.533530
O117	O	0.362287	0.313675	0.591302
O118	O	0.562797	0.429299	0.475741
C119	C	0.408337	-0.031332	0.013765
C120	C	0.408334	-0.031338	-0.037253
O121	O	0.362251	-0.057927	-0.037077
N122	N	0.462518	-0.000094	-0.094005
C123	C	0.516710	0.031152	-0.099738
O124	O	0.562797	0.057726	-0.152695
C125	C	0.516712	0.031153	-0.048720
C126	C	0.462524	-0.000087	0.008031
C127	C	0.354153	-0.062571	0.070514
C128	C	0.354157	-0.062565	0.121529
C129	C	0.408344	-0.031320	0.115795
C130	C	0.462528	-0.000081	0.059046
C131	C	0.570903	0.062395	-0.054454
C132	C	0.570901	0.062394	-0.003430
C133	C	0.516713	0.031153	0.053322
C134	C	0.516718	0.031170	0.104327
N135	N	0.462534	-0.000073	0.161079
C136	C	0.408347	-0.031318	0.166813
C137	C	0.516700	0.031146	-0.206877
C138	C	0.516698	0.031148	-0.257894
C139	C	0.408322	-0.031342	-0.195406
C140	C	0.408324	-0.031341	-0.144388
C141	C	0.462515	-0.000098	-0.150125
C142	C	0.408358	-0.031302	0.273945
C143	C	0.408367	-0.031291	0.324962
C144	C	0.516742	0.031197	0.262469
C145	C	0.516734	0.031188	0.211457
C146	C	0.462537	-0.000065	0.217199
O147	O	0.562777	0.057744	0.104196
O148	O	0.362267	-0.057894	0.219771
C149	C	0.462516	-0.000093	0.693533
C150	C	0.462510	-0.000100	0.747836
C151	C	0.323771	-0.000091	0.693511
C152	C	0.276677	-0.000097	0.747806
C153	C	0.323804	-0.160053	0.533512
C154	C	0.276721	-0.214349	0.533505
C155	C	0.323788	-0.160073	0.693513
C156	C	0.276699	-0.214376	0.747809
C157	C	0.601276	0.159928	0.373550
C158	C	0.648365	0.214231	0.319254
C159	C	0.601292	-0.000055	0.373553
C160	C	0.648387	-0.000048	0.319257
C161	C	0.601260	0.159908	0.533551
C162	C	0.648343	0.214204	0.533558
C163	C	0.254562	0.031149	0.742060
C164	C	0.210318	0.031155	0.793072
C165	C	0.188188	-0.000089	0.849829
C166	C	0.210308	-0.031336	0.855574
C167	C	0.254554	-0.031338	0.804563
C168	C	0.254610	-0.271096	0.564746
C169	C	0.210377	-0.322118	0.564738
C170	C	0.188252	-0.316391	0.533491
C171	C	0.210367	-0.259639	0.502247
C172	C	0.254603	-0.208618	0.502252
C173	C	0.254580	-0.208642	0.804556
C174	C	0.210341	-0.259660	0.855578
C175	C	0.188220	-0.316412	0.849852
C176	C	0.210344	-0.322146	0.793100
C177	C	0.254585	-0.271128	0.742079
C178	C	0.670490	0.208496	0.262508
C179	C	0.714742	0.259514	0.211486
C180	C	0.736865	0.316267	0.217211
C181	C	0.714739	0.322000	0.273964
C182	C	0.670490	0.270982	0.324984
C183	C	0.670507	-0.031289	0.325003
C184	C	0.714763	-0.031281	0.273992
C185	C	0.736895	-0.000036	0.217235
C186	C	0.714772	0.031209	0.211490
C187	C	0.670520	0.031204	0.262501
C188	C	0.670454	0.208458	0.564810
C189	C	0.714687	0.259470	0.564828
C190	C	0.736812	0.316227	0.533590
C191	C	0.714697	0.321972	0.502337
C192	C	0.670461	0.270960	0.502323
H193	H	0.272589	0.056608	0.590187
H194	H	0.152159	-0.000083	0.891360
H195	H	0.732750	0.254834	0.165280
C196	C	0.739115	0.065567	0.149051
N197	N	0.757447	0.091440	0.102021
H198	H	0.272584	-0.162435	0.809229
H199	H	0.192283	-0.056773	0.901792
H200	H	0.652491	-0.056737	0.371213
H201	H	0.652511	0.056643	0.257814
H202	H	0.310031	-0.088001	0.167735
C203	C	0.294538	-0.096940	0.076835
N204	N	0.249631	-0.122823	0.081602
H205	H	0.152233	-0.357940	0.533492
H206	H	0.364205	0.254837	0.590198
C207	C	-0.353854	-0.065692	0.467962
N208	N	-0.372196	-0.091599	0.442094
H209	H	0.310033	0.365728	0.621462
H210	H	0.152196	-0.357949	0.891401
H211	H	0.615031	0.087829	-0.008108
H212	H	0.272589	-0.275806	0.695875
C213	C	0.348755	0.722586	0.599128
N214	N	0.303854	0.717829	0.625012
C215	C	0.785536	0.372382	0.161081
N216	N	0.822191	0.414646	0.118801
H217	H	0.652446	0.162248	0.590248
H218	H	0.192347	-0.254985	0.476807
H219	H	0.732689	0.254781	0.590277
C220	C	0.576350	0.746661	0.467934
N221	N	0.621251	0.751418	0.442053
C222	C	0.785474	0.372336	0.533610
N223	N	0.822128	0.414595	0.533627
H224	H	0.732757	0.368214	0.278619
H225	H	0.560826	0.275625	0.476850
H226	H	0.272555	-0.056786	0.809250
H227	H	0.772928	-0.000037	0.175703
H228	H	0.615039	0.634114	0.445628
C229	C	0.278913	-0.146197	0.467890
N230	N	0.297221	-0.099183	0.442008
H231	H	0.732718	0.368190	0.476904
C232	C	0.576325	0.384398	0.467925
N233	N	0.621230	0.431411	0.442033
C234	C	0.185988	0.065524	0.786739
N235	N	0.167663	0.091410	0.781967
C236	C	0.185999	-0.384579	0.786811
N237	N	0.167658	-0.431606	0.782077
H238	H	-0.143989	0.087825	0.621482
C239	C	0.186053	-0.384541	0.599117
N240	N	0.167732	-0.431556	0.625014
H241	H	0.192314	-0.056741	0.476821
H242	H	0.192332	-0.254981	0.901783
C243	C	0.278900	0.065526	0.679632
N244	N	0.297231	0.091424	0.632612
C245	C	0.348746	0.615454	0.599134
N246	N	0.303841	0.568440	0.625015
H247	H	0.652479	0.162290	0.257834
C248	C	0.646152	0.277291	0.467932
N249	N	0.627847	0.282063	0.442024
C250	C	0.739085	-0.065660	0.280325
N251	N	0.757401	-0.091555	0.285096
C252	C	0.630519	0.543205	0.436702
N253	N	0.675422	0.547965	0.410823
H254	H	0.069033	0.087836	0.621460
C255	C	0.185994	0.065533	0.599133
N256	N	0.167676	0.091425	0.625020
H257	H	0.652476	0.275659	0.371189
C258	C	-0.017547	0.096770	0.630392
N259	N	-0.035858	0.122670	0.656272
H260	H	-0.267250	0.056603	0.590241
H261	H	-0.267258	-0.056756	0.476872
C262	C	-0.017594	-0.096978	0.436737
N263	N	-0.035961	-0.122918	0.410900
C264	C	0.075352	-0.096932	0.436690
N265	N	0.093678	-0.122817	0.410800
C266	C	-0.353860	0.065519	0.599180
N267	N	-0.372205	0.091390	0.625073
C268	C	0.294549	0.456637	0.630389
N269	N	0.249645	0.451876	0.656278
H270	H	0.272593	-0.056740	0.476819
H271	H	-0.063711	0.087831	0.621477
H272	H	-0.143975	-0.087992	0.445628
H273	H	0.560865	0.837586	0.476861
C274	C	0.348714	-0.065712	-0.081964
N275	N	0.303813	-0.091604	-0.034947
C276	C	0.348714	-0.065718	-0.189107
N277	N	0.303821	-0.091608	-0.184366
C278	C	0.348739	-0.065678	0.280271
N279	N	0.303833	-0.091566	0.285035
H280	H	-0.063713	-0.087993	0.445623
H281	H	0.364238	-0.056733	0.371171
C282	C	0.576318	0.065528	-0.213197
N283	N	0.621223	0.091426	-0.217960
H284	H	0.364204	0.162271	0.590198
H285	H	0.272619	-0.275770	0.590191
H286	H	0.560823	0.056595	-0.304100
C287	C	0.576344	0.065557	0.149028
N288	N	0.621243	0.091439	0.102009
C289	C	0.576345	0.065564	0.256173
N290	N	0.621239	0.091446	0.251432
C291	C	0.630515	0.096761	-0.116872
N292	N	0.675419	0.122647	-0.163887
