data_functionalizedCrystal
_audit_creation_method	'MofGen! by Chris Wilmer'
_symmetry_space_group_name_H-M	'P1'
_symmetry_Int_Tables_number	1
_symmetry_cell_setting	triclinic
loop_
_symmetry_equiv_pos_as_xyz
  x,y,z
_cell_length_a	16.776229
_cell_length_b	17.699083
_cell_length_c	17.699104
_cell_angle_alpha	96.712734
_cell_angle_beta	89.993906
_cell_angle_gamma	89.991353
loop_
_atom_site_label
_atom_site_type_symbol
_atom_site_fract_x
_atom_site_fract_y
_atom_site_fract_z
O1	O	0.066259	1.004070	-0.095712
O2	O	0.566259	1.504070	0.404288
O3	O	0.066267	0.783693	-0.108165
O4	O	0.566267	1.283693	0.391835
O5	O	0.066256	0.900099	0.008250
O6	O	0.566256	1.400099	0.508250
O7	O	0.066270	0.887663	-0.212126
O8	O	0.566270	1.387663	0.287874
O9	O	-0.066321	0.900115	0.008257
O10	O	0.433679	1.400115	0.508257
O11	O	-0.066309	0.783708	-0.108157
O12	O	0.433691	1.283708	0.391843
O13	O	-0.066318	1.004086	-0.095705
O14	O	0.433682	1.504086	0.404295
Zn15	Zn	-0.087363	0.893899	-0.101930
Zn16	Zn	0.412637	1.393899	0.398070
Zn17	Zn	0.087312	0.893879	-0.101940
Zn18	Zn	0.587312	1.393879	0.398060
O19	O	-0.066306	0.887679	-0.212119
O20	O	0.433694	1.387679	0.287881
C21	C	-0.000020	0.755503	-0.107715
C22	C	0.499980	1.255503	0.392285
C23	C	-0.000017	0.671485	-0.106376
C24	C	0.499983	1.171485	0.393624
N25	N	0.206524	0.893865	-0.101941
N26	N	0.706524	1.393865	0.398059
C27	C	-0.000033	0.899659	0.036450
C28	C	0.499967	1.399659	0.536450
C29	C	-0.000033	0.898314	0.120467
C30	C	0.499967	1.398314	0.620467
N31	N	-0.206574	0.893919	-0.101923
N32	N	0.293426	1.393919	0.398077
C33	C	0.751683	0.945559	-0.050482
C34	C	1.251683	1.445559	0.449518
C35	C	0.668231	0.945549	-0.050481
C36	C	1.168231	1.445549	0.449519
C37	C	0.626523	0.893903	-0.101926
C38	C	1.126523	1.393903	0.398074
C39	C	0.668271	0.842258	-0.153369
C40	C	1.168271	1.342258	0.346631
C41	C	0.751722	0.842264	-0.153365
C42	C	1.251722	1.342264	0.346635
C43	C	0.331724	0.842230	-0.153385
C44	C	0.831724	1.342230	0.346615
C45	C	0.248268	0.842229	-0.153386
C46	C	0.748268	1.342229	0.346614
C47	C	0.248233	0.945515	-0.050500
C48	C	0.748233	1.445515	0.449500
C49	C	0.331684	0.945521	-0.050497
C50	C	0.831684	1.445521	0.449503
C51	C	0.373425	0.893874	-0.101937
C52	C	0.873425	1.393874	0.398063
C53	C	0.463913	0.893884	-0.101936
C54	C	0.963913	1.393884	0.398064
C55	C	0.536036	0.893896	-0.101931
C56	C	1.036036	1.393896	0.398069
C57	C	-0.000029	1.032275	-0.096155
C58	C	0.499971	1.532275	0.403845
C59	C	-0.000027	1.116293	-0.097493
C60	C	0.499973	1.616293	0.402507
C61	C	-0.000029	1.164909	-0.029161
C62	C	0.499971	1.664909	0.470839
C63	C	-0.000031	1.243852	-0.030423
C64	C	0.499969	1.743852	0.469577
C65	C	-0.000026	1.274178	-0.100019
C66	C	0.499974	1.774178	0.399981
C67	C	-0.000027	1.225556	-0.168357
C68	C	0.499973	1.725556	0.331643
C69	C	-0.000030	1.146614	-0.167093
C70	C	0.499970	1.646614	0.332907
C71	C	-0.000015	1.543920	-0.173452
C72	C	0.499985	2.043920	0.326548
C73	C	-0.000009	1.622868	-0.174710
C74	C	0.499991	2.122868	0.325290
C75	C	-0.000016	1.641158	-0.036781
C76	C	0.499984	2.141158	0.463219
C77	C	-0.000019	1.562216	-0.035518
C78	C	0.499981	2.062216	0.464482
C79	C	-0.000024	1.513601	-0.103856
C80	C	0.499976	2.013601	0.396144
C81	C	-0.000023	1.428001	-0.102486
C82	C	0.499977	1.928001	0.397514
C83	C	-0.000022	1.359776	-0.101389
C84	C	0.499978	1.859776	0.398611
C85	C	-0.000016	0.888120	-0.240319
C86	C	0.499984	1.388120	0.259681
C87	C	-0.000011	0.889464	-0.324337
C88	C	0.499989	1.389464	0.175663
C89	C	-0.000013	0.959058	0.645338
C90	C	0.499987	1.459058	1.145338
C91	C	-0.000020	0.960317	0.566395
C92	C	0.499980	1.460317	1.066395
C93	C	-0.000019	0.891982	0.517777
C94	C	0.499981	1.391982	1.017777
C95	C	-0.000019	0.822383	0.548107
C96	C	0.499981	1.322383	1.048107
C97	C	-0.000018	0.821125	0.627049
C98	C	0.499982	1.321125	1.127049
C99	C	-0.000026	0.827456	0.229741
C100	C	0.499974	1.327456	0.729741
C101	C	-0.000025	0.828720	0.150794
C102	C	0.499975	1.328720	0.650794
C103	C	-0.000028	0.966648	0.169086
C104	C	0.499972	1.466648	0.669086
C105	C	-0.000027	0.965390	0.248029
C106	C	0.499973	1.465390	0.748029
C107	C	-0.000031	0.895792	0.278352
C108	C	0.499969	1.395792	0.778352
C109	C	-0.000025	0.894427	0.363951
C110	C	0.499975	1.394427	0.863951
C111	C	-0.000020	0.893345	0.432179
C112	C	0.499980	1.393345	0.932179
H113	H	0.785636	0.987618	-0.008593
H114	H	1.285636	1.487618	0.491407
H115	H	-0.000015	1.504346	-0.229097
H116	H	0.499985	2.004346	0.270903
H117	H	-0.000036	1.283433	0.025221
H118	H	0.499964	1.783433	0.525221
H119	H	-0.000028	1.250254	-0.225023
H120	H	0.499972	1.750254	0.274977
C121	C	-0.000012	1.136459	-0.303561
C122	C	0.499988	1.636459	0.196439
C123	C	-0.000022	1.093173	-0.242207
C124	C	0.499978	1.593173	0.257793
H125	H	-0.000004	1.103465	-0.349933
H126	H	0.499996	1.603465	0.150067
H127	H	-0.046240	1.167636	-0.301184
H128	H	0.453760	1.667636	0.198816
H129	H	0.046225	1.167624	-0.301181
H130	H	0.546225	1.667624	0.198819
H131	H	-0.046262	1.062012	-0.244584
H132	H	0.453738	1.562012	0.255416
H133	H	0.046211	1.061982	-0.244586
H134	H	0.546211	1.561982	0.255414
H135	H	-0.000014	1.023319	0.144388
H136	H	0.499986	1.523319	0.644388
C137	C	0.068137	0.705195	0.508209
C138	C	0.568137	1.205195	1.008209
C139	C	-0.000016	0.747266	0.494669
C140	C	0.499984	1.247266	0.994669
H141	H	0.068137	0.658818	0.475222
H142	H	0.568137	1.158818	0.975222
H143	H	0.114359	0.733733	0.499021
H144	H	0.614359	1.233733	0.999021
H145	H	0.068127	0.694491	0.559567
H146	H	0.568127	1.194491	1.059567
H147	H	-0.000003	0.757975	0.443312
H148	H	0.499997	1.257975	0.943312
H149	H	-0.046250	0.718722	0.503851
H150	H	0.453750	1.218722	1.003851
C151	C	0.068131	1.041741	0.488218
C152	C	0.568131	1.541741	0.988218
C153	C	-0.000017	1.036817	0.533063
C154	C	0.499983	1.536817	1.033063
H155	H	0.068128	1.088970	0.467639
H156	H	0.568128	1.588970	0.967639
H157	H	0.114356	1.038375	0.518627
H158	H	0.614356	1.538375	1.018627
H159	H	0.068118	1.001222	0.447967
H160	H	0.568118	1.501222	0.947967
H161	H	-0.000002	1.077333	0.573318
H162	H	0.499998	1.577333	1.073318
H163	H	-0.046254	1.040191	0.502652
H164	H	0.453746	1.540191	1.002652
H165	H	-0.000024	1.021036	0.287610
H166	H	0.499976	1.521036	0.787610
H167	H	-0.000009	1.647556	-0.231386
H168	H	0.499991	2.147556	0.268614
C169	C	0.574348	1.048570	-0.034137
C170	C	1.074348	1.548570	0.465863
C171	C	0.622340	1.002314	0.006058
C172	C	1.122340	1.502314	0.506058
H173	H	0.546013	1.083611	0.000771
H174	H	1.046013	1.583611	0.500771
H175	H	0.606901	1.075671	-0.065659
H176	H	1.106901	1.575671	0.434341
H177	H	0.537574	1.017797	-0.064772
H178	H	1.037574	1.517797	0.435228
H179	H	0.659119	1.033086	0.036689
H180	H	1.159119	1.533086	0.536689
H181	H	0.589784	0.975211	0.037593
H182	H	1.089784	1.475211	0.537593
H183	H	-0.000026	0.773070	0.111210
H184	H	0.499974	1.273070	0.611210
C185	C	-0.000004	1.018378	0.774472
C186	C	0.499996	1.518378	1.274472
C187	C	-0.000011	1.034175	0.698776
C188	C	0.499989	1.534175	1.198776
H189	H	0.000000	1.064754	0.807459
H190	H	0.500000	1.564754	1.307459
H191	H	-0.046233	0.989846	0.783656
H192	H	0.453767	1.489846	1.283656
H193	H	0.046233	0.989828	0.783638
H194	H	0.546233	1.489828	1.283638
H195	H	-0.046251	1.062719	0.689609
H196	H	0.453749	1.562719	1.189609
H197	H	0.046222	1.062718	0.689588
H198	H	0.546222	1.562718	1.189588
H199	H	-0.000028	1.140224	0.027512
H200	H	0.499972	1.640224	0.527512
C201	C	-0.068172	0.746022	0.307906
C202	C	0.431828	1.246022	0.807906
C203	C	-0.000020	0.750956	0.263068
C204	C	0.499980	1.250956	0.763068
H205	H	-0.068167	0.698790	0.328479
H206	H	0.431833	1.198790	0.828479
H207	H	-0.068170	0.786534	0.348154
H208	H	0.431830	1.286534	0.848154
H209	H	-0.114400	0.749383	0.277487
H210	H	0.385600	1.249383	0.777487
H211	H	0.046208	0.747601	0.293488
H212	H	0.546208	1.247601	0.793488
H213	H	-0.000015	0.710433	0.222815
H214	H	0.499985	1.210433	0.722815
H215	H	-0.000022	0.764455	0.651738
H216	H	0.499978	1.264455	1.151738
C217	C	0.323265	1.047612	0.051211
C218	C	0.823265	1.547612	0.551211
C219	C	0.377528	1.002290	0.006055
C220	C	0.877528	1.502290	0.506055
H221	H	0.351569	1.082653	0.086129
H222	H	0.851569	1.582653	0.586129
H223	H	0.290718	1.074712	0.019682
H224	H	0.790718	1.574712	0.519682
H225	H	0.290717	1.016205	0.078457
H226	H	0.790717	1.516205	0.578457
H227	H	0.410073	1.033696	-0.021195
H228	H	0.910073	1.533696	0.478805
H229	H	0.410089	0.975188	0.037588
H230	H	0.910089	1.475188	0.537588
C231	C	-0.000036	1.588227	0.100697
C232	C	0.499964	2.088227	0.600697
C233	C	-0.000029	1.528883	0.040984
C234	C	0.499971	2.028883	0.540984
H235	H	-0.000049	1.567647	0.147926
H236	H	0.499951	2.067647	0.647926
H237	H	0.046197	1.618625	0.097337
H238	H	0.546197	2.118625	0.597337
H239	H	-0.046269	1.618647	0.097331
H240	H	0.453731	2.118647	0.597331
H241	H	0.046207	1.498465	0.044347
H242	H	0.546207	1.998465	0.544347
H243	H	-0.046266	1.498472	0.044345
H244	H	0.453734	1.998472	0.544345
H245	H	0.785708	0.800213	-0.195253
H246	H	1.285708	1.300213	0.304747
H247	H	0.214310	0.800169	-0.195280
H248	H	0.714310	1.300169	0.304720
C249	C	0.323364	0.740140	-0.255090
C250	C	0.823364	1.240140	0.244910
C251	C	0.377599	0.785466	-0.209933
C252	C	0.877599	1.285466	0.290067
H253	H	0.351690	0.705099	-0.290005
H254	H	0.851690	1.205099	0.209995
H255	H	0.290819	0.713040	-0.223562
H256	H	0.790819	1.213040	0.276438
H257	H	0.290812	0.771544	-0.282339
H258	H	0.790812	1.271544	0.217661
H259	H	0.410148	0.754062	-0.182680
H260	H	0.910148	1.254062	0.317320
H261	H	0.410159	0.812568	-0.241466
H262	H	0.910159	1.312568	0.258534
C263	C	0.540365	0.796390	-0.199066
C264	C	1.040365	1.296390	0.300934
C265	C	0.622428	0.785488	-0.209920
C266	C	1.122428	1.285488	0.290080
H267	H	0.512066	0.761346	-0.233984
H268	H	1.012066	1.261346	0.266016
H269	H	0.526685	0.788356	-0.148544
H270	H	1.026685	1.288356	0.351456
H271	H	0.526688	0.846860	-0.207321
H272	H	1.026688	1.346860	0.292679
H273	H	0.636105	0.735019	-0.201659
H274	H	1.136105	1.235019	0.298341
H275	H	0.636113	0.793516	-0.260454
H276	H	1.136113	1.293516	0.239546
C277	C	0.154374	0.962313	0.052525
C278	C	0.654374	1.462313	0.552525
C279	C	0.202348	1.002280	0.006054
C280	C	0.702348	1.502280	0.506054
H281	H	0.126052	0.997359	0.087439
H282	H	0.626052	1.497359	0.587439
H283	H	0.117595	0.931561	0.021888
H284	H	0.617595	1.431561	0.521888
H285	H	0.186944	0.930924	0.079774
H286	H	0.686944	1.430924	0.579774
H287	H	0.169777	1.033665	-0.021200
H288	H	0.669777	1.533665	0.478800
H289	H	0.239131	1.033045	0.036695
H290	H	0.739131	1.533045	0.536695
H291	H	-0.000015	1.680750	0.018863
H292	H	0.499985	2.180750	0.518863
