data_functionalizedCrystal
_audit_creation_method	'MofGen! by Chris Wilmer'
_symmetry_space_group_name_H-M	'P1'
_symmetry_Int_Tables_number	1
_symmetry_cell_setting	triclinic
loop_
_symmetry_equiv_pos_as_xyz
  x,y,z
_cell_length_a	12.759395
_cell_length_b	25.639240
_cell_length_c	12.759387
_cell_angle_alpha	90.043601
_cell_angle_beta	90.021028
_cell_angle_gamma	90.033519
loop_
_atom_site_label
_atom_site_type_symbol
_atom_site_fract_x
_atom_site_fract_y
_atom_site_fract_z
Zn1	Zn	1.606137	-0.208113	0.593926
Zn2	Zn	1.605972	-0.295558	0.418207
Zn3	Zn	1.430435	-0.208140	0.418261
Zn4	Zn	1.430372	-0.295520	0.593845
O5	O	1.518229	-0.251833	0.506060
O6	O	1.753136	-0.219717	0.570628
O7	O	1.582644	-0.283990	0.271193
O8	O	1.453838	-0.134971	0.441620
O9	O	1.753015	-0.283963	0.441528
O10	O	1.582925	-0.134951	0.570681
O11	O	1.453678	-0.219764	0.271233
O12	O	1.283406	-0.219726	0.441542
O13	O	1.453730	-0.283898	0.740877
O14	O	1.283359	-0.283924	0.570542
O15	O	1.582864	-0.219680	0.740937
O16	O	1.582583	-0.368719	0.441449
O17	O	1.453570	-0.368690	0.570489
C18	C	1.245262	-0.251825	0.506039
C19	C	1.128485	-0.251834	0.506056
C20	C	1.518081	-0.387675	0.505978
C21	C	1.518113	-0.445789	0.505978
C22	C	0.909176	-0.185054	0.640739
C23	C	0.964105	-0.151653	0.708051
C24	C	1.073827	-0.151644	0.708033
C25	C	1.128622	-0.185041	0.640698
C26	C	1.073692	-0.218442	0.573386
C27	C	0.963968	-0.218446	0.573409
C28	C	1.073556	-0.285235	0.438744
C29	C	0.963834	-0.285242	0.438755
C30	C	1.128350	-0.318631	0.371408
C31	C	1.073421	-0.352031	0.304090
C32	C	0.963693	-0.352038	0.304110
C33	C	0.908905	-0.318643	0.371443
C34	C	1.585478	-0.806103	0.573383
C35	C	1.585509	-0.860708	0.573404
O36	O	1.642609	-0.888903	0.630630
N37	N	1.518375	-0.888072	0.506161
C38	C	1.451197	-0.860829	0.438901
O39	O	1.394097	-0.889118	0.381708
C40	C	1.451162	-0.806225	0.438885
C41	C	1.518308	-0.778864	0.506125
C42	C	1.652618	-0.778742	0.640618
C43	C	1.652588	-0.724142	0.640595
C44	C	1.585418	-0.696902	0.573337
C45	C	1.518278	-0.724264	0.506102
C46	C	1.383980	-0.778983	0.371631
C47	C	1.383950	-0.724376	0.371622
C48	C	1.451096	-0.697015	0.438861
C49	C	1.451079	-0.642424	0.438821
N50	N	1.518213	-0.615060	0.506064
C51	C	1.585383	-0.642299	0.573322
C52	C	1.451276	-0.975499	0.438939
C53	C	1.451316	-1.030102	0.438948
C54	C	1.585626	-1.029977	0.573453
C55	C	1.585591	-0.975374	0.573438
C56	C	1.518410	-0.948135	0.506182
C57	C	1.585316	-0.527634	0.573267
C58	C	1.585283	-0.473029	0.573235
C59	C	1.450969	-0.473158	0.438735
C60	C	1.451005	-0.527759	0.438762
C61	C	1.518182	-0.554995	0.506037
O62	O	1.394005	-0.614194	0.381627
O63	O	1.642464	-0.614003	0.630514
C64	C	1.792262	-0.251841	0.506081
C65	C	1.909039	-0.251845	0.506090
C66	C	1.518308	-0.251781	0.780094
C67	C	1.518342	-0.251760	0.896870
C68	C	1.518407	-0.115460	0.506166
C69	C	1.518482	-0.057346	0.506211
C70	C	1.518210	-0.251846	0.233092
C71	C	1.518380	-0.251721	0.116316
C72	C	1.652818	-0.184894	0.896952
C73	C	1.720071	-0.151453	0.951854
C74	C	1.720096	-0.151434	1.061576
C75	C	1.652860	-0.184858	1.116398
C76	C	1.585607	-0.218299	1.061496
C77	C	1.585591	-0.218316	0.951772
C78	C	1.451128	-0.285161	1.061414
C79	C	1.451106	-0.285184	0.951693
C80	C	1.383891	-0.318585	1.116237
C81	C	1.316642	-0.352029	1.061335
C82	C	1.316620	-0.352048	0.951607
C83	C	1.383853	-0.318624	0.896791
H84	H	0.819835	-0.185046	0.640738
H85	H	1.652878	-0.184835	1.205739
C86	C	1.133694	-0.388764	0.230030
C87	C	1.254385	-0.388759	0.230016
C88	C	1.314662	-0.425493	0.155954
C89	C	1.254250	-0.462232	0.081905
C90	C	1.133553	-0.462239	0.081916
C91	C	1.073275	-0.425505	0.155979
H92	H	1.299111	-0.361561	0.284833
H93	H	1.404010	-0.425488	0.155946
H94	H	1.298871	-0.489425	0.027080
H95	H	1.088826	-0.489436	0.027099
H96	H	0.983927	-0.425510	0.155986
H97	H	0.918976	-0.379239	0.249301
H98	H	1.774853	-0.124201	1.106277
H99	H	1.383913	-0.318565	1.205578
H100	H	1.707261	-0.701867	0.695350
H101	H	1.707316	-0.800915	0.695393
H102	H	1.640010	-0.549804	0.628056
H103	H	1.640267	-0.953099	0.628191
C104	C	1.377460	-1.060195	0.364976
C105	C	1.386090	-1.052735	0.245546
C106	C	1.312226	-1.082825	0.171576
C107	C	1.229732	-1.120376	0.217037
C108	C	1.221099	-1.127837	0.336473
C109	C	1.294963	-1.097747	0.410443
H110	H	1.447160	-1.024936	0.211887
H111	H	1.318617	-1.077301	0.083161
H112	H	1.175053	-1.142650	0.162280
H113	H	1.160029	-1.155636	0.370132
H114	H	1.288572	-1.103270	0.498858
C115	C	1.659143	-0.442932	0.647208
C116	C	1.733021	-0.472899	0.721195
C117	C	1.806876	-0.442805	0.795168
C118	C	1.806853	-0.382743	0.795153
C119	C	1.732973	-0.352773	0.721163
C120	C	1.659118	-0.382867	0.647191
H121	H	1.733040	-0.517363	0.721209
H122	H	1.861567	-0.464991	0.849940
H123	H	1.861525	-0.360466	0.849912
H124	H	1.732954	-0.308309	0.721150
H125	H	1.604427	-0.360681	0.592418
H126	H	1.396283	-0.450971	0.383971
H127	H	0.819564	-0.318639	0.371453
C128	C	1.377384	-0.945540	0.364937
C129	C	1.386036	-0.953104	0.245514
C130	C	1.312144	-0.923148	0.171513
C131	C	1.229600	-0.885628	0.216937
C132	C	1.220944	-0.878062	0.336367
C133	C	1.294836	-0.908018	0.410367
H134	H	1.447144	-0.980881	0.211883
H135	H	1.318553	-0.928750	0.083103
H136	H	1.174901	-0.863453	0.162158
H137	H	1.159837	-0.850286	0.369998
H138	H	1.288428	-0.902417	0.498777
C139	C	0.903830	-0.114912	0.782107
C140	C	0.783140	-0.114913	0.782124
C141	C	0.722870	-0.078171	0.856177
C142	C	0.783290	-0.041428	0.930212
C143	C	0.903987	-0.041426	0.930197
C144	C	0.964257	-0.078168	0.856144
H145	H	0.738408	-0.142113	0.727317
H146	H	0.633522	-0.078173	0.856188
H147	H	0.738675	-0.014230	0.985030
H148	H	0.948720	-0.014226	0.985004
H149	H	1.053605	-0.078166	0.856133
C150	C	1.310051	-0.694414	0.297634
C151	C	1.318688	-0.701977	0.178208
C152	C	1.244793	-0.672016	0.104220
C153	C	1.162261	-0.634492	0.149657
C154	C	1.153621	-0.626929	0.269088
C155	C	1.227516	-0.656889	0.343077
H156	H	1.379786	-0.729755	0.144568
H157	H	1.251189	-0.677615	0.015808
H158	H	1.107559	-0.612314	0.094886
H159	H	1.092523	-0.599150	0.302729
H160	H	1.221119	-0.651290	0.431488
H161	H	1.640318	-1.052165	0.628220
C162	C	1.134253	-0.114901	0.782072
C163	C	1.209695	-0.073822	0.736686
C164	C	1.270120	-0.037079	0.810724
C165	C	1.255104	-0.041414	0.930147
C166	C	1.179659	-0.082495	0.975539
C167	C	1.119233	-0.119238	0.901502
H168	H	1.220814	-0.070611	0.648276
H169	H	1.325970	-0.006668	0.777121
H170	H	1.299834	-0.014214	0.984954
H171	H	1.168539	-0.085706	1.063949
H172	H	1.063384	-0.149649	0.935105
C173	C	1.242639	-0.388834	0.891218
C174	C	1.168688	-0.425595	0.951525
C175	C	1.094706	-0.462382	0.891141
C176	C	1.094674	-0.462407	0.770451
C177	C	1.168627	-0.425644	0.710138
C178	C	1.242610	-0.388857	0.770521
H179	H	1.168709	-0.425578	1.040873
H180	H	1.039960	-0.489596	0.935790
H181	H	1.039907	-0.489638	0.725751
H182	H	1.168606	-0.425661	0.620790
H183	H	1.297355	-0.361643	0.725873
H184	H	1.261898	-0.379238	1.105980
H185	H	1.217963	-0.185035	0.640698
H186	H	1.652814	-0.184911	0.807611
H187	H	1.217692	-0.318625	0.371405
H188	H	1.329303	-0.801251	0.316876
H189	H	1.396338	-0.550037	0.384002
H190	H	1.774812	-0.124239	0.907206
H191	H	1.383846	-0.318638	0.807450
