data_functionalizedCrystal
_audit_creation_method	'MofGen! by Chris Wilmer'
_symmetry_space_group_name_H-M	'P1'
_symmetry_Int_Tables_number	1
_symmetry_cell_setting	triclinic
loop_
_symmetry_equiv_pos_as_xyz
  x,y,z
_cell_length_a	14.421503
_cell_length_b	11.026607
_cell_length_c	11.026607
_cell_angle_alpha	71.413983
_cell_angle_beta	89.992800
_cell_angle_gamma	89.991135
loop_
_atom_site_label
_atom_site_type_symbol
_atom_site_fract_x
_atom_site_fract_y
_atom_site_fract_z
O1	O	0.077109	-1.726737	0.533608
O2	O	0.077111	-1.360157	0.472844
O3	O	0.077107	-1.513066	0.319936
O4	O	0.077113	-1.573829	0.686516
O5	O	-0.077117	-1.513039	0.319958
O6	O	-0.077113	-1.360131	0.472866
O7	O	-0.077114	-1.726711	0.533630
Cu8	Cu	-0.091195	-1.543419	0.503250
Cu9	Cu	0.091192	-1.543450	0.503224
O10	O	-0.077110	-1.573803	0.686538
C11	C	-0.000001	-1.312485	0.461645
C12	C	-0.000000	-1.170471	0.428228
N13	N	-0.219476	-1.543406	0.503270
C14	C	-0.000004	-1.501843	0.272287
C15	C	-0.000000	-1.468426	0.130273
C16	C	-0.469128	-1.472677	0.573930
C17	C	-0.530931	-1.593227	0.623818
C18	C	-0.408638	-1.543431	0.503246
C19	C	-0.530929	-1.422916	0.453395
C20	C	-0.591359	-1.543445	0.503224
C21	C	-0.469080	-1.664052	0.553203
C22	C	-0.469072	-1.493654	0.382714
C23	C	-0.530847	-1.614277	0.432571
C24	C	-0.303377	-1.543422	0.503262
C25	C	-0.696618	-1.543467	0.503210
N26	N	0.219473	-1.543470	0.503196
C27	C	-0.000000	-1.774384	0.544828
C28	C	0.000005	-1.916398	0.578245
C29	C	0.000002	-1.116821	0.520498
C30	C	0.000003	-0.970043	0.485962
C31	C	0.000001	-1.560695	0.076624
C32	C	0.000004	-1.526160	-0.070155
C33	C	0.000003	-1.585026	0.734187
C34	C	0.000005	-1.618443	0.876200
H35	H	-0.558102	-1.635342	0.725742
N36	N	-0.000002	-0.995055	0.709438
N37	N	-0.065009	-0.987043	0.781489
H38	H	-0.065015	-1.042592	0.874144
N39	N	-0.000014	-1.091766	0.297058
N40	N	-0.000020	-0.972645	0.269189
H41	H	-0.000032	-0.917059	0.176547
N42	N	0.000020	-0.891360	0.354779
N43	N	0.065031	-0.899358	0.282728
H44	H	0.065044	-0.843786	0.190081
H45	H	0.000011	-1.421590	-0.132884
H46	H	0.000074	-1.723013	-0.061072
N47	N	-0.435135	-1.791969	0.606223
N48	N	-0.349773	-1.812602	0.614828
H49	H	-0.325796	-1.902941	0.652274
N50	N	-0.000011	-1.691865	0.155331
N51	N	-0.065021	-1.734442	0.232091
H52	H	-0.065030	-1.827084	0.287679
H53	H	0.000006	-1.363863	0.067540
H54	H	-0.442029	-1.412934	0.633784
H55	H	-0.441880	-1.451511	0.280813
N56	N	-0.564623	-1.689456	0.357592
N57	N	-0.544599	-1.805607	0.387914
H58	H	-0.568454	-1.858707	0.334966
H59	H	-0.558099	-1.320993	0.411244
N60	N	-0.000006	-1.195526	0.651669
N61	N	-0.000011	-1.314648	0.679537
H62	H	-0.000017	-1.370233	0.772180
