data_functionalizedCrystal
_audit_creation_method	'MofGen! by Chris Wilmer'
_symmetry_space_group_name_H-M	'P1'
_symmetry_Int_Tables_number	1
_symmetry_cell_setting	triclinic
loop_
_symmetry_equiv_pos_as_xyz
  x,y,z
_cell_length_a	16.974800
_cell_length_b	10.654551
_cell_length_c	16.053802
_cell_angle_alpha	92.593346
_cell_angle_beta	91.074188
_cell_angle_gamma	83.936367
loop_
_atom_site_label
_atom_site_type_symbol
_atom_site_fract_x
_atom_site_fract_y
_atom_site_fract_z
O1	O	1.049952	0.160086	0.001546
O2	O	1.549952	0.660086	0.501546
O3	O	0.820596	0.179311	-0.013958
O4	O	1.320596	0.679311	0.486042
O5	O	0.940547	-0.013097	-0.005850
O6	O	1.440547	0.486903	0.494150
O7	O	0.930001	0.352493	-0.006562
O8	O	1.430001	0.852493	0.493438
O9	O	0.933944	-0.002550	0.132562
O10	O	1.433944	0.497450	0.632562
O11	O	0.813993	0.189857	0.124454
O12	O	1.313993	0.689857	0.624454
O13	O	1.043350	0.170633	0.139958
O14	O	1.543350	0.670633	0.639958
Zn15	Zn	0.927623	0.181920	0.154182
Zn16	Zn	1.427623	0.681920	0.654182
Zn17	Zn	0.936323	0.168024	-0.028182
Zn18	Zn	1.436323	0.668024	0.471818
O19	O	0.923399	0.363040	0.131850
O20	O	1.423399	0.863040	0.631850
C21	C	0.787927	0.183660	0.053263
C22	C	1.287927	0.683660	0.553263
C23	C	0.700419	0.180890	0.047347
C24	C	1.200419	0.680890	0.547347
C25	C	0.655713	0.185336	0.120019
C26	C	1.155713	0.685336	0.620019
C27	C	0.573492	0.182714	0.114463
C28	C	1.073492	0.682714	0.614463
C29	C	0.535977	0.175656	0.036235
C30	C	1.035977	0.675656	0.536235
C31	C	0.580689	0.171206	-0.036442
C32	C	1.080689	0.671206	0.463558
C33	C	0.662909	0.173819	-0.030886
C34	C	1.162909	0.673819	0.469114
C35	C	0.290460	0.167216	0.011525
C36	C	0.790460	0.667216	0.511525
C37	C	0.208233	0.164607	0.005974
C38	C	0.708233	0.664607	0.505974
C39	C	0.201042	0.176112	0.156880
C40	C	0.701042	0.676112	0.656880
C41	C	0.283264	0.178732	0.162430
C42	C	0.783264	0.678732	0.662430
C43	C	0.327969	0.174276	0.089753
C44	C	0.827969	0.674276	0.589753
N45	N	0.451933	0.172980	0.030554
N46	N	0.951933	0.672980	0.530554
N47	N	0.412012	0.176943	0.095434
N48	N	0.912012	0.676943	0.595434
C49	C	0.936471	-0.054613	0.063302
C50	C	1.436471	0.445387	0.563302
C51	C	0.934154	-0.194032	0.063139
C52	C	1.434154	0.305968	0.563139
C53	C	0.936666	-0.265282	-0.012381
C54	C	1.436666	0.234718	0.487619
C55	C	0.934482	-0.396279	-0.012525
C56	C	1.434482	0.103721	0.487475
C57	C	0.927277	-0.384765	0.138380
C58	C	1.427277	0.115235	0.638380
C59	C	0.929456	-0.253770	0.138522
C60	C	1.429456	0.246230	0.638522
C61	C	0.941365	-0.205544	-0.087764
C62	C	1.441365	0.294456	0.412236
C63	C	0.943878	-0.276795	-0.163291
C64	C	1.443878	0.223205	0.336709
C65	C	0.941694	-0.407792	-0.163434
C66	C	1.441694	0.092208	0.336566
C67	C	0.936997	-0.467538	-0.088051
C68	C	1.436997	0.032462	0.411949
C69	C	1.076019	0.166284	0.072735
C70	C	1.576019	0.666284	0.572735
C71	C	1.163527	0.169052	0.078645
C72	C	1.663527	0.669052	0.578645
C73	C	0.927474	0.404556	0.062696
C74	C	1.427474	0.904556	0.562696
C75	C	0.929792	0.543975	0.062853
C76	C	1.429792	1.043975	0.562853
N77	N	0.921692	0.191403	0.278642
N78	N	1.421692	0.691403	0.778642
N79	N	0.942260	0.158531	-0.152641
N80	N	1.442260	0.658531	0.347359
C81	C	0.972750	0.109562	0.325787
C82	C	1.472750	0.609562	0.825787
C83	C	0.968609	0.116208	0.412914
C84	C	1.468609	0.616208	0.912914
C85	C	0.913412	0.204700	0.452894
C86	C	1.413412	0.704700	0.952894
C87	C	0.862348	0.286544	0.405742
C88	C	1.362348	0.786544	0.905742
C89	C	0.866487	0.279892	0.318617
C90	C	1.366487	0.779892	0.818617
C91	C	0.895335	0.233722	0.713082
C92	C	1.395335	0.733722	1.213082
C93	C	0.891202	0.240371	0.800214
C94	C	1.391202	0.740371	1.300214
C95	C	0.997462	0.070032	0.807379
C96	C	1.497462	0.570032	1.307379
C97	C	1.001598	0.063393	0.720252
C98	C	1.501598	0.563393	1.220252
C99	C	0.950532	0.145232	0.673107
C100	C	1.450532	0.645232	1.173107
N101	N	0.909179	0.211498	0.541951
N102	N	1.409179	0.711498	1.041951
N103	N	0.954762	0.138428	0.584051
N104	N	1.454762	0.638428	1.084051
H105	H	0.177691	0.158863	-0.057732
H106	H	0.677691	0.658863	0.442268
H107	H	0.853756	0.300362	0.674704
H108	H	1.353756	0.800362	1.174704
Cl109	Cl	0.346650	0.161617	-0.079841
Cl110	Cl	0.846650	0.661617	0.420159
H111	H	0.927393	-0.195753	0.200017
H112	H	1.427393	0.304247	0.700017
H113	H	0.537097	0.186313	0.173640
H114	H	1.037097	0.686313	0.673640
Cl115	Cl	1.042148	-0.001686	0.275536
Cl116	Cl	1.542148	0.498314	0.775536
H117	H	1.039037	0.003401	0.845771
H118	H	1.539037	0.503401	1.345771
Cl119	Cl	1.032797	0.013320	0.472183
Cl120	Cl	1.532797	0.513320	0.972183
H121	H	0.817402	0.358593	0.438299
H122	H	1.317402	0.858593	0.938299
Cl123	Cl	0.821806	0.351632	0.850468
Cl124	Cl	1.321806	0.851632	1.350468
Cl125	Cl	0.702865	0.194217	0.218368
Cl126	Cl	1.202865	0.694217	0.718368
Cl127	Cl	0.330418	0.187614	0.260778
Cl128	Cl	0.830418	0.687614	0.760778
Cl129	Cl	0.944845	-0.497358	-0.258381
Cl130	Cl	1.444845	0.002642	0.241619
H131	H	0.550138	0.165451	-0.100137
H132	H	1.050138	0.665451	0.399863
Cl133	Cl	0.934243	-0.632221	-0.088236
Cl134	Cl	1.434243	-0.132221	0.411764
Cl135	Cl	0.802293	0.382778	0.259349
Cl136	Cl	1.302293	0.882778	0.759349
Cl137	Cl	1.070990	-0.047854	0.669991
Cl138	Cl	1.570990	0.452146	1.169991
H139	H	0.947695	-0.228138	-0.224665
H140	H	1.447695	0.271862	0.275335
Cl141	Cl	0.144837	0.181707	0.248239
Cl142	Cl	0.644837	0.681707	0.748239
Cl143	Cl	0.719112	0.168225	-0.122248
Cl144	Cl	1.219112	0.668225	0.377752
H145	H	0.923453	-0.433422	0.199753
H146	H	1.423453	0.066578	0.699753
Cl147	Cl	0.944115	-0.040864	-0.087588
Cl148	Cl	1.444115	0.459136	0.412412
