data_functionalizedCrystal
_audit_creation_method	'MofGen! by Chris Wilmer'
_symmetry_space_group_name_H-M	'P1'
_symmetry_Int_Tables_number	1
_symmetry_cell_setting	triclinic
loop_
_symmetry_equiv_pos_as_xyz
  x,y,z
_cell_length_a	15.297327
_cell_length_b	14.908783
_cell_length_c	14.908308
_cell_angle_alpha	89.788727
_cell_angle_beta	102.308214
_cell_angle_gamma	103.502170
loop_
_atom_site_label
_atom_site_type_symbol
_atom_site_fract_x
_atom_site_fract_y
_atom_site_fract_z
Zn1	Zn	-0.321946	1.286545	-0.640113
Zn2	Zn	-0.466529	1.268733	-0.513234
Zn3	Zn	-0.320950	1.145040	-0.480923
Zn4	Zn	-0.484155	1.106541	-0.657718
O5	O	-0.398395	1.201715	-0.572997
O6	O	-0.334166	1.411280	-0.629437
O7	O	-0.439424	1.260982	-0.381859
O8	O	-0.192272	1.187378	-0.481150
O9	O	-0.440390	1.398194	-0.536219
O10	O	-0.193004	1.291341	-0.598107
O11	O	-0.332468	1.170106	-0.358120
O12	O	-0.349559	1.012835	-0.498221
O13	O	-0.470431	1.121761	-0.782471
O14	O	-0.469465	0.984549	-0.628111
O15	O	-0.351257	1.254009	-0.769538
O16	O	-0.597677	1.223651	-0.553289
O17	O	-0.610627	1.104489	-0.659441
C18	C	-0.411317	0.965737	-0.561570
C19	C	-0.416869	0.864779	-0.556707
C20	C	-0.316862	0.688652	-0.644841
C21	C	-0.322075	0.593794	-0.640274
C22	C	-0.432504	0.580203	-0.543002
C23	C	-0.427290	0.675062	-0.547569
C24	C	-0.369469	0.729283	-0.598491
C25	C	-0.364261	0.824142	-0.603063
C26	C	-0.474684	0.810551	-0.505786
C27	C	-0.479897	0.715692	-0.501219
C28	C	-0.637551	1.157983	-0.611803
C29	C	-0.739860	1.139355	-0.628438
C30	C	-1.001157	1.335202	-0.454428
C31	C	-0.905032	1.352704	-0.438793
C32	C	-0.863734	1.299368	-0.486203
C33	C	-0.918571	1.228528	-0.549250
C34	C	-1.014705	1.211020	-0.564881
C35	C	-0.877283	1.175186	-0.596657
C36	C	-0.932119	1.104346	-0.659704
C37	C	-1.028244	1.086842	-0.675332
C38	C	-1.069542	1.140177	-0.627922
C39	C	-0.781148	1.192694	-0.581026
C40	C	-0.794696	1.068512	-0.691479
C41	C	-0.890821	1.051011	-0.707114
C42	C	-0.158305	1.245640	-0.534061
C43	C	-0.055993	1.264359	-0.517469
C44	C	-0.412921	1.185578	-0.809879
C45	C	-0.419111	1.178701	-0.910823
C46	C	-0.385423	1.438614	-0.584469
C47	C	-0.379895	1.539566	-0.589357
C48	C	-0.306626	1.303491	-1.087040
C49	C	-0.312439	1.297033	-1.181886
C50	C	-0.436545	1.159325	-1.195363
C51	C	-0.430732	1.165782	-1.100517
C52	C	-0.365772	1.237869	-1.046358
C53	C	-0.359964	1.244329	-0.951511
C54	C	-0.484065	1.106618	-0.964989
C55	C	-0.489877	1.100160	-1.059835
C56	C	-0.383856	1.217853	-0.337029
C57	C	-0.377397	1.224953	-0.236051
H58	H	-0.317180	0.868287	-0.644527
Cl59	Cl	-0.518196	1.068705	-1.263461
Cl60	Cl	-0.571536	1.009542	-1.127928
Cl61	Cl	-0.742787	1.001452	-0.751078
H62	H	-0.279235	0.560717	-0.678014
H63	H	-0.532227	1.053186	-0.931857
Cl64	Cl	-0.742892	1.321604	-0.466808
H65	H	-0.269786	0.732799	-0.686308
H66	H	-0.479568	0.536043	-0.501532
H67	H	-0.526970	0.671533	-0.459756
H68	H	-0.517527	0.843640	-0.468053
Cl69	Cl	-0.712223	1.281748	-0.501770
H70	H	-0.264275	1.350467	-1.215004
Cl71	Cl	-0.836102	1.441764	-0.359547
H72	H	-1.147814	1.125933	-0.640651
Cl73	Cl	-1.053079	1.402241	-0.394832
H74	H	-0.935483	0.993331	-0.758447
Cl75	Cl	-0.278302	1.334952	-0.883428
Cl76	Cl	-1.097179	0.997781	-0.754588
Cl77	Cl	-0.224974	1.394118	-1.018954
