data_functionalizedCrystal
_audit_creation_method	'MofGen! by Chris Wilmer'
_symmetry_space_group_name_H-M	'P1'
_symmetry_Int_Tables_number	1
_symmetry_cell_setting	triclinic
loop_
_symmetry_equiv_pos_as_xyz
  x,y,z
_cell_length_a	19.077105
_cell_length_b	19.120786
_cell_length_c	19.077174
_cell_angle_alpha	89.927663
_cell_angle_beta	85.483752
_cell_angle_gamma	90.063747
loop_
_atom_site_label
_atom_site_type_symbol
_atom_site_fract_x
_atom_site_fract_y
_atom_site_fract_z
Zn1	Zn	1.078555	-0.340061	-0.426680
Zn2	Zn	1.068744	-0.452201	-0.303792
Zn3	Zn	0.956376	-0.330278	-0.304514
Zn4	Zn	0.955640	-0.452155	-0.416911
O5	O	1.014829	-0.393674	-0.362974
O6	O	1.175721	-0.359050	-0.414164
O7	O	1.050040	-0.431952	-0.205419
O8	O	0.976998	-0.233638	-0.325109
O9	O	1.168513	-0.441439	-0.323879
O10	O	1.066762	-0.240826	-0.414864
O11	O	0.967484	-0.342376	-0.205950
O12	O	0.857812	-0.342331	-0.315637
O13	O	0.975743	-0.441361	-0.516675
O14	O	0.857271	-0.431874	-0.398216
O15	O	1.066048	-0.359006	-0.523852
O16	O	1.049327	-0.550132	-0.314407
O17	O	0.966230	-0.550098	-0.397516
C18	C	0.832010	-0.386037	-0.355945
C19	C	0.753799	-0.382787	-0.352954
C20	C	1.006653	-0.575510	-0.354839
C21	C	1.003221	-0.653305	-0.351385
C22	C	0.716787	-0.427945	-0.394469
C23	C	0.643300	-0.424883	-0.391663
C24	C	0.606826	-0.376665	-0.347337
C25	C	0.643844	-0.331502	-0.305820
C26	C	0.717330	-0.334562	-0.308631
C27	C	0.387076	-0.362505	-0.334332
C28	C	0.313585	-0.359450	-0.331523
C29	C	0.313046	-0.452830	-0.417367
C30	C	0.386533	-0.455889	-0.420170
C31	C	0.423544	-0.410723	-0.378656
N32	N	0.531711	-0.373535	-0.344466
N33	N	0.498659	-0.413850	-0.381532
C34	C	1.048312	-0.693535	-0.396528
C35	C	1.045084	-0.766630	-0.393283
C36	C	0.996768	-0.799495	-0.344892
C37	C	0.951673	-0.759260	-0.299747
C38	C	0.954897	-0.686165	-0.302995
C39	C	0.984692	-1.020009	-0.332747
C40	C	0.981471	-1.093109	-0.329501
C41	C	1.074883	-1.100474	-0.423039
C42	C	1.078106	-1.027378	-0.426280
C43	C	1.033008	-0.987149	-0.381138
C44	C	0.993469	-0.874210	-0.341573
C45	C	1.036304	-0.912435	-0.384460
C46	C	1.198362	-0.401341	-0.370031
C47	C	1.276573	-0.404608	-0.373038
C48	C	1.021908	-0.401270	-0.546509
C49	C	1.024925	-0.404507	-0.624721
C50	C	1.023056	-0.211128	-0.371157
C51	C	1.026562	-0.133338	-0.374644
C52	C	0.983361	-0.359391	-0.661741
C53	C	0.986193	-0.362438	-0.735228
C54	C	1.030592	-0.410598	-0.771696
C55	C	1.072157	-0.455719	-0.734671
C56	C	1.069321	-0.452675	-0.661184
C57	C	1.043678	-0.424707	-0.991448
C58	C	1.046512	-0.427746	-1.064940
C59	C	0.960547	-0.334466	-1.065493
C60	C	0.957718	-0.331423	-0.992005
C61	C	0.999280	-0.376546	-0.954986
N62	N	1.033489	-0.413712	-0.846812
N63	N	0.996379	-0.373435	-0.879870
C64	C	1.007820	-0.386059	-0.180157
C65	C	1.004949	-0.382630	-0.101959
H66	H	0.746478	-0.467211	-0.430562
H67	H	1.117449	-1.000622	-0.465684
O68	O	0.277200	-0.496764	-0.457723
C69	C	0.325152	-0.539961	-0.497466
H70	H	0.376308	-0.543334	-0.470533
H71	H	0.301728	-0.594537	-0.501613
H72	H	0.336194	-0.516946	-0.552387
O73	O	0.607259	-0.468778	-0.431883
C74	C	0.561179	-0.510493	-0.388095
H75	H	0.549220	-0.483057	-0.335500
H76	H	0.510189	-0.518950	-0.414341
H77	H	0.586864	-0.563202	-0.379038
O78	O	0.945917	-0.318593	-0.771277
C79	C	0.989649	-0.276816	-0.817350
H80	H	1.042289	-0.304178	-0.829298
H81	H	0.963401	-0.268396	-0.868346
H82	H	0.998618	-0.224095	-0.791664
O83	O	0.920147	-0.290569	-1.101346
C84	C	0.880337	-0.247424	-1.053399
H85	H	0.907248	-0.244034	-1.002233
H86	H	0.876131	-0.192848	-1.076816
H87	H	0.825440	-0.270500	-1.042378
H88	H	0.921562	-0.292207	-0.962318
H89	H	0.283891	-0.320178	-0.295432
H90	H	1.087659	-0.666781	-0.435930
H91	H	1.075640	-0.885675	-0.423863
O92	O	0.422913	-0.318603	-0.293938
C93	C	0.374961	-0.275380	-0.254227
H94	H	0.321197	-0.301765	-0.248453
H95	H	0.394383	-0.266410	-0.199949
H96	H	0.370527	-0.223014	-0.282165
H97	H	1.082670	-0.466965	-1.094629
H98	H	0.747465	-0.297786	-0.274829
O99	O	0.940333	-0.312535	-0.626296
C100	C	0.980786	-0.267254	-0.587341
H101	H	1.037255	-0.266161	-0.611809
H102	H	0.957730	-0.212297	-0.587948
H103	H	0.980084	-0.286685	-0.530769
H104	H	0.614142	-0.292240	-0.269732
O105	O	1.088969	-0.805605	-0.437154
C106	C	1.132301	-0.760924	-0.480565
H107	H	1.135933	-0.707735	-0.454157
H108	H	1.187101	-0.784612	-0.489292
H109	H	1.108910	-0.754295	-0.533348
O110	O	0.934469	-1.124922	-0.282474
C111	C	0.895366	-1.073742	-0.243315
H112	H	0.896315	-1.022719	-0.274354
H113	H	0.838708	-1.092293	-0.232697
H114	H	0.919454	-1.064829	-0.191229
H115	H	1.077513	-0.461457	-0.961315
H116	H	0.947972	-0.987260	-0.295989
H117	H	1.108304	-0.494935	-0.764368
H118	H	0.416224	-0.495154	-0.456263
O119	O	1.118581	-1.139586	-0.466961
C120	C	1.078362	-1.182103	-0.508939
H121	H	1.024076	-1.157985	-0.512082
H122	H	1.105818	-1.186196	-0.564055
H123	H	1.072671	-1.236509	-0.484625
O124	O	0.904705	-0.791262	-0.252832
C125	C	0.858892	-0.833317	-0.289227
H126	H	0.885241	-0.847469	-0.343040
H127	H	0.846113	-0.883156	-0.257910
H128	H	0.808276	-0.803334	-0.296160
O129	O	0.911065	-0.647188	-0.259072
C130	C	0.867716	-0.691867	-0.215677
H131	H	0.894150	-0.745048	-0.212052
H132	H	0.859040	-0.668164	-0.160882
H133	H	0.814904	-0.698516	-0.239003
O134	O	0.946574	-0.906055	-0.294469
C135	C	0.960107	-0.885965	-0.225735
H136	H	0.989443	-0.833939	-0.227696
H137	H	0.908240	-0.880098	-0.192295
H138	H	0.993579	-0.927612	-0.201635
O139	O	1.109764	-0.496531	-0.625331
C140	C	1.149546	-0.539705	-0.673272
H141	H	1.155302	-0.513309	-0.727035
H142	H	1.203828	-0.548614	-0.653832
H143	H	1.121679	-0.592102	-0.677717
