data_functionalizedCrystal
_audit_creation_method	'MofGen! by Chris Wilmer'
_symmetry_space_group_name_H-M	'P1'
_symmetry_Int_Tables_number	1
_symmetry_cell_setting	triclinic
loop_
_symmetry_equiv_pos_as_xyz
  x,y,z
_cell_length_a	12.645331
_cell_length_b	25.639234
_cell_length_c	12.645330
_cell_angle_alpha	90.017901
_cell_angle_beta	89.983073
_cell_angle_gamma	89.986161
loop_
_atom_site_label
_atom_site_type_symbol
_atom_site_fract_x
_atom_site_fract_y
_atom_site_fract_z
Zn1	Zn	1.620711	-0.295551	0.422126
Zn2	Zn	1.620599	-0.208126	0.599392
Zn3	Zn	1.443432	-0.208139	0.422141
Zn4	Zn	1.443408	-0.295540	0.599345
O5	O	1.532037	-0.251839	0.510751
O6	O	1.769044	-0.283954	0.445654
O7	O	1.597060	-0.134963	0.575905
O8	O	1.467005	-0.219745	0.273791
O9	O	1.768961	-0.219723	0.575891
O10	O	1.597252	-0.283966	0.273780
O11	O	1.466896	-0.134972	0.445679
O12	O	1.295081	-0.219734	0.445634
O13	O	1.466964	-0.368707	0.575811
O14	O	1.295064	-0.283947	0.575825
O15	O	1.597229	-0.368715	0.445608
O16	O	1.597037	-0.219712	0.747733
O17	O	1.466855	-0.283934	0.747699
C18	C	1.256608	-0.251841	0.510727
C19	C	1.138778	-0.251853	0.510742
C20	C	0.971238	-0.292039	0.593094
C21	C	1.093798	-0.292207	0.592829
C22	C	1.094299	-0.266907	0.399091
C23	C	0.971700	-0.267190	0.399593
C24	C	0.971536	-0.196487	0.539142
C25	C	1.094142	-0.196786	0.541584
C26	C	1.532106	-0.388212	0.510702
C27	C	1.532136	-0.446326	0.510682
C28	C	1.464389	-0.806700	0.442747
C29	C	1.464395	-0.861304	0.442728
O30	O	1.406741	-0.889550	0.385084
N31	N	1.532171	-0.888609	0.510516
C32	C	1.599938	-0.861307	0.578335
O33	O	1.657587	-0.889545	0.635992
C34	C	1.599926	-0.806703	0.578358
C35	C	1.532153	-0.779401	0.510559
C36	C	1.396621	-0.779398	0.374954
C37	C	1.396617	-0.724797	0.374972
C38	C	1.464381	-0.697499	0.442783
C39	C	1.532149	-0.724801	0.510577
C40	C	1.667687	-0.779402	0.646182
C41	C	1.667669	-0.724795	0.646200
C42	C	1.599896	-0.697493	0.578401
C43	C	1.599909	-0.642902	0.578406
N44	N	1.532133	-0.615597	0.510618
C45	C	1.464369	-0.642895	0.442807
C46	C	1.599956	-0.975977	0.578281
C47	C	1.599974	-1.030580	0.578253
C48	C	1.464429	-1.030573	0.442647
C49	C	1.464418	-0.975970	0.442671
C50	C	1.532180	-0.948672	0.510493
C51	C	1.464366	-0.528230	0.442849
C52	C	1.464371	-0.473625	0.442870
C53	C	1.599912	-0.473636	0.578479
C54	C	1.599911	-0.528236	0.578455
C55	C	1.532130	-0.555532	0.510636
O56	O	1.657531	-0.614621	0.636024
O57	O	1.406720	-0.614650	0.385169
C58	C	1.808543	-0.251838	0.510776
C59	C	1.926373	-0.251838	0.510786
C60	C	1.531960	-0.251832	0.786181
C61	C	1.532024	-0.251846	0.904011
C62	C	1.532030	-0.115997	0.510722
C63	C	1.532206	-0.057883	0.510444
C64	C	1.532144	-0.251858	0.234246
C65	C	1.532189	-0.251866	0.116415
C66	C	1.450464	-0.292373	1.071597
C67	C	1.450047	-0.292243	0.949038
C68	C	1.501782	-0.196747	0.948591
C69	C	1.501284	-0.196993	1.071189
C70	C	1.644324	-0.265972	1.071105
C71	C	1.643636	-0.267177	0.948498
H72	H	0.942021	-0.239251	0.336071
H73	H	1.469211	-0.333363	1.101019
C74	C	1.475569	-0.347439	0.908310
H75	H	1.486285	-0.370144	0.966692
H76	H	1.537861	-0.346370	0.866363
H77	H	1.418279	-0.359861	0.866765
H78	H	1.123433	-0.238541	0.336099
C79	C	1.134430	-0.279469	0.704679
H80	H	1.076008	-0.274147	0.750690
H81	H	1.176299	-0.248734	0.702354
H82	H	1.176034	-0.307677	0.730008
H83	H	1.367852	-0.283147	1.102494
C84	C	1.726584	-0.226121	1.110254
H85	H	1.794179	-0.234847	1.082608
H86	H	1.729109	-0.226712	1.185322
H87	H	1.707211	-0.192216	1.086967
C88	C	1.578197	-0.154831	1.111256
H89	H	1.578420	-0.154698	1.186384
H90	H	1.556215	-0.121656	1.086062
H91	H	1.647414	-0.162135	1.086048
C92	C	1.742233	-0.809425	0.720765
H93	H	1.732551	-0.845856	0.711046
H94	H	1.726682	-0.800465	0.791989
H95	H	1.813468	-0.800479	0.705257
C96	C	1.389882	-1.060606	0.368058
H97	H	1.349517	-1.036529	0.327678
H98	H	1.343686	-1.081901	0.408603
H99	H	1.430463	-1.081913	0.321862
C100	C	1.389818	-0.443593	0.368292
H101	H	1.399523	-0.407163	0.378004
H102	H	1.318586	-0.452535	0.383796
H103	H	1.405369	-0.452550	0.297060
C104	C	1.742211	-0.694770	0.720806
H105	H	1.782575	-0.718854	0.761172
H106	H	1.701638	-0.673463	0.766999
H107	H	1.788424	-0.673478	0.680265
H108	H	1.124761	-0.165225	0.485982
H109	H	0.941747	-0.282709	0.676165
H110	H	1.125021	-0.306932	0.374600
H111	H	0.940615	-0.182805	0.619168
C112	C	1.389816	-0.558248	0.368244
H113	H	1.349468	-0.534161	0.327869
H114	H	1.343605	-0.579543	0.408771
H115	H	1.430396	-0.579553	0.322043
C116	C	1.674534	-1.060608	0.652819
H117	H	1.664845	-1.097039	0.643097
H118	H	1.658994	-1.051651	0.724047
H119	H	1.745767	-1.051665	0.637302
H120	H	1.655150	-0.953755	0.633504
H121	H	0.940444	-0.332814	0.574573
H122	H	1.559420	-0.165741	0.919425
H123	H	1.409231	-0.953744	0.387461
C124	C	1.133441	-0.181442	0.652564
H125	H	1.176873	-0.208478	0.679997
H126	H	1.074532	-0.176297	0.698020
H127	H	1.173197	-0.150083	0.648132
H128	H	1.420666	-0.184580	0.917975
H129	H	0.942521	-0.166533	0.479188
H130	H	1.671911	-0.305468	1.101959
H131	H	1.666442	-0.307728	0.919358
C132	C	1.337750	-0.279611	0.909531
H133	H	1.292210	-0.274535	0.968410
H134	H	1.312277	-0.307745	0.867812
H135	H	1.339482	-0.248750	0.868012
H136	H	1.341425	-0.702573	0.319766
C137	C	1.674475	-0.558270	0.653016
H138	H	1.714833	-0.534189	0.693403
H139	H	1.720677	-0.579579	0.612457
H140	H	1.633907	-0.579562	0.699206
H141	H	1.341434	-0.801619	0.319733
C142	C	1.133450	-0.347609	0.567465
H143	H	1.074630	-0.370099	0.557273
H144	H	1.175165	-0.360095	0.624564
H145	H	1.175005	-0.346813	0.504887
C146	C	1.674442	-0.443600	0.653071
H147	H	1.664717	-0.407171	0.643375
H148	H	1.745681	-0.452552	0.637573
H149	H	1.658885	-0.452542	0.724296
C150	C	1.390549	-0.180854	1.109949
H151	H	1.346290	-0.174212	1.050768
H152	H	1.395982	-0.150203	1.151817
H153	H	1.361049	-0.208199	1.151159
C154	C	1.730224	-0.230217	0.907107
H155	H	1.699301	-0.204838	0.861955
H156	H	1.781341	-0.249708	0.868747
H157	H	1.763435	-0.213291	0.965097
C158	C	0.933089	-0.321853	0.367115
H159	H	0.992329	-0.343678	0.353744
H160	H	0.891251	-0.319256	0.304959
H161	H	0.891881	-0.336353	0.422625
