data_functionalizedCrystal
_audit_creation_method	'MofGen! by Chris Wilmer'
_symmetry_space_group_name_H-M	'P1'
_symmetry_Int_Tables_number	1
_symmetry_cell_setting	triclinic
loop_
_symmetry_equiv_pos_as_xyz
  x,y,z
_cell_length_a	16.625545
_cell_length_b	12.594517
_cell_length_c	16.625539
_cell_angle_alpha	89.992676
_cell_angle_beta	90.028107
_cell_angle_gamma	89.980800
loop_
_atom_site_label
_atom_site_type_symbol
_atom_site_fract_x
_atom_site_fract_y
_atom_site_fract_z
Zn1	Zn	-0.321137	-1.627192	0.455625
Zn2	Zn	0.012196	-1.293859	0.788959
Zn3	Zn	0.345530	-0.960525	1.122292
Zn4	Zn	-0.455980	-1.627055	0.320793
Zn5	Zn	-0.122647	-1.293721	0.654126
Zn6	Zn	0.210686	-0.960388	0.987460
Zn7	Zn	-0.321150	-1.449197	0.320837
Zn8	Zn	0.012183	-1.115864	0.654170
Zn9	Zn	0.345516	-0.782531	0.987504
Zn10	Zn	-0.455916	-1.449149	0.455614
Zn11	Zn	-0.122583	-1.115815	0.788947
Zn12	Zn	0.210750	-0.782482	1.122281
O13	O	-0.388546	-1.538148	0.388217
O14	O	-0.055213	-1.204815	0.721551
O15	O	0.278121	-0.871481	1.054884
O16	O	-0.339045	-1.776120	0.437726
O17	O	-0.005712	-1.442786	0.771059
O18	O	0.327621	-1.109453	1.104393
O19	O	-0.438127	-1.603424	0.207967
O20	O	-0.104794	-1.270091	0.541300
O21	O	0.228540	-0.936758	0.874633
O22	O	-0.208316	-1.472886	0.338740
O23	O	0.125017	-1.139553	0.672074
O24	O	0.458350	-0.806220	1.005407
O25	O	-0.438114	-1.776019	0.338665
O26	O	-0.104781	-1.442685	0.671999
O27	O	0.228553	-1.109352	1.005332
O28	O	-0.208306	-1.603658	0.437769
O29	O	0.125027	-1.270325	0.771102
O30	O	0.458360	-0.936992	1.104435
O31	O	-0.339068	-1.472753	0.207999
O32	O	-0.005735	-1.139420	0.541332
O33	O	0.327599	-0.806087	0.874666
O34	O	-0.339006	-1.300245	0.338729
O35	O	-0.005673	-0.966912	0.672063
O36	O	0.327660	-0.633578	1.005396
O37	O	-0.438005	-1.472804	0.568448
O38	O	-0.104672	-1.139470	0.901781
O39	O	0.228661	-0.806137	1.235115
O40	O	-0.438018	-1.300209	0.437749
O41	O	-0.104685	-0.966876	0.771083
O42	O	0.228648	-0.633543	1.104416
O43	O	-0.338984	-1.603611	0.568456
O44	O	-0.005650	-1.270278	0.901790
O45	O	0.327683	-0.936945	1.235123
O46	O	-0.568804	-1.603377	0.338654
O47	O	-0.235471	-1.270044	0.671988
O48	O	0.097862	-0.936711	1.005321
O49	O	-0.568757	-1.472670	0.437707
O50	O	-0.235424	-1.139337	0.771040
O51	O	0.097909	-0.806004	1.104373
C52	C	-0.388507	-1.261607	0.388243
C53	C	-0.055174	-0.928274	0.721577
C54	C	0.278159	-0.594941	1.054910
C55	C	-0.388510	-1.143302	0.388274
C56	C	-0.055177	-0.809968	0.721607
C57	C	0.278156	-0.476635	1.054940
C58	C	-0.598037	-1.538033	0.388192
C59	C	-0.264704	-1.204699	0.721525
C60	C	0.068630	-0.871366	1.054859
C61	C	-0.687658	-1.538080	0.388208
C62	C	-0.354325	-1.204747	0.721542
C63	C	-0.020991	-0.871414	1.054875
C64	C	-0.442466	-1.074060	0.442030
C65	C	-0.109133	-0.740727	0.775363
C66	C	0.224200	-0.407393	1.108697
C67	C	-0.368949	-1.003267	0.461868
C68	C	-0.035616	-0.669934	0.795201
C69	C	0.297718	-0.336601	1.128535
C70	C	-0.462082	-1.003295	0.368428
C71	C	-0.128749	-0.669962	0.701761
C72	C	0.204585	-0.336629	1.035095
C73	C	-0.314954	-1.074067	0.408150
C74	C	0.018380	-0.740734	0.741483
C75	C	0.351713	-0.407401	1.074817
C76	C	-0.408136	-1.074102	0.314676
C77	C	-0.074803	-0.740768	0.648009
C78	C	0.258530	-0.407435	0.981343
C79	C	-0.334568	-1.003341	0.334486
C80	C	-0.001235	-0.670008	0.667819
C81	C	0.332098	-0.336674	1.001153
C82	C	-0.760440	-1.538122	0.388224
C83	C	-0.427107	-1.204788	0.721558
C84	C	-0.093774	-0.871455	1.054891
C85	C	-0.851749	-1.538184	0.388242
C86	C	-0.518416	-1.204850	0.721575
C87	C	-0.185082	-0.871517	1.054909
C88	C	-0.924525	-1.538239	0.388252
C89	C	-0.591192	-1.204906	0.721586
C90	C	-0.257859	-0.871572	1.054919
C91	C	-1.015840	-1.538300	0.388269
C92	C	-0.682506	-1.204966	0.721602
C93	C	-0.349173	-0.871633	1.054935
C94	C	-0.178237	-1.538293	0.388261
C95	C	0.155096	-1.204960	0.721594
C96	C	0.488430	-0.871627	1.054927
C97	C	-0.088616	-1.538355	0.388279
C98	C	0.244717	-1.205022	0.721612
C99	C	0.578051	-0.871688	1.054946
C100	C	-0.388486	-1.538217	0.598526
C101	C	-0.055153	-1.204884	0.931860
C102	C	0.278181	-0.871551	1.265193
C103	C	-0.388460	-1.538247	0.688148
C104	C	-0.055127	-1.204914	1.021481
C105	C	0.278206	-0.871580	1.354814
C106	C	-0.388578	-0.815769	0.388204
C107	C	-0.055245	-0.482436	0.721538
C108	C	0.278089	-0.149102	1.054871
C109	C	-0.388573	-0.934074	0.388230
C110	C	-0.055239	-0.600741	0.721564
C111	C	0.278094	-0.267408	1.054897
C112	C	-0.388548	-1.538140	0.178727
C113	C	-0.055214	-1.204807	0.512060
C114	C	0.278119	-0.871474	0.845393
C115	C	-0.388346	-1.538317	0.089106
C116	C	-0.055013	-1.204984	0.422439
C117	C	0.278321	-0.871651	0.755773
C118	C	-0.388370	-1.538296	1.016323
C119	C	-0.055037	-1.204963	1.349657
C120	C	0.278297	-0.871629	1.682990
C121	C	-0.388398	-1.538279	0.925015
C122	C	-0.055064	-1.204946	1.258348
C123	C	0.278269	-0.871613	1.591682
C124	C	-0.388416	-1.538272	0.852238
C125	C	-0.055083	-1.204939	1.185572
C126	C	0.278251	-0.871605	1.518905
C127	C	-0.388442	-1.538254	0.760924
C128	C	-0.055109	-1.204921	1.094257
C129	C	0.278224	-0.871588	1.427591
H130	H	-0.488010	-1.105115	0.487544
H131	H	-0.154676	-0.771781	0.820877
H132	H	0.178657	-0.438448	1.154210
H133	H	-0.524274	-0.972203	0.351663
H134	H	-0.190941	-0.638870	0.684996
H135	H	0.142393	-0.305536	1.018330
H136	H	-0.252743	-1.105025	0.424987
H137	H	0.080590	-0.771691	0.758321
H138	H	0.413924	-0.438358	1.091654
O139	O	-0.349305	-0.966184	0.536143
O140	O	-0.015972	-0.632850	0.869476
O141	O	0.317361	-0.299517	1.202809
C142	C	-0.406297	-1.002226	0.592663
C143	C	-0.072964	-0.668893	0.925997
C144	C	0.260369	-0.335560	1.259330
H145	H	-0.464960	-1.022108	0.560498
H146	H	-0.131626	-0.688775	0.893831
H147	H	0.201707	-0.355441	1.227164
H148	H	-0.417684	-0.937442	0.639170
H149	H	-0.084351	-0.604109	0.972503
H150	H	0.248983	-0.270775	1.305837
H151	H	-0.382334	-1.076271	0.624027
H152	H	-0.049001	-0.742938	0.957360
H153	H	0.284332	-0.409604	1.290693
H154	H	-0.288914	-0.972485	0.289008
H155	H	0.044420	-0.639152	0.622341
H156	H	0.377753	-0.305818	0.955674
O157	O	-0.428076	-1.111206	0.240491
O158	O	-0.094743	-0.777873	0.573825
O159	O	0.238590	-0.444540	0.907158
C160	C	-0.505067	-1.073559	0.219177
C161	C	-0.171733	-0.740226	0.552510
C162	C	0.161600	-0.406893	0.885843
H163	H	-0.540039	-1.052527	0.275948
H164	H	-0.206705	-0.719194	0.609281
H165	H	0.126628	-0.385861	0.942614
H166	H	-0.538690	-1.137816	0.184515
H167	H	-0.205357	-0.804482	0.517848
H168	H	0.127977	-0.471149	0.851182
H169	H	-0.498729	-0.999895	0.179833
H170	H	-0.165396	-0.666562	0.513166
H171	H	0.167938	-0.333229	0.846499
