data_functionalizedCrystal
_audit_creation_method	'MofGen! by Chris Wilmer'
_symmetry_space_group_name_H-M	'P1'
_symmetry_Int_Tables_number	1
_symmetry_cell_setting	triclinic
loop_
_symmetry_equiv_pos_as_xyz
  x,y,z
_cell_length_a	15.995292
_cell_length_b	15.995350
_cell_length_c	14.586319
_cell_angle_alpha	89.998440
_cell_angle_beta	89.995321
_cell_angle_gamma	83.480495
loop_
_atom_site_label
_atom_site_type_symbol
_atom_site_fract_x
_atom_site_fract_y
_atom_site_fract_z
O1	O	1.111015	0.107694	-0.076261
O2	O	0.867233	0.121072	-0.076256
O3	O	0.995788	-0.007506	-0.076258
O4	O	0.982460	0.236272	-0.076259
O5	O	0.995779	-0.007508	0.076223
O6	O	0.867224	0.121070	0.076224
O7	O	1.111006	0.107692	0.076220
Cu8	Cu	0.989114	0.114381	0.090145
Cu9	Cu	0.989125	0.114383	-0.090181
O10	O	0.982451	0.236270	0.076222
C11	C	0.836033	0.120527	-0.000016
C12	C	0.743080	0.118894	-0.000014
C13	C	0.405341	0.112893	-0.000024
C14	C	0.428654	0.205697	-0.000365
C15	C	0.525329	0.207461	-0.000018
C16	C	0.572897	0.115871	-0.000020
C17	C	0.543790	0.069472	0.087051
C18	C	0.447000	0.068355	0.087120
C19	C	0.447155	0.066462	-0.086279
C20	C	0.543647	0.069901	-0.087426
C21	C	0.667593	0.117549	-0.000014
C22	C	0.310646	0.111212	-0.000024
C23	C	0.995232	-0.038702	-0.000019
C24	C	0.993580	-0.131652	-0.000024
C25	C	0.987648	-0.469398	-0.000021
C26	C	0.896094	-0.421945	-0.000361
C27	C	0.897746	-0.325255	-0.000018
C28	C	0.990591	-0.301838	-0.000023
C29	C	1.035743	-0.342926	0.087048
C30	C	1.033444	-0.439561	0.087121
C31	C	1.035345	-0.439918	-0.086278
C32	C	1.035323	-0.342972	-0.087429
C33	C	0.992259	-0.207141	-0.000021
C34	C	0.985983	-0.564095	-0.000017
C35	C	1.142206	0.108237	-0.000023
C36	C	1.235159	0.109870	-0.000030
C37	C	0.983006	0.267466	-0.000019
C38	C	0.984658	0.360416	-0.000020
N39	N	0.989113	0.114379	0.216977
N40	N	0.989133	0.114379	-0.217013
C41	C	1.046056	0.057463	0.451983
C42	C	1.046058	0.057461	0.547964
C43	C	0.932184	0.171297	0.547975
C44	C	0.932178	0.171294	0.451995
C45	C	0.989119	0.114378	0.404002
C46	C	0.989127	0.114379	0.595962
C47	C	0.989129	0.114377	0.700029
C48	C	0.989116	0.114379	0.299928
H49	H	0.432449	0.000310	0.091074
C50	C	0.570874	0.112998	0.174596
C51	C	0.539014	0.206022	0.192720
C52	C	0.566094	0.249554	0.280262
C53	C	0.625034	0.200061	0.349680
C54	C	0.656897	0.107032	0.331557
C55	C	0.629817	0.063500	0.244016
H56	H	0.495380	0.242664	0.141331
H57	H	0.542507	0.318420	0.293677
H58	H	0.645081	0.232286	0.414483
H59	H	0.700531	0.070390	0.382946
H60	H	0.653404	-0.005366	0.230601
C61	C	0.994914	-0.467651	-0.175437
C62	C	0.918065	-0.517432	-0.171055
C63	C	0.877624	-0.545165	-0.260208
C64	C	0.914033	-0.523117	-0.353742
C65	C	0.990887	-0.473333	-0.358127
C66	C	1.031328	-0.445600	-0.268975
H67	H	0.891109	-0.533756	-0.101812
H68	H	0.820732	-0.582019	-0.256961
H69	H	0.884097	-0.543647	-0.419738
H70	H	1.017843	-0.457010	-0.427370
H71	H	1.088220	-0.408747	-0.272222
C72	C	0.550192	0.256833	0.084453
C73	C	0.610874	0.213423	0.156359
C74	C	0.635734	0.262795	0.240836
C75	C	0.599913	0.355579	0.253408
C76	C	0.539228	0.398995	0.181500
C77	C	0.514368	0.349622	0.097023
H78	H	0.637394	0.144734	0.147054
H79	H	0.680657	0.230655	0.294067
H80	H	0.618316	0.392127	0.315943
H81	H	0.512708	0.467683	0.190805
H82	H	0.469444	0.381762	0.043792
H83	H	0.562221	0.103684	-0.151840
C84	C	0.586842	-0.021578	0.091435
C85	C	0.649078	-0.054937	0.015821
C86	C	0.692131	-0.145987	0.020203
C87	C	0.672949	-0.203678	0.100199
C88	C	0.610711	-0.170319	0.175820
C89	C	0.567657	-0.079270	0.171438
H90	H	0.663280	-0.012231	-0.043403
H91	H	0.738204	-0.170681	-0.035777
H92	H	0.704820	-0.271078	0.103443
H93	H	0.596509	-0.213026	0.235043
H94	H	0.521584	-0.054576	0.227417
C95	C	0.846662	-0.446972	-0.084714
C96	C	0.764994	-0.488187	-0.071915
C97	C	0.715565	-0.513223	-0.156273
C98	C	0.747804	-0.497043	-0.253430
C99	C	0.829476	-0.455826	-0.266233
C100	C	0.878905	-0.430791	-0.181875
H101	H	0.741125	-0.500166	0.000009
H102	H	0.655106	-0.543734	-0.146795
H103	H	0.711214	-0.515576	-0.315877
H104	H	0.853345	-0.443847	-0.338158
H105	H	0.939364	-0.400279	-0.191353
H106	H	0.433161	-0.001848	-0.086869
C107	C	1.126795	-0.322249	-0.094545
C108	C	1.155078	-0.274539	-0.178681
C109	C	1.246554	-0.253819	-0.185791
C110	C	1.309747	-0.280809	-0.108766
C111	C	1.281464	-0.328522	-0.024625
C112	C	1.189988	-0.349242	-0.017515
H113	H	1.108299	-0.254557	-0.235705
H114	H	1.267491	-0.218499	-0.248078
H115	H	1.377463	-0.265471	-0.114030
H116	H	1.328244	-0.348504	0.032399
H117	H	1.169052	-0.384562	0.044773
C118	C	1.108682	-0.005149	0.399189
C119	C	1.171308	-0.067757	0.451973
C120	C	1.233935	-0.130373	0.399183
C121	C	1.233936	-0.130381	0.293609
C122	C	1.171308	-0.067770	0.240820
C123	C	1.108681	-0.005154	0.293610
H124	H	1.171309	-0.067754	0.530130
H125	H	1.280296	-0.176722	0.438262
H126	H	1.280296	-0.176733	0.254531
H127	H	1.171306	-0.067773	0.162662
H128	H	1.062320	0.041195	0.254531
H129	H	1.103954	-0.328815	0.090283
H130	H	1.092420	0.011115	0.587027
C131	C	0.869557	0.233909	0.600768
C132	C	0.869604	0.233965	0.706341
C133	C	0.806978	0.296581	0.759131
C134	C	0.744303	0.359141	0.706348
C135	C	0.744254	0.359087	0.600768
C136	C	0.806880	0.296471	0.547978
H137	H	0.916002	0.187652	0.745420
H138	H	0.807015	0.296620	0.837289
H139	H	0.697943	0.405493	0.745426
H140	H	0.697856	0.405400	0.561689
H141	H	0.806843	0.296431	0.469821
H142	H	0.885809	0.217641	0.412926
H143	H	1.102848	-0.471693	-0.086867
H144	H	0.400661	0.241469	-0.062809
C145	C	0.551043	0.256557	-0.084330
C146	C	0.483548	0.294429	-0.152448
C147	C	0.509256	0.343533	-0.236760
C148	C	0.602460	0.354765	-0.252953
C149	C	0.669961	0.316892	-0.184833
C150	C	0.644253	0.267789	-0.100521
H151	H	0.414547	0.286115	-0.140462
H152	H	0.459286	0.371568	-0.287187
H153	H	0.621490	0.391114	-0.315366
H154	H	0.738962	0.325206	-0.196818
H155	H	0.694223	0.239753	-0.050094
H156	H	1.004375	-0.314539	0.151848
C157	C	0.389457	0.253754	0.083521
C158	C	0.326743	0.333216	0.069962
C159	C	0.287545	0.381268	0.153850
C160	C	0.311061	0.349857	0.251297
C161	C	0.373777	0.270390	0.264859
C162	C	0.412975	0.222338	0.180971
H163	H	0.309332	0.356473	-0.002177
H164	H	0.241118	0.440095	0.143810
H165	H	0.282044	0.385428	0.313396
H166	H	0.391188	0.247134	0.336999
H167	H	0.459403	0.163511	0.191012
C168	C	0.408993	0.105736	-0.175440
C169	C	0.339362	0.180476	-0.171062
C170	C	0.301199	0.219760	-0.260217
C171	C	0.332666	0.184304	-0.353749
C172	C	0.402301	0.109559	-0.358131
C173	C	0.440464	0.070275	-0.268976
H174	H	0.316065	0.206726	-0.101820
H175	H	0.249651	0.275091	-0.256973
H176	H	0.304415	0.213384	-0.419747
H177	H	0.425598	0.083309	-0.427372
H178	H	0.492012	0.014944	-0.272220
H179	H	0.420179	0.100487	0.152209
H180	H	0.576618	0.003050	-0.092686
C181	C	0.988944	-0.464282	0.175047
C182	C	1.025076	-0.445110	0.269620
C183	C	0.980572	-0.469825	0.357546
C184	C	0.899936	-0.513712	0.350900
C185	C	0.863800	-0.532887	0.256324
C186	C	0.908303	-0.508172	0.168397
H187	H	1.084771	-0.412620	0.274543
H188	H	1.007323	-0.455630	0.427558
H189	H	0.866992	-0.532007	0.415989
H190	H	0.804104	-0.565377	0.251401
H191	H	0.881552	-0.522366	0.098386
H192	H	0.862252	-0.296825	-0.062434
H193	H	0.859659	-0.441532	0.061733
C194	C	0.849474	-0.287595	0.084452
C195	C	0.809304	-0.345513	0.151809
C196	C	0.761032	-0.307853	0.236285
C197	C	0.752930	-0.212276	0.253404
C198	C	0.793101	-0.154352	0.186046
C199	C	0.841373	-0.192012	0.101570
H200	H	0.815300	-0.416270	0.139138
H201	H	0.731294	-0.350733	0.286148
H202	H	0.717196	-0.184398	0.315938
H203	H	0.787105	-0.083595	0.198717
H204	H	0.871111	-0.149132	0.051707
H205	H	1.100661	-0.471824	0.091068
H206	H	1.002311	-0.315716	-0.151842
