data_functionalizedCrystal
_audit_creation_method	'MofGen! by Chris Wilmer'
_symmetry_space_group_name_H-M	'P1'
_symmetry_Int_Tables_number	1
_symmetry_cell_setting	triclinic
loop_
_symmetry_equiv_pos_as_xyz
  x,y,z
_cell_length_a	12.759395
_cell_length_b	18.050589
_cell_length_c	12.759387
_cell_angle_alpha	89.970013
_cell_angle_beta	89.979491
_cell_angle_gamma	90.029758
loop_
_atom_site_label
_atom_site_type_symbol
_atom_site_fract_x
_atom_site_fract_y
_atom_site_fract_z
Zn1	Zn	1.606170	-0.295590	-0.594011
Zn2	Zn	1.606019	-0.419799	-0.418334
Zn3	Zn	1.430468	-0.295630	-0.418348
Zn4	Zn	1.430419	-0.419746	-0.593973
O5	O	1.518269	-0.357691	-0.506166
O6	O	1.753171	-0.312072	-0.570717
O7	O	1.582689	-0.403367	-0.271315
O8	O	1.453859	-0.191700	-0.441672
O9	O	1.753060	-0.403327	-0.441648
O10	O	1.582946	-0.191671	-0.570731
O11	O	1.453713	-0.312141	-0.271325
O12	O	1.283441	-0.312089	-0.441635
O13	O	1.453775	-0.403237	-0.740999
O14	O	1.283405	-0.403277	-0.570666
O15	O	1.582899	-0.312020	-0.741027
O16	O	1.582642	-0.523716	-0.441611
O17	O	1.453629	-0.523677	-0.570652
C18	C	1.245302	-0.357682	-0.506148
C19	C	1.128525	-0.357696	-0.506166
C20	C	1.518142	-0.550643	-0.506149
C21	C	1.518184	-0.633189	-0.506177
C22	C	1.128526	-0.452803	-0.640308
C23	C	1.073666	-0.500362	-0.707383
C24	C	0.963944	-0.500371	-0.707395
C25	C	0.909080	-0.452814	-0.640329
C26	C	0.963940	-0.405255	-0.573255
C27	C	1.073665	-0.405253	-0.573247
C28	C	0.963939	-0.310146	-0.439119
C29	C	1.073661	-0.310139	-0.439099
C30	C	0.909076	-0.262589	-0.372052
C31	C	0.963936	-0.215032	-0.304971
C32	C	1.073664	-0.215026	-0.304960
C33	C	1.128521	-0.262580	-0.372025
C34	C	1.448096	-0.832646	-0.576325
C35	C	1.422480	-0.882094	-0.480456
C36	C	1.518287	-0.784319	-0.506190
C37	C	1.543955	-0.881953	-0.602070
C38	C	1.518385	-0.930304	-0.506212
C39	C	1.492621	-0.832681	-0.410271
C40	C	1.614141	-0.832535	-0.531950
C41	C	1.588561	-0.881961	-0.436015
C42	C	1.518228	-0.700221	-0.506179
C43	C	1.518444	-1.014401	-0.506212
C44	C	1.792302	-0.357701	-0.506185
C45	C	1.909079	-0.357705	-0.506193
C46	C	1.518348	-0.357618	-0.780200
C47	C	1.518382	-0.357587	-0.896977
C48	C	1.518425	-0.163986	-0.506207
C49	C	1.518492	-0.081440	-0.506224
C50	C	1.652848	-0.262609	-0.897026
C51	C	1.720095	-0.215109	-0.951911
C52	C	1.720121	-0.215082	-1.061633
C53	C	1.652889	-0.262559	-1.116472
C54	C	1.585642	-0.310059	-1.061586
C55	C	1.585626	-0.310082	-0.951862
C56	C	1.451173	-0.405032	-1.061538
C57	C	1.451151	-0.405064	-0.951816
C58	C	1.383942	-0.452509	-1.116376
C59	C	1.316698	-0.500013	-1.061491
C60	C	1.316676	-0.500039	-0.951763
C61	C	1.383904	-0.452564	-0.896931
C62	C	1.518251	-0.357710	-0.233199
C63	C	1.518420	-0.357532	-0.116423
H64	H	1.217867	-0.452806	-0.640297
H65	H	1.647961	-0.903478	-0.376645
H66	H	1.388650	-0.810991	-0.635551
O67	O	1.785373	-0.169067	-0.898478
C68	C	1.770921	-0.179262	-0.789865
H69	H	1.736447	-0.236572	-0.774859
H70	H	1.715015	-0.135209	-0.758727
C71	C	1.919563	-0.102100	-0.751986
C72	C	1.877230	-0.172492	-0.733555
H73	H	1.985137	-0.097921	-0.717249
H74	H	1.929298	-0.095229	-0.825160
H75	H	1.872965	-0.065397	-0.726037
H76	H	1.923821	-0.209193	-0.759515
H77	H	1.867505	-0.179370	-0.660383
H78	H	1.695137	-0.810752	-0.553763
O79	O	1.325904	-0.908192	-0.454437
C80	C	1.327549	-0.986293	-0.453908
H81	H	1.411353	-1.006394	-0.441751
H82	H	1.296743	-1.007926	-0.531975
C83	C	1.154823	-0.990539	-0.379227
C84	C	1.257752	-1.015228	-0.364287
H85	H	1.111766	-1.008389	-0.323948
H86	H	1.153712	-0.937921	-0.379586
H87	H	1.129166	-1.008568	-0.444286
H88	H	1.283411	-0.997191	-0.299235
H89	H	1.258865	-1.067844	-0.363914
H90	H	0.919277	-0.539094	-0.762019
O91	O	0.910597	-0.168947	-0.239717
C92	C	0.847044	-0.211171	-0.171785
H93	H	0.880068	-0.269655	-0.165143
H94	H	0.763904	-0.213761	-0.204279
C95	C	0.804761	-0.102963	-0.070814
C96	C	0.845327	-0.174792	-0.062650
H97	H	0.803697	-0.080522	-0.003495
H98	H	0.847575	-0.074514	-0.116583
H99	H	0.735482	-0.105131	-0.097896
H100	H	0.914609	-0.172623	-0.035580
H101	H	0.802525	-0.203239	-0.016873
O102	O	0.802497	-0.452937	-0.640444
C103	C	0.765841	-0.505094	-0.714050
H104	H	0.829051	-0.548494	-0.728648
H105	H	0.746428	-0.475714	-0.790733
C106	C	0.589003	-0.489825	-0.653216
C107	C	0.666635	-0.543132	-0.671139
H108	H	0.527806	-0.513287	-0.626750
H109	H	0.613698	-0.454683	-0.603629
H110	H	0.572838	-0.465346	-0.717124
H111	H	0.682808	-0.567604	-0.607230
H112	H	0.641941	-0.578279	-0.720715
H113	H	1.383963	-0.452480	-1.205718
O114	O	1.466476	-0.806938	-0.313586
C115	C	1.374936	-0.763525	-0.320890
H116	H	1.329252	-0.779943	-0.394054
H117	H	1.397350	-0.702480	-0.325949
C118	C	1.362489	-0.756222	-0.133341
C119	C	1.306374	-0.776391	-0.223197
H120	H	1.320198	-0.764154	-0.073078
H121	H	1.424163	-0.785468	-0.128420
H122	H	1.381163	-0.705352	-0.137572
H123	H	1.287712	-0.827261	-0.218972
H124	H	1.244695	-0.747153	-0.228116
H125	H	1.565626	-0.903596	-0.683146
O126	O	1.251495	-0.546103	-1.114922
C127	C	1.265911	-0.535874	-1.223534
H128	H	1.347016	-0.511553	-1.238537
H129	H	1.203634	-0.496311	-1.254664
C130	C	1.156612	-0.640868	-1.261428
C131	C	1.256230	-0.611003	-1.279856
H132	H	1.150636	-0.687210	-1.296173
H133	H	1.146896	-0.647758	-1.188255
H134	H	1.104726	-0.607892	-1.287371
H135	H	1.308113	-0.643975	-1.253903
H136	H	1.265954	-0.604120	-1.353027
H137	H	1.652907	-0.262526	-1.205813
H138	H	1.261904	-0.538712	-0.907082
H139	H	0.819735	-0.262596	-0.372072
H140	H	1.652843	-0.262634	-0.807684
H141	H	1.118348	-0.539081	-0.761988
H142	H	1.118325	-0.176292	-0.250347
H143	H	1.217863	-0.262581	-0.372019
O144	O	1.785292	-0.168863	-1.115000
C145	C	1.725533	-0.120891	-1.178494
H146	H	1.642785	-0.116301	-1.145414
H147	H	1.721905	-0.143838	-1.261641
C148	C	1.878565	-0.049330	-1.220850
C149	C	1.776936	-0.043688	-1.180215
H150	H	1.910274	-0.001708	-1.221917
H151	H	1.918828	-0.081651	-1.178077
H152	H	1.875529	-0.068455	-1.290136
H153	H	1.779975	-0.024572	-1.110927
H154	H	1.736675	-0.011362	-1.222977
H155	H	1.383897	-0.452583	-0.807589
