data_functionalizedCrystal
_audit_creation_method	'MofGen! by Chris Wilmer'
_symmetry_space_group_name_H-M	'P1'
_symmetry_Int_Tables_number	1
_symmetry_cell_setting	triclinic
loop_
_symmetry_equiv_pos_as_xyz
  x,y,z
_cell_length_a	10.654551
_cell_length_b	14.519709
_cell_length_c	9.730223
_cell_angle_alpha	89.997715
_cell_angle_beta	90.000351
_cell_angle_gamma	84.082708
loop_
_atom_site_label
_atom_site_type_symbol
_atom_site_fract_x
_atom_site_fract_y
_atom_site_fract_z
O1	O	1.666588	0.129532	-0.114276
O2	O	1.300991	0.141872	-0.114283
O3	O	1.493483	0.001514	-0.114266
O4	O	1.474096	0.269890	-0.114292
O5	O	1.493480	0.001518	0.114313
O6	O	1.300989	0.141876	0.114297
O7	O	1.666586	0.129536	0.114304
Zn8	Zn	1.483787	0.135706	0.150593
Zn9	Zn	1.483790	0.135702	-0.150571
O10	O	1.474094	0.269894	0.114288
C11	C	1.254200	0.140968	0.000007
C12	C	1.114783	0.138256	0.000004
C13	C	0.918287	0.134427	0.124605
C14	C	1.049283	0.136983	0.124605
C15	C	1.049280	0.136984	-0.124605
C16	C	0.918285	0.134435	-0.124604
C17	C	0.852795	0.133144	0.249214
C18	C	0.918290	0.134418	0.373824
C19	C	1.049285	0.136974	0.373825
C20	C	1.114787	0.138255	0.249215
C21	C	1.492578	-0.032849	0.000024
C22	C	1.489871	-0.135244	0.000024
C23	C	1.479903	-0.510191	-0.000011
C24	C	1.482671	-0.405869	-0.000001
C25	C	1.484887	-0.322721	0.000008
C26	C	1.487655	-0.218392	0.000016
C27	C	1.713376	0.130440	0.000012
C28	C	1.852793	0.133151	0.000005
C29	C	1.474998	0.304257	-0.000005
C30	C	1.477706	0.406652	-0.000015
N31	N	1.483794	0.135709	0.356129
N32	N	1.483792	0.135692	-0.356107
C33	C	1.569051	0.073580	0.428062
C34	C	1.569048	0.073568	0.571945
C35	C	1.398526	0.197824	0.571949
C36	C	1.398524	0.197830	0.428069
C37	C	1.654320	0.011458	0.356123
C38	C	1.739585	-0.050675	0.428056
C39	C	1.739582	-0.050687	0.571939
C40	C	1.654314	0.011436	0.643889
H41	H	1.102621	0.138026	-0.226056
C42	C	1.304740	0.266155	0.651100
N43	N	1.234099	0.317624	0.710716
H44	H	0.864958	0.133399	-0.226064
H45	H	1.329099	0.248421	0.369501
H46	H	1.654333	0.011464	0.238966
H47	H	1.221450	0.140347	0.249225
H48	H	0.746132	0.131061	0.249228
H49	H	0.864949	0.133382	0.475277
C50	C	1.833359	-0.119018	0.348909
N51	N	1.903988	-0.170498	0.289297
H52	H	1.654310	0.011415	0.761048
C53	C	1.121325	0.138379	0.510896
N54	N	1.175583	0.139432	0.614143
H55	H	1.809000	-0.101284	0.630506
