data_functionalizedCrystal
_audit_creation_method	'MofGen! by Chris Wilmer'
_symmetry_space_group_name_H-M	'P1'
_symmetry_Int_Tables_number	1
_symmetry_cell_setting	triclinic
loop_
_symmetry_equiv_pos_as_xyz
  x,y,z
_cell_length_a	10.540510
_cell_length_b	17.038272
_cell_length_c	9.016244
_cell_angle_alpha	90.002258
_cell_angle_beta	90.007604
_cell_angle_gamma	87.812433
loop_
_atom_site_label
_atom_site_type_symbol
_atom_site_fract_x
_atom_site_fract_y
_atom_site_fract_z
O1	O	1.696188	0.110135	0.123352
O2	O	1.327742	0.120547	0.123353
O3	O	1.509775	0.001513	0.123340
O4	O	1.514155	0.229169	0.123364
O5	O	1.509747	0.001516	-0.123340
O6	O	1.327714	0.120550	-0.123328
O7	O	1.696160	0.110138	-0.123329
Cu8	Cu	1.511934	0.115344	-0.145853
Cu9	Cu	1.511968	0.115341	0.145876
O10	O	1.514127	0.229171	-0.123317
C11	C	1.280352	0.119772	0.000012
C12	C	1.139185	0.117451	0.000012
C13	C	0.929443	0.200143	0.000588
C14	C	1.076270	0.202619	0.000023
C15	C	1.090343	0.073855	-0.140855
C16	C	0.943407	0.071982	-0.140965
C17	C	0.943467	0.070205	0.139557
C18	C	1.090185	0.074245	0.141411
C19	C	1.505778	-0.027636	0.000000
C20	C	1.493894	-0.114497	0.000001
C21	C	1.603005	-0.163991	-0.000001
C22	C	1.591831	-0.245605	0.000013
C23	C	1.471544	-0.277723	0.000018
C24	C	1.362425	-0.228222	0.000025
C25	C	1.373600	-0.146610	0.000021
C26	C	1.432064	-0.523705	0.000039
C27	C	1.420897	-0.605324	0.000038
C28	C	1.650304	-0.622701	0.000029
C29	C	1.661469	-0.541087	0.000016
C30	C	1.552349	-0.491593	0.000030
C31	C	1.460120	-0.361146	0.000028
C32	C	1.563775	-0.408172	0.000031
C33	C	1.743550	0.110912	0.000014
C34	C	1.884717	0.113234	0.000024
C35	C	1.518124	0.258321	0.000027
C36	C	1.530008	0.345181	0.000036
N37	N	1.511920	0.115346	-0.351039
C38	C	1.414207	0.178807	-0.586065
C39	C	1.414459	0.179045	-0.414174
C40	C	1.646376	0.133907	-0.413375
C41	C	1.645852	0.134356	-0.585320
C42	C	1.476475	0.033115	-0.585591
C43	C	1.473480	0.033648	-0.413637
N44	N	1.511991	0.115333	0.351062
H45	H	1.108809	0.236726	0.101007
Br46	Br	1.146451	0.124318	-0.315582
H47	H	1.675802	0.194340	-0.625403
H48	H	1.721238	0.088937	-0.372476
Br49	Br	0.876762	0.114975	0.317518
Br50	Br	1.453095	0.279906	-0.658010
Br51	Br	1.727016	-0.364582	0.000037
H52	H	0.890597	0.233323	0.101613
H53	H	1.362182	-0.387305	0.000029
Br54	Br	1.283972	-0.456545	0.000067
H55	H	1.700954	-0.137848	-0.000015
H56	H	1.759418	-0.514943	0.000012
H57	H	1.284750	-0.106312	0.000023
Br58	Br	1.248334	0.160487	-0.343924
Br59	Br	1.199177	-0.271810	0.000057
Br60	Br	0.862036	0.255137	-0.166819
H61	H	1.121775	0.105965	0.245624
H62	H	1.539390	-0.015855	-0.370666
H63	H	0.915349	0.006261	0.140503
Br64	Br	1.247598	0.160469	-0.655014
H65	H	1.133454	0.012065	0.149911
H66	H	1.438048	0.240044	-0.373021
H67	H	1.547681	-0.014129	-0.626248
Br68	Br	1.798386	-0.689875	0.000010
H69	H	0.905958	0.101778	-0.246259
Br70	Br	1.128940	0.259810	-0.168561
Br71	Br	0.895166	-0.034184	-0.151734
H72	H	1.131883	0.011155	-0.146101
Br73	Br	1.771391	0.060209	-0.654645
Br74	Br	1.697104	0.232753	-0.341569
H75	H	1.680681	-0.285901	0.000008
Br76	Br	1.257641	-0.648912	0.000030
H77	H	1.380089	0.015447	-0.629040
Br78	Br	1.308551	0.010194	-0.345740
