data_functionalizedCrystal
_audit_creation_method	'MofGen! by Chris Wilmer'
_symmetry_space_group_name_H-M	'P1'
_symmetry_Int_Tables_number	1
_symmetry_cell_setting	triclinic
loop_
_symmetry_equiv_pos_as_xyz
  x,y,z
_cell_length_a	17.077404
_cell_length_b	16.959453
_cell_length_c	17.077396
_cell_angle_alpha	89.970936
_cell_angle_beta	89.980223
_cell_angle_gamma	90.015373
loop_
_atom_site_label
_atom_site_type_symbol
_atom_site_fract_x
_atom_site_fract_y
_atom_site_fract_z
Zn1	Zn	1.200070	-0.314779	-0.443845
Zn2	Zn	1.533404	0.018554	-0.110512
Zn3	Zn	1.866737	0.351888	0.222821
Zn4	Zn	1.199984	-0.446967	-0.312578
Zn5	Zn	1.533317	-0.113633	0.020755
Zn6	Zn	1.866651	0.219700	0.354089
Zn7	Zn	1.068802	-0.314795	-0.312593
Zn8	Zn	1.402136	0.018538	0.020741
Zn9	Zn	1.735469	0.351871	0.354074
Zn10	Zn	1.068777	-0.446909	-0.443801
Zn11	Zn	1.402110	-0.113575	-0.110468
Zn12	Zn	1.735444	0.219758	0.222866
O13	O	1.134408	-0.380862	-0.378204
O14	O	1.467742	-0.047529	-0.044871
O15	O	1.801075	0.285804	0.288462
O16	O	1.309906	-0.332331	-0.426445
O17	O	1.643239	0.001002	-0.093111
O18	O	1.976573	0.334335	0.240222
O19	O	1.182557	-0.429465	-0.202733
O20	O	1.515890	-0.096132	0.130600
O21	O	1.849224	0.237202	0.463934
O22	O	1.086262	-0.204182	-0.330028
O23	O	1.419595	0.129151	0.003305
O24	O	1.752929	0.462484	0.336638
O25	O	1.309842	-0.429449	-0.330003
O26	O	1.643176	-0.096116	0.003330
O27	O	1.976509	0.237218	0.336663
O28	O	1.182704	-0.204170	-0.426459
O29	O	1.516037	0.129163	-0.093126
O30	O	1.849371	0.462496	0.240208
O31	O	1.086178	-0.332359	-0.202744
O32	O	1.419512	0.000974	0.130590
O33	O	1.752845	0.334307	0.463923
O34	O	0.958952	-0.332303	-0.329985
O35	O	1.292285	0.001030	0.003348
O36	O	1.625619	0.334363	0.336681
O37	O	1.086219	-0.429350	-0.553654
O38	O	1.419552	-0.096017	-0.220320
O39	O	1.752885	0.237317	0.113013
O40	O	0.958933	-0.429366	-0.426383
O41	O	1.292267	-0.096033	-0.093050
O42	O	1.625600	0.237301	0.240283
O43	O	1.182680	-0.332275	-0.553686
O44	O	1.516013	0.001058	-0.220353
O45	O	1.849346	0.334392	0.112980
O46	O	1.182532	-0.557570	-0.329960
O47	O	1.515866	-0.224237	0.003373
O48	O	1.849199	0.109097	0.336706
O49	O	1.086135	-0.557527	-0.426369
O50	O	1.419468	-0.224194	-0.093036
O51	O	1.752802	0.109139	0.240297
C52	C	0.930461	-0.380831	-0.378182
C53	C	1.263794	-0.047497	-0.044848
C54	C	1.597127	0.285836	0.288485
C55	C	0.843211	-0.380836	-0.378190
C56	C	1.176544	-0.047503	-0.044857
C57	C	1.509877	0.285830	0.288476
C58	C	0.467407	-0.431516	-0.428342
C59	C	0.800741	-0.098183	-0.095009
C60	C	1.134074	0.235150	0.238324
C61	C	0.549388	-0.431506	-0.428330
C62	C	0.882721	-0.098173	-0.094997
C63	C	1.216054	0.235161	0.238336
C64	C	0.590362	-0.380883	-0.378217
C65	C	0.923695	-0.047550	-0.044883
C66	C	1.257029	0.285783	0.288450
C67	C	0.549351	-0.330274	-0.328106
C68	C	0.882685	0.003060	0.005227
C69	C	1.216018	0.336393	0.338561
C70	C	0.467372	-0.330288	-0.328115
C71	C	0.800706	0.003045	0.005219
C72	C	1.134039	0.336378	0.338552
C73	C	0.720221	-0.330245	-0.328093
C74	C	1.053555	0.003089	0.005240
C75	C	1.386888	0.336422	0.338574
C76	C	0.802206	-0.330229	-0.328085
C77	C	1.135539	0.003105	0.005248
C78	C	1.468873	0.336438	0.338581
C79	C	0.802237	-0.431462	-0.428309
C80	C	1.135570	-0.098129	-0.094975
C81	C	1.468903	0.235204	0.238358
C82	C	0.720258	-0.431477	-0.428317
C83	C	1.053591	-0.098144	-0.094984
C84	C	1.386924	0.235190	0.238349
C85	C	0.679253	-0.380866	-0.378208
C86	C	1.012586	-0.047533	-0.044874
C87	C	1.345920	0.285801	0.288459
C88	C	1.134343	-0.586229	-0.378175
C89	C	1.467676	-0.252895	-0.044842
C90	C	1.801010	0.080438	0.288491
C91	C	1.134387	-0.674085	-0.378189
C92	C	1.467720	-0.340752	-0.044856
C93	C	1.801053	-0.007419	0.288477
C94	C	1.184690	-1.045496	-0.428510
C95	C	1.518023	-0.712163	-0.095177
C96	C	1.851357	-0.378829	0.238156
C97	C	1.084346	-1.045626	-0.328014
C98	C	1.417679	-0.712292	0.005319
C99	C	1.751013	-0.378959	0.338652
C100	C	1.084317	-0.963080	-0.327996
C101	C	1.417650	-0.629746	0.005337
C102	C	1.750983	-0.296413	0.338670
C103	C	1.134474	-0.921738	-0.378237
C104	C	1.467808	-0.588405	-0.044904
C105	C	1.801141	-0.255072	0.288430
C106	C	1.184661	-0.962942	-0.428496
C107	C	1.517994	-0.629609	-0.095162
C108	C	1.851328	-0.296276	0.238171
C109	C	1.034126	-0.921869	-0.277744
C110	C	1.367459	-0.588536	0.055589
C111	C	1.700792	-0.255203	0.388922
C112	C	1.034094	-0.839318	-0.277725
C113	C	1.367427	-0.505985	0.055608
C114	C	1.700760	-0.172652	0.388942
C115	C	1.084256	-0.797975	-0.327962
C116	C	1.417589	-0.464642	0.005371
C117	C	1.750923	-0.131309	0.338704
C118	C	1.134445	-0.839185	-0.378222
C119	C	1.467778	-0.505851	-0.044889
C120	C	1.801112	-0.172518	0.288444
C121	C	1.184603	-0.797843	-0.428463
C122	C	1.517936	-0.464510	-0.095129
C123	C	1.851269	-0.131176	0.238204
C124	C	1.234796	-0.839051	-0.478719
C125	C	1.568130	-0.505718	-0.145386
C126	C	1.901463	-0.172384	0.187947
C127	C	1.234823	-0.921599	-0.478733
C128	C	1.568156	-0.588266	-0.145400
C129	C	1.901490	-0.254933	0.187934
C130	C	1.084229	-0.715427	-0.327949
C131	C	1.417563	-0.382094	0.005385
C132	C	1.750896	-0.048760	0.338718
C133	C	1.184573	-0.715290	-0.428448
C134	C	1.517907	-0.381956	-0.095115
C135	C	1.851240	-0.048623	0.238219
C136	C	1.339153	-0.380895	-0.378227
C137	C	1.672486	-0.047561	-0.044894
C138	C	2.005819	0.285772	0.288439
C139	C	1.426402	-0.380909	-0.378237
C140	C	1.759736	-0.047575	-0.044904
C141	C	2.093069	0.285758	0.288429
C142	C	1.134456	-0.380804	-0.582949
C143	C	1.467789	-0.047471	-0.249615
C144	C	1.801123	0.285862	0.083718
C145	C	1.134476	-0.380779	-0.670198
C146	C	1.467809	-0.047446	-0.336865
C147	C	1.801143	0.285887	-0.003532
C148	C	1.134496	-0.174694	-0.378250
C149	C	1.467829	0.158639	-0.044917
C150	C	1.801162	0.491972	0.288416
C151	C	1.134533	-0.086838	-0.378270
C152	C	1.467866	0.246496	-0.044937
C153	C	1.801199	0.579829	0.288397
C154	C	1.184705	-0.330228	-0.711207
C155	C	1.518038	0.003105	-0.377873
C156	C	1.851372	0.336439	-0.044540
C157	C	1.184715	-0.330202	-0.793187
C158	C	1.518048	0.003132	-0.459854
C159	C	1.851381	0.336465	-0.126521
C160	C	1.134498	-0.380731	-0.834158
C161	C	1.467832	-0.047398	-0.500825
C162	C	1.801165	0.285935	-0.167491
C163	C	1.084264	-0.431285	-0.793144
C164	C	1.417597	-0.097951	-0.459810
C165	C	1.750931	0.235382	-0.126477
C166	C	1.084251	-0.431307	-0.711165
C167	C	1.417584	-0.097973	-0.377831
C168	C	1.750918	0.235360	-0.044498
C169	C	1.084296	-0.431237	-0.964014
C170	C	1.417629	-0.097904	-0.630681
C171	C	1.750962	0.235429	-0.297347
C172	C	1.084309	-0.431217	-1.045999
C173	C	1.417642	-0.097883	-0.712665
C174	C	1.750976	0.235450	-0.379332
C175	C	1.184759	-0.330133	-1.046036
C176	C	1.518092	0.003201	-0.712703
C177	C	1.851426	0.336534	-0.379370
C178	C	1.184746	-0.330154	-0.964057
C179	C	1.518079	0.003179	-0.630724
C180	C	1.851413	0.336512	-0.297391
C181	C	1.134512	-0.380709	-0.923049
C182	C	1.467846	-0.047376	-0.589716
C183	C	1.801179	0.285958	-0.256382
C184	C	1.134406	-0.380863	-0.174256
C185	C	1.467740	-0.047530	0.159077
C186	C	1.801073	0.285803	0.492410
C187	C	1.134538	-0.380666	-0.087007
C188	C	1.467871	-0.047332	0.246326
C189	C	1.801205	0.286001	0.579660
H190	H	0.835627	-0.472670	-0.469112
H191	H	1.168960	-0.139336	-0.135779
H192	H	1.502293	0.193997	0.197555
F193	F	0.676583	-0.276382	-0.274756
F194	F	1.009916	0.056951	0.058577
F195	F	1.343250	0.390284	0.391910
H196	H	0.434052	-0.472735	-0.469155
H197	H	0.767385	-0.139401	-0.135822
H198	H	1.100719	0.193932	0.197512
F199	F	0.593024	-0.485371	-0.481657
F200	F	0.926358	-0.152038	-0.148324
F201	F	1.259691	0.181295	0.185009
F202	F	0.980672	-0.795469	-0.224240
F203	F	1.314006	-0.462136	0.109093
F204	F	1.647339	-0.128803	0.442427
H205	H	1.225599	-0.289083	-0.677854
H206	H	1.558933	0.044250	-0.344521
H207	H	1.892266	0.377583	-0.011188
F208	F	0.845812	-0.276356	-0.274743
F209	F	1.179146	0.056977	0.058590
F210	F	1.512479	0.390311	0.391923
F211	F	1.288235	-0.965461	-0.532217
F212	F	1.621569	-0.632127	-0.198884
F213	F	1.954902	-0.298794	0.134450
H214	H	1.225660	-0.288968	-1.079429
H215	H	1.558993	0.044366	-0.746096
H216	H	1.892326	0.377699	-0.412763
F217	F	0.592961	-0.276400	-0.274768
F218	F	0.926295	0.056933	0.058565
F219	F	1.259628	0.390267	0.391898
F220	F	1.238202	-0.276425	-0.836828
F221	F	1.571535	0.056908	-0.503495
F222	F	1.904869	0.390241	-0.170161
H223	H	1.043378	-0.472392	-0.930627
H224	H	1.376711	-0.139059	-0.597294
H225	H	1.710044	0.194275	-0.263961
F226	F	1.030789	-0.485108	-0.667521
F227	F	1.364122	-0.151775	-0.334188
F228	F	1.697455	0.181559	-0.000854
F229	F	1.238110	-1.089352	-0.481992
F230	F	1.571443	-0.756018	-0.148659
F231	F	1.904776	-0.422685	0.184675
H232	H	1.043507	-1.079291	-0.287114
H233	H	1.376840	-0.745958	0.046219
H234	H	1.710173	-0.412624	0.379552
H235	H	1.043417	-0.472361	-1.079355
H236	H	1.376750	-0.139027	-0.746021
H237	H	1.710084	0.194306	-0.412688
H238	H	0.993288	-0.955536	-0.236843
H239	H	1.326621	-0.622202	0.096490
H240	H	1.659955	-0.288869	0.429823
F241	F	1.238196	-0.276380	-0.920455
F242	F	1.571530	0.056954	-0.587122
F243	F	1.904863	0.390287	-0.253788
H244	H	1.043359	-0.681879	-0.287034
H245	H	1.376692	-0.348546	0.046299
H246	H	1.710025	-0.015213	0.379632
H247	H	0.686899	-0.472695	-0.469128
H248	H	1.020232	-0.139361	-0.135795
H249	H	1.353565	0.193972	0.197539
F250	F	0.423732	-0.276428	-0.274783
F251	F	0.757066	0.056905	0.058550
F252	F	1.090399	0.390239	0.391884
H253	H	1.043374	-0.472424	-0.826509
H254	H	1.376708	-0.139091	-0.493175
H255	H	1.710041	0.194243	-0.159842
F256	F	1.237963	-0.671297	-0.481918
F257	F	1.571296	-0.337964	-0.148585
F258	F	1.904630	-0.004630	0.184748
H259	H	1.275632	-0.805381	-0.519629
H260	H	1.608965	-0.472048	-0.186296
H261	H	1.942298	-0.138714	0.147037
