data_functionalizedCrystal
_audit_creation_method	'MofGen! by Chris Wilmer'
_symmetry_space_group_name_H-M	'P1'
_symmetry_Int_Tables_number	1
_symmetry_cell_setting	triclinic
loop_
_symmetry_equiv_pos_as_xyz
  x,y,z
_cell_length_a	25.639242
_cell_length_b	25.639240
_cell_length_c	14.908308
_cell_angle_alpha	93.255449
_cell_angle_beta	93.270130
_cell_angle_gamma	90.027658
loop_
_atom_site_label
_atom_site_type_symbol
_atom_site_fract_x
_atom_site_fract_y
_atom_site_fract_z
Zn1	Zn	0.782204	-0.225275	-0.510213
Zn2	Zn	0.787176	-0.307670	-0.359333
Zn3	Zn	0.699819	-0.220243	-0.359353
Zn4	Zn	0.694738	-0.312670	-0.510117
O5	O	0.740984	-0.266464	-0.434754
O6	O	0.856028	-0.236218	-0.490231
O7	O	0.779796	-0.291874	-0.233097
O8	O	0.710794	-0.147747	-0.379414
O9	O	0.859681	-0.296753	-0.379380
O10	O	0.771321	-0.151444	-0.490250
O11	O	0.715615	-0.227642	-0.233112
O12	O	0.625981	-0.232490	-0.379320
O13	O	0.702132	-0.305276	-0.636369
O14	O	0.622248	-0.300396	-0.490086
O15	O	0.766394	-0.241067	-0.636440
O16	O	0.774868	-0.381496	-0.379286
O17	O	0.706954	-0.385170	-0.490067
C18	C	0.605144	-0.266440	-0.434695
C19	C	0.547030	-0.266443	-0.434692
C20	C	0.297766	-0.231053	-0.377178
C21	C	0.352371	-0.231048	-0.377167
O22	O	0.382250	-0.200926	-0.328216
N23	N	0.377754	-0.266451	-0.434737
C24	C	0.348530	-0.301859	-0.492329
O25	O	0.375135	-0.331971	-0.541297
C26	C	0.293926	-0.301861	-0.492344
C27	C	0.268546	-0.266459	-0.434764
C28	C	0.272386	-0.195654	-0.319603
C29	C	0.217785	-0.195660	-0.319614
C30	C	0.188564	-0.231065	-0.377199
C31	C	0.213945	-0.266465	-0.434774
C32	C	0.264703	-0.337265	-0.549940
C33	C	0.210095	-0.337264	-0.549951
C34	C	0.184715	-0.301862	-0.492371
C35	C	0.130124	-0.301876	-0.492370
N36	N	0.104740	-0.266473	-0.434800
C37	C	0.133961	-0.231068	-0.377215
C38	C	0.463202	-0.301850	-0.492294
C39	C	0.517805	-0.301851	-0.492274
C40	C	0.521642	-0.231040	-0.377113
C41	C	0.467038	-0.231042	-0.377129
C42	C	0.437818	-0.266447	-0.434723
C43	C	0.019295	-0.231083	-0.377241
C44	C	-0.035311	-0.231094	-0.377254
C45	C	-0.039144	-0.301903	-0.492418
C46	C	0.015457	-0.301894	-0.492402
C47	C	0.044675	-0.266480	-0.434810
O48	O	0.100211	-0.331982	-0.541299
O49	O	0.107349	-0.200956	-0.328264
C50	C	0.740913	-0.402305	-0.434684
C51	C	0.740929	-0.460419	-0.434683
C52	C	0.772514	-0.822674	-0.492571
C53	C	0.772529	-0.877279	-0.492589
O54	O	0.799298	-0.907122	-0.541734
N55	N	0.741054	-0.902706	-0.434841
C56	C	0.709558	-0.873526	-0.377078
O57	O	0.682787	-0.900168	-0.327962
C58	C	0.709541	-0.818922	-0.377065
C59	C	0.741022	-0.793498	-0.434810
C60	C	0.803992	-0.797249	-0.550312
C61	C	0.803978	-0.742648	-0.550292
C62	C	0.772486	-0.713472	-0.492531
C63	C	0.741008	-0.738896	-0.434790
C64	C	0.678043	-0.789743	-0.319307
C65	C	0.678028	-0.735136	-0.319299
C66	C	0.709509	-0.709711	-0.377044
C67	C	0.709501	-0.655119	-0.377010
N68	N	0.740976	-0.629691	-0.434757
C69	C	0.772468	-0.658868	-0.492518
C70	C	0.709596	-0.988198	-0.377111
C71	C	0.709616	-1.042800	-0.377119
C72	C	0.772586	-1.046549	-0.492631
C73	C	0.772569	-0.991946	-0.492618
C74	C	0.741071	-0.962770	-0.434859
C75	C	0.772437	-0.544201	-0.492472
C76	C	0.772421	-0.489595	-0.492444
C77	C	0.709449	-0.485851	-0.376936
C78	C	0.709466	-0.540452	-0.376959
C79	C	0.740962	-0.569626	-0.434735
O80	O	0.682744	-0.625242	-0.327892
O81	O	0.799230	-0.632219	-0.541635
C82	C	0.877355	-0.266489	-0.434814
C83	C	0.935468	-0.266499	-0.434839
C84	C	0.733141	-0.274290	-0.670052
C85	C	0.729799	-0.277625	-0.770321
C86	C	0.741070	-0.130094	-0.434845
C87	C	0.741106	-0.071982	-0.434884
C88	C	0.790433	-0.217019	-0.958814
C89	C	0.787294	-0.220151	-1.053027
C90	C	0.720381	-0.287017	-1.052960
C91	C	0.723520	-0.283885	-0.958748
C92	C	0.758547	-0.248886	-0.911678
C93	C	0.761688	-0.245757	-0.817464
C94	C	0.694773	-0.312621	-0.817399
C95	C	0.691634	-0.315752	-0.911612
C96	C	0.748827	-0.258631	-0.200372
C97	C	0.752270	-0.255149	-0.100103
H98	H	-0.055973	-0.202264	-0.330362
H99	H	0.798079	-0.567949	-0.539524
H100	H	0.652408	-0.810434	-0.272284
O101	O	0.803158	-0.967334	-0.548803
C102	C	0.830966	-1.004801	-0.599765
H103	H	0.809458	-1.043843	-0.602848
H104	H	0.834134	-0.991369	-0.670852
H105	H	0.871792	-1.009489	-0.566806
H106	H	0.691863	-0.315512	-1.091301
H107	H	0.798228	-1.070315	-0.539665
H108	H	0.683949	-0.964445	-0.330069
O109	O	0.647415	-0.706874	-0.263106
C110	C	0.619625	-0.741029	-0.212167
H111	H	0.641158	-0.779833	-0.209093
H112	H	0.616441	-0.722918	-0.141075
H113	H	0.578806	-0.747954	-0.245139
O114	O	0.678991	-1.067413	-0.320990
C115	C	0.651205	-1.029944	-0.269992
H116	H	0.648139	-0.992240	-0.306931
H117	H	0.610342	-1.045429	-0.260295
H118	H	0.672666	-1.021867	-0.201512
H119	H	0.545443	-0.202209	-0.330226
H120	H	0.439414	-0.330686	-0.539192
O121	O	0.678841	-0.565071	-0.320834
C122	C	0.651055	-0.527606	-0.269830
H123	H	0.647990	-0.489899	-0.306759
H124	H	0.610190	-0.543091	-0.260140
H125	H	0.672514	-0.519534	-0.201348
O126	O	0.442322	-0.196632	-0.321322
C127	C	0.409058	-0.164610	-0.372796
H128	H	0.398607	-0.185380	-0.441105
H129	H	0.371880	-0.156352	-0.336081
H130	H	0.429788	-0.126205	-0.382826
O131	O	0.657685	-0.349806	-0.957380
C132	C	0.685617	-0.385379	-1.011887
H133	H	0.727739	-0.387669	-0.983510
H134	H	0.666650	-0.425650	-1.012927
H135	H	0.685047	-0.371586	-1.083298
O136	O	0.678872	-0.457425	-0.320916
C137	C	0.685622	-0.403780	-0.333276
H138	H	0.700394	-0.398608	-0.402922
H139	H	0.646663	-0.382851	-0.327090
H140	H	0.715265	-0.386500	-0.279811
O141	O	0.047594	-0.196666	-0.321206
C142	C	0.013474	-0.165420	-0.270411
H143	H	-0.025351	-0.186734	-0.267240
H144	H	0.031599	-0.157418	-0.199343
H145	H	0.006584	-0.126842	-0.303572
H146	H	0.285358	-0.366094	-0.596828
H147	H	0.818956	-0.188523	-0.920490
O148	O	0.300824	-0.161330	-0.263612
C149	C	0.334315	-0.189102	-0.205217
H150	H	0.341437	-0.229804	-0.236903
H151	H	0.373116	-0.167389	-0.193171
H152	H	0.315473	-0.192570	-0.138360
H153	H	0.790210	-0.217259	-0.779141
O154	O	-0.067454	-0.336339	-0.548393
C155	C	-0.033349	-0.367575	-0.599238
H156	H	0.006797	-0.368134	-0.562273
H157	H	-0.049466	-0.409090	-0.608748
H158	H	-0.029800	-0.350759	-0.667804
H159	H	0.798059	-0.468896	-0.539467
H160	H	0.197125	-0.166832	-0.272726
H161	H	0.813257	-0.194200	-1.091401
O162	O	0.663719	-0.343552	-0.771707
C163	C	0.610849	-0.332874	-0.794694
H164	H	0.607497	-0.315050	-0.863111
H165	H	0.587275	-0.370710	-0.797881
H166	H	0.595024	-0.304227	-0.741680
O167	O	0.542372	-0.336264	-0.548286
C168	C	0.504867	-0.367522	-0.599092
H169	H	0.465848	-0.346216	-0.602289
H170	H	0.518283	-0.375527	-0.670149
H171	H	0.500141	-0.406097	-0.565924
H172	H	0.186307	-0.366094	-0.596856
O173	O	0.040173	-0.336215	-0.548371
C174	C	0.069822	-0.308436	-0.606748
H175	H	0.079065	-0.267730	-0.575064
H176	H	0.107814	-0.330137	-0.618762
H177	H	0.046563	-0.304980	-0.673622
O178	O	0.834495	-0.717984	-0.606522
C179	C	0.820038	-0.734314	-0.696409
H180	H	0.778120	-0.749499	-0.700882
H181	H	0.823028	-0.699874	-0.740986
H182	H	0.847275	-0.766771	-0.720043
O183	O	0.834510	-0.825613	-0.606519
C184	C	0.802796	-0.859152	-0.664734
H185	H	0.761422	-0.842919	-0.670231
H186	H	0.819362	-0.862036	-0.734191
H187	H	0.801957	-0.899620	-0.636858
