data_functionalizedCrystal
_audit_creation_method	'MofGen! by Chris Wilmer'
_symmetry_space_group_name_H-M	'P1'
_symmetry_Int_Tables_number	1
_symmetry_cell_setting	triclinic
loop_
_symmetry_equiv_pos_as_xyz
  x,y,z
_cell_length_a	9.065215
_cell_length_b	17.019294
_cell_length_c	7.540329
_cell_angle_alpha	86.117441
_cell_angle_beta	89.997574
_cell_angle_gamma	84.202625
loop_
_atom_site_label
_atom_site_type_symbol
_atom_site_fract_x
_atom_site_fract_y
_atom_site_fract_z
O1	O	1.957267	0.115652	-0.165121
O2	O	2.457267	0.615652	0.334879
O3	O	1.527724	0.125141	-0.166578
O4	O	2.027724	0.625141	0.333422
O5	O	1.754478	0.005649	-0.148317
O6	O	2.254478	0.505649	0.351683
O7	O	1.730512	0.235143	-0.183382
O8	O	2.230512	0.735143	0.316618
O9	O	1.754465	0.005648	0.146648
O10	O	2.254465	0.505648	0.646648
O11	O	1.527711	0.125140	0.128387
O12	O	2.027711	0.625140	0.628387
O13	O	1.957253	0.115650	0.129844
O14	O	2.457253	0.615650	0.629844
Cu15	Cu	1.742481	0.120395	0.156048
Cu16	Cu	2.242481	0.620395	0.656048
Cu17	Cu	1.742496	0.120396	-0.192782
Cu18	Cu	2.242496	0.620396	0.307218
O19	O	1.730499	0.235142	0.111583
O20	O	2.230499	0.735142	0.611583
C21	C	1.472755	0.124229	-0.018957
C22	C	1.972755	0.624229	0.481043
C23	C	1.308986	0.121504	-0.018544
C24	C	1.808986	0.621504	0.481456
C25	C	1.753563	-0.023747	0.003653
C26	C	2.253563	0.476253	0.503653
C27	C	1.750837	-0.111337	0.017025
C28	C	2.250837	0.388663	0.517025
C29	C	1.749567	-0.152482	-0.137477
C30	C	2.249567	0.347518	0.362523
C31	C	1.746996	-0.234781	-0.124907
C32	C	2.246996	0.265219	0.375093
C33	C	1.745706	-0.275935	0.042166
C34	C	2.245706	0.224065	0.542166
C35	C	1.746972	-0.234784	0.196680
C36	C	2.246972	0.265216	0.696680
C37	C	1.749532	-0.152486	0.184109
C38	C	2.249532	0.347514	0.684109
C39	C	1.737966	-0.524423	0.088168
C40	C	2.237966	-0.024423	0.588168
C41	C	1.735410	-0.606727	0.100728
C42	C	2.235410	-0.106727	0.600728
C43	C	1.735432	-0.606718	-0.220861
C44	C	2.235432	-0.106718	0.279139
C45	C	1.738001	-0.524419	-0.233418
C46	C	2.238001	-0.024419	0.266582
C47	C	1.739259	-0.483275	-0.078904
C48	C	2.239259	0.016725	0.421096
C49	C	1.743083	-0.360058	0.055019
C50	C	2.243083	0.139942	0.555019
C51	C	1.741871	-0.399152	-0.091758
C52	C	2.241871	0.100848	0.408242
C53	C	2.012222	0.116562	-0.017780
C54	C	2.512222	0.616562	0.482220
C55	C	2.175991	0.119288	-0.018205
C56	C	2.675991	0.619288	0.481795
C57	C	1.731414	0.264538	-0.040391
C58	C	2.231414	0.764538	0.459609
C59	C	1.734140	0.352128	-0.053775
C60	C	2.234140	0.852128	0.446225
N61	N	1.742480	0.120393	0.401397
N62	N	2.242480	0.620393	0.901397
N63	N	1.742509	0.120392	-0.438130
N64	N	2.242509	0.620392	0.061870
H65	H	1.750625	-0.118980	-0.273527
H66	H	2.250625	0.381020	0.226473
Cl67	Cl	1.739524	-0.472708	0.282416
Cl68	Cl	2.239524	0.027292	0.782416
H69	H	1.745968	-0.268278	-0.250720
H70	H	2.245968	0.231722	0.249280
Cl71	Cl	1.739627	-0.472688	-0.443462
Cl72	Cl	2.239627	0.027312	0.056538
Cl73	Cl	1.733848	-0.658446	-0.415094
Cl74	Cl	2.233848	-0.158446	0.084906
H75	H	1.734352	-0.640232	0.236786
H76	H	2.234352	-0.140232	0.736786
H77	H	1.745912	-0.268298	0.332715
H78	H	2.245912	0.231702	0.832715
H79	H	1.750545	-0.118986	0.309921
H80	H	2.250545	0.381014	0.809921
H81	H	1.742912	-0.365640	-0.227789
H82	H	2.242912	0.134360	0.272211
Cl83	Cl	1.741454	-0.411801	0.265048
Cl84	Cl	2.241454	0.088199	0.765048
