data_functionalizedCrystal
_audit_creation_method	'MofGen! by Chris Wilmer'
_symmetry_space_group_name_H-M	'P1'
_symmetry_Int_Tables_number	1
_symmetry_cell_setting	triclinic
loop_
_symmetry_equiv_pos_as_xyz
  x,y,z
_cell_length_a	25.639239
_cell_length_b	12.827893
_cell_length_c	12.827885
_cell_angle_alpha	90.021189
_cell_angle_beta	89.964018
_cell_angle_gamma	89.963105
loop_
_atom_site_label
_atom_site_type_symbol
_atom_site_fract_x
_atom_site_fract_y
_atom_site_fract_z
Zn1	Zn	-0.208150	-1.597500	-0.590857
Zn2	Zn	0.125183	-1.264167	-0.257524
Zn3	Zn	0.458516	-0.930834	0.075810
Zn4	Zn	-0.295596	-1.597323	-0.416098
Zn5	Zn	0.037738	-1.263990	-0.082765
Zn6	Zn	0.371071	-0.930657	0.250568
Zn7	Zn	-0.208173	-1.422742	-0.416125
Zn8	Zn	0.125160	-1.089408	-0.082792
Zn9	Zn	0.458493	-0.756075	0.250542
Zn10	Zn	-0.295554	-1.422656	-0.590793
Zn11	Zn	0.037779	-1.089323	-0.257459
Zn12	Zn	0.371113	-0.755989	0.075874
O13	O	-0.251868	-1.510055	-0.503468
O14	O	0.081465	-1.176722	-0.170135
O15	O	0.414798	-0.843389	0.163198
O16	O	-0.219758	-1.743713	-0.567691
O17	O	0.113575	-1.410380	-0.234358
O18	O	0.446909	-1.077046	0.098976
O19	O	-0.284026	-1.574127	-0.269866
O20	O	0.049308	-1.240793	0.063468
O21	O	0.382641	-0.907460	0.396801
O22	O	-0.135005	-1.446034	-0.439341
O23	O	0.198328	-1.112701	-0.106008
O24	O	0.531662	-0.779367	0.227325
O25	O	-0.284004	-1.743583	-0.439296
O26	O	0.049330	-1.410250	-0.105963
O27	O	0.382663	-1.076916	0.227370
O28	O	-0.134988	-1.574428	-0.567716
O29	O	0.198345	-1.241095	-0.234383
O30	O	0.531678	-0.907762	0.098950
O31	O	-0.219797	-1.445862	-0.269885
O32	O	0.113536	-1.112529	0.063448
O33	O	0.446870	-0.779196	0.396781
O34	O	-0.219757	-1.276494	-0.439279
O35	O	0.113577	-0.943161	-0.105946
O36	O	0.446910	-0.609828	0.227388
O37	O	-0.283933	-1.445888	-0.737037
O38	O	0.049401	-1.112554	-0.403704
O39	O	0.382734	-0.779221	-0.070371
O40	O	-0.283955	-1.276431	-0.567607
O41	O	0.049379	-0.943098	-0.234273
O42	O	0.382712	-0.609765	0.099060
O43	O	-0.219718	-1.574345	-0.737085
O44	O	0.113616	-1.241012	-0.403751
O45	O	0.446949	-0.907678	-0.070418
O46	O	-0.368755	-1.574044	-0.439234
O47	O	-0.035422	-1.240710	-0.105901
O48	O	0.297911	-0.907377	0.227433
O49	O	-0.368725	-1.445716	-0.567581
O50	O	-0.035391	-1.112383	-0.234248
O51	O	0.297942	-0.779049	0.099086
C52	C	-0.251854	-1.238546	-0.503439
C53	C	0.081479	-0.905212	-0.170106
C54	C	0.414813	-0.571879	0.163227
C55	C	-0.251861	-1.122392	-0.503452
C56	C	0.081473	-0.789059	-0.170118
C57	C	0.414806	-0.455726	0.163215
C58	C	-0.220125	-1.070672	-0.567083
C59	C	0.113208	-0.737338	-0.233749
C60	C	0.446541	-0.404005	0.099584
C61	C	-0.220131	-0.950621	-0.567097
C62	C	0.113202	-0.617288	-0.233763
C63	C	0.446535	-0.283955	0.099570
C64	C	-0.387711	-1.509880	-0.503420
C65	C	-0.054378	-1.176546	-0.170087
C66	C	0.278956	-0.843213	0.163246
C67	C	-0.445825	-1.509900	-0.503435
C68	C	-0.112492	-1.176567	-0.170102
C69	C	0.220842	-0.843233	0.163232
C70	C	-0.806191	-1.577050	-0.436752
C71	C	-0.472858	-1.243717	-0.103418
C72	C	-0.139525	-0.910383	0.229915
C73	C	-0.860796	-1.577090	-0.436766
C74	C	-0.527462	-1.243757	-0.103432
C75	C	-0.194129	-0.910424	0.229901
O76	O	-0.889035	-1.634001	-0.380017
O77	O	-0.555702	-1.300668	-0.046684
O78	O	-0.222368	-0.967335	0.286650
N79	N	-0.888107	-1.510239	-0.503537
N80	N	-0.554774	-1.176906	-0.170204
N81	N	-0.221441	-0.843572	0.163129
C82	C	-0.860812	-1.443350	-0.570307
C83	C	-0.527479	-1.110017	-0.236974
C84	C	-0.194145	-0.776684	0.096360
O85	O	-0.889057	-1.386493	-0.627104
O86	O	-0.555723	-1.053159	-0.293770
O87	O	-0.222390	-0.719826	0.039563
C88	C	-0.806209	-1.443316	-0.570298
C89	C	-0.472875	-1.109983	-0.236964
C90	C	-0.139542	-0.776649	0.096369
C91	C	-0.778900	-1.510164	-0.503514
C92	C	-0.445566	-1.176831	-0.170181
C93	C	-0.112233	-0.843498	0.163153
C94	C	-0.778882	-1.643893	-0.369975
C95	C	-0.445549	-1.310560	-0.036641
C96	C	-0.112216	-0.977227	0.296692
C97	C	-0.724282	-1.643851	-0.369959
C98	C	-0.390948	-1.310518	-0.036626
C99	C	-0.057615	-0.977185	0.296707
C100	C	-0.696990	-1.576966	-0.436722
C101	C	-0.363657	-1.243632	-0.103388
C102	C	-0.030324	-0.910299	0.229945
C103	C	-0.724299	-1.510122	-0.503499
C104	C	-0.390966	-1.176789	-0.170166
C105	C	-0.057632	-0.843455	0.163168
C106	C	-0.778914	-1.376433	-0.637072
C107	C	-0.445581	-1.043100	-0.303738
C108	C	-0.112248	-0.709767	0.029595
C109	C	-0.724307	-1.376405	-0.637057
C110	C	-0.390974	-1.043072	-0.303724
C111	C	-0.057641	-0.709739	0.029610
C112	C	-0.696998	-1.443253	-0.570273
C113	C	-0.363665	-1.109920	-0.236940
C114	C	-0.030332	-0.776587	0.096393
C115	C	-0.642407	-1.443194	-0.570246
C116	C	-0.309074	-1.109861	-0.236913
C117	C	0.024260	-0.776528	0.096421
N118	N	-0.615095	-1.510045	-0.503474
N119	N	-0.281762	-1.176712	-0.170141
N120	N	0.051571	-0.843379	0.163192
C121	C	-0.642387	-1.576931	-0.436712
C122	C	-0.309054	-1.243598	-0.103379
C123	C	0.024280	-0.910265	0.229955
C124	C	-0.975483	-1.443429	-0.570323
C125	C	-0.642149	-1.110096	-0.236990
C126	C	-0.308816	-0.776763	0.096344
C127	C	-1.030085	-1.443458	-0.570328
C128	C	-0.696752	-1.110124	-0.236995
C129	C	-0.363418	-0.776791	0.096339
C130	C	-1.030065	-1.577199	-0.436788
C131	C	-0.696731	-1.243866	-0.103455
C132	C	-0.363398	-0.910533	0.229879
C133	C	-0.975461	-1.577165	-0.436779
C134	C	-0.642128	-1.243831	-0.103445
C135	C	-0.308795	-0.910498	0.229888
C136	C	-0.948171	-1.510280	-0.503551
C137	C	-0.614837	-1.176947	-0.170218
C138	C	-0.281504	-0.843614	0.163115
C139	C	-0.527722	-1.576837	-0.436685
C140	C	-0.194388	-1.243504	-0.103352
C141	C	0.138945	-0.910170	0.229982
C142	C	-0.473116	-1.576786	-0.436673
C143	C	-0.139783	-1.243452	-0.103339
C144	C	0.193550	-0.910119	0.229994
C145	C	-0.473141	-1.443049	-0.570216
C146	C	-0.139808	-1.109715	-0.236883
C147	C	0.193525	-0.776382	0.096450
C148	C	-0.527742	-1.443095	-0.570225
C149	C	-0.194409	-1.109762	-0.236892
C150	C	0.138925	-0.776429	0.096442
C151	C	-0.555031	-1.509998	-0.503456
C152	C	-0.221698	-1.176665	-0.170123
C153	C	0.111636	-0.843331	0.163211
O154	O	-0.614133	-1.386315	-0.626969
O155	O	-0.280800	-1.052982	-0.293636
O156	O	0.052534	-0.719649	0.039698
O157	O	-0.614135	-1.633789	-0.379935
O158	O	-0.280802	-1.300456	-0.046602
O159	O	0.052531	-0.967122	0.286732
C160	C	-0.115495	-1.510260	-0.503539
C161	C	0.217838	-1.176927	-0.170206
C162	C	0.551171	-0.843594	0.163128
C163	C	-0.057381	-1.510348	-0.503569
C164	C	0.275952	-1.177014	-0.170236
C165	C	0.609285	-0.843681	0.163097
C166	C	-0.251818	-1.510127	-0.776039
C167	C	0.081515	-1.176793	-0.442705
C168	C	0.414849	-0.843460	-0.109372
C169	C	-0.251797	-1.510157	-0.892192
C170	C	0.081537	-1.176824	-0.558858
C171	C	0.414870	-0.843490	-0.225525
C172	C	-0.251879	-0.782626	-0.503490
C173	C	0.081455	-0.449292	-0.170156
C174	C	0.414788	-0.115959	0.163177
C175	C	-0.251872	-0.898779	-0.503477
C176	C	0.081461	-0.565445	-0.170144
C177	C	0.414794	-0.232112	0.163190
C178	C	-0.220015	-1.573729	-0.944000
C179	C	0.113318	-1.240395	-0.610667
C180	C	0.446652	-0.907062	-0.277333
C181	C	-0.219992	-1.573761	-1.064050
C182	C	0.113341	-1.240428	-0.730717
C183	C	0.446675	-0.907095	-0.397384
C184	C	-0.251881	-1.510045	-0.231958
C185	C	0.081453	-1.176711	0.101375
C186	C	0.414786	-0.843378	0.434708
C187	C	-0.251755	-1.510217	-0.115806
C188	C	0.081579	-1.176884	0.217528
C189	C	0.414912	-0.843550	0.550861
H190	H	-0.279034	-1.077796	-0.448983
H191	H	0.054300	-0.744462	-0.115650
H192	H	0.387633	-0.411129	0.217683
H193	H	-0.279046	-0.943251	-0.449003
H194	H	0.054287	-0.609917	-0.115670
H195	H	0.387620	-0.276584	0.217663
H196	H	-0.450883	-1.631221	-0.382286
H197	H	-0.117550	-1.297888	-0.048953
H198	H	0.215783	-0.964555	0.284381
H199	H	-0.549934	-1.631318	-0.382317
H200	H	-0.216601	-1.297984	-0.048984
H201	H	0.116733	-0.964651	0.284349
H202	H	-0.192963	-0.906143	-0.621577
H203	H	0.140370	-0.572809	-0.288244
H204	H	0.473703	-0.239476	0.045090
H205	H	-0.702050	-1.698288	-0.315582
H206	H	-0.368717	-1.364954	0.017752
H207	H	-0.035383	-1.031621	0.351085
H208	H	-1.052315	-1.389013	-0.624700
H209	H	-0.718982	-1.055680	-0.291367
H210	H	-0.385649	-0.722347	0.041966
H211	H	-0.278986	-1.455748	-0.936714
H212	H	0.054347	-1.122415	-0.603380
H213	H	0.387681	-0.789082	-0.270047
H214	H	-0.192949	-1.115269	-0.621545
H215	H	0.140384	-0.781935	-0.288211
H216	H	0.473717	-0.448602	0.045122
H217	H	-0.801097	-1.698366	-0.315608
H218	H	-0.467764	-1.365032	0.017725
H219	H	-0.134431	-1.031699	0.351058
H220	H	-0.278968	-1.455792	-1.071259
H221	H	0.054366	-1.122459	-0.737925
H222	H	0.387699	-0.789125	-0.404592
H223	H	-0.953230	-1.631599	-0.382398
H224	H	-0.619896	-1.298265	-0.049065
H225	H	-0.286563	-0.964932	0.284268
H226	H	-0.549978	-1.388665	-0.624609
H227	H	-0.216645	-1.055332	-0.291275
H228	H	0.116689	-0.721999	0.042058
H229	H	-1.052295	-1.631665	-0.382430
H230	H	-0.718962	-1.298332	-0.049097
H231	H	-0.385629	-0.964998	0.284237
H232	H	-0.953265	-1.388955	-0.624695
H233	H	-0.619932	-1.055622	-0.291361
H234	H	-0.286598	-0.722289	0.041972
H235	H	-0.801140	-1.321993	-0.691449
H236	H	-0.467806	-0.988660	-0.358116
H237	H	-0.134473	-0.655327	-0.024782
H238	H	-0.702090	-1.321941	-0.691435
H239	H	-0.368756	-0.988608	-0.358102
H240	H	-0.035423	-0.655275	-0.024768
H241	H	-0.450912	-1.388588	-0.624570
H242	H	-0.117579	-1.055254	-0.291237
H243	H	0.215755	-0.721921	0.042096
H244	H	-0.192820	-1.628127	-0.899478
H245	H	0.140513	-1.294793	-0.566145
H246	H	0.473846	-0.961460	-0.232811
H247	H	-0.192784	-1.628191	-1.108604
H248	H	0.140549	-1.294858	-0.775271
H249	H	0.473883	-0.961524	-0.441937
