data_functionalizedCrystal
_audit_creation_method	'MofGen! by Chris Wilmer'
_symmetry_space_group_name_H-M	'P1'
_symmetry_Int_Tables_number	1
_symmetry_cell_setting	triclinic
loop_
_symmetry_equiv_pos_as_xyz
  x,y,z
_cell_length_a	10.723023
_cell_length_b	15.538191
_cell_length_c	9.798715
_cell_angle_alpha	89.999989
_cell_angle_beta	89.996449
_cell_angle_gamma	65.869821
loop_
_atom_site_label
_atom_site_type_symbol
_atom_site_fract_x
_atom_site_fract_y
_atom_site_fract_z
O1	O	1.596025	0.131731	-0.113473
O2	O	1.227018	0.144341	-0.113475
O3	O	1.483352	0.001370	-0.113480
O4	O	1.339691	0.274701	-0.113468
O5	O	1.483338	0.001370	0.113502
O6	O	1.227004	0.144341	0.113507
O7	O	1.596011	0.131730	0.113509
Zn8	Zn	1.411505	0.138035	0.149547
Zn9	Zn	1.411524	0.138036	-0.149512
O10	O	1.339677	0.274701	0.113514
C11	C	1.180937	0.143423	0.000016
C12	C	1.043658	0.140678	0.000014
C13	C	0.840568	0.136617	0.117592
C14	C	0.982454	0.139454	0.117597
C15	C	1.498376	-0.033628	0.000007
C16	C	1.543147	-0.137913	-0.000007
C17	C	1.098354	-0.428577	0.000020
C18	C	1.140455	-0.526570	0.000023
C19	C	1.377263	-0.547484	0.000024
C20	C	1.335182	-0.449490	0.000014
C21	C	1.195726	-0.390043	0.000014
C22	C	1.432554	-0.410956	0.000008
C23	C	1.390476	-0.312971	0.000005
C24	C	1.251026	-0.253519	0.000009
C25	C	1.153648	-0.292058	0.000011
C26	C	1.572010	-0.470404	0.000018
C27	C	1.669382	-0.431871	0.000012
C28	C	1.627304	-0.333884	-0.000001
C29	C	1.487854	-0.274431	0.000003
C30	C	1.724682	-0.295344	-0.000003
C31	C	1.682604	-0.197359	-0.000006
C32	C	1.445775	-0.176446	-0.000000
C33	C	1.642092	0.132648	0.000016
C34	C	1.779372	0.135393	0.000008
C35	C	1.324654	0.309699	0.000025
C36	C	1.279882	0.413984	0.000029
N37	N	1.411502	0.138034	0.353646
N38	N	1.411540	0.138029	-0.353612
C39	C	1.519253	0.077741	0.421421
C40	C	1.519274	0.077737	0.578584
H41	H	1.035083	0.140502	0.218265
H42	H	1.040088	-0.243653	0.000000
H43	H	1.611527	0.026121	0.636867
H44	H	1.319265	0.189649	0.411973
H45	H	0.984795	-0.380172	0.000010
H46	H	0.991040	0.139624	-0.100659
H47	H	1.611484	0.026119	0.363097
H48	H	1.319289	0.189656	0.588113
H49	H	1.782927	-0.480285	0.000017
H50	H	1.216768	-0.173733	0.000014
H51	H	1.490809	-0.595898	0.000030
H52	H	0.832018	0.136452	-0.100656
H53	H	0.787915	0.135569	0.218257
H54	H	1.061152	-0.557939	0.000048
H55	H	1.332216	-0.128041	-0.000011
H56	H	1.606265	-0.550190	0.000008
H57	H	1.838227	-0.343760	0.000011
H58	H	1.761894	-0.165985	-0.000010
