data_functionalizedCrystal
_audit_creation_method	'MofGen! by Chris Wilmer'
_symmetry_space_group_name_H-M	'P1'
_symmetry_Int_Tables_number	1
_symmetry_cell_setting	triclinic
loop_
_symmetry_equiv_pos_as_xyz
  x,y,z
_cell_length_a	10.654550
_cell_length_b	16.109301
_cell_length_c	15.186229
_cell_angle_alpha	89.992751
_cell_angle_beta	89.997249
_cell_angle_gamma	96.026794
loop_
_atom_site_label
_atom_site_type_symbol
_atom_site_fract_x
_atom_site_fract_y
_atom_site_fract_z
O1	O	1.666249	-0.116776	0.073166
O2	O	1.300620	-0.127901	0.073182
O3	O	1.493479	-0.001367	0.073165
O4	O	1.473391	-0.243310	0.073184
O5	O	1.493477	-0.001360	-0.073292
O6	O	1.300619	-0.127894	-0.073275
O7	O	1.666248	-0.116768	-0.073291
Zn8	Zn	1.483433	-0.122330	-0.096536
Zn9	Zn	1.483435	-0.122340	0.096427
O10	O	1.473389	-0.243302	-0.073274
C11	C	1.253832	-0.127081	-0.000044
C12	C	1.114422	-0.124637	-0.000038
N13	N	1.483437	-0.122341	0.228120
C14	C	1.492664	0.029616	-0.000064
C15	C	1.490225	0.121926	-0.000065
C16	C	1.033926	-0.199138	-0.000035
C17	C	0.902936	-0.196836	-0.000050
C18	C	0.932952	-0.045526	-0.000069
C19	C	1.063939	-0.047828	-0.000060
C20	C	0.705905	-0.284578	-0.051365
C21	C	0.625404	-0.359084	-0.051347
C22	C	0.654655	-0.426627	-0.000015
C23	C	0.764406	-0.419669	0.051319
C24	C	0.844901	-0.345162	0.051308
C25	C	0.815651	-0.277622	-0.000044
C26	C	1.260971	0.039908	0.051263
C27	C	1.341469	0.114416	0.051258
C28	C	1.312222	0.181966	-0.000068
C29	C	1.202469	0.175016	-0.051389
C30	C	1.121971	0.100509	-0.051384
C31	C	1.151228	0.032958	-0.000060
C32	C	1.713036	-0.117589	-0.000063
C33	C	1.852446	-0.120033	-0.000063
C34	C	1.474203	-0.274286	-0.000043
C35	C	1.476643	-0.366596	-0.000036
C36	C	1.598991	0.343552	-0.000056
C37	C	1.596689	0.430286	-0.000049
C38	C	1.367868	0.411772	-0.000042
C39	C	1.370172	0.325040	-0.000043
C40	C	1.485737	0.290932	-0.000055
C41	C	1.481131	0.464398	-0.000046
C42	C	1.478634	0.558439	-0.000038
C43	C	1.488234	0.196885	-0.000061
N44	N	1.483441	-0.122322	-0.228229
C45	C	1.569000	-0.066422	0.453835
C46	C	1.569003	-0.066419	0.546025
C47	C	1.397874	-0.178247	0.546050
C48	C	1.397877	-0.178253	0.453862
C49	C	1.483439	-0.122335	0.407757
C50	C	1.483439	-0.122328	0.592134
C51	C	1.483442	-0.122326	0.692091
C52	C	1.483437	-0.122338	0.307794
H53	H	1.075024	-0.261680	-0.000024
H54	H	0.536046	-0.364744	-0.093149
O55	O	0.792875	-0.485354	0.101055
C56	C	0.805871	-0.554427	0.046039
H57	H	0.829433	-0.531667	-0.023698
H58	H	0.885030	-0.590174	0.071939
H59	H	0.713662	-0.597293	0.045390
H60	H	1.688912	0.473126	-0.000048
H61	H	1.638671	-0.020891	0.416299
O62	O	1.255724	0.445044	-0.000078
C63	C	1.277973	0.532880	-0.000059
H64	H	1.375985	0.552684	-0.027787
H65	H	1.204034	0.559935	-0.042580
H66	H	1.271891	0.557047	0.070204
H67	H	1.638676	-0.020891	0.583539
H68	H	1.277941	0.282194	-0.000039
O69	O	1.314928	-0.232592	0.590936
C70	C	1.381983	-0.284406	0.644257
H71	H	1.480338	-0.252017	0.658060
H72	H	1.329531	-0.297164	0.709087
H73	H	1.390301	-0.345933	0.608744
O74	O	0.951482	-0.338548	0.101188
C75	C	0.960021	-0.414132	0.146526
H76	H	0.902526	-0.467196	0.110255
H77	H	1.062957	-0.427334	0.149858
H78	H	0.921486	-0.408985	0.216125
O79	O	0.677280	-0.219036	-0.101259
C80	C	0.563166	-0.241164	-0.146570
H81	H	0.505898	-0.294321	-0.110273
H82	H	0.506749	-0.184906	-0.149910
H83	H	0.584575	-0.262156	-0.216166
O84	O	0.576384	-0.498969	0.000151
C85	C	0.532210	-0.516328	0.086411
H86	H	0.538638	-0.455973	0.126104
H87	H	0.429806	-0.545008	0.083803
H88	H	0.592463	-0.562041	0.119076
O89	O	0.883848	0.029060	0.000075
C90	C	0.808939	0.034907	0.075911
H91	H	0.839889	-0.008720	0.128933
H92	H	0.820720	0.101843	0.101365
H93	H	0.705638	0.016326	0.058759
O94	O	1.015436	0.093882	-0.101320
C95	C	1.006857	0.169488	-0.146606
H96	H	1.104872	0.204888	-0.152805
H97	H	0.966055	0.155611	-0.215069
H98	H	0.942708	0.209099	-0.108566
O99	O	1.174263	0.240701	-0.101228
C100	C	1.268829	0.307960	-0.090211
H101	H	1.359815	0.283266	-0.067345
H102	H	1.286101	0.342090	-0.155559
H103	H	1.237041	0.352909	-0.038821
H104	H	1.328203	-0.223789	0.416342
O105	O	1.390423	0.254342	0.000094
C106	C	1.399975	0.286781	0.086340
H107	H	1.375696	0.234206	0.135684
H108	H	1.500456	0.316307	0.098506
H109	H	1.331502	0.336059	0.094573
O110	O	1.447958	0.121116	0.101244
C111	C	1.415140	0.108650	0.190570
H112	H	1.318461	0.071211	0.195349
H113	H	1.488440	0.072961	0.224461
H114	H	1.411981	0.171695	0.224133
O115	O	1.289165	-0.025725	0.101189
C116	C	1.191341	-0.046456	0.162373
H117	H	1.100464	-0.023268	0.137165
H118	H	1.176619	-0.117102	0.171052
H119	H	1.217837	-0.015765	0.228377
O120	O	1.711167	0.310320	0.000059
C121	C	1.719351	0.260711	0.075921
H122	H	1.620359	0.239676	0.101208
H123	H	1.769394	0.203641	0.058862
H124	H	1.774915	0.298698	0.129037
