data_functionalizedCrystal
_audit_creation_method	'MofGen! by Chris Wilmer'
_symmetry_space_group_name_H-M	'P1'
_symmetry_Int_Tables_number	1
_symmetry_cell_setting	triclinic
loop_
_symmetry_equiv_pos_as_xyz
  x,y,z
_cell_length_a	14.908571
_cell_length_b	12.759399
_cell_length_c	14.908308
_cell_angle_alpha	93.272288
_cell_angle_beta	89.824947
_cell_angle_gamma	93.287980
loop_
_atom_site_label
_atom_site_type_symbol
_atom_site_fract_x
_atom_site_fract_y
_atom_site_fract_z
Zn1	Zn	1.345333	0.548283	0.587624
Zn2	Zn	1.845333	1.048283	1.087624
Zn3	Zn	1.353925	0.714463	0.437277
Zn4	Zn	1.853925	1.214463	0.937277
Zn5	Zn	1.203647	0.528103	0.428620
Zn6	Zn	1.703647	1.028103	0.928620
Zn7	Zn	1.194953	0.713215	0.578929
Zn8	Zn	1.694953	1.213215	1.078929
O9	O	1.274465	0.626016	0.508113
O10	O	1.774465	1.126016	1.008113
O11	O	1.472300	0.579295	0.574942
O12	O	1.972300	1.079295	1.074942
O13	O	1.341225	0.681819	0.310303
O14	O	1.841225	1.181819	0.810303
O15	O	1.222485	0.383763	0.449729
O16	O	1.722485	0.883763	0.949729
O17	O	1.478612	0.701387	0.464483
O18	O	1.978612	1.201387	0.964483
O19	O	1.326581	0.398589	0.566548
O20	O	1.826581	0.898589	1.066548
O21	O	1.230816	0.544901	0.303943
O22	O	1.730816	1.044901	0.803943
O23	O	1.076667	0.543691	0.441297
O24	O	1.576667	1.043691	0.941297
O25	O	1.207667	0.699260	0.705907
O26	O	1.707667	1.199260	1.205907
O27	O	1.070279	0.679692	0.551728
O28	O	1.570279	1.179692	1.051728
O29	O	1.318151	0.578085	0.712296
O30	O	1.818151	1.078085	1.212296
O31	O	1.332794	0.861315	0.456051
O32	O	1.832794	1.361315	0.956051
O33	O	1.215998	0.860398	0.560122
O34	O	1.715998	1.360398	1.060122
C35	C	1.040848	0.609367	0.494630
C36	C	1.540848	1.109367	0.994630
C37	C	0.940904	0.602271	0.488884
C38	C	1.440904	1.102271	0.988884
C39	C	0.746506	0.730754	0.592922
C40	C	1.246506	1.230754	1.092922
C41	C	0.652600	0.724090	0.587526
C42	C	1.152600	1.224090	1.087526
C43	C	0.659184	0.582275	0.472700
C44	C	1.159184	1.082275	0.972700
C45	C	0.753090	0.588939	0.478096
C46	C	1.253090	1.088939	0.978096
C47	C	0.796748	0.663182	0.538209
C48	C	1.296748	1.163182	1.038209
C49	C	0.890656	0.669850	0.543600
C50	C	1.390656	1.169850	1.043600
C51	C	0.897238	0.528031	0.428779
C52	C	1.397238	1.028031	0.928779
C53	C	0.803332	0.521367	0.423382
C54	C	1.303332	1.021367	0.923382
C55	C	1.274408	0.898979	0.508104
C56	C	1.774408	1.398979	1.008104
C57	C	1.274464	1.015762	0.508135
C58	C	1.774464	1.515762	1.008135
C59	C	1.335340	1.071075	0.454015
C60	C	1.835340	1.571075	0.954015
C61	C	1.335391	1.180805	0.454051
C62	C	1.835391	1.680805	0.954051
C63	C	1.213685	1.179898	0.562329
C64	C	1.713685	1.679898	1.062329
C65	C	1.213638	1.070171	0.562297
C66	C	1.713638	1.570171	1.062297
C67	C	1.396166	1.016666	0.399853
C68	C	1.896166	1.516666	0.899853
C69	C	1.457045	1.071979	0.345728
C70	C	1.957045	1.571979	0.845728
C71	C	1.457097	1.181709	0.345764
C72	C	1.957097	1.681709	0.845764
C73	C	1.396269	1.236126	0.399925
C74	C	1.896269	1.736126	0.899925
C75	C	1.508993	0.642731	0.521648
C76	C	2.008993	1.142731	1.021648
C77	C	1.608936	0.649854	0.527416
C78	C	2.108936	1.149854	1.027416
C79	C	1.260980	0.640784	0.742639
C80	C	1.760980	1.140784	1.242639
C81	C	1.255234	0.647077	0.842580
C82	C	1.755234	1.147077	1.342580
C83	C	1.274541	1.351991	0.508154
C84	C	1.774541	1.851991	1.008154
C85	C	1.274563	1.235219	0.508203
C86	C	1.774563	1.735219	1.008203
C87	C	1.287948	0.611234	0.274502
C88	C	1.787948	1.111234	0.774502
C89	C	1.293868	0.604657	0.174571
C90	C	1.793868	1.104657	0.674571
C91	C	1.359481	0.532698	1.037034
C92	C	1.859481	1.032698	1.537034
C93	C	1.354085	0.538608	1.130938
C94	C	1.854085	1.038608	1.630938
C95	C	1.239042	0.664799	1.124293
C96	C	1.739042	1.164799	1.624293
C97	C	1.244438	0.658890	1.030389
C98	C	1.744438	1.158890	1.530389
C99	C	1.304661	0.592838	0.986763
C100	C	1.804661	1.092838	1.486763
C101	C	1.310061	0.586935	0.892858
C102	C	1.810061	1.086935	1.392858
C103	C	1.195014	0.713120	0.886215
C104	C	1.695014	1.213120	1.386215
C105	C	1.189618	0.719030	0.980118
C106	C	1.689618	1.219030	1.480118
H107	H	0.938156	0.473011	0.384224
H108	H	1.438156	0.973011	0.884224
H109	H	1.150377	0.762094	0.845274
H110	H	1.650377	1.262094	1.345274
Br111	Br	1.157309	0.754422	1.183515
Br112	Br	1.657309	1.254422	1.683515
Br113	Br	0.805760	0.831521	0.674488
Br114	Br	1.305760	1.331521	1.174488
Br115	Br	1.131139	1.253749	0.635827
Br116	Br	1.631139	1.753749	1.135827
H117	H	1.359098	0.533154	0.857339
H118	H	1.859098	1.033154	1.357339
H119	H	1.408521	0.478922	1.001513
H120	H	1.908521	0.978922	1.501513
Br121	Br	0.949905	0.770610	0.625175
Br122	Br	1.449905	1.270610	1.125175
H123	H	1.396128	0.927318	0.399814
H124	H	1.896128	1.427318	0.899814
Br125	Br	0.744075	0.420608	0.341812
Br126	Br	1.244075	0.920608	0.841812
H127	H	1.506574	1.027668	0.301637
H128	H	2.006574	1.527668	0.801637
H129	H	0.611696	0.779112	0.632082
H130	H	1.111696	1.279112	1.132082
Br131	Br	0.599919	0.481507	0.391143
Br132	Br	1.099919	0.981507	0.891143
H133	H	1.506674	1.226743	0.301699
H134	H	2.006674	1.726743	0.801699
H135	H	1.396323	1.325476	0.399957
H136	H	1.896323	1.825476	0.899957
H137	H	1.398723	0.489633	1.171865
H138	H	1.898723	0.989633	1.671865
Br139	Br	1.131025	0.995096	0.635751
Br140	Br	1.631025	1.495096	1.135751
H141	H	1.140584	0.772805	1.015652
H142	H	1.640584	1.272805	1.515652
