data_functionalizedCrystal
_audit_creation_method	'MofGen! by Chris Wilmer'
_symmetry_space_group_name_H-M	'P1'
_symmetry_Int_Tables_number	1
_symmetry_cell_setting	triclinic
loop_
_symmetry_equiv_pos_as_xyz
  x,y,z
_cell_length_a	27.440280
_cell_length_b	21.606444
_cell_length_c	21.606444
_cell_angle_alpha	60.003978
_cell_angle_beta	90.003338
_cell_angle_gamma	59.997897
loop_
_atom_site_label
_atom_site_type_symbol
_atom_site_fract_x
_atom_site_fract_y
_atom_site_fract_z
Zr1	Zr	-0.064056	0.677526	0.596224
O2	O	-0.141880	0.806640	0.497400
O3	O	-0.040187	0.548401	0.626518
O4	O	-0.141867	0.677516	0.626517
O5	O	0.039993	0.677537	0.497403
O6	O	-0.141870	0.677520	0.728366
O7	O	-0.040200	0.677525	0.497402
O8	O	0.040017	0.446557	0.728368
O9	O	-0.141893	0.908500	0.497401
O10	O	-0.030023	0.601519	0.715448
O11	O	0.029826	0.601525	0.639440
O12	O	-0.089889	0.753541	0.639438
O13	O	-0.030039	0.753547	0.563430
Zr14	Zr	0.063839	0.677552	0.758665
Zr15	Zr	-0.064060	0.677533	0.758662
Zr16	Zr	0.063843	0.677545	0.596226
Zr17	Zr	-0.064077	0.839981	0.596225
Zr18	Zr	0.063860	0.515097	0.758664
O19	O	0.039970	0.806677	0.728370
O20	O	-0.141887	0.806650	0.728367
O21	O	0.039976	0.806667	0.497404
O22	O	0.141663	0.548438	0.857488
O23	O	-0.040193	0.548410	0.857485
O24	O	0.141669	0.548428	0.626521
O25	O	-0.040210	0.677541	0.857485
O26	O	0.141649	0.677562	0.728372
O27	O	0.141652	0.677558	0.626522
O28	O	0.039983	0.677553	0.857487
O29	O	-0.141897	0.908506	0.626518
O30	O	0.141680	0.446572	0.728370
O31	O	0.141676	0.446577	0.857487
O32	O	0.040013	0.446562	0.857485
O33	O	-0.040231	0.908516	0.497403
O34	O	-0.040234	0.908521	0.626520
O35	O	0.089671	0.601537	0.715450
O36	O	0.029822	0.601531	0.791458
O37	O	-0.030043	0.753553	0.715449
O38	O	0.029806	0.753559	0.639440
C39	C	-0.000082	0.474332	0.677443
C40	C	-0.000073	0.405366	0.677443
C41	C	-0.044263	0.429092	0.621330
C42	C	-0.044275	0.364302	0.621332
C43	C	-0.000095	0.275788	0.677444
C44	C	0.044098	0.252062	0.733562
C45	C	0.044107	0.316851	0.733563
C46	C	0.044060	-0.009224	0.733562
C47	C	0.044049	-0.074013	0.733556
C48	C	-0.044322	0.038227	0.621331
C49	C	-0.044313	0.103016	0.621332
C50	C	-0.000122	0.079285	0.677452
C51	C	-0.000110	0.149537	0.677450
C52	C	-0.000104	0.205536	0.677444
C53	C	-0.160091	0.677515	0.677441
C54	C	-0.214388	0.677507	0.677440
C55	C	-0.582371	0.756907	0.637775
C56	C	-0.633393	0.756912	0.637777
O57	O	-0.686357	0.824400	0.604057
N58	N	-0.627661	0.677559	0.677452
C59	C	-0.570903	0.598196	0.717133
O60	O	-0.570713	0.530700	0.750880
C61	C	-0.519882	0.598192	0.717135
C62	C	-0.525618	0.677550	0.677451
C63	C	-0.588105	0.836259	0.598095
C64	C	-0.537086	0.836254	0.598092
C65	C	-0.480333	0.756897	0.637768
C66	C	-0.474599	0.677545	0.677448
C67	C	-0.463124	0.518830	0.756820
C68	C	-0.412103	0.518833	0.756819
C69	C	-0.417839	0.598191	0.717135
C70	C	-0.366828	0.598183	0.717121
N71	N	-0.372559	0.677536	0.677447
C72	C	-0.429312	0.756893	0.637770
C73	C	-0.678053	0.598210	0.717127
C74	C	-0.729072	0.598213	0.717122
C75	C	-0.791559	0.756930	0.637766
C76	C	-0.740538	0.756926	0.637768
C77	C	-0.683784	0.677563	0.677453
C78	C	-0.322166	0.756876	0.637766
C79	C	-0.271140	0.756864	0.637764
C80	C	-0.208658	0.598148	0.717122
C81	C	-0.259679	0.598160	0.717121
C82	C	-0.316435	0.677531	0.677442
O83	O	-0.313845	0.530730	0.750827
O84	O	-0.429492	0.824377	0.604037
C85	C	0.159874	0.677563	0.677447
C86	C	0.214170	0.677571	0.677448
C87	C	-0.000103	0.677530	0.474258
C88	C	-0.000101	0.677527	0.405299
C89	C	-0.000135	0.880746	0.677445
C90	C	-0.000144	0.949712	0.677446
C91	C	0.031146	0.598174	0.412576
C92	C	0.031147	0.598176	0.347778
C93	C	-0.000104	0.677533	0.275705
C94	C	-0.031351	0.756892	0.268430
C95	C	-0.031348	0.756889	0.333226
C96	C	-0.031365	0.756908	0.007111
C97	C	-0.031367	0.756905	-0.057687
C98	C	0.031130	0.598195	0.021664
C99	C	0.031133	0.598192	0.086460
C100	C	-0.000112	0.677550	0.079179
C101	C	-0.000111	0.677547	0.149441
C102	C	-0.000108	0.677537	0.205445
C103	C	-0.000114	0.677548	0.880630
C104	C	-0.000116	0.677551	0.949589
C105	C	-0.000088	0.474341	0.880629
C106	C	-0.000080	0.405377	0.949588
C107	C	0.159901	0.474356	0.677446
C108	C	0.214206	0.405398	0.677447
C109	C	0.159895	0.474365	0.880632
C110	C	0.214198	0.405409	0.949592
C111	C	-0.160112	0.880713	0.474257
C112	C	-0.214416	0.949668	0.405296
C113	C	-0.000130	0.880737	0.474259
C114	C	-0.000137	0.949700	0.405300
C115	C	-0.160118	0.880722	0.677442
C116	C	-0.214423	0.949680	0.677442
C117	C	-0.031321	0.372985	0.942295
C118	C	-0.031326	0.308195	1.007083
C119	C	-0.000087	0.275795	1.079164
C120	C	0.031154	0.308194	1.086455
C121	C	0.031156	0.372987	1.021667
C122	C	0.270953	0.373020	0.717123
C123	C	0.321984	0.308236	0.717121
C124	C	0.316267	0.275825	0.677446
C125	C	0.259514	0.308209	0.637764
C126	C	0.208485	0.372997	0.637762
C127	C	0.208459	0.373024	1.021659
C128	C	0.259478	0.308242	1.086460
C129	C	0.316236	0.275842	1.079193
C130	C	0.321974	0.308234	1.007119
C131	C	0.270956	0.373019	0.942319
C132	C	-0.208676	0.982061	0.333230
C133	C	-0.259695	1.046864	0.268428
C134	C	-0.316453	1.079267	0.275695
C135	C	-0.322192	1.046871	0.347769
C136	C	-0.271173	0.982075	0.412569
C137	C	0.031099	0.982099	0.412593
C138	C	0.031090	1.046907	0.347805
C139	C	-0.000151	1.079310	0.275725
C140	C	-0.031390	1.046908	0.268434
C141	C	-0.031385	0.982106	0.333221
C142	C	-0.208687	0.982070	0.717125
C143	C	-0.259708	1.046855	0.717139
C144	C	-0.316465	1.079254	0.677465
C145	C	-0.322200	1.046857	0.637781
C146	C	-0.271179	0.982069	0.637772
H147	H	0.080028	-0.146089	0.779253
N148	N	-0.000086	0.205902	1.149036
H149	H	0.024445	0.190286	1.195810
H150	H	-0.042418	0.228505	1.148988
N151	N	-0.277376	0.947134	0.490293
H152	H	-0.257601	0.882092	0.518938
H153	H	-0.257616	0.958463	0.518903
N154	N	0.064846	0.273244	1.164200
H155	H	0.060103	0.227282	1.204130
H156	H	0.108539	0.246404	1.170209
H157	H	0.080068	0.179988	0.779253
N158	N	0.277125	0.407979	0.759911
H159	H	0.257356	0.396698	0.799843
H160	H	0.320831	0.377619	0.784991
H161	H	-0.080234	0.501162	0.575629
H162	H	0.368189	0.281877	0.749437
N163	N	-0.091990	0.063816	0.560809
H164	H	-0.132551	0.099637	0.563258
H165	H	-0.090006	0.099580	0.509327
N166	N	0.064854	0.512576	0.490307
H167	H	0.096294	0.509040	0.518960
H168	H	0.036165	0.509081	0.518901
N169	N	-0.065025	0.273264	0.999202
H170	H	-0.048626	0.246378	0.970583
H171	H	-0.060284	0.227339	1.051201
H172	H	0.254868	0.281810	0.605462
N173	N	-0.253496	1.081778	0.190699
H174	H	-0.294426	1.127745	0.150746
H175	H	-0.230929	1.108602	0.184703
N176	N	0.064855	0.407918	1.029539
H177	H	0.084644	0.377554	1.085033
H178	H	0.096269	0.396635	1.004392
H179	H	-0.056785	0.821507	0.327296
N180	N	0.064830	0.512602	0.029510
H181	H	0.096269	0.509063	0.004397
H182	H	0.084586	0.462378	0.085013
H183	H	-0.056767	0.399365	0.883610
H184	H	-0.357991	1.132028	0.222925
N185	N	0.277146	0.407941	0.864588
H186	H	0.299681	0.434827	0.858517
H187	H	0.299676	0.358453	0.858583
H188	H	0.162249	0.399395	1.027590
H189	H	0.357823	0.223071	0.677453
N190	N	-0.147463	0.947117	0.325381
H191	H	-0.151578	0.977480	0.269890
H192	H	-0.124935	0.958392	0.350541
N193	N	0.147280	0.407960	0.594920
H194	H	0.151408	0.377607	0.569775
H195	H	0.124720	0.396708	0.631312
N196	N	-0.383410	1.081824	0.355601
H197	H	-0.414855	1.127783	0.303612
H198	H	-0.388136	1.032339	0.384244
H199	H	0.056543	0.955722	0.471279
H200	H	0.056531	1.073278	0.353757
N201	N	0.253282	0.273312	1.164190
H202	H	0.209583	0.303665	1.158955
H203	H	0.273097	0.208266	1.192807
H204	H	0.357774	0.223090	1.131964
H205	H	-0.162441	0.533538	0.749423
H206	H	-0.056819	0.955728	0.327272
H207	H	0.368193	0.281844	1.001213
H208	H	-0.000151	1.132076	0.222977
N209	N	0.091719	-0.034821	0.794090
H210	H	0.119706	-0.100726	0.829634
H211	H	0.114897	-0.010394	0.769558
H212	H	-0.056826	1.073300	0.209737
N213	N	-0.253515	1.081787	0.759945
H214	H	-0.209817	1.051434	0.785068
H215	H	-0.273330	1.146833	0.723520
N216	N	-0.147475	0.947136	0.759918
H217	H	-0.151593	0.977490	0.785058
H218	H	-0.124941	0.882090	0.799803
H219	H	-0.634312	0.900885	0.565786
N220	N	-0.065062	0.842489	0.190698
H221	H	-0.048677	0.877185	0.184628
H222	H	-0.060317	0.830384	0.150797
H223	H	-0.358004	1.132009	0.677479
N224	N	-0.383417	1.081805	0.594992
H225	H	-0.414863	1.127765	0.601021
H226	H	-0.388149	1.108649	0.539504
H227	H	-0.275858	0.955704	0.605454
H228	H	-0.080259	0.383628	0.575639
N229	N	-0.543280	0.921850	0.555301
H230	H	-0.523503	0.925385	0.591694
H231	H	-0.523518	0.925347	0.515369
H232	H	0.080092	0.297527	0.779256
N233	N	-0.091972	0.198484	0.560821
H234	H	-0.119973	0.203684	0.525278
H235	H	-0.115132	0.227797	0.585377
H236	H	-0.275818	0.821490	0.605445
H237	H	-0.368374	0.821508	0.605456
H238	H	-0.745215	0.821546	0.605454
H239	H	-0.837778	0.821547	0.605459
N240	N	0.064848	0.512586	0.355631
H241	H	0.036195	0.509048	0.330513
H242	H	0.096287	0.509102	0.330528
H243	H	-0.724394	0.533592	0.749426
H244	H	-0.458442	0.454208	0.789136
N245	N	-0.616839	0.512607	0.759928
H246	H	-0.620956	0.462344	0.785058
H247	H	-0.594309	0.509142	0.723499
H248	H	-0.365892	0.454205	0.789136
N249	N	-0.253497	0.512570	0.759904
H250	H	-0.209801	0.462297	0.785033
H251	H	-0.273298	0.509108	0.799798
H252	H	0.056579	0.533571	0.145143
H253	H	-0.056816	0.821530	-0.116374
H254	H	-0.056817	0.821527	0.001173
