data_functionalizedCrystal
_audit_creation_method	'MofGen! by Chris Wilmer'
_symmetry_space_group_name_H-M	'P1'
_symmetry_Int_Tables_number	1
_symmetry_cell_setting	triclinic
loop_
_symmetry_equiv_pos_as_xyz
  x,y,z
_cell_length_a	17.639617
_cell_length_b	21.295417
_cell_length_c	17.640968
_cell_angle_alpha	78.766059
_cell_angle_beta	70.333968
_cell_angle_gamma	101.213894
loop_
_atom_site_label
_atom_site_type_symbol
_atom_site_fract_x
_atom_site_fract_y
_atom_site_fract_z
Zn1	Zn	1.354403	0.083268	-0.721258
Zn2	Zn	1.326407	-0.048705	-0.583393
Zn3	Zn	1.188681	0.029917	-0.555520
Zn4	Zn	1.216497	-0.048643	-0.693275
O5	O	1.271497	0.003959	-0.638362
O6	O	1.466042	0.088064	-0.726346
O7	O	1.284781	-0.060629	-0.464347
O8	O	1.210740	0.125103	-0.577552
O9	O	1.445474	-0.008896	-0.625057
O10	O	1.332494	0.164300	-0.699319
O11	O	1.183594	-0.002865	-0.443869
O12	O	1.077018	-0.002806	-0.550418
O13	O	1.258147	-0.008792	-0.812336
O14	O	1.097454	-0.060524	-0.651626
O15	O	1.359466	0.088123	-0.832894
O16	O	1.311752	-0.136805	-0.597923
O17	O	1.231002	-0.136760	-0.678653
C18	C	1.057327	-0.037448	-0.594961
C19	C	0.965707	-0.055174	-0.576414
C20	C	0.717973	0.138672	-0.779467
C21	C	0.631880	0.121997	-0.762022
C22	C	0.610454	0.021137	-0.656398
C23	C	0.696548	0.037802	-0.673837
C24	C	0.750301	0.096570	-0.735371
C25	C	0.728875	-0.004300	-0.629741
C26	C	0.814961	0.012366	-0.647176
C27	C	0.868720	0.071133	-0.708706
C28	C	0.836387	0.113236	-0.752806
C29	C	0.675120	-0.063066	-0.568203
C30	C	0.707447	-0.105167	-0.524107
C31	C	0.793536	-0.088504	-0.541545
C32	C	0.847294	-0.029738	-0.603075
C33	C	0.825868	-0.130608	-0.497445
C34	C	0.911954	-0.113942	-0.514880
C35	C	0.933380	-0.013072	-0.620510
C36	C	1.271384	-0.159621	-0.638299
C37	C	1.271416	-0.229581	-0.638314
C38	C	1.334791	-0.241979	-0.701750
C39	C	1.334824	-0.307712	-0.701776
C40	C	1.271488	-0.361045	-0.638354
C41	C	1.208102	-0.348642	-0.574913
C42	C	1.208066	-0.282910	-0.574893
N43	N	1.250671	-0.479474	-0.564958
N44	N	1.250711	-0.541915	-0.564980
C45	C	1.271592	-0.559094	-0.638411
N46	N	1.292448	-0.511469	-0.711824
N47	N	1.292413	-0.449022	-0.711801
C48	C	1.271520	-0.432323	-0.638369
C49	C	1.335007	-0.642766	-0.701880
C50	C	1.335034	-0.708501	-0.701906
C51	C	1.208315	-0.749431	-0.575036
C52	C	1.208284	-0.683696	-0.575016
C53	C	1.271634	-0.630367	-0.638438
C54	C	1.486504	0.045528	-0.681932
C55	C	1.578127	0.063242	-0.700499
C56	C	1.315032	0.045624	-0.853360
C57	C	1.333584	0.063379	-0.944979
C58	C	1.271637	0.168186	-0.638447
C59	C	1.271697	0.238170	-0.638484
C60	C	1.130875	-0.130519	-1.192791
C61	C	1.148325	-0.113824	-1.278885
C62	C	1.253819	-0.012915	-1.300281
C63	C	1.236375	-0.029600	-1.214186
C64	C	1.174903	-0.088403	-1.160448
C65	C	1.280403	0.012516	-1.181843
C66	C	1.262964	-0.004169	-1.095757
C67	C	1.201496	-0.062971	-1.042014
C68	C	1.157463	-0.105088	-1.074362
C69	C	1.341879	0.071316	-1.235584
C70	C	1.385907	0.113432	-1.203241
C71	C	1.368464	0.096749	-1.117152
C72	C	1.306996	0.037948	-1.063409
C73	C	1.412496	0.138867	-1.084804
C74	C	1.395057	0.122182	-0.998718
C75	C	1.289556	0.021263	-0.977322
C76	C	1.228179	-0.037488	-0.424209
C77	C	1.209786	-0.055035	-0.332623
H78	H	0.938815	0.084702	-0.722897
H79	H	1.112468	-0.148124	-1.305214
H80	H	1.386588	-0.599344	-0.753524
H81	H	1.080799	-0.178391	-1.149030
H82	H	1.430907	0.156477	-0.972384
H83	H	0.977150	0.034782	-0.670620
H84	H	1.156532	-0.392070	-0.523275
H85	H	0.605563	0.156288	-0.797931
H86	H	1.356079	0.084898	-1.305680
H87	H	1.156741	-0.792854	-0.523400
H88	H	1.462553	0.186741	-1.128571
H89	H	1.156457	-0.272817	-0.523235
H90	H	1.386643	-0.718592	-0.753567
H91	H	0.880157	0.161090	-0.802916
H92	H	0.761744	0.186526	-0.829578
H93	H	0.566676	-0.026711	-0.606294
H94	H	1.303872	0.034961	-1.344046
H95	H	1.386427	-0.317809	-0.753442
H96	H	1.435960	0.161308	-1.247006
H97	H	1.156681	-0.673602	-0.523358
H98	H	1.239480	-0.026609	-0.933561
H99	H	0.663670	-0.153015	-0.474003
H100	H	0.938275	-0.148226	-0.478973
H101	H	1.187301	-0.076557	-0.971918
H102	H	0.605020	-0.076622	-0.553992
H103	H	0.782089	-0.178454	-0.447338
H104	H	1.107387	-0.152960	-1.030600
H105	H	1.386373	-0.198560	-0.753393
