data_functionalizedCrystal
_audit_creation_method	'MofGen! by Chris Wilmer'
_symmetry_space_group_name_H-M	'P1'
_symmetry_Int_Tables_number	1
_symmetry_cell_setting	triclinic
loop_
_symmetry_equiv_pos_as_xyz
  x,y,z
_cell_length_a	12.377034
_cell_length_b	16.109295
_cell_length_c	16.109301
_cell_angle_alpha	96.539666
_cell_angle_beta	101.275423
_cell_angle_gamma	101.287133
loop_
_atom_site_label
_atom_site_type_symbol
_atom_site_fract_x
_atom_site_fract_y
_atom_site_fract_z
O1	O	0.093927	-1.087195	0.122763
O2	O	0.093947	-0.845129	0.136071
O3	O	0.093925	-0.972814	0.008384
O4	O	0.093949	-0.959511	0.250450
O5	O	-0.094076	-1.004707	-0.023482
O6	O	-0.094054	-0.877022	0.104205
O7	O	-0.094074	-1.119088	0.090898
Zn8	Zn	-0.123913	-1.003119	0.092492
Zn9	Zn	0.123786	-0.961099	0.134476
O10	O	-0.094052	-0.991404	0.218585
C11	C	-0.000051	-0.830100	0.119600
C12	C	-0.000044	-0.737804	0.117988
N13	N	-0.292962	-1.031803	0.063839
C14	C	-0.000076	-0.988222	-0.038524
C15	C	-0.000078	-0.986607	-0.130819
C16	C	-0.352124	-1.098394	-0.002716
C17	C	-0.470456	-1.118468	-0.022795
C18	C	-0.529639	-1.071958	0.023683
C19	C	-0.470478	-1.005370	0.090243
C20	C	-0.352133	-0.985289	0.110320
C21	C	-0.529649	-0.958854	0.136719
C22	C	-0.470488	-0.892266	0.203279
C23	C	-0.352155	-0.872189	0.223352
C24	C	-0.292972	-0.918698	0.176875
C25	C	-0.647994	-0.978935	0.116642
C26	C	-0.648004	-0.865831	0.229677
C27	C	-0.529671	-0.845756	0.249757
N28	N	0.292835	-0.932421	0.163123
C29	C	-0.000049	-0.515532	0.190000
C30	C	-0.000056	-0.428812	0.188476
C31	C	-0.000067	-0.448688	0.036985
C32	C	-0.000068	-0.535407	0.038508
C33	C	-0.000053	-0.568825	0.115019
C34	C	-0.000059	-0.395387	0.111972
C35	C	-0.000067	-0.301362	0.110320
C36	C	-0.000048	-0.662857	0.116671
C37	C	-0.000072	-0.134116	0.107374
C38	C	-0.000068	-0.226409	0.109003
C39	C	-0.000066	-1.058613	-0.353091
C40	C	-0.000056	-1.057087	-0.439810
C41	C	-0.000048	-0.905597	-0.419931
C42	C	-0.000050	-0.907122	-0.333213
C43	C	-0.000064	-0.983633	-0.299796
C44	C	-0.000053	-0.980583	-0.473234
C45	C	-0.000043	-0.978928	-0.567258
C46	C	-0.000072	-0.985288	-0.205766
C47	C	-0.000049	-0.975995	0.265493
C48	C	-0.000040	-0.977609	0.357790
H49	H	-0.696153	-1.033151	0.062449
H50	H	-0.696190	-0.827956	0.267523
H51	H	-0.000074	-0.578803	-0.022555
H52	H	-0.196615	-0.902357	0.193225
H53	H	-0.000046	-0.542739	0.252298
H54	H	-0.000045	-0.846060	-0.289817
H55	H	-0.000055	-0.385423	0.249533
C56	C	-0.000054	-1.139562	-0.498434
H57	H	-0.000036	-1.127696	-0.554865
H58	H	-0.065614	-1.182060	-0.499426
H59	H	0.065514	-1.159804	-0.477182
H60	H	-0.000039	-0.843304	-0.447150
H61	H	-0.625992	-1.088306	0.007332
C62	C	-0.000073	-1.142768	-0.316329
H63	H	-0.000084	-1.132942	-0.257052
H64	H	0.065486	-1.162516	-0.323508
H65	H	-0.065642	-1.184762	-0.345744
C66	C	-0.535526	-1.191715	-0.095996
H67	H	-0.483333	-1.216546	-0.120795
H68	H	-0.581686	-1.169659	-0.138449
H69	H	-0.581692	-1.234146	-0.073899
C70	C	-0.000069	-0.411927	-0.047169
H71	H	-0.000081	-0.456091	-0.091609
H72	H	0.065493	-0.367387	-0.039797
H73	H	-0.065636	-0.389636	-0.062028
H74	H	-0.303929	-1.136252	-0.040556
C75	C	-0.464585	-0.772509	0.322964
H76	H	-0.385634	-0.767211	0.328257
H77	H	-0.483986	-0.784806	0.375166
H78	H	-0.483971	-0.720313	0.310621
C79	C	-0.287074	-0.798950	0.296570
H80	H	-0.208122	-0.793651	0.301868
H81	H	-0.306484	-0.811261	0.348766
H82	H	-0.306457	-0.746751	0.284239
