data_functionalizedCrystal
_audit_creation_method	'MofGen! by Chris Wilmer'
_symmetry_space_group_name_H-M	'P1'
_symmetry_Int_Tables_number	1
_symmetry_cell_setting	triclinic
loop_
_symmetry_equiv_pos_as_xyz
  x,y,z
_cell_length_a	15.944551
_cell_length_b	14.519709
_cell_length_c	13.596369
_cell_angle_alpha	90.000208
_cell_angle_beta	90.000836
_cell_angle_gamma	96.410559
loop_
_atom_site_label
_atom_site_type_symbol
_atom_site_fract_x
_atom_site_fract_y
_atom_site_fract_z
O1	O	-1.114698	0.118943	-0.081675
O2	O	-0.870169	0.133607	-0.081698
O3	O	-0.998917	-0.007975	-0.081695
O4	O	-0.985950	0.260525	-0.081678
O5	O	-0.998904	-0.007982	0.081888
O6	O	-0.870156	0.133600	0.081885
O7	O	-1.114685	0.118936	0.081908
Zn8	Zn	-0.992419	0.126267	0.107869
Zn9	Zn	-0.992435	0.126276	-0.107659
O10	O	-0.985937	0.260518	0.081905
C11	C	-0.838868	0.132995	0.000090
C12	C	-0.745619	0.131170	0.000081
C13	C	-0.998306	-0.042337	0.000092
C14	C	-0.996495	-0.144715	0.000079
C15	C	-1.145986	0.119548	0.000117
C16	C	-1.239235	0.121373	0.000120
C17	C	-0.530629	0.039048	0.000094
C18	C	-0.469677	0.081830	-0.080558
C19	C	-0.574889	0.127868	0.000092
C20	C	-0.469687	0.081844	0.080722
C21	C	-0.409971	0.124672	0.000108
C22	C	-0.515165	0.170674	-0.080627
C23	C	-0.515181	0.170675	0.080726
C24	C	-0.454247	0.213522	0.000054
C25	C	-0.669894	0.129706	0.000083
C26	C	-0.314967	0.122840	0.000110
C27	C	-0.986548	0.294880	0.000116
C28	C	-0.988359	0.397258	0.000122
N29	N	-0.992413	0.126259	0.254961
C30	C	-0.995025	0.772142	0.000084
C31	C	-0.993174	0.667838	0.000095
C32	C	-0.991692	0.584703	0.000104
C33	C	-0.989841	0.480392	0.000113
N34	N	-0.992448	0.126276	-0.254751
C35	C	-0.992434	0.126277	0.656252
C36	C	-0.992426	0.126275	0.544600
C37	C	-0.992424	0.126269	0.455610
C38	C	-0.992415	0.126266	0.343951
H39	H	-0.563855	-0.034665	-0.000010
O40	O	-0.539222	0.215396	-0.162034
C41	C	-0.654643	0.267336	-0.253339
C42	C	-0.627514	0.216654	-0.161117
H43	H	-0.726026	0.268387	-0.252618
H44	H	-0.635581	0.229735	-0.322027
H45	H	-0.622388	0.341474	-0.253613
H46	H	-0.659755	0.142515	-0.160748
H47	H	-0.646561	0.254328	-0.092471
H48	H	-0.449541	0.044257	0.148905
H49	H	-0.449518	0.044266	-0.148749
O50	O	-0.414770	0.301530	0.000184
C51	C	-0.319700	0.415345	0.085236
C52	C	-0.364372	0.315663	0.085230
H53	H	-0.278930	0.426797	0.153978
H54	H	-0.368886	0.466617	0.084618
H55	H	-0.278167	0.426397	0.017066
H56	H	-0.405903	0.304522	0.153388
H57	H	-0.315143	0.264442	0.085796
O58	O	-0.539244	0.215316	0.162177
C59	C	-0.543584	0.218992	0.339278
C60	C	-0.516301	0.168345	0.247107
H61	H	-0.525030	0.181047	0.407966
H62	H	-0.614911	0.220506	0.338166
H63	H	-0.510954	0.292966	0.339931
H64	H	-0.548872	0.094348	0.246394
H65	H	-0.444967	0.166906	0.248254
