data_functionalizedCrystal
_audit_creation_method	'MofGen! by Chris Wilmer'
_symmetry_space_group_name_H-M	'P1'
_symmetry_Int_Tables_number	1
_symmetry_cell_setting	triclinic
loop_
_symmetry_equiv_pos_as_xyz
  x,y,z
_cell_length_a	16.109301
_cell_length_b	19.288865
_cell_length_c	14.586319
_cell_angle_alpha	89.990984
_cell_angle_beta	90.003499
_cell_angle_gamma	96.701136
loop_
_atom_site_label
_atom_site_type_symbol
_atom_site_fract_x
_atom_site_fract_y
_atom_site_fract_z
O1	O	1.102825	-0.089280	0.076251
O2	O	0.860725	-0.100390	0.076254
O3	O	0.988771	0.006278	0.076234
O4	O	0.974780	-0.195949	0.076271
O5	O	0.988762	0.006280	-0.076247
O6	O	0.860717	-0.100389	-0.076227
O7	O	1.102817	-0.089278	-0.076230
Cu8	Cu	0.981766	-0.094833	-0.090151
Cu9	Cu	0.981776	-0.094835	0.090175
O10	O	0.974771	-0.195947	-0.076210
C11	C	0.829748	-0.099940	0.000014
C12	C	0.737457	-0.098590	0.000014
C13	C	1.133794	-0.089729	0.000012
C14	C	1.226085	-0.091078	0.000018
C15	C	0.988316	0.032157	-0.000009
C16	C	0.986965	0.109264	-0.000017
C17	C	1.448563	-0.030921	0.000002
C18	C	1.535279	-0.032194	-0.000001
C19	C	1.514972	-0.158753	0.000027
C20	C	1.428258	-0.157479	0.000023
C21	C	1.395056	-0.093561	0.000016
C22	C	1.568486	-0.096108	0.000016
C23	C	1.662507	-0.097489	0.000013
C24	C	1.301029	-0.092179	0.000017
C25	C	0.975226	-0.221825	0.000035
C26	C	0.976577	-0.298932	0.000049
N27	N	0.981764	-0.094832	-0.216983
C28	C	1.062096	0.153781	-0.000022
C29	C	1.060827	0.226231	-0.000008
C30	C	0.984421	0.254161	-0.000006
C31	C	0.909280	0.209634	0.000004
C32	C	0.910552	0.137185	-0.000001
C33	C	0.924355	0.362592	-0.053416
C34	C	0.923086	0.435039	-0.053417
C35	C	0.980496	0.477616	0.000014
C36	C	1.039188	0.447737	0.053434
C37	C	1.040460	0.375288	0.053428
C38	C	0.983034	0.332718	-0.000000
C39	C	1.054256	0.600692	0.000026
C40	C	1.052983	0.673143	0.000046
C41	C	0.901434	0.656544	0.000049
C42	C	0.902709	0.584095	0.000038
C43	C	0.979122	0.556173	0.000022
C44	C	1.038482	-0.047614	-0.451998
C45	C	1.038484	-0.047613	-0.547979
C46	C	0.925061	-0.142051	-0.547971
C47	C	0.925055	-0.142049	-0.451992
C48	C	0.981770	-0.094831	-0.404008
C49	C	0.981778	-0.094832	-0.595968
C50	C	0.981781	-0.094830	-0.700035
C51	C	0.981767	-0.094832	-0.299934
N52	N	0.981784	-0.094832	0.217007
H53	H	1.578842	0.018814	-0.000013
C54	C	1.318956	-0.229471	-0.078348
C55	C	1.369435	-0.226338	0.000040
H56	H	1.282646	-0.271981	-0.078340
H57	H	1.286777	-0.191226	-0.078352
H58	H	1.353215	-0.227340	-0.131514
H59	H	1.335176	-0.228464	0.053206
H60	H	1.401616	-0.264594	0.000052
C61	C	0.812938	-0.235391	-0.538322
C62	C	0.862722	-0.193951	-0.600717
H63	H	0.774449	-0.267429	-0.570886
H64	H	0.847446	-0.260385	-0.500879
H65	H	0.783146	-0.206461	-0.500895
H66	H	0.892519	-0.222882	-0.638140
H67	H	0.828210	-0.168955	-0.638176
H68	H	0.841529	0.547848	0.000037
C69	C	1.183680	0.485909	0.084463
C70	C	1.102298	0.494530	0.112169
H71	H	1.222639	0.514804	0.120717
H72	H	1.192834	0.438492	0.092108
H73	H	1.190761	0.498596	0.021777
H74	H	1.095215	0.481838	0.174854
H75	H	1.093141	0.541958	0.104532
C76	C	0.809464	0.357318	-0.159039
C77	C	0.861240	0.315795	-0.112148
H78	H	0.770503	0.328427	-0.195297
H79	H	0.780233	0.382422	-0.116082
H80	H	0.842543	0.389258	-0.197552
H81	H	0.828162	0.283859	-0.073630
H82	H	0.890473	0.290679	-0.155110
C83	C	1.638883	-0.216901	0.000050
C84	C	1.551471	-0.229009	0.000044
H85	H	1.661412	-0.260277	0.000068
H86	H	1.657260	-0.191116	-0.053125
H87	H	1.657258	-0.191108	0.053222
H88	H	1.533096	-0.254798	-0.053131
H89	H	1.533087	-0.254806	0.053225
C90	C	1.150588	0.045739	-0.461650
C91	C	1.100814	0.004293	-0.399253
H92	H	1.189064	0.077789	-0.429088
H93	H	1.180386	0.016819	-0.499071
H94	H	1.116066	0.070727	-0.499099
H95	H	1.135335	-0.020699	-0.361808
H96	H	1.071013	0.033216	-0.361817
C97	C	1.056892	0.046916	-0.655926
C98	C	1.100824	0.004289	-0.600729
H99	H	1.095381	0.078963	-0.688486
H100	H	1.023128	0.018797	-0.698239
H101	H	1.022382	0.071907	-0.618482
H102	H	1.135330	-0.020706	-0.638174
H103	H	1.134602	0.032412	-0.558412
C104	C	1.211766	0.177470	-0.000029
C105	C	1.146088	0.123090	-0.000030
H106	H	1.263618	0.158520	-0.000027
H107	H	1.208113	0.205388	-0.053198
H108	H	1.208116	0.205376	0.053150
H109	H	1.149735	0.095187	-0.053212
H110	H	1.149744	0.095161	0.053144
H111	H	0.878870	-0.180499	-0.412915
H112	H	0.875292	0.459360	-0.096908
C113	C	0.779731	0.217790	0.078397
C114	C	0.825295	0.240333	0.000008
H115	H	0.727883	0.236746	0.078404
H116	H	0.769736	0.168277	0.078389
H117	H	0.810671	0.233070	0.131562
H118	H	0.794357	0.225049	-0.053157
H119	H	0.835288	0.289857	0.000008
H120	H	1.122009	0.262483	-0.000009
H121	H	1.088247	0.350964	0.096926
C122	C	1.203926	0.624373	0.000046
C123	C	1.138246	0.569994	0.000031
H124	H	1.255777	0.605421	0.000057
H125	H	1.200282	0.652292	-0.053123
H126	H	1.200268	0.652277	0.053224
H127	H	1.141901	0.542093	-0.053152
H128	H	1.141891	0.542063	0.053205
H129	H	1.421533	0.021126	-0.000005
C130	C	1.139484	0.764222	0.078440
C131	C	1.135576	0.722077	0.000047
H132	H	1.190478	0.794428	0.078443
H133	H	1.093806	0.791222	0.078443
H134	H	1.136834	0.735594	0.131602
H135	H	1.138220	0.750705	-0.053115
H136	H	1.181267	0.695075	0.000036
H137	H	0.849369	0.100939	0.000003
C138	C	0.832195	0.760229	0.000059
C139	C	0.817447	0.687236	0.000054
H140	H	0.780342	0.779177	0.000060
H141	H	0.863118	0.775497	0.053229
H142	H	0.863115	0.775514	-0.053118
H143	H	0.786531	0.671950	0.053235
H144	H	0.786510	0.671962	-0.053122
