data_functionalizedCrystal
_audit_creation_method	'MofGen! by Chris Wilmer'
_symmetry_space_group_name_H-M	'P1'
_symmetry_Int_Tables_number	1
_symmetry_cell_setting	triclinic
loop_
_symmetry_equiv_pos_as_xyz
  x,y,z
_cell_length_a	19.805407
_cell_length_b	19.805405
_cell_length_c	19.805399
_cell_angle_alpha	90.030709
_cell_angle_beta	90.016510
_cell_angle_gamma	90.022560
loop_
_atom_site_label
_atom_site_type_symbol
_atom_site_fract_x
_atom_site_fract_y
_atom_site_fract_z
Zn1	Zn	-1.034718	0.269539	-0.382705
Zn2	Zn	-0.534718	0.769539	0.117295
Zn3	Zn	-1.034638	0.382730	-0.269513
Zn4	Zn	-0.534638	0.882730	0.230487
Zn5	Zn	-0.921538	0.269553	-0.269530
Zn6	Zn	-0.421538	0.769553	0.230470
Zn7	Zn	-0.921496	0.382684	-0.382661
Zn8	Zn	-0.421496	0.882684	0.117339
O9	O	-0.978097	0.326126	-0.326102
O10	O	-0.478097	0.826126	0.173898
O11	O	-1.129424	0.284568	-0.367701
O12	O	-0.629424	0.784568	0.132299
O13	O	-1.019619	0.367742	-0.174799
O14	O	-0.519619	0.867742	0.325201
O15	O	-0.936602	0.174834	-0.284569
O16	O	-0.436602	0.674834	0.215431
O17	O	-1.129365	0.367729	-0.284540
O18	O	-0.629365	0.867729	0.215460
O19	O	-1.019755	0.174824	-0.367717
O20	O	-0.519755	0.674824	0.132283
O21	O	-0.936525	0.284591	-0.174811
O22	O	-0.436525	0.784591	0.325189
O23	O	-0.826816	0.284546	-0.284526
O24	O	-0.326816	0.784546	0.215474
O25	O	-0.936531	0.367650	-0.477383
O26	O	-0.436531	0.867650	0.022617
O27	O	-0.826785	0.367663	-0.367642
O28	O	-0.326785	0.867663	0.132358
O29	O	-1.019715	0.284523	-0.477415
O30	O	-0.519715	0.784523	0.022585
O31	O	-1.019578	0.477441	-0.284497
O32	O	-0.519578	0.977441	0.215503
O33	O	-0.936453	0.477407	-0.367626
O34	O	-0.436453	0.977407	0.132374
C35	C	-0.802241	0.326102	-0.326081
C36	C	-0.302241	0.826102	0.173919
C37	C	-0.727009	0.326107	-0.326089
C38	C	-0.227009	0.826107	0.173911
C39	C	-0.691696	0.282881	-0.369456
C40	C	-0.191696	0.782881	0.130544
C41	C	-0.621008	0.282883	-0.369457
C42	C	-0.121008	0.782883	0.130543
C43	C	-0.585634	0.326116	-0.326093
C44	C	-0.085634	0.826116	0.173907
C45	C	-0.620952	0.369344	-0.282721
C46	C	-0.120952	0.869344	0.217279
C47	C	-0.691639	0.369337	-0.282718
C48	C	-0.191639	0.869337	0.217282
C49	C	-0.335878	0.369368	-0.282735
C50	C	0.164122	0.869368	0.217265
C51	C	-0.265186	0.369372	-0.282744
C52	C	0.234814	0.869372	0.217256
C53	C	-0.265247	0.282914	-0.369474
C54	C	0.234753	0.782914	0.130526
C55	C	-0.335935	0.282908	-0.369470
C56	C	0.164065	0.782908	0.130530
C57	C	-0.371246	0.326133	-0.326096
C58	C	0.128754	0.826133	0.173904
C59	C	-0.447895	0.326129	-0.326095
C60	C	0.052105	0.826129	0.173905
C61	C	-0.508987	0.326123	-0.326098
C62	C	-0.008987	0.826123	0.173902
C63	C	-0.978021	0.501983	-0.326069
C64	C	-0.478021	1.001983	0.173931
C65	C	-0.978050	0.577214	-0.326078
C66	C	-0.478050	1.077214	0.173922
C67	C	-0.154640	0.326147	-0.326117
C68	C	0.345360	0.826147	0.173883
C69	C	-0.229872	0.326142	-0.326108
C70	C	0.270128	0.826142	0.173892
C71	C	-0.978127	0.326079	-0.502645
C72	C	-0.478127	0.826079	-0.002645
C73	C	-0.978140	0.326059	-0.577877
C74	C	-0.478140	0.826059	-0.077877
C75	C	-0.978192	0.149584	-0.326150
C76	C	-0.478192	0.649584	0.173850
C77	C	-0.978233	0.074352	-0.326170
C78	C	-0.478233	0.574352	0.173830
C79	C	-1.021376	0.612554	-0.282838
C80	C	-0.521376	1.112554	0.217162
C81	C	-1.021404	0.683242	-0.282853
C82	C	-0.521404	1.183242	0.217147
C83	C	-0.978104	0.718590	-0.326105
C84	C	-0.478104	1.218590	0.173895
C85	C	-0.934777	0.683246	-0.369350
C86	C	-0.434777	1.183246	0.130650
C87	C	-0.934752	0.612559	-0.369338
C88	C	-0.434752	1.112559	0.130662
C89	C	-0.934877	0.968319	-0.369400
C90	C	-0.434877	1.468319	0.130600
C91	C	-0.934903	1.039011	-0.369407
C92	C	-0.434903	1.539011	0.130593
C93	C	-1.021529	1.039003	-0.282915
C94	C	-0.521529	1.539003	0.217085
C95	C	-1.021504	0.968316	-0.282903
C96	C	-0.521504	1.468316	0.217097
C97	C	-0.978180	0.932977	-0.326150
C98	C	-0.478180	1.432977	0.173850
C99	C	-0.978150	0.856329	-0.326134
C100	C	-0.478150	1.356329	0.173866
C101	C	-0.978130	0.795237	-0.326118
C102	C	-0.478130	1.295237	0.173882
C103	C	-0.934885	0.282759	-0.613227
C104	C	-0.434885	0.782759	-0.113227
C105	C	-0.934894	0.282746	-0.683916
C106	C	-0.434894	0.782746	-0.183916
C107	C	-0.978162	0.326030	-0.719253
C108	C	-0.478162	0.826030	-0.219253
C109	C	-1.021419	0.369336	-0.683898
C110	C	-0.521419	0.869336	-0.183898
C111	C	-1.021406	0.369352	-0.613210
C112	C	-0.521406	0.869352	-0.113210
C113	C	-1.021473	0.369272	-0.968971
C114	C	-0.521473	0.869272	-0.468971
C115	C	-1.021484	0.369252	-1.039663
C116	C	-0.521484	0.869252	-0.539663
C117	C	-0.934961	0.282666	-1.039676
C118	C	-0.434961	0.782666	-0.539676
C119	C	-0.934948	0.282682	-0.968989
C120	C	-0.434948	0.782682	-0.468989
C121	C	-0.978202	0.325990	-0.933640
C122	C	-0.478202	0.825990	-0.433640
C123	C	-0.978190	0.326005	-0.856992
C124	C	-0.478190	0.826005	-0.356992
C125	C	-0.978178	0.326013	-0.795900
C126	C	-0.478178	0.826013	-0.295900
C127	C	-0.978107	0.326124	-0.150246
C128	C	-0.478107	0.826124	0.349754
C129	C	-0.978225	0.325954	-0.075015
C130	C	-0.478225	0.825954	0.424985
H131	H	-0.364621	0.404565	-0.247418
H132	H	0.135379	0.904565	0.252582
C133	C	-1.069061	0.722112	-0.235281
C134	C	-0.569061	1.222112	0.264719
N135	N	-1.104958	0.751389	-0.199447
N136	N	-0.604958	1.251389	0.300553
C137	C	-0.374842	0.235347	-0.417171
C138	C	0.125158	0.735347	0.082829
N139	N	-0.404146	0.199520	-0.453097
N140	N	0.095854	0.699520	0.046903
C141	C	-1.069190	1.077881	-0.235345
C142	C	-0.569190	1.577881	0.264655
N143	N	-1.105086	1.107163	-0.199515
N144	N	-0.605086	1.607163	0.300485
H145	H	-1.056720	0.404502	-1.068433
H146	H	-0.556720	0.904502	-0.568433
H147	H	-0.899644	1.067789	-0.404633
H148	H	-0.399644	1.567789	0.095367
H149	H	-0.899669	0.247488	-0.712695
H150	H	-0.399669	0.747488	-0.212695
C151	C	-0.887349	0.235067	-0.930122
C152	C	-0.387349	0.735067	-0.430122
N153	N	-0.851494	0.199204	-0.900849
N154	N	-0.351494	0.699204	-0.400849
H155	H	-0.236386	0.404579	-0.247430
H156	H	0.263614	0.904579	0.252570
H157	H	-0.899740	0.247405	-1.068466
H158	H	-0.399740	0.747405	-0.568466
C159	C	-0.887253	0.929456	-0.417007
C160	C	-0.387253	1.429456	0.082993
N161	N	-0.851394	0.900182	-0.452881
N162	N	-0.351394	1.400182	0.047119
H163	H	-0.899655	0.247507	-0.584461
H164	H	-0.399655	0.747507	-0.084461
C165	C	-1.068861	0.417103	-0.722771
C166	C	-0.568861	0.917103	-0.222771
N167	N	-1.104541	0.453135	-0.752049
N168	N	-0.604541	0.953135	-0.252049
C169	C	-1.068992	0.416983	-0.574326
C170	C	-0.568992	0.916983	-0.074326
N171	N	-1.104836	0.452861	-0.545038
N172	N	-0.604836	0.952861	-0.045038
H173	H	-0.720493	0.247678	-0.404769
H174	H	-0.220493	0.747678	0.095231
C175	C	-0.582037	0.416898	-0.235020
C176	C	-0.082037	0.916898	0.264980
N177	N	-0.552728	0.452720	-0.199092
N178	N	-0.052728	0.952720	0.300908
C179	C	-0.730483	0.416891	-0.235012
C180	C	-0.230483	0.916891	0.264988
N181	N	-0.759739	0.452709	-0.199077
N182	N	-0.259739	0.952709	0.300923
H183	H	-0.592259	0.247686	-0.404772
H184	H	-0.092259	0.747686	0.095228
C185	C	-1.069091	0.416874	-0.930096
C186	C	-0.569091	0.916874	-0.430096
N187	N	-1.104973	0.452717	-0.900814
N188	N	-0.604973	0.952717	-0.400814
H189	H	-0.236488	0.247716	-0.404789
H190	H	0.263512	0.747716	0.095211
C191	C	-1.069009	0.573678	-0.235255
C192	C	-0.569009	1.073678	0.264745
N193	N	-1.104889	0.544398	-0.199416
N194	N	-0.604889	1.044398	0.300584
H195	H	-0.899524	0.712031	-0.404569
H196	H	-0.399524	1.212031	0.095431
H197	H	-0.899473	0.583786	-0.404549
H198	H	-0.399473	1.083786	0.095451
C199	C	-1.069132	0.929437	-0.235317
C200	C	-0.569132	1.429437	0.264683
N201	N	-1.105006	0.900155	-0.199473
N202	N	-0.605006	1.400155	0.300527
