data_functionalizedCrystal
_audit_creation_method	'MofGen! by Chris Wilmer'
_symmetry_space_group_name_H-M	'P1'
_symmetry_Int_Tables_number	1
_symmetry_cell_setting	triclinic
loop_
_symmetry_equiv_pos_as_xyz
  x,y,z
_cell_length_a	19.188900
_cell_length_b	12.837942
_cell_length_c	17.666332
_cell_angle_alpha	90.000789
_cell_angle_beta	90.014953
_cell_angle_gamma	88.980715
loop_
_atom_site_label
_atom_site_type_symbol
_atom_site_fract_x
_atom_site_fract_y
_atom_site_fract_z
O1	O	-0.935024	-0.129224	-0.063096
O2	O	-0.601691	0.204110	0.270237
O3	O	-0.268357	0.537443	0.603570
O4	O	-0.732907	-0.146673	-0.063066
O5	O	-0.399573	0.186661	0.270268
O6	O	-0.066240	0.519994	0.603601
O7	O	-0.829484	0.012934	-0.063076
O8	O	-0.496150	0.346267	0.270258
O9	O	-0.162817	0.679600	0.603591
O10	O	-0.838447	-0.288830	-0.063086
O11	O	-0.505114	0.044504	0.270247
O12	O	-0.171780	0.377837	0.603580
O13	O	-0.829470	0.012928	0.062821
O14	O	-0.496136	0.346262	0.396154
O15	O	-0.162803	0.679595	0.729488
O16	O	-0.732893	-0.146678	0.062831
O17	O	-0.399559	0.186655	0.396164
O18	O	-0.066226	0.519989	0.729498
O19	O	-0.935010	-0.129229	0.062801
O20	O	-0.601677	0.204104	0.396134
O21	O	-0.268344	0.537438	0.729467
Cu22	Cu	-0.833950	-0.137954	0.074311
Cu23	Cu	-0.500617	0.195379	0.407644
Cu24	Cu	-0.167284	0.528713	0.740978
Cu25	Cu	-0.833967	-0.137948	-0.074576
Cu26	Cu	-0.500633	0.195386	0.258757
Cu27	Cu	-0.167300	0.528719	0.592090
O28	O	-0.838433	-0.288835	0.062810
O29	O	-0.505100	0.044498	0.396144
O30	O	-0.171767	0.377832	0.729477
C31	C	-0.706850	-0.146115	-0.000113
C32	C	-0.373517	0.187218	0.333220
C33	C	-0.040183	0.520551	0.666553
C34	C	-0.629229	-0.144435	-0.000102
C35	C	-0.295896	0.188899	0.333232
C36	C	0.037438	0.522232	0.666565
C37	C	-0.592789	-0.143625	-0.068729
C38	C	-0.259456	0.189709	0.264604
C39	C	0.073877	0.523042	0.597938
C40	C	-0.519856	-0.142034	-0.068737
C41	C	-0.186523	0.191299	0.264597
C42	C	0.146810	0.524633	0.597930
C43	C	-0.483366	-0.141233	-0.000113
C44	C	-0.150033	0.192101	0.333221
C45	C	0.183300	0.525434	0.666554
C46	C	-0.519815	-0.142049	0.068524
C47	C	-0.186481	0.191285	0.401857
C48	C	0.146852	0.524618	0.735190
C49	C	-0.592746	-0.143650	0.068529
C50	C	-0.259413	0.189683	0.401863
C51	C	0.073921	0.523017	0.735196
N52	N	-0.370123	-0.079748	0.050961
N53	N	-0.036790	0.253585	0.384295
N54	N	0.296544	0.586919	0.717628
N55	N	-0.300841	-0.078225	0.050951
N56	N	0.032492	0.255109	0.384285
N57	N	0.365825	0.588442	0.717618
C58	C	-0.263629	-0.136411	-0.000126
C59	C	0.069705	0.196922	0.333208
C60	C	0.403038	0.530256	0.666541
N61	N	-0.298315	-0.196165	-0.051204
N62	N	0.035018	0.137169	0.282130
N63	N	0.368352	0.470502	0.615463
N64	N	-0.367603	-0.197683	-0.051196
N65	N	-0.034270	0.135650	0.282137
N66	N	0.299064	0.468983	0.615471
C67	C	-0.404285	-0.139497	-0.000111
C68	C	-0.070951	0.193836	0.333222
C69	C	0.262382	0.527170	0.666555
C70	C	-0.148107	-0.133877	-0.068766
C71	C	0.185227	0.199456	0.264567
C72	C	0.518560	0.532789	0.597901
C73	C	-0.075172	-0.132293	-0.068771
C74	C	0.258161	0.201040	0.264562
C75	C	0.591494	0.534374	0.597896
C76	C	-0.075132	-0.132298	0.068491
C77	C	0.258201	0.201036	0.401825
C78	C	0.591534	0.534369	0.735158
C79	C	-0.148065	-0.133892	0.068494
C80	C	0.185268	0.199441	0.401827
C81	C	0.518602	0.532774	0.735161
C82	C	-0.184548	-0.134677	-0.000137
C83	C	0.148785	0.198656	0.333197
C84	C	0.482119	0.531990	0.666530
C85	C	0.038933	-0.129793	-0.000148
C86	C	0.372267	0.203540	0.333186
C87	C	0.705600	0.536874	0.666519
C88	C	-0.038687	-0.131494	-0.000146
C89	C	0.294646	0.201840	0.333187
C90	C	0.627979	0.535173	0.666520
C91	C	-0.826449	0.051537	-0.000127
C92	C	-0.493115	0.384871	0.333206
C93	C	-0.159782	0.718204	0.666539
C94	C	-0.817418	0.166572	-0.000127
C95	C	-0.484084	0.499905	0.333206
C96	C	-0.150751	0.833239	0.666540
C97	C	-0.841468	-0.327439	-0.000140
C98	C	-0.508135	0.005894	0.333194
C99	C	-0.174802	0.339228	0.666527
C100	C	-0.850499	-0.442474	-0.000145
C101	C	-0.517166	-0.109140	0.333189
C102	C	-0.183832	0.224193	0.666522
N103	N	-0.833944	-0.137958	0.179031
N104	N	-0.500610	0.195376	0.512364
N105	N	-0.167277	0.528709	0.845697
C106	C	-0.925986	0.408040	-0.000159
C107	C	-0.592653	0.741373	0.333174
C108	C	-0.259319	1.074707	0.666507
C109	C	-0.917504	0.516126	-0.000159
C110	C	-0.584171	0.849459	0.333174
C111	C	-0.250837	1.182793	0.666507
C112	C	-0.791972	0.490832	-0.000132
C113	C	-0.458639	0.824166	0.333201
C114	C	-0.125305	1.157499	0.666534
C115	C	-0.800454	0.382746	-0.000132
C116	C	-0.467121	0.716080	0.333201
C117	C	-0.133788	1.049413	0.666534
C118	C	-0.867463	0.341354	-0.000145
C119	C	-0.534130	0.674688	0.333189
C120	C	-0.200797	1.008021	0.666522
C121	C	-0.875945	0.233266	-0.000139
C122	C	-0.542611	0.566600	0.333194
C123	C	-0.209278	0.899933	0.666527
C124	C	-0.750414	0.207975	-0.000118
C125	C	-0.417080	0.541308	0.333215
C126	C	-0.083747	0.874641	0.666549
C127	C	-0.741932	0.316061	-0.000118
C128	C	-0.408598	0.649394	0.333215
C129	C	-0.075265	0.982727	0.666549
N130	N	-0.833978	-0.137936	-0.179296
N131	N	-0.500645	0.195398	0.154038
N132	N	-0.167311	0.528731	0.487371
C133	C	-0.880492	-0.200616	0.781071
C134	C	-0.547159	0.132717	1.114404
C135	C	-0.213826	0.466050	1.447737
C136	C	-0.880486	-0.200627	0.701823
C137	C	-0.547153	0.132707	1.035157
C138	C	-0.213819	0.466040	1.368490
C139	C	-0.833972	-0.137937	0.662212
C140	C	-0.500639	0.195396	0.995545
C141	C	-0.167306	0.528730	1.328879
C142	C	-0.787449	-0.075252	0.701855
C143	C	-0.454116	0.258081	1.035188
C144	C	-0.120783	0.591414	1.368522
C145	C	-0.787452	-0.075252	0.781101
C146	C	-0.454119	0.258082	1.114434
C147	C	-0.120786	0.591415	1.447768
N148	N	-0.826055	-0.047161	0.537791
N149	N	-0.492722	0.286173	0.871125
N150	N	-0.159389	0.619506	1.204458
N151	N	-0.826057	-0.047164	0.462511
N152	N	-0.492724	0.286169	0.795844
N153	N	-0.159390	0.619503	1.129178
C154	C	-0.833960	-0.137937	0.423448
C155	C	-0.500627	0.195397	0.756781
C156	C	-0.167293	0.528730	1.090115
N157	N	-0.841875	-0.228707	0.462509
N158	N	-0.508542	0.104626	0.795843
N159	N	-0.175208	0.437960	1.129176
N160	N	-0.841877	-0.228702	0.537797
N161	N	-0.508544	0.104631	0.871130
N162	N	-0.175211	0.437964	1.204464
C163	C	-0.833964	-0.137931	0.576283
C164	C	-0.500630	0.195402	0.909616
C165	C	-0.167297	0.528736	1.242950
C166	C	-0.880470	-0.200634	0.297885
C167	C	-0.547136	0.132699	0.631219
C168	C	-0.213803	0.466032	0.964552
C169	C	-0.880459	-0.200647	0.218636
C170	C	-0.547125	0.132687	0.551970
C171	C	-0.213792	0.466020	0.885303
C172	C	-0.787425	-0.075263	0.218670
C173	C	-0.454092	0.258071	0.552003
C174	C	-0.120759	0.591404	0.885336
C175	C	-0.787433	-0.075260	0.297917
C176	C	-0.454100	0.258074	0.631251
C177	C	-0.120767	0.591407	0.964584
C178	C	-0.833959	-0.137944	0.337520
C179	C	-0.500626	0.195390	0.670854
C180	C	-0.167292	0.528723	1.004187
H181	H	-0.622415	-0.144311	0.124416
H182	H	-0.289082	0.189023	0.457749
H183	H	0.044252	0.522356	0.791082
H184	H	-0.702760	0.153667	-0.000100
H185	H	-0.369427	0.487000	0.333233
H186	H	-0.036094	0.820333	0.666567
H187	H	-0.918351	-0.251680	0.330132
H188	H	-0.585017	0.081653	0.663465
H189	H	-0.251684	0.414987	0.996799
H190	H	-0.965159	0.570419	-0.000174
H191	H	-0.631826	0.903752	0.333160
H192	H	-0.298493	1.237085	0.666493
Br193	Br	-0.470295	-0.140973	0.161657
Br194	Br	-0.136961	0.192361	0.494990
Br195	Br	0.196372	0.525694	0.828323
Br196	Br	-0.197623	-0.134950	-0.161905
Br197	Br	0.135710	0.198383	0.171428
Br198	Br	0.469043	0.531717	0.504762
H199	H	-0.687374	0.349777	-0.000111
H200	H	-0.354041	0.683110	0.333223
H201	H	-0.020708	1.016444	0.666556
H202	H	-0.622489	-0.144264	-0.124614
H203	H	-0.289156	0.189070	0.208720
H204	H	0.044177	0.522403	0.542053
Br205	Br	-0.943573	-0.285750	0.164846
Br206	Br	-0.610240	0.047583	0.498179
Br207	Br	-0.276907	0.380917	0.831513
H208	H	-0.918376	-0.251661	0.813311
H209	H	-0.585043	0.081673	1.146644
H210	H	-0.251709	0.415006	1.479977
H211	H	-0.045504	-0.131640	-0.124658
H212	H	0.287829	0.201694	0.208676
H213	H	0.621162	0.535027	0.542009
H214	H	-0.918363	-0.251673	0.669547
H215	H	-0.585029	0.081660	1.002881
H216	H	-0.251696	0.414993	1.336214
H217	H	-0.749576	-0.024212	0.669599
H218	H	-0.416243	0.309121	1.002932
H219	H	-0.082910	0.642455	1.336265
H220	H	-0.749549	-0.024226	0.186419
H221	H	-0.416216	0.309108	0.519752
H222	H	-0.082883	0.642441	0.853086
H223	H	-0.749559	-0.024213	0.330187
H224	H	-0.416226	0.309120	0.663520
H225	H	-0.082893	0.642453	0.996854
Br226	Br	-0.724320	0.009820	0.834893
Br227	Br	-0.390987	0.343154	1.168227
Br228	Br	-0.057653	0.676487	1.501560
Br229	Br	-0.966884	0.177092	-0.000148
Br230	Br	-0.633551	0.510425	0.333185
Br231	Br	-0.300217	0.843758	0.666518
H232	H	-0.045423	-0.131652	0.124366
H233	H	0.287911	0.201682	0.457699
H234	H	0.621244	0.535015	0.791033
H235	H	-0.177735	-0.134545	0.124378
H236	H	0.155599	0.198788	0.457711
H237	H	0.488932	0.532121	0.791045
Br238	Br	-0.470391	-0.140937	-0.161880
Br239	Br	-0.137058	0.192397	0.171453
Br240	Br	0.196275	0.525730	0.504786
H241	H	-0.980547	0.374339	-0.000162
H242	H	-0.647214	0.707672	0.333171
H243	H	-0.313881	1.041005	0.666505
H244	H	-0.737416	0.524553	-0.000131
H245	H	-0.404083	0.857886	0.333203
H246	H	-0.070750	1.191220	0.666536
