data_functionalizedCrystal
_audit_creation_method	'MofGen! by Chris Wilmer'
_symmetry_space_group_name_H-M	'P1'
_symmetry_Int_Tables_number	1
_symmetry_cell_setting	triclinic
loop_
_symmetry_equiv_pos_as_xyz
  x,y,z
_cell_length_a	23.532407
_cell_length_b	13.339070
_cell_length_c	11.804365
_cell_angle_alpha	105.124870
_cell_angle_beta	101.750517
_cell_angle_gamma	80.761014
loop_
_atom_site_label
_atom_site_type_symbol
_atom_site_fract_x
_atom_site_fract_y
_atom_site_fract_z
O1	O	0.276790	-1.359957	-0.099117
O2	O	0.239376	-1.065803	-0.099104
O3	O	0.176583	-1.221746	-0.099089
O4	O	0.339583	-1.204015	-0.099132
O5	O	0.193091	-1.180692	0.098963
O6	O	0.255884	-1.024750	0.098948
O7	O	0.293298	-1.318904	0.098935
Cu8	Cu	0.276099	-1.168078	0.117025
Cu9	Cu	0.256576	-1.216629	-0.117194
O10	O	0.356091	-1.162961	0.098920
C11	C	0.163549	-1.200767	-0.000060
C12	C	0.100114	-1.199407	-0.000051
C13	C	0.241310	-1.007650	-0.000076
C14	C	0.222472	-0.895537	-0.000070
C15	C	0.291364	-1.377057	-0.000096
C16	C	0.310202	-1.489172	-0.000110
C17	C	-0.285492	-1.283187	-0.000120
C18	C	-0.345096	-1.281927	-0.000129
O19	O	-0.369327	-1.359590	-0.000177
N20	N	-0.382667	-1.189217	-0.000124
C21	C	-0.360632	-1.097762	-0.000122
O22	O	-0.398062	-1.018789	-0.000120
C23	C	-0.301029	-1.099025	-0.000122
C24	C	-0.263460	-1.191739	-0.000115
C25	C	-0.247923	-1.375894	-0.000114
C26	C	-0.188323	-1.377153	-0.000103
C27	C	-0.166291	-1.285705	-0.000098
C28	C	-0.203860	-1.192998	-0.000103
C29	C	-0.278996	-1.007574	-0.000128
C30	C	-0.219389	-1.008845	-0.000129
C31	C	-0.181819	-1.101559	-0.000122
C32	C	-0.122227	-1.102809	-0.000087
N33	N	-0.084657	-1.195520	-0.000092
C34	C	-0.106688	-1.286968	-0.000097
C35	C	-0.485801	-1.095118	-0.000125
C36	C	-0.545402	-1.093853	-0.000117
C37	C	-0.529862	-1.278019	-0.000126
C38	C	-0.470260	-1.279281	-0.000126
C39	C	-0.448230	-1.187829	-0.000130
C40	C	0.018476	-1.289605	-0.000073
C41	C	0.078082	-1.290855	-0.000057
C42	C	0.062536	-1.106691	-0.000053
C43	C	0.002937	-1.105439	-0.000063
C44	C	-0.019092	-1.196905	-0.000077
O45	O	-0.097956	-1.025189	-0.000044
O46	O	-0.069253	-1.365931	-0.000115
C47	C	0.369126	-1.183941	-0.000112
C48	C	0.432560	-1.185302	-0.000129
N49	N	0.289830	-1.133938	0.281762
C50	C	0.368948	-0.529284	-0.000127
C51	C	0.386649	-0.634620	-0.000137
C52	C	0.345606	-0.699854	-0.000119
C53	C	0.286860	-0.659742	-0.000094
C54	C	0.269156	-0.554397	-0.000094
C55	C	0.245814	-0.724967	-0.000086
C56	C	0.187067	-0.684855	-0.000060
C57	C	0.169367	-0.579519	-0.000059
C58	C	0.210410	-0.514285	-0.000076
C59	C	0.263518	-0.830313	-0.000086
C60	C	0.163726	-0.855425	-0.000053
C61	C	0.146025	-0.750089	-0.000043
N62	N	0.242841	-1.250777	-0.281932
C63	C	0.209855	-1.332761	0.655730
C64	C	0.199464	-1.358587	0.531071
C65	C	0.222055	-1.302427	0.468737
C66	C	0.255038	-1.220436	0.531076
C67	C	0.265434	-1.194613	0.655747
C68	C	0.277633	-1.164279	0.468755
C69	C	0.310617	-1.082288	0.531093
C70	C	0.321010	-1.056469	0.655752
C71	C	0.298420	-1.112629	0.718086
C72	C	0.267238	-1.190102	0.344083
C73	C	0.322817	-1.051954	0.344101
C74	C	0.333207	-1.026128	0.468760
H75	H	0.000548	-1.364086	-0.000088
H76	H	0.108670	-1.366356	-0.000048
C77	C	0.149401	-0.391326	-0.101873
C78	C	0.190952	-0.398494	-0.000071
H79	H	0.137389	-0.319840	-0.101864
H80	H	0.166080	-0.424831	-0.170929
H81	H	0.116550	-0.424434	-0.101853
H82	H	0.223805	-0.365393	-0.000096
H83	H	0.174274	-0.364975	0.069003
H84	H	0.098191	-0.717416	-0.000032
C85	C	0.468659	-0.666718	-0.101988
C86	C	0.451222	-0.678694	-0.000167
H87	H	0.508527	-0.693919	-0.102001
H88	H	0.445305	-0.703467	-0.171031
H89	H	0.463979	-0.594642	-0.101972
H90	H	0.455898	-0.750772	-0.000186
H91	H	0.474583	-0.641947	0.068895
C92	C	-0.178969	-1.559063	-0.000125
C93	C	-0.147033	-1.479072	-0.000111
H94	H	-0.153481	-1.621987	-0.000140
H95	H	-0.196786	-1.540422	0.068936
H96	H	-0.208295	-1.569038	-0.069195
H97	H	-0.117710	-1.469091	0.068963
H98	H	-0.129207	-1.497716	-0.069180
H99	H	-0.265854	-1.450368	-0.000123
H100	H	0.121530	-0.546866	-0.000052
H101	H	0.080486	-1.032235	-0.000045
C102	C	0.457040	-0.454329	0.101641
C103	C	0.414059	-0.457586	-0.000154
H104	H	0.484893	-0.410071	0.101615
H105	H	0.439395	-0.427900	0.170702
H106	H	0.475987	-0.522810	0.101630
H107	H	0.395109	-0.389106	-0.000139
H108	H	0.431705	-0.484011	-0.069233
H109	H	0.360063	-0.959370	0.519531
H110	H	0.341213	-1.006225	0.293350
H111	H	-0.439674	-1.354777	-0.000121
H112	H	0.306878	-1.091599	0.819594
H113	H	0.240383	-1.256859	0.293339
H114	H	0.347873	-0.989715	0.706508
C115	C	0.180631	-1.244367	0.290193
C116	C	0.210634	-1.330806	0.331710
H117	H	0.173583	-1.261887	0.205594
H118	H	0.144457	-1.225088	0.318404
H119	H	0.203513	-1.187507	0.318410
H120	H	0.187750	-1.387664	0.303499
H121	H	0.246814	-1.350099	0.303486
H122	H	0.311350	-0.862961	-0.000102
H123	H	0.130305	-0.908541	-0.000044
H124	H	-0.547811	-1.352481	-0.000135
H125	H	0.172610	-1.425343	0.480319
C126	C	-0.152901	-0.882304	0.101683
C127	C	-0.195174	-0.908315	-0.000130
H128	H	-0.137951	-0.820245	0.101677
H129	H	-0.170082	-0.871321	0.170732
H130	H	-0.121996	-0.937702	0.101676
H131	H	-0.226081	-0.852920	-0.000119
H132	H	-0.177994	-0.919292	-0.069197
C133	C	0.124017	-1.385100	0.694147
C134	C	0.185023	-1.394478	0.724251
H135	H	0.108687	-1.423208	0.736447
H136	H	0.108882	-1.313527	0.714595
H137	H	0.113111	-1.412222	0.610980
H138	H	0.195930	-1.367349	0.807417
H139	H	0.200164	-1.466065	0.703811
C140	C	-0.377257	-0.923842	-0.000157
C141	C	-0.320284	-0.905661	-0.000150
H142	H	-0.402745	-0.860919	-0.000168
H143	H	-0.389582	-0.975784	-0.069213
H144	H	-0.378084	-0.947135	0.068918
H145	H	-0.319457	-0.882375	-0.069230
H146	H	-0.307956	-0.853701	0.068913
C147	C	-0.554761	-0.911944	-0.000110
C148	C	-0.586694	-0.991936	-0.000115
H149	H	-0.580253	-0.849027	-0.000122
H150	H	-0.525443	-0.901953	0.068955
H151	H	-0.536938	-0.930597	-0.069175
H152	H	-0.604514	-0.973286	0.068955
H153	H	-0.616022	-1.001926	-0.069188
C154	C	-0.006435	-0.923528	-0.000066
C155	C	-0.038363	-1.003528	-0.000073
H156	H	-0.031931	-0.860617	-0.000090
H157	H	0.022879	-0.913527	0.069007
H158	H	0.011394	-0.942182	-0.069124
H159	H	-0.056189	-0.984878	0.068990
H160	H	-0.067687	-1.013529	-0.069152
H161	H	-0.467869	-1.020640	-0.000118
H162	H	0.360022	-0.785624	-0.000130
