data_functionalizedCrystal
_audit_creation_method	'MofGen! by Chris Wilmer'
_symmetry_space_group_name_H-M	'P1'
_symmetry_Int_Tables_number	1
_symmetry_cell_setting	triclinic
loop_
_symmetry_equiv_pos_as_xyz
  x,y,z
_cell_length_a	16.974800
_cell_length_b	15.455313
_cell_length_c	9.065215
_cell_angle_alpha	87.294303
_cell_angle_beta	84.200611
_cell_angle_gamma	89.026089
loop_
_atom_site_label
_atom_site_type_symbol
_atom_site_fract_x
_atom_site_fract_y
_atom_site_fract_z
O1	O	1.050416	-0.001635	0.188070
O2	O	0.821144	0.014467	0.210601
O3	O	0.940520	0.006080	-0.015406
O4	O	0.931040	0.006753	0.414077
O5	O	0.933693	-0.137703	-0.002535
O6	O	0.814317	-0.129315	0.223472
O7	O	1.043589	-0.145417	0.200941
Cu8	Cu	0.928330	-0.150495	0.213381
Cu9	Cu	0.936403	0.019545	0.198160
O10	O	0.924213	-0.137030	0.426947
C11	C	0.788363	-0.055362	0.215943
C12	C	0.700858	-0.049216	0.212670
N13	N	0.922657	-0.270092	0.224086
C14	C	0.973390	-0.319050	0.128106
C15	C	0.969107	-0.409557	0.136215
C16	C	0.914095	-0.451104	0.240313
C17	C	0.863356	-0.402139	0.336297
C18	C	0.867635	-0.311633	0.328180
C19	C	0.895623	-0.721388	0.275311
C20	C	0.891349	-0.811900	0.283424
C21	C	0.997100	-0.819312	0.083339
C22	C	1.001377	-0.728805	0.075237
C23	C	0.950636	-0.679847	0.171216
N24	N	0.909717	-0.543617	0.248607
N25	N	0.955010	-0.587336	0.162913
C26	C	0.656032	-0.124707	0.218144
C27	C	0.573813	-0.118935	0.215045
C28	C	0.536421	-0.037672	0.206481
C29	C	0.581254	0.037825	0.201002
C30	C	0.663472	0.032052	0.204091
C31	C	0.290926	-0.012003	0.196481
C32	C	0.208701	-0.006236	0.193397
C33	C	0.201266	-0.162996	0.207437
C34	C	0.283485	-0.168761	0.210534
C35	C	0.328311	-0.093265	0.205047
N36	N	0.452380	-0.031770	0.203318
N37	N	0.412351	-0.099168	0.208200
C38	C	1.076370	-0.075586	0.195598
C39	C	1.163875	-0.081726	0.198871
C40	C	0.936196	-0.065747	-0.063938
C41	C	0.933473	-0.065553	-0.227725
N42	N	0.942082	0.139141	0.187444
C43	C	0.928537	-0.065201	0.475480
C44	C	0.931260	-0.065390	0.639266
H45	H	1.018190	-0.285230	0.043345
O46	O	0.696355	-0.212358	0.227403
H47	H	0.685109	-0.249281	0.129711
O48	O	0.152738	-0.244311	0.213905
H49	H	0.121252	-0.246008	0.112582
H50	H	1.010418	-0.449419	0.058060
O51	O	1.060719	-0.683988	-0.037020
H52	H	1.028993	-0.640391	-0.112589
H53	H	0.550805	0.103991	0.194020
H54	H	0.178260	0.059942	0.186428
H55	H	0.537320	-0.180408	0.219478
O56	O	0.323811	-0.256409	0.219839
H57	H	0.278825	-0.307935	0.223141
H58	H	0.327414	0.049472	0.192008
H59	H	1.038410	-0.859182	0.005196
O60	O	0.832002	-0.856716	0.395688
H61	H	0.797429	-0.807468	0.461052
H62	H	0.854308	-0.681533	0.353464
H63	H	0.818559	-0.435971	0.421051
H64	H	0.826322	-0.271771	0.406335
H65	H	0.699969	0.093525	0.199636
