data_functionalizedCrystal
_audit_creation_method	'MofGen! by Chris Wilmer'
_symmetry_space_group_name_H-M	'P1'
_symmetry_Int_Tables_number	1
_symmetry_cell_setting	triclinic
loop_
_symmetry_equiv_pos_as_xyz
  x,y,z
_cell_length_a	10.489741
_cell_length_b	10.654541
_cell_length_c	9.130307
_cell_angle_alpha	90.000629
_cell_angle_beta	89.999472
_cell_angle_gamma	84.511551
loop_
_atom_site_label
_atom_site_type_symbol
_atom_site_fract_x
_atom_site_fract_y
_atom_site_fract_z
O1	O	-1.693965	-0.177183	0.121708
O2	O	-1.322761	-0.193816	0.121731
O3	O	-1.516899	-0.002764	0.121710
O4	O	-1.499827	-0.368235	0.121729
O5	O	-1.516885	-0.002776	-0.121889
O6	O	-1.322747	-0.193828	-0.121868
O7	O	-1.693951	-0.177196	-0.121891
Cu8	Cu	-1.508348	-0.185513	-0.144122
Cu9	Cu	-1.508364	-0.185498	0.143962
O10	O	-1.499813	-0.368247	-0.121870
C11	C	-1.275223	-0.192565	-0.000066
C12	C	-1.133596	-0.188807	-0.000057
C13	C	-1.515640	0.044029	-0.000088
C14	C	-1.511891	0.183474	-0.000086
C15	C	-1.741489	-0.178446	-0.000091
C16	C	-1.883117	-0.182204	-0.000090
C17	C	-1.065515	-0.067247	-0.000077
C18	C	-0.973367	-0.124664	0.120030
C19	C	-0.973387	-0.124706	-0.120140
C20	C	-1.043313	-0.246275	0.120149
C21	C	-1.043342	-0.246299	-0.120129
C22	C	-0.951222	-0.303806	0.000008
C23	C	-1.501073	-0.415040	-0.000068
C24	C	-1.504821	-0.554485	-0.000061
N25	N	-1.508345	-0.185522	-0.346745
C26	C	-1.744036	0.211336	-0.000119
C27	C	-1.858342	0.290777	-0.000138
C28	C	-1.854812	0.421796	-0.000133
C29	C	-1.736963	0.473377	-0.000105
C30	C	-1.622657	0.393936	-0.000085
C31	C	-1.626200	0.262915	-0.000095
C32	C	-1.390515	0.366074	-0.000042
C33	C	-1.394042	0.235054	-0.000057
C34	C	-1.272666	0.417655	-0.000014
C35	C	-1.158358	0.338214	-0.000005
C36	C	-1.161893	0.207187	-0.000011
C37	C	-1.279736	0.155614	-0.000038
C38	C	-1.352327	-0.031629	-0.653403
C39	C	-1.274288	0.045279	-0.576730
C40	C	-1.274264	0.045256	-0.423397
C41	C	-1.352291	-0.031682	-0.346733
C42	C	-1.430330	-0.108590	-0.423405
C43	C	-1.430342	-0.108561	-0.576742
C44	C	-1.586385	-0.262431	-0.423418
C45	C	-1.586404	-0.262416	-0.576751
C46	C	-1.664411	-0.339369	-0.346753
C47	C	-1.742446	-0.416286	-0.423426
C48	C	-1.742465	-0.416261	-0.576769
C49	C	-1.664443	-0.339325	-0.653424
N50	N	-1.508377	-0.185479	0.346585
H51	H	-1.115254	0.032684	0.000068
Br52	Br	-1.094651	-0.331931	0.289584
H53	H	-1.746922	0.104654	-0.000142
H54	H	-1.352276	-0.031682	-0.221880
H55	H	-1.805975	-0.478917	-0.360994
H56	H	-1.664393	-0.339376	-0.221901
H57	H	-0.942429	-0.073254	-0.221681
Br58	Br	-0.868757	-0.470536	0.000116
Br59	Br	-1.095041	-0.331970	-0.289375
H60	H	-1.734099	0.580061	-0.000083
H61	H	-1.282626	0.048932	-0.000052
H62	H	-1.664448	-0.339301	-0.778276
Br63	Br	-1.352334	-0.031612	-0.861500
Br64	Br	-2.018272	0.220770	-0.000161
H65	H	-1.068810	0.142512	0.000011
Br66	Br	-1.848394	-0.520631	-0.680812
H67	H	-0.942384	-0.073224	0.221568
Br68	Br	-1.168375	0.149653	-0.319334
H69	H	-1.210763	0.107924	-0.639167
Br70	Br	-1.267873	0.595468	0.000100
Br71	Br	-2.009941	0.529615	-0.000140
H72	H	-1.062414	0.380222	0.000028
