data_functionalizedCrystal
_audit_creation_method	'MofGen! by Chris Wilmer'
_symmetry_space_group_name_H-M	'P1'
_symmetry_Int_Tables_number	1
_symmetry_cell_setting	triclinic
loop_
_symmetry_equiv_pos_as_xyz
  x,y,z
_cell_length_a	14.853558
_cell_length_b	14.853567
_cell_length_c	12.376457
_cell_angle_alpha	101.296114
_cell_angle_beta	78.691789
_cell_angle_gamma	83.633032
loop_
_atom_site_label
_atom_site_type_symbol
_atom_site_fract_x
_atom_site_fract_y
_atom_site_fract_z
O1	O	1.213634	0.100409	-0.093983
O2	O	1.713634	0.600409	0.406017
O3	O	0.951174	0.114439	-0.093987
O4	O	1.451174	0.614439	0.406013
O5	O	1.089415	-0.023807	-0.093988
O6	O	1.589415	0.476193	0.406012
O7	O	1.075392	0.238655	-0.093981
O8	O	1.575392	0.738655	0.406019
O9	O	1.054867	0.010708	0.094024
O10	O	1.554867	0.510708	0.594024
O11	O	0.916626	0.148953	0.094026
O12	O	1.416626	0.648953	0.594026
O13	O	1.179086	0.134924	0.094030
O14	O	1.679086	0.634924	0.594030
Zn15	Zn	1.042370	0.147418	0.123879
Zn16	Zn	1.542370	0.647418	0.623879
Zn17	Zn	1.087889	0.101944	-0.123836
Zn18	Zn	1.587889	0.601944	0.376164
O19	O	1.040844	0.273169	0.094031
O20	O	1.540844	0.773169	0.594031
C21	C	0.900311	0.131062	0.000019
C22	C	1.400311	0.631062	0.500019
C23	C	0.800227	0.129161	0.000017
C24	C	1.300227	0.629161	0.500017
C25	C	1.071506	-0.040139	0.000015
C26	C	1.571506	0.459861	0.500015
C27	C	1.069604	-0.140224	0.000005
C28	C	1.569604	0.359776	0.500005
C29	C	0.772040	0.109455	-0.102473
C30	C	1.272040	0.609455	0.397527
C31	C	0.734373	0.147073	0.102505
C32	C	1.234373	0.647073	0.602505
C33	C	0.640339	0.145283	0.102507
C34	C	1.140339	0.645283	0.602507
C35	C	0.612151	0.125577	0.000017
C36	C	1.112151	0.625577	0.500017
C37	C	0.677998	0.107661	-0.102474
C38	C	1.177998	0.607661	0.397526
C39	C	0.574486	0.163189	0.204997
C40	C	1.074486	0.663189	0.704997
C41	C	0.480446	0.161398	0.205003
C42	C	0.980446	0.661398	0.705003
C43	C	0.452257	0.141699	0.102512
C44	C	0.952257	0.641699	0.602512
C45	C	0.518110	0.123783	0.000016
C46	C	1.018110	0.623783	0.500016
C47	C	0.489922	0.104078	-0.102474
C48	C	0.989922	0.604078	0.397526
C49	C	0.555773	0.086169	-0.204971
C50	C	1.055773	0.586169	0.295029
C51	C	0.649809	0.087962	-0.204966
C52	C	1.149809	0.587962	0.295034
C53	C	0.358221	0.139906	0.102506
C54	C	0.858221	0.639906	0.602506
C55	C	0.395881	0.102284	-0.102475
C56	C	0.895881	0.602284	0.397525
C57	C	0.979434	-0.552751	0.000025
C58	C	1.479434	-0.052751	0.500025
C59	C	1.143668	-0.574037	0.000028
C60	C	1.643668	-0.074037	0.500028
C61	C	1.145459	-0.480005	0.000021
C62	C	1.645459	0.019995	0.500021
C63	C	1.064236	-0.422341	0.000018
C64	C	1.564236	0.077659	0.500018
C65	C	0.981223	-0.458709	0.000022
C66	C	1.481223	0.041291	0.500022
C67	C	1.228469	-0.443627	0.000029
C68	C	1.728469	0.056373	0.500029
C69	C	1.230263	-0.349589	0.000023
C70	C	1.730263	0.150411	0.500023
C71	C	1.149042	-0.291925	0.000013
C72	C	1.649042	0.208075	0.500013
C73	C	1.066025	-0.328299	0.000015
C74	C	1.566025	0.171701	0.500015
C75	C	0.984802	-0.270635	0.000012
C76	C	1.484802	0.229365	0.500012
C77	C	0.901786	-0.307008	0.000007
C78	C	1.401786	0.192992	0.500007
C79	C	0.900001	-0.401045	0.000011
C80	C	1.400001	0.098955	0.500011
C81	C	1.150827	-0.197888	0.000008
C82	C	1.650827	0.302112	0.500008
C83	C	0.986591	-0.176593	0.000009
C84	C	1.486591	0.323407	0.500009
C85	C	1.229949	0.118300	0.000022
C86	C	1.729949	0.618300	0.500022
C87	C	1.330034	0.120200	0.000016
C88	C	1.830034	0.620200	0.500016
C89	C	1.058753	0.289501	0.000026
C90	C	1.558753	0.789501	0.500026
C91	C	1.060657	0.389585	0.000028
C92	C	1.560657	0.889585	0.500028
N93	N	1.011312	0.178452	0.292937
N94	N	1.511312	0.678452	0.792937
N95	N	1.118955	0.070903	-0.292894
N96	N	1.618955	0.570903	0.207106
C97	C	1.191052	-0.001155	0.647921
C98	C	1.691052	0.498845	1.147921
C99	C	1.212785	-0.022876	0.529581
C100	C	1.712785	0.477124	1.029581
C101	C	1.162418	0.027454	0.470414
C102	C	1.662418	0.527454	0.970414
C103	C	1.090315	0.099509	0.529599
C104	C	1.590315	0.599509	1.029599
C105	C	1.068585	0.121237	0.647951
C106	C	1.568585	0.621237	1.147951
C107	C	1.039951	0.149846	0.470444
C108	C	1.539951	0.649846	0.970444
C109	C	0.967848	0.221901	0.529629
C110	C	1.467848	0.721901	1.029629
C111	C	0.946121	0.243625	0.647969
C112	C	1.446121	0.743625	1.147969
C113	C	0.996488	0.193295	0.707136
C114	C	1.496488	0.693295	1.207136
C115	C	1.061682	0.128118	0.352092
C116	C	1.561682	0.628118	0.852092
C117	C	0.939215	0.250510	0.352122
C118	C	1.439215	0.750510	0.852122
C119	C	0.917482	0.272231	0.470462
C120	C	1.417482	0.772231	0.970462
H121	H	0.372939	0.086243	-0.185936
H122	H	0.872939	0.586243	0.314064
H123	H	1.180116	0.009765	0.374056
H124	H	1.680116	0.509765	0.874056
Br125	Br	0.791557	-0.228737	0.000017
Br126	Br	1.291557	0.271263	0.500017
H127	H	0.978791	0.210977	0.803498
H128	H	1.478791	0.710977	1.303498
H129	H	0.532812	0.070119	-0.288418
H130	H	1.032812	0.570119	0.211582
H131	H	1.271491	-0.081542	0.481397
H132	H	1.771491	0.418458	0.981397
H133	H	0.304609	0.154495	0.185958
H134	H	0.804609	0.654495	0.685958
Br135	Br	0.787348	-0.450416	-0.000004
Br136	Br	1.287348	0.049584	0.499996
H137	H	0.887418	0.302304	0.696158
H138	H	1.387418	0.802304	1.196158
Br139	Br	0.612745	0.189932	0.344082
Br140	Br	1.112745	0.689932	0.844082
H141	H	0.858774	0.330901	0.518666
H142	H	1.358774	0.830901	1.018666
H143	H	0.898203	0.291496	0.303950
H144	H	1.398203	0.791496	0.803950
H145	H	1.232058	-0.042123	0.696102
H146	H	1.732058	0.457877	1.196102
Br147	Br	0.866778	-0.602114	0.000002
Br148	Br	1.366778	-0.102114	0.500002
H149	H	0.426837	0.175980	0.288462
H150	H	0.926837	0.675980	0.788462
H151	H	1.294594	-0.490582	0.000042
H152	H	1.794594	0.009418	0.500042
H153	H	0.920449	-0.129649	0.000002
H154	H	1.420449	0.370351	0.500002
H155	H	0.703432	0.073380	-0.288413
H156	H	1.203432	0.573380	0.211587
H157	H	1.209793	-0.620991	0.000039
H158	H	1.709793	-0.120991	0.500039
Br159	Br	1.342928	-0.300236	0.000014
Br160	Br	1.842928	0.199764	0.500014
H161	H	1.218416	-0.168275	0.000020
H162	H	1.718416	0.331725	0.500020
H163	H	1.120388	0.069451	0.303914
H164	H	1.620388	0.569451	0.803914
H165	H	0.825659	0.094877	-0.185924
H166	H	1.325659	0.594877	0.314076
H167	H	0.757330	0.163109	0.185948
H168	H	1.257330	0.663109	0.685948
