data_functionalizedCrystal
_audit_creation_method	'MofGen! by Chris Wilmer'
_symmetry_space_group_name_H-M	'P1'
_symmetry_Int_Tables_number	1
_symmetry_cell_setting	triclinic
loop_
_symmetry_equiv_pos_as_xyz
  x,y,z
_cell_length_a	19.077236
_cell_length_b	29.839131
_cell_length_c	19.076919
_cell_angle_alpha	92.267459
_cell_angle_beta	89.887323
_cell_angle_gamma	92.334053
loop_
_atom_site_label
_atom_site_type_symbol
_atom_site_fract_x
_atom_site_fract_y
_atom_site_fract_z
Zn1	Zn	1.058216	-0.163081	-0.440523
Zn2	Zn	1.062823	-0.235077	-0.323009
Zn3	Zn	0.945432	-0.162845	-0.318303
Zn4	Zn	0.940640	-0.241071	-0.435746
O5	O	1.001778	-0.200519	-0.379395
O6	O	1.157162	-0.170222	-0.428903
O7	O	1.051185	-0.222889	-0.224054
O8	O	0.960471	-0.100008	-0.334546
O9	O	1.160547	-0.223117	-0.342566
O10	O	1.043333	-0.100181	-0.424341
O11	O	0.964938	-0.169820	-0.220597
O12	O	0.846462	-0.175632	-0.329914
O13	O	0.952303	-0.233332	-0.534710
O14	O	0.842941	-0.233104	-0.416199
O15	O	1.038686	-0.176033	-0.538220
O16	O	1.046538	-0.298741	-0.337933
O17	O	0.956770	-0.303144	-0.420761
C18	C	0.819204	-0.204993	-0.372028
C19	C	0.741097	-0.206918	-0.368893
C20	C	0.702638	-0.180331	-0.412440
C21	C	0.629249	-0.182137	-0.409488
C22	C	0.594320	-0.210535	-0.362992
C23	C	0.632785	-0.237124	-0.319440
C24	C	0.706173	-0.235314	-0.322389
C25	C	0.375023	-0.218892	-0.349341
C26	C	0.301630	-0.220701	-0.346397
C27	C	0.298099	-0.165714	-0.436444
C28	C	0.371489	-0.163909	-0.439392
C29	C	0.409947	-0.190496	-0.395838
N30	N	0.519305	-0.212383	-0.359975
N31	N	0.484961	-0.188645	-0.398852
C32	C	1.001652	-0.317243	-0.379355
C33	C	1.001662	-0.367178	-0.379364
C34	C	1.048599	-0.674513	-0.336336
C35	C	1.048685	-0.862185	-0.336367
O36	O	1.088493	-0.884489	-0.299751
N37	N	1.001922	-0.887958	-0.379454
C38	C	0.955137	-0.866811	-0.422541
O39	O	0.915369	-0.893040	-0.459195
C40	C	0.955055	-0.679141	-0.422513
C41	C	1.001816	-0.653369	-0.379417
C42	C	1.095357	-0.648742	-0.293244
C43	C	1.095333	-0.601827	-0.293234
C44	C	1.048550	-0.580683	-0.336316
C45	C	1.001792	-0.606454	-0.379407
C46	C	0.908274	-0.657995	-0.465603
C47	C	0.908259	-0.611074	-0.465593
C48	C	0.955021	-0.585302	-0.422497
C49	C	0.954985	-0.538395	-0.422479
N50	N	1.001748	-0.512622	-0.379391
C51	C	1.048531	-0.533766	-0.336310
C52	C	0.955182	-0.965341	-0.422551
C53	C	0.955201	-1.012259	-0.422557
C54	C	1.048750	-1.007629	-0.336384
C55	C	1.048727	-0.960710	-0.336375
C56	C	1.001945	-0.939568	-0.379463
C57	C	1.048475	-0.435241	-0.336291
C58	C	1.048445	-0.388322	-0.336283
C59	C	0.954899	-0.392956	-0.422458
C60	C	0.954926	-0.439871	-0.422464
C61	C	1.001721	-0.461012	-0.379379
O62	O	0.915203	-0.516061	-0.459081
O63	O	1.088303	-0.507529	-0.299672
C64	C	1.048624	-0.721428	-0.336346
C65	C	1.001865	-0.747199	-0.379438
C66	C	0.955083	-0.726056	-0.422519
C67	C	1.001885	-0.794117	-0.379444
C68	C	1.048667	-0.815261	-0.336362
C69	C	1.095431	-0.789487	-0.293275
C70	C	1.095406	-0.742572	-0.293265
C71	C	0.908320	-0.751829	-0.465607
C72	C	0.908347	-0.798744	-0.465612
C73	C	0.955130	-0.819888	-0.422531
C74	C	1.185065	-0.196027	-0.386792
C75	C	1.263171	-0.194113	-0.389944
C76	C	0.994446	-0.205378	-0.562674
C77	C	0.991322	-0.207448	-0.640777
C78	C	1.001922	-0.083338	-0.379452
C79	C	1.001984	-0.033403	-0.379476
C80	C	1.034827	-0.178590	-0.679298
C81	C	1.031882	-0.180534	-0.752683
C82	C	0.985436	-0.211339	-0.787546
C83	C	0.941927	-0.240198	-0.749019
C84	C	0.944868	-0.238252	-0.675635
C85	C	0.971814	-0.220357	-1.006824
C86	C	0.968877	-0.222303	-1.080214
C87	C	1.058833	-0.162638	-1.083872
C88	C	1.061773	-0.160696	-1.010487
C89	C	1.018260	-0.189553	-0.971966
N90	N	0.982427	-0.213328	-0.862557
N91	N	1.021266	-0.187562	-0.896956
C92	C	1.009122	-0.195645	-0.196831
C93	C	1.012382	-0.193445	-0.118735
H94	H	0.399923	-0.140787	-0.477257
H95	H	0.870224	-0.734618	-0.500690
C96	C	1.100208	-1.030893	-0.288993
H97	H	1.093521	-1.062525	-0.295176
H98	H	1.091853	-1.022222	-0.241357
H99	H	1.147002	-1.022289	-0.301225
C100	C	1.112857	-0.126808	-0.972139
H101	H	1.108382	-0.129785	-0.922917
H102	H	1.102128	-0.097194	-0.983765
H103	H	1.159585	-0.132547	-0.986070
H104	H	0.936394	-0.243862	-0.975470
H105	H	0.931053	-0.247389	-1.108597
H106	H	0.904107	-0.265279	-0.777410
H107	H	1.086581	-0.452448	-0.301209
C108	C	0.856798	-0.587819	-0.512992
H109	H	0.828953	-0.609890	-0.538653
H110	H	0.882420	-0.569644	-0.544710
H111	H	0.827263	-0.569582	-0.484850
C112	C	0.897030	-0.270007	-0.633263
H113	H	0.868956	-0.288637	-0.664535
H114	H	0.867577	-0.252821	-0.603398
H115	H	0.925052	-0.288162	-0.605722
H116	H	0.731072	-0.157208	-0.450304
C117	C	0.586947	-0.152892	-0.457391
H118	H	0.618260	-0.135725	-0.485510
H119	H	0.559406	-0.133283	-0.429420
H120	H	0.557085	-0.171627	-0.486808
H121	H	0.917085	-0.948130	-0.457640
C122	C	0.903760	-1.040602	-0.469958
H123	H	0.875903	-1.021286	-0.495617
H124	H	0.874245	-1.058970	-0.441827
H125	H	0.929403	-1.059031	-0.501687
C126	C	1.079754	-0.148802	-0.795057
H127	H	1.071351	-0.154371	-0.843755
H128	H	1.127436	-0.153912	-0.784929
H129	H	1.070002	-0.118544	-0.782636
C130	C	0.903447	-0.369693	-0.469853
H131	H	0.875598	-0.391759	-0.495520
H132	H	0.929080	-0.351520	-0.501565
H133	H	0.873915	-0.351454	-0.441712
C134	C	0.856841	-0.686333	-0.513014
H135	H	0.828987	-0.667014	-0.538673
H136	H	0.827322	-0.704702	-0.484889
H137	H	0.882486	-0.704760	-0.544743
H138	H	0.266779	-0.144068	-0.471903
H139	H	0.273193	-0.243828	-0.308534
C140	C	0.903490	-0.468220	-0.469867
H141	H	0.875627	-0.448906	-0.495525
H142	H	0.873979	-0.486592	-0.441739
H143	H	0.929138	-0.486645	-0.501597
C144	C	0.594368	-0.268361	-0.268295
H145	H	0.627786	-0.283934	-0.242778
H146	H	0.564654	-0.289379	-0.293967
H147	H	0.566972	-0.251038	-0.236575
H148	H	1.094257	-0.139143	-1.115243
H149	H	1.133484	-0.721592	-0.258172
H150	H	1.133521	-0.806711	-0.258194
H151	H	0.737485	-0.256964	-0.286928
H152	H	1.133457	-0.665952	-0.258162
C153	C	0.417318	-0.248139	-0.301436
H154	H	0.386002	-0.265312	-0.273329
H155	H	0.447177	-0.229406	-0.272018
H156	H	0.444861	-0.267748	-0.329410
H157	H	1.086523	-0.367340	-0.301187
C158	C	0.856908	-0.827088	-0.513022
H159	H	0.829050	-0.807771	-0.538682
H160	H	0.827393	-0.845459	-0.484897
H161	H	0.882555	-0.845514	-0.544752
H162	H	1.133412	-0.580846	-0.258144
H163	H	1.086805	-0.939730	-0.301283
C164	C	1.085914	-0.144702	-0.640955
H165	H	1.111396	-0.127791	-0.674410
H166	H	1.117660	-0.160375	-0.613555
H167	H	1.060197	-0.125026	-0.611254
