data_functionalizedCrystal
_audit_creation_method	'MofGen! by Chris Wilmer'
_symmetry_space_group_name_H-M	'P1'
_symmetry_Int_Tables_number	1
_symmetry_cell_setting	triclinic
loop_
_symmetry_equiv_pos_as_xyz
  x,y,z
_cell_length_a	25.639242
_cell_length_b	19.805407
_cell_length_c	19.805398
_cell_angle_alpha	90.013121
_cell_angle_beta	89.982692
_cell_angle_gamma	89.993815
loop_
_atom_site_label
_atom_site_type_symbol
_atom_site_fract_x
_atom_site_fract_y
_atom_site_fract_z
Zn1	Zn	0.208158	1.034788	0.382773
Zn2	Zn	0.541491	1.368121	0.716106
Zn3	Zn	0.874824	1.701454	1.049439
Zn4	Zn	0.295593	1.034755	0.269607
Zn5	Zn	0.628926	1.368089	0.602940
Zn6	Zn	0.962260	1.701422	0.936274
Zn7	Zn	0.208174	0.921615	0.269597
Zn8	Zn	0.541507	1.254948	0.602931
Zn9	Zn	0.874840	1.588282	0.936264
Zn10	Zn	0.295564	0.921606	0.382754
Zn11	Zn	0.628897	1.254939	0.716087
Zn12	Zn	0.962230	1.588272	1.049420
O13	O	0.251872	0.978191	0.326183
O14	O	0.585205	1.311524	0.659516
O15	O	0.918539	1.644858	0.992849
O16	O	0.219762	1.129500	0.367773
O17	O	0.553095	1.462833	0.701106
O18	O	0.886428	1.796167	1.034440
O19	O	0.284016	1.019737	0.174889
O20	O	0.617349	1.353071	0.508222
O21	O	0.950682	1.686404	0.841556
O22	O	0.135006	0.936645	0.284614
O23	O	0.468340	1.269978	0.617948
O24	O	0.801673	1.603312	0.951281
O25	O	0.284000	1.129476	0.284631
O26	O	0.617334	1.462809	0.617964
O27	O	0.950667	1.796143	0.951297
O28	O	0.134994	1.019793	0.367764
O29	O	0.468328	1.353126	0.701097
O30	O	0.801661	1.686459	1.034431
O31	O	0.219789	0.936614	0.174882
O32	O	0.553122	1.269947	0.508215
O33	O	0.886456	1.603280	0.841549
O34	O	0.219760	0.826897	0.284596
O35	O	0.553094	1.160231	0.617929
O36	O	0.886427	1.493564	0.951262
O37	O	0.283950	0.936629	0.477473
O38	O	0.617283	1.269963	0.810806
O39	O	0.950617	1.603296	1.144139
O40	O	0.283966	0.826890	0.367731
O41	O	0.617299	1.160224	0.701065
O42	O	0.950632	1.493557	1.034398
O43	O	0.219733	1.019784	0.477487
O44	O	0.553067	1.353117	0.810820
O45	O	0.886400	1.686450	1.144154
O46	O	0.368754	1.019728	0.284612
O47	O	0.702088	1.353062	0.617945
O48	O	1.035421	1.686395	0.951279
O49	O	0.368733	0.936598	0.367740
O50	O	0.702066	1.269931	0.701074
O51	O	1.035399	1.603265	1.034407
C52	C	0.251862	0.802335	0.326161
C53	C	0.585195	1.135668	0.659494
C54	C	0.918529	1.469002	0.992827
C55	C	0.251870	0.727103	0.326167
C56	C	0.585204	1.060436	0.659501
C57	C	0.918537	1.393770	0.992834
C58	C	0.115499	0.978224	0.326190
C59	C	0.448832	1.311557	0.659524
C60	C	0.782166	1.644890	0.992857
C61	C	0.057385	0.978237	0.326193
C62	C	0.390718	1.311571	0.659527
C63	C	0.724052	1.644904	0.992860
C64	C	0.285352	0.691773	0.369386
C65	C	0.618686	1.025106	0.702719
C66	C	0.952019	1.358440	1.036053
C67	C	0.285353	0.621085	0.369396
C68	C	0.618687	0.954418	0.702729
C69	C	0.952020	1.287751	1.036062
C70	C	0.251874	0.585727	0.326183
C71	C	0.585208	0.919061	0.659516
C72	C	0.918541	1.252394	0.992849
C73	C	0.218389	0.621062	0.282962
C74	C	0.551722	0.954396	0.616296
C75	C	0.885055	1.287729	0.949629
C76	C	0.218386	0.691749	0.282957
C77	C	0.551719	1.025083	0.616290
C78	C	0.885052	1.358416	0.949623
C79	C	0.218400	0.335989	0.282985
C80	C	0.551734	0.669322	0.616318
C81	C	0.885067	1.002656	0.949651
C82	C	0.218407	0.265297	0.282992
C83	C	0.551740	0.598630	0.616325
C84	C	0.885074	0.931964	0.949659
C85	C	0.285368	0.265324	0.369424
C86	C	0.618701	0.598657	0.702757
C87	C	0.952035	0.931991	1.036090
C88	C	0.285365	0.336011	0.369418
C89	C	0.618698	0.669345	0.702751
C90	C	0.952031	1.002678	1.036085
C91	C	0.251877	0.371340	0.326200
C92	C	0.585211	0.704673	0.659534
C93	C	0.918544	1.038007	0.992867
C94	C	0.251876	0.447988	0.326191
C95	C	0.585209	0.781322	0.659525
C96	C	0.918543	1.114655	0.992858
C97	C	0.251878	0.509080	0.326188
C98	C	0.585211	0.842414	0.659521
C99	C	0.918545	1.175747	0.992854
C100	C	-0.302978	0.934932	0.282919
C101	C	0.030356	1.268266	0.616253
C102	C	0.363689	1.601599	0.949586
C103	C	-0.357582	0.934932	0.282923
C104	C	-0.024249	1.268265	0.616256
C105	C	0.309085	1.601598	0.949589
O106	O	-0.385818	0.898101	0.246125
O107	O	-0.052485	1.231434	0.579458
O108	O	0.280848	1.564767	0.912791
N109	N	-0.384898	0.978224	0.326213
N110	N	-0.051564	1.311557	0.659546
N111	N	0.281769	1.644891	0.992880
C112	C	-0.357606	1.021515	0.369508
C113	C	-0.024273	1.354849	0.702841
C114	C	0.309061	1.688182	1.036174
O115	O	-0.385854	1.058338	0.406330
O116	O	-0.052521	1.391672	0.739664
O117	O	0.280813	1.725005	1.072997
C118	C	-0.303003	1.021512	0.369507
C119	C	0.030331	1.354846	0.702841
C120	C	0.363664	1.688179	1.036174
C121	C	-0.275690	0.978222	0.326209
C122	C	0.057643	1.311555	0.659543
C123	C	0.390977	1.644888	0.992876
C124	C	-0.275665	0.891645	0.239625
C125	C	0.057668	1.224978	0.572959
C126	C	0.391002	1.558312	0.906292
C127	C	-0.221064	0.891647	0.239621
C128	C	0.112269	1.224980	0.572955
C129	C	0.445602	1.558313	0.906288
C130	C	-0.193777	0.934936	0.282911
C131	C	0.139557	1.268269	0.616245
C132	C	0.472890	1.601603	0.949578
C133	C	-0.221089	0.978224	0.326205
C134	C	0.112244	1.311557	0.659539
C135	C	0.445577	1.644890	0.992872
C136	C	-0.275712	1.064800	0.412805
C137	C	0.057621	1.398133	0.746139
C138	C	0.390955	1.731466	1.079472
C139	C	-0.221105	1.064792	0.412801
C140	C	0.112228	1.398126	0.746135
C141	C	0.445562	1.731459	1.079468
C142	C	-0.193792	1.021502	0.369503
C143	C	0.139541	1.354835	0.702837
C144	C	0.472874	1.688168	1.036170
C145	C	-0.139201	1.021515	0.369491
C146	C	0.194132	1.354848	0.702825
C147	C	0.527466	1.688181	1.036158
N148	N	-0.111886	0.978222	0.326201
N149	N	0.221448	1.311556	0.659534
N150	N	0.554781	1.644889	0.992868
C151	C	-0.139173	0.934933	0.282911
C152	C	0.194160	1.268266	0.616244
C153	C	0.527493	1.601600	0.949578
C154	C	-0.472277	1.021518	0.369506
C155	C	-0.138943	1.354851	0.702839
C156	C	0.194390	1.688185	1.036173
C157	C	-0.526879	1.021525	0.369503
C158	C	-0.193546	1.354858	0.702837
C159	C	0.139788	1.688192	1.036170
C160	C	-0.526851	0.934940	0.282919
C161	C	-0.193518	1.268274	0.616252
C162	C	0.139816	1.601607	0.949586
C163	C	-0.472248	0.934937	0.282919
C164	C	-0.138915	1.268270	0.616252
C165	C	0.194419	1.601604	0.949585
C166	C	-0.444961	0.978225	0.326216
C167	C	-0.111628	1.311559	0.659549
C168	C	0.221706	1.644892	0.992882
C169	C	-0.024508	0.934940	0.282905
C170	C	0.308825	1.268274	0.616239
C171	C	0.642159	1.601607	0.949572
C172	C	0.030097	0.934948	0.282903
C173	C	0.363431	1.268281	0.616237
C174	C	0.696764	1.601615	0.949570
C175	C	0.030065	1.021530	0.369490
C176	C	0.363398	1.354863	0.702823
C177	C	0.696731	1.688197	1.036157
C178	C	-0.024536	1.021525	0.369490
C179	C	0.308797	1.354859	0.702823
C180	C	0.642131	1.688192	1.036157
C181	C	-0.051821	0.978225	0.326195
C182	C	0.281512	1.311558	0.659529
C183	C	0.614846	1.644892	0.992862
O184	O	-0.110930	1.058325	0.406272
O185	O	0.222403	1.391658	0.739606
O186	O	0.555737	1.724992	1.072939
O187	O	-0.110919	0.898110	0.246101
O188	O	0.222415	1.231443	0.579434
O189	O	0.555748	1.564776	0.912767
C190	C	0.387715	0.978177	0.326190
C191	C	0.721048	1.311510	0.659523
C192	C	1.054381	1.644844	0.992857
C193	C	0.445829	0.978233	0.326216
C194	C	0.779162	1.311566	0.659549
C195	C	1.112495	1.644899	0.992882
C196	C	0.251837	0.978209	0.502725
C197	C	0.585170	1.311542	0.836059
C198	C	0.918503	1.644876	1.169392
C199	C	0.251822	0.978217	0.577957
C200	C	0.585155	1.311550	0.911291
C201	C	0.918488	1.644883	1.244624
C202	C	0.251882	1.154734	0.326205
C203	C	0.585216	1.488067	0.659538
C204	C	0.918549	1.821400	0.992872
C205	C	0.251887	1.229966	0.326215
C206	C	0.585220	1.563299	0.659548
C207	C	0.918554	1.896632	0.992881
C208	C	0.251869	0.978212	0.150327
C209	C	0.585203	1.311545	0.483660
C210	C	0.918536	1.644879	0.816993
C211	C	0.251737	0.978335	0.075095
C212	C	0.585071	1.311669	0.408428
C213	C	0.918404	1.645002	0.741762
C214	C	0.285181	1.021606	1.039750
C215	C	0.618515	1.354939	1.373083
C216	C	0.951848	1.688273	1.706417
C217	C	0.285195	1.021587	0.969061
C218	C	0.618529	1.354920	1.302395
C219	C	0.951862	1.688254	1.635728
C220	C	0.251763	0.978301	0.933719
C221	C	0.585096	1.311634	1.267053
C222	C	0.918429	1.644967	1.600386
C223	C	0.218317	0.935025	0.969069
C224	C	0.551650	1.268359	1.302403
C225	C	0.884984	1.601692	1.635736
C226	C	0.218306	0.935041	1.039757
C227	C	0.551639	1.268375	1.373090
C228	C	0.884973	1.601708	1.706423
C229	C	0.218362	0.934960	0.683996
C230	C	0.551695	1.268293	1.017329
C231	C	0.885029	1.601627	1.350663
C232	C	0.218374	0.934949	0.613304
C233	C	0.551708	1.268282	0.946637
C234	C	0.885041	1.601616	1.279971
C235	C	0.285251	1.021506	0.613301
C236	C	0.618585	1.354839	0.946634
C237	C	0.951918	1.688173	1.279967
C238	C	0.285240	1.021522	0.683988
C239	C	0.618574	1.354855	1.017321
C240	C	0.951907	1.688189	1.350655
C241	C	0.251797	0.978244	0.719332
C242	C	0.585130	1.311578	1.052665
C243	C	0.918464	1.644911	1.385999
C244	C	0.251783	0.978264	0.795980
C245	C	0.585116	1.311598	1.129314
C246	C	0.918449	1.644931	1.462647
C247	C	0.251774	0.978284	0.857072
C248	C	0.585107	1.311617	1.190406
C249	C	0.918441	1.644950	1.523739
H250	H	0.312616	0.720556	0.404573
H251	H	0.645950	1.053889	0.737906
H252	H	0.979283	1.387222	1.071240
N253	N	-0.053932	0.888240	0.236210
N254	N	0.279401	1.221573	0.569544
N255	N	0.612734	1.554906	0.902877
H256	H	-0.028338	0.860822	0.208786
H257	H	0.304996	1.194155	0.542119
H258	H	0.638329	1.527489	0.875452
H259	H	-0.076583	0.915787	0.204890
H260	H	0.256750	1.249121	0.538224
H261	H	0.590084	1.582454	0.871557
N262	N	0.182259	0.888333	0.930955
N263	N	0.515592	1.221667	1.264288
N264	N	0.848926	1.555000	1.597621
H265	H	0.187339	0.894890	0.880811
H266	H	0.520672	1.228223	1.214144
H267	H	0.854006	1.561556	1.547477
H268	H	0.144917	0.898879	0.943317
H269	H	0.478250	1.232212	1.276650
H270	H	0.811584	1.565546	1.609983
N271	N	0.321239	1.068298	1.077866
N272	N	0.654572	1.401631	1.411200
N273	N	0.987905	1.734964	1.744533
H274	H	0.342428	1.095705	1.044746
H275	H	0.675761	1.429039	1.378080
H276	H	1.009094	1.762372	1.711413
H277	H	0.345428	1.040748	1.107192
H278	H	0.678762	1.374081	1.440526
H279	H	1.012095	1.707414	1.773859
N280	N	0.321473	0.582981	0.416003
N281	N	0.654806	0.916315	0.749336
N282	N	0.988140	1.249648	1.082670
H283	H	0.300264	0.553665	0.447423
H284	H	0.633598	0.886998	0.780756
H285	H	0.966931	1.220332	1.114090
H286	H	0.342676	0.616152	0.443325
H287	H	0.676009	0.949485	0.776658
H288	H	1.009342	1.282819	1.109991
H289	H	-0.198831	0.856394	0.204365
H290	H	0.134502	1.189727	0.537698
H291	H	0.467836	1.523060	0.871032
H292	H	0.191127	0.592269	0.247780
H293	H	0.524461	0.925602	0.581114
H294	H	0.857794	1.258936	0.914447
N295	N	-0.191682	1.111488	0.459504
N296	N	0.141652	1.444822	0.792837
N297	N	0.474985	1.778155	1.126170
H298	H	-0.169024	1.142857	0.432005
H299	H	0.164309	1.476190	0.765339
H300	H	0.497643	1.809524	1.098672
H301	H	-0.169062	1.083939	0.490859
H302	H	0.164272	1.417273	0.824192
H303	H	0.497605	1.750606	1.157525
H304	H	0.191072	0.899807	1.068534
H305	H	0.524405	1.233140	1.401867
H306	H	0.857738	1.566473	1.735200
H307	H	0.191137	0.364745	0.247789
H308	H	0.524470	0.698079	0.581122
H309	H	0.857803	1.031412	0.914456
H310	H	0.312484	1.056743	0.584515
H311	H	0.645818	1.390076	0.917849
H312	H	0.979151	1.723409	1.251182
H313	H	-0.549079	0.899691	0.247671
H314	H	-0.215745	1.233024	0.581004
H315	H	0.117588	1.566357	0.914337
H316	H	0.191118	0.720514	0.247767
H317	H	0.524452	1.053848	0.581100
H318	H	0.857785	1.387181	0.914434
H319	H	0.052333	0.899695	0.247642
H320	H	0.385666	1.233029	0.580976
H321	H	0.719000	1.566362	0.914309
N322	N	-0.054004	1.068218	0.416181
N323	N	0.279330	1.401551	0.749514
N324	N	0.612663	1.734884	1.082847
H325	H	-0.044507	1.116579	0.405675
H326	H	0.288826	1.449912	0.739008
H327	H	0.622160	1.783245	1.072341
H328	H	-0.044496	1.057654	0.464521
H329	H	0.288837	1.390987	0.797854
H330	H	0.622170	1.724320	1.131187
H331	H	-0.297878	0.856390	0.204373
H332	H	0.035456	1.189724	0.537707
H333	H	0.368789	1.523057	0.871040
N334	N	0.321268	1.068255	0.930936
N335	N	0.654601	1.401588	1.264270
N336	N	0.987935	1.734921	1.597603
H337	H	0.342444	1.095682	0.964050
H338	H	0.675778	1.429016	1.297383
H339	H	1.009111	1.762349	1.630716
H340	H	0.299991	1.099573	0.901608
H341	H	0.633324	1.432907	1.234942
H342	H	0.966658	1.766240	1.568275
H343	H	-0.549113	1.056783	0.404753
H344	H	-0.215780	1.390117	0.738087
H345	H	0.117553	1.723450	1.071420
H346	H	0.312463	1.056772	0.712760
H347	H	0.645796	1.390106	1.046093
H348	H	0.979130	1.723439	1.379427
N349	N	0.182310	0.888264	0.575182
N350	N	0.515643	1.221597	0.908516
N351	N	0.848977	1.554930	1.241849
H352	H	0.161122	0.860850	0.608298
H353	H	0.494455	1.194183	0.941631
H354	H	0.827788	1.527516	1.274965
H355	H	0.203595	0.856933	0.545846
H356	H	0.536929	1.190266	0.879180
H357	H	0.870262	1.523600	1.212513
N358	N	-0.442791	0.888246	0.236219
N359	N	-0.109458	1.221580	0.569552
N360	N	0.223876	1.554913	0.902886
H361	H	-0.468368	0.860827	0.208796
H362	H	-0.135035	1.194161	0.542129
H363	H	0.198298	1.527494	0.875463
H364	H	-0.420141	0.856921	0.263763
H365	H	-0.086808	1.190254	0.597097
H366	H	0.246525	1.523588	0.930430
N367	N	0.182292	0.888285	0.722112
N368	N	0.515626	1.221618	1.055445
N369	N	0.848959	1.554952	1.388779
H370	H	0.161114	0.860864	0.688995
H371	H	0.494447	1.194198	1.022328
H372	H	0.827781	1.527531	1.355661
H373	H	0.158093	0.915846	0.751445
H374	H	0.491426	1.249180	1.084779
H375	H	0.824759	1.582513	1.418112
H376	H	-0.450063	1.056773	0.404764
H377	H	-0.116730	1.390106	0.738097
H378	H	0.216604	1.723439	1.071430
H379	H	0.312628	0.364796	0.404604
H380	H	0.645962	0.698129	0.737937
H381	H	0.979295	1.031462	1.071271
N382	N	0.059502	1.068221	0.416178
N383	N	0.392835	1.401554	0.749511
N384	N	0.726168	1.734888	1.082845
H385	H	0.098236	1.061647	0.409604
H386	H	0.431570	1.394980	0.742937
H387	H	0.764903	1.728314	1.076270
H388	H	0.049950	1.057688	0.464517
H389	H	0.383283	1.391021	0.797850
H390	H	0.716617	1.724354	1.131184
N391	N	0.321485	0.227216	0.416039
N392	N	0.654819	0.560549	0.749372
N393	N	0.988152	0.893882	1.082705
H394	H	0.300273	0.197900	0.447455
H395	H	0.633606	0.531233	0.780789
H396	H	0.966939	0.864566	1.114122
H397	H	0.342688	0.260383	0.443364
H398	H	0.676022	0.593716	0.776698
H399	H	1.009355	0.927049	1.110031
N400	N	0.182297	0.227159	0.236381
N401	N	0.515630	0.560492	0.569715
N402	N	0.848963	0.893826	0.903048
H403	H	0.161081	0.260265	0.209003
H404	H	0.494414	0.593598	0.542336
H405	H	0.827748	0.926932	0.875670
H406	H	0.158134	0.197838	0.263989
H407	H	0.491467	0.531171	0.597322
H408	H	0.824800	0.864505	0.930655
N409	N	-0.305162	1.111489	0.459509
N410	N	0.028171	1.444822	0.792842
N411	N	0.361505	1.778156	1.126175
H412	H	-0.279582	1.138904	0.486932
H413	H	0.053751	1.472237	0.820265
H414	H	0.387085	1.805570	1.153599
H415	H	-0.327819	1.083937	0.490830
H416	H	0.005514	1.417271	0.824163
H417	H	0.338848	1.750604	1.157496
