data_functionalizedCrystal
_audit_creation_method	'MofGen! by Chris Wilmer'
_symmetry_space_group_name_H-M	'P1'
_symmetry_Int_Tables_number	1
_symmetry_cell_setting	triclinic
loop_
_symmetry_equiv_pos_as_xyz
  x,y,z
_cell_length_a	16.959455
_cell_length_b	12.594516
_cell_length_c	16.959447
_cell_angle_alpha	89.973179
_cell_angle_beta	89.979626
_cell_angle_gamma	90.008836
loop_
_atom_site_label
_atom_site_type_symbol
_atom_site_fract_x
_atom_site_fract_y
_atom_site_fract_z
Zn1	Zn	1.208429	-0.423806	-0.447056
Zn2	Zn	1.208371	-0.601813	-0.314885
Zn3	Zn	1.076258	-0.423839	-0.314879
Zn4	Zn	1.076241	-0.601733	-0.447010
O5	O	1.142325	-0.512798	-0.380957
O6	O	1.319032	-0.447438	-0.429545
O7	O	1.190828	-0.578251	-0.204273
O8	O	1.093822	-0.274889	-0.332429
O9	O	1.318989	-0.578219	-0.332439
O10	O	1.190928	-0.274864	-0.429539
O11	O	1.093765	-0.447495	-0.204269
O12	O	0.965645	-0.447418	-0.332385
O13	O	1.093794	-0.578084	-0.557627
O14	O	0.965633	-0.578116	-0.429461
O15	O	1.190912	-0.447361	-0.557660
O16	O	1.190812	-0.750748	-0.332395
O17	O	1.093737	-0.750690	-0.429466
C18	C	0.936958	-0.512763	-0.380918
C19	C	0.849102	-0.512774	-0.380919
C20	C	1.142288	-0.789339	-0.380944
C21	C	1.142345	-0.907644	-0.380964
C22	C	0.477593	-0.580828	-0.330369
C23	C	0.477659	-0.444856	-0.431642
C24	C	0.560205	-0.444838	-0.431623
C25	C	0.601449	-0.512818	-0.380977
C26	C	0.560147	-0.580815	-0.330350
C27	C	0.601514	-0.376850	-0.482254
C28	C	0.684064	-0.376831	-0.482238
C29	C	0.725310	-0.444806	-0.431587
C30	C	0.684002	-0.512805	-0.380958
C31	C	0.725246	-0.580784	-0.330312
C32	C	0.683940	-0.648778	-0.279677
C33	C	0.601392	-0.648790	-0.279699
C34	C	0.807858	-0.444794	-0.431565
C35	C	0.807800	-0.580771	-0.330292
C36	C	1.195205	-0.976890	-0.328223
C37	C	1.214514	-1.047590	-0.400371
C38	C	1.123134	-1.047743	-0.308863
C39	C	1.161691	-0.976785	-0.453149
C40	C	1.070278	-0.976933	-0.361593
C41	C	1.089559	-1.047600	-0.433790
C42	C	1.348493	-0.512833	-0.380998
C43	C	1.436350	-0.512849	-0.381015
C44	C	1.142358	-0.512710	-0.587126
C45	C	1.142372	-0.512672	-0.674982
C46	C	1.142383	-0.235177	-0.380988
C47	C	1.142408	-0.116871	-0.381002
C48	C	1.091901	-0.580621	-1.046443
C49	C	1.193031	-0.444499	-1.046473
C50	C	1.193010	-0.444521	-0.963927
C51	C	1.142435	-0.512596	-0.922635
C52	C	1.091880	-0.580648	-0.963889
C53	C	1.243569	-0.376478	-0.922667
C54	C	1.243550	-0.376499	-0.840116
C55	C	1.192971	-0.444569	-0.798823
C56	C	1.142414	-0.512623	-0.840082
C57	C	1.091838	-0.580697	-0.798790
C58	C	1.041277	-0.648747	-0.840048
C59	C	1.041300	-0.648718	-0.922596
C60	C	1.192947	-0.444597	-0.716274
C61	C	1.091817	-0.580724	-0.716236
C62	C	1.142337	-0.512809	-0.175591
C63	C	1.142477	-0.512546	-0.087735
H64	H	0.841375	-0.636125	-0.289047
C65	C	0.729314	-0.723551	-0.223970
H66	H	0.784392	-0.713797	-0.231213
H67	H	0.715791	-0.795088	-0.235445
H68	H	0.715762	-0.707877	-0.170880
C69	C	0.987932	-0.934964	-0.339409
H70	H	0.967665	-0.893450	-0.381566
H71	H	0.991716	-0.892433	-0.293322
H72	H	0.953608	-0.993128	-0.329660
H73	H	1.106860	-1.078911	-0.247872
H74	H	0.444074	-0.389516	-0.472880
H75	H	1.239915	-0.945841	-0.283662
C76	C	1.296879	-1.089529	-0.422533
H77	H	1.334356	-1.065326	-0.384997
H78	H	1.310912	-1.064191	-0.473404
H79	H	1.296184	-1.164952	-0.422854
C80	C	1.036195	-0.655623	-0.670821
H81	H	1.006095	-0.696152	-0.707217
H82	H	1.001754	-0.614928	-0.638613
H83	H	1.066429	-0.702018	-0.638625
H84	H	1.284720	-0.321088	-0.806531
C85	C	1.183779	-0.934868	-0.535564
H86	H	1.183650	-0.859439	-0.535040
H87	H	1.146489	-0.959643	-0.573072
H88	H	1.234841	-0.959648	-0.549416
H89	H	0.567927	-0.321512	-0.523493
H90	H	1.284749	-0.321062	-0.956293
H91	H	1.000102	-0.704178	-0.806417
H92	H	1.050733	-0.636022	-1.080039
H93	H	1.000138	-0.704124	-0.956195
C94	C	0.729494	-0.302032	-0.537924
H95	H	0.693107	-0.261543	-0.568085
H96	H	0.761721	-0.342791	-0.572305
H97	H	0.761673	-0.255595	-0.507729
C98	C	0.853295	-0.370015	-0.487255
H99	H	0.908365	-0.379746	-0.479994
H100	H	0.839760	-0.298482	-0.475788
H101	H	0.839798	-0.385698	-0.540349
H102	H	1.044884	-1.078452	-0.478459
C103	C	0.555959	-0.723585	-0.224014
H104	H	0.592342	-0.764064	-0.193842
H105	H	0.523775	-0.770014	-0.254203
H106	H	0.523735	-0.682814	-0.189630
H107	H	0.443959	-0.636184	-0.289142
C108	C	1.248655	-0.369618	-1.091892
H109	H	1.241423	-0.379343	-1.146964
H110	H	1.301759	-0.385196	-1.078367
H111	H	1.237086	-0.298103	-1.078375
C112	C	1.248553	-0.369748	-0.670894
H113	H	1.278674	-0.329198	-0.707309
H114	H	1.282974	-0.410475	-0.638683
H115	H	1.218310	-0.323370	-0.638703
