data_functionalizedCrystal
_audit_creation_method	'MofGen! by Chris Wilmer'
_symmetry_space_group_name_H-M	'P1'
_symmetry_Int_Tables_number	1
_symmetry_cell_setting	triclinic
loop_
_symmetry_equiv_pos_as_xyz
  x,y,z
_cell_length_a	19.121324
_cell_length_b	19.077105
_cell_length_c	19.076808
_cell_angle_alpha	90.072392
_cell_angle_beta	85.138196
_cell_angle_gamma	89.971547
loop_
_atom_site_label
_atom_site_type_symbol
_atom_site_fract_x
_atom_site_fract_y
_atom_site_fract_z
Zn1	Zn	-0.426783	-1.045509	-0.304069
Zn2	Zn	-0.176783	-0.795509	-0.054069
Zn3	Zn	0.073217	-0.545509	0.195931
Zn4	Zn	0.323217	-0.295509	0.445931
Zn5	Zn	-0.304408	-1.045715	-0.427013
Zn6	Zn	-0.054408	-0.795715	-0.177013
Zn7	Zn	0.195592	-0.545715	0.072987
Zn8	Zn	0.445592	-0.295715	0.322987
Zn9	Zn	-0.304814	-0.933000	-0.304773
Zn10	Zn	-0.054814	-0.683000	-0.054773
Zn11	Zn	0.195186	-0.433000	0.195227
Zn12	Zn	0.445186	-0.183000	0.445227
Zn13	Zn	-0.417323	-0.923635	-0.417237
Zn14	Zn	-0.167323	-0.673635	-0.167237
Zn15	Zn	0.082677	-0.423635	0.082763
Zn16	Zn	0.332677	-0.173635	0.332763
O17	O	-0.363332	-0.986965	-0.363273
O18	O	-0.113332	-0.736965	-0.113273
O19	O	0.136668	-0.486965	0.136727
O20	O	0.386668	-0.236965	0.386727
O21	O	-0.414340	-1.143712	-0.324175
O22	O	-0.164340	-0.893712	-0.074175
O23	O	0.085660	-0.643712	0.175825
O24	O	0.335660	-0.393712	0.425825
O25	O	-0.206162	-1.034769	-0.415183
O26	O	0.043838	-0.784769	-0.165183
O27	O	0.293838	-0.534769	0.084817
O28	O	0.543838	-0.284769	0.334817
O29	O	-0.325123	-0.951757	-0.206161
O30	O	-0.075123	-0.701757	0.043839
O31	O	0.174877	-0.451757	0.293839
O32	O	0.424877	-0.201757	0.543839
O33	O	-0.324431	-1.143864	-0.414500
O34	O	-0.074431	-0.893864	-0.164500
O35	O	0.175569	-0.643864	0.085500
O36	O	0.425569	-0.393864	0.335500
O37	O	-0.414733	-1.034417	-0.205644
O38	O	-0.164733	-0.784417	0.044356
O39	O	0.085267	-0.534417	0.294356
O40	O	0.335267	-0.284417	0.544356
O41	O	-0.206460	-0.951957	-0.325374
O42	O	0.043540	-0.701957	-0.075374
O43	O	0.293540	-0.451957	0.174626
O44	O	0.543540	-0.201957	0.424626
O45	O	-0.315949	-0.833581	-0.315895
O46	O	-0.065949	-0.583581	-0.065895
O47	O	0.184051	-0.333581	0.184105
O48	O	0.434051	-0.083581	0.434105
O49	O	-0.516877	-0.935797	-0.397839
O50	O	-0.266877	-0.685797	-0.147839
O51	O	-0.016877	-0.435797	0.102161
O52	O	0.233123	-0.185797	0.352161
O53	O	-0.398608	-0.826701	-0.398522
O54	O	-0.148608	-0.576701	-0.148522
O55	O	0.101392	-0.326701	0.101478
O56	O	0.351392	-0.076701	0.351478
O57	O	-0.523828	-1.025336	-0.314695
O58	O	-0.273828	-0.775336	-0.064695
O59	O	-0.023828	-0.525336	0.185305
O60	O	0.226172	-0.275336	0.435305
O61	O	-0.315257	-1.025689	-0.524234
O62	O	-0.065257	-0.775689	-0.274234
O63	O	0.184743	-0.525689	-0.024234
O64	O	0.434743	-0.275689	0.225766
O65	O	-0.398215	-0.935997	-0.517052
O66	O	-0.148215	-0.685997	-0.267052
O67	O	0.101785	-0.435997	-0.017052
O68	O	0.351785	-0.185997	0.232948
C69	C	-0.356296	-0.804685	-0.356225
C70	C	-0.106296	-0.554685	-0.106225
C71	C	0.143704	-0.304685	0.143775
C72	C	0.393704	-0.054685	0.393775
C73	C	-0.353302	-0.726704	-0.353226
C74	C	-0.103302	-0.476704	-0.103226
C75	C	0.146698	-0.226704	0.146774
C76	C	0.396698	0.023296	0.396774
C77	C	-0.355682	-0.979867	-0.546188
C78	C	-0.105682	-0.729867	-0.296188
C79	C	0.144318	-0.479867	-0.046188
C80	C	0.394318	-0.229867	0.203812
C81	C	-0.352435	-0.976894	-0.624442
C82	C	-0.102435	-0.726894	-0.374442
C83	C	0.147565	-0.476894	-0.124442
C84	C	0.397565	-0.226894	0.125558
C85	C	-0.546553	-0.979499	-0.355098
C86	C	-0.296553	-0.729499	-0.105098
C87	C	-0.046553	-0.479499	0.144902
C88	C	0.203447	-0.229499	0.394902
C89	C	-0.624632	-0.976317	-0.351615
C90	C	-0.374632	-0.726317	-0.101615
C91	C	-0.124632	-0.476317	0.148385
C92	C	0.125368	-0.226317	0.398385
C93	C	-0.661160	-1.017935	-0.396734
C94	C	-0.411160	-0.767935	-0.146734
C95	C	-0.161160	-0.517935	0.103266
C96	C	0.088840	-0.267935	0.353266
C97	C	-0.734523	-1.014946	-0.393452
C98	C	-0.484523	-0.764946	-0.143452
C99	C	-0.234523	-0.514946	0.106548
C100	C	0.015477	-0.264946	0.356548
C101	C	-0.771356	-0.970335	-0.345054
C102	C	-0.521356	-0.720335	-0.095054
C103	C	-0.271356	-0.470335	0.154946
C104	C	-0.021356	-0.220335	0.404946
C105	C	-0.734822	-0.928716	-0.299930
C106	C	-0.484822	-0.678716	-0.049930
C107	C	-0.234822	-0.428716	0.200070
C108	C	0.015178	-0.178716	0.450070
C109	C	-0.661461	-0.931709	-0.303209
C110	C	-0.411461	-0.681709	-0.053209
C111	C	-0.161461	-0.431709	0.196791
C112	C	0.088539	-0.181709	0.446791
C113	C	-0.992868	-0.959143	-0.332812
C114	C	-0.742868	-0.709143	-0.082812
C115	C	-0.492868	-0.459143	0.167188
C116	C	-0.242868	-0.209143	0.417188
C117	C	-1.066234	-0.956152	-0.329538
C118	C	-0.816234	-0.706152	-0.079538
C119	C	-0.566234	-0.456152	0.170462
C120	C	-0.316234	-0.206152	0.420462
C121	C	-1.065930	-1.042383	-0.423060
C122	C	-0.815930	-0.792383	-0.173060
C123	C	-0.565930	-0.542383	0.076940
C124	C	-0.315930	-0.292383	0.326940
C125	C	-0.992567	-1.045369	-0.426337
C126	C	-0.742567	-0.795369	-0.176337
C127	C	-0.492567	-0.545369	0.073663
C128	C	-0.242567	-0.295369	0.323663
C129	C	-0.956040	-1.003753	-0.381211
C130	C	-0.706040	-0.753753	-0.131211
C131	C	-0.456040	-0.503753	0.118789
C132	C	-0.206040	-0.253753	0.368789
C133	C	-0.846345	-0.967277	-0.341700
C134	C	-0.596345	-0.717277	-0.091700
C135	C	-0.346345	-0.467277	0.158300
C136	C	-0.096345	-0.217277	0.408300
C137	C	-0.881053	-1.006815	-0.384562
C138	C	-0.631053	-0.756815	-0.134562
C139	C	-0.381053	-0.506815	0.115438
C140	C	-0.131053	-0.256815	0.365438
C141	C	-0.180827	-0.994444	-0.371367
C142	C	0.069173	-0.744444	-0.121367
C143	C	0.319173	-0.494444	0.128633
C144	C	0.569173	-0.244444	0.378633
C145	C	-0.102763	-0.997769	-0.374657
C146	C	0.147237	-0.747769	-0.124657
C147	C	0.397237	-0.497769	0.125343
C148	C	0.647237	-0.247769	0.375343
C149	C	-0.370396	-1.169956	-0.370349
C150	C	-0.120396	-0.919956	-0.120349
C151	C	0.129604	-0.669956	0.129651
C152	C	0.379604	-0.419956	0.379651
C153	C	-0.373406	-1.247936	-0.373365
C154	C	-0.123406	-0.997936	-0.123365
C155	C	0.126594	-0.747936	0.126635
C156	C	0.376594	-0.497936	0.376635
C157	C	-0.394859	-0.686505	-0.394907
C158	C	-0.144859	-0.436505	-0.144907
C159	C	0.105141	-0.186505	0.105093
C160	C	0.355141	0.063495	0.355093
C161	C	-0.392049	-0.613233	-0.392079
C162	C	-0.142049	-0.363233	-0.142079
C163	C	0.107951	-0.113233	0.107921
C164	C	0.357951	0.136767	0.357921
C165	C	-0.347679	-0.580162	-0.347574
C166	C	-0.097679	-0.330162	-0.097574
C167	C	0.152321	-0.080162	0.152426
C168	C	0.402321	0.169838	0.402426
C169	C	-0.306121	-0.620367	-0.305888
C170	C	-0.056121	-0.370367	-0.055888
C171	C	0.193879	-0.120367	0.194112
C172	C	0.443879	0.129633	0.444112
C173	C	-0.308935	-0.693637	-0.308712
C174	C	-0.058935	-0.443637	-0.058712
C175	C	0.191065	-0.193637	0.191288
C176	C	0.441065	0.056363	0.441288
C177	C	-0.334661	-0.361411	-0.334503
C178	C	-0.084661	-0.111411	-0.084503
C179	C	0.165339	0.138589	0.165497
C180	C	0.415339	0.388589	0.415497
C181	C	-0.331849	-0.288135	-0.331684
C182	C	-0.081849	-0.038135	-0.081684
C183	C	0.168151	0.211865	0.168316
C184	C	0.418151	0.461865	0.418316
C185	C	-0.417779	-0.281007	-0.417874
C186	C	-0.167779	-0.031007	-0.167874
C187	C	0.082221	0.218993	0.082126
C188	C	0.332221	0.468993	0.332126
C189	C	-0.420585	-0.354278	-0.420698
C190	C	-0.170585	-0.104278	-0.170698
C191	C	0.079415	0.145722	0.079302
C192	C	0.329415	0.395722	0.329302
C193	C	-0.379030	-0.394477	-0.379009
C194	C	-0.129030	-0.144477	-0.129009
C195	C	0.120970	0.105523	0.120991
C196	C	0.370970	0.355523	0.370991
N197	N	-0.344805	-0.505267	-0.344684
N198	N	-0.094805	-0.255267	-0.094684
N199	N	0.155195	-0.005267	0.155316
N200	N	0.405195	0.244733	0.405316
N201	N	-0.381908	-0.469370	-0.381895
N202	N	-0.131908	-0.219370	-0.131895
N203	N	0.118092	0.030630	0.118105
N204	N	0.368092	0.280630	0.368105
C205	C	-0.397600	-1.018499	-0.660872
C206	C	-0.147600	-0.768499	-0.410872
C207	C	0.102400	-0.518499	-0.160872
C208	C	0.352400	-0.268499	0.089128
C209	C	-0.394550	-1.015703	-0.734399
C210	C	-0.144550	-0.765703	-0.484399
C211	C	0.105450	-0.515703	-0.234399
C212	C	0.355450	-0.265703	0.015601
C213	C	-0.346331	-0.971305	-0.771495
C214	C	-0.096331	-0.721305	-0.521495
C215	C	0.153669	-0.471305	-0.271495
C216	C	0.403669	-0.221305	-0.021495
C217	C	-0.301164	-0.929695	-0.735059
C218	C	-0.051164	-0.679695	-0.485059
C219	C	0.198836	-0.429695	-0.235059
C220	C	0.448836	-0.179695	0.014941
C221	C	-0.304218	-0.932489	-0.661533
C222	C	-0.054218	-0.682489	-0.411533
C223	C	0.195782	-0.432489	-0.161533
C224	C	0.445782	-0.182489	0.088467
C225	C	-0.332195	-0.958336	-0.991430
C226	C	-0.082195	-0.708336	-0.741430
C227	C	0.167805	-0.458336	-0.491430
C228	C	0.417805	-0.208336	-0.241430
C229	C	-0.329143	-0.955548	-1.064961
C230	C	-0.079143	-0.705548	-0.814961
C231	C	0.170857	-0.455548	-0.564961
C232	C	0.420857	-0.205548	-0.314961
C233	C	-0.422530	-1.041555	-1.064297
C234	C	-0.172530	-0.791555	-0.814297
C235	C	0.077470	-0.541555	-0.564297
C236	C	0.327470	-0.291555	-0.314297
C237	C	-0.425577	-1.044347	-0.990769
C238	C	-0.175577	-0.794347	-0.740769
C239	C	0.074423	-0.544347	-0.490769
C240	C	0.324423	-0.294347	-0.240769
C241	C	-0.380412	-1.002735	-0.954340
C242	C	-0.130412	-0.752735	-0.704340
C243	C	0.119588	-0.502735	-0.454340
C244	C	0.369588	-0.252735	-0.204340
N245	N	-0.343211	-0.968447	-0.846651
N246	N	-0.093211	-0.718447	-0.596651
N247	N	0.156789	-0.468447	-0.346651
N248	N	0.406789	-0.218447	-0.096651
N249	N	-0.383536	-1.005589	-0.879184
N250	N	-0.133536	-0.755589	-0.629184
N251	N	0.116464	-0.505589	-0.379184
N252	N	0.366464	-0.255589	-0.129184
C253	C	-0.371028	-0.994108	-0.179644
C254	C	-0.121028	-0.744108	0.070356
C255	C	0.128972	-0.494108	0.320356
C256	C	0.378972	-0.244108	0.570356
C257	C	-0.374308	-0.997153	-0.101392
C258	C	-0.124308	-0.747153	0.148608
C259	C	0.125692	-0.497153	0.398608
C260	C	0.375692	-0.247153	0.648608
H261	H	-0.631177	-1.054264	-0.436143
H262	H	-0.381177	-0.804264	-0.186143
H263	H	-0.131177	-0.554264	0.063857
H264	H	0.118823	-0.304264	0.313857
N265	N	-0.264111	-0.737002	-0.263762
N266	N	-0.014111	-0.487002	-0.013762
N267	N	0.235889	-0.237002	0.236238
N268	N	0.485889	0.012998	0.486238
H269	H	-0.295245	-0.767503	-0.231078
H270	H	-0.045245	-0.517503	0.018922
H271	H	0.204755	-0.267503	0.268922
H272	H	0.454755	-0.017503	0.518922
H273	H	-0.235579	-0.704891	-0.235184
H274	H	0.014421	-0.454891	0.014816
H275	H	0.264421	-0.204891	0.264816
H276	H	0.514421	0.045109	0.514816
H277	H	-0.962582	-1.081684	-0.465759
H278	H	-0.712582	-0.831684	-0.215759
H279	H	-0.462582	-0.581684	0.034241
H280	H	-0.212582	-0.331684	0.284241
H281	H	-0.876342	-0.930953	-0.302295
H282	H	-0.626342	-0.680953	-0.052295
H283	H	-0.376342	-0.430953	0.197705
H284	H	-0.126342	-0.180953	0.447705
H285	H	-0.764262	-1.048835	-0.430193
H286	H	-0.514262	-0.798835	-0.180193
H287	H	-0.264262	-0.548835	0.069807
H288	H	-0.014262	-0.298835	0.319807
N289	N	-0.283476	-0.913464	-0.952146
N290	N	-0.033476	-0.663464	-0.702146
N291	N	0.216524	-0.413464	-0.452146
N292	N	0.466524	-0.163464	-0.202146
H293	H	-0.253317	-0.944488	-0.924179
H294	H	-0.003317	-0.694488	-0.674179
H295	H	0.246683	-0.444488	-0.424179
H296	H	0.496683	-0.194488	-0.174179
H297	H	-0.312052	-0.880926	-0.919170
H298	H	-0.062052	-0.630926	-0.669170
H299	H	0.187948	-0.380926	-0.419170
H300	H	0.437948	-0.130926	-0.169170
N301	N	-1.105950	-0.908014	-0.277345
N302	N	-0.855950	-0.658014	-0.027345
N303	N	-0.605950	-0.408014	0.222655
N304	N	-0.355950	-0.158014	0.472655
H305	H	-1.133918	-0.873146	-0.303354
H306	H	-0.883918	-0.623146	-0.053354
H307	H	-0.633918	-0.373146	0.196646
H308	H	-0.383918	-0.123146	0.446646
H309	H	-1.071625	-0.882153	-0.249280
H310	H	-0.821625	-0.632153	0.000720
H311	H	-0.571625	-0.382153	0.250720
H312	H	-0.321625	-0.132153	0.500720
N313	N	-0.622064	-0.886823	-0.254539
N314	N	-0.372064	-0.636823	-0.004539
N315	N	-0.122064	-0.386823	0.245461
N316	N	0.127936	-0.136823	0.495461
H317	H	-0.632434	-0.835749	-0.262961
H318	H	-0.382434	-0.585749	-0.012961
H319	H	-0.132434	-0.335749	0.237039
H320	H	0.117566	-0.085749	0.487039
H321	H	-0.570015	-0.895547	-0.263979
H322	H	-0.320015	-0.645547	-0.013979
H323	H	-0.070015	-0.395547	0.236021
H324	H	0.179985	-0.145547	0.486021
H325	H	-0.295722	-0.261211	-0.295434
H326	H	-0.045722	-0.011211	-0.045434
H327	H	0.204278	0.238789	0.204566
H328	H	0.454278	0.488789	0.454566
H329	H	-0.261906	-0.893543	-0.765267
H330	H	-0.011906	-0.643543	-0.515267
H331	H	0.238094	-0.393543	-0.265267
H332	H	0.488094	-0.143543	-0.015267
N333	N	-0.436864	-0.569875	-0.437042
N334	N	-0.186864	-0.319875	-0.187042
N335	N	0.063136	-0.069875	0.062958
N336	N	0.313136	0.180125	0.312958
H337	H	-0.405726	-0.539372	-0.469721
H338	H	-0.155726	-0.289372	-0.219721
H339	H	0.094274	-0.039372	0.030279
H340	H	0.344274	0.210628	0.280279
H341	H	-0.469489	-0.539303	-0.405812
H342	H	-0.219489	-0.289303	-0.155812
H343	H	0.030511	-0.039303	0.094188
H344	H	0.280511	0.210697	0.344188
H345	H	-0.464840	-1.080499	-0.960568
H346	H	-0.214840	-0.830499	-0.710568
H347	H	0.035160	-0.580499	-0.460568
H348	H	0.285160	-0.330499	-0.210568
H349	H	-0.267441	-0.898609	-0.631871
H350	H	-0.017441	-0.648609	-0.381871
H351	H	0.232559	-0.398609	-0.131871
H352	H	0.482559	-0.148609	0.118129
N353	N	-0.471242	-1.086433	-1.103588
N354	N	-0.221242	-0.836433	-0.853588
N355	N	0.028758	-0.586433	-0.603588
N356	N	0.278758	-0.336433	-0.353588
H357	H	-0.461993	-1.077928	-1.155795
H358	H	-0.211993	-0.827928	-0.905795
H359	H	0.038007	-0.577928	-0.655795
H360	H	0.288007	-0.327928	-0.405795
H361	H	-0.521512	-1.073916	-1.088066
H362	H	-0.271512	-0.823916	-0.838066
H363	H	-0.021512	-0.573916	-0.588066
H364	H	0.228488	-0.323916	-0.338066
N365	N	-0.277132	-0.907661	-1.104974
N366	N	-0.027132	-0.657661	-0.854974
N367	N	0.222868	-0.407661	-0.604974
N368	N	0.472868	-0.157661	-0.354974
H369	H	-0.248984	-0.881723	-1.070739
H370	H	0.001016	-0.631723	-0.820739
H371	H	0.251016	-0.381723	-0.570739
H372	H	0.501016	-0.131723	-0.320739
H373	H	-0.303180	-0.872852	-1.132973
H374	H	-0.053180	-0.622852	-0.882973
H375	H	0.196820	-0.372852	-0.632973
H376	H	0.446820	-0.122852	-0.382973
N377	N	-0.449605	-1.066384	-0.620860
N378	N	-0.199605	-0.816384	-0.370860
N379	N	0.050395	-0.566384	-0.120860
N380	N	0.300395	-0.316384	0.129140
H381	H	-0.440144	-1.116479	-0.636037
H382	H	-0.190144	-0.866479	-0.386037
H383	H	0.059856	-0.616479	-0.136037
H384	H	0.309856	-0.366479	0.113963
H385	H	-0.498811	-1.052856	-0.631000
H386	H	-0.248811	-0.802856	-0.381000
H387	H	0.001189	-0.552856	-0.131000
H388	H	0.251189	-0.302856	0.119000
N389	N	-1.105327	-1.087265	-0.471732
N390	N	-0.855327	-0.837265	-0.221732
N391	N	-0.605327	-0.587265	0.028268
N392	N	-0.355327	-0.337265	0.278268
H393	H	-1.157390	-1.078601	-0.462314
H394	H	-0.907390	-0.828601	-0.212314
H395	H	-0.657390	-0.578601	0.037686
H396	H	-0.407390	-0.328601	0.287686
H397	H	-1.094899	-1.138320	-0.463287
H398	H	-0.844899	-0.888320	-0.213287
H399	H	-0.594899	-0.638320	0.036713
H400	H	-0.344899	-0.388320	0.286713
H401	H	-0.269998	-0.593435	-0.269648
H402	H	-0.019998	-0.343435	-0.019648
H403	H	0.230002	-0.093435	0.230352
H404	H	0.480002	0.156565	0.480352
N405	N	-0.442712	-0.722168	-0.442915
N406	N	-0.192712	-0.472168	-0.192915
N407	N	0.057288	-0.222168	0.057085
N408	N	0.307288	0.027832	0.307085
H409	H	-0.492885	-0.707803	-0.429328
H410	H	-0.242885	-0.457803	-0.179328
H411	H	0.007115	-0.207803	0.070672
H412	H	0.257115	0.042197	0.320672
H413	H	-0.438130	-0.774675	-0.438363
H414	H	-0.188130	-0.524675	-0.188363
H415	H	0.061870	-0.274675	0.061637
H416	H	0.311870	-0.024675	0.311637
N417	N	-0.953477	-0.914271	-0.284131
N418	N	-0.703477	-0.664271	-0.034131
N419	N	-0.453477	-0.414271	0.215869
N420	N	-0.203477	-0.164271	0.465869
H421	H	-0.987944	-0.885560	-0.252973
H422	H	-0.737944	-0.635560	-0.002973
H423	H	-0.487944	-0.385560	0.247027
H424	H	-0.237944	-0.135560	0.497027
H425	H	-0.920576	-0.881927	-0.312878
H426	H	-0.670576	-0.631927	-0.062878
H427	H	-0.420576	-0.381927	0.187122
H428	H	-0.170576	-0.131927	0.437122
H429	H	-0.451611	-0.248269	-0.451814
H430	H	-0.201611	0.001731	-0.201814
H431	H	0.048389	0.251731	0.048186
H432	H	0.298389	0.501731	0.298186
N433	N	-0.468437	-0.389947	-0.468704
N434	N	-0.218437	-0.139947	-0.218704
N435	N	0.031563	0.110053	0.031296
N436	N	0.281563	0.360053	0.281296
H437	H	-0.494337	-0.353362	-0.494681
H438	H	-0.244337	-0.103362	-0.244681
H439	H	0.005663	0.146638	0.005319
H440	H	0.255663	0.396638	0.255319
H441	H	-0.503356	-0.420138	-0.439820
H442	H	-0.253356	-0.170138	-0.189820
H443	H	-0.003356	0.079862	0.060180
H444	H	0.246644	0.329862	0.310180
H445	H	-0.764817	-0.892396	-0.260520
H446	H	-0.514817	-0.642396	-0.010520
H447	H	-0.264817	-0.392396	0.239480
H448	H	-0.014817	-0.142396	0.489480
N449	N	-0.443297	-1.060539	-0.773691
N450	N	-0.193297	-0.810539	-0.523691
N451	N	0.056703	-0.560539	-0.273691
N452	N	0.306703	-0.310539	-0.023691
H453	H	-0.474315	-1.089080	-0.739033
H454	H	-0.224315	-0.839080	-0.489033
H455	H	0.025685	-0.589080	-0.239033
H456	H	0.275685	-0.339080	0.010967
H457	H	-0.414753	-1.093043	-0.806728
H458	H	-0.164753	-0.843043	-0.556728
H459	H	0.085247	-0.593043	-0.306728
H460	H	0.335247	-0.343043	-0.056728
H461	H	-0.300818	-0.394131	-0.300563
H462	H	-0.050818	-0.144131	-0.050563
H463	H	0.199182	0.105869	0.199437
H464	H	0.449182	0.355869	0.449437
H465	H	-0.851061	-1.043140	-0.423965
H466	H	-0.601061	-0.793140	-0.173965
H467	H	-0.351061	-0.543140	0.076035
H468	H	-0.101061	-0.293140	0.326035
