data_functionalizedCrystal
_audit_creation_method	'MofGen! by Chris Wilmer'
_symmetry_space_group_name_H-M	'P1'
_symmetry_Int_Tables_number	1
_symmetry_cell_setting	triclinic
loop_
_symmetry_equiv_pos_as_xyz
  x,y,z
_cell_length_a	16.625547
_cell_length_b	16.625546
_cell_length_c	18.215385
_cell_angle_alpha	89.905583
_cell_angle_beta	89.930962
_cell_angle_gamma	90.022405
loop_
_atom_site_label
_atom_site_type_symbol
_atom_site_fract_x
_atom_site_fract_y
_atom_site_fract_z
Zn1	Zn	1.233033	-0.320492	-0.416191
Zn2	Zn	1.566366	0.012841	-0.082858
Zn3	Zn	1.899699	0.346175	0.250476
Zn4	Zn	1.232832	-0.455486	-0.293122
Zn5	Zn	1.566165	-0.122152	0.040212
Zn6	Zn	1.899498	0.211181	0.373545
Zn7	Zn	1.098090	-0.320671	-0.293129
Zn8	Zn	1.431424	0.012663	0.040204
Zn9	Zn	1.764757	0.345996	0.373537
Zn10	Zn	1.098165	-0.455286	-0.416138
Zn11	Zn	1.431498	-0.121953	-0.082805
Zn12	Zn	1.764831	0.211381	0.250528
O13	O	1.165530	-0.387984	-0.354645
O14	O	1.498863	-0.054650	-0.021312
O15	O	1.832197	0.278683	0.312022
O16	O	1.345838	-0.338408	-0.399885
O17	O	1.679172	-0.005074	-0.066551
O18	O	2.012505	0.328259	0.266782
O19	O	1.214843	-0.437760	-0.190138
O20	O	1.548176	-0.104427	0.143195
O21	O	1.881509	0.228906	0.476528
O22	O	1.116044	-0.207814	-0.309479
O23	O	1.449377	0.125519	0.023854
O24	O	1.782710	0.458852	0.357188
O25	O	1.345691	-0.437587	-0.309466
O26	O	1.679024	-0.104254	0.023867
O27	O	2.012357	0.229079	0.357201
O28	O	1.215185	-0.207683	-0.399892
O29	O	1.548518	0.125650	-0.066559
O30	O	1.881852	0.458984	0.266775
O31	O	1.115849	-0.338712	-0.190144
O32	O	1.449182	-0.005379	0.143190
O33	O	1.782515	0.327954	0.476523
O34	O	0.985268	-0.338519	-0.309428
O35	O	1.318601	-0.005186	0.023906
O36	O	1.651934	0.328148	0.357239
O37	O	1.116171	-0.437247	-0.519130
O38	O	1.449504	-0.103914	-0.185796
O39	O	1.782837	0.229420	0.147537
O40	O	0.985322	-0.437420	-0.399802
O41	O	1.318656	-0.104087	-0.066469
O42	O	1.651989	0.229246	0.266865
O43	O	1.215257	-0.338214	-0.519169
O44	O	1.548591	-0.004881	-0.185835
O45	O	1.881924	0.328452	0.147498
O46	O	1.214915	-0.568292	-0.309415
O47	O	1.548248	-0.234958	0.023918
O48	O	1.881582	0.098375	0.357252
O49	O	1.115976	-0.568145	-0.399795
O50	O	1.449309	-0.234812	-0.066461
O51	O	1.782642	0.098522	0.266872
C52	C	0.956039	-0.387968	-0.354610
C53	C	1.289372	-0.054635	-0.021277
C54	C	1.622706	0.278699	0.312056
C55	C	0.866418	-0.387981	-0.354613
C56	C	1.199751	-0.054647	-0.021280
C57	C	1.533085	0.278686	0.312054
C58	C	0.793635	-0.387982	-0.354622
C59	C	1.126969	-0.054649	-0.021289
C60	C	1.460302	0.278684	0.312045
C61	C	0.702327	-0.387986	-0.354640
C62	C	1.035660	-0.054653	-0.021307
C63	C	1.368994	0.278680	0.312026
C64	C	0.629551	-0.387994	-0.354659
C65	C	0.962884	-0.054660	-0.021326
C66	C	1.296217	0.278673	0.312008
C67	C	0.538236	-0.387999	-0.354677
C68	C	0.871570	-0.054666	-0.021343
C69	C	1.204903	0.278667	0.311990
C70	C	1.165454	-0.597474	-0.354614
C71	C	1.498787	-0.264141	-0.021281
C72	C	1.832120	0.069192	0.312052
C73	C	1.165495	-0.687096	-0.354626
C74	C	1.498828	-0.353762	-0.021292
C75	C	1.832161	-0.020429	0.312041
C76	C	1.165635	-1.015271	-0.354702
C77	C	1.498969	-0.681938	-0.021369
C78	C	1.832302	-0.348604	0.311964
C79	C	1.165594	-0.923963	-0.354683
C80	C	1.498927	-0.590629	-0.021350
C81	C	1.832260	-0.257296	0.311984
C82	C	1.165564	-0.851186	-0.354664
C83	C	1.498898	-0.517853	-0.021330
C84	C	1.832231	-0.184520	0.312003
C85	C	1.165524	-0.759872	-0.354645
C86	C	1.498857	-0.426539	-0.021312
C87	C	1.832191	-0.093205	0.312022
C88	C	1.375839	-0.388000	-0.354680
C89	C	1.709172	-0.054666	-0.021347
C90	C	2.042505	0.278667	0.311986
C91	C	1.465460	-0.388007	-0.354695
C92	C	1.798793	-0.054673	-0.021362
C93	C	2.132127	0.278660	0.311971
C94	C	1.165745	-0.387688	-0.546599
C95	C	1.499078	-0.054355	-0.213265
C96	C	1.832411	0.278978	0.120068
C97	C	1.165836	-0.387563	-0.628398
C98	C	1.499170	-0.054229	-0.295064
C99	C	1.832503	0.279104	0.038269
C100	C	1.165628	-0.177675	-0.354692
C101	C	1.498962	0.155659	-0.021359
C102	C	1.832295	0.488992	0.311975
C103	C	1.165670	-0.088053	-0.354712
C104	C	1.499004	0.245280	-0.021379
C105	C	1.832337	0.578613	0.311955
C106	C	1.165362	-0.388219	-0.163438
C107	C	1.498696	-0.054886	0.169895
C108	C	1.832029	0.278447	0.503228
C109	C	1.165427	-0.388118	-0.081640
C110	C	1.498760	-0.054785	0.251694
C111	C	1.832094	0.278549	0.585027
C112	C	1.113685	-0.336693	0.106516
C113	C	1.447018	-0.003360	0.439850
C114	C	1.780352	0.329973	0.773183
C115	C	1.113755	-0.336597	0.183375
C116	C	1.447089	-0.003264	0.516708
C117	C	1.780422	0.330070	0.850042
C118	C	1.217584	-0.438990	0.183441
C119	C	1.550917	-0.105656	0.516774
C120	C	1.884250	0.227677	0.850107
C121	C	1.217517	-0.439081	0.106584
C122	C	1.550850	-0.105748	0.439917
C123	C	1.884184	0.227586	0.773250
C124	C	1.165563	-0.387934	0.068123
C125	C	1.498896	-0.054601	0.401457
C126	C	1.832230	0.278733	0.734790
C127	C	1.165700	-0.387747	0.221839
C128	C	1.499034	-0.054413	0.555172
C129	C	1.832367	0.278920	0.888506
C130	C	1.165777	-0.387643	0.305173
C131	C	1.499110	-0.054309	0.638506
C132	C	1.832444	0.279024	0.971839
C133	C	1.165487	-0.388037	-0.015215
C134	C	1.498820	-0.054703	0.318118
C135	C	1.832154	0.278630	0.651451
H136	H	1.071384	-0.295043	0.075204
H137	H	1.404717	0.038290	0.408538
H138	H	1.738050	0.371623	0.741871
N139	N	1.270633	-0.491251	0.222728
N140	N	1.603966	-0.157917	0.556061
N141	N	1.937300	0.175416	0.889395
N142	N	1.265775	-0.565698	0.214336
N143	N	1.599108	-0.232365	0.547670
N144	N	1.932441	0.100969	0.881003
H145	H	1.303240	-0.602612	0.242082
H146	H	1.636573	-0.269279	0.575415
H147	H	1.969906	0.064055	0.908748
H148	H	1.071512	-0.294870	0.214631
H149	H	1.404846	0.038463	0.547964
H150	H	1.738179	0.371796	0.881298
H151	H	1.259767	-0.480808	0.075323
H152	H	1.593100	-0.147475	0.408657
H153	H	1.926433	0.185859	0.741990
