data_functionalizedCrystal
_audit_creation_method	'MofGen! by Chris Wilmer'
_symmetry_space_group_name_H-M	'P1'
_symmetry_Int_Tables_number	1
_symmetry_cell_setting	triclinic
loop_
_symmetry_equiv_pos_as_xyz
  x,y,z
_cell_length_a	19.077105
_cell_length_b	18.101397
_cell_length_c	19.076919
_cell_angle_alpha	92.268541
_cell_angle_beta	90.076224
_cell_angle_gamma	87.716700
loop_
_atom_site_label
_atom_site_type_symbol
_atom_site_fract_x
_atom_site_fract_y
_atom_site_fract_z
Zn1	Zn	1.058295	-0.358273	-0.440399
Zn2	Zn	1.558295	0.141727	0.059601
Zn3	Zn	1.062943	-0.477346	-0.322885
Zn4	Zn	1.562943	0.022654	0.177115
Zn5	Zn	0.945512	-0.348352	-0.318192
Zn6	Zn	1.445512	0.151648	0.181808
Zn7	Zn	0.940765	-0.476900	-0.435638
Zn8	Zn	1.440765	0.023100	0.064362
O9	O	1.001879	-0.415218	-0.379279
O10	O	1.501879	0.084782	0.120721
O11	O	1.157243	-0.378407	-0.428767
O12	O	1.657243	0.121593	0.071233
O13	O	1.051297	-0.456270	-0.223932
O14	O	1.551297	0.043730	0.276068
O15	O	0.960514	-0.246038	-0.334432
O16	O	1.460514	0.253962	0.165568
O17	O	1.160658	-0.465890	-0.342430
O18	O	1.660658	0.034110	0.157570
O19	O	1.043375	-0.253327	-0.424216
O20	O	1.543375	0.246673	0.075784
O21	O	0.965021	-0.361499	-0.220484
O22	O	1.465021	0.138501	0.279516
O23	O	0.846550	-0.361066	-0.329816
O24	O	1.346550	0.138934	0.170184
O25	O	0.952423	-0.465128	-0.534601
O26	O	1.452423	0.034872	-0.034601
O27	O	0.843062	-0.455509	-0.416102
O28	O	1.343062	0.044491	0.083898
O29	O	1.038772	-0.377974	-0.538098
O30	O	1.538772	0.122026	-0.038098
O31	O	1.046694	-0.580917	-0.337814
O32	O	1.546694	-0.080917	0.162186
O33	O	0.956930	-0.580589	-0.420653
O34	O	1.456930	-0.080589	0.079347
C35	C	0.819310	-0.407163	-0.371934
C36	C	1.319310	0.092837	0.128066
C37	C	0.741205	-0.403735	-0.368808
C38	C	1.241205	0.096265	0.131192
C39	C	0.702717	-0.451365	-0.412194
C40	C	1.202717	0.048635	0.087806
C41	C	0.629329	-0.448135	-0.409260
C42	C	1.129329	0.051865	0.090740
C43	C	0.594432	-0.397278	-0.362937
C44	C	1.094432	0.102722	0.137063
C45	C	0.632925	-0.349643	-0.319549
C46	C	1.132925	0.150357	0.180451
C47	C	0.706311	-0.352870	-0.322487
C48	C	1.206311	0.147130	0.177513
C49	C	0.375144	-0.382343	-0.349345
C50	C	0.875144	0.117657	0.150655
C51	C	0.301752	-0.379121	-0.346409
C52	C	0.801752	0.120879	0.153591
C53	C	0.298161	-0.477612	-0.436122
C54	C	0.798161	0.022388	0.063878
C55	C	0.371549	-0.480838	-0.439052
C56	C	0.871549	0.019162	0.060948
C57	C	0.410036	-0.433200	-0.395667
C58	C	0.910036	0.066800	0.104333
N59	N	0.519418	-0.393977	-0.359936
N60	N	1.019418	0.106023	0.140064
N61	N	0.485048	-0.436499	-0.398672
N62	N	0.985048	0.063501	0.101328
C63	C	1.001820	-0.607624	-0.379242
C64	C	1.501820	-0.107624	0.120758
C65	C	1.001858	-0.689940	-0.379253
C66	C	1.501858	-0.189940	0.120747
C67	C	1.001945	-0.989038	-0.379320
C68	C	1.501945	-0.489038	0.120680
C69	C	1.058277	-0.957876	-0.327049
C70	C	1.558277	-0.457876	0.172951
C71	C	1.058458	-0.872271	-0.327197
C72	C	1.558458	-0.372271	0.172803
C73	C	1.001902	-0.840652	-0.379286
C74	C	1.501902	-0.340652	0.120714
C75	C	1.018998	-0.875550	-0.454158
C76	C	1.518998	-0.375550	0.045842
C77	C	1.019429	-0.961201	-0.453878
C78	C	1.519429	-0.461201	0.046122
C79	C	0.928348	-0.953502	-0.357355
C80	C	1.428348	-0.453502	0.142645
C81	C	0.928782	-0.867801	-0.355717
C82	C	1.428782	-0.367801	0.144283
C83	C	1.001876	-0.756791	-0.379271
C84	C	1.501876	-0.256791	0.120729
C85	C	1.001972	-1.072899	-0.379340
C86	C	1.501972	-0.572899	0.120660
C87	C	1.185160	-0.423305	-0.386653
C88	C	1.685160	0.076695	0.113347
C89	C	1.263264	-0.426751	-0.389795
C90	C	1.763264	0.073249	0.110205
C91	C	0.994550	-0.422608	-0.562558
C92	C	1.494550	0.077392	-0.062558
C93	C	0.991426	-0.425757	-0.640661
C94	C	1.491426	0.074243	-0.140661
C95	C	1.001956	-0.222061	-0.379331
C96	C	1.501956	0.277939	0.120669
C97	C	1.001989	-0.139750	-0.379354
C98	C	1.501989	0.360250	0.120646
C99	C	1.034914	-0.381862	-0.679176
C100	C	1.534914	0.118138	-0.179176
C101	C	1.031971	-0.384818	-0.752562
C102	C	1.531971	0.115182	-0.252562
C103	C	0.985543	-0.431674	-0.787431
C104	C	1.485543	0.068326	-0.287431
C105	C	0.942051	-0.475570	-0.748911
C106	C	1.442051	0.024430	-0.248911
C107	C	0.944991	-0.472610	-0.675527
C108	C	1.444991	0.027390	-0.175527
C109	C	0.971926	-0.445389	-1.006712
C110	C	1.471926	0.054611	-0.506712
C111	C	0.968991	-0.448348	-1.080102
C112	C	1.468991	0.051652	-0.580102
C113	C	1.058911	-0.357594	-1.083747
C114	C	1.558911	0.142406	-0.583747
C115	C	1.061850	-0.354641	-1.010361
C116	C	1.561850	0.145359	-0.510361
C117	C	1.018355	-0.398535	-0.971847
C118	C	1.518355	0.101465	-0.471847
N119	N	0.982535	-0.434698	-0.862443
N120	N	1.482535	0.065302	-0.362443
N121	N	1.021359	-0.395507	-0.896837
N122	N	1.521359	0.104493	-0.396837
C123	C	1.009219	-0.407805	-0.196713
C124	C	1.509219	0.092195	0.303287
C125	C	1.012479	-0.404453	-0.118616
C126	C	1.512479	0.095547	0.381384
H127	H	0.399958	-0.522253	-0.476772
H128	H	0.899958	-0.022253	0.023228
H129	H	1.073136	-0.984166	-0.472138
H130	H	1.573136	-0.484166	0.027862
N131	N	0.918916	-0.498889	-1.117713
N132	N	1.418916	0.001111	-0.617713
H133	H	0.891807	-0.526246	-1.082180
H134	H	1.391807	-0.026246	-0.582180
H135	H	0.885194	-0.468537	-1.146863
H136	H	1.385194	0.031463	-0.646863
N137	N	0.595290	-0.294803	-0.269572
N138	N	1.095290	0.205197	0.230428
H139	H	0.542960	-0.299992	-0.274287
H140	H	1.042960	0.200008	0.225713
H141	H	0.610123	-0.304805	-0.219888
H142	H	1.110123	0.195195	0.280112
H143	H	0.737648	-0.314081	-0.287161
H144	H	1.237648	0.185919	0.212839
N145	N	0.264100	-0.324278	-0.296440
N146	N	0.764100	0.175722	0.203560
H147	H	0.276431	-0.272381	-0.307949
H148	H	0.776431	0.227619	0.192051
H149	H	0.211785	-0.329546	-0.301192
H150	H	0.711785	0.170454	0.198808
H151	H	0.597995	-0.486921	-0.444589
H152	H	1.097995	0.013079	0.055411
N153	N	1.111927	-0.304107	-0.972753
N154	N	1.611927	0.195893	-0.472753
H155	H	1.139031	-0.276747	-1.008289
H156	H	1.639031	0.223253	-0.508289
H157	H	1.084559	-0.267346	-0.941161
H158	H	1.584559	0.232654	-0.441161
H159	H	0.266817	-0.516395	-0.471444
H160	H	0.766817	-0.016395	0.028556
N161	N	0.911754	-0.837388	-0.282607
N162	N	1.411754	-0.337388	0.217393
H163	H	0.864712	-0.855117	-0.267700
H164	H	1.364712	-0.355117	0.232300
H165	H	0.949174	-0.855227	-0.249069
H166	H	1.449174	-0.355227	0.250931
H167	H	0.980034	-0.981971	-0.494328
H168	H	1.480034	-0.481971	0.005672
H169	H	0.406471	-0.343559	-0.314013
H170	H	0.906471	0.156441	0.185987
H171	H	0.904246	-0.513718	-0.777308
H172	H	1.404246	-0.013718	-0.277308
N173	N	1.044769	-0.981535	-0.253426
N174	N	1.544769	-0.481535	0.246574
H175	H	1.047017	-1.037336	-0.252618
H176	H	1.547017	-0.537336	0.247382
H177	H	1.081500	-0.960908	-0.220760
H178	H	1.581500	-0.460908	0.279240
H179	H	0.936520	-0.481142	-0.975363
H180	H	1.436520	0.018858	-0.475363
N181	N	1.044757	-0.840812	-0.253784
N182	N	1.544757	-0.340812	0.246216
H183	H	1.038544	-0.882558	-0.221035
H184	H	1.538544	-0.382558	0.278965
H185	H	1.085806	-0.810938	-0.237679
H186	H	1.585806	-0.310938	0.262321
N187	N	0.898085	-0.519959	-0.633990
N188	N	1.398085	-0.019959	-0.133990
H189	H	0.927844	-0.554310	-0.604682
H190	H	1.427844	-0.054310	-0.104682
H191	H	0.866759	-0.487148	-0.602282
H192	H	1.366759	0.012852	-0.102282
N193	N	0.870513	-0.838981	-0.402140
N194	N	1.370513	-0.338981	0.097860
H195	H	0.824221	-0.857312	-0.385746
H196	H	1.324221	-0.357312	0.114254
H197	H	0.868910	-0.783103	-0.399588
H198	H	1.368910	-0.283103	0.100412
N199	N	1.130181	-0.990174	-0.346396
N200	N	1.630181	-0.490174	0.153604
H201	H	1.126425	-1.024903	-0.388874
H202	H	1.626425	-0.524903	0.111126
H203	H	1.162019	-0.948912	-0.357434
H204	H	1.662019	-0.448912	0.142566
H205	H	0.886413	-0.973600	-0.395390
H206	H	1.386413	-0.473600	0.104610
N207	N	1.084996	-0.331333	-0.641568
N208	N	1.584996	0.168667	-0.141568
H209	H	1.073596	-0.278452	-0.653910
H210	H	1.573596	0.221548	-0.153910
H211	H	1.080238	-0.336185	-0.589248
H212	H	1.580238	0.163815	-0.089248
N213	N	0.740354	-0.506223	-0.462152
N214	N	1.240354	-0.006223	0.037848
H215	H	0.704833	-0.535905	-0.489192
H216	H	1.204833	-0.035905	0.010808
H217	H	0.769517	-0.478786	-0.495943
H218	H	1.269517	0.021214	0.004057
H219	H	1.094321	-0.321858	-1.115113
H220	H	1.594321	0.178142	-0.615113
H221	H	1.113036	-0.854663	-0.341966
H222	H	1.613036	-0.354663	0.158034
H223	H	0.979094	-0.855198	-0.494280
H224	H	1.479094	-0.355198	0.005720
H225	H	1.072086	-0.857073	-0.472665
H226	H	1.572086	-0.357073	0.027335
H227	H	1.067385	-0.349076	-0.783918
H228	H	1.567385	0.150924	-0.283918
N229	N	0.906989	-0.978258	-0.286077
N230	N	1.406989	-0.478258	0.213923
H231	H	0.859635	-0.954805	-0.273012
H232	H	1.359635	-0.454805	0.226988
H233	H	0.904197	-1.033896	-0.287486
H234	H	1.404197	-0.533896	0.212514
