data_functionalizedCrystal
_audit_creation_method	'MofGen! by Chris Wilmer'
_symmetry_space_group_name_H-M	'P1'
_symmetry_Int_Tables_number	1
_symmetry_cell_setting	triclinic
loop_
_symmetry_equiv_pos_as_xyz
  x,y,z
_cell_length_a	16.992697
_cell_length_b	9.730217
_cell_length_c	10.654541
_cell_angle_alpha	90.003041
_cell_angle_beta	92.423810
_cell_angle_gamma	90.005041
loop_
_atom_site_label
_atom_site_type_symbol
_atom_site_fract_x
_atom_site_fract_y
_atom_site_fract_z
O1	O	-1.041835	0.114090	0.266433
O2	O	-0.541835	0.614090	0.766433
O3	O	-0.813534	0.114137	0.263509
O4	O	-0.313534	0.614137	0.763509
O5	O	-0.932935	0.114104	0.082685
O6	O	-0.432935	0.614104	0.582685
O7	O	-0.922434	0.114123	0.447257
O8	O	-0.422434	0.614123	0.947257
O9	O	-0.932931	-0.114476	0.082683
O10	O	-0.432931	0.385524	0.582683
O11	O	-0.813530	-0.114444	0.263507
O12	O	-0.313530	0.385556	0.763507
O13	O	-1.041831	-0.114490	0.266431
O14	O	-0.541831	0.385510	0.766431
Zn15	Zn	-0.927680	-0.150759	0.264968
Zn16	Zn	-0.427680	0.349241	0.764968
Zn17	Zn	-0.927685	0.150405	0.264971
Zn18	Zn	-0.427685	0.650405	0.764971
O19	O	-0.922431	-0.114457	0.447255
O20	O	-0.422431	0.385543	0.947255
C21	C	-0.784299	-0.000148	0.259748
C22	C	-0.284299	0.499852	0.759748
C23	C	-0.697194	-0.000130	0.248528
C24	C	-0.197194	0.499870	0.748528
N25	N	-0.927683	-0.356295	0.264966
N26	N	-0.427683	0.143705	0.764966
C27	C	-0.647542	-0.000124	0.356779
C28	C	-0.147542	0.499876	0.856779
C29	C	-0.565698	-0.000142	0.346229
C30	C	-0.065698	0.499858	0.846229
C31	C	-0.533508	-0.000155	0.227428
C32	C	-0.033508	0.499845	0.727428
C33	C	-0.583167	-0.000165	0.119169
C34	C	-0.083167	0.499835	0.619169
C35	C	-0.665009	-0.000157	0.129720
C36	C	-0.165009	0.499843	0.629720
C37	C	-0.289673	-0.000188	0.183700
C38	C	0.210327	0.499812	0.683700
C39	C	-0.207824	-0.000191	0.173158
C40	C	0.292176	0.499809	0.673158
C41	C	-0.190361	-0.000171	0.400219
C42	C	0.309639	0.499829	0.900219
C43	C	-0.272205	-0.000155	0.410759
C44	C	0.227795	0.499845	0.910759
C45	C	-0.321857	-0.000172	0.302500
C46	C	0.178143	0.499828	0.802500
N47	N	-0.449850	-0.000169	0.216642
N48	N	0.050150	0.499831	0.716642
N49	N	-0.405513	-0.000168	0.313288
N50	N	0.094487	0.499832	0.813288
C51	C	-1.033455	-0.356315	0.104900
C52	C	-0.533455	0.143685	0.604900
C53	C	-1.086347	-0.428264	0.024871
C54	C	-0.586347	0.071736	0.524871
C55	C	-1.086355	-0.572144	0.024871
C56	C	-0.586355	-0.072144	0.524871
C57	C	-1.033464	-0.644078	0.104906
C58	C	-0.533464	-0.144078	0.604906
C59	C	-0.980573	-0.572128	0.184935
C60	C	-0.480573	-0.072128	0.684935
C61	C	-0.980572	-0.428245	0.184929
C62	C	-0.480572	0.071755	0.684929
C63	C	-0.874797	-0.572109	0.344993
C64	C	-0.374797	-0.072109	0.844993
C65	C	-0.874792	-0.428229	0.345001
C66	C	-0.374792	0.071771	0.845001
C67	C	-0.821906	-0.644042	0.425028
C68	C	-0.321906	-0.144042	0.925028
C69	C	-0.769017	-0.572092	0.505065
C70	C	-0.269017	-0.072092	1.005065
C71	C	-0.769012	-0.428204	0.505063
C72	C	-0.269012	0.071796	1.005063
C73	C	-0.821900	-0.356279	0.425030
C74	C	-0.321900	0.143721	0.925030
C75	C	-0.071066	-0.000196	0.270191
C76	C	0.428934	0.499804	0.770191
C77	C	-0.158172	-0.000186	0.281408
C78	C	0.341828	0.499814	0.781408
C79	C	-0.932162	-0.000185	0.035819
C80	C	-0.432162	0.499815	0.535819
C81	C	-0.929857	-0.000182	-0.103823
C82	C	-0.429857	0.499818	0.396177
N83	N	-0.927689	0.355942	0.264964
N84	N	-0.427689	0.855942	0.764964
C85	C	-1.072633	-0.000229	-0.119455
C86	C	-0.572633	0.499771	0.380545
C87	C	-1.142934	-0.000255	-0.192874
C88	C	-0.642934	0.499745	0.307126
C89	C	-1.140763	-0.000250	-0.324080
C90	C	-0.640763	0.499750	0.175920
C91	C	-1.068283	-0.000215	-0.381869
C92	C	-0.568283	0.499785	0.118131
C93	C	-0.997981	-0.000189	-0.308450
C94	C	-0.497981	0.499811	0.191550
C95	C	-1.000160	-0.000198	-0.177242
C96	C	-0.500160	0.499802	0.322758
C97	C	-0.855207	-0.000133	-0.292818
C98	C	-0.355207	0.499867	0.207182
C99	C	-0.857376	-0.000148	-0.161612
C100	C	-0.357376	0.499852	0.338388
C101	C	-0.782727	-0.000099	-0.350607
C102	C	-0.282727	0.499901	0.149393
C103	C	-0.712423	-0.000083	-0.277188
C104	C	-0.212423	0.499917	0.222812
C105	C	-0.714598	-0.000089	-0.145975
C106	C	-0.214598	0.499911	0.354025
C107	C	-0.787075	-0.000122	-0.088194
C108	C	-0.287075	0.499878	0.411806
C109	C	-0.923203	-0.000165	0.494120
C110	C	-0.423203	0.499835	0.994120
C111	C	-0.925509	-0.000159	0.633763
C112	C	-0.425509	0.499841	1.133763
H113	H	-0.673744	-0.000113	0.453520
H114	H	-0.173744	0.499887	0.953520
F115	F	-0.173568	-0.000229	0.046707
F116	F	0.326432	0.499771	0.546707
H117	H	-0.725938	-0.369630	0.570227
H118	H	-0.225938	0.130370	1.070227
H119	H	-1.033461	-0.239160	0.104903
H120	H	-0.533461	0.260840	0.604903
H121	H	-1.066521	-0.000194	-0.488704
H122	H	-0.566521	0.499806	0.011296
F123	F	-0.137513	-0.000156	0.515427
F124	F	0.362487	0.499844	1.015427
F125	F	-0.306458	-0.000133	0.537204
F126	F	0.193542	0.499867	1.037204
H127	H	-1.201946	-0.000295	-0.145808
H128	H	-0.701946	0.499705	0.354192
H129	H	-0.525274	-0.000136	0.434379
H130	H	-0.025274	0.499864	0.934379
H131	H	-0.330090	-0.000203	0.095548
H132	H	0.169910	0.499797	0.595548
F133	F	-0.548906	-0.000188	-0.007269
F134	F	-0.048906	0.499812	0.492731
F135	F	-0.717853	-0.000168	0.014504
F136	F	-0.217853	0.499832	0.514504
H137	H	-1.129409	-0.369684	-0.040295
H138	H	-0.629409	0.130316	0.459705
F139	F	-0.635293	-0.000031	-0.338699
F140	F	-0.135293	0.499969	0.161301
F141	F	-0.780418	-0.000023	-0.490248
F142	F	-0.280418	0.499977	0.009752
F143	F	-1.142645	-0.648719	-0.060311
F144	F	-0.642645	-0.148719	0.439689
H145	H	-1.033467	-0.761232	0.104890
H146	H	-0.533467	-0.261232	0.604890
F147	F	-0.712729	-0.648654	0.590227
F148	F	-0.212729	-0.148654	1.090227
H149	H	-0.788852	-0.000136	0.018640
H150	H	-0.288852	0.499864	0.518640
F151	F	-0.821902	-0.203149	0.425026
F152	F	-0.321902	0.296851	0.925026
F153	F	-0.821911	-0.797172	0.425022
F154	F	-0.321911	-0.297172	0.925022
F155	F	-1.074949	-0.000261	0.020185
F156	F	-0.574949	0.499739	0.520185
F157	F	-1.215585	-0.000266	-0.402220
F158	F	-0.715585	0.499734	0.097780
H159	H	-0.657349	-0.000062	-0.086204
H160	H	-0.157349	0.499938	0.413796
