data_functionalizedCrystal
_audit_creation_method	'MofGen! by Chris Wilmer'
_symmetry_space_group_name_H-M	'P1'
_symmetry_Int_Tables_number	1
_symmetry_cell_setting	triclinic
loop_
_symmetry_equiv_pos_as_xyz
  x,y,z
_cell_length_a	12.594516
_cell_length_b	19.805407
_cell_length_c	19.805399
_cell_angle_alpha	89.980427
_cell_angle_beta	89.979203
_cell_angle_gamma	90.016053
loop_
_atom_site_label
_atom_site_type_symbol
_atom_site_fract_x
_atom_site_fract_y
_atom_site_fract_z
Zn1	Zn	-0.423767	1.034784	-0.382752
Zn2	Zn	-0.601760	1.034720	-0.269577
Zn3	Zn	-0.423796	0.921599	-0.269576
Zn4	Zn	-0.601704	0.921583	-0.382723
O5	O	-0.512757	0.978172	-0.326157
O6	O	-0.447389	1.129492	-0.367751
O7	O	-0.578189	1.019694	-0.174860
O8	O	-0.274846	0.936647	-0.284601
O9	O	-0.578160	1.129445	-0.284602
O10	O	-0.274825	1.019804	-0.367750
O11	O	-0.447439	0.936584	-0.174860
O12	O	-0.447385	0.826880	-0.284573
O13	O	-0.578064	0.936620	-0.477444
O14	O	-0.578092	0.826869	-0.367702
O15	O	-0.447335	1.019788	-0.477464
O16	O	-0.750698	1.019678	-0.284574
O17	O	-0.750657	0.936557	-0.367703
C18	C	-0.512736	0.802316	-0.326135
C19	C	-0.512753	0.727084	-0.326142
C20	C	-0.789298	0.978127	-0.326150
C21	C	-0.907603	0.978170	-0.326170
C22	C	-0.580915	0.691751	-0.369357
C23	C	-0.580917	0.621063	-0.369366
C24	C	-0.512762	0.585708	-0.326157
C25	C	-0.444592	0.621045	-0.282940
C26	C	-0.444586	0.691733	-0.282934
C27	C	-0.444615	0.335972	-0.282962
C28	C	-0.444629	0.265280	-0.282970
C29	C	-0.580947	0.265302	-0.369394
C30	C	-0.580941	0.335989	-0.369389
C31	C	-0.512768	0.371321	-0.326175
C32	C	-0.512765	0.447969	-0.326166
C33	C	-0.512769	0.509061	-0.326162
C34	C	-0.976872	0.932956	-0.371352
C35	C	-1.047728	0.916467	-0.309590
C36	C	-1.047546	0.994721	-0.387943
C37	C	-0.976901	0.961649	-0.264375
C38	C	-0.976712	1.039931	-0.342770
C39	C	-1.047536	1.023465	-0.280965
C40	C	-0.235136	0.978235	-0.326178
C41	C	-0.116830	0.978261	-0.326188
C42	C	-0.512690	0.978209	-0.502700
C43	C	-0.512661	0.978226	-0.577932
C44	C	-0.512778	1.154714	-0.326179
C45	C	-0.512787	1.229946	-0.326189
C46	C	-0.444587	1.021533	-0.613288
C47	C	-0.444556	1.021539	-0.683976
C48	C	-0.512605	0.978242	-0.719307
C49	C	-0.580683	0.934931	-0.683947
C50	C	-0.580707	0.934921	-0.613259
C51	C	-0.580583	0.934969	-0.969020
C52	C	-0.580556	0.934984	-1.039712
C53	C	-0.444432	1.021588	-1.039737
C54	C	-0.444457	1.021578	-0.969050
C55	C	-0.512530	0.978264	-0.933695
C56	C	-0.512561	0.978256	-0.857046
C57	C	-0.512580	0.978253	-0.795955
C58	C	-0.512747	0.978173	-0.150301
C59	C	-0.512475	0.978288	-0.075069
H60	H	-0.636419	0.720532	-0.404541
O61	O	-0.646615	0.892923	-0.934578
C62	C	-0.632070	0.902204	-0.864611
H63	H	-0.549933	0.924386	-0.854964
H64	H	-0.695213	0.938232	-0.844553
C65	C	-0.742718	0.806468	-0.840157
C66	C	-0.641833	0.833706	-0.828308
H67	H	-0.748745	0.764216	-0.817763
H68	H	-0.752521	0.800216	-0.887295
H69	H	-0.795326	0.836498	-0.823442
H70	H	-0.589227	0.803680	-0.845031
H71	H	-0.632021	0.839951	-0.781172
O72	O	-0.378286	1.063537	-0.934660
C73	C	-0.309536	1.024999	-0.893791
H74	H	-0.347089	0.973701	-0.883185
H75	H	-0.230658	1.017573	-0.921048
C76	C	-0.244138	1.125237	-0.839683
C77	C	-0.290265	1.062233	-0.826651
H78	H	-0.232245	1.148205	-0.798269
H79	H	-0.290453	1.151201	-0.867219
H80	H	-0.178411	1.119039	-0.862398
H81	H	-0.355996	1.068431	-0.803944
H82	H	-0.243960	1.036271	-0.799110
O83	O	-0.940095	0.945030	-0.202001
C84	C	-0.976962	0.992501	-0.154426
H85	H	-0.997157	1.041788	-0.181245
H86	H	-1.050985	0.971960	-0.128397
C87	C	-0.865158	0.944991	-0.068448
C88	C	-0.889953	1.005527	-0.101388
H89	H	-0.811490	0.953024	-0.035730
H90	H	-0.840322	0.913007	-0.100500
H91	H	-0.926851	0.927880	-0.046763
H92	H	-0.828264	1.022633	-0.123079
H93	H	-0.914776	1.037515	-0.069339
H94	H	-0.636423	0.592298	-0.404556
H95	H	-0.389113	0.364730	-0.247769
O96	O	-0.646949	0.892840	-0.579017
C97	C	-0.706995	0.854619	-0.625357
H98	H	-0.710654	0.882345	-0.675753
H99	H	-0.668022	0.803218	-0.632863
C100	C	-0.815796	0.810794	-0.535864
C101	C	-0.820298	0.844851	-0.597759
H102	H	-0.885685	0.804765	-0.518840
H103	H	-0.775340	0.836542	-0.504643
H104	H	-0.783314	0.767964	-0.542127
H105	H	-0.852767	0.887683	-0.591494
H106	H	-0.860762	0.819110	-0.628979
H107	H	-1.078946	0.864280	-0.295564
H108	H	-0.389126	1.056806	-0.712760
O109	O	-0.378437	0.586777	-0.240873
C110	C	-0.401571	0.604005	-0.173386
H111	H	-0.442476	0.655323	-0.171934
H112	H	-0.456252	0.564205	-0.150534
C113	C	-0.247481	0.544235	-0.134282
C114	C	-0.297713	0.607267	-0.132498
H115	H	-0.183418	0.546244	-0.109059
H116	H	-0.231896	0.532625	-0.179749
H117	H	-0.293059	0.511075	-0.115240
H118	H	-0.252140	0.640424	-0.151548
H119	H	-0.313288	0.618882	-0.087033
O120	O	-0.939643	1.102206	-0.359576
C121	C	-1.025954	1.145805	-0.371952
H122	H	-1.098917	1.114739	-0.385928
H123	H	-1.043409	1.176602	-0.324614
C124	C	-0.908484	1.231945	-0.413372
C125	C	-0.998095	1.193791	-0.430544
H126	H	-0.891299	1.261548	-0.449512
H127	H	-0.850334	1.202574	-0.405032
H128	H	-0.923041	1.257604	-0.373922
H129	H	-0.983533	1.168127	-0.469987
H130	H	-1.056243	1.223159	-0.438892
H131	H	-0.636444	0.364771	-0.404572
H132	H	-1.078577	1.008682	-0.440176
H133	H	-0.389000	1.056853	-1.068531
H134	H	-0.636453	0.236527	-0.404584
H135	H	-0.389176	1.056792	-0.584526
O136	O	-0.378374	0.230857	-0.241087
C137	C	-0.309705	0.189998	-0.279698
H138	H	-0.347350	0.179433	-0.330955
H139	H	-0.230829	0.217243	-0.287212
C140	C	-0.244156	0.135811	-0.179531
C141	C	-0.290396	0.122830	-0.242484
H142	H	-0.232240	0.094380	-0.156575
H143	H	-0.290416	0.163340	-0.153517
H144	H	-0.178431	0.158517	-0.185802
H145	H	-0.356125	0.100133	-0.236212
H146	H	-0.244146	0.095296	-0.268496
O147	O	-0.646692	0.892855	-1.073929
C148	C	-0.706798	0.854633	-1.027568
H149	H	-0.663221	0.852291	-0.977182
H150	H	-0.787645	0.879394	-1.020047
C151	C	-0.775629	0.785475	-1.117031
C152	C	-0.722103	0.782593	-1.055148
H153	H	-0.785075	0.741038	-1.134044
H154	H	-0.735138	0.811227	-1.148266
H155	H	-0.842996	0.806112	-1.110755
H156	H	-0.654732	0.761965	-1.061425
H157	H	-0.762583	0.756836	-1.023914
O158	O	-0.378525	0.726133	-0.240920
C159	C	-0.439031	0.766983	-0.197126
H160	H	-0.519742	0.777569	-0.220911
H161	H	-0.450623	0.739719	-0.146955
C162	C	-0.281309	0.821130	-0.155718
C163	C	-0.380436	0.834137	-0.184934
H164	H	-0.245164	0.862553	-0.148194
H165	H	-0.240544	0.793608	-0.185221
H166	H	-0.290983	0.798409	-0.113912
H167	H	-0.370761	0.856850	-0.226742
H168	H	-0.421198	0.861666	-0.155438
H169	H	-1.078369	1.061740	-0.242720
H170	H	-0.945843	0.894652	-0.409505
H171	H	-0.636086	0.899675	-0.712719
