data_functionalizedCrystal
_audit_creation_method	'MofGen! by Chris Wilmer'
_symmetry_space_group_name_H-M	'P1'
_symmetry_Int_Tables_number	1
_symmetry_cell_setting	triclinic
loop_
_symmetry_equiv_pos_as_xyz
  x,y,z
_cell_length_a	16.625548
_cell_length_b	16.625545
_cell_length_c	11.169409
_cell_angle_alpha	89.963866
_cell_angle_beta	89.976847
_cell_angle_gamma	90.026626
loop_
_atom_site_label
_atom_site_type_symbol
_atom_site_fract_x
_atom_site_fract_y
_atom_site_fract_z
Zn1	Zn	1.232684	-0.320913	-0.678618
Zn2	Zn	1.482684	-0.070913	-0.428618
Zn3	Zn	1.732684	0.179087	-0.178618
Zn4	Zn	1.982684	0.429087	0.071382
Zn5	Zn	1.232574	-0.455775	-0.477921
Zn6	Zn	1.482574	-0.205775	-0.227921
Zn7	Zn	1.732574	0.044225	0.022079
Zn8	Zn	1.982574	0.294225	0.272079
Zn9	Zn	1.097839	-0.320963	-0.477940
Zn10	Zn	1.347839	-0.070963	-0.227940
Zn11	Zn	1.597839	0.179037	0.022060
Zn12	Zn	1.847839	0.429037	0.272060
Zn13	Zn	1.097809	-0.455710	-0.678554
Zn14	Zn	1.347809	-0.205710	-0.428554
Zn15	Zn	1.597809	0.044290	-0.178554
Zn16	Zn	1.847809	0.294290	0.071446
O17	O	1.165226	-0.388340	-0.578258
O18	O	1.415226	-0.138340	-0.328258
O19	O	1.665226	0.111660	-0.078258
O20	O	1.915226	0.361660	0.171742
O21	O	1.345502	-0.338810	-0.652013
O22	O	1.595502	-0.088810	-0.402013
O23	O	1.845502	0.161190	-0.152013
O24	O	2.095502	0.411190	0.097987
O25	O	1.214668	-0.437940	-0.309974
O26	O	1.464668	-0.187940	-0.059974
O27	O	1.714668	0.062060	0.190026
O28	O	1.964668	0.312060	0.440026
O29	O	1.115786	-0.208124	-0.504595
O30	O	1.365786	0.041876	-0.254595
O31	O	1.615786	0.291876	-0.004595
O32	O	1.865786	0.541876	0.245405
O33	O	1.345421	-0.437892	-0.504562
O34	O	1.595421	-0.187892	-0.254562
O35	O	1.845421	0.062108	-0.004562
O36	O	2.095421	0.312108	0.245438
O37	O	1.214855	-0.208087	-0.652032
O38	O	1.464855	0.041913	-0.402032
O39	O	1.714855	0.291913	-0.152032
O40	O	1.964855	0.541913	0.097968
O41	O	1.115679	-0.338894	-0.309988
O42	O	1.365679	-0.088894	-0.059988
O43	O	1.615679	0.161106	0.190012
O44	O	1.865679	0.411106	0.440012
O45	O	0.985003	-0.338831	-0.504534
O46	O	1.235003	-0.088831	-0.254534
O47	O	1.485003	0.161169	-0.004534
O48	O	1.735003	0.411169	0.245466
O49	O	1.115733	-0.437781	-0.846513
O50	O	1.365733	-0.187781	-0.596513
O51	O	1.615733	0.062219	-0.346513
O52	O	1.865733	0.312219	-0.096513
O53	O	0.984980	-0.437829	-0.651924
O54	O	1.234980	-0.187829	-0.401924
O55	O	1.484980	0.062171	-0.151924
O56	O	1.734980	0.312171	0.098076
O57	O	1.214826	-0.338746	-0.846559
O58	O	1.464826	-0.088746	-0.596559
O59	O	1.714826	0.161254	-0.346559
O60	O	1.964826	0.411254	-0.096559
O61	O	1.214638	-0.568599	-0.504501
O62	O	1.464638	-0.318599	-0.254501
O63	O	1.714638	-0.068599	-0.004501
O64	O	1.964638	0.181401	0.245499
O65	O	1.115627	-0.568551	-0.651906
O66	O	1.365627	-0.318551	-0.401906
O67	O	1.615627	-0.068551	-0.151906
O68	O	1.865627	0.181449	0.098094
C69	C	0.955736	-0.388329	-0.578225
C70	C	1.205736	-0.138329	-0.328225
C71	C	1.455736	0.111671	-0.078225
C72	C	1.705736	0.361671	0.171775
C73	C	0.866114	-0.388343	-0.578239
C74	C	1.116114	-0.138343	-0.328239
C75	C	1.366114	0.111657	-0.078239
C76	C	1.616114	0.361657	0.171761
C77	C	0.537939	-0.388349	-0.578290
C78	C	0.787939	-0.138349	-0.328290
C79	C	1.037939	0.111651	-0.078290
C80	C	1.287939	0.361651	0.171710
C81	C	0.629247	-0.388345	-0.578272
C82	C	0.879247	-0.138345	-0.328272
C83	C	1.129247	0.111655	-0.078272
C84	C	1.379247	0.361655	0.171728
C85	C	0.702024	-0.388346	-0.578264
C86	C	0.952024	-0.138346	-0.328264
C87	C	1.202024	0.111654	-0.078264
C88	C	1.452024	0.361654	0.171736
C89	C	0.793338	-0.388342	-0.578247
C90	C	1.043338	-0.138342	-0.328247
C91	C	1.293338	0.111658	-0.078247
C92	C	1.543338	0.361658	0.171753
C93	C	1.165139	-0.597831	-0.578221
C94	C	1.415139	-0.347831	-0.328221
C95	C	1.665139	-0.097831	-0.078221
C96	C	1.915139	0.152169	0.171779
C97	C	1.165175	-0.687452	-0.578245
C98	C	1.415175	-0.437452	-0.328245
C99	C	1.665175	-0.187452	-0.078245
C100	C	1.915175	0.062548	0.171755
C101	C	1.165206	-0.760235	-0.578268
C102	C	1.415206	-0.510235	-0.328268
C103	C	1.665206	-0.260235	-0.078268
C104	C	1.915206	-0.010235	0.171732
C105	C	1.165253	-0.851543	-0.578295
C106	C	1.415253	-0.601543	-0.328295
C107	C	1.665253	-0.351543	-0.078295
C108	C	1.915253	-0.101543	0.171705
C109	C	1.165295	-0.924320	-0.578310
C110	C	1.415295	-0.674320	-0.328310
C111	C	1.665295	-0.424320	-0.078310
C112	C	1.915295	-0.174320	0.171690
C113	C	1.165341	-1.015634	-0.578335
C114	C	1.415341	-0.765634	-0.328335
C115	C	1.665341	-0.515634	-0.078335
C116	C	1.915341	-0.265634	0.171665
C117	C	1.375535	-0.388353	-0.578293
C118	C	1.625535	-0.138353	-0.328293
C119	C	1.875535	0.111647	-0.078293
C120	C	2.125535	0.361647	0.171707
C121	C	1.465156	-0.388358	-0.578307
C122	C	1.715156	-0.138358	-0.328307
C123	C	1.965156	0.111642	-0.078307
C124	C	2.215156	0.361642	0.171693
C125	C	1.165288	-0.388251	-0.891301
C126	C	1.415288	-0.138251	-0.641301
C127	C	1.665288	0.111749	-0.391301
C128	C	1.915288	0.361749	-0.141301
C129	C	1.165315	-0.388213	-1.024701
C130	C	1.415315	-0.138213	-0.774701
C131	C	1.665315	0.111787	-0.524701
C132	C	1.915315	0.361787	-0.274701
C133	C	1.165336	-0.178032	-0.578323
C134	C	1.415336	0.071968	-0.328323
C135	C	1.665336	0.321968	-0.078323
C136	C	1.915336	0.571968	0.171677
C137	C	1.165383	-0.088410	-0.578350
C138	C	1.415383	0.161590	-0.328350
C139	C	1.665383	0.411590	-0.078350
C140	C	1.915383	0.661590	0.171650
C141	C	1.165211	-0.388371	-0.266434
C142	C	1.415211	-0.138371	-0.016434
C143	C	1.665211	0.111629	0.233566
C144	C	1.915211	0.361629	0.483566
C145	C	1.165341	-0.388182	-0.133034
C146	C	1.415341	-0.138182	0.116966
C147	C	1.665341	0.111818	0.366966
C148	C	1.915341	0.361818	0.616966
