data_functionalizedCrystal
_audit_creation_method	'MofGen! by Chris Wilmer'
_symmetry_space_group_name_H-M	'P1'
_symmetry_Int_Tables_number	1
_symmetry_cell_setting	triclinic
loop_
_symmetry_equiv_pos_as_xyz
  x,y,z
_cell_length_a	23.532361
_cell_length_b	23.532407
_cell_length_c	22.610064
_cell_angle_alpha	89.999397
_cell_angle_beta	89.996103
_cell_angle_gamma	82.839173
loop_
_atom_site_label
_atom_site_type_symbol
_atom_site_fract_x
_atom_site_fract_y
_atom_site_fract_z
O1	O	0.755281	0.069001	-0.049131
O2	O	0.589414	0.079032	-0.049146
O3	O	0.677349	-0.008916	-0.049127
O4	O	0.667345	0.156949	-0.049150
O5	O	0.677333	-0.008903	0.049242
O6	O	0.589398	0.079045	0.049223
O7	O	0.755265	0.069014	0.049238
Zn8	Zn	0.672329	0.074031	0.064849
Zn9	Zn	0.672350	0.074014	-0.064757
O10	O	0.667330	0.156962	0.049219
C11	C	0.568189	0.078787	0.000037
C12	C	0.504971	0.078032	0.000031
C13	C	0.231736	0.074721	-0.053586
C14	C	0.291135	0.075436	-0.053587
O15	O	0.321868	0.075780	-0.099189
N16	N	0.320832	0.075804	0.000034
C17	C	0.291128	0.075452	0.053660
O18	O	0.321842	0.075830	0.099269
C19	C	0.231730	0.074733	0.053661
C20	C	0.202035	0.074370	0.000036
C21	C	0.202041	0.074358	-0.107206
C22	C	0.142645	0.073644	-0.107204
C23	C	0.112944	0.073294	-0.053582
C24	C	0.142639	0.073657	0.000038
C25	C	0.202026	0.074376	0.107287
C26	C	0.142624	0.073656	0.107283
C27	C	0.112929	0.073294	0.053658
C28	C	0.053542	0.072592	0.053662
N29	N	0.023845	0.072224	0.000041
C30	C	0.053546	0.072575	-0.053581
C31	C	0.415868	0.076961	0.053654
C32	C	0.475264	0.077684	0.053654
C33	C	0.475268	0.077667	-0.053594
C34	C	0.415870	0.076948	-0.053593
C35	C	0.386171	0.076593	0.000033
C36	C	-0.071190	0.071076	-0.053573
C37	C	-0.130591	0.070365	-0.053567
C38	C	-0.130589	0.070378	0.053680
C39	C	-0.071193	0.071093	0.053674
C40	C	-0.041495	0.071440	0.000043
O41	O	0.022772	0.072245	0.099240
O42	O	0.022825	0.072189	-0.099182
C43	C	0.677086	-0.030126	0.000059
C44	C	0.676320	-0.093343	0.000063
C45	C	0.723555	-0.492454	0.000035
C46	C	0.722844	-0.551854	0.000030
O47	O	0.766630	-0.588606	0.000013
N48	N	0.670566	-0.574471	0.000026
C49	C	0.618997	-0.537685	0.000020
O50	O	0.574465	-0.562377	0.000016
C51	C	0.619709	-0.478286	0.000021
C52	C	0.671990	-0.455672	0.000031
C53	C	0.775832	-0.469839	0.000045
C54	C	0.776543	-0.410443	0.000050
C55	C	0.724977	-0.373662	0.000046
C56	C	0.672701	-0.396276	0.000037
C57	C	0.568140	-0.441501	0.000011
C58	C	0.568857	-0.382099	0.000011
C59	C	0.621137	-0.359485	0.000021
C60	C	0.621847	-0.300099	0.000038
N61	N	0.674124	-0.277481	0.000043
C62	C	0.725690	-0.314263	0.000047
C63	C	0.617505	-0.662427	0.000019
C64	C	0.616793	-0.721825	0.000023
C65	C	0.720640	-0.735990	0.000032
C66	C	0.721352	-0.676591	0.000032
C67	C	0.669783	-0.639810	0.000023
C68	C	0.727179	-0.189526	0.000059
C69	C	0.727886	-0.130124	0.000067
C70	C	0.624039	-0.115965	0.000055
C71	C	0.623332	-0.175361	0.000050
C72	C	0.674907	-0.212141	0.000050
O73	O	0.578083	-0.263312	0.000054
O74	O	0.770214	-0.289562	0.000043
C75	C	0.776489	0.069258	0.000054
C76	C	0.839708	0.070014	0.000055
C77	C	0.667592	0.178171	0.000032
C78	C	0.668358	0.241388	0.000023
N79	N	0.672319	0.074042	0.153301
N80	N	0.672364	0.073998	-0.153209
C81	C	0.711289	0.035077	0.561951
C82	C	0.711292	0.035073	0.623871
O83	O	0.744401	0.001951	0.655897
N84	N	0.672349	0.074002	0.654838
C85	C	0.633397	0.112935	0.623883
O86	O	0.600273	0.146047	0.655909
C87	C	0.633392	0.112936	0.561964
C88	C	0.672341	0.074007	0.531000
C89	C	0.750235	-0.003849	0.530986
C90	C	0.750232	-0.003844	0.469071
C91	C	0.711284	0.035087	0.438120
C92	C	0.672339	0.074013	0.469084
C93	C	0.594438	0.151865	0.531009
C94	C	0.594435	0.151863	0.469086
C95	C	0.633385	0.112934	0.438122
C96	C	0.633388	0.112948	0.376217
N97	N	0.672331	0.074018	0.345250
C98	C	0.711279	0.035088	0.376201
C99	C	0.633410	0.112929	0.753916
C100	C	0.633418	0.112932	0.815834
C101	C	0.711312	0.035068	0.815818
C102	C	0.711307	0.035069	0.753899
C103	C	0.672353	0.074000	0.722949
C104	C	0.711272	0.035102	0.246173
C105	C	0.711267	0.035112	0.184252
C106	C	0.633371	0.112973	0.184274
C107	C	0.633377	0.112965	0.246190
C108	C	0.672330	0.074024	0.277138
O109	O	0.600295	0.146051	0.344152
O110	O	0.744393	0.001976	0.344167
H111	H	0.770461	-0.111716	0.000077
C112	C	-0.163254	0.069964	-0.112558
C113	C	-0.148332	0.020594	-0.156787
C114	C	-0.180992	0.020193	-0.215776
C115	C	-0.228574	0.069161	-0.230535
C116	C	-0.243499	0.118535	-0.186305
C117	C	-0.210838	0.118936	-0.127316
H118	H	-0.113107	-0.015658	-0.145862
H119	H	-0.169944	-0.016357	-0.248518
H120	H	-0.252751	0.068864	-0.274202
H121	H	-0.278724	0.154787	-0.197230
H122	H	-0.221887	0.155486	-0.094574
C123	C	0.754112	-0.007714	0.150192
C124	C	0.797540	0.014312	0.107623
C125	C	0.840383	-0.028512	0.073565
C126	C	0.839796	-0.093363	0.082076
C127	C	0.796366	-0.115392	0.124647
C128	C	0.753524	-0.072567	0.158705
H129	H	0.797976	0.062321	0.101321
H130	H	0.872533	-0.012205	0.042051
H131	H	0.871511	-0.125064	0.056864
H132	H	0.795930	-0.163401	0.130949
H133	H	0.721374	-0.088875	0.190219
H134	H	0.575509	-0.632483	0.000016
H135	H	0.762627	-0.765949	0.000032
C136	C	0.507946	0.078047	-0.112581
C137	C	0.506536	0.028479	-0.156810
C138	C	0.539215	0.028859	-0.215793
C139	C	0.573304	0.078807	-0.230549
C140	C	0.574715	0.128379	-0.186320
C141	C	0.542036	0.127999	-0.127336
H142	H	0.481301	-0.008499	-0.145887
H143	H	0.538170	-0.007837	-0.248535
H144	H	0.597495	0.079089	-0.274213
H145	H	0.599950	0.165357	-0.197242
H146	H	0.543081	0.164695	-0.094595
H147	H	0.562713	0.183564	0.443890
H148	H	0.601662	0.144671	0.159064
H149	H	-0.154783	0.070095	0.097338
C150	C	0.565826	-0.200245	0.000042
C151	C	0.523076	-0.186244	0.051116
C152	C	0.465570	-0.211125	0.051101
C153	C	0.450815	-0.250005	0.000010
C154	C	0.493566	-0.264007	-0.051069
C155	C	0.551072	-0.239127	-0.051053
H156	H	0.533998	-0.157461	0.088940
H157	H	0.433923	-0.200759	0.088913
H158	H	0.408246	-0.268423	-0.000002
H159	H	0.482644	-0.292791	-0.088892
H160	H	0.582719	-0.249493	-0.088865
H161	H	-0.047016	0.071359	-0.097246
C162	C	0.793071	-0.046671	0.435013
C163	C	0.792480	-0.111520	0.443533
C164	C	0.835319	-0.154351	0.409479
C165	C	0.878749	-0.132334	0.366906
C166	C	0.879342	-0.067482	0.358384
C167	C	0.836503	-0.024651	0.392438
H168	H	0.760329	-0.127821	0.475049
H169	H	0.834879	-0.202359	0.415787
H170	H	0.910461	-0.164040	0.341697
H171	H	0.911493	-0.051181	0.326868
H172	H	0.836942	0.023357	0.386130
C173	C	0.783911	-0.229978	0.000064
C174	C	0.826830	-0.227650	0.051154
C175	C	0.883561	-0.268102	0.051163
C176	C	0.897373	-0.310883	0.000083
C177	C	0.854452	-0.313213	-0.051011
C178	C	0.797722	-0.272761	-0.051020
H179	H	0.816606	-0.195980	0.088970
H180	H	0.915333	-0.266377	0.088987
H181	H	0.939368	-0.340828	0.000090
H182	H	0.864676	-0.344883	-0.088827
H183	H	0.765949	-0.274486	-0.088843
C184	C	0.754148	-0.007756	0.719841
C185	C	0.753563	-0.072605	0.728362
C186	C	0.796405	-0.115433	0.694308
C187	C	0.839832	-0.093413	0.651734
C188	C	0.840418	-0.028560	0.643212
C189	C	0.797576	0.014268	0.677265
H190	H	0.721414	-0.088909	0.759880
H191	H	0.795970	-0.163442	0.700617
H192	H	0.871546	-0.125117	0.626525
H193	H	0.872567	-0.012256	0.611694
H194	H	0.798011	0.062276	0.670956
H195	H	0.574220	-0.740232	0.000024
H196	H	0.819115	-0.392037	0.000056
C197	C	0.507926	0.078087	0.112641
C198	C	0.555510	0.029119	0.127396
C199	C	0.588172	0.029518	0.186384
C200	C	0.573249	0.078885	0.230617
C201	C	0.525663	0.127857	0.215862
C202	C	0.493002	0.127458	0.156874
H203	H	0.566559	-0.007428	0.094651
H204	H	0.623398	-0.006734	0.197306
H205	H	0.597427	0.079180	0.274283
H206	H	0.514615	0.164405	0.248607
H207	H	0.457776	0.163710	0.145952
C208	C	0.590536	0.155790	0.280252
C209	C	0.547107	0.133760	0.322818
C210	C	0.504260	0.176582	0.356874
C211	C	0.504843	0.241433	0.348364
C212	C	0.548274	0.263465	0.305796
C213	C	0.591121	0.220644	0.271740
H214	H	0.546674	0.085751	0.329119
H215	H	0.472109	0.160272	0.388385
H216	H	0.473125	0.273132	0.373574
H217	H	0.548707	0.311475	0.299495
H218	H	0.623271	0.236954	0.240229
C219	C	0.754152	-0.007761	0.849873
C220	C	0.754149	-0.007760	0.917981
C221	C	0.796986	-0.050585	0.952038
C222	C	0.839827	-0.093412	0.917987
C223	C	0.839832	-0.093414	0.849875
C224	C	0.796995	-0.050589	0.815818
H225	H	0.722434	0.023944	0.943191
H226	H	0.796983	-0.050583	1.002459
H227	H	0.871538	-0.125114	0.943198
H228	H	0.871547	-0.125118	0.824665
H229	H	0.796999	-0.050591	0.765397
H230	H	0.817825	-0.499782	0.000046
H231	H	0.525567	-0.459902	-0.000001
C232	C	0.590578	0.155758	0.849891
C233	C	0.547738	0.198579	0.815838
C234	C	0.504894	0.241404	0.849893
C235	C	0.504889	0.241408	0.918001
C236	C	0.547730	0.198585	0.952058
C237	C	0.590575	0.155760	0.918003
H238	H	0.547740	0.198578	0.765417
H239	H	0.473180	0.273104	0.824681
H240	H	0.473173	0.273109	0.943210
H241	H	0.547729	0.198586	1.002479
H242	H	0.622289	0.124059	0.943215
C243	C	0.567320	-0.075497	0.000048
C244	C	0.553549	-0.032713	-0.051036
C245	C	0.496830	0.007757	-0.051048
C246	C	0.453882	0.005444	0.000023
C247	C	0.467651	-0.037342	0.051111
C248	C	0.524370	-0.077812	0.051123
H249	H	0.585344	-0.030999	-0.088845
H250	H	0.486638	0.039430	-0.088867
H251	H	0.411895	0.035402	0.000014
H252	H	0.435857	-0.039056	0.088920
H253	H	0.534563	-0.109485	0.088942
H254	H	0.118473	0.073347	-0.150871
H255	H	0.226217	0.074642	-0.150874
C256	C	0.383209	0.076544	-0.112581
C257	C	0.335622	0.125507	-0.127342
C258	C	0.302965	0.125102	-0.186332
C259	C	0.317896	0.075734	-0.230562
C260	C	0.365485	0.026767	-0.215801
C261	C	0.398142	0.027172	-0.156811
H262	H	0.324568	0.162056	-0.094600
H263	H	0.267736	0.161350	-0.197258
H264	H	0.293721	0.075433	-0.274230
H265	H	0.376540	-0.009782	-0.248544
H266	H	0.433371	-0.009076	-0.145885
C267	C	0.551589	0.194684	0.565062
C268	C	0.486745	0.194056	0.556548
C269	C	0.443893	0.236876	0.590600
C270	C	0.465885	0.280323	0.633166
C271	C	0.530732	0.280952	0.641681
C272	C	0.573584	0.238132	0.607629
H273	H	0.470463	0.161893	0.525036
H274	H	0.395889	0.236410	0.584296
H275	H	0.434163	0.312020	0.658373
H276	H	0.547015	0.313115	0.673193
H277	H	0.621588	0.238598	0.613933
H278	H	0.391689	0.076678	0.097326
H279	H	0.118445	0.073372	0.150953
C280	C	0.234674	0.074750	0.166282
C281	C	0.219748	0.124096	0.210537
C282	C	0.252391	0.124458	0.269539
C283	C	0.299961	0.075474	0.284286
C284	C	0.314889	0.026124	0.240030
C285	C	0.282246	0.025761	0.181028
H286	H	0.184532	0.160361	0.199622
H287	H	0.241340	0.160991	0.302301
H288	H	0.324125	0.075742	0.327963
H289	H	0.350105	-0.010141	0.250945
H290	H	0.293297	-0.010771	0.148266
C291	C	-0.038519	0.071516	0.112655
C292	C	-0.053438	0.120898	0.156870
C293	C	-0.020764	0.121324	0.215848
C294	C	0.026829	0.072368	0.230611
C295	C	0.041751	0.022982	0.186395
C296	C	0.009077	0.022556	0.127417
H297	H	-0.088672	0.157142	0.145942
H298	H	-0.031811	0.157884	0.248580
H299	H	0.051016	0.072683	0.274271
H300	H	0.076984	-0.013262	0.197323
H301	H	0.020123	-0.014004	0.094685
C302	C	0.778861	-0.651719	0.000038
C303	C	0.793644	-0.612836	-0.051042
C304	C	0.851156	-0.587968	-0.051038
C305	C	0.893885	-0.601983	0.000046
C306	C	0.879104	-0.640868	0.051130
C307	C	0.821592	-0.665736	0.051126
H308	H	0.762012	-0.602459	-0.088861
H309	H	0.862098	-0.559182	-0.088854
H310	H	0.936459	-0.583574	0.000049
H311	H	0.910735	-0.651244	0.088949
H312	H	0.810649	-0.694521	0.088942
H313	H	0.526862	-0.352154	0.000002
H314	H	0.742989	0.003392	0.271365
H315	H	0.781951	-0.035554	0.556182
H316	H	0.601691	0.144636	0.728720
