data_functionalizedCrystal
_audit_creation_method	'MofGen! by Chris Wilmer'
_symmetry_space_group_name_H-M	'P1'
_symmetry_Int_Tables_number	1
_symmetry_cell_setting	triclinic
loop_
_symmetry_equiv_pos_as_xyz
  x,y,z
_cell_length_a	17.077404
_cell_length_b	25.639240
_cell_length_c	17.077396
_cell_angle_alpha	90.038257
_cell_angle_beta	90.018362
_cell_angle_gamma	90.030728
loop_
_atom_site_label
_atom_site_type_symbol
_atom_site_fract_x
_atom_site_fract_y
_atom_site_fract_z
Zn1	Zn	1.200001	-0.208179	0.443765
Zn2	Zn	1.700001	0.291821	0.943765
Zn3	Zn	1.199885	-0.295617	0.312477
Zn4	Zn	1.699885	0.204383	0.812477
Zn5	Zn	1.068733	-0.208194	0.312516
Zn6	Zn	1.568733	0.291806	0.812516
Zn7	Zn	1.068678	-0.295582	0.443703
Zn8	Zn	1.568678	0.204418	0.943703
O9	O	1.134324	-0.251893	0.378115
O10	O	1.634324	0.248107	0.878115
O11	O	1.309832	-0.219786	0.426360
O12	O	1.809832	0.280214	0.926360
O13	O	1.182462	-0.284041	0.202635
O14	O	1.682462	0.215959	0.702635
O15	O	1.086217	-0.135027	0.329969
O16	O	1.586217	0.364973	0.829969
O17	O	1.309747	-0.284026	0.329902
O18	O	1.809747	0.215974	0.829902
O19	O	1.182659	-0.135016	0.426397
O20	O	1.682659	0.364984	0.926397
O21	O	1.086105	-0.219811	0.202664
O22	O	1.586105	0.280189	0.702664
O23	O	0.958878	-0.219778	0.329909
O24	O	1.458878	0.280222	0.829909
O25	O	1.086124	-0.283967	0.553559
O26	O	1.586124	0.216033	1.053559
O27	O	0.958838	-0.283982	0.426291
O28	O	1.458838	0.216018	0.926291
O29	O	1.182606	-0.219753	0.553604
O30	O	1.682606	0.280247	1.053604
O31	O	1.182409	-0.368777	0.329842
O32	O	1.682409	0.131223	0.829842
O33	O	1.086012	-0.368752	0.426254
O34	O	1.586012	0.131248	0.926254
C35	C	0.930376	-0.251878	0.378098
C36	C	1.430376	0.248122	0.878098
C37	C	0.843126	-0.251884	0.378109
C38	C	1.343126	0.248116	0.878109
C39	C	0.802181	-0.218494	0.428411
C40	C	1.302181	0.281506	0.928411
C41	C	0.720201	-0.218498	0.428414
C42	C	1.220201	0.281502	0.928414
C43	C	0.679167	-0.251894	0.378120
C44	C	1.179167	0.248106	0.878120
C45	C	0.720118	-0.285286	0.327812
C46	C	1.220118	0.214714	0.827812
C47	C	0.802097	-0.285280	0.327805
C48	C	1.302097	0.214720	0.827805
C49	C	0.549248	-0.285298	0.327832
C50	C	1.049248	0.214702	0.827832
C51	C	0.467263	-0.285305	0.327840
C52	C	0.967263	0.214695	0.827840
C53	C	0.467352	-0.218516	0.428441
C54	C	0.967352	0.281484	0.928441
C55	C	0.549331	-0.218509	0.428434
C56	C	1.049331	0.281491	0.928434
C57	C	0.590276	-0.251902	0.378127
C58	C	1.090276	0.248098	0.878127
C59	C	1.134213	-0.387736	0.378054
C60	C	1.634213	0.112264	0.878054
C61	C	1.134238	-0.445850	0.378054
C62	C	1.634238	0.054150	0.878054
C63	C	1.184566	-0.806168	0.428416
C64	C	1.684566	-0.306168	0.928416
C65	C	1.184590	-0.860773	0.428432
C66	C	1.684590	-0.360773	0.928432
O67	O	1.227249	-0.888972	0.471189
O68	O	1.727249	-0.388972	0.971189
N69	N	1.134433	-0.888132	0.378191
N70	N	1.634433	-0.388132	0.878191
C71	C	1.084244	-0.860884	0.327937
C72	C	1.584244	-0.360884	0.827937
O73	O	1.041584	-0.889169	0.285205
O74	O	1.541584	-0.389169	0.785205
C75	C	1.084218	-0.806281	0.327925
C76	C	1.584218	-0.306281	0.827925
C77	C	1.134383	-0.778924	0.378164
C78	C	1.634383	-0.278924	0.878164
C79	C	1.234727	-0.778812	0.478651
C80	C	1.734727	-0.278812	0.978651
C81	C	1.234705	-0.724211	0.478634
C82	C	1.734705	-0.224211	0.978634
C83	C	1.184522	-0.696967	0.428382
C84	C	1.684522	-0.196967	0.928382
C85	C	1.134361	-0.724324	0.378147
C86	C	1.634361	-0.224324	0.878147
C87	C	1.034026	-0.779034	0.277675
C88	C	1.534026	-0.279034	0.777675
C89	C	1.034003	-0.724427	0.277669
C90	C	1.534003	-0.224427	0.777669
C91	C	1.084169	-0.697071	0.327907
C92	C	1.584169	-0.197071	0.827907
C93	C	1.084156	-0.642479	0.327877
C94	C	1.584156	-0.142479	0.827877
N95	N	1.134312	-0.615120	0.378118
N96	N	1.634312	-0.115120	0.878118
C97	C	1.184495	-0.642364	0.428371
C98	C	1.684495	-0.142364	0.928371
C99	C	1.084303	-0.975555	0.327966
C100	C	1.584303	-0.475555	0.827966
C101	C	1.084333	-1.030157	0.327972
C102	C	1.584333	-0.530157	0.827972
C103	C	1.184677	-1.030042	0.428469
C104	C	1.684677	-0.530042	0.928469
C105	C	1.184651	-0.975439	0.428458
C106	C	1.684651	-0.475439	0.928458
C107	C	1.134460	-0.948196	0.378206
C108	C	1.634460	-0.448196	0.878206
C109	C	1.184445	-0.527699	0.428330
C110	C	1.684445	-0.027699	0.928330
C111	C	1.184421	-0.473094	0.428306
C112	C	1.684421	0.026906	0.928306
C113	C	1.084074	-0.473214	0.327813
C114	C	1.584074	0.026786	0.827813
C115	C	1.084101	-0.527814	0.327833
C116	C	1.584101	-0.027814	0.827833
C117	C	1.134289	-0.555056	0.378099
C118	C	1.634289	-0.055056	0.878099
O119	O	1.041516	-0.614245	0.285145
O120	O	1.541516	-0.114245	0.785145
O121	O	1.227141	-0.614072	0.471102
O122	O	1.727141	-0.114072	0.971102
C123	C	1.339068	-0.251908	0.378134
C124	C	1.839068	0.248092	0.878134
C125	C	1.426318	-0.251915	0.378141
C126	C	1.926318	0.248085	0.878141
C127	C	1.134372	-0.251855	0.582860
C128	C	1.634372	0.248145	1.082860
C129	C	1.134392	-0.251838	0.670110
C130	C	1.634392	0.248162	1.170110
C131	C	1.134457	-0.115520	0.378194
C132	C	1.634457	0.384480	0.878194
C133	C	1.134513	-0.057406	0.378228
C134	C	1.634513	0.442594	0.878228
C135	C	1.134322	-0.251894	0.174168
C136	C	1.634322	0.248106	0.674168
C137	C	1.134454	-0.251763	0.086918
C138	C	1.634454	0.248237	0.586918
C139	C	1.184632	-0.218399	0.711125
C140	C	1.684632	0.281601	1.211125
C141	C	1.184641	-0.218381	0.793105
C142	C	1.684641	0.281619	1.293105
C143	C	1.134414	-0.251806	0.834069
C144	C	1.634414	0.248194	1.334069
C145	C	1.084168	-0.285247	0.793048
C146	C	1.584168	0.214753	1.293048
C147	C	1.084156	-0.285262	0.711069
C148	C	1.584156	0.214738	1.211069
C149	C	1.084200	-0.285216	0.963918
C150	C	1.584200	0.214784	1.463918
C151	C	1.084214	-0.285202	1.045903
C152	C	1.584214	0.214798	1.545903
C153	C	1.184686	-0.218335	1.045955
C154	C	1.684686	0.281665	1.545955
C155	C	1.184673	-0.218350	0.963976
C156	C	1.684673	0.281650	1.463976
C157	C	1.134428	-0.251792	0.922960
C158	C	1.634428	0.248208	1.422960
H159	H	0.433856	-0.312500	0.286886
H160	H	0.933856	0.187500	0.786886
Br161	Br	0.857862	-0.173171	0.496678
Br162	Br	1.357862	0.326829	0.996678
H163	H	1.043312	-0.312419	1.079254
H164	H	1.543312	0.187581	1.579254
H165	H	1.043217	-0.451023	0.286895
H166	H	1.543217	0.048977	0.786895
Br167	Br	0.604816	-0.330620	0.259562
Br168	Br	1.104816	0.169380	0.759562
H169	H	1.043273	-0.312439	0.930526
H170	H	1.543273	0.187561	1.430526
Br171	Br	1.015965	-0.330642	0.655405
Br172	Br	1.515965	0.169358	1.155405
Br173	Br	0.664635	-0.173180	0.496685
Br174	Br	1.164635	0.326820	0.996685
Br175	Br	1.252879	-0.172952	1.101617
Br176	Br	1.752879	0.327048	1.601617
Br177	Br	0.664430	-0.330607	0.259548
Br178	Br	1.164430	0.169393	0.759548
H179	H	1.043270	-0.312460	0.826407
H180	H	1.543270	0.187540	1.326407
H181	H	0.582738	-0.191318	0.469393
H182	H	1.082738	0.308682	0.969393
Br183	Br	0.965938	-0.816147	0.209492
Br184	Br	1.465938	-0.316147	0.709492
Br185	Br	0.857667	-0.330596	0.259534
Br186	Br	1.357667	0.169404	0.759534
Br187	Br	1.016184	-0.938587	0.259757
Br188	Br	1.516184	-0.438587	0.759757
H189	H	0.993129	-0.702248	0.236749
H190	H	1.493129	-0.202248	0.736749
H191	H	0.434010	-0.191325	0.469401
H192	H	0.934010	0.308675	0.969401
Br193	Br	1.252559	-0.564661	0.496546
Br194	Br	1.752559	-0.064661	0.996546
Br195	Br	1.252510	-0.435970	0.496489
Br196	Br	1.752510	0.064030	0.996489
Br197	Br	1.302785	-0.687093	0.546824
Br198	Br	1.802785	-0.187093	1.046824
Br199	Br	1.252735	-0.938318	0.496641
Br200	Br	1.752735	-0.438318	0.996641
H201	H	1.225535	-0.191182	0.677778
H202	H	1.725535	0.308818	1.177778
Br203	Br	1.302838	-0.815776	0.546865
Br204	Br	1.802838	-0.315776	1.046865
H205	H	1.225538	-1.052234	0.469389
H206	H	1.725538	-0.552234	0.969389
H207	H	1.043491	-1.052426	0.287055
H208	H	1.543491	-0.552426	0.787055
H209	H	1.225554	-0.191153	0.826496
H210	H	1.725554	0.308847	1.326496
H211	H	1.225577	-0.191135	0.930625
H212	H	1.725577	0.308865	1.430625
Br213	Br	1.016031	-0.564942	0.259640
Br214	Br	1.516031	-0.064942	0.759640
