data_functionalizedCrystal
_audit_creation_method	'MofGen! by Chris Wilmer'
_symmetry_space_group_name_H-M	'P1'
_symmetry_Int_Tables_number	1
_symmetry_cell_setting	triclinic
loop_
_symmetry_equiv_pos_as_xyz
  x,y,z
_cell_length_a	12.759401
_cell_length_b	13.031981
_cell_length_c	12.759393
_cell_angle_alpha	97.216957
_cell_angle_beta	90.017138
_cell_angle_gamma	97.191023
loop_
_atom_site_label
_atom_site_type_symbol
_atom_site_fract_x
_atom_site_fract_y
_atom_site_fract_z
Zn1	Zn	1.553127	-0.416091	0.540802
Zn2	Zn	1.530711	-0.590903	0.342779
Zn3	Zn	1.377427	-0.416139	0.365135
Zn4	Zn	1.355113	-0.590822	0.518430
O5	O	1.454095	-0.503489	0.441786
O6	O	1.697173	-0.439294	0.514540
O7	O	1.510335	-0.567774	0.198716
O8	O	1.419454	-0.269868	0.407156
O9	O	1.680704	-0.567728	0.369053
O10	O	1.548540	-0.269832	0.536218
O11	O	1.397718	-0.439376	0.215141
O12	O	1.227448	-0.439298	0.385463
O13	O	1.381423	-0.567590	0.668426
O14	O	1.211054	-0.567637	0.498089
O15	O	1.526903	-0.439215	0.684862
O16	O	1.488698	-0.737158	0.347361
O17	O	1.359687	-0.737098	0.476411
C18	C	1.181130	-0.503464	0.441775
C19	C	1.064352	-0.503479	0.441792
C20	C	1.018042	-0.436730	0.517635
C21	C	0.908315	-0.436750	0.517639
C22	C	0.891217	-0.570277	0.365953
C23	C	1.000942	-0.570251	0.365945
C24	C	1.027913	-0.359642	0.605212
C25	C	0.918186	-0.359662	0.605216
C26	C	1.419367	-0.775053	0.407055
C27	C	1.404607	-0.891229	0.392232
C28	C	1.461854	-0.942923	0.449544
C29	C	1.446600	-1.062997	0.434225
C30	C	1.728125	-0.503514	0.441798
C31	C	1.844900	-0.503525	0.441804
C32	C	1.454174	-0.503388	0.715833
C33	C	1.454208	-0.503345	0.832615
C34	C	1.488986	-0.230865	0.476676
C35	C	1.503855	-0.114688	0.491544
C36	C	1.454085	-0.503514	0.168816
C37	C	1.454293	-0.503262	0.052072
C38	C	1.512907	-0.570130	0.988655
C39	C	1.512862	-0.570175	0.878925
C40	C	1.395587	-0.436474	0.896040
C41	C	1.395626	-0.436436	1.005767
C42	C	1.580619	-0.647318	0.978773
C43	C	1.580574	-0.647362	0.869043
H44	H	0.893965	-0.282731	0.586049
H45	H	0.885658	-0.381446	0.683768
H46	H	1.038644	-0.624595	0.304178
C47	C	1.542276	-0.883604	0.530191
C48	C	1.592114	-0.954565	0.580117
C49	C	1.666193	-0.899962	0.654430
H50	H	1.593544	-0.840999	0.495562
H51	H	1.507445	-0.841043	0.581379
H52	H	1.626945	-0.997108	0.528936
H53	H	1.540874	-0.997172	0.614767
H54	H	1.631362	-0.857401	0.705618
H55	H	1.717454	-0.857359	0.619792
H56	H	1.700010	-0.948101	0.688320
H57	H	1.058264	-0.388725	0.678733
C58	C	1.366103	-1.122632	0.353826
C59	C	1.290838	-1.185335	0.405313
C60	C	1.216677	-1.240296	0.331285
H61	H	1.332049	-1.074749	0.319816
H62	H	1.400908	-1.165283	0.302698
H63	H	1.256035	-1.142688	0.456422
H64	H	1.324859	-1.233238	0.439317
H65	H	1.251482	-1.282947	0.280157
H66	H	1.182632	-1.192405	0.297280
H67	H	1.165606	-1.282853	0.366207
C68	C	1.324114	-0.950868	0.311837
C69	C	1.248849	-1.013571	0.363325
C70	C	1.174688	-1.068532	0.289296
H71	H	1.290061	-0.902985	0.277828
H72	H	1.358920	-0.993519	0.260709
H73	H	1.214047	-0.970924	0.414434
H74	H	1.282871	-1.061474	0.397329
H75	H	1.209494	-1.111183	0.238169
H76	H	1.140643	-1.020641	0.255292
H77	H	1.123618	-1.111089	0.324218
C78	C	1.081460	-0.251628	0.590353
C79	C	1.147405	-0.212306	0.677687
C80	C	1.196737	-0.112805	0.664040
H81	H	1.122328	-0.255817	0.528100
H82	H	1.029315	-0.206608	0.584124
H83	H	1.199543	-0.257315	0.683904
H84	H	1.106563	-0.208091	0.739951
H85	H	1.144593	-0.067785	0.657811
H86	H	1.237599	-0.117005	0.601785
H87	H	1.241479	-0.086109	0.723297
H88	H	1.564160	-1.070056	0.551960
C89	C	0.822185	-0.642736	0.283733
C90	C	0.716177	-0.628490	0.299984
C91	C	0.652556	-0.695233	0.224272
H92	H	0.841970	-0.627418	0.215082
H93	H	0.831141	-0.713001	0.290015
H94	H	0.707227	-0.558241	0.293692
H95	H	0.696360	-0.643815	0.368619
H96	H	0.661512	-0.765498	0.230554
H97	H	0.672350	-0.679909	0.155627
H98	H	0.580622	-0.685583	0.235294
H99	H	1.347884	-0.381997	1.057397
H100	H	1.347822	-0.382067	0.858325
C101	C	1.537682	-0.755292	1.004461
C102	C	1.511379	-0.821379	0.910476
C103	C	1.471811	-0.920844	0.934099
H104	H	1.589873	-0.782314	1.042338
H105	H	1.476475	-0.750913	1.046352
H106	H	1.572579	-0.825761	0.868601
H107	H	1.459181	-0.794390	0.872586
H108	H	1.410604	-0.916465	0.975991
H109	H	1.524006	-0.947856	0.971977
H110	H	1.453950	-0.965694	0.870336
H111	H	1.661634	-0.618316	1.016516
H112	H	1.541599	-0.724282	0.825169
H113	H	1.664706	-0.625691	0.842036
