data_functionalizedCrystal
_audit_creation_method	'MofGen! by Chris Wilmer'
_symmetry_space_group_name_H-M	'P1'
_symmetry_Int_Tables_number	1
_symmetry_cell_setting	triclinic
loop_
_symmetry_equiv_pos_as_xyz
  x,y,z
_cell_length_a	19.188930
_cell_length_b	10.654550
_cell_length_c	9.730223
_cell_angle_alpha	90.000043
_cell_angle_beta	89.990488
_cell_angle_gamma	96.185144
loop_
_atom_site_label
_atom_site_type_symbol
_atom_site_fract_x
_atom_site_fract_y
_atom_site_fract_z
O1	O	0.098062	-1.665764	-0.114205
O2	O	0.107404	-1.300088	-0.114232
O3	O	0.001147	-1.493479	-0.114191
O4	O	0.204320	-1.472373	-0.114246
O5	O	0.001144	-1.493466	0.114389
O6	O	0.107402	-1.300076	0.114348
O7	O	0.098059	-1.665752	0.114375
Zn8	Zn	0.102730	-1.482912	0.150654
Zn9	Zn	0.102734	-1.482928	-0.150510
O10	O	0.204317	-1.472361	0.114334
C11	C	0.106717	-1.253298	0.000055
C12	C	0.104665	-1.113898	0.000046
C13	C	-0.024870	-1.492789	0.000103
C14	C	-0.102388	-1.490737	0.000115
N15	N	0.102727	-1.482910	0.356190
C16	C	-0.146570	-1.604213	0.000130
C17	C	-0.219407	-1.602285	0.000108
C18	C	-0.248058	-1.486876	0.000098
C19	C	-0.203866	-1.373386	0.000076
C20	C	-0.131032	-1.375316	0.000084
N21	N	-0.356641	-1.398655	0.077882
N22	N	-0.425831	-1.396829	0.077877
C23	C	-0.467505	-1.481052	0.000070
N24	N	-0.437375	-1.567189	-0.077714
N25	N	-0.368178	-1.569019	-0.077703
C26	C	-0.327034	-1.484770	0.000088
C27	C	-0.590665	-1.592445	0.000059
C28	C	-0.663502	-1.590513	0.000028
C29	C	-0.647960	-1.361610	0.000010
C30	C	-0.575124	-1.363545	0.000027
C31	C	-0.546481	-1.478966	0.000058
C32	C	0.230334	-1.473051	0.000037
C33	C	0.307852	-1.475102	0.000017
C34	C	0.098746	-1.712541	0.000085
C35	C	0.100799	-1.851941	0.000085
C36	C	0.167228	-1.033089	0.000033
C37	C	0.165295	-0.902109	0.000058
C38	C	0.038231	-0.932761	0.000103
C39	C	0.040164	-1.063738	0.000088
N40	N	0.102731	-1.482940	-0.356047
C41	C	0.055696	-1.568572	0.428134
C42	C	0.055696	-1.568584	0.572017
C43	C	0.149764	-1.397269	0.571999
C44	C	0.149760	-1.397251	0.428119
H45	H	-0.255386	-1.694693	0.000114
C46	C	0.201499	-1.303021	0.348975
H47	H	0.229517	-1.252021	0.412418
H48	H	0.176110	-1.250886	0.292866
H49	H	0.230796	-1.348033	0.292829
C50	C	0.003963	-1.662789	0.349010
H51	H	0.010700	-1.650523	0.253015
H52	H	-0.042706	-1.649425	0.372609
H53	H	0.011989	-1.746556	0.372581
H54	H	0.216240	-0.836318	0.000050
C55	C	0.003965	-1.662818	0.651150
H56	H	-0.024042	-1.713832	0.587701
H57	H	-0.025334	-1.617822	0.707297
H58	H	0.029359	-1.714956	0.707257
H59	H	0.219748	-1.073924	0.000010
C60	C	-0.032715	-0.877586	0.000132
H61	H	-0.069699	-0.944476	0.000149
H62	H	-0.036110	-0.827123	-0.079574
H63	H	-0.036111	-0.827135	0.079858
C64	C	-0.082427	-1.250492	0.000071
H65	H	-0.034946	-1.268172	0.000071
H66	H	-0.091179	-1.203139	0.079771
H67	H	-0.091161	-1.203163	-0.079661
H68	H	-0.010785	-1.129537	0.000102
C69	C	0.201503	-1.303064	0.651125
H70	H	0.194776	-1.315350	0.747120
H71	H	0.193489	-1.219295	0.627566
H72	H	0.248172	-1.316448	0.627517
H73	H	-0.123254	-1.698197	0.000150
H74	H	-0.227199	-1.279418	0.000065
H75	H	-0.699475	-1.682922	0.000033
C76	C	-0.559153	-1.719400	0.000077
H77	H	-0.595902	-1.786708	0.000063
H78	H	-0.531074	-1.724909	0.079794
H79	H	-0.531053	-1.724912	-0.079637
H80	H	-0.539150	-1.271141	0.000022
C81	C	-0.679468	-1.234662	-0.000005
H82	H	-0.729174	-1.249762	-0.000002
H83	H	-0.664328	-1.187958	-0.079717
H84	H	-0.664349	-1.187951	0.079714
