data_functionalizedCrystal
_audit_creation_method	'MofGen! by Chris Wilmer'
_symmetry_space_group_name_H-M	'P1'
_symmetry_Int_Tables_number	1
_symmetry_cell_setting	triclinic
loop_
_symmetry_equiv_pos_as_xyz
  x,y,z
_cell_length_a	6.394989
_cell_length_b	10.654550
_cell_length_c	9.730223
_cell_angle_alpha	90.004253
_cell_angle_beta	90.002753
_cell_angle_gamma	85.491321
loop_
_atom_site_label
_atom_site_type_symbol
_atom_site_fract_x
_atom_site_fract_y
_atom_site_fract_z
O1	O	-2.774472	-0.205783	-0.114276
O2	O	-2.166494	-0.216150	-0.114281
O3	O	-2.484462	-0.028376	-0.114270
O4	O	-2.456505	-0.393558	-0.114287
O5	O	-2.484441	-0.028370	0.114310
O6	O	-2.166473	-0.216145	0.114299
O7	O	-2.774452	-0.205778	0.114304
Zn8	Zn	-2.470459	-0.210960	0.150593
Zn9	Zn	-2.470486	-0.210968	-0.150570
O10	O	-2.456484	-0.393552	0.114293
C11	C	-2.482399	0.018447	0.000020
C12	C	-2.476257	0.157955	0.000017
C13	C	-2.458547	-0.440375	0.000000
C14	C	-2.464689	-0.579883	-0.000006
N15	N	-2.470456	-0.210955	0.356130
C16	C	-2.088633	-0.214098	0.000015
C17	C	-1.852307	-0.207833	0.000021
N18	N	-2.470506	-0.210963	-0.356107
C19	C	-2.663471	0.235458	0.000019
C20	C	-2.657688	0.366540	0.000002
C21	C	-2.277460	0.342604	-0.000012
C22	C	-2.283245	0.211524	-0.000005
C23	C	-2.611301	-0.127845	0.428061
C24	C	-2.611321	-0.127846	0.571944
C25	C	-2.329647	-0.294077	0.571952
C26	C	-2.329617	-0.294070	0.428072
H27	H	-2.810138	0.429638	-0.000000
C28	C	-2.766258	-0.036427	0.651070
C29	C	-2.921202	0.054972	0.571933
C30	C	-3.076143	0.146396	0.651060
C31	C	-3.076141	0.146421	0.809322
C32	C	-2.921192	0.055018	0.888468
C33	C	-2.766250	-0.036406	0.809342
H34	H	-2.921209	0.054957	0.454770
H35	H	-3.190847	0.214058	0.592470
H36	H	-3.190838	0.214098	0.867896
H37	H	-2.921185	0.055033	1.005631
H38	H	-2.651547	-0.104068	0.867931
C39	C	-2.174680	-0.385497	0.348935
C40	C	-2.019852	-0.476977	0.428059
C41	C	-1.864918	-0.568395	0.348920
C42	C	-1.864812	-0.568334	0.190658
C43	C	-2.019646	-0.476851	0.111525
C44	C	-2.174580	-0.385433	0.190663
H45	H	-2.019926	-0.477025	0.545222
H46	H	-1.750300	-0.636117	0.407501
H47	H	-1.750120	-0.636008	0.132075
H48	H	-2.019572	-0.476803	-0.005639
H49	H	-2.289198	-0.317711	0.132083
C50	C	-2.766203	-0.036411	0.348924
C51	C	-2.760637	0.106685	0.368731
C52	C	-2.915539	0.198125	0.289599
C53	C	-3.076007	0.146468	0.190661
C54	C	-3.081579	0.003364	0.170850
C55	C	-2.926677	-0.088076	0.249981
H56	H	-2.641843	0.144931	0.441975
H57	H	-2.911413	0.304060	0.304265
H58	H	-3.190675	0.214157	0.132083
H59	H	-3.200373	-0.034882	0.097606
H60	H	-2.930803	-0.194011	0.235315
H61	H	-2.120316	0.386236	-0.000027
H62	H	-2.820634	0.191847	0.000034
H63	H	-2.130783	0.148418	-0.000010
H64	H	-2.214982	-0.361749	0.630541
