data_functionalizedCrystal
_audit_creation_method	'MofGen! by Chris Wilmer'
_symmetry_space_group_name_H-M	'P1'
_symmetry_Int_Tables_number	1
_symmetry_cell_setting	triclinic
loop_
_symmetry_equiv_pos_as_xyz
  x,y,z
_cell_length_a	12.645331
_cell_length_b	18.050590
_cell_length_c	12.645323
_cell_angle_alpha	89.969424
_cell_angle_beta	89.984262
_cell_angle_gamma	90.017788
loop_
_atom_site_label
_atom_site_type_symbol
_atom_site_fract_x
_atom_site_fract_y
_atom_site_fract_z
Zn1	Zn	1.620725	-0.295669	-0.599208
Zn2	Zn	1.620604	-0.419868	-0.421930
Zn3	Zn	1.443439	-0.295694	-0.421974
Zn4	Zn	1.443418	-0.419820	-0.599167
O5	O	1.532047	-0.357763	-0.510570
O6	O	1.769056	-0.312153	-0.575691
O7	O	1.597061	-0.403427	-0.273589
O8	O	1.467016	-0.191766	-0.445520
O9	O	1.768967	-0.403402	-0.445446
O10	O	1.597267	-0.191748	-0.575733
O11	O	1.466899	-0.312197	-0.273621
O12	O	1.295089	-0.312151	-0.445480
O13	O	1.466980	-0.403320	-0.747520
O14	O	1.295074	-0.403345	-0.575663
O15	O	1.597247	-0.312107	-0.747550
O16	O	1.597040	-0.523786	-0.445406
O17	O	1.466863	-0.523751	-0.575621
C18	C	1.256617	-0.357746	-0.510573
C19	C	1.138787	-0.357757	-0.510599
C20	C	0.971249	-0.415442	-0.592070
C21	C	1.093809	-0.415255	-0.592411
C22	C	1.094310	-0.279537	-0.541131
C23	C	0.971712	-0.279889	-0.541705
C24	C	0.971541	-0.377661	-0.398337
C25	C	1.094147	-0.379372	-0.398942
C26	C	1.531965	-0.550715	-0.510528
C27	C	1.532027	-0.633261	-0.510545
C28	C	1.602965	-0.832703	-0.439833
C29	C	1.628865	-0.882034	-0.536583
C30	C	1.532087	-0.784391	-0.510587
C31	C	1.506295	-0.882142	-0.413881
C32	C	1.532148	-0.930376	-0.510620
C33	C	1.558037	-0.832634	-0.607388
C34	C	1.435422	-0.832738	-0.484621
C35	C	1.461286	-0.882046	-0.581438
C36	C	1.532055	-0.700293	-0.510567
C37	C	1.532179	-1.014473	-0.510651
C38	C	1.808552	-0.357780	-0.510568
C39	C	1.926382	-0.357788	-0.510567
C40	C	1.532125	-0.357705	-0.787075
C41	C	1.532158	-0.357681	-0.904905
C42	C	1.532157	-0.164057	-0.510636
C43	C	1.532205	-0.081511	-0.510663
C44	C	1.449955	-0.414793	-1.072451
C45	C	1.450170	-0.415075	-0.949891
C46	C	1.643857	-0.378921	-0.949409
C47	C	1.643406	-0.379280	-1.072007
C48	C	1.503718	-0.279009	-1.072118
C49	C	1.501226	-0.279480	-0.949512
C50	C	1.532030	-0.357766	-0.235140
C51	C	1.532202	-0.357582	-0.117311
H52	H	1.123444	-0.235413	-0.483623
O53	O	1.381924	-0.910570	-0.660800
H54	H	1.301940	-0.889941	-0.639857
H55	H	1.579796	-0.810980	-0.689255
O56	O	1.327140	-0.804017	-0.455468
H57	H	1.305882	-0.823809	-0.375105
O58	O	1.676401	-0.454205	-0.908747
H59	H	1.688928	-0.492223	-0.976560
H60	H	1.468575	-0.472678	-1.103259
H61	H	0.942525	-0.335666	-0.337609
O62	O	1.132701	-0.397818	-0.702554
H63	H	1.063942	-0.389479	-0.755781
H64	H	1.662924	-0.811037	-0.380060
O65	O	1.727211	-0.325475	-0.910812
H66	H	1.805355	-0.341709	-0.943378
H67	H	0.943138	-0.263032	-0.623751
H68	H	1.123880	-0.473260	-0.573274
O69	O	1.583057	-0.222541	-1.110548
H70	H	1.642492	-0.250254	-1.161588
H71	H	1.468973	-0.473325	-0.920566
H72	H	1.484455	-0.903888	-0.332084
O73	O	1.134693	-0.327780	-0.314184
H74	H	1.101688	-0.344595	-0.236448
O75	O	0.930566	-0.451918	-0.361562
H76	H	0.998151	-0.490003	-0.348178
H77	H	1.556755	-0.234601	-0.918890
H78	H	1.123228	-0.436930	-0.375914
O79	O	1.392343	-0.258258	-0.910983
H80	H	1.371065	-0.202932	-0.942855
O81	O	1.737178	-0.910721	-0.565715
H82	H	1.795850	-0.890964	-0.506859
O83	O	1.339904	-0.397358	-1.111489
H84	H	1.342647	-0.347733	-1.163289
H85	H	1.367341	-0.401783	-0.919801
O86	O	1.675367	-0.455365	-1.109898
H87	H	1.755829	-0.468494	-1.080274
O88	O	0.930477	-0.398242	-0.701586
H89	H	0.962618	-0.439264	-0.758497
H90	H	1.706765	-0.339419	-1.101683
H91	H	1.125036	-0.262373	-0.622288
H92	H	0.941756	-0.473638	-0.573144
O93	O	0.932411	-0.221063	-0.466490
H94	H	0.883652	-0.247306	-0.403808
H95	H	1.423686	-0.259648	-1.103034
