data_functionalizedCrystal
_audit_creation_method	'MofGen! by Chris Wilmer'
_symmetry_space_group_name_H-M	'P1'
_symmetry_Int_Tables_number	1
_symmetry_cell_setting	triclinic
loop_
_symmetry_equiv_pos_as_xyz
  x,y,z
_cell_length_a	10.654549
_cell_length_b	19.188924
_cell_length_c	9.130307
_cell_angle_alpha	90.001661
_cell_angle_beta	90.004246
_cell_angle_gamma	83.814441
loop_
_atom_site_label
_atom_site_type_symbol
_atom_site_fract_x
_atom_site_fract_y
_atom_site_fract_z
O1	O	1.665758	0.098073	0.121843
O2	O	2.165758	0.598073	0.621843
O3	O	1.300082	0.107412	0.121838
O4	O	1.800082	0.607412	0.621838
O5	O	1.493477	0.001156	0.121823
O6	O	1.993477	0.501156	0.621823
O7	O	1.472362	0.204330	0.121858
O8	O	1.972362	0.704330	0.621858
O9	O	1.493463	0.001163	-0.121776
O10	O	1.993463	0.501163	0.378224
O11	O	1.300068	0.107419	-0.121761
O12	O	1.800068	0.607419	0.378239
O13	O	1.665744	0.098080	-0.121756
O14	O	2.165744	0.598080	0.378244
Cu15	Cu	1.482904	0.102750	-0.144001
Cu16	Cu	1.982904	0.602750	0.355999
Cu17	Cu	1.482921	0.102742	0.144083
Cu18	Cu	1.982921	0.602742	0.644083
O19	O	1.472348	0.204337	-0.121741
O20	O	1.972348	0.704337	0.378259
C21	C	1.253291	0.106729	0.000038
C22	C	1.753291	0.606729	0.500038
C23	C	1.113892	0.104676	0.000036
C24	C	1.613892	0.604676	0.500036
C25	C	0.821295	0.227879	0.000098
C26	C	1.321295	0.727879	0.500098
C27	C	0.871464	0.292375	0.000103
C28	C	1.371464	0.792375	0.500103
C29	C	1.002441	0.294307	0.000084
C30	C	1.502441	0.794307	0.500084
C31	C	1.083254	0.231736	0.000064
C32	C	1.583254	0.731736	0.500064
C33	C	1.033084	0.167240	0.000060
C34	C	1.533084	0.667240	0.500060
C35	C	0.902102	0.165315	0.000074
C36	C	1.402102	0.665315	0.500074
C37	C	1.063722	0.040180	0.000031
C38	C	1.563722	0.540180	0.500031
C39	C	0.932746	0.038246	0.000039
C40	C	1.432746	0.538246	0.500039
C41	C	1.144535	-0.022391	0.000012
C42	C	1.644535	0.477609	0.500012
C43	C	1.094366	-0.086889	-0.000004
C44	C	1.594366	0.413111	0.499996
C45	C	0.963380	-0.088818	0.000014
C46	C	1.463380	0.411182	0.500014
C47	C	0.882576	-0.026250	0.000035
C48	C	1.382576	0.473750	0.500035
C49	C	1.492787	-0.024856	0.000022
C50	C	1.992787	0.475144	0.500022
C51	C	1.490739	-0.102374	0.000019
C52	C	1.990739	0.397626	0.500019
C53	C	1.489791	-0.138783	0.132805
C54	C	1.989791	0.361217	0.632805
C55	C	1.487849	-0.211619	0.132816
C56	C	1.987849	0.288381	0.632816
C57	C	1.486880	-0.248044	0.000033
C58	C	1.986880	0.251956	0.500033
C59	C	1.487821	-0.211626	-0.132770
C60	C	1.987821	0.288374	0.367230
C61	C	1.489751	-0.138791	-0.132778
C62	C	1.989751	0.361209	0.367222
N63	N	1.555307	-0.367256	-0.098793
N64	N	2.055307	0.132744	0.401207
N65	N	1.553476	-0.436447	-0.098777
N66	N	2.053476	0.063553	0.401223
C67	C	1.481063	-0.467491	0.000047
C68	C	1.981063	0.032509	0.500047
N69	N	1.410565	-0.426733	0.098877
N70	N	1.910565	0.073267	0.598877
N71	N	1.412401	-0.357537	0.098865
N72	N	1.912401	0.142463	0.598865
C73	C	1.484787	-0.327021	0.000026
C74	C	1.984787	0.172979	0.500026
C75	C	1.478007	-0.582877	0.132855
C76	C	1.978007	-0.082877	0.632855
C77	C	1.476057	-0.655713	0.132860
C78	C	1.976057	-0.155713	0.632860
C79	C	1.476042	-0.655720	-0.132730
C80	C	1.976042	-0.155720	0.367270
C81	C	1.477980	-0.582884	-0.132732
C82	C	1.977980	-0.082884	0.367268
C83	C	1.478968	-0.546467	0.000065
C84	C	1.978968	-0.046467	0.500065
C85	C	1.712534	0.098763	0.000047
C86	C	2.212534	0.598763	0.500047
C87	C	1.851933	0.100817	0.000059
C88	C	2.351933	0.600817	0.500059
C89	C	1.473038	0.230349	0.000063
C90	C	1.973038	0.730349	0.500063
C91	C	1.475086	0.307867	0.000076
C92	C	1.975086	0.807867	0.500076
N93	N	1.482902	0.102756	-0.346624
N94	N	1.982902	0.602756	0.153376
C95	C	1.331102	0.017244	-0.653301
C96	C	1.831102	0.517244	-0.153301
C97	C	1.255172	-0.025491	-0.576637
C98	C	1.755172	0.474509	-0.076637
C99	C	1.255148	-0.025478	-0.423304
C100	C	1.755148	0.474522	0.076696
C101	C	1.331066	0.017273	-0.346630
C102	C	1.831066	0.517273	0.153370
C103	C	1.406996	0.060008	-0.423294
C104	C	1.906996	0.560008	0.076706
C105	C	1.407008	0.059992	-0.576631
C106	C	1.907008	0.559992	-0.076631
C107	C	1.558832	0.145491	-0.423287
C108	C	2.058832	0.645491	0.076713
C109	C	1.558851	0.145482	-0.576621
C110	C	2.058851	0.645482	-0.076621
C111	C	1.634749	0.188242	-0.346614
C112	C	2.134749	0.688242	0.153386
C113	C	1.710674	0.230981	-0.423277
C114	C	2.210674	0.730981	0.076723
C115	C	1.710694	0.230967	-0.576620
C116	C	2.210694	0.730967	-0.076620
C117	C	1.634781	0.188217	-0.653284
C118	C	2.134781	0.688217	-0.153284
N119	N	1.482933	0.102731	0.346706
N120	N	1.982933	0.602731	0.846706
H121	H	0.922542	-0.141339	0.000018
H122	H	1.422542	0.358661	0.500018
Br123	Br	0.643538	0.225261	0.000085
Br124	Br	1.143538	0.725261	0.500085
H125	H	1.475278	-0.685355	0.240995
H126	H	1.975278	-0.185355	0.740995
Br127	Br	1.331109	0.017235	-0.861398
Br128	Br	1.831109	0.517235	-0.361398
Br129	Br	1.813760	0.288961	-0.680651
Br130	Br	2.313760	0.788961	-0.180651
Br131	Br	1.813705	0.288987	-0.319216
Br132	Br	2.313705	0.788987	0.180784
H133	H	1.634731	0.188246	-0.221762
H134	H	2.134731	0.688246	0.278238
Br135	Br	0.704818	-0.028864	0.000043
Br136	Br	1.204818	0.471136	0.500043
Br137	Br	1.479341	-0.533449	0.313073
Br138	Br	1.979341	-0.033449	0.813073
Br139	Br	1.634793	0.188199	-0.861381
Br140	Br	2.134793	0.688199	-0.361381
Br141	Br	1.474714	-0.705145	-0.312939
Br142	Br	1.974714	-0.205145	0.187061
H143	H	1.331051	0.017273	-0.221778
H144	H	1.831051	0.517273	0.278222
H145	H	1.251182	-0.020814	0.000003
H146	H	1.751182	0.479186	0.500003
H147	H	0.805653	0.343318	0.000123
H148	H	1.305653	0.843318	0.500123
H149	H	1.478762	-0.553240	-0.240861
H150	H	1.978762	-0.053240	0.259139
Br151	Br	1.491127	-0.089363	0.313027
Br152	Br	1.991127	0.410637	0.813027
H153	H	1.043288	0.346825	0.000086
H154	H	1.543288	0.846825	0.500086
H155	H	1.160172	-0.137829	-0.000010
H156	H	1.660172	0.362171	0.499990
Br157	Br	1.261009	0.234359	0.000074
Br158	Br	1.761009	0.734359	0.500074
H159	H	1.193365	-0.060300	-0.639082
H160	H	1.693365	0.439700	-0.139082
H161	H	1.193322	-0.060278	-0.360885
H162	H	1.693322	0.439722	0.139115
H163	H	1.487029	-0.241288	-0.240883
H164	H	1.987029	0.258712	0.259117
Br165	Br	1.486557	-0.261041	0.313038
Br166	Br	1.986557	0.238959	0.813038
H167	H	1.490518	-0.109147	-0.240912
H168	H	1.990518	0.390853	0.259088
