data_functionalizedCrystal
_audit_creation_method	'MofGen! by Chris Wilmer'
_symmetry_space_group_name_H-M	'P1'
_symmetry_Int_Tables_number	1
_symmetry_cell_setting	triclinic
loop_
_symmetry_equiv_pos_as_xyz
  x,y,z
_cell_length_a	16.120530
_cell_length_b	12.759394
_cell_length_c	12.759387
_cell_angle_alpha	90.031660
_cell_angle_beta	87.079824
_cell_angle_gamma	92.889523
loop_
_atom_site_label
_atom_site_type_symbol
_atom_site_fract_x
_atom_site_fract_y
_atom_site_fract_z
Zn1	Zn	1.274636	0.499763	-0.675420
Zn2	Zn	1.774636	0.999763	-0.175420
Zn3	Zn	1.274549	0.675475	-0.499733
Zn4	Zn	1.774549	1.175475	0.000267
Zn5	Zn	1.135210	0.490895	-0.490851
Zn6	Zn	1.635210	0.990895	0.009149
Zn7	Zn	1.135204	0.666480	-0.666471
Zn8	Zn	1.635204	1.166480	-0.166471
O9	O	1.204900	0.583153	-0.583119
O10	O	1.704900	1.083153	-0.083119
O11	O	1.391292	0.530547	-0.659578
O12	O	1.891292	1.030547	-0.159578
O13	O	1.256032	0.651043	-0.351531
O14	O	1.756032	1.151043	0.148469
O15	O	1.153744	0.345053	-0.515363
O16	O	1.653744	0.845053	-0.015363
O17	O	1.391228	0.659642	-0.530501
O18	O	1.891228	1.159642	-0.030501
O19	O	1.256180	0.351568	-0.650965
O20	O	1.756180	0.851568	-0.150965
O21	O	1.153660	0.515433	-0.345006
O22	O	1.653660	1.015433	0.154994
O23	O	1.018542	0.506711	-0.506685
O24	O	1.518542	1.006711	-0.006685
O25	O	1.153733	0.644311	-0.814681
O26	O	1.653733	1.144311	-0.314681
O27	O	1.018537	0.635712	-0.635712
O28	O	1.518537	1.135712	-0.135712
O29	O	1.256174	0.521825	-0.821257
O30	O	1.756174	1.021825	-0.321257
O31	O	1.256026	0.821300	-0.521822
O32	O	1.756026	1.321300	-0.021822
O33	O	1.153649	0.814692	-0.644324
O34	O	1.653649	1.314692	-0.144324
C35	C	1.204850	0.856117	-0.583090
C36	C	1.704850	1.356117	-0.083090
C37	C	1.204905	0.972898	-0.583118
C38	C	1.704905	1.472898	-0.083118
C39	C	0.988289	0.569274	-0.569264
C40	C	1.488289	1.069274	-0.069264
C41	C	0.895622	0.563362	-0.563362
C42	C	1.395622	1.063362	-0.063362
C43	C	1.204963	0.583054	-0.857156
C44	C	1.704963	1.083054	-0.357156
C45	C	1.204990	0.583012	-0.973935
C46	C	1.704990	1.083012	-0.473935
C47	C	0.725959	0.552543	-0.552595
C48	C	1.225959	1.052543	-0.052595
C49	C	0.684681	0.613840	-0.613719
C50	C	1.184681	1.113840	-0.113719
C51	C	0.590274	0.607821	-0.607728
C52	C	1.090274	1.107821	-0.107728
C53	C	0.820374	0.558562	-0.558584
C54	C	1.320374	1.058562	-0.058584
C55	C	1.422356	0.597087	-0.597028
C56	C	1.922356	1.097087	-0.097028
C57	C	1.515023	0.603025	-0.602956
C58	C	2.015023	1.103025	-0.102956
C59	C	1.204973	0.309124	-0.583172
C60	C	1.704973	0.809124	-0.083172
C61	C	1.205004	0.192350	-0.583194
C62	C	1.705004	0.692350	-0.083194
C63	C	1.311589	0.979731	-0.455663
C64	C	1.811589	1.479731	0.044337
C65	C	1.364953	1.038010	-0.391949
C66	C	1.864953	1.538010	0.108051
C67	C	1.365002	1.147734	-0.391980
C68	C	1.865002	1.647734	0.108020
C69	C	1.311683	1.199182	-0.455735
C70	C	1.811683	1.699182	0.044265
C71	C	1.258319	1.140904	-0.519449
C72	C	1.758319	1.640904	-0.019449
C73	C	1.258274	1.031177	-0.519408
C74	C	1.758274	1.531177	-0.019408
C75	C	1.151640	1.134071	-0.646908
C76	C	1.651640	1.634071	-0.146908
C77	C	1.151585	1.024346	-0.646873
C78	C	1.651585	1.524346	-0.146873
C79	C	1.098321	1.185519	-0.710663
C80	C	1.598321	1.685519	-0.210663
C81	C	1.044951	1.127240	-0.774373
C82	C	1.544951	1.627240	-0.274373
C83	C	1.044904	1.017509	-0.774338
C84	C	1.544904	1.517509	-0.274338
C85	C	1.098221	0.966067	-0.710586
C86	C	1.598221	1.466067	-0.210586
C87	C	1.311668	0.455477	-0.980802
C88	C	1.811668	0.955477	-0.480802
C89	C	1.365019	0.391694	-1.039097
C90	C	1.865019	0.891694	-0.539097
C91	C	1.365039	0.391657	-1.148820
C92	C	1.865039	0.891657	-0.648820
C93	C	1.311701	0.455407	-1.200250
C94	C	1.811701	0.955407	-0.700250
C95	C	1.258350	0.519190	-1.141955
C96	C	1.758350	1.019190	-0.641955
C97	C	1.258338	0.519222	-1.032230
C98	C	1.758338	1.019222	-0.532230
C99	C	1.151669	0.646718	-1.135087
C100	C	1.651669	1.146718	-0.635087
C101	C	1.151651	0.646762	-1.025365
C102	C	1.651651	1.146762	-0.525365
C103	C	1.098331	0.710468	-1.186517
C104	C	1.598331	1.210468	-0.686517
C105	C	1.044983	0.774258	-1.128222
C106	C	1.544983	1.274258	-0.628222
C107	C	1.044965	0.774293	-1.018493
C108	C	1.544965	1.274293	-0.518493
C109	C	1.098300	0.710545	-0.967069
C110	C	1.598300	1.210545	-0.467069
C111	C	1.204885	0.583179	-0.310150
C112	C	1.704885	1.083179	0.189850
C113	C	1.205020	0.582936	-0.193383
C114	C	1.705020	1.082936	0.306617
H115	H	0.720243	0.670838	-0.670550
H116	H	1.220243	1.170838	-0.170550
C117	C	1.423600	0.981408	-0.321819
C118	C	1.923600	1.481408	0.178181
N119	N	1.467772	0.938779	-0.268997
N120	N	1.967772	1.438779	0.231003
C121	C	1.098178	0.845368	-0.710547
C122	C	1.598178	1.345368	-0.210547
N123	N	1.098152	0.754456	-0.710520
N124	N	1.598152	1.254456	-0.210520
H125	H	1.311665	0.455511	-0.891461
H126	H	1.811665	0.955511	-0.391461
H127	H	1.408445	0.339788	-0.997211
H128	H	1.908445	0.839788	-0.497211
C129	C	1.098374	1.306219	-0.710694
C130	C	1.598374	1.806219	-0.210694
N131	N	1.098410	1.397132	-0.710714
N132	N	1.598410	1.897132	-0.210714
C133	C	1.423705	1.211843	-0.321892
C134	C	1.923705	1.711843	0.178108
N135	N	1.467918	1.260129	-0.269100
N136	N	1.967918	1.760129	0.230900
C137	C	1.311744	1.319883	-0.455772
C138	C	1.811744	1.819883	0.044228
N139	N	1.311789	1.410796	-0.455798
N140	N	1.811789	1.910796	0.044202
C141	C	0.677918	0.475550	-0.475820
C142	C	1.177918	0.975550	0.024180
N143	N	0.641724	0.417563	-0.417992
N144	N	1.141724	0.917563	0.082008
H145	H	1.408477	0.339713	-1.196284
H146	H	1.908477	0.839713	-0.696284
C147	C	1.311533	0.859030	-0.455612
C148	C	1.811533	1.359030	0.044388
N149	N	1.311492	0.768118	-0.455572
N150	N	1.811492	1.268118	0.044428
H151	H	1.311715	0.455362	-1.289592
H152	H	1.811715	0.955362	-0.789592
H153	H	1.001547	1.169138	-0.826282
H154	H	1.501547	1.669138	-0.326282
H155	H	1.098348	0.710429	-1.275860
H156	H	1.598348	1.210429	-0.775860
C157	C	0.986204	0.953411	-0.844438
C158	C	1.486204	1.453411	-0.344438
N159	N	0.941992	0.905136	-0.897241
N160	N	1.441992	1.405136	-0.397241
C161	C	0.986311	0.844366	-1.184802
C162	C	1.486311	1.344366	-0.684802
N163	N	0.942117	0.897173	-1.227421
N164	N	1.442117	1.397173	-0.727421
H165	H	1.001511	0.826221	-0.971034
H166	H	1.501511	1.326221	-0.471034
H167	H	1.098295	0.710572	-0.877728
H168	H	1.598295	1.210572	-0.377728
