data_functionalizedCrystal
_audit_creation_method	'MofGen! by Chris Wilmer'
_symmetry_space_group_name_H-M	'P1'
_symmetry_Int_Tables_number	1
_symmetry_cell_setting	triclinic
loop_
_symmetry_equiv_pos_as_xyz
  x,y,z
_cell_length_a	10.654549
_cell_length_b	14.519731
_cell_length_c	9.730223
_cell_angle_alpha	89.994614
_cell_angle_beta	89.997731
_cell_angle_gamma	84.086815
loop_
_atom_site_label
_atom_site_type_symbol
_atom_site_fract_x
_atom_site_fract_y
_atom_site_fract_z
O1	O	1.666607	0.129529	-0.114262
O2	O	1.301011	0.141871	-0.114272
O3	O	1.493489	0.001513	-0.114254
O4	O	1.474130	0.269887	-0.114279
O5	O	1.493476	0.001509	0.114326
O6	O	1.300999	0.141867	0.114308
O7	O	1.666595	0.129525	0.114318
Zn8	Zn	1.483795	0.135695	0.150605
Zn9	Zn	1.483811	0.135701	-0.150559
O10	O	1.474118	0.269883	0.114301
C11	C	1.254216	0.140963	0.000017
C12	C	1.114798	0.138252	0.000014
C13	C	0.903522	0.218338	0.000012
C14	C	1.034518	0.220892	0.000003
C15	C	1.064076	0.053051	0.000019
C16	C	0.933082	0.050498	0.000017
C17	C	1.492575	-0.032853	0.000036
C18	C	1.489857	-0.135247	0.000037
C19	C	1.487649	-0.218403	0.000034
C20	C	1.484889	-0.322726	0.000023
C21	C	1.482699	-0.405876	0.000014
C22	C	1.479939	-0.510206	0.000006
C23	C	1.713391	0.130433	0.000026
C24	C	1.852808	0.133144	0.000021
C25	C	1.475031	0.304249	0.000007
C26	C	1.477749	0.406643	-0.000003
N27	N	1.483793	0.135691	0.356142
N28	N	1.483823	0.135697	-0.356095
C29	C	1.569051	0.073568	0.428075
C30	C	1.569063	0.073568	0.571958
C31	C	1.398556	0.197824	0.571961
C32	C	1.398539	0.197819	0.428081
H33	H	0.891792	-0.018880	0.000020
H34	H	1.638468	0.022979	0.369506
H35	H	1.638486	0.022980	0.630523
H36	H	1.329146	0.248408	0.630548
H37	H	1.329106	0.248408	0.369508
H38	H	0.838165	0.285634	0.000014
H39	H	1.129451	-0.014236	0.000019
H40	H	1.075802	0.290265	-0.000005
