data_functionalizedCrystal
_audit_creation_method	'MofGen! by Chris Wilmer'
_symmetry_space_group_name_H-M	'P1'
_symmetry_Int_Tables_number	1
_symmetry_cell_setting	triclinic
loop_
_symmetry_equiv_pos_as_xyz
  x,y,z
_cell_length_a	27.732048
_cell_length_b	10.540514
_cell_length_c	26.210047
_cell_angle_alpha	90.009637
_cell_angle_beta	90.000479
_cell_angle_gamma	83.578907
loop_
_atom_site_label
_atom_site_type_symbol
_atom_site_fract_x
_atom_site_fract_y
_atom_site_fract_z
O1	O	0.068049	1.682961	0.042442
O2	O	0.074479	1.313265	0.042442
O3	O	0.000939	1.509595	0.042432
O4	O	0.141589	1.486631	0.042451
O5	O	0.000951	1.509557	-0.042426
O6	O	0.074491	1.313227	-0.042416
O7	O	0.068060	1.682923	-0.042416
Cu8	Cu	0.071277	1.498072	-0.050165
Cu9	Cu	0.071263	1.498116	0.050190
O10	O	0.141600	1.486593	-0.042407
C11	C	0.074005	1.265963	0.000013
C12	C	0.072570	1.125076	0.000012
C13	C	0.125165	1.052086	0.000021
C14	C	0.123690	0.905537	0.000216
C15	C	0.043960	0.934002	0.048375
C16	C	0.045808	1.080461	0.048413
C17	C	0.045043	1.080854	-0.048090
C18	C	0.044535	0.933897	-0.048723
C19	C	-0.017065	1.509094	0.000002
C20	C	-0.070729	1.507642	-0.000003
C21	C	-0.408875	1.614523	0.000023
C22	C	-0.610568	1.609137	0.000031
O23	O	-0.641212	1.706871	0.000053
N24	N	-0.630421	1.492721	0.000030
C25	C	-0.599847	1.377644	0.000031
O26	O	-0.621361	1.278502	0.000036
C27	C	-0.398154	1.383031	0.000028
C28	C	-0.378305	1.499454	0.000023
C29	C	-0.389024	1.730936	0.000019
C30	C	-0.338604	1.732281	0.000015
C31	C	-0.308034	1.617213	0.000014
C32	C	-0.327884	1.500799	0.000019
C33	C	-0.367581	1.267955	0.000033
C34	C	-0.317156	1.269312	0.000033
C35	C	-0.297306	1.385735	0.000028
C36	C	-0.246894	1.387076	0.000014
N37	N	-0.227041	1.503491	0.000014
C38	C	-0.257611	1.618560	0.000014
C39	C	-0.705739	1.374824	0.000032
C40	C	-0.756161	1.373477	0.000032
C41	C	-0.766879	1.604971	0.000032
C42	C	-0.716455	1.606316	0.000029
C43	C	-0.685886	1.491240	0.000033
C44	C	-0.151724	1.621376	0.000004
C45	C	-0.101299	1.622711	-0.000002
C46	C	-0.090586	1.391218	0.000000
C47	C	-0.141006	1.389882	0.000004
C48	C	-0.171575	1.504972	0.000008
O49	O	-0.216221	1.289394	-0.000003
O50	O	-0.236088	1.717688	0.000021
C51	C	-0.459295	1.613177	0.000028
C52	C	-0.479145	1.496764	0.000032
C53	C	-0.448575	1.381695	0.000032
C54	C	-0.529568	1.495417	0.000032
C55	C	-0.560138	1.610485	0.000033
C56	C	-0.540286	1.726901	0.000033
C57	C	-0.489865	1.728246	0.000028
C58	C	-0.468428	1.265279	0.000031
C59	C	-0.518849	1.263944	0.000035
C60	C	-0.549419	1.379012	0.000036
C61	C	0.159605	1.487094	0.000025
C62	C	0.213269	1.488545	0.000032
C63	C	0.068534	1.730225	0.000014
C64	C	0.069969	1.871112	0.000018
N65	N	0.071286	1.498049	-0.120749
C66	C	0.038707	1.585042	-0.473267
C67	C	0.038700	1.585070	-0.686925
O68	O	0.011002	1.658986	-0.714551
N69	N	0.071252	1.498123	-0.713642
C70	C	0.103806	1.411157	-0.686941
O71	O	0.131491	1.337195	-0.714568
C72	C	0.103810	1.411124	-0.473284
C73	C	0.071259	1.498086	-0.446570
C74	C	0.006158	1.671996	-0.446553
C75	C	0.006162	1.671992	-0.393141
C76	C	0.038714	1.585036	-0.366444
C77	C	0.071263	1.498082	-0.393158
C78	C	0.136362	1.324153	-0.446584
C79	C	0.136359	1.324151	-0.393166
C80	C	0.103808	1.411112	-0.366452
C81	C	0.103819	1.411122	-0.313050
N82	N	0.071267	1.498070	-0.286333
C83	C	0.038715	1.585026	-0.313030
C84	C	0.103803	1.411183	-0.799115
C85	C	0.103802	1.411192	-0.852529
C86	C	0.038696	1.585104	-0.852509
C87	C	0.038699	1.585099	-0.799094
C88	C	0.071251	1.498130	-0.772398
C89	C	0.038725	1.585014	-0.200862
C90	C	0.038733	1.585006	-0.147446
C91	C	0.103838	1.411090	-0.147470
C92	C	0.103832	1.411102	-0.200882
C93	C	0.071272	1.498068	-0.227576
O94	O	0.131499	1.337236	-0.285391
O95	O	0.011028	1.658958	-0.285394
C96	C	0.038703	1.585046	-0.526678
C97	C	0.071252	1.498092	-0.553393
C98	C	0.103804	1.411136	-0.526695
C99	C	0.071252	1.498102	-0.606807
C100	C	0.038699	1.585058	-0.633504
C101	C	0.006147	1.672006	-0.606787
C102	C	0.006151	1.672002	-0.553376
C103	C	0.136356	1.324188	-0.553412
C104	C	0.136350	1.324200	-0.606824
C105	C	0.103798	1.411156	-0.633521
N106	N	0.071250	1.498149	0.120774
H107	H	0.064795	1.107877	0.084705
H108	H	0.012191	1.655909	-0.874255
Br109	Br	-0.038029	1.790024	-0.643029
H110	H	-0.157169	1.295081	-0.000006
H111	H	0.144147	0.861970	-0.034441
Br112	Br	-0.275671	1.113127	0.000041
H113	H	0.012193	1.655910	-0.777347
H114	H	0.005379	0.911412	-0.051792
H115	H	0.130314	1.340393	-0.874276
Br116	Br	0.147985	1.293144	-0.762890
Br117	Br	-0.462934	1.886257	0.000025
Br118	Br	0.074231	1.132053	-0.109202
Br119	Br	-0.049088	1.235061	-0.000001
Br120	Br	-0.783094	1.215468	0.000026
H121	H	0.004503	0.913402	0.050031
Br122	Br	0.160886	1.098961	-0.057520
H123	H	-0.565185	1.820594	0.000031
Br124	Br	0.160201	1.100964	0.057743
Br125	Br	0.180534	1.206178	-0.643073
Br126	Br	0.180538	1.206107	-0.356939
Br127	Br	-0.005444	1.703037	-0.111193
H128	H	0.162867	1.253341	-0.468327
Br129	Br	0.180538	1.206164	-0.517187
Br130	Br	0.157624	0.834522	0.058342
H131	H	0.063543	0.892061	-0.084498
Br132	Br	-0.018584	1.163279	0.051842
Br133	Br	-0.689522	1.764324	0.000021
H134	H	0.130343	1.340302	-0.222633
H135	H	-0.322447	1.827085	0.000013
H136	H	0.061779	0.890637	0.084505
Br137	Br	0.148017	1.293085	-0.111230
Br138	Br	-0.019613	1.162448	-0.048885
Br139	Br	-0.074363	1.780724	-0.000009
H140	H	-0.176608	1.715093	0.000009
Br141	Br	-0.545781	1.105925	0.000038
Br142	Br	-0.038027	1.790028	-0.517128
H143	H	-0.413910	1.824644	0.000021
Br144	Br	-0.808377	1.761134	0.000034
H145	H	-0.680852	1.281109	0.000035
H146	H	-0.383734	1.173151	0.000040
H147	H	-0.443542	1.171574	0.000032
Br148	Br	-0.005464	1.703040	-0.237082
H149	H	-0.020345	1.742800	-0.371394
H150	H	-0.020352	1.742806	-0.468285
