data_functionalizedCrystal
_audit_creation_method	'MofGen! by Chris Wilmer'
_symmetry_space_group_name_H-M	'P1'
_symmetry_Int_Tables_number	1
_symmetry_cell_setting	triclinic
loop_
_symmetry_equiv_pos_as_xyz
  x,y,z
_cell_length_a	18.050591
_cell_length_b	19.121063
_cell_length_c	18.050582
_cell_angle_alpha	87.584968
_cell_angle_beta	90.020922
_cell_angle_gamma	92.465257
loop_
_atom_site_label
_atom_site_type_symbol
_atom_site_fract_x
_atom_site_fract_y
_atom_site_fract_z
Zn1	Zn	1.122676	-0.279734	0.432630
Zn2	Zn	1.117290	-0.397178	0.313729
Zn3	Zn	0.998495	-0.279737	0.308441
Zn4	Zn	0.993148	-0.397141	0.437863
O5	O	1.057903	-0.338447	0.373166
O6	O	1.225886	-0.295327	0.416880
O7	O	1.101515	-0.381616	0.209104
O8	O	1.019460	-0.181452	0.320512
O9	O	1.221929	-0.381613	0.329524
O10	O	1.110695	-0.181449	0.411753
O11	O	1.014237	-0.295332	0.205219
O12	O	0.893862	-0.295296	0.325586
O13	O	1.010347	-0.381550	0.541093
O14	O	0.889934	-0.381552	0.420672
O15	O	1.105510	-0.295291	0.537248
O16	O	1.096331	-0.495458	0.334599
O17	O	1.005124	-0.495430	0.425799
C18	C	0.864952	-0.338421	0.373123
C19	C	0.782406	-0.338427	0.373124
C20	C	0.585072	-0.291466	0.321528
C21	C	0.532763	-0.355526	0.306137
C22	C	0.631274	-0.338448	0.373158
C23	C	0.536500	-0.274410	0.388548
C24	C	0.485288	-0.338463	0.373190
C25	C	0.580051	-0.402542	0.357733
C26	C	0.583794	-0.321383	0.440174
C27	C	0.531506	-0.385487	0.424811
C28	C	0.715373	-0.338439	0.373138
C29	C	0.401191	-0.338480	0.373211
C30	C	1.049583	-0.520928	0.381357
C31	C	1.046092	-0.598994	0.384886
C32	C	1.091975	-0.635661	0.339100
C33	C	1.088695	-0.709012	0.342424
C34	C	1.039529	-0.745696	0.391530
C35	C	0.993644	-0.709024	0.437321
C36	C	0.996928	-0.635674	0.434001
C37	C	1.027241	-0.967166	0.403932
C38	C	1.023960	-1.040521	0.407247
C39	C	1.119012	-1.040504	0.312351
C40	C	1.122288	-0.967153	0.309032
C41	C	1.076406	-0.930487	0.354825
C42	C	1.036174	-0.820673	0.394927
C43	C	1.079765	-0.855512	0.351432
C44	C	1.251607	-0.338474	0.373208
C45	C	1.334152	-0.338485	0.373227
C46	C	1.057933	-0.338416	0.566870
C47	C	1.057946	-0.338403	0.649415
C48	C	1.066275	-0.155254	0.364959
C49	C	1.069843	-0.077188	0.361461
C50	C	1.057917	-0.338428	0.180213
C51	C	1.058057	-0.338243	0.097659
C52	C	1.006237	-0.385246	0.850954
C53	C	1.073218	-0.402419	0.901126
C54	C	1.057985	-0.338349	0.800543
C55	C	0.991042	-0.321157	0.897452
C56	C	1.058017	-0.338299	0.946526
C57	C	1.125000	-0.355556	0.849629
C58	C	1.042780	-0.274264	0.845950
C59	C	1.109809	-0.291412	0.896099
C60	C	1.057966	-0.338380	0.716446
C61	C	1.058044	-0.338268	1.030621
H62	H	0.510374	-0.369971	0.249476
C63	C	1.025351	-0.201099	0.813310
N64	N	1.012214	-0.145992	0.788724
C65	C	0.614075	-0.301838	0.516693
N66	N	0.636886	-0.287109	0.574326
C67	C	0.605899	-0.475733	0.340071
N68	N	0.625370	-0.530858	0.326764
H69	H	0.934417	-0.306637	0.918486
C70	C	1.133845	-0.815158	0.297415
N71	N	1.174575	-0.784757	0.256726
H72	H	0.959566	-0.605821	0.471285
C73	C	1.146060	-0.595316	0.285077
N74	N	1.186801	-0.564930	0.244387
H75	H	0.508190	-0.425270	0.468489
C76	C	1.090616	-0.475604	0.933743
N77	N	1.103715	-0.530729	0.958308
C78	C	0.510529	-0.201240	0.406120
N79	N	0.490972	-0.146126	0.419350
H80	H	0.608520	-0.251778	0.277822
C81	C	1.201516	-0.375262	0.821344
N82	N	1.259146	-0.390108	0.800037
H83	H	1.126058	-0.738863	0.305139
C84	C	1.169011	-0.237805	0.922788
N85	N	1.213604	-0.197431	0.942891
H86	H	1.162323	-0.937286	0.269045
H87	H	1.156368	-1.070365	0.275069
H88	H	0.983931	-1.070387	0.447248
H89	H	0.989881	-0.937319	0.441218
H90	H	0.953615	-0.738898	0.477307
H91	H	0.996142	-0.850549	0.434907
C92	C	0.947178	-0.438895	0.824067
N93	N	0.902701	-0.479305	0.803810
