data_functionalizedCrystal
_audit_creation_method	'MofGen! by Chris Wilmer'
_symmetry_space_group_name_H-M	'P1'
_symmetry_Int_Tables_number	1
_symmetry_cell_setting	triclinic
loop_
_symmetry_equiv_pos_as_xyz
  x,y,z
_cell_length_a	17.640112
_cell_length_b	16.994747
_cell_length_c	17.640968
_cell_angle_alpha	101.211591
_cell_angle_beta	87.860920
_cell_angle_gamma	101.231708
loop_
_atom_site_label
_atom_site_type_symbol
_atom_site_fract_x
_atom_site_fract_y
_atom_site_fract_z
Zn1	Zn	1.247784	-0.022661	0.195088
Zn2	Zn	1.222059	-0.185380	0.068161
Zn3	Zn	1.095130	-0.073965	0.093751
Zn4	Zn	1.120797	-0.174998	0.220739
O5	O	1.171443	-0.114251	0.144435
O6	O	1.350637	-0.027120	0.156806
O7	O	1.183714	-0.196416	-0.034709
O8	O	1.115405	0.043222	0.107168
O9	O	1.331736	-0.146669	0.063553
O10	O	1.227559	0.080914	0.181620
O11	O	1.090460	-0.114560	-0.015908
O12	O	0.992271	-0.104493	0.132041
O13	O	1.159150	-0.128975	0.323601
O14	O	1.011128	-0.178722	0.225339
O15	O	1.252447	-0.017053	0.304755
O16	O	1.208602	-0.294384	0.088426
O17	O	1.134205	-0.286756	0.200525
C18	C	0.974146	-0.146049	0.184251
C19	C	0.889745	-0.159666	0.201303
C20	C	1.171406	-0.319190	0.144478
C21	C	1.171411	-0.408511	0.144474
Zn22	Zn	1.095148	-0.705053	0.093725
Zn23	Zn	1.247811	-0.653729	0.195047
Zn24	Zn	1.120820	-0.542389	0.220721
Zn25	Zn	1.222068	-0.552639	0.068133
O26	O	1.171462	-0.613452	0.144407
O27	O	1.115429	-0.808627	0.107132
O28	O	1.252484	-0.613190	0.304715
O29	O	1.011152	-0.581157	0.225330
O30	O	1.227590	-0.770919	0.181573
O31	O	0.992291	-0.700665	0.132027
O32	O	1.159184	-0.531390	0.323578
O33	O	1.134221	-0.433367	0.200514
O34	O	1.183714	-0.598626	-0.034734
O35	O	1.208607	-0.440897	0.088408
O36	O	1.090466	-0.710604	-0.015932
O37	O	1.350659	-0.623129	0.156757
O38	O	1.331745	-0.548858	0.063513
C39	C	0.563042	-0.010783	0.014902
C40	C	0.483737	-0.023592	0.030935
C41	C	0.503393	-0.101066	0.127918
C42	C	0.582702	-0.088260	0.111896
C43	C	0.612520	-0.043118	0.055386
C44	C	0.632180	-0.120595	0.152380
C45	C	0.711482	-0.107793	0.136356
C46	C	0.741305	-0.062656	0.079848
C47	C	0.691821	-0.030316	0.039362
C48	C	0.602360	-0.165741	0.208886
C49	C	0.651838	-0.198077	0.249370
C50	C	0.731142	-0.185270	0.233350
C51	C	0.760966	-0.140133	0.176842
C52	C	0.780626	-0.217610	0.273836
C53	C	0.859927	-0.204808	0.257812
C54	C	0.840267	-0.127331	0.160818
C55	C	1.369510	-0.082330	0.104463
C56	C	1.453914	-0.068727	0.087430
C57	C	1.211531	-0.066133	0.342501
C58	C	1.228614	-0.045628	0.426905
C59	C	1.171483	0.091488	0.144386
C60	C	1.171503	0.180809	0.144365
C61	C	1.131554	-0.162118	-0.052870
C62	C	1.114618	-0.182377	-0.137304
C63	C	1.041954	-0.269549	0.753555
C64	C	1.058023	-0.250269	0.832862
C65	C	1.155164	-0.133735	0.813229
C66	C	1.139102	-0.153003	0.733919
C67	C	1.082496	-0.220912	0.704088
C68	C	1.179644	-0.104366	0.684452
C69	C	1.163585	-0.123635	0.605149
C70	C	1.106984	-0.191542	0.575311
C71	C	1.066437	-0.240181	0.624784
C72	C	1.236253	-0.036461	0.714284
C73	C	1.276795	0.012176	0.664817
C74	C	1.260732	-0.007089	0.585513
C75	C	1.204131	-0.074996	0.555676
C76	C	1.301279	0.041550	0.536040
C77	C	1.285220	0.022280	0.456736
C78	C	1.188072	-0.094265	0.476372
C79	C	1.368755	-0.581538	0.104574
C80	C	1.453163	-0.567903	0.087556
C81	C	1.131355	-0.661483	-0.053656
C82	C	1.114263	-0.681951	-0.138059
C83	C	0.973398	-0.645493	0.184397
C84	C	0.888996	-0.659147	0.201438
C85	C	1.211359	-0.565662	0.341710
C86	C	1.228238	-0.545379	0.426155
C87	C	1.502619	-0.600228	0.128076
C88	C	1.581929	-0.587432	0.112085
C89	C	1.611782	-0.542305	0.055578
C90	C	1.562319	-0.509979	0.015054
C91	C	1.483010	-0.522781	0.031041
C92	C	1.057681	-0.749866	-0.167908
C93	C	1.041607	-0.769101	-0.247210
C94	C	1.082120	-0.720422	-0.296662
C95	C	1.138705	-0.652499	-0.266807
C96	C	1.154774	-0.633263	-0.187506
C97	C	0.859175	-0.603332	0.258020
C98	C	0.779870	-0.616145	0.274033
C99	C	0.730387	-0.684777	0.233466
C100	C	0.760212	-0.740595	0.176878
C101	C	0.839515	-0.727778	0.160862
C102	C	1.187930	-0.492851	0.475529
C103	C	1.203775	-0.473795	0.554877
C104	C	1.259933	-0.507263	0.584848
C105	C	1.300242	-0.559798	0.535468
C106	C	1.284392	-0.578858	0.456123
H107	H	0.864548	-0.090558	0.114814
C108	C	0.728316	-0.887082	0.144801
C109	C	0.705815	-0.816040	0.132296
H110	H	0.694734	-0.933659	0.117278
H111	H	0.725660	-0.888337	0.198439
H112	H	0.779811	-0.887434	0.127153
H113	H	0.654321	-0.815685	0.149949
H114	H	0.708463	-0.814784	0.078647
H115	H	1.272832	-0.491736	0.649458
H116	H	0.587323	0.025990	-0.031103
C117	C	0.808022	-0.292902	0.368106
C118	C	0.747845	-0.267225	0.335951
H119	H	0.787783	-0.323534	0.406452
H120	H	0.844843	-0.246518	0.390943
H121	H	0.832243	-0.326079	0.328728
H122	H	0.723627	-0.234043	0.375328
H123	H	0.711011	-0.313616	0.313114
C124	C	1.434816	0.106622	0.534485
C125	C	1.363502	0.116189	0.568836
H126	H	1.473230	0.152699	0.554735
H127	H	1.431048	0.102114	0.480183
H128	H	1.448540	0.058568	0.545252
H129	H	1.349775	0.164240	0.558063
H130	H	1.367269	0.120705	0.623150
H131	H	1.024687	-0.789513	-0.127654
H132	H	0.863788	-0.773235	0.114790
C133	C	0.947269	-0.882439	-0.219862
C134	C	0.979417	-0.843772	-0.280017
H135	H	0.908881	-0.928541	-0.240116
H136	H	0.924477	-0.845272	-0.183056
H137	H	0.986646	-0.899741	-0.195625
H138	H	0.940041	-0.826465	-0.304250
H139	H	1.002209	-0.880946	-0.316836
H140	H	1.069028	-0.736096	-0.361233
C141	C	0.472273	0.054284	-0.066549
C142	C	0.429349	0.011959	-0.013568
H143	H	0.438695	0.076233	-0.094018
H144	H	0.497307	0.017887	-0.101887
H145	H	0.509918	0.097445	-0.039668
H146	H	0.391707	-0.031206	-0.040449
H147	H	0.404302	0.048359	0.021775
H148	H	0.899455	-0.547442	0.291059
H149	H	1.171686	-0.612870	-0.307083
H150	H	1.200852	-0.577962	-0.163210
C151	C	0.807287	-0.491855	0.368473
C152	C	0.747100	-0.554790	0.336244
H153	H	0.787057	-0.453982	0.406883
H154	H	0.831511	-0.464704	0.329154
H155	H	0.844105	-0.514200	0.391252
H156	H	0.710284	-0.532446	0.313460
H157	H	0.722864	-0.581944	0.375571
H158	H	1.142204	-0.465589	0.451137
H159	H	0.900214	-0.231137	0.290779
H160	H	0.665814	-0.695202	0.246511
C161	C	1.673216	-0.676625	0.104579
C162	C	1.636288	-0.622961	0.156642
H163	H	1.706769	-0.698560	0.132089
H164	H	1.702347	-0.647924	0.068642
H165	H	1.635572	-0.719792	0.077705
H166	H	1.673932	-0.579789	0.183512
H167	H	1.607156	-0.651662	0.192592
C168	C	1.222917	-0.052446	0.926078
C169	C	1.217381	-0.059090	0.846024
H170	H	1.261323	-0.006358	0.946322
H171	H	1.236656	-0.100488	0.936837
H172	H	1.174526	-0.045971	0.949367
H173	H	1.265771	-0.065571	0.822734
H174	H	1.203647	-0.011036	0.835258
H175	H	1.141960	-0.149547	0.452086
H176	H	1.093913	-0.207232	0.510736
H177	H	1.170949	-0.431015	0.595071
C178	C	1.367368	-0.568744	0.648491
C179	C	1.361973	-0.596578	0.568421
H180	H	1.405484	-0.591444	0.668833
H181	H	1.318842	-0.585088	0.671647
H182	H	1.381449	-0.510820	0.659292
H183	H	1.347886	-0.654502	0.557619
H184	H	1.410509	-0.580238	0.545257
H185	H	0.537787	-0.176163	0.221930
C186	C	0.850964	-0.124050	0.037433
C187	C	0.828474	-0.048584	0.062227
H188	H	0.904779	-0.115361	0.026558
H189	H	0.823089	-0.152409	-0.007954
H190	H	0.840287	-0.155553	0.076887
H191	H	0.839146	-0.017083	0.022770
H192	H	0.856358	-0.020212	0.107620
C193	C	0.972041	-0.353475	0.652146
C194	C	1.004233	-0.314844	0.591983
H195	H	0.933651	-0.399574	0.631891
H196	H	0.949245	-0.316287	0.688923
H197	H	1.011397	-0.370777	0.676416
H198	H	0.964878	-0.297537	0.567717
H199	H	1.027029	-0.352039	0.555192
H200	H	1.317223	-0.621627	0.415927
C201	C	0.664430	0.044978	-0.054916
C202	C	0.724604	0.019297	-0.022760
H203	H	0.684670	0.075598	-0.093271
H204	H	0.640217	0.078160	-0.015546
H205	H	0.627600	-0.001411	-0.077749
H206	H	0.761432	0.065687	0.000079
H207	H	0.748829	-0.013886	-0.062136
H208	H	0.479104	-0.137823	0.173926
H209	H	0.627549	-0.234834	0.295378
H210	H	0.995842	-0.324831	0.729269
H211	H	1.025004	-0.289881	0.873136
H212	H	1.249328	-0.020776	0.778858
H213	H	1.322885	0.067465	0.689116
H214	H	1.318232	0.061887	0.416459
H215	H	1.478325	-0.636973	0.174091
C216	C	1.710796	-0.561530	-0.039573
C217	C	1.698962	-0.528234	0.038014
H218	H	1.764619	-0.552847	-0.050410
H219	H	1.685624	-0.535816	-0.071789
H220	H	1.690182	-0.618514	-0.049134
H221	H	1.719572	-0.471249	0.047574
H222	H	1.724144	-0.553946	0.070240
H223	H	1.586638	-0.473236	-0.030955
H224	H	1.442748	-0.496450	-0.001955
