data_functionalizedCrystal
_audit_creation_method	'MofGen! by Chris Wilmer'
_symmetry_space_group_name_H-M	'P1'
_symmetry_Int_Tables_number	1
_symmetry_cell_setting	triclinic
loop_
_symmetry_equiv_pos_as_xyz
  x,y,z
_cell_length_a	19.805407
_cell_length_b	18.050589
_cell_length_c	19.805398
_cell_angle_alpha	90.020430
_cell_angle_beta	89.985905
_cell_angle_gamma	89.967986
loop_
_atom_site_label
_atom_site_type_symbol
_atom_site_fract_x
_atom_site_fract_y
_atom_site_fract_z
Zn1	Zn	1.034672	0.295742	-0.382713
Zn2	Zn	1.034578	0.419931	-0.269536
Zn3	Zn	0.921494	0.295753	-0.269542
Zn4	Zn	0.921434	0.419889	-0.382686
O5	O	0.978044	0.357829	-0.326119
O6	O	1.129376	0.312229	-0.367709
O7	O	1.019563	0.403480	-0.174820
O8	O	0.936572	0.191827	-0.284568
O9	O	1.129307	0.403470	-0.284558
O10	O	1.019723	0.191819	-0.367715
O11	O	0.936480	0.312248	-0.174824
O12	O	0.826769	0.312207	-0.284541
O13	O	0.936469	0.403399	-0.477406
O14	O	0.826725	0.403409	-0.367668
O15	O	1.019665	0.312188	-0.477426
O16	O	1.019504	0.523850	-0.284532
O17	O	0.936378	0.523819	-0.367663
C18	C	0.802188	0.357805	-0.326103
C19	C	0.726956	0.357813	-0.326112
C20	C	0.691649	0.310388	-0.369474
C21	C	0.620960	0.310392	-0.369477
C22	C	0.585581	0.357825	-0.326120
C23	C	0.620893	0.405253	-0.282753
C24	C	0.691580	0.405244	-0.282747
C25	C	0.335820	0.405286	-0.282773
C26	C	0.265128	0.405292	-0.282784
C27	C	0.265200	0.310434	-0.369503
C28	C	0.335887	0.310426	-0.369498
C29	C	0.371193	0.357850	-0.326128
C30	C	0.447842	0.357844	-0.326125
C31	C	0.508934	0.357836	-0.326126
C32	C	0.977943	0.550781	-0.326109
C33	C	0.977961	0.633327	-0.326127
C34	C	0.932781	0.832788	-0.371318
C35	C	0.916281	0.882224	-0.309556
C36	C	0.978012	0.784457	-0.326136
C37	C	0.994530	0.882103	-0.387906
C38	C	0.978060	0.930442	-0.326151
C39	C	0.961480	0.832806	-0.264341
C40	C	1.039757	0.832680	-0.342733
C41	C	1.023281	0.882094	-0.280928
C42	C	0.977983	0.700359	-0.326129
C43	C	0.978089	1.014539	-0.326151
C44	C	1.154587	0.357853	-0.326136
C45	C	1.229819	0.357863	-0.326143
C46	C	0.978071	0.357788	-0.502662
C47	C	0.978082	0.357770	-0.577894
C48	C	0.978139	1.164123	-0.326146
C49	C	0.978113	1.081577	-0.326159
C50	C	1.021484	0.310145	-1.039697
C51	C	1.021473	0.310168	-0.969008
C52	C	0.978152	0.357667	-0.933656
C53	C	0.934843	0.405151	-0.968996
C54	C	0.934857	0.405131	-1.039683
C55	C	0.934784	0.405232	-0.683922
C56	C	0.934771	0.405246	-0.613230
C57	C	1.021400	0.310268	-0.613248
C58	C	1.021414	0.310249	-0.683935
C59	C	0.978108	0.357735	-0.719269
C60	C	0.978121	0.357711	-0.795917
C61	C	0.978135	0.357688	-0.857009
C62	C	0.978057	0.357816	-0.150263
C63	C	0.978177	0.357624	-0.075032
H64	H	0.592081	0.443870	-0.247447
N65	N	0.374044	0.259262	-0.416259
H66	H	0.424182	0.266454	-0.409676
H67	H	0.361700	0.270892	-0.464582
N68	N	0.888113	0.456377	-0.930867
H69	H	0.860680	0.486452	-0.963980
H70	H	0.915635	0.490756	-0.901534
H71	H	0.947468	0.811241	-0.212094
N72	N	0.227125	0.259273	-0.416279
H73	H	0.197792	0.289501	-0.447601
H74	H	0.197844	0.224825	-0.388783
N75	N	1.073979	0.910595	-0.230272
H76	H	1.061435	0.892565	-0.183660
H77	H	1.073981	0.966542	-0.230888
N78	N	0.847149	0.911060	-0.290957
H79	H	0.834341	0.892355	-0.244639
H80	H	0.813038	0.893127	-0.325146
H81	H	1.091938	0.810904	-0.356787
N82	N	0.882047	0.804100	-0.421851
H83	H	0.882691	0.748150	-0.421791
H84	H	0.894051	0.822853	-0.468366
H85	H	1.008481	0.903757	-0.440139
N86	N	0.729667	0.456397	-0.235981
H87	H	0.758995	0.426164	-0.204660
H88	H	0.696488	0.486439	-0.208561
N89	N	1.068203	0.258907	-1.077825
H90	H	1.095636	0.228833	-1.044711
H91	H	1.099514	0.289129	-1.107154
N92	N	0.226966	0.456454	-0.236017
H93	H	0.260057	0.486494	-0.208540
H94	H	0.197638	0.426176	-0.204749
N95	N	0.582880	0.259248	-0.416255
H96	H	0.532732	0.266447	-0.409680
H97	H	0.595256	0.206191	-0.405807
N98	N	0.373895	0.456432	-0.235997
H99	H	0.340754	0.486481	-0.208534
H100	H	0.403221	0.490839	-0.263488
N101	N	0.888075	0.456444	-0.722026
H102	H	0.898552	0.509509	-0.709713
H103	H	0.839738	0.444842	-0.709707
H104	H	0.899593	0.443794	-1.068452
N105	N	1.068185	0.258961	-0.930896
H106	H	1.095628	0.228866	-0.964018
H107	H	1.040649	0.224600	-0.901567
N108	N	0.729806	0.259234	-0.416244
H109	H	0.717528	0.206156	-0.405818
H110	H	0.779931	0.266492	-0.409641
H111	H	1.056689	0.271568	-0.712715
H112	H	1.056664	0.271604	-0.584471
N113	N	0.888036	0.456470	-0.575098
H114	H	0.860603	0.486549	-0.608207
H115	H	0.915557	0.490848	-0.545760
