data_functionalizedCrystal
_audit_creation_method	'MofGen! by Chris Wilmer'
_symmetry_space_group_name_H-M	'P1'
_symmetry_Int_Tables_number	1
_symmetry_cell_setting	triclinic
loop_
_symmetry_equiv_pos_as_xyz
  x,y,z
_cell_length_a	14.519731
_cell_length_b	14.044220
_cell_length_c	12.996460
_cell_angle_alpha	90.001035
_cell_angle_beta	90.006310
_cell_angle_gamma	88.438865
loop_
_atom_site_label
_atom_site_type_symbol
_atom_site_fract_x
_atom_site_fract_y
_atom_site_fract_z
O1	O	1.233889	0.124362	0.085572
O2	O	1.567223	0.457695	0.418905
O3	O	1.900556	0.791028	0.752239
O4	O	0.966594	0.138975	0.085574
O5	O	1.299927	0.472308	0.418907
O6	O	1.633260	0.805642	0.752241
O7	O	1.096229	-0.006323	0.085563
O8	O	1.429563	0.327010	0.418896
O9	O	1.762896	0.660343	0.752230
O10	O	1.104254	0.269660	0.085583
O11	O	1.437587	0.602993	0.418917
O12	O	1.770920	0.936327	0.752250
O13	O	1.096212	-0.006315	-0.085571
O14	O	1.429545	0.327018	0.247762
O15	O	1.762879	0.660352	0.581096
O16	O	0.966576	0.138983	-0.085560
O17	O	1.299910	0.472317	0.247774
O18	O	1.633243	0.805650	0.581107
O19	O	1.233872	0.124370	-0.085562
O20	O	1.567205	0.457703	0.247772
O21	O	1.900538	0.791037	0.581105
Cu22	Cu	1.100222	0.131677	-0.101187
Cu23	Cu	1.433556	0.465011	0.232147
Cu24	Cu	1.766889	0.798344	0.565480
Cu25	Cu	1.100243	0.131668	0.101199
Cu26	Cu	1.433576	0.465001	0.434532
Cu27	Cu	1.766910	0.798334	0.767866
O28	O	1.104236	0.269668	-0.085551
O29	O	1.437569	0.603002	0.247783
O30	O	1.770903	0.936335	0.581116
C31	C	0.932170	0.138295	0.000007
C32	C	1.265504	0.471628	0.333341
C33	C	1.598837	0.804961	0.666674
C34	C	0.829625	0.136243	0.000008
C35	C	1.162958	0.469576	0.333341
C36	C	1.496291	0.802909	0.666674
C37	C	1.092708	-0.041640	-0.000004
C38	C	1.426042	0.291693	0.333329
C39	C	1.759375	0.625027	0.666662
C40	C	1.082231	-0.146884	-0.000006
C41	C	1.415564	0.186449	0.333328
C42	C	1.748898	0.519782	0.666661
C43	C	0.746346	0.134575	0.000012
C44	C	1.079679	0.467909	0.333345
C45	C	1.413013	0.801242	0.666678
C46	C	0.641869	0.132492	0.000012
C47	C	0.975203	0.465825	0.333345
C48	C	1.308536	0.799159	0.666679
C49	C	0.558597	0.130839	0.000012
C50	C	0.891930	0.464172	0.333345
C51	C	1.225263	0.797505	0.666678
C52	C	0.454113	0.128756	0.000014
C53	C	0.787447	0.462089	0.333347
C54	C	1.120780	0.795422	0.666681
C55	C	1.063077	-0.339580	0.000009
C56	C	1.396410	-0.006246	0.333343
C57	C	1.729743	0.327087	0.666676
C58	C	1.137385	-0.397081	0.000012
C59	C	1.470718	-0.063748	0.333345
C60	C	1.804051	0.269586	0.666679
C61	C	1.126727	-0.504303	0.000020
C62	C	1.460060	-0.170970	0.333354
C63	C	1.793394	0.162363	0.666687
C64	C	1.073733	-0.232347	0.000001
C65	C	1.407066	0.100986	0.333334
C66	C	1.740400	0.434319	0.666668
C67	C	1.268295	0.125050	0.000007
C68	C	1.601629	0.458384	0.333341
C69	C	1.934962	0.791717	0.666674
C70	C	1.370841	0.127102	0.000014
C71	C	1.704174	0.460436	0.333347
C72	C	2.037508	0.793769	0.666680
C73	C	1.107757	0.304985	0.000019
C74	C	1.441091	0.638318	0.333352
C75	C	1.774424	0.971652	0.666686
C76	C	1.118234	0.410229	0.000027
C77	C	1.451568	0.743563	0.333360
C78	C	1.784901	1.076896	0.666694
N79	N	1.100214	0.131684	-0.243534
N80	N	1.433548	0.465017	0.089800
N81	N	1.766881	0.798351	0.423133
C82	C	1.100219	0.131686	-0.336640
C83	C	1.433552	0.465020	-0.003306
C84	C	1.766886	0.798353	0.330027
C85	C	1.100227	0.131680	-0.453445
C86	C	1.433560	0.465013	-0.120111
C87	C	1.766893	0.798347	0.213222
C88	C	1.100238	0.131669	-0.546543
C89	C	1.433571	0.465003	-0.213210
C90	C	1.766904	0.798336	0.120124
C91	C	1.100247	0.131664	-0.663356
C92	C	1.433580	0.464997	-0.330022
C93	C	1.766914	0.798331	0.003311
N94	N	1.100258	0.131654	0.243546
N95	N	1.433591	0.464987	0.576879
N96	N	1.766924	0.798320	0.910213
H97	H	1.209006	-0.365783	0.000080
H98	H	1.542339	-0.032450	0.333414
H99	H	1.875672	0.300884	0.666747
H100	H	0.991461	-0.370876	0.000012
H101	H	1.324795	-0.037543	0.333346
H102	H	1.658128	0.295791	0.666679
