data_functionalizedCrystal
_audit_creation_method	'MofGen! by Chris Wilmer'
_symmetry_space_group_name_H-M	'P1'
_symmetry_Int_Tables_number	1
_symmetry_cell_setting	triclinic
loop_
_symmetry_equiv_pos_as_xyz
  x,y,z
_cell_length_a	12.759401
_cell_length_b	21.295417
_cell_length_c	12.759393
_cell_angle_alpha	89.961947
_cell_angle_beta	89.981708
_cell_angle_gamma	90.030668
loop_
_atom_site_label
_atom_site_type_symbol
_atom_site_fract_x
_atom_site_fract_y
_atom_site_fract_z
Zn1	Zn	1.606138	-0.250576	-0.593926
Zn2	Zn	1.605984	-0.355858	-0.418223
Zn3	Zn	1.430440	-0.250607	-0.418265
Zn4	Zn	1.430380	-0.355812	-0.593864
O5	O	1.518236	-0.303213	-0.506069
O6	O	1.753139	-0.264549	-0.570626
O7	O	1.582659	-0.341929	-0.271207
O8	O	1.453837	-0.162514	-0.441611
O9	O	1.753026	-0.341899	-0.441538
O10	O	1.582921	-0.162491	-0.570668
O11	O	1.453688	-0.264601	-0.271238
O12	O	1.283411	-0.264556	-0.441551
O13	O	1.453734	-0.341820	-0.740893
O14	O	1.283367	-0.341850	-0.570562
O15	O	1.582862	-0.264504	-0.740939
O16	O	1.582601	-0.443942	-0.441478
O17	O	1.453585	-0.443907	-0.570521
C18	C	1.245268	-0.303202	-0.506055
C19	C	1.128492	-0.303212	-0.506074
C20	C	1.073634	-0.343523	-0.573139
C21	C	0.963910	-0.343531	-0.573151
C22	C	0.963911	-0.262915	-0.439022
C23	C	1.073633	-0.262904	-0.439017
C24	C	1.128493	-0.383831	-0.640196
C25	C	1.073635	-0.424146	-0.707266
C26	C	0.963911	-0.424154	-0.707277
C27	C	0.909045	-0.383847	-0.640219
C28	C	1.518098	-0.466765	-0.506011
C29	C	1.518135	-0.536733	-0.506021
C30	C	1.585373	-0.569597	-0.438898
C31	C	1.585423	-0.635339	-0.438921
C32	C	1.518215	-0.668216	-0.506058
C33	C	1.450972	-0.635344	-0.573195
C34	C	1.450932	-0.569603	-0.573177
N35	N	1.426308	-0.771481	-0.514062
N36	N	1.426349	-0.833933	-0.514073
C37	C	1.518333	-0.866290	-0.506118
N38	N	1.610276	-0.833838	-0.498130
N39	N	1.610234	-0.771380	-0.498114
C40	C	1.518251	-0.739501	-0.506085
C41	C	1.585630	-0.970439	-0.439016
C42	C	1.585681	-1.036183	-0.439047
C43	C	1.451221	-1.036187	-0.573315
C44	C	1.451179	-0.970444	-0.573289
C45	C	1.518382	-0.937575	-0.506134
C46	C	1.792269	-0.303226	-0.506084
C47	C	1.909046	-0.303231	-0.506091
C48	C	1.518308	-0.303153	-0.780103
C49	C	1.518339	-0.303127	-0.896880
C50	C	1.518403	-0.139023	-0.506151
C51	C	1.518474	-0.069055	-0.506185
C52	C	1.585498	-0.343377	-0.951723
C53	C	1.585530	-0.343350	-1.061447
C54	C	1.451235	-0.262823	-1.061475
C55	C	1.451209	-0.262847	-0.951753
C56	C	1.652628	-0.383657	-0.896849
C57	C	1.719791	-0.423910	-0.951693
C58	C	1.719823	-0.423883	-1.061417
C59	C	1.652691	-0.383603	-1.116298
C60	C	1.518224	-0.303228	-0.233102
C61	C	1.518396	-0.303076	-0.116326
H62	H	1.118314	-0.456958	-0.761869
H63	H	0.919230	-0.230100	-0.384426
H64	H	1.774453	-0.456700	-0.907001
O65	O	0.910783	-0.463370	-0.772462
C66	C	0.922369	-0.543304	-0.905540
C67	C	0.982663	-0.498930	-0.831756
H68	H	0.980457	-0.572056	-0.953514
H69	H	0.870987	-0.576230	-0.857255
H70	H	0.871013	-0.514438	-0.960527
H71	H	1.034076	-0.527745	-0.776754
H72	H	1.033979	-0.466002	-0.880106
O73	O	1.385511	-0.537774	-0.638414
C74	C	1.252203	-0.544715	-0.771639
C75	C	1.326222	-0.580841	-0.697796
H76	H	1.204263	-0.579519	-0.819684
H77	H	1.197202	-0.514009	-0.723397
H78	H	1.300408	-0.513864	-0.826558
H79	H	1.278101	-0.611726	-0.642862
H80	H	1.381225	-0.611507	-0.746103
O81	O	1.650770	-0.667175	-0.373611
C82	C	1.784156	-0.660238	-0.240462
C83	C	1.710190	-0.624109	-0.314355
H84	H	1.832232	-0.625435	-0.192550
H85	H	1.736008	-0.691050	-0.185430
H86	H	1.839040	-0.690982	-0.288764
H87	H	1.655290	-0.593331	-0.266138
H88	H	1.758402	-0.593336	-0.369390
H89	H	1.640354	-0.943676	-0.384338
O90	O	0.802458	-0.383933	-0.640362
C91	C	0.645001	-0.428107	-0.714090
C92	C	0.765705	-0.428092	-0.714001
H93	H	0.615250	-0.463796	-0.773637
H94	H	0.615066	-0.441142	-0.632736
H95	H	0.615327	-0.379352	-0.736012
H96	H	0.795469	-0.476832	-0.692125
H97	H	0.795569	-0.415022	-0.795365
O98	O	1.126971	-0.223682	-0.374015
C99	C	1.250946	-0.138696	-0.360134
C100	C	1.190590	-0.183069	-0.433867
H101	H	1.302413	-0.105859	-0.408493
H102	H	1.192934	-0.109849	-0.312222
H103	H	1.302230	-0.167566	-0.305085
H104	H	1.139305	-0.154248	-0.488979
H105	H	1.248658	-0.211919	-0.481705
O106	O	1.785098	-0.463039	-1.114530
C107	C	1.918337	-0.542889	-1.102916
C108	C	1.844452	-0.498583	-1.042638
H109	H	1.966360	-0.571628	-1.044817
H110	H	1.870130	-0.575830	-1.154239
H111	H	1.973275	-0.513971	-1.154329
H112	H	1.789500	-0.527450	-0.991167
H113	H	1.892725	-0.465640	-0.991381
O114	O	1.385874	-0.223733	-1.114667
C115	C	1.207196	-0.193189	-1.148287
C116	C	1.281104	-0.237486	-1.087967
H117	H	1.122473	-0.204301	-1.126739
H118	H	1.225605	-0.142425	-1.126724
H119	H	1.218803	-0.200076	-1.236124
H120	H	1.269539	-0.230655	-1.000116
H121	H	1.262678	-0.288234	-1.109617
O122	O	1.385919	-0.223840	-0.898353
C123	C	1.244020	-0.215397	-0.774502
C124	C	1.317908	-0.259645	-0.834895
H125	H	1.189000	-0.244329	-0.723198
H126	H	1.292225	-0.182508	-0.723082
H127	H	1.196085	-0.186592	-0.832583
H128	H	1.365859	-0.288491	-0.776889
H129	H	1.269643	-0.292493	-0.886330
H130	H	1.396504	-1.062954	-0.627983
O131	O	1.385803	-0.938447	-0.638339
C132	C	1.243862	-0.864321	-0.652320
C133	C	1.317851	-0.900507	-0.578528
H134	H	1.188890	-0.833648	-0.603991
H135	H	1.291991	-0.833446	-0.707271
H136	H	1.195881	-0.899120	-0.700334
H137	H	1.365848	-0.865753	-0.530446
H138	H	1.269663	-0.931392	-0.523646
H139	H	1.652607	-0.383685	-0.807507
H140	H	1.640097	-0.542836	-0.384219
H141	H	1.396253	-0.662116	-0.627859
H142	H	1.640441	-1.062939	-0.384389
H143	H	1.217836	-0.383830	-0.640192
H144	H	1.652731	-0.383580	-1.205643
