data_functionalizedCrystal
_audit_creation_method	'MofGen! by Chris Wilmer'
_symmetry_space_group_name_H-M	'P1'
_symmetry_Int_Tables_number	1
_symmetry_cell_setting	triclinic
loop_
_symmetry_equiv_pos_as_xyz
  x,y,z
_cell_length_a	10.723022
_cell_length_b	13.596369
_cell_length_c	10.723023
_cell_angle_alpha	89.996484
_cell_angle_beta	84.467387
_cell_angle_gamma	90.006782
loop_
_atom_site_label
_atom_site_type_symbol
_atom_site_fract_x
_atom_site_fract_y
_atom_site_fract_z
O1	O	1.657169	-0.081782	0.175020
O2	O	2.157169	0.418218	0.675020
O3	O	1.294016	-0.081785	0.191775
O4	O	1.794016	0.418215	0.691775
O5	O	1.483970	-0.081780	0.001821
O6	O	1.983970	0.418220	0.501821
O7	O	1.467216	-0.081787	0.364974
O8	O	1.967216	0.418213	0.864974
O9	O	1.483993	0.081803	0.001811
O10	O	1.983993	0.581803	0.501811
O11	O	1.294040	0.081798	0.191765
O12	O	1.794040	0.581798	0.691765
O13	O	1.657193	0.081801	0.175010
O14	O	2.157193	0.581801	0.675010
Zn15	Zn	1.475620	0.107772	0.183386
Zn16	Zn	1.975620	0.607772	0.683386
Zn17	Zn	1.475589	-0.107756	0.183399
Zn18	Zn	1.975589	0.392244	0.683399
O19	O	1.467239	0.081796	0.364964
O20	O	1.967239	0.581796	0.864964
C21	C	1.247529	0.000006	0.190551
C22	C	1.747529	0.500006	0.690551
C23	C	1.108974	0.000005	0.186904
C24	C	1.608974	0.500005	0.686904
C25	C	1.060414	0.000006	0.077365
C26	C	1.560414	0.500006	0.577365
C27	C	0.917211	0.000005	0.073593
C28	C	1.417211	0.500005	0.573593
N29	N	1.475569	-0.254848	0.183400
N30	N	1.975569	0.245152	0.683400
C31	C	1.475573	-0.343845	0.183401
C32	C	1.975573	0.156155	0.683401
C33	C	1.475591	-0.455497	0.183398
C34	C	1.975591	0.044503	0.683398
C35	C	1.475612	-0.544487	0.183389
C36	C	1.975612	-0.044487	0.683389
C37	C	1.475629	-0.656146	0.183385
C38	C	1.975629	-0.156146	0.683385
C39	C	1.703681	0.000008	0.176234
C40	C	2.203681	0.500008	0.676234
C41	C	1.842235	0.000003	0.179881
C42	C	2.342235	0.500003	0.679881
C43	C	1.482763	0.000010	-0.044683
C44	C	1.982763	0.500010	0.455317
C45	C	1.479115	0.000006	-0.183238
C46	C	1.979115	0.500006	0.316762
N47	N	1.475650	0.254864	0.183376
N48	N	1.975650	0.754864	0.683376
C49	C	1.477501	0.084745	-0.245021
C50	C	1.977501	0.584745	0.254979
C51	C	1.473732	0.084743	-0.388224
C52	C	1.973732	0.584743	0.111776
C53	C	1.468446	0.000004	0.411469
C54	C	1.968446	0.500004	0.911469
C55	C	1.472094	0.000001	0.550023
C56	C	1.972094	0.500001	1.050023
H57	H	1.124856	0.000004	-0.013624
H58	H	1.624856	0.500004	0.486376
H59	H	1.473471	-0.072551	-0.396852
H60	H	1.973471	0.427449	0.103148
H61	H	1.477712	-0.072543	-0.236361
H62	H	1.977712	0.427457	0.263639
H63	H	0.875399	-0.000018	-0.020195
H64	H	1.375399	0.499982	0.479805
H65	H	0.884038	0.000007	0.273673
H66	H	1.384038	0.500007	0.773673
H67	H	1.478917	0.157295	-0.191899
H68	H	1.978917	0.657295	0.308101
H69	H	1.044532	-0.000001	0.277893
H70	H	1.544532	0.499999	0.777893
C71	C	1.579771	0.236719	-0.441683
C72	C	2.079771	0.736719	0.058317
C73	C	1.471853	0.182687	-0.459941
C74	C	1.971853	0.682687	0.040059
H75	H	1.578603	0.297189	-0.485955
H76	H	2.078603	0.797189	0.014045
H77	H	1.651836	0.200061	-0.471854
H78	H	2.151836	0.700061	0.028146
H79	H	1.582048	0.249566	-0.354854
H80	H	2.082048	0.749566	0.145146
H81	H	1.469581	0.169833	-0.546769
H82	H	1.969581	0.669833	-0.046769
H83	H	1.399768	0.219353	-0.429776
H84	H	1.899768	0.719353	0.070224
