data_functionalizedCrystal
_audit_creation_method	'MofGen! by Chris Wilmer'
_symmetry_space_group_name_H-M	'P1'
_symmetry_Int_Tables_number	1
_symmetry_cell_setting	triclinic
loop_
_symmetry_equiv_pos_as_xyz
  x,y,z
_cell_length_a	10.489741
_cell_length_b	14.044220
_cell_length_c	9.565339
_cell_angle_alpha	90.002311
_cell_angle_beta	89.994586
_cell_angle_gamma	88.864026
loop_
_atom_site_label
_atom_site_type_symbol
_atom_site_fract_x
_atom_site_fract_y
_atom_site_fract_z
O1	O	-1.707615	-0.133831	-0.116177
O2	O	-1.337693	-0.146394	-0.116199
O3	O	-1.517101	-0.002090	-0.116175
O4	O	-1.528207	-0.278135	-0.116202
O5	O	-1.517111	-0.002094	0.116345
O6	O	-1.337702	-0.146398	0.116321
O7	O	-1.707624	-0.133836	0.116343
Zn8	Zn	-1.522664	-0.140118	0.153249
Zn9	Zn	-1.522653	-0.140112	-0.153106
O10	O	-1.528216	-0.278139	0.116318
C11	C	-1.290070	-0.145447	0.000058
C12	C	-1.148152	-0.142609	0.000050
C13	C	-1.512245	0.033255	0.000086
C14	C	-1.497745	0.138580	0.000086
C15	C	-1.755247	-0.134782	0.000082
C16	C	-1.897165	-0.137621	0.000081
C17	C	-1.070700	-0.050792	0.000072
C18	C	-0.982968	-0.094163	-0.114574
C19	C	-0.983013	-0.094189	0.114673
C20	C	-1.062289	-0.186017	-0.114691
C21	C	-1.062343	-0.186031	0.114659
C22	C	-0.974645	-0.229468	-0.000015
C23	C	-1.533072	-0.313485	0.000055
C24	C	-1.547572	-0.418810	0.000045
N25	N	-1.522682	-0.140121	0.362329
C26	C	-1.471237	0.331422	0.000065
C27	C	-1.574075	0.388354	0.000067
C28	C	-1.559325	0.495658	0.000055
C29	C	-1.485985	0.224108	0.000077
N30	N	-1.522644	-0.140101	-0.362185
C31	C	-1.605682	-0.073390	0.453506
C32	C	-1.488237	-0.054177	0.546671
C33	C	-1.640074	-0.159271	0.546719
C34	C	-1.405175	-0.120866	0.453442
C35	C	-1.557091	-0.225998	0.453482
C36	C	-1.439568	-0.206821	0.546605
H37	H	-0.948009	-0.055312	-0.211493
O38	O	-1.339948	0.373603	0.000080
H39	H	-1.328324	0.418207	-0.094683
H40	H	-1.586253	-0.298607	0.412517
O41	O	-1.126269	0.049220	-0.000055
H42	H	-1.186587	0.059703	-0.094350
H43	H	-0.948097	-0.055325	0.211598
O44	O	-1.705369	0.346168	0.000088
H45	H	-1.757947	0.370126	-0.094685
H46	H	-1.739366	-0.175478	0.587690
O47	O	-1.698557	0.001391	0.399335
H48	H	-1.669668	0.072619	0.436657
H49	H	-1.097051	-0.224835	-0.211724
H50	H	-1.459109	0.018455	0.587606
H51	H	-1.097330	-0.224850	0.211583
O52	O	-1.273613	-0.099255	0.399419
H53	H	-1.274677	-0.099386	0.283387
O54	O	-0.919335	-0.329556	-0.000079
H55	H	-0.951210	-0.367428	-0.095334
O56	O	-1.346471	-0.281557	0.600452
H57	H	-1.249137	-0.265419	0.562898
