data_functionalizedCrystal
_audit_creation_method	'MofGen! by Chris Wilmer'
_symmetry_space_group_name_H-M	'P1'
_symmetry_Int_Tables_number	1
_symmetry_cell_setting	triclinic
loop_
_symmetry_equiv_pos_as_xyz
  x,y,z
_cell_length_a	19.188930
_cell_length_b	13.930277
_cell_length_c	14.853567
_cell_angle_alpha	89.999243
_cell_angle_beta	83.389856
_cell_angle_gamma	89.978906
loop_
_atom_site_label
_atom_site_type_symbol
_atom_site_fract_x
_atom_site_fract_y
_atom_site_fract_z
O1	O	0.926523	-0.080132	0.112552
O2	O	1.426523	0.419868	0.612552
O3	O	0.723262	-0.080065	0.127704
O4	O	1.223262	0.419935	0.627704
O5	O	0.830322	-0.080103	-0.011132
O6	O	1.330322	0.419897	0.488868
O7	O	0.819463	-0.080094	0.251388
O8	O	1.319463	0.419906	0.751388
O9	O	0.830307	0.079559	-0.011135
O10	O	1.330307	0.579559	0.488865
O11	O	0.723247	0.079597	0.127701
O12	O	1.223247	0.579597	0.627701
O13	O	0.926508	0.079530	0.112549
O14	O	1.426508	0.579530	0.612549
Zn15	Zn	0.824875	0.104913	0.120124
Zn16	Zn	1.324875	0.604913	0.620124
Zn17	Zn	0.824895	-0.105448	0.120128
Zn18	Zn	1.324895	0.394552	0.620128
O19	O	0.819448	0.079568	0.251385
O20	O	1.319448	0.579568	0.751385
C21	C	0.697242	-0.000225	0.127211
C22	C	1.197242	0.499775	0.627211
C23	C	0.619733	-0.000200	0.125739
C24	C	1.119733	0.499800	0.625739
N25	N	0.824867	0.248479	0.120121
N26	N	1.324867	0.748479	0.620121
N27	N	0.824909	-0.249014	0.120124
N28	N	1.324909	0.250986	0.620124
C29	C	0.575080	-0.000212	0.207203
C30	C	1.075080	0.499788	0.707203
C31	C	0.502252	-0.000223	0.205819
C32	C	1.002252	0.499777	0.705819
C33	C	0.474079	-0.000241	0.122966
C34	C	0.974079	0.499759	0.622966
C35	C	0.518741	-0.000223	0.041491
C36	C	1.018741	0.499777	0.541491
C37	C	0.591568	-0.000203	0.042878
C38	C	1.091568	0.499797	0.542878
N39	N	0.365893	-0.054622	0.059637
N40	N	0.865893	0.445378	0.559637
N41	N	0.296710	-0.054643	0.058326
N42	N	0.796710	0.445357	0.558326
C43	C	0.254657	-0.000300	0.118785
C44	C	0.754657	0.499700	0.618785
N45	N	0.284398	0.054054	0.180619
N46	N	0.784398	0.554054	0.680619
N47	N	0.353588	0.054071	0.181933
N48	N	0.853588	0.554071	0.681933
C49	C	0.395112	-0.000262	0.121454
C50	C	0.895112	0.499738	0.621454
C51	C	0.131035	-0.000322	0.198755
C52	C	0.631035	0.499678	0.698755
C53	C	0.058205	-0.000327	0.197367
C54	C	0.558205	0.499673	0.697367
C55	C	0.074696	-0.000336	0.033038
C56	C	0.574696	0.499664	0.533038
C57	C	0.147524	-0.000322	0.034427
C58	C	0.647524	0.499678	0.534427
C59	C	0.175689	-0.000319	0.117288
C60	C	0.675689	0.499681	0.617288
C61	C	0.952528	-0.000311	0.113041
C62	C	1.452528	0.499689	0.613041
C63	C	1.030038	-0.000343	0.114514
C64	C	1.530038	0.499657	0.614514
C65	C	0.829823	-0.000275	-0.044720
C66	C	1.329823	0.499725	0.455280
C67	C	0.828348	-0.000282	-0.144795
C68	C	1.328348	0.499718	0.355205
C69	C	0.777487	0.700766	0.181581
C70	C	1.277487	1.200766	0.681581
C71	C	0.872322	0.700701	0.058669
C72	C	1.372322	1.200701	0.558669
C73	C	0.872314	0.600206	0.058666
C74	C	1.372314	1.100206	0.558666
C75	C	0.824892	0.549985	0.120122
C76	C	1.324892	1.049985	0.620122
C77	C	0.777479	0.600261	0.181582
C78	C	1.277479	1.100261	0.681582
C79	C	0.919731	0.549923	-0.002786
C80	C	1.419731	1.049923	0.497214
C81	C	0.919725	0.449421	-0.002791
C82	C	1.419725	0.949421	0.497209
C83	C	0.872300	0.399199	0.058662
C84	C	1.372300	0.899199	0.558662
C85	C	0.824884	0.449480	0.120123
C86	C	1.324884	0.949480	0.620123
C87	C	0.777462	0.399260	0.181580
C88	C	1.277462	0.899260	0.681580
C89	C	0.730042	0.449540	0.243037
C90	C	1.230042	0.949540	0.743037
C91	C	0.730053	0.550038	0.243034
C92	C	1.230053	1.050038	0.743034
C93	C	0.872289	0.298700	0.058665
C94	C	1.372289	0.798700	0.558665
C95	C	0.777454	0.298755	0.181580
C96	C	1.277454	0.798755	0.681580
C97	C	0.758520	-0.000241	-0.556941
C98	C	1.258520	0.499759	-0.056941
C99	C	0.885709	-0.000283	-0.578929
C100	C	1.385709	0.499717	-0.078929
C101	C	0.887095	-0.000289	-0.484903
C102	C	1.387095	0.499711	0.015097
C103	C	0.824193	-0.000270	-0.426891
C104	C	1.324193	0.499730	0.073109
C105	C	0.759904	-0.000244	-0.462906
C106	C	1.259904	0.499756	0.037094
C107	C	0.951383	-0.000305	-0.448881
C108	C	1.451383	0.499695	0.051119
C109	C	0.952772	-0.000310	-0.354850
C110	C	1.452772	0.499690	0.145150
C111	C	0.889869	-0.000298	-0.296836
C112	C	1.389869	0.499702	0.203164
C113	C	0.825577	-0.000273	-0.332856
C114	C	1.325577	0.499727	0.167144
C115	C	0.762675	-0.000254	-0.274845
C116	C	1.262675	0.499746	0.225155
C117	C	0.698383	-0.000236	-0.310862
C118	C	1.198383	0.499764	0.189138
C119	C	0.697001	-0.000232	-0.404892
C120	C	1.197001	0.499768	0.095108
C121	C	0.891251	-0.000302	-0.202807
C122	C	1.391251	0.499698	0.297193
C123	C	0.764059	-0.000257	-0.180809
C124	C	1.264059	0.499743	0.319191
C125	C	0.819948	-0.000262	0.284972
C126	C	1.319948	0.499738	0.784972
C127	C	0.821422	-0.000261	0.385048
C128	C	1.321422	0.499739	0.885048
H129	H	0.598007	-0.000212	0.274675
H130	H	1.098007	0.499788	0.774675
H131	H	0.936921	-0.000291	-0.626167
H132	H	1.436921	0.499709	-0.126167
H133	H	0.691446	0.590982	0.293072
H134	H	1.191446	1.090982	0.793072
H135	H	0.738834	0.257871	0.231623
H136	H	1.238834	0.757871	0.731623
H137	H	0.910900	0.257767	0.008631
H138	H	1.410900	0.757767	0.508631
H139	H	0.153968	-0.000306	0.266225
H140	H	0.653968	0.499694	0.766225
H141	H	0.051759	-0.000410	-0.034423
H142	H	0.551759	0.499590	0.465577
H143	H	0.183881	-0.000317	-0.031910
H144	H	0.683881	0.499683	0.468090
H145	H	0.495798	-0.000251	-0.025968
H146	H	0.995798	0.499749	0.474032
H147	H	0.021850	-0.000331	0.263708
H148	H	0.521850	0.499669	0.763708
H149	H	1.002595	-0.000312	-0.496120
H150	H	1.502595	0.499688	0.003880
H151	H	0.627925	-0.000194	-0.023463
H152	H	1.127925	0.499806	0.476537
H153	H	0.644657	-0.000217	-0.434227
H154	H	1.144657	0.499783	0.065773
H155	H	0.465889	-0.000230	0.272159
H156	H	0.965889	0.499770	0.772159
H157	H	0.706174	-0.000231	-0.586271
H158	H	1.206174	0.499769	-0.086271
H159	H	1.005123	-0.000326	-0.325533
H160	H	1.505123	0.499674	0.174467
H161	H	0.691434	0.408639	0.293079
H162	H	1.191434	0.908639	0.793079
H163	H	0.943596	-0.000310	-0.173485
H164	H	1.443596	0.499690	0.326515
H165	H	0.712835	-0.000245	-0.133582
H166	H	1.212835	0.499755	0.366418
H167	H	0.738877	0.741706	0.231616
H168	H	1.238877	1.241706	0.731616
H169	H	0.958344	0.590815	-0.052818
H170	H	1.458344	1.090815	0.447182
H171	H	0.910935	0.741594	0.008637
H172	H	1.410935	1.241594	0.508637
H173	H	0.958336	0.408489	-0.052833
H174	H	1.458336	0.908489	0.447167
H175	H	0.647168	-0.000214	-0.263617
H176	H	1.147168	0.499786	0.236383
