data_functionalizedCrystal
_audit_creation_method	'MofGen! by Chris Wilmer'
_symmetry_space_group_name_H-M	'P1'
_symmetry_Int_Tables_number	1
_symmetry_cell_setting	triclinic
loop_
_symmetry_equiv_pos_as_xyz
  x,y,z
_cell_length_a	12.759400
_cell_length_b	21.395362
_cell_length_c	21.395355
_cell_angle_alpha	89.951961
_cell_angle_beta	90.013847
_cell_angle_gamma	89.967052
loop_
_atom_site_label
_atom_site_type_symbol
_atom_site_fract_x
_atom_site_fract_y
_atom_site_fract_z
Zn1	Zn	-0.417876	-0.957929	0.354675
Zn2	Zn	0.082124	-0.457929	0.854675
Zn3	Zn	-0.593540	-0.957861	0.249906
Zn4	Zn	-0.093540	-0.457861	0.749906
Zn5	Zn	-0.417932	-0.853144	0.249868
Zn6	Zn	0.082068	-0.353144	0.749868
Zn7	Zn	-0.593569	-0.853143	0.354603
Zn8	Zn	-0.093569	-0.353143	0.854603
O9	O	-0.505729	-0.905519	0.302263
O10	O	-0.005729	-0.405519	0.802263
O11	O	-0.441142	-1.045598	0.340822
O12	O	0.058858	-0.545598	0.840822
O13	O	-0.570257	-0.943942	0.162223
O14	O	-0.070257	-0.443942	0.662223
O15	O	-0.270904	-0.867073	0.263785
O16	O	0.229096	-0.367073	0.763785
O17	O	-0.570202	-1.045548	0.263849
O18	O	-0.070202	-0.545548	0.763849
O19	O	-0.270862	-0.944058	0.340786
O20	O	0.229138	-0.444058	0.840786
O21	O	-0.441238	-0.867007	0.162195
O22	O	0.058762	-0.367007	0.662195
O23	O	-0.441266	-0.765466	0.263716
O24	O	0.058734	-0.265466	0.763716
O25	O	-0.570252	-0.867071	0.442290
O26	O	-0.070252	-0.367071	0.942290
O27	O	-0.570306	-0.765465	0.340664
O28	O	-0.070306	-0.265465	0.840664
O29	O	-0.441171	-0.944057	0.442343
O30	O	0.058829	-0.444057	0.942343
O31	O	-0.740565	-0.943941	0.263779
O32	O	-0.240565	-0.443941	0.763779
O33	O	-0.740587	-0.867005	0.340700
O34	O	-0.240587	-0.367005	0.840700
C35	C	-0.505796	-0.742732	0.302178
C36	C	-0.005796	-0.242732	0.802178
C37	C	-0.505850	-0.673090	0.302157
C38	C	-0.005850	-0.173090	0.802157
C39	C	-0.573133	-0.640393	0.342162
C40	C	-0.073133	-0.140393	0.842162
C41	C	-0.573111	-0.574958	0.342185
C42	C	-0.073111	-0.074958	0.842185
C43	C	-0.505819	-0.542222	0.302193
C44	C	-0.005819	-0.042222	0.802193
C45	C	-0.438523	-0.574927	0.262185
C46	C	0.061477	-0.074927	0.762185
C47	C	-0.438539	-0.640361	0.262168
C48	C	0.061461	-0.140361	0.762168
C49	C	-0.497362	-0.438496	0.245779
C50	C	0.002638	0.061504	0.745779
C51	C	-0.497354	-0.373063	0.245796
C52	C	0.002646	0.126937	0.745796
C53	C	-0.505764	-0.340401	0.302247
C54	C	-0.005764	0.159599	0.802247
C55	C	-0.514205	-0.373181	0.358684
C56	C	-0.014205	0.126819	0.858684
C57	C	-0.514221	-0.438615	0.358666
C58	C	-0.014221	0.061385	0.858666
C59	C	-0.505794	-0.471270	0.302207
C60	C	-0.005794	0.028730	0.802207
C61	C	-0.573027	-0.236752	0.342280
C62	C	-0.073027	0.263248	0.842280
C63	C	-0.572999	-0.171315	0.342305
C64	C	-0.072999	0.328685	0.842305
C65	C	-0.438416	-0.171286	0.262299
C66	C	0.061584	0.328714	0.762299
C67	C	-0.438439	-0.236721	0.262281
C68	C	0.061561	0.263279	0.762281
C69	C	-0.505751	-0.269450	0.302270
C70	C	-0.005751	0.230550	0.802270
C71	C	-0.778697	-0.905482	0.302250
C72	C	-0.278697	-0.405482	0.802250
C73	C	-0.895473	-0.905524	0.302265
C74	C	-0.395473	-0.405524	0.802265
C75	C	-0.950289	-0.945629	0.262257
C76	C	-0.450289	-0.445629	0.762257
C77	C	-1.060013	-0.945667	0.262276
C78	C	-0.560013	-0.445667	0.762276
C79	C	-1.060096	-0.865490	0.342314
C80	C	-0.560096	-0.365490	0.842314
C81	C	-0.950374	-0.865455	0.342297
C82	C	-0.450374	-0.365455	0.842297
C83	C	-0.895389	-0.985697	0.222225
C84	C	-0.395389	-0.485697	0.722225
C85	C	-0.950205	-1.025805	0.182213
C86	C	-0.450205	-0.525805	0.682213
C87	C	-1.059929	-1.025843	0.182232
C88	C	-0.559929	-0.525843	0.682232
C89	C	-1.114837	-0.985774	0.222264
C90	C	-0.614837	-0.485774	0.722264
C91	C	-0.231696	-0.905574	0.302290
C92	C	0.268304	-0.405574	0.802290
C93	C	-0.114919	-0.905597	0.302301
C94	C	0.385081	-0.405597	0.802301
C95	C	-0.505708	-0.905571	0.465686
C96	C	-0.005708	-0.405571	0.965686
C97	C	-0.505699	-0.905593	0.535327
C98	C	-0.005699	-0.405593	1.035327
C99	C	-0.505681	-0.068943	0.302330
C100	C	-0.005681	0.431057	0.802330
C101	C	-0.505704	-0.138584	0.302312
C102	C	-0.005704	0.361416	0.802312
C103	C	-0.505675	-0.905504	0.139475
C104	C	-0.005675	-0.405504	0.639475
C105	C	-0.505388	-0.905603	0.069834
C106	C	-0.005388	-0.405603	0.569834
C107	C	-0.438484	-0.945679	0.568069
C108	C	0.061516	-0.445679	1.068069
C109	C	-0.438438	-0.945678	0.633504
C110	C	0.061562	-0.445678	1.133504
C111	C	-0.505627	-0.905598	0.666196
C112	C	-0.005627	-0.405598	1.166196
C113	C	-0.572848	-0.865506	0.633446
C114	C	-0.072848	-0.365506	1.133446
C115	C	-0.572883	-0.865503	0.568012
C116	C	-0.072883	-0.365503	1.068012
C117	C	-0.600229	-0.900638	0.769864
C118	C	-0.100229	-0.400638	1.269864
C119	C	-0.600195	-0.900645	0.835297
C120	C	-0.100195	-0.400645	1.335297
C121	C	-0.505516	-0.905602	0.868017
C122	C	-0.005516	-0.405602	1.368017
C123	C	-0.410869	-0.910566	0.835295
C124	C	0.089131	-0.410566	1.335295
C125	C	-0.410905	-0.910563	0.769861
C126	C	0.089095	-0.410563	1.269861
C127	C	-0.505596	-0.905596	0.737148
C128	C	-0.005596	-0.405596	1.237148
C129	C	-0.438246	-0.945688	0.971711
C130	C	0.061754	-0.445688	1.471711
C131	C	-0.438199	-0.945683	1.037147
C132	C	0.061801	-0.445683	1.537147
C133	C	-0.572618	-0.865514	1.037088
C134	C	-0.072618	-0.365514	1.537088
C135	C	-0.572655	-0.865516	0.971653
C136	C	-0.072655	-0.365516	1.471653
C137	C	-0.505471	-0.905607	0.938968
C138	C	-0.005471	-0.405607	1.438968
H139	H	-0.521091	-0.465301	0.404618
H140	H	-0.021091	0.034699	0.904618
F141	F	-1.118536	-0.822847	0.384914
F142	F	-0.618536	-0.322847	0.884914
H143	H	-0.627396	-0.832878	0.944994
H144	H	-0.127396	-0.332878	1.444994
F145	F	-0.366975	-0.988344	0.533287
F146	F	0.133025	-0.488344	1.033287
H147	H	-0.627314	-0.832875	1.063705
H148	H	-0.127314	-0.332875	1.563705
H149	H	-0.905494	-1.058432	0.149624
H150	H	-0.405494	-0.558432	0.649624
F151	F	-0.892031	-0.822772	0.384879
F152	F	-0.392031	-0.322772	0.884879
H153	H	-0.627941	-0.667037	0.374725
H154	H	-0.127941	-0.167037	0.874725
F155	F	-0.701008	-0.895376	0.735047
F156	F	-0.201008	-0.395376	1.235047
F157	F	-0.523152	-0.338425	0.418768
F158	F	-0.023152	0.161575	0.918768
H159	H	-0.677263	-0.896607	0.861934
H160	H	-0.177263	-0.396607	1.361934
H161	H	-0.627550	-0.832871	0.660068
H162	H	-0.127550	-0.332871	1.160068
F163	F	-0.644426	-0.822837	0.533165
F164	F	-0.144426	-0.322837	1.033165
F165	F	-1.118266	-1.068534	0.139654
F166	F	-0.618266	-0.568534	0.639654
H167	H	-0.627900	-0.548330	0.374764
H168	H	-0.127900	-0.048330	0.874764
F169	F	-0.644660	-0.271586	0.384843
F170	F	-0.144660	0.228414	0.884843
H171	H	-0.490509	-0.465084	0.199807
H172	H	0.009491	0.034916	0.699807
H173	H	-1.204182	-0.985813	0.222281
H174	H	-0.704182	-0.485813	0.722281
F175	F	-0.366902	-0.540087	0.219625
F176	F	0.133098	-0.040087	0.719625
H177	H	-0.383698	-0.978318	0.660168
H178	H	0.116302	-0.478318	1.160168
H179	H	-0.333773	-0.914603	0.861934
H180	H	0.166227	-0.414603	1.361934
F181	F	-0.644609	-0.136516	0.384889
F182	F	-0.144609	0.363484	0.884889
F183	F	-0.366740	-0.988353	0.936923
F184	F	0.133260	-0.488353	1.436923
H185	H	-0.383621	-0.144633	0.229740
H186	H	0.116379	0.355367	0.729740
F187	F	-0.310177	-0.915843	0.735039
F188	F	0.189823	-0.415843	1.235039
F189	F	-0.366667	-0.988357	1.071993
F190	F	0.133333	-0.488357	1.571993
H191	H	-0.383656	-0.263344	0.229701
H192	H	0.116344	0.236656	0.729701
F193	F	-0.366924	-0.675161	0.219588
F194	F	0.133076	-0.175161	0.719588
F195	F	-0.488371	-0.338183	0.185732
F196	F	0.011629	0.161817	0.685732
H197	H	-0.806046	-0.985668	0.222203
H198	H	-0.306046	-0.485668	0.722203
