data_functionalizedCrystal
_audit_creation_method	'MofGen! by Chris Wilmer'
_symmetry_space_group_name_H-M	'P1'
_symmetry_Int_Tables_number	1
_symmetry_cell_setting	triclinic
loop_
_symmetry_equiv_pos_as_xyz
  x,y,z
_cell_length_a	27.440280
_cell_length_b	27.440280
_cell_length_c	27.440280
_cell_angle_alpha	60.004742
_cell_angle_beta	89.999308
_cell_angle_gamma	60.000166
loop_
_atom_site_label
_atom_site_type_symbol
_atom_site_fract_x
_atom_site_fract_y
_atom_site_fract_z
Zr1	Zr	0.469565	0.533336	-0.063960
O2	O	0.391758	0.634997	-0.141766
O3	O	0.493407	0.431675	-0.040110
O4	O	0.493419	0.533325	-0.141771
O5	O	0.391748	0.533356	0.040089
O6	O	0.573621	0.533317	-0.141774
O7	O	0.391747	0.533347	-0.040105
O8	O	0.573600	0.351484	0.040080
O9	O	0.391769	0.715189	-0.141765
O10	O	0.563441	0.473485	-0.029939
O11	O	0.503588	0.473497	0.029911
O12	O	0.503602	0.593177	-0.089782
O13	O	0.443749	0.593190	-0.029933
Zr14	Zr	0.597479	0.533339	0.063934
Zr15	Zr	0.597478	0.533324	-0.063965
Zr16	Zr	0.469566	0.533351	0.063939
Zr17	Zr	0.469581	0.661234	-0.063959
Zr18	Zr	0.597463	0.405441	0.063933
O19	O	0.573637	0.635000	0.040083
O20	O	0.573634	0.634979	-0.141773
O21	O	0.391761	0.635018	0.040090
O22	O	0.675286	0.431679	0.141740
O23	O	0.675283	0.431658	-0.040116
O24	O	0.493410	0.431697	0.141747
O25	O	0.675296	0.533319	-0.040115
O26	O	0.573625	0.533350	0.141745
O27	O	0.493423	0.533358	0.141748
O28	O	0.675297	0.533329	0.040078
O29	O	0.493442	0.715179	-0.141769
O30	O	0.573602	0.351496	0.141743
O31	O	0.675275	0.351486	0.141739
O32	O	0.675274	0.351475	0.040076
O33	O	0.391770	0.715201	-0.040103
O34	O	0.493444	0.715191	-0.040106
O35	O	0.563443	0.473499	0.089756
O36	O	0.623296	0.473486	0.029907
O37	O	0.563456	0.593178	-0.029937
O38	O	0.503603	0.593191	0.029912
C39	C	0.533501	0.373357	-0.000015
C40	C	0.533494	0.319061	-0.000016
C41	C	0.373522	0.533353	-0.000007
C42	C	0.319220	0.533359	-0.000005
C43	C	0.564781	-0.017687	-0.031249
C44	C	0.564787	-0.068711	-0.031247
O45	O	0.591376	-0.095123	-0.057798
N46	N	0.533544	-0.094221	-0.000007
C47	C	0.502298	-0.068709	0.031238
O48	O	0.475724	-0.095092	0.057810
C49	C	0.502296	-0.017689	0.031239
C50	C	0.533537	0.007823	-0.000008
C51	C	0.596020	0.007824	-0.062492
C52	C	0.596013	0.058845	-0.062495
C53	C	0.564768	0.084355	-0.031254
C54	C	0.533530	0.058844	-0.000010
C55	C	0.471054	0.007819	0.062487
C56	C	0.471056	0.058841	0.062486
C57	C	0.502296	0.084353	0.031240
C58	C	0.502279	0.135375	0.031229
N59	N	0.533522	0.160885	-0.000011
C60	C	0.564767	0.135375	-0.031252
C61	C	0.502304	-0.175854	0.031233
C62	C	0.502302	-0.226869	0.031228
C63	C	0.564792	-0.226869	-0.031256
C64	C	0.564790	-0.175849	-0.031254
C65	C	0.533548	-0.150344	-0.000007
C66	C	0.564750	0.242523	-0.031255
C67	C	0.564739	0.293551	-0.031257
C68	C	0.502252	0.293544	0.031229
C69	C	0.502261	0.242524	0.031229
C70	C	0.533514	0.217013	-0.000015
O71	O	0.475706	0.161818	0.057768
O72	O	0.591342	0.161758	-0.057814
C73	C	-0.017478	0.533317	-0.044193
C74	C	-0.068496	0.533312	-0.044194
O75	O	-0.094872	0.533282	-0.081754
N76	N	-0.094013	0.533319	-0.000015
C77	C	-0.068506	0.533323	0.044170
O78	O	-0.094895	0.533327	0.081748
C79	C	-0.017487	0.533323	0.044172
C80	C	0.008024	0.533324	-0.000012
C81	C	0.008033	0.533317	-0.088374
C82	C	0.059047	0.533323	-0.088374
C83	C	0.084549	0.533330	-0.044193
C84	C	0.059038	0.533330	-0.000013
C85	C	0.008021	0.533322	0.088360
C86	C	0.059045	0.533322	0.088358
C87	C	0.084556	0.533322	0.044173
C88	C	0.135554	0.533342	0.044168
N89	N	0.161071	0.533336	-0.000010
C90	C	0.135569	0.533330	-0.044191
C91	C	-0.175650	0.533322	0.044163
C92	C	-0.226671	0.533327	0.044158
C93	C	-0.226657	0.533315	-0.044205
C94	C	-0.175637	0.533315	-0.044203
C95	C	-0.150133	0.533315	-0.000016
C96	C	0.242701	0.533343	-0.044188
C97	C	0.293718	0.533352	-0.044186
C98	C	0.293701	0.533361	0.044179
C99	C	0.242687	0.533355	0.044175
C100	C	0.217189	0.533344	-0.000012
O101	O	0.161963	0.533370	0.081711
O102	O	0.161968	0.533316	-0.081758
C103	C	0.693522	0.533322	-0.000019
C104	C	0.747824	0.533317	-0.000021
C105	C	0.533520	0.533319	-0.159996
C106	C	0.533519	0.533313	-0.214292
C107	C	0.533543	0.693318	-0.000011
C108	C	0.533550	0.747614	-0.000011
C109	C	0.502292	0.595827	-0.582264
C110	C	0.502294	0.595831	-0.633286
O111	O	0.475747	0.648966	-0.686241
N112	N	0.533528	0.533354	-0.627566
C113	C	0.564768	0.470868	-0.570818
O114	O	0.591335	0.417727	-0.570638
C115	C	0.564769	0.470865	-0.519797
C116	C	0.533528	0.533347	-0.525523
C117	C	0.471054	0.658304	-0.587987
C118	C	0.471051	0.658300	-0.536968
C119	C	0.502287	0.595819	-0.480226
C120	C	0.533525	0.533343	-0.474504
C121	C	0.596012	0.408381	-0.463051
C122	C	0.596011	0.408383	-0.412030
C123	C	0.564769	0.470864	-0.417755
C124	C	0.564758	0.470858	-0.366743
N125	N	0.533524	0.533336	-0.372464
C126	C	0.502288	0.595816	-0.429205
C127	C	0.564763	0.470880	-0.677968
C128	C	0.564759	0.470882	-0.728988
C129	C	0.502285	0.595845	-0.791453
C130	C	0.502287	0.595842	-0.740432
C131	C	0.533529	0.533357	-0.683689
C132	C	0.502285	0.595803	-0.322060
C133	C	0.502283	0.595793	-0.271034
C134	C	0.564759	0.470831	-0.208574
C135	C	0.564758	0.470840	-0.259595
C136	C	0.533520	0.533331	-0.316340
O137	O	0.591293	0.417750	-0.313770
O138	O	0.475731	0.648949	-0.429375
C139	C	0.533524	0.533356	0.159969
C140	C	0.533525	0.533363	0.214266
C141	C	0.693501	0.373342	-0.000021
C142	C	0.747796	0.319040	-0.000023
C143	C	0.533504	0.373376	0.159967
C144	C	0.533497	0.319086	0.214263
C145	C	0.693503	0.373360	0.159962
C146	C	0.747799	0.319066	0.214256
C147	C	0.373541	0.693315	-0.159988
C148	C	0.319245	0.747610	-0.214282
C149	C	0.373543	0.693334	-0.000005
C150	C	0.319248	0.747635	-0.000003
C151	C	0.533540	0.693299	-0.159994
C152	C	0.533547	0.747589	-0.214290
C153	C	0.742050	0.293539	-0.031269
C154	C	0.793062	0.242525	-0.031283
C155	C	0.849819	0.217008	-0.000048
C156	C	0.855563	0.242515	0.031198
C157	C	0.804552	0.293532	0.031208
C158	C	0.564738	0.293592	0.271005
C159	C	0.564730	0.242588	0.322027
C160	C	0.533484	0.217077	0.316305
C161	C	0.502240	0.242576	0.259557
C162	C	0.502245	0.293582	0.208537
C163	C	0.804545	0.293561	0.208512
C164	C	0.855567	0.242553	0.259522
C165	C	0.849842	0.217046	0.316275
C166	C	0.793090	0.242555	0.322018
C167	C	0.742069	0.293566	0.271008
C168	C	0.262499	0.773120	-0.208538
C169	C	0.211477	0.824145	-0.259548
C170	C	0.217202	0.849655	-0.316301
C171	C	0.273954	0.824142	-0.322044
C172	C	0.324975	0.773122	-0.271034
C173	C	0.324994	0.773141	0.031237
C174	C	0.273982	0.824170	0.031237
C175	C	0.217226	0.849688	0.000001
C176	C	0.211481	0.824180	-0.031243
C177	C	0.262492	0.773155	-0.031246
C178	C	0.564798	0.773085	-0.208549
C179	C	0.564816	0.824089	-0.259561
C180	C	0.533578	0.849600	-0.316313
C181	C	0.502325	0.824099	-0.322052
C182	C	0.502311	0.773092	-0.271041
H183	H	0.590178	0.314323	-0.056704
C184	C	0.436694	0.727028	-0.543269
H185	H	0.441160	0.718087	-0.504759
H186	H	0.452130	0.752692	-0.564464
H187	H	0.395590	0.752704	-0.564468
H188	H	0.257805	0.752389	-0.056684
H189	H	0.476856	-0.155086	0.056675
H190	H	0.901773	0.221788	0.254835
C191	C	0.810855	0.321612	0.146090
H192	H	0.851962	0.299117	0.149983
H193	H	0.792253	0.313248	0.124888
H194	H	0.792254	0.369779	0.124892
C195	C	0.917996	0.214433	0.065565
H196	H	0.914118	0.236925	0.084177
H197	H	0.939181	0.166270	0.095118
H198	H	0.939203	0.222789	0.038599
H199	H	0.278671	0.844931	0.056682
C200	C	0.161076	0.905766	-0.372406
H201	H	0.126462	0.917295	-0.360852
H202	H	0.161067	0.945574	-0.395493
H203	H	0.161068	0.889034	-0.395481
H204	H	0.445616	-0.012945	0.087932
H205	H	0.621453	0.357501	-0.458378
C206	C	0.599107	0.321651	0.277308
H207	H	0.594644	0.355677	0.238798
H208	H	0.583677	0.341560	0.298503
H209	H	0.640210	0.285022	0.298506
H210	H	0.590175	0.221833	0.368228
C211	C	0.599123	0.402107	-0.146154
H212	H	0.594652	0.411059	-0.116591
H213	H	0.583702	0.376426	-0.141673
H214	H	0.640227	0.376444	-0.141686
H215	H	0.221910	0.533365	0.080149
C216	C	0.467919	0.664524	-0.277332
H217	H	0.472385	0.655577	-0.238821
H218	H	0.483352	0.690193	-0.298524
H219	H	0.426816	0.690197	-0.298531
H220	H	0.891391	0.175509	0.357805
H221	H	0.257825	0.752353	-0.162331
H222	H	0.533485	0.175544	0.357854
H223	H	-0.247429	0.533308	-0.080179
H224	H	0.788437	0.221779	0.368233
C225	C	0.467881	0.214501	0.253272
H226	H	0.472363	0.180466	0.291787
H227	H	0.426778	0.251115	0.232077
H228	H	0.483317	0.194583	0.232081
H229	H	-0.154890	0.533328	0.080144
H230	H	0.476892	0.844878	-0.368267
H231	H	0.695841	0.314314	-0.056711
H232	H	0.476860	0.752339	-0.275723
H233	H	0.695866	0.314325	0.275693
C234	C	0.387392	0.745058	-0.277360
H235	H	0.383489	0.767555	-0.318467
H236	H	0.408609	0.753410	-0.258760
H237	H	0.408582	0.696892	-0.258766
H238	H	0.590234	-0.247649	-0.056693
C239	C	0.149057	0.852193	-0.253220
H240	H	0.152959	0.829682	-0.212114
H241	H	0.127857	0.900356	-0.271812
H242	H	0.127852	0.843831	-0.271824
H243	H	0.590229	-0.155081	-0.056697
H244	H	0.278609	0.844919	-0.368259
H245	H	0.590201	0.221757	-0.056696
H246	H	0.079817	0.533321	-0.124352
C247	C	-0.254735	0.533337	0.092755
H248	H	-0.288775	0.533339	0.086429
H249	H	-0.226389	0.493372	0.130893
H250	H	-0.266364	0.573316	0.090917
H251	H	0.788373	0.221764	-0.056727
H252	H	0.621453	0.357499	-0.365828
H253	H	0.371203	0.752369	0.056677
C254	C	0.161119	0.905812	0.000011
H255	H	0.172675	0.917340	0.023097
H256	H	0.138039	0.945618	-0.039786
H257	H	0.138035	0.889093	0.016745
H258	H	0.476807	0.314333	0.162337
H259	H	0.809239	0.314288	0.056655
H260	H	0.590236	0.752322	-0.162343
H261	H	0.891350	0.175466	-0.000061
C262	C	0.321780	0.533347	-0.092789
H263	H	0.299286	0.533335	-0.119096
H264	H	0.321697	0.573318	-0.114612
H265	H	0.361670	0.493373	-0.074637
C266	C	0.436685	0.086897	0.096856
H267	H	0.418078	0.064397	0.115459
H268	H	0.463645	0.078545	0.126417
H269	H	0.407115	0.135063	0.069889
C270	C	0.149047	0.852249	-0.065595
H271	H	0.119495	0.886284	-0.061109
H272	H	0.144562	0.872150	-0.106697
H273	H	0.144564	0.815626	-0.050159
H274	H	0.590264	0.844846	-0.254876
C275	C	0.599122	0.402142	-0.615553
H276	H	0.617716	0.364938	-0.619459
H277	H	0.628690	0.399531	-0.594344
H278	H	0.572149	0.399546	-0.594356
C279	C	0.599103	0.402112	-0.253300
H280	H	0.617702	0.364901	-0.212197
H281	H	0.572128	0.399531	-0.271911
H282	H	0.628677	0.399500	-0.271897
C283	C	0.533592	0.905711	-0.372420
H284	H	0.556675	0.917243	-0.360868
H285	H	0.550317	0.888993	-0.395505
H286	H	0.493789	0.945523	-0.395495
C287	C	0.630385	0.086895	-0.096859
H288	H	0.648996	0.064383	-0.115458
H289	H	0.603425	0.135058	-0.126424
H290	H	0.659951	0.078531	-0.069891
H291	H	0.621465	-0.012944	-0.087932
H292	H	0.476855	-0.247628	0.056665
C293	C	0.467927	0.214430	0.065628
H294	H	0.449330	0.236921	0.084246
H295	H	0.438363	0.222756	0.038695
H296	H	0.494926	0.166268	0.095191
H297	H	0.221947	0.533333	-0.080168
C298	C	0.467886	0.321609	0.065594
H299	H	0.449276	0.299114	0.084201
H300	H	0.494852	0.313253	0.095151
H301	H	0.438319	0.369775	0.038626
C302	C	-0.020011	0.533304	-0.136973
H303	H	-0.054049	0.533298	-0.130652
H304	H	-0.031628	0.573270	-0.175110
H305	H	0.008345	0.493326	-0.135134
C306	C	-0.020024	0.533311	0.136969
H307	H	0.002484	0.533304	0.163283
H308	H	-0.059913	0.573275	0.118835
H309	H	-0.019932	0.493331	0.158791
C310	C	-0.147575	0.533306	-0.092800
H311	H	-0.170072	0.533297	-0.119108
H312	H	-0.147652	0.573272	-0.114623
H313	H	-0.107687	0.493328	-0.074648
H314	H	0.314471	0.533369	0.080149
C315	C	0.087098	0.533324	0.136963
H316	H	0.121139	0.533322	0.130641
H317	H	0.058748	0.573293	0.135135
H318	H	0.098723	0.493349	0.175100
C319	C	0.436687	0.727038	-0.650398
H320	H	0.418082	0.764240	-0.646489
H321	H	0.463646	0.729647	-0.671607
H322	H	0.407116	0.729640	-0.671597
C323	C	0.467929	0.664571	-0.746733
H324	H	0.449331	0.701779	-0.787837
H325	H	0.438364	0.667176	-0.728130
H326	H	0.494904	0.667164	-0.728131
C327	C	0.467918	0.664542	-0.384471
H328	H	0.449311	0.701745	-0.380563
H329	H	0.494880	0.667149	-0.405677
H330	H	0.438349	0.667142	-0.405672
H331	H	0.476851	0.646720	-0.837662
H332	H	0.590191	0.420003	-0.724319
