data_functionalizedCrystal
_audit_creation_method	'MofGen! by Chris Wilmer'
_symmetry_space_group_name_H-M	'P1'
_symmetry_Int_Tables_number	1
_symmetry_cell_setting	triclinic
loop_
_symmetry_equiv_pos_as_xyz
  x,y,z
_cell_length_a	14.560438
_cell_length_b	14.560438
_cell_length_c	14.560438
_cell_angle_alpha	59.999927
_cell_angle_beta	90.000916
_cell_angle_gamma	59.999780
loop_
_atom_site_label
_atom_site_type_symbol
_atom_site_fract_x
_atom_site_fract_y
_atom_site_fract_z
Zr1	Zr	0.884766	1.005265	-0.120483
O2	O	0.738116	1.196872	-0.267133
O3	O	0.929722	0.813662	-0.075528
O4	O	0.929721	1.005267	-0.267130
O5	O	0.738117	1.005264	0.075609
O6	O	1.080862	1.005264	-0.267125
O7	O	0.738117	1.005267	-0.075532
O8	O	1.080863	0.662517	0.075615
O9	O	0.738116	1.348010	-0.267131
O10	O	1.061690	0.892467	-0.056350
O11	O	0.948895	0.892467	0.056441
O12	O	0.948894	1.118058	-0.169145
O13	O	0.836099	1.118058	-0.056354
Zr14	Zr	1.125818	1.005256	0.120577
Zr15	Zr	1.125818	1.005260	-0.120475
Zr16	Zr	0.884766	1.005261	0.120570
Zr17	Zr	0.884765	1.246314	-0.120479
Zr18	Zr	1.125819	0.764207	0.120574
O19	O	1.080862	1.196859	0.075623
O20	O	1.080861	1.196865	-0.267122
O21	O	0.738117	1.196866	0.075612
O22	O	1.272468	0.813649	0.267228
O23	O	1.272467	0.813655	-0.075517
O24	O	0.929722	0.813656	0.267217
O25	O	1.272467	1.005257	-0.075514
O26	O	1.080863	1.005254	0.267225
O27	O	0.929722	1.005257	0.267220
O28	O	1.272467	1.005254	0.075627
O29	O	0.929720	1.348007	-0.267125
O30	O	1.080864	0.662514	0.267220
O31	O	1.272468	0.662510	0.267226
O32	O	1.272468	0.662514	0.075622
O33	O	0.738116	1.348007	-0.075527
O34	O	0.929720	1.348003	-0.075521
O35	O	1.061690	0.892463	0.169240
O36	O	1.174485	0.892463	0.056449
O37	O	1.061689	1.118053	-0.056346
O38	O	0.948894	1.118054	0.056445
C39	C	1.005293	0.703745	0.000043
C40	C	1.005293	0.601414	0.000042
C41	C	1.064167	0.553339	-0.058836
C42	C	1.064169	0.457182	-0.058827
C43	C	0.946415	0.457186	0.058938
C44	C	0.946420	0.553335	0.058935
C45	C	1.132147	0.553340	-0.126831
C46	C	1.132149	0.457183	-0.126822
C47	C	0.703772	1.005266	0.000038
C48	C	0.601439	1.005268	0.000034
C49	C	0.553356	1.005272	-0.083229
C50	C	0.457210	1.005259	-0.083214
C51	C	0.457237	1.005245	0.083332
C52	C	0.553386	1.005248	0.083320
C53	C	0.553336	1.005285	-0.179385
C54	C	0.457191	1.005273	-0.179370
C55	C	1.306812	1.005255	0.000057
C56	C	1.409145	1.005253	0.000061
C57	C	1.005291	1.005266	-0.301472
C58	C	1.005291	1.005268	-0.403805
C59	C	1.005291	1.306776	0.000052
C60	C	1.005291	1.409107	0.000053
C61	C	1.088556	1.005267	-0.451878
C62	C	1.088559	1.005255	-0.548024
C63	C	0.922024	1.005250	-0.548018
C64	C	0.922026	1.005252	-0.451869
C65	C	1.005292	1.005255	0.301567
C66	C	1.005293	1.005253	0.403900
C67	C	1.306813	0.703740	0.000053
C68	C	1.409146	0.601406	0.000055
C69	C	1.005293	0.703740	0.301563
C70	C	1.005294	0.601407	0.403894
C71	C	1.306813	0.703734	0.301573
C72	C	1.409146	0.601399	0.403907
C73	C	0.703771	1.306787	-0.301478
C74	C	0.601437	1.409122	-0.403813
C75	C	0.703771	1.306781	0.000042
C76	C	0.601438	1.409115	0.000040
C77	C	1.005291	1.306781	-0.301468
C78	C	1.005290	1.409114	-0.403799
C79	C	1.398347	0.553329	-0.058821
C80	C	1.494504	0.457184	-0.058823
C81	C	1.612255	0.457197	0.058936
C82	C	1.516099	0.553347	0.058931
C83	C	1.064171	0.553326	0.510849
C84	C	1.064158	0.457182	0.606997
C85	C	0.946390	0.457204	0.489220
C86	C	0.946397	0.553353	0.393075
C87	C	1.516101	0.553319	0.393112
C88	C	1.612250	0.457173	0.489270
C89	C	1.494477	0.457191	0.607017
C90	C	1.398330	0.553342	0.510859
H91	H	0.898495	0.592459	0.106894
H92	H	0.898483	0.418028	0.106887
Br93	Br	1.253200	0.618555	-0.138728
H94	H	1.524900	0.592495	0.106875
H95	H	0.385885	1.095678	-0.261485
H96	H	0.592543	1.005229	0.151128
Br97	Br	1.201570	1.005246	-0.613260
H98	H	0.898447	0.592503	0.305981
H99	H	1.485685	0.418049	0.694106
Br100	Br	1.530781	0.618544	0.247966
Br101	Br	1.253166	0.618610	0.525510
H102	H	1.219205	0.361404	-0.081965
H103	H	1.222177	0.515506	-0.089013
Br104	Br	1.201561	1.005284	-0.386650
H105	H	1.699346	0.418054	0.106872
H106	H	0.854229	1.005240	-0.587163
H107	H	1.112124	0.592453	0.519665
Br108	Br	0.809024	1.005238	-0.386612
H109	H	0.624631	0.914878	-0.171095
Br110	Br	1.757402	0.391930	0.474612
Br111	Br	1.479843	0.391946	-0.138736
Br112	Br	0.525309	1.160754	-0.306839
H113	H	1.087288	0.649118	-0.213883
H114	H	1.112100	0.418041	0.694081
H115	H	1.094325	0.495012	-0.216851
H116	H	0.418102	1.005228	0.151142
Br117	Br	0.866464	0.391981	0.474547
H118	H	0.474008	0.911996	-0.162568
