data_functionalizedCrystal
_audit_creation_method	'MofGen! by Chris Wilmer'
_symmetry_space_group_name_H-M	'P1'
_symmetry_Int_Tables_number	1
_symmetry_cell_setting	triclinic
loop_
_symmetry_equiv_pos_as_xyz
  x,y,z
_cell_length_a	35.288113
_cell_length_b	35.282844
_cell_length_c	35.288094
_cell_angle_alpha	120.000393
_cell_angle_beta	90.000076
_cell_angle_gamma	120.014552
loop_
_atom_site_label
_atom_site_type_symbol
_atom_site_fract_x
_atom_site_fract_y
_atom_site_fract_z
O1	O	0.259855	-0.334376	-0.011286
O2	O	0.204773	-0.256750	0.011210
O3	O	0.204746	-0.334375	-0.066395
O4	O	0.259882	-0.256750	0.066319
O5	O	0.267795	-0.271324	-0.066388
O6	O	0.267822	-0.193699	0.011217
O7	O	0.322904	-0.271325	-0.011279
Zn8	Zn	0.305373	-0.222501	-0.000030
Zn9	Zn	0.222304	-0.305574	-0.000039
O10	O	0.322931	-0.193700	0.066326
C11	C	0.095943	0.006466	0.034084
C12	C	0.118849	-0.016234	0.034407
C13	C	0.027302	-0.062175	0.034087
C14	C	0.050312	-0.084771	0.034410
C15	C	0.095925	-0.062173	0.034089
C16	C	0.050330	-0.016236	0.034405
C17	C	0.137887	0.159561	0.021649
C18	C	0.159497	0.202921	0.018133
C19	C	0.204697	0.224672	0.016369
C20	C	0.228128	0.271681	0.012549
C21	C	0.228287	0.203063	0.018125
C22	C	0.206678	0.159710	0.021647
C23	C	0.161476	0.137959	0.023409
C24	C	0.207066	-0.116515	0.021670
C25	C	0.228810	-0.141633	0.018160
C26	C	0.205351	-0.188603	0.016397
C27	C	0.228920	-0.215846	0.012584
C28	C	0.160145	-0.210450	0.018151
C29	C	0.138404	-0.185328	0.021670
C30	C	0.161870	-0.138358	0.023426
C31	C	-0.138198	-0.116522	0.021662
C32	C	-0.185071	-0.141645	0.018144
C33	C	-0.208592	-0.188615	0.016383
C34	C	-0.259415	-0.215860	0.012566
C35	C	-0.185241	-0.210461	0.018137
C36	C	-0.138371	-0.185337	0.021653
C37	C	-0.114851	-0.138364	0.023420
C38	C	0.138048	0.090947	0.027223
C39	C	0.119372	0.053474	0.030265
C40	C	-0.023519	-0.089415	0.030272
C41	C	-0.064028	-0.111127	0.027233
C42	C	0.119499	-0.089412	0.030276
C43	C	0.138290	-0.111123	0.027238
C44	C	0.027452	-0.534563	-0.438466
C45	C	0.050475	-0.511860	-0.392857
C46	C	0.096098	-0.465915	-0.438458
C47	C	0.119017	-0.443316	-0.392848
C48	C	0.096098	-0.465916	-0.369836
C49	C	0.050476	-0.511859	-0.461375
C50	C	-0.138082	-0.687678	-0.549641
C51	C	-0.184959	-0.731044	-0.571398
C52	C	-0.208476	-0.752798	-0.547952
C53	C	-0.259306	-0.799812	-0.571537
C54	C	-0.185110	-0.731185	-0.502749
C55	C	-0.138235	-0.687827	-0.480999
C56	C	-0.114720	-0.666073	-0.504446
C57	C	0.138018	-0.411570	-0.204347
C58	C	0.159625	-0.386449	-0.157481
C59	C	0.204833	-0.339474	-0.133964
C60	C	0.228262	-0.312229	-0.083148
C61	C	0.228436	-0.317624	-0.157320
C62	C	0.206833	-0.342749	-0.204186
C63	C	0.161619	-0.389724	-0.227696
C64	C	0.138022	-0.411566	-0.549605
C65	C	0.159628	-0.386440	-0.571351
C66	C	0.204838	-0.339465	-0.547897
C67	C	0.228266	-0.312219	-0.571472
C68	C	0.228438	-0.317616	-0.502696
C69	C	0.206830	-0.342742	-0.480952
C70	C	0.161622	-0.389720	-0.504413
C71	C	-0.063892	-0.619054	-0.480856
C72	C	-0.023376	-0.581577	-0.462053
C73	C	0.119524	-0.438672	-0.462035
C74	C	0.138198	-0.416959	-0.480830
C75	C	0.119523	-0.438674	-0.319020
C76	C	0.138195	-0.416961	-0.278514
O77	O	-0.408892	-0.271336	-0.011288
O78	O	-0.276163	-0.193713	0.011199
O79	O	-0.353789	-0.271348	-0.066402
O80	O	-0.331267	-0.193701	0.066313
O81	O	-0.353805	-0.334391	-0.066398
O82	O	-0.276180	-0.256756	0.011204
O83	O	-0.408909	-0.334379	-0.011283
Zn84	Zn	-0.342547	-0.305577	-0.000039
Zn85	Zn	-0.342525	-0.222515	-0.000045
O86	O	-0.331283	-0.256744	0.066318
C87	C	0.364257	-0.456770	-0.023606
C88	C	0.340857	-0.503556	-0.020393
C89	C	0.409871	-0.434067	-0.023924
C90	C	0.364281	-0.388121	-0.023597
C91	C	0.340906	-0.361508	-0.020376
C92	C	0.409895	-0.365523	-0.023916
C93	C	0.432903	-0.388123	-0.023598
C94	C	0.482899	-0.361511	-0.020377
C95	C	0.341354	-0.434066	-0.023923
C96	C	0.523291	-0.340011	-0.017774
C97	C	0.321952	-0.541354	-0.017796
C98	C	0.322022	-0.340006	-0.017772
C99	C	0.573964	-0.313038	-0.014509
C100	C	0.298234	-0.588774	-0.014540
C101	C	0.298331	-0.313032	-0.014506
O102	O	0.322788	0.397311	-0.011318
O103	O	0.267652	0.287070	0.011178
O104	O	0.267644	0.287052	-0.066427
O105	O	0.322796	0.397329	0.066287
O106	O	0.204615	0.287051	-0.066429
O107	O	0.204623	0.287069	0.011176
O108	O	0.259760	0.397310	-0.011320
Zn109	Zn	0.222185	0.342189	-0.000072
Zn110	Zn	0.305227	0.342191	-0.000070
O111	O	0.259768	0.397328	0.066285
O112	O	0.259891	-0.256741	-0.665467
O113	O	0.204752	-0.334369	-0.610371
O114	O	0.204781	-0.256742	-0.610360
O115	O	0.259863	-0.334367	-0.665478
O116	O	0.267829	-0.193692	-0.547324
O117	O	0.267800	-0.271319	-0.547335
O118	O	0.322939	-0.193691	-0.602431
Zn119	Zn	0.305380	-0.222494	-0.564874
Zn120	Zn	0.222312	-0.305565	-0.647928
O121	O	0.322911	-0.271318	-0.602442
O122	O	-0.408808	-0.925461	-0.602525
O123	O	-0.276067	-0.815203	-0.547404
O124	O	-0.353662	-0.815202	-0.547403
O125	O	-0.331213	-0.925462	-0.602526
O126	O	-0.353663	-0.815202	-0.610432
O127	O	-0.276068	-0.815204	-0.610433
O128	O	-0.408809	-0.925461	-0.665553
Zn129	Zn	-0.342439	-0.870333	-0.648000
Zn130	Zn	-0.342437	-0.870332	-0.564957
O131	O	-0.331214	-0.925463	-0.665554
C132	C	0.433018	-0.071305	0.293131
C133	C	0.483021	-0.024519	0.316519
C134	C	0.409996	-0.094008	0.316041
C135	C	0.364371	-0.139954	0.224501
C136	C	0.340977	-0.166567	0.174511
C137	C	0.341453	-0.162552	0.247515
C138	C	0.364373	-0.139952	0.293125
C139	C	0.340981	-0.166563	0.316507
C140	C	0.409994	-0.094010	0.247521
C141	C	0.322083	-0.188063	0.335398
C142	C	0.523419	0.013278	0.335415
C143	C	0.322077	-0.188069	0.134124
C144	C	0.298374	-0.215035	0.359097
C145	C	0.574099	0.060698	0.359120
C146	C	0.298365	-0.215043	0.083456
C147	C	-0.318950	-0.139927	0.293121
C148	C	-0.322175	-0.166533	0.316509
C149	C	-0.318617	-0.093985	0.316031
C150	C	-0.318950	-0.139938	0.224493
C151	C	-0.322175	-0.166556	0.174503
C152	C	-0.318617	-0.093996	0.247507
C153	C	-0.318932	-0.071288	0.293116
C154	C	-0.322138	-0.024504	0.316498
C155	C	-0.318635	-0.162531	0.247512
C156	C	-0.324730	0.013292	0.335389
C157	C	-0.324782	-0.188028	0.335404
C158	C	-0.324781	-0.188061	0.134116
C159	C	-0.327980	0.060709	0.359088
C160	C	-0.328051	-0.214994	0.359108
C161	C	-0.328050	-0.215039	0.083449
C162	C	0.364302	0.611926	0.293091
C163	C	0.340928	0.638542	0.316477
C164	C	0.409917	0.634528	0.316004
C165	C	0.364274	0.543269	0.224465
C166	C	0.340871	0.496476	0.174475
C167	C	0.409890	0.565976	0.247482
C168	C	0.432924	0.611926	0.293091
C169	C	0.482921	0.638540	0.316477
C170	C	0.341372	0.565976	0.247482
C171	C	0.523314	0.660043	0.335370
C172	C	0.322044	0.660045	0.335370
C173	C	0.321964	0.458673	0.134087
C174	C	0.573988	0.687018	0.359072
C175	C	0.298354	0.687021	0.359073
C176	C	0.298243	0.411247	0.083420
C177	C	-0.376744	-0.534620	-0.438464
C178	C	-0.377059	-0.511923	-0.461380
C179	C	-0.376727	-0.465969	-0.369841
C180	C	-0.377041	-0.443376	-0.392861
C181	C	-0.376726	-0.465980	-0.438469
C182	C	-0.377059	-0.511912	-0.392856
C183	C	-0.364360	-0.687722	-0.480359
C184	C	-0.360859	-0.731086	-0.501956
C185	C	-0.359101	-0.752844	-0.547152
C186	C	-0.355296	-0.799857	-0.570569
C187	C	-0.360848	-0.731238	-0.570751
C188	C	-0.364356	-0.687882	-0.549155
C189	C	-0.366112	-0.666124	-0.503957
C190	C	-0.364287	-0.411657	-0.549636
C191	C	-0.360767	-0.386542	-0.571391
C192	C	-0.358990	-0.339569	-0.547945
C193	C	-0.355167	-0.312330	-0.571525
C194	C	-0.360738	-0.317715	-0.502743
C195	C	-0.364265	-0.342834	-0.480993
C196	C	-0.366037	-0.389807	-0.504444
C197	C	-0.364289	-0.411600	-0.204347
C198	C	-0.360764	-0.386470	-0.157479
C199	C	-0.358988	-0.339498	-0.133972
C200	C	-0.355164	-0.312246	-0.083155
C201	C	-0.360734	-0.317655	-0.157332
C202	C	-0.364257	-0.342785	-0.204198
C203	C	-0.366039	-0.389761	-0.227703
C204	C	-0.369911	-0.619107	-0.480543
C205	C	-0.372941	-0.581632	-0.461879
C206	C	-0.372904	-0.438722	-0.319026
C207	C	-0.369859	-0.417005	-0.278521
C208	C	-0.372903	-0.438745	-0.462054
C209	C	-0.369858	-0.417038	-0.480854
O210	O	-0.353776	-0.271251	0.452697
O211	O	-0.331268	-0.193646	0.397578
O212	O	-0.408887	-0.271267	0.397574
O213	O	-0.276156	-0.193630	0.452700
O214	O	-0.408904	-0.334321	0.334546
O215	O	-0.331284	-0.256700	0.334550
O216	O	-0.353792	-0.334305	0.389669
Zn217	Zn	-0.342541	-0.305514	0.352103
Zn218	Zn	-0.342519	-0.222437	0.435144
O219	O	-0.276172	-0.256684	0.389673
C220	C	0.027248	-0.062287	-0.438500
C221	C	0.050255	-0.084890	-0.461412
C222	C	0.095897	0.006369	-0.369873
C223	C	0.118800	-0.016337	-0.392890
C224	C	0.095870	-0.062287	-0.438499
C225	C	0.050281	-0.016337	-0.392890
C226	C	-0.138255	-0.116639	-0.480406
C227	C	-0.185127	-0.141762	-0.502007
C228	C	-0.208654	-0.188742	-0.547203
C229	C	-0.259479	-0.215991	-0.570623
C230	C	-0.185304	-0.210595	-0.570799
C231	C	-0.138434	-0.185468	-0.549201
C232	C	-0.114909	-0.138487	-0.504002
C233	C	0.137727	-0.185925	-0.549659
C234	C	0.159317	-0.211201	-0.571412
C235	C	0.204517	-0.189508	-0.547963
C236	C	0.227927	-0.216913	-0.571541
C237	C	0.228130	-0.142532	-0.502761
C238	C	0.206545	-0.117252	-0.481012
C239	C	0.161338	-0.138957	-0.504467
C240	C	0.137862	0.159507	-0.204380
C241	C	0.159476	0.202876	-0.157511
C242	C	0.204679	0.224632	-0.134001
C243	C	0.228116	0.271654	-0.083183
C244	C	0.228263	0.203016	-0.157358
C245	C	0.206647	0.159647	-0.204225
C246	C	0.161446	0.137899	-0.227733
C247	C	-0.064086	-0.111247	-0.480584
C248	C	-0.023575	-0.089532	-0.461918
C249	C	0.119332	0.053391	-0.319057
C250	C	0.138013	0.090873	-0.278551
C251	C	0.119276	-0.089696	-0.462081
C252	C	0.137934	-0.111544	-0.480879
H253	H	0.225888	0.142121	0.023078
Br254	Br	0.127466	0.232206	-0.125814
H255	H	0.226175	-0.078271	0.023103
Br256	Br	0.440717	-0.303902	-0.024765
Br257	Br	0.278907	0.534307	0.216678
H258	H	0.303968	-0.199523	0.229032
Br259	Br	-0.106528	-0.658502	-0.419659
H260	H	0.428341	-0.453071	-0.024442
H261	H	0.303876	-0.453066	-0.024438
H262	H	-0.204463	-0.248845	-0.607599
Br263	Br	-0.317741	-0.062302	0.378492
Br264	Br	0.440808	-0.062347	0.378496
H265	H	-0.204134	-0.123966	-0.482792
H266	H	0.101082	0.141856	0.023084
Br267	Br	0.440802	-0.062349	0.216721
H268	H	0.140407	-0.404231	-0.608153
H269	H	0.428359	0.546970	0.229001
H270	H	-0.318140	-0.199507	0.229033
H271	H	-0.318098	-0.075003	0.229024
Br272	Br	0.440740	0.696151	0.378465
H273	H	0.031860	0.002767	0.034923
Br274	Br	-0.377878	-0.381756	-0.362064
H275	H	-0.359344	-0.404338	-0.608193
Br276	Br	-0.106747	-0.215120	-0.581225
H277	H	-0.377585	-0.530933	-0.498855
Br278	Br	0.019436	-0.146513	-0.523873
Br279	Br	-0.106173	-0.658157	-0.581464
Br280	Br	-0.377918	-0.543564	-0.362048
Br281	Br	-0.216665	-0.760369	-0.632738
H282	H	0.100920	-0.203598	-0.568760
Br283	Br	-0.358390	-0.416112	-0.125778
Br284	Br	-0.358320	-0.253902	-0.125430
Br285	Br	0.127270	-0.274950	-0.632752
Br286	Br	-0.366705	-0.475353	-0.236247
Br287	Br	-0.366745	-0.658198	-0.419022
Br288	Br	0.238655	0.130314	-0.235922
H289	H	-0.359428	-0.748669	-0.482736
H290	H	0.031808	0.002663	-0.374412
Br291	Br	0.290155	-0.111985	0.015777
Br292	Br	-0.358465	-0.760768	-0.632085
H293	H	-0.365781	-0.670295	-0.568373
Br294	Br	-0.366691	-0.475402	-0.581461
Br295	Br	-0.217024	-0.760712	-0.470935
H296	H	-0.359296	-0.279472	-0.483655
H297	H	-0.365689	-0.325038	-0.444191
Br298	Br	0.238865	-0.313099	-0.235880
H299	H	-0.365676	-0.324995	-0.223214
H300	H	0.156282	0.002672	-0.374410
H301	H	0.101062	0.141810	-0.223521
H302	H	0.141046	-0.248691	0.016722
Br303	Br	-0.106332	-0.052882	-0.419067
H304	H	0.264937	-0.124865	-0.483670
Br305	Br	0.238591	-0.053502	-0.419673
Br306	Br	0.289609	0.232538	-0.125453
H307	H	-0.119360	-0.203127	0.023083
Br308	Br	0.019498	-0.146384	0.035270
H309	H	0.156329	0.002772	0.034929
H310	H	-0.204080	-0.123855	0.016715
H311	H	-0.119051	-0.078274	0.023099
H312	H	0.140287	0.220511	0.016703
H313	H	0.101600	-0.203117	0.023100
Br314	Br	0.289629	0.232586	0.015737
Br315	Br	0.127593	-0.416101	-0.125788
Br316	Br	-0.217162	-0.274208	0.015744
H317	H	0.031989	-0.530864	-0.374384
Br318	Br	0.019669	-0.543525	-0.523834
Br319	Br	0.076666	-0.475317	-0.581441
Br320	Br	0.181495	-0.381701	-0.362043
H321	H	0.101206	-0.449819	-0.223487
Br322	Br	0.289793	-0.253880	-0.125411
H323	H	0.226048	-0.324948	-0.444149
Br324	Br	0.289795	-0.253865	-0.470862
