data_functionalizedCrystal
_audit_creation_method	'MofGen! by Chris Wilmer'
_symmetry_space_group_name_H-M	'P1'
_symmetry_Int_Tables_number	1
_symmetry_cell_setting	triclinic
loop_
_symmetry_equiv_pos_as_xyz
  x,y,z
_cell_length_a	12.759400
_cell_length_b	12.759401
_cell_length_c	12.759393
_cell_angle_alpha	90.020591
_cell_angle_beta	89.968231
_cell_angle_gamma	89.988881
loop_
_atom_site_label
_atom_site_type_symbol
_atom_site_fract_x
_atom_site_fract_y
_atom_site_fract_z
Zn1	Zn	-0.418302	-1.606244	-0.594071
Zn2	Zn	-0.594022	-1.606142	-0.418391
Zn3	Zn	-0.418346	-1.430549	-0.418401
Zn4	Zn	-0.593929	-1.430535	-0.594023
O5	O	-0.506150	-1.518367	-0.506222
O6	O	-0.441632	-1.753251	-0.570783
O7	O	-0.570775	-1.582812	-0.271372
O8	O	-0.271319	-1.453905	-0.441728
O9	O	-0.570732	-1.753176	-0.441712
O10	O	-0.271287	-1.582987	-0.570792
O11	O	-0.441707	-1.453805	-0.271379
O12	O	-0.441617	-1.283526	-0.441681
O13	O	-0.570574	-1.453879	-0.741051
O14	O	-0.570617	-1.283516	-0.570710
O15	O	-0.441542	-1.582972	-0.741086
O16	O	-0.741030	-1.582798	-0.441665
O17	O	-0.740962	-1.453780	-0.570701
C18	C	-0.506113	-1.245400	-0.506192
C19	C	-0.506122	-1.128623	-0.506204
C20	C	-0.438861	-1.073736	-0.439141
C21	C	-0.438881	-0.964012	-0.439150
C22	C	-0.573426	-0.964072	-0.573296
C23	C	-0.573410	-1.073794	-0.573281
C24	C	-0.371573	-1.128565	-0.372064
C25	C	-0.304305	-1.073678	-0.304996
C26	C	-0.304325	-0.963954	-0.305006
C27	C	-0.371612	-0.909117	-0.372084
C28	C	-0.779117	-1.518305	-0.506200
C29	C	-0.895894	-1.518375	-0.506226
C30	C	-0.950756	-1.585629	-0.439111
C31	C	-1.060480	-1.585693	-0.439143
C32	C	-1.060469	-1.451240	-0.573408
C33	C	-0.950747	-1.451182	-0.573380
C34	C	-0.895903	-1.652821	-0.371956
C35	C	-0.950765	-1.720080	-0.304835
C36	C	-1.060489	-1.720144	-0.304868
C37	C	-1.115351	-1.652950	-0.372021
C38	C	-0.232116	-1.518459	-0.506267
C39	C	-0.115340	-1.518497	-0.506286
C40	C	-0.506043	-1.518436	-0.780255
C41	C	-0.505997	-1.518465	-0.897032
C42	C	-0.506176	-0.792401	-0.506243
C43	C	-0.506157	-0.909177	-0.506230
C44	C	-0.438779	-1.451319	-0.951904
C45	C	-0.438748	-1.451351	-1.061628
C46	C	-0.573156	-1.585683	-1.061599
C47	C	-0.573191	-1.585645	-0.951877
C48	C	-0.371585	-1.384139	-0.897059
C49	C	-0.304360	-1.316989	-0.951931
C50	C	-0.304329	-1.317021	-1.061655
C51	C	-0.371522	-1.384203	-1.116507
C52	C	-0.506180	-1.518360	-0.233254
C53	C	-0.505930	-1.518534	-0.116478
H54	H	-0.371628	-0.819772	-0.372081
O55	O	-0.231738	-1.132808	-0.232640
H56	H	-0.178321	-1.182814	-0.279747
H57	H	-0.249559	-0.919268	-0.250389
H58	H	-1.105146	-1.396533	-0.628080
H59	H	-0.249599	-1.262337	-1.106328
O60	O	-0.645926	-1.132998	-0.645646
H61	H	-0.634607	-1.218505	-0.634367
O62	O	-1.233697	-1.653014	-0.372054
H63	H	-1.262554	-1.732263	-0.393359
H64	H	-0.627912	-1.640335	-0.907199
O65	O	-0.777558	-1.652756	-0.371903
H66	H	-0.748716	-1.573507	-0.350581
O67	O	-0.645986	-0.904935	-0.645653
H68	H	-0.634687	-0.819417	-0.634405
H69	H	-0.627858	-1.640381	-1.106268
O70	O	-0.891572	-1.378636	-0.645764
H71	H	-0.841513	-1.425604	-0.699252
O72	O	-0.891603	-1.792559	-0.232415
H73	H	-0.912585	-1.875015	-0.250529
O74	O	-1.119669	-1.792682	-0.232479
H75	H	-1.063089	-1.839386	-0.185775
O76	O	-0.371522	-1.384370	-1.234853
H77	H	-0.392739	-1.305174	-1.263897
O78	O	-0.371619	-1.384109	-0.778714
H79	H	-0.313608	-1.326113	-0.749793
O80	O	-0.231888	-1.244532	-0.892778
H81	H	-0.243192	-1.255796	-0.807262
O82	O	-0.371555	-1.246910	-0.372042
H83	H	-0.350411	-1.275882	-0.451318
