data_functionalizedCrystal
_audit_creation_method	'MofGen! by Chris Wilmer'
_symmetry_space_group_name_H-M	'P1'
_symmetry_Int_Tables_number	1
_symmetry_cell_setting	triclinic
loop_
_symmetry_equiv_pos_as_xyz
  x,y,z
_cell_length_a	16.109318
_cell_length_b	15.995292
_cell_length_c	14.586319
_cell_angle_alpha	89.999401
_cell_angle_beta	90.000075
_cell_angle_gamma	83.468590
loop_
_atom_site_label
_atom_site_type_symbol
_atom_site_fract_x
_atom_site_fract_y
_atom_site_fract_z
O1	O	1.103128	0.107696	-0.076157
O2	O	1.603128	0.607696	0.423843
O3	O	0.861069	0.121075	-0.076175
O4	O	1.361069	0.621075	0.423825
O5	O	0.988741	-0.007507	-0.076167
O6	O	1.488741	0.492493	0.423833
O7	O	0.975457	0.236278	-0.076165
O8	O	1.475457	0.736278	0.423835
O9	O	0.988732	-0.007509	0.076314
O10	O	1.488732	0.492491	0.576314
O11	O	0.861060	0.121073	0.076306
O12	O	1.361060	0.621073	0.576306
O13	O	1.103120	0.107694	0.076323
O14	O	1.603120	0.607694	0.576323
Cu15	Cu	0.982089	0.114383	0.090237
Cu16	Cu	1.482089	0.614383	0.590237
Cu17	Cu	0.982100	0.114386	-0.090089
Cu18	Cu	1.482100	0.614386	0.409911
O19	O	0.975448	0.236276	0.076315
O20	O	1.475448	0.736276	0.576315
C21	C	0.830090	0.120530	0.000063
C22	C	1.330090	0.620530	0.500063
C23	C	0.737796	0.118897	0.000056
C24	C	1.237796	0.618897	0.500056
C25	C	0.438726	0.113626	-0.083045
C26	C	0.938726	0.613626	0.416955
C27	C	0.525448	0.115154	-0.083051
C28	C	1.025448	0.615154	0.416949
C29	C	0.525457	0.115141	0.083192
C30	C	1.025457	0.615141	0.583192
C31	C	0.438738	0.113606	0.083197
C32	C	0.938738	0.613606	0.583197
C33	C	0.395374	0.112853	0.000075
C34	C	0.895374	0.612853	0.500075
C35	C	0.568815	0.115916	0.000065
C36	C	1.068815	0.615916	0.500065
C37	C	0.662842	0.117573	0.000059
C38	C	1.162842	0.617573	0.500059
C39	C	0.301341	0.111195	0.000080
C40	C	0.801341	0.611195	0.500080
C41	C	0.988196	-0.038703	0.000071
C42	C	1.488196	0.461297	0.500071
C43	C	0.986575	-0.131656	0.000064
C44	C	1.486575	0.368344	0.500064
C45	C	0.980616	-0.469393	0.000072
C46	C	1.480616	0.030607	0.500072
C47	C	1.072766	-0.446100	0.000419
C48	C	1.572766	0.053900	0.500419
C49	C	1.074517	-0.349425	0.000072
C50	C	1.574517	0.150575	0.500072
C51	C	0.983573	-0.301838	0.000068
C52	C	1.483573	0.198162	0.500068
C53	C	0.937507	-0.330928	-0.087006
C54	C	1.437507	0.169072	0.412994
C55	C	0.936398	-0.427718	-0.087076
C56	C	1.436398	0.072282	0.412924
C57	C	0.934506	-0.427577	0.086323
C58	C	1.434506	0.072423	0.586323
C59	C	0.937921	-0.331085	0.087471
C60	C	1.437921	0.168915	0.587471
C61	C	0.985239	-0.207142	0.000063
C62	C	1.485239	0.292858	0.500063
C63	C	0.978947	-0.564088	0.000071
C64	C	1.478947	-0.064088	0.500071
C65	C	1.134099	0.108240	0.000083
C66	C	1.634099	0.608240	0.500083
C67	C	1.226393	0.109872	0.000084
C68	C	1.726393	0.609872	0.500084
C69	C	0.975993	0.267472	0.000075
C70	C	1.475993	0.767472	0.500075
C71	C	0.977614	0.360425	0.000076
C72	C	1.477614	0.860425	0.500076
N73	N	0.982088	0.114381	0.217069
N74	N	1.482088	0.614381	0.717069
N75	N	0.982108	0.114381	-0.216921
N76	N	1.482108	0.614381	0.283079
C77	C	1.038640	0.057464	0.452079
C78	C	1.538640	0.557464	0.952079
C79	C	1.038642	0.057462	0.548060
C80	C	1.538642	0.557462	1.048060
C81	C	0.925550	0.171301	0.548063
C82	C	1.425550	0.671301	1.048063
C83	C	0.925544	0.171298	0.452083
C84	C	1.425544	0.671298	0.952083
C85	C	0.982094	0.114381	0.404094
C86	C	1.482094	0.614381	0.904094
C87	C	0.982102	0.114382	0.596054
C88	C	1.482102	0.614382	1.096054
C89	C	0.982104	0.114380	0.700122
C90	C	1.482104	0.614380	1.200122
C91	C	0.982091	0.114381	0.300020
C92	C	1.482091	0.614381	0.800020
H93	H	0.403422	0.113012	-0.150728
H94	H	0.903422	0.613012	0.349272
H95	H	0.879510	0.217643	0.587145
H96	H	1.379510	0.717643	1.087145
O97	O	0.567692	0.115875	-0.163713
O98	O	1.067692	0.615875	0.336287
C99	C	0.653529	0.117409	-0.145898
C100	C	1.153529	0.617409	0.354102
H101	H	0.668826	0.091116	-0.074469
H102	H	1.168826	0.591116	0.425531
H103	H	0.691768	0.077371	-0.198992
H104	H	1.191768	0.577371	0.301008
H105	H	0.669404	0.184979	-0.149830
H106	H	1.169404	0.684979	0.350170
H107	H	1.108281	-0.474106	0.062864
H108	H	1.608281	0.025894	0.562864
H109	H	1.084686	0.011115	0.587127
H110	H	1.584686	0.511115	1.087127
O111	O	0.870728	0.226629	0.405365
O112	O	1.370728	0.726629	0.905365
C113	C	0.915239	0.278312	0.349858
C114	C	1.415239	0.778312	0.849858
H115	H	0.980299	0.244983	0.335478
H116	H	1.480299	0.744983	0.835478
H117	H	0.880533	0.291544	0.282365
H118	H	1.380533	0.791544	0.782365
H119	H	0.920876	0.340201	0.386843
H120	H	1.420876	0.840201	0.886843
O121	O	0.857639	-0.292988	-0.091006
O122	O	1.357639	0.207012	0.408994
C123	C	0.818146	-0.320478	-0.169956
C124	C	1.318146	0.179522	0.330044
H125	H	0.851127	-0.383955	-0.192599
H126	H	1.351127	0.116045	0.307401
H127	H	0.749978	-0.327123	-0.153753
H128	H	1.249978	0.172877	0.346247
H129	H	0.821396	-0.272585	-0.227356
H130	H	1.321396	0.227415	0.272644
O131	O	0.567704	0.115920	0.163850
O132	O	1.067704	0.615920	0.663850
C133	C	0.653544	0.117422	0.146024
C134	C	1.153544	0.617422	0.646024
H135	H	0.661936	0.144128	0.074590
H136	H	1.161936	0.644128	0.574590
H137	H	0.681216	0.158630	0.199109
H138	H	1.181216	0.658630	0.699109
H139	H	0.686891	0.050723	0.149960
H140	H	1.186891	0.550723	0.649960
O141	O	0.855839	-0.445176	-0.091926
O142	O	1.355839	0.054824	0.408074
C143	C	0.844936	-0.492539	-0.171667
C144	C	1.344936	0.007461	0.328333
H145	H	0.907842	-0.526013	-0.194340
H146	H	1.407842	-0.026013	0.305660
H147	H	0.800191	-0.541118	-0.156514
H148	H	1.300191	-0.041118	0.343486
H149	H	0.817958	-0.448787	-0.228626
H150	H	1.317958	0.051213	0.271374
H151	H	0.403440	0.112977	0.150887
H152	H	0.903440	0.612977	0.650887
O153	O	1.117632	-0.326660	0.074445
O154	O	1.617632	0.173340	0.574445
C155	C	1.186859	-0.287028	0.045235
C156	C	1.686859	0.212972	0.545235
H157	H	1.174652	-0.260548	-0.026683
H158	H	1.674652	0.239452	0.473317
H159	H	1.196880	-0.233657	0.094359
H160	H	1.696880	0.266343	0.594359
H161	H	1.245024	-0.334827	0.044411
H162	H	1.745024	0.165173	0.544411
O163	O	1.114780	-0.480748	-0.073723
O164	O	1.614780	0.019252	0.426277
C165	C	1.061269	-0.525998	-0.125889
C166	C	1.561269	-0.025998	0.374111
H167	H	0.993524	-0.500847	-0.111087
H168	H	1.493524	-0.000847	0.388913
H169	H	1.074819	-0.518233	-0.201935
H170	H	1.574819	-0.018233	0.298065
H171	H	1.072193	-0.595502	-0.106831
H172	H	1.572193	-0.095502	0.393169
H173	H	0.871540	-0.298102	0.092726
H174	H	1.371540	0.201898	0.592726
H175	H	1.110815	-0.331027	-0.062450
H176	H	1.610815	0.168973	0.437550
H177	H	0.969504	-0.310873	-0.151803
H178	H	1.469504	0.189127	0.348197
O179	O	0.969054	-0.461359	0.164975
O180	O	1.469054	0.038641	0.664975
C181	C	1.035453	-0.523397	0.143231
C182	C	1.535453	-0.023397	0.643231
H183	H	1.059927	-0.511029	0.071746
H184	H	1.559927	-0.011029	0.571746
H185	H	1.087854	-0.521210	0.195401
H186	H	1.587854	-0.021210	0.695401
H187	H	1.012270	-0.588116	0.144964
H188	H	1.512270	-0.088116	0.644964
O189	O	0.977854	-0.309044	0.164416
O190	O	1.477854	0.190956	0.664416
C191	C	0.936322	-0.335592	0.242444
C192	C	1.436322	0.164408	0.742444
H193	H	0.899292	-0.389563	0.222897
H194	H	1.399292	0.110437	0.722897
H195	H	0.984197	-0.357808	0.297328
H196	H	1.484197	0.142192	0.797328
H197	H	0.891896	-0.280873	0.270203
H198	H	1.391896	0.219127	0.770203
H199	H	0.968308	-0.454540	-0.152163
H200	H	1.468308	0.045460	0.347837
H201	H	1.084685	0.011118	0.413008
H202	H	1.584685	0.511118	0.913008
O203	O	0.853618	-0.444354	0.086906
O204	O	1.353618	0.055646	0.586906
C205	C	0.838698	-0.493599	0.009749
C206	C	1.338698	0.006401	0.509749
H207	H	0.900279	-0.528214	-0.015332
H208	H	1.400279	-0.028214	0.484668
H209	H	0.794281	-0.541281	0.029357
H210	H	1.294281	-0.041281	0.529357
H211	H	0.809469	-0.451125	-0.047166
H212	H	1.309469	0.048875	0.452834
