data_functionalizedCrystal
_audit_creation_method	'MofGen! by Chris Wilmer'
_symmetry_space_group_name_H-M	'P1'
_symmetry_Int_Tables_number	1
_symmetry_cell_setting	triclinic
loop_
_symmetry_equiv_pos_as_xyz
  x,y,z
_cell_length_a	17.077404
_cell_length_b	16.625545
_cell_length_c	17.077396
_cell_angle_alpha	90.027926
_cell_angle_beta	90.018362
_cell_angle_gamma	90.023528
loop_
_atom_site_label
_atom_site_type_symbol
_atom_site_fract_x
_atom_site_fract_y
_atom_site_fract_z
Zn1	Zn	1.200040	-0.321045	0.443822
Zn2	Zn	1.533373	0.012288	0.777155
Zn3	Zn	1.866707	0.345621	1.110489
Zn4	Zn	1.199941	-0.455888	0.312557
Zn5	Zn	1.533274	-0.122555	0.645890
Zn6	Zn	1.866608	0.210779	0.979224
Zn7	Zn	1.068772	-0.321068	0.312572
Zn8	Zn	1.402105	0.012265	0.645906
Zn9	Zn	1.735439	0.345598	0.979239
Zn10	Zn	1.068734	-0.455835	0.443783
Zn11	Zn	1.402067	-0.122502	0.777117
Zn12	Zn	1.735400	0.210832	1.110450
O13	O	1.134372	-0.388459	0.378184
O14	O	1.467705	-0.055126	0.711517
O15	O	1.801038	0.278208	1.044850
O16	O	1.309874	-0.338945	0.426419
O17	O	1.643207	-0.005612	0.759752
O18	O	1.976540	0.327722	1.093086
O19	O	1.182516	-0.438036	0.202712
O20	O	1.515849	-0.104702	0.536046
O21	O	1.849182	0.228631	0.869379
O22	O	1.086242	-0.208233	0.330005
O23	O	1.419576	0.125100	0.663339
O24	O	1.752909	0.458434	0.996672
O25	O	1.309801	-0.438013	0.329979
O26	O	1.643134	-0.104680	0.663313
O27	O	1.976468	0.228653	0.996646
O28	O	1.182684	-0.208216	0.426434
O29	O	1.516018	0.125117	0.759767
O30	O	1.849351	0.458451	1.093101
O31	O	1.086146	-0.338984	0.202723
O32	O	1.419480	-0.005651	0.536057
O33	O	1.752813	0.327682	0.869390
O34	O	0.958920	-0.338933	0.329968
O35	O	1.292253	-0.005599	0.663301
O36	O	1.625587	0.327734	0.996635
O37	O	1.086177	-0.437923	0.553635
O38	O	1.419511	-0.104590	0.886969
O39	O	1.752844	0.228744	1.220302
O40	O	0.958892	-0.437945	0.426368
O41	O	1.292225	-0.104612	0.759702
O42	O	1.625559	0.228722	1.093035
O43	O	1.182647	-0.338894	0.553664
O44	O	1.515981	-0.005560	0.886997
O45	O	1.849314	0.327773	1.220330
O46	O	1.182479	-0.568713	0.329942
O47	O	1.515812	-0.235380	0.663275
O48	O	1.849145	0.097953	0.996609
O49	O	1.086081	-0.568674	0.426353
O50	O	1.419415	-0.235341	0.759687
O51	O	1.752748	0.097992	1.093020
C52	C	0.930424	-0.388436	0.378166
C53	C	1.263757	-0.055103	0.711499
C54	C	1.597090	0.278230	1.044833
C55	C	0.843174	-0.388446	0.378177
C56	C	1.176507	-0.055113	0.711510
C57	C	1.509841	0.278221	1.044844
C58	C	0.802222	-0.336953	0.428470
C59	C	1.135556	-0.003619	0.761803
C60	C	1.468889	0.329714	1.095137
C61	C	0.720242	-0.336958	0.428474
C62	C	1.053575	-0.003625	0.761807
C63	C	1.386909	0.329709	1.095140
C64	C	0.679215	-0.388461	0.378188
C65	C	1.012548	-0.055128	0.711521
C66	C	1.345881	0.278206	1.044854
C67	C	0.720172	-0.439956	0.327889
C68	C	1.053505	-0.106623	0.661223
C69	C	1.386839	0.226710	0.994556
C70	C	0.802151	-0.439947	0.327882
C71	C	1.135484	-0.106613	0.661216
C72	C	1.468817	0.226720	0.994549
C73	C	0.549302	-0.439975	0.327909
C74	C	0.882635	-0.106641	0.661242
C75	C	1.215968	0.226692	0.994576
C76	C	0.467317	-0.439986	0.327917
C77	C	0.800651	-0.106653	0.661250
C78	C	1.133984	0.226681	0.994583
C79	C	0.467393	-0.336986	0.428500
C80	C	0.800726	-0.003653	0.761833
C81	C	1.134060	0.329681	1.095167
C82	C	0.549372	-0.336976	0.428493
C83	C	0.882705	-0.003643	0.761826
C84	C	1.216039	0.329690	1.095160
C85	C	0.590324	-0.388473	0.378196
C86	C	0.923657	-0.055140	0.711529
C87	C	1.256990	0.278194	1.044862
C88	C	1.134286	-0.597950	0.378159
C89	C	1.467620	-0.264617	0.711492
C90	C	1.800953	0.068717	1.044826
C91	C	1.134322	-0.687571	0.378175
C92	C	1.467655	-0.354238	0.711508
C93	C	1.800988	-0.020904	1.044841
C94	C	1.134352	-0.760354	0.378190
C95	C	1.467686	-0.427020	0.711524
C96	C	1.801019	-0.093687	1.044857
C97	C	1.134398	-0.851662	0.378208
C98	C	1.467731	-0.518329	0.711541
C99	C	1.801065	-0.184995	1.044874
C100	C	1.134439	-0.924438	0.378218
C101	C	1.467772	-0.591105	0.711551
C102	C	1.801105	-0.257772	1.044884
C103	C	1.134483	-1.015753	0.378234
C104	C	1.467817	-0.682419	0.711567
C105	C	1.801150	-0.349086	1.044900
C106	C	1.339116	-0.388483	0.378202
C107	C	1.672449	-0.055149	0.711535
C108	C	2.005783	0.278184	1.044868
C109	C	1.426366	-0.388493	0.378210
C110	C	1.759699	-0.055159	0.711543
C111	C	2.093032	0.278174	1.044876
C112	C	1.134419	-0.388400	0.582928
C113	C	1.467752	-0.055066	0.916261
C114	C	1.801086	0.278267	1.249595
C115	C	1.134439	-0.388374	0.670178
C116	C	1.467773	-0.055041	1.003511
C117	C	1.801106	0.278292	1.336845
C118	C	1.134479	-0.178150	0.378226
C119	C	1.467812	0.155183	0.711559
C120	C	1.801145	0.488516	1.044892
C121	C	1.134524	-0.088529	0.378244
C122	C	1.467858	0.244804	0.711577
C123	C	1.801191	0.578138	1.044910
C124	C	1.134370	-0.388460	0.174236
C125	C	1.467703	-0.055127	0.507569
C126	C	1.801036	0.278207	0.840903
C127	C	1.134501	-0.388258	0.086986
C128	C	1.467835	-0.054925	0.420320
C129	C	1.801168	0.278408	0.753653
C130	C	1.184673	-0.336806	0.711184
C131	C	1.518007	-0.003472	1.044517
C132	C	1.851340	0.329861	1.377851
C133	C	1.184683	-0.336779	0.793165
C134	C	1.518016	-0.003445	1.126498
C135	C	1.851349	0.329888	1.459831
C136	C	1.134462	-0.388325	0.834137
C137	C	1.467795	-0.054992	1.167471
C138	C	1.801128	0.278341	1.500804
C139	C	1.084222	-0.439897	0.793125
C140	C	1.417556	-0.106563	1.126459
C141	C	1.750889	0.226770	1.459792
C142	C	1.084209	-0.439919	0.711146
C143	C	1.417543	-0.106585	1.044480
C144	C	1.750876	0.226748	1.377813
C145	C	1.084254	-0.439848	0.963996
C146	C	1.417587	-0.106515	1.297329
C147	C	1.750921	0.226819	1.630662
C148	C	1.084268	-0.439827	1.045980
C149	C	1.417601	-0.106494	1.379314
C150	C	1.750934	0.226840	1.712647
C151	C	1.184727	-0.336708	1.046014
C152	C	1.518060	-0.003375	1.379347
C153	C	1.851394	0.329959	1.712680
C154	C	1.184714	-0.336730	0.964035
C155	C	1.518048	-0.003397	1.297368
C156	C	1.851381	0.329936	1.630701
C157	C	1.134476	-0.388303	0.923028
C158	C	1.467809	-0.054969	1.256362
C159	C	1.801142	0.278364	1.589695
H160	H	0.686903	-0.295029	0.469429
H161	H	1.020236	0.038305	0.802762
H162	H	1.353570	0.371638	1.136095
H163	H	0.835492	-0.481877	0.286928
H164	H	1.168826	-0.148544	0.620262
H165	H	1.502159	0.184790	0.953595
Cl166	Cl	1.021123	-0.504621	1.097488
Cl167	Cl	1.354456	-0.171287	1.430822
Cl168	Cl	1.687790	0.162046	1.764155
H169	H	1.043332	-0.481831	0.930611
H170	H	1.376665	-0.148498	1.263944
H171	H	1.709999	0.184836	1.597278
Cl172	Cl	1.247816	-0.272004	0.659683
Cl173	Cl	1.581149	0.061329	0.993017
Cl174	Cl	1.914483	0.394663	1.326350
H175	H	0.582642	-0.481907	0.286949
H176	H	0.915975	-0.148573	0.620283
H177	H	1.249309	0.184760	0.953616
H178	H	1.225613	-0.294761	0.930677
H179	H	1.558946	0.038572	1.264010
H180	H	1.892280	0.371906	1.597343
H181	H	0.582774	-0.295043	0.469445
H182	H	0.916108	0.038291	0.802778
H183	H	1.249441	0.371624	1.136111
Cl184	Cl	0.415741	-0.504753	0.264718
Cl185	Cl	0.749074	-0.171419	0.598051
Cl186	Cl	1.082407	0.161914	0.931385
Cl187	Cl	1.021084	-0.504696	0.844634
Cl188	Cl	1.354417	-0.171362	1.177968
Cl189	Cl	1.687751	0.161971	1.511301
Cl190	Cl	1.247885	-0.271875	1.097564
Cl191	Cl	1.581218	0.061458	1.430897
Cl192	Cl	1.914552	0.394792	1.764230
H193	H	0.686761	-0.481887	0.286942
H194	H	1.020094	-0.148554	0.620275
H195	H	1.353427	0.184779	0.953609
Cl196	Cl	0.415912	-0.272245	0.491729
Cl197	Cl	0.749245	0.061088	0.825062
Cl198	Cl	1.082578	0.394421	1.158396
H199	H	1.043296	-0.481903	0.677760
H200	H	1.376629	-0.148570	1.011094
H201	H	1.709963	0.184763	1.344427
H202	H	1.225590	-0.294788	0.826548
H203	H	1.558923	0.038545	1.159882
H204	H	1.892257	0.371879	1.493215
H205	H	0.835621	-0.295015	0.469421
H206	H	1.168954	0.038318	0.802754
H207	H	1.502288	0.371652	1.136087
