data_functionalizedCrystal
_audit_creation_method	'MofGen! by Chris Wilmer'
_symmetry_space_group_name_H-M	'P1'
_symmetry_Int_Tables_number	1
_symmetry_cell_setting	triclinic
loop_
_symmetry_equiv_pos_as_xyz
  x,y,z
_cell_length_a	12.837943
_cell_length_b	12.837942
_cell_length_c	11.295483
_cell_angle_alpha	85.469583
_cell_angle_beta	94.538773
_cell_angle_gamma	94.828940
loop_
_atom_site_label
_atom_site_type_symbol
_atom_site_fract_x
_atom_site_fract_y
_atom_site_fract_z
O1	O	-1.408689	-0.265788	-0.099003
O2	O	-0.908689	0.234212	0.400997
O3	O	-1.105556	-0.252345	-0.099010
O4	O	-0.605556	0.247655	0.400990
O5	O	-1.250401	-0.107500	-0.098999
O6	O	-0.750401	0.392500	0.401001
O7	O	-1.263845	-0.410633	-0.099013
O8	O	-0.763845	0.089367	0.400987
O9	O	-1.237676	-0.120201	0.099051
O10	O	-0.737676	0.379799	0.599051
O11	O	-1.092832	-0.265045	0.099040
O12	O	-0.592832	0.234955	0.599040
O13	O	-1.395965	-0.278489	0.099047
O14	O	-0.895965	0.221511	0.599047
Cu15	Cu	-1.243237	-0.272927	0.117127
Cu16	Cu	-0.743237	0.227073	0.617127
Cu17	Cu	-1.258285	-0.257907	-0.117090
Cu18	Cu	-0.758285	0.242093	0.382910
O19	O	-1.251121	-0.423333	0.099037
O20	O	-0.751121	0.076667	0.599037
C21	C	-1.060125	-0.254153	0.000014
C22	C	-0.560125	0.245847	0.500014
C23	C	-0.943710	-0.240609	0.000012
C24	C	-0.443710	0.259391	0.500012
C25	C	-1.239497	-0.074781	0.000025
C26	C	-0.739497	0.425219	0.500025
C27	C	-1.225953	0.041634	0.000023
C28	C	-0.725953	0.541634	0.500023
C29	C	-1.441396	-0.276680	0.000021
C30	C	-0.941396	0.223320	0.500021
C31	C	-1.557812	-0.290224	0.000015
C32	C	-1.057812	0.209776	0.500015
N33	N	-1.232661	-0.283491	0.281863
N34	N	-0.732661	0.216509	0.781863
C35	C	-0.718835	-0.403439	0.000021
C36	C	-0.218835	0.096561	0.500021
C37	C	-0.609453	-0.390717	0.000020
C38	C	-0.109453	0.109283	0.500020
C39	C	-0.615561	-0.202446	0.000016
C40	C	-0.115561	0.297554	0.500016
C41	C	-0.724943	-0.215167	0.000017
C42	C	-0.224943	0.284833	0.500017
C43	C	-0.776576	-0.315667	0.000018
C44	C	-0.276576	0.184333	0.500018
C45	C	-0.885961	-0.328387	0.000011
C46	C	-0.385961	0.171613	0.500011
C47	C	-0.892066	-0.140117	0.000016
C48	C	-0.392066	0.359883	0.500016
C49	C	-0.782684	-0.127396	0.000015
C50	C	-0.282684	0.372604	0.500015
C51	C	-1.262024	-0.456052	0.000010
C52	C	-0.762024	0.043948	0.500010
C53	C	-1.275569	-0.572467	0.000004
C54	C	-0.775569	-0.072467	0.500004
C55	C	-1.388784	0.266509	0.000002
C56	C	-0.888784	0.766509	0.500002
C57	C	-1.376062	0.375892	-0.000000
C58	C	-0.876062	0.875892	0.500000
C59	C	-1.187791	0.369784	0.000008
C60	C	-0.687791	0.869784	0.500008
C61	C	-1.200512	0.260402	0.000010
C62	C	-0.700512	0.760402	0.500010
C63	C	-1.301011	0.208768	0.000009
C64	C	-0.801011	0.708768	0.500009
C65	C	-1.313731	0.099383	0.000020
C66	C	-0.813731	0.599383	0.500020
C67	C	-1.125461	0.093278	0.000019
C68	C	-0.625461	0.593278	0.500019
C69	C	-1.112740	0.202660	0.000017
C70	C	-0.612740	0.702660	0.500017
N71	N	-1.268868	-0.247335	-0.281825
N72	N	-0.768868	0.252665	0.218175
C73	C	-1.344996	-0.171231	0.531161
C74	C	-0.844996	0.328769	1.031161
C75	C	-1.337012	-0.179223	0.655824
C76	C	-0.837012	0.320777	1.155824
C77	C	-1.208702	-0.307459	0.655854
C78	C	-0.708702	0.192541	1.155854
C79	C	-1.216687	-0.299467	0.531191
C80	C	-0.716687	0.200533	1.031191
C81	C	-1.284837	-0.231353	0.468849
C82	C	-0.784837	0.268647	0.968849
C83	C	-1.292826	-0.223367	0.344183
C84	C	-0.792826	0.276633	0.844183
C85	C	-1.164512	-0.351597	0.344216
C86	C	-0.664512	0.148403	0.844216
C87	C	-1.156528	-0.359589	0.468879
C88	C	-0.656528	0.140411	0.968879
H89	H	-0.928000	-0.410219	0.000014
H90	H	-0.428000	0.089781	0.500014
Cl91	Cl	-0.536867	-0.501065	0.000027
Cl92	Cl	-0.036867	-0.001065	0.500027
H93	H	-1.153209	-0.362909	0.706630
H94	H	-0.653209	0.137091	1.206630
Cl95	Cl	-0.986405	0.267582	0.000008
Cl96	Cl	-0.486405	0.767582	0.500008
Cl97	Cl	-1.061461	0.434715	-0.000026
Cl98	Cl	-0.561461	0.934715	0.499974
H99	H	-1.470613	0.224468	0.000013
H100	H	-0.970613	0.724468	0.500013
Cl101	Cl	-1.015111	0.020681	0.000043
Cl102	Cl	-0.515111	0.520681	0.500043
H103	H	-1.115530	-0.400555	0.293468
H104	H	-0.615530	0.099445	0.793468
H105	H	-1.400494	-0.115777	0.480401
H106	H	-0.900494	0.384223	0.980401
Cl107	Cl	-0.717763	-0.001061	0.000016
Cl108	Cl	-0.217763	0.498939	0.500016
Cl109	Cl	-1.378502	-0.137741	0.265812
Cl110	Cl	-0.878502	0.362259	0.765812
Cl111	Cl	-1.412641	-0.103636	0.734155
Cl112	Cl	-0.912641	0.396364	1.234155
H113	H	-1.101038	-0.415044	0.519653
H114	H	-0.601038	0.084956	1.019653
H115	H	-1.395563	0.057344	0.000023
H116	H	-0.895563	0.557344	0.500023
Cl117	Cl	-0.550631	-0.076115	0.000031
Cl118	Cl	-0.050631	0.423885	0.500031
Cl119	Cl	-0.783751	-0.529776	0.000006
Cl120	Cl	-0.283751	-0.029776	0.500006
H121	H	-0.939091	-0.068646	0.000006
H122	H	-0.439091	0.431354	0.500006
H123	H	-1.447536	0.422901	-0.000010
H124	H	-0.947536	0.922901	0.499990
