data_functionalizedCrystal
_audit_creation_method	'MofGen! by Chris Wilmer'
_symmetry_space_group_name_H-M	'P1'
_symmetry_Int_Tables_number	1
_symmetry_cell_setting	triclinic
loop_
_symmetry_equiv_pos_as_xyz
  x,y,z
_cell_length_a	17.019383
_cell_length_b	17.019250
_cell_length_c	7.540329
_cell_angle_alpha	93.885967
_cell_angle_beta	86.121068
_cell_angle_gamma	96.872202
loop_
_atom_site_label
_atom_site_type_symbol
_atom_site_fract_x
_atom_site_fract_y
_atom_site_fract_z
O1	O	1.046540	-0.100556	-0.322524
O2	O	0.816863	-0.113359	-0.289442
O3	O	0.938120	0.007884	-0.289400
O4	O	0.925283	-0.221799	-0.322566
O5	O	0.938112	0.007885	0.005567
O6	O	0.816855	-0.113358	0.005525
O7	O	1.046533	-0.100555	-0.027558
Cu8	Cu	0.931694	-0.106956	0.015916
Cu9	Cu	0.931702	-0.106958	-0.332916
O10	O	0.925276	-0.221798	-0.027600
C11	C	0.787471	-0.112871	-0.137401
C12	C	0.699904	-0.111409	-0.123818
C13	C	0.658761	-0.110725	-0.278210
C14	C	0.576481	-0.109363	-0.265423
C15	C	0.535345	-0.108681	-0.098242
C16	C	0.576493	-0.109367	0.056162
C17	C	0.658772	-0.110734	0.043372
C18	C	0.286918	-0.104559	-0.051583
C19	C	0.204634	-0.103189	-0.038805
C20	C	0.204627	-0.103187	-0.360392
C21	C	0.286908	-0.104549	-0.373165
C22	C	0.328048	-0.105240	-0.218763
C23	C	0.451242	-0.107287	-0.085167
C24	C	0.412149	-0.106639	-0.231840
C25	C	0.937633	0.037274	-0.137352
C26	C	0.936184	0.124844	-0.123751
C27	C	0.927915	0.620116	-0.038822
C28	C	0.929284	0.537835	-0.051595
C29	C	0.929979	0.496686	-0.218773
C30	C	0.929296	0.537821	-0.373186
C31	C	0.927921	0.620099	-0.360411
C32	C	0.934126	0.248257	-0.265389
C33	C	0.935503	0.165974	-0.278153
C34	C	0.935490	0.165993	0.043440
C35	C	0.934119	0.248274	0.056200
C36	C	0.933433	0.289401	-0.098213
C37	C	0.931381	0.412582	-0.231833
C38	C	0.932025	0.373502	-0.085151
C39	C	1.075925	-0.101043	-0.179603
C40	C	1.163492	-0.102505	-0.193197
C41	C	0.925768	0.748813	-0.179641
C42	C	0.927235	0.661245	-0.193225
N43	N	0.931693	-0.106954	0.261265
N44	N	0.931709	-0.106953	-0.578264
H45	H	0.320405	-0.105116	0.074144
N46	N	0.932146	0.368199	-0.412142
H47	H	0.931511	0.406737	-0.508030
H48	H	0.883839	0.327606	-0.417986
H49	H	0.171141	-0.102656	0.097338
N50	N	0.532125	-0.108635	0.236476
H51	H	0.503574	-0.059721	0.254456
H52	H	0.570853	-0.108233	0.332365
N53	N	0.703127	-0.111452	-0.458527
H54	H	0.664575	-0.110813	-0.554392
H55	H	0.730816	-0.160897	-0.477334
H56	H	0.933573	0.281734	-0.391124
N57	N	0.703145	-0.111476	0.209900
H58	H	0.695282	-0.062362	0.288918
H59	H	0.761491	-0.112479	0.176287
N60	N	0.331264	-0.105279	-0.553494
H61	H	0.310494	-0.153916	-0.628061
H62	H	0.389622	-0.106214	-0.538031
N63	N	0.532105	-0.108617	-0.431943
H64	H	0.539975	-0.157726	-0.510970
H65	H	0.552895	-0.059940	-0.497809
H66	H	0.171122	-0.102626	-0.486097
H67	H	0.445645	-0.107200	-0.367958
H68	H	0.936068	0.132472	-0.414296
H69	H	0.929858	0.504310	-0.509306
N70	N	0.927201	0.664464	-0.526948
H71	H	0.878572	0.643689	-0.593020
H72	H	0.976357	0.656579	-0.605778
N73	N	0.406870	-0.106546	0.095143
H74	H	0.378316	-0.057634	0.113108
H75	H	0.445594	-0.106140	0.191043
H76	H	0.927353	0.653614	0.097311
N77	N	0.930023	0.493474	0.114937
H78	H	0.929381	0.532027	0.222780
H79	H	0.979472	0.465791	0.110162
H80	H	0.933558	0.281772	0.192333
H81	H	0.936048	0.132498	0.169154
N82	N	0.931284	0.417883	0.095154
H83	H	0.931928	0.379347	0.191040
H84	H	0.881837	0.445568	0.113926
