data_functionalizedCrystal
_audit_creation_method	'MofGen! by Chris Wilmer'
_symmetry_space_group_name_H-M	'P1'
_symmetry_Int_Tables_number	1
_symmetry_cell_setting	triclinic
loop_
_symmetry_equiv_pos_as_xyz
  x,y,z
_cell_length_a	16.109301
_cell_length_b	16.776229
_cell_length_c	16.109301
_cell_angle_alpha	90.008074
_cell_angle_beta	83.461481
_cell_angle_gamma	90.004422
loop_
_atom_site_label
_atom_site_type_symbol
_atom_site_fract_x
_atom_site_fract_y
_atom_site_fract_z
O1	O	1.103135	0.066240	0.106869
O2	O	1.603135	0.566240	0.606869
O3	O	0.861073	0.066253	0.120168
O4	O	1.361073	0.566253	0.620168
O5	O	0.988754	0.066238	-0.007512
O6	O	1.488754	0.566238	0.492488
O7	O	0.975454	0.066255	0.234550
O8	O	1.475454	0.566255	0.734550
O9	O	0.988737	-0.066338	-0.007520
O10	O	1.488737	0.433662	0.492480
O11	O	0.861056	-0.066323	0.120161
O12	O	1.361056	0.433677	0.620161
O13	O	1.103118	-0.066336	0.106861
O14	O	1.603118	0.433664	0.606861
Zn15	Zn	0.982084	-0.087379	0.113510
Zn16	Zn	1.482084	0.412621	0.613510
Zn17	Zn	0.982107	0.087296	0.113520
Zn18	Zn	1.482107	0.587296	0.613520
O19	O	0.975437	-0.066321	0.234542
O20	O	1.475437	0.433679	0.734542
C21	C	0.830090	-0.000033	0.119626
C22	C	1.330090	0.499967	0.619626
C23	C	0.737794	-0.000029	0.118011
C24	C	1.237794	0.499971	0.618011
N25	N	0.982075	-0.206590	0.113502
N26	N	1.482075	0.293410	0.613502
C27	C	0.515522	-0.000033	0.190018
C28	C	1.015522	0.499967	0.690018
C29	C	0.428801	-0.000038	0.188494
C30	C	0.928801	0.499962	0.688494
C31	C	0.448676	-0.000045	0.037006
C32	C	0.948676	0.499955	0.537006
C33	C	0.535394	-0.000046	0.038530
C34	C	1.035394	0.499954	0.538530
C35	C	0.568815	-0.000036	0.115039
C36	C	1.068815	0.499964	0.615039
C37	C	0.395376	-0.000040	0.111990
C38	C	0.895376	0.499960	0.611990
C39	C	0.301350	-0.000046	0.110337
C40	C	0.801350	0.499954	0.610337
C41	C	0.662847	-0.000031	0.116693
C42	C	1.162847	0.499969	0.616693
C43	C	1.038629	-0.248314	0.056988
C44	C	1.538629	0.251686	0.556988
C45	C	1.038634	-0.331766	0.056988
C46	C	1.538634	0.168234	0.556988
C47	C	0.982088	-0.373493	0.113505
C48	C	1.482088	0.126507	0.613505
C49	C	0.925527	-0.331764	0.170022
C50	C	1.425527	0.168236	0.670022
C51	C	0.925519	-0.248313	0.170018
C52	C	1.425519	0.251687	0.670018
C53	C	0.925557	-0.668311	0.170038
C54	C	1.425557	-0.168311	0.670038
C55	C	0.925571	-0.751767	0.170039
C56	C	1.425571	-0.251767	0.670039
C57	C	1.038672	-0.751764	0.057008
C58	C	1.538672	-0.251764	0.557008
C59	C	1.038664	-0.668313	0.057004
C60	C	1.538664	-0.168313	0.557004
C61	C	0.982101	-0.626591	0.113517
C62	C	1.482101	-0.126591	0.613517
C63	C	0.982096	-0.536103	0.113516
C64	C	1.482096	-0.036103	0.613516
C65	C	0.982096	-0.463980	0.113511
C66	C	1.482096	0.036020	0.613511
C67	C	1.134101	-0.000048	0.107404
C68	C	1.634101	0.499952	0.607404
C69	C	1.226397	-0.000047	0.109019
C70	C	1.726397	0.499953	0.609019
C71	C	0.988206	-0.000050	-0.038491
C72	C	1.488206	0.499950	0.461509
C73	C	0.986591	-0.000051	-0.130786
C74	C	1.486591	0.499949	0.369214
N75	N	0.982122	0.206507	0.113521
N76	N	1.482122	0.706507	0.613521
C77	C	1.058599	-0.000043	-0.353059
C78	C	1.558599	0.499957	0.146941
C79	C	1.057075	-0.000036	-0.439779
C80	C	1.557075	0.499964	0.060221
C81	C	0.905586	-0.000031	-0.419905
C82	C	1.405586	0.499969	0.080095
C83	C	0.907111	-0.000032	-0.333186
C84	C	1.407111	0.499968	0.166814
C85	C	0.983620	-0.000042	-0.299766
C86	C	1.483620	0.499958	0.200234
C87	C	0.980571	-0.000034	-0.473205
C88	C	1.480571	0.499966	0.026795
C89	C	0.978918	-0.000027	-0.567231
C90	C	1.478918	0.499973	-0.067231
C91	C	0.985273	-0.000047	-0.205734
C92	C	1.485273	0.499953	0.294266
C93	C	0.975984	-0.000031	0.265521
C94	C	1.475984	0.499969	0.765521
C95	C	0.977600	-0.000025	0.357816
C96	C	1.477600	0.499975	0.857816
H97	H	0.385413	-0.000038	0.249550
H98	H	0.885413	0.499962	0.749550
O99	O	0.826232	-0.000036	-0.275703
O100	O	1.326232	0.499964	0.224297
H101	H	0.823304	0.054003	-0.235716
H102	H	1.323304	0.554003	0.264284
O103	O	1.099646	-0.623312	-0.003965
O104	O	1.599646	-0.123312	0.496035
H105	H	1.090140	-0.558274	0.005528
H106	H	1.590140	-0.058274	0.505528
O107	O	1.099675	-0.796763	-0.003957
O108	O	1.599675	-0.296763	0.496043
H109	H	1.090178	-0.861802	0.005530
H110	H	1.590178	-0.361802	0.505530
H111	H	0.578788	-0.000050	-0.022530
H112	H	1.078788	0.499950	0.477470
H113	H	0.421454	-0.000059	-0.025285
H114	H	0.921454	0.499941	0.474715
O115	O	1.099616	-0.203309	-0.003974
O116	O	1.599616	0.296691	0.496026
H117	H	1.138935	-0.246346	-0.043277
H118	H	1.638935	0.253654	0.456723
H119	H	1.084684	-0.365737	0.010969
H120	H	1.584684	0.134263	0.510969
O121	O	0.864592	-0.796778	0.231013
O122	O	1.364592	-0.296778	0.731013
H123	H	0.825259	-0.753747	0.270310
H124	H	1.325259	-0.253747	0.770310
O125	O	1.141118	-0.000045	-0.317015
O126	O	1.641118	0.499955	0.182985
H127	H	1.129585	-0.000053	-0.247760
H128	H	1.629585	0.499947	0.252240
O129	O	0.864510	-0.203318	0.230971
O130	O	1.364510	0.296682	0.730971
H131	H	0.824108	-0.165325	0.195949
H132	H	1.324108	0.334675	0.695949
O133	O	0.864558	-0.623316	0.230994
O134	O	1.364558	-0.123316	0.730994
H135	H	0.875141	-0.639316	0.295810
H136	H	1.375141	-0.139316	0.795810
O137	O	0.551573	-0.000038	0.272534
O138	O	1.051573	0.499962	0.772534
H139	H	0.499942	-0.000048	0.324415
H140	H	0.999942	0.499952	0.824415
H141	H	1.118130	-0.000035	-0.483168
H142	H	1.618130	0.499965	0.016832
O143	O	0.864539	-0.376763	0.230986
O144	O	1.364539	0.123237	0.730986
H145	H	0.874051	-0.441802	0.221503
H146	H	1.374051	0.058198	0.721503
O147	O	0.823067	-0.000037	-0.455950
O148	O	1.323067	0.499963	0.044050
H149	H	0.834602	-0.000048	-0.525205
H150	H	1.334602	0.499952	-0.025205
