data_functionalizedCrystal
_audit_creation_method	'MofGen! by Chris Wilmer'
_symmetry_space_group_name_H-M	'P1'
_symmetry_Int_Tables_number	1
_symmetry_cell_setting	triclinic
loop_
_symmetry_equiv_pos_as_xyz
  x,y,z
_cell_length_a	10.723023
_cell_length_b	10.967829
_cell_length_c	9.798715
_cell_angle_alpha	77.868973
_cell_angle_beta	89.996770
_cell_angle_gamma	84.591615
loop_
_atom_site_label
_atom_site_type_symbol
_atom_site_fract_x
_atom_site_fract_y
_atom_site_fract_z
O1	O	1.657190	0.175021	-0.154635
O2	O	1.294038	0.191776	-0.158581
O3	O	1.483988	0.001821	-0.113899
O4	O	1.467239	0.364977	-0.199318
O5	O	1.483974	0.001820	0.113083
O6	O	1.294023	0.191775	0.068401
O7	O	1.657176	0.175021	0.072347
Zn8	Zn	1.475597	0.183398	0.106412
Zn9	Zn	1.475616	0.183399	-0.192647
O10	O	1.467225	0.364976	0.027665
C11	C	1.247531	0.190557	-0.044804
C12	C	1.108977	0.186909	-0.043948
C13	C	1.047197	0.185283	0.074017
C14	C	0.903994	0.181513	0.074904
C15	C	1.482761	-0.044680	0.010526
C16	C	1.479112	-0.183235	0.043108
C17	C	1.477493	-0.245001	-0.059952
C18	C	1.473721	-0.388205	-0.026280
C19	C	1.703683	0.176240	-0.041433
C20	C	1.842237	0.179888	-0.042298
C21	C	1.468452	0.411476	-0.096764
C22	C	1.472101	0.550032	-0.129354
N23	N	1.475594	0.183397	0.310512
N24	N	1.475630	0.183390	-0.396744
C25	C	1.555349	0.103289	0.397133
C26	C	1.555369	0.103284	0.554296
H27	H	0.850864	0.180122	0.175898
H28	H	1.055851	0.185507	-0.144285
H29	H	1.478893	-0.191862	-0.173113
H30	H	1.407349	0.251982	0.528845
H31	H	1.623612	0.034702	0.354943
H32	H	1.473492	-0.396835	-0.242524
N33	N	1.385156	0.274236	0.366393
H34	H	1.433535	0.329725	0.412620
H35	H	1.331948	0.327611	0.286929
H36	H	1.623655	0.034705	0.628713
N37	N	1.477262	-0.253607	0.193008
H38	H	1.400633	-0.221567	0.239604
H39	H	1.474881	-0.345915	0.195697
H40	H	1.100324	0.186674	0.174356
N41	N	0.912582	0.181740	-0.176098
H42	H	0.957149	0.260385	-0.200040
H43	H	0.975989	0.105885	-0.163617
N44	N	1.471865	-0.458569	0.123629
H45	H	1.393221	-0.503139	0.139552
H46	H	1.547720	-0.521976	0.143893
