data_functionalizedCrystal
_audit_creation_method	'MofGen! by Chris Wilmer'
_symmetry_space_group_name_H-M	'P1'
_symmetry_Int_Tables_number	1
_symmetry_cell_setting	triclinic
loop_
_symmetry_equiv_pos_as_xyz
  x,y,z
_cell_length_a	13.339070
_cell_length_b	9.798715
_cell_length_c	10.723024
_cell_angle_alpha	90.001978
_cell_angle_beta	79.951418
_cell_angle_gamma	89.995656
loop_
_atom_site_label
_atom_site_type_symbol
_atom_site_fract_x
_atom_site_fract_y
_atom_site_fract_z
O1	O	1.346633	-0.113527	-0.627072
O2	O	1.846633	0.386473	-0.127072
O3	O	1.051535	-0.113521	-0.544765
O4	O	1.551535	0.386479	-0.044765
O5	O	1.205891	-0.113519	-0.406627
O6	O	1.705891	0.386481	0.093373
O7	O	1.192277	-0.113529	-0.765209
O8	O	1.692277	0.386471	-0.265209
O9	O	1.205880	0.113463	-0.406623
O10	O	1.705880	0.613463	0.093377
O11	O	1.051524	0.113461	-0.544760
O12	O	1.551524	0.613461	-0.044760
O13	O	1.346622	0.113455	-0.627068
O14	O	1.846622	0.613455	-0.127068
Zn15	Zn	1.199071	0.149497	-0.585913
Zn16	Zn	1.699071	0.649497	-0.085913
Zn17	Zn	1.199086	-0.149562	-0.585919
Zn18	Zn	1.699086	0.350438	-0.085919
O19	O	1.192266	0.113453	-0.765205
O20	O	1.692266	0.613453	-0.265205
C21	C	1.013744	-0.000029	-0.530859
C22	C	1.513744	0.499971	-0.030859
C23	C	0.901154	-0.000026	-0.489417
C24	C	1.401154	0.499974	0.010583
N25	N	1.199068	0.353596	-0.585911
N26	N	1.699068	0.853596	-0.085911
N27	N	1.199097	-0.353662	-0.585914
N28	N	1.699097	0.146338	-0.085914
C29	C	0.538598	-0.000057	-0.811651
C30	C	1.038598	0.499943	-0.311651
C31	C	0.644381	-0.000063	-0.850593
C32	C	1.144381	0.499937	-0.350593
C33	C	0.708579	-0.000054	-0.760302
C34	C	1.208579	0.499946	-0.260302
C35	C	0.666985	-0.000038	-0.631063
C36	C	1.166985	0.499962	-0.131063
C37	C	0.561191	-0.000043	-0.592118
C38	C	1.061191	0.499957	-0.092118
C39	C	0.731173	-0.000039	-0.540769
C40	C	1.231173	0.499961	-0.040769
C41	C	0.689578	-0.000024	-0.411530
C42	C	1.189578	0.499976	0.088470
C43	C	0.583795	-0.000027	-0.372592
C44	C	1.083795	0.499973	0.127408
C45	C	0.519596	-0.000037	-0.462882
C46	C	1.019596	0.499963	0.037118
C47	C	0.836966	-0.000035	-0.579714
C48	C	1.336966	0.499965	-0.079714
C49	C	0.859559	-0.000021	-0.360181
C50	C	1.359559	0.499979	0.139819
C51	C	0.753777	-0.000014	-0.321240
C52	C	1.253777	0.499986	0.178760
C53	C	1.384413	-0.000040	-0.640973
C54	C	1.884413	0.499960	-0.140973
C55	C	1.497003	-0.000051	-0.682416
C56	C	1.997003	0.499949	-0.182416
C57	C	1.204895	-0.000030	-0.359793
C58	C	1.704895	0.499970	0.140207
C59	C	1.201931	-0.000034	-0.220243
C60	C	1.701931	0.499966	0.279757
C61	C	1.263878	0.421374	-0.527559
C62	C	1.763878	0.921374	-0.027559
C63	C	1.263894	0.578537	-0.527561
C64	C	1.763894	1.078537	-0.027561
C65	C	1.193262	-0.000039	-0.812039
C66	C	1.693262	0.499961	-0.312039
C67	C	1.196226	-0.000043	-0.951589
C68	C	1.696226	0.499957	-0.451589
C69	C	1.288300	-0.000038	-0.174254
C70	C	1.788300	0.499962	0.325746
C71	C	1.285239	-0.000043	-0.030023
C72	C	1.785239	0.499957	0.469977
H73	H	0.870822	-0.000042	-0.684940
H74	H	1.370822	0.499958	-0.184940
H75	H	1.359178	-0.000040	0.009589
H76	H	1.859178	0.499960	0.509589
H77	H	1.319349	0.363052	-0.477595
H78	H	1.819349	0.863052	0.022405
H79	H	0.794712	-0.000062	-0.792016
H80	H	1.294712	0.499938	-0.292016
H81	H	1.125720	-0.000042	-0.152838
H82	H	1.625720	0.499958	0.347162
H83	H	0.719895	-0.000013	-0.216011
H84	H	1.219895	0.499987	0.283989
H85	H	1.122283	-0.000031	0.008808
H86	H	1.622283	0.499969	0.508808
H87	H	0.678239	-0.000086	-0.955818
H88	H	1.178239	0.499914	-0.455818
H89	H	1.143611	0.588061	-0.635880
H90	H	1.643611	1.088061	-0.135880
H91	H	1.319384	0.636822	-0.477609
H92	H	1.819384	1.136822	0.022391
H93	H	1.364511	-0.000031	-0.241659
H94	H	1.864511	0.499969	0.258341
H95	H	0.911830	-0.000019	-0.286658
H96	H	1.411830	0.499981	0.213342
H97	H	0.433458	-0.000031	-0.431183
H98	H	0.933458	0.499969	0.068817
H99	H	0.486319	-0.000076	-0.885152
H100	H	0.986319	0.499924	-0.385152
H101	H	0.549932	-0.000030	-0.267358
H102	H	1.049932	0.499970	0.232642
H103	H	1.143590	0.411920	-0.635863
H104	H	1.643590	0.911920	-0.135863
