data_functionalizedCrystal
_audit_creation_method	'MofGen! by Chris Wilmer'
_symmetry_space_group_name_H-M	'P1'
_symmetry_Int_Tables_number	1
_symmetry_cell_setting	triclinic
loop_
_symmetry_equiv_pos_as_xyz
  x,y,z
_cell_length_a	21.295420
_cell_length_b	21.295417
_cell_length_c	18.215384
_cell_angle_alpha	89.899621
_cell_angle_beta	89.937690
_cell_angle_gamma	90.026289
loop_
_atom_site_label
_atom_site_type_symbol
_atom_site_fract_x
_atom_site_fract_y
_atom_site_fract_z
Zn1	Zn	0.962590	-0.250263	-0.416094
Zn2	Zn	1.212590	-0.000263	-0.166094
Zn3	Zn	1.462590	0.249737	0.083906
Zn4	Zn	1.712590	0.499737	0.333906
Zn5	Zn	0.962423	-0.355659	-0.293018
Zn6	Zn	1.212423	-0.105659	-0.043018
Zn7	Zn	1.462423	0.144341	0.206982
Zn8	Zn	1.712423	0.394341	0.456982
Zn9	Zn	0.857244	-0.250400	-0.293041
Zn10	Zn	1.107244	-0.000400	-0.043041
Zn11	Zn	1.357244	0.249600	0.206959
Zn12	Zn	1.607244	0.499600	0.456959
Zn13	Zn	0.857282	-0.355490	-0.416043
Zn14	Zn	1.107282	-0.105490	-0.166043
Zn15	Zn	1.357282	0.144510	0.083957
Zn16	Zn	1.607282	0.394510	0.333957
O17	O	0.909885	-0.302953	-0.354549
O18	O	1.159885	-0.052953	-0.104549
O19	O	1.409885	0.197047	0.145451
O20	O	1.659885	0.447047	0.395451
O21	O	1.050657	-0.264257	-0.399779
O22	O	1.300657	-0.014257	-0.149779
O23	O	1.550657	0.235743	0.100221
O24	O	1.800657	0.485743	0.350221
O25	O	0.948385	-0.341824	-0.190036
O26	O	1.198385	-0.091824	0.059964
O27	O	1.448385	0.158176	0.309964
O28	O	1.698385	0.408176	0.559964
O29	O	0.871272	-0.162292	-0.309395
O30	O	1.121272	0.087708	-0.059395
O31	O	1.371272	0.337708	0.190605
O32	O	1.621272	0.587708	0.440605
O33	O	1.050534	-0.341691	-0.309356
O34	O	1.300534	-0.091691	-0.059356
O35	O	1.550534	0.158309	0.190644
O36	O	1.800534	0.408309	0.440644
O37	O	0.948669	-0.162191	-0.399801
O38	O	1.198669	0.087809	-0.149801
O39	O	1.448669	0.337809	0.100199
O40	O	1.698669	0.587809	0.350199
O41	O	0.871110	-0.264491	-0.190053
O42	O	1.121110	-0.014491	0.059947
O43	O	1.371110	0.235509	0.309947
O44	O	1.621110	0.485509	0.559947
O45	O	0.769159	-0.264327	-0.309346
O46	O	1.019159	-0.014327	-0.059346
O47	O	1.269159	0.235673	0.190654
O48	O	1.519159	0.485673	0.440654
O49	O	0.871338	-0.341403	-0.519035
O50	O	1.121338	-0.091403	-0.269035
O51	O	1.371338	0.158597	-0.019035
O52	O	1.621338	0.408597	0.230965
O53	O	0.769188	-0.341537	-0.399715
O54	O	1.019188	-0.091537	-0.149715
O55	O	1.269188	0.158463	0.100285
O56	O	1.519188	0.408463	0.350285
O57	O	0.948707	-0.264093	-0.519072
O58	O	1.198707	-0.014093	-0.269072
O59	O	1.448707	0.235907	-0.019072
O60	O	1.698707	0.485907	0.230928
O61	O	0.948422	-0.443726	-0.309307
O62	O	1.198422	-0.193726	-0.059307
O63	O	1.448422	0.056274	0.190693
O64	O	1.698422	0.306274	0.440693
O65	O	0.871176	-0.443602	-0.399693
O66	O	1.121176	-0.193602	-0.149693
O67	O	1.371176	0.056398	0.100307
O68	O	1.621176	0.306398	0.350307
C69	C	0.746333	-0.302929	-0.354528
C70	C	0.996333	-0.052929	-0.104528
C71	C	1.246333	0.197071	0.145472
C72	C	1.496333	0.447071	0.395472
C73	C	0.676365	-0.302934	-0.354537
C74	C	0.926365	-0.052934	-0.104537
C75	C	1.176365	0.197066	0.145463
C76	C	1.426365	0.447066	0.395463
C77	C	0.176970	-0.262728	-0.401720
C78	C	0.426970	-0.012728	-0.151720
C79	C	0.676970	0.237272	0.098280
C80	C	0.926970	0.487272	0.348280
C81	C	0.242713	-0.262723	-0.401720
C82	C	0.492713	-0.012723	-0.151720
C83	C	0.742713	0.237277	0.098280
C84	C	0.992713	0.487277	0.348280
C85	C	0.275526	-0.302972	-0.354566
C86	C	0.525526	-0.052972	-0.104566
C87	C	0.775526	0.197028	0.145434
C88	C	1.025526	0.447028	0.395434
C89	C	0.242590	-0.343240	-0.307422
C90	C	0.492590	-0.093240	-0.057422
C91	C	0.742590	0.156760	0.192578
C92	C	0.992590	0.406760	0.442578
C93	C	0.176849	-0.343248	-0.307429
C94	C	0.426849	-0.093248	-0.057429
C95	C	0.676849	0.156752	0.192571
C96	C	0.926849	0.406752	0.442571
N97	N	0.378679	-0.307783	-0.290126
N98	N	0.628679	-0.057783	-0.040126
N99	N	0.878679	0.192217	0.209874
N100	N	1.128679	0.442217	0.459874
N101	N	0.441131	-0.307772	-0.290122
N102	N	0.691131	-0.057772	-0.040122
N103	N	0.941131	0.192228	0.209878
N104	N	1.191131	0.442228	0.459878
C105	C	0.473600	-0.302951	-0.354544
C106	C	0.723600	-0.052951	-0.104544
C107	C	0.973600	0.197049	0.145456
C108	C	1.223600	0.447049	0.395456
N109	N	0.441259	-0.298130	-0.418973
N110	N	0.691259	-0.048130	-0.168973
N111	N	0.941259	0.201870	0.081027
N112	N	1.191259	0.451870	0.331027
N113	N	0.378802	-0.298138	-0.418976
N114	N	0.628802	-0.048138	-0.168976
N115	N	0.878802	0.201862	0.081024
N116	N	1.128802	0.451862	0.331024
C117	C	0.346811	-0.302968	-0.354554
C118	C	0.596811	-0.052968	-0.104554
C119	C	0.846811	0.197032	0.145446
C120	C	1.096811	0.447032	0.395446
C121	C	0.577813	-0.262684	-0.401689
C122	C	0.827813	-0.012684	-0.151689
C123	C	1.077813	0.237316	0.098311
C124	C	1.327813	0.487316	0.348311
C125	C	0.643557	-0.262684	-0.401690
C126	C	0.893557	-0.012684	-0.151690
C127	C	1.143557	0.237316	0.098310
C128	C	1.393557	0.487316	0.348310
C129	C	0.643433	-0.343197	-0.307386
C130	C	0.893433	-0.093197	-0.057386
C131	C	1.143433	0.156803	0.192614
C132	C	1.393433	0.406803	0.442614
C133	C	0.577691	-0.343201	-0.307391
C134	C	0.827691	-0.093201	-0.057391
C135	C	1.077691	0.156799	0.192609
C136	C	1.327691	0.406799	0.442609
C137	C	0.544885	-0.302941	-0.354542
C138	C	0.794885	-0.052941	-0.104542
C139	C	1.044885	0.197059	0.145458
C140	C	1.294885	0.447059	0.395458
C141	C	0.909802	-0.466505	-0.354508
C142	C	1.159802	-0.216505	-0.104508
C143	C	1.409802	0.033495	0.145492
C144	C	1.659802	0.283495	0.395492
C145	C	0.909824	-0.536473	-0.354515
C146	C	1.159824	-0.286473	-0.104515
C147	C	1.409824	-0.036473	0.145485
C148	C	1.659824	0.213527	0.395485
C149	C	0.950082	-0.569383	-0.307499
C150	C	1.200082	-0.319383	-0.057499
C151	C	1.450082	-0.069383	0.192501
C152	C	1.700082	0.180617	0.442501
C153	C	0.950112	-0.635126	-0.307516
C154	C	1.200112	-0.385126	-0.057516
C155	C	1.450112	-0.135126	0.192484
C156	C	1.700112	0.114874	0.442484
C157	C	0.909872	-0.667955	-0.354541
C158	C	1.159872	-0.417955	-0.104541
C159	C	1.409872	-0.167955	0.145459
C160	C	1.659872	0.082045	0.395459
C161	C	0.869611	-0.635037	-0.401566
C162	C	1.119611	-0.385037	-0.151566
C163	C	1.369611	-0.135037	0.098434
C164	C	1.619611	0.114963	0.348434
C165	C	0.869588	-0.569296	-0.401553
C166	C	1.119588	-0.319296	-0.151553
C167	C	1.369588	-0.069296	0.098447
C168	C	1.619588	0.180704	0.348447
N169	N	0.854808	-0.771211	-0.360144
N170	N	1.104808	-0.521211	-0.110144
N171	N	1.354808	-0.271211	0.139856
N172	N	1.604808	-0.021211	0.389856
N173	N	0.854833	-0.833663	-0.360152
N174	N	1.104833	-0.583663	-0.110152
N175	N	1.354833	-0.333663	0.139848
N176	N	1.604833	-0.083663	0.389848
C177	C	0.909943	-0.866030	-0.354583
C178	C	1.159943	-0.616030	-0.104583
C179	C	1.409943	-0.366030	0.145417
C180	C	1.659943	-0.116030	0.395417
N181	N	0.965028	-0.833586	-0.348992
N182	N	1.215028	-0.583586	-0.098992
N183	N	1.465028	-0.333586	0.151008
N184	N	1.715028	-0.083586	0.401008
N185	N	0.965003	-0.771129	-0.348980
N186	N	1.215003	-0.521129	-0.098980
N187	N	1.465003	-0.271129	0.151020
N188	N	1.715003	-0.021129	0.401020
C189	C	0.909894	-0.739241	-0.354560
C190	C	1.159894	-0.489241	-0.104560
C191	C	1.409894	-0.239241	0.145440
C192	C	1.659894	0.010759	0.395440
C193	C	0.950236	-0.970226	-0.307583
C194	C	1.200236	-0.720226	-0.057583
C195	C	1.450236	-0.470226	0.192417
C196	C	1.700236	-0.220226	0.442417
C197	C	0.950267	-1.035969	-0.307604
C198	C	1.200267	-0.785969	-0.057604
C199	C	1.450267	-0.535969	0.192396
C200	C	1.700267	-0.285969	0.442396
C201	C	0.869761	-1.035879	-0.401650
C202	C	1.119761	-0.785879	-0.151650
C203	C	1.369761	-0.535879	0.098350
C204	C	1.619761	-0.285879	0.348350
C205	C	0.869736	-0.970137	-0.401632
C206	C	1.119736	-0.720137	-0.151632
C207	C	1.369736	-0.470137	0.098368
C208	C	1.619736	-0.220137	0.348368
C209	C	0.909973	-0.937314	-0.354595
C210	C	1.159973	-0.687314	-0.104595
C211	C	1.409973	-0.437314	0.145405
C212	C	1.659973	-0.187314	0.395405
C213	C	1.074075	-0.302978	-0.354570
C214	C	1.324075	-0.052978	-0.104570
C215	C	1.574075	0.197022	0.145430
C216	C	1.824075	0.447022	0.395430
C217	C	1.144043	-0.302988	-0.354579
C218	C	1.394043	-0.052988	-0.104579
C219	C	1.644043	0.197012	0.145421
C220	C	1.894043	0.447012	0.395421
C221	C	0.910045	-0.302714	-0.546502
C222	C	1.160045	-0.052714	-0.296502
C223	C	1.410045	0.197286	-0.046502
C224	C	1.660045	0.447286	0.203498
C225	C	0.910114	-0.302612	-0.628302
C226	C	1.160114	-0.052612	-0.378302
C227	C	1.410114	0.197388	-0.128302
C228	C	1.660114	0.447388	0.121698
C229	C	0.909985	-0.138763	-0.354606
C230	C	1.159985	0.111237	-0.104606
C231	C	1.409985	0.361237	0.145394
C232	C	1.659985	0.611237	0.395394
C233	C	0.910027	-0.068794	-0.354630
C234	C	1.160027	0.181206	-0.104630
C235	C	1.410027	0.431206	0.145370
C236	C	1.660027	0.681206	0.395370
C237	C	0.909761	-0.303146	-0.163342
C238	C	1.159761	-0.053146	0.086658
C239	C	1.409761	0.196854	0.336658
C240	C	1.659761	0.446854	0.586658
C241	C	0.909815	-0.303070	-0.081544
C242	C	1.159815	-0.053070	0.168456
C243	C	1.409815	0.196930	0.418456
C244	C	1.659815	0.446930	0.668456
C245	C	0.869949	-0.343421	0.106871
C246	C	1.119949	-0.093421	0.356871
C247	C	1.369949	0.156579	0.606871
C248	C	1.619949	0.406579	0.856871
C249	C	0.869999	-0.343342	0.183730
C250	C	1.119999	-0.093342	0.433730
C251	C	1.369999	0.156658	0.683730
C252	C	1.619999	0.406658	0.933730
C253	C	0.949981	-0.262257	0.183278
C254	C	1.199981	-0.012257	0.433278
C255	C	1.449981	0.237743	0.683278
C256	C	1.699981	0.487743	0.933278
C257	C	0.949928	-0.262333	0.106421
C258	C	1.199928	-0.012333	0.356421
C259	C	1.449928	0.237667	0.606421
C260	C	1.699928	0.487667	0.856421
C261	C	0.909913	-0.302918	0.068220
C262	C	1.159913	-0.052918	0.318220
C263	C	1.409913	0.197082	0.568220
C264	C	1.659913	0.447082	0.818220
C265	C	0.910015	-0.302764	0.221935
C266	C	1.160015	-0.052764	0.471935
C267	C	1.410015	0.197236	0.721935
C268	C	1.660015	0.447236	0.971935
C269	C	0.910069	-0.302679	0.305269
C270	C	1.160069	-0.052679	0.555269
C271	C	1.410069	0.197321	0.805269
C272	C	1.660069	0.447321	1.055269
C273	C	0.909859	-0.303003	-0.015119
C274	C	1.159859	-0.053003	0.234881
C275	C	1.409859	0.196997	0.484881
C276	C	1.659859	0.446997	0.734881
H277	H	0.150040	-0.376034	-0.269041
H278	H	0.400040	-0.126034	-0.019041
H279	H	0.650040	0.123966	0.230959
H280	H	0.900040	0.373966	0.480959
H281	H	0.837454	-0.376322	0.215197
H282	H	1.087454	-0.126322	0.465197
H283	H	1.337454	0.123678	0.715197
H284	H	1.587454	0.373678	0.965197
Br285	Br	1.004752	-0.679800	-0.243704
Br286	Br	1.254752	-0.429800	0.006296
Br287	Br	1.504752	-0.179800	0.256296
Br288	Br	1.754752	0.070200	0.506296
Br289	Br	1.004271	-0.207167	0.235127
Br290	Br	1.254271	0.042833	0.485127
Br291	Br	1.504271	0.292833	0.735127
Br292	Br	1.754271	0.542833	0.985127
Br293	Br	0.815005	-0.679589	-0.465391
Br294	Br	1.065005	-0.429589	-0.215391
Br295	Br	1.315005	-0.179589	0.034609
Br296	Br	1.565005	0.070411	0.284609
Br297	Br	1.004840	-0.925676	-0.243745
Br298	Br	1.254840	-0.675676	0.006255
Br299	Br	1.504840	-0.425676	0.256255
Br300	Br	1.754840	-0.175676	0.506255
Br301	Br	1.004170	-0.207363	0.053960
Br302	Br	1.254170	0.042637	0.303960
Br303	Br	1.504170	0.292637	0.553960
Br304	Br	1.754170	0.542637	0.803960
Br305	Br	0.814948	-0.524628	-0.465367
Br306	Br	1.064948	-0.274628	-0.215367
Br307	Br	1.314948	-0.024628	0.034633
Br308	Br	1.564948	0.225372	0.284633
H309	H	0.836951	-0.943340	-0.439914
H310	H	1.086951	-0.693340	-0.189914
H311	H	1.336951	-0.443340	0.060086
H312	H	1.586951	-0.193340	0.310086
Br313	Br	0.533000	-0.397834	-0.243401
Br314	Br	0.783000	-0.147834	0.006599
Br315	Br	1.033000	0.102166	0.256599
Br316	Br	1.283000	0.352166	0.506599
H317	H	0.837366	-0.376467	0.075770
H318	H	1.087366	-0.126467	0.325770
H319	H	1.337366	0.123533	0.575770
H320	H	1.587366	0.373533	0.825770
Br321	Br	1.004914	-1.080635	-0.243799
Br322	Br	1.254914	-0.830635	0.006201
Br323	Br	1.504914	-0.580635	0.256201
Br324	Br	1.754914	-0.330635	0.506201
H325	H	0.269527	-0.229935	-0.440106
H326	H	0.519527	0.020065	-0.190106
H327	H	0.769527	0.270065	0.059894
H328	H	1.019527	0.520065	0.309894
Br329	Br	0.815155	-1.080427	-0.465478
Br330	Br	1.065155	-0.830427	-0.215478
Br331	Br	1.315155	-0.580427	0.034522
Br332	Br	1.565155	-0.330427	0.284522
Br333	Br	0.132450	-0.208094	-0.465714
Br334	Br	0.382450	0.041906	-0.215714
Br335	Br	0.632450	0.291906	0.034286
Br336	Br	0.882450	0.541906	0.284286
H337	H	0.551101	-0.229902	-0.440081
H338	H	0.801101	0.020098	-0.190081
H339	H	1.051101	0.270098	0.059919
H340	H	1.301101	0.520098	0.309919
Br341	Br	0.287120	-0.397869	-0.243433
Br342	Br	0.537120	-0.147869	0.006567
Br343	Br	0.787120	0.102131	0.256567
Br344	Br	1.037120	0.352131	0.506567
Br345	Br	1.004698	-0.524840	-0.243673
Br346	Br	1.254698	-0.274840	0.006327
Br347	Br	1.504698	-0.024840	0.256327
Br348	Br	1.754698	0.225160	0.506327
Br349	Br	0.687957	-0.397830	-0.243399
Br350	Br	0.937957	-0.147830	0.006601
Br351	Br	1.187957	0.102170	0.256601
Br352	Br	1.437957	0.352170	0.506601
Br353	Br	0.688245	-0.208047	-0.465681
Br354	Br	0.938245	0.041953	-0.215681
Br355	Br	1.188245	0.291953	0.034319
Br356	Br	1.438245	0.541953	0.284319
