data_functionalizedCrystal
_audit_creation_method	'MofGen! by Chris Wilmer'
_symmetry_space_group_name_H-M	'P1'
_symmetry_Int_Tables_number	1
_symmetry_cell_setting	triclinic
loop_
_symmetry_equiv_pos_as_xyz
  x,y,z
_cell_length_a	13.897449
_cell_length_b	18.215385
_cell_length_c	18.215405
_cell_angle_alpha	89.904210
_cell_angle_beta	90.026165
_cell_angle_gamma	89.936355
loop_
_atom_site_label
_atom_site_type_symbol
_atom_site_fract_x
_atom_site_fract_y
_atom_site_fract_z
Zn1	Zn	1.475063	-0.416078	-0.292493
Zn2	Zn	1.975063	0.083922	0.207507
Zn3	Zn	1.474816	-0.293006	-0.415704
Zn4	Zn	1.974816	0.206994	0.084296
Zn5	Zn	1.313631	-0.293028	-0.292659
Zn6	Zn	1.813631	0.206972	0.207341
Zn7	Zn	1.313714	-0.416034	-0.415525
Zn8	Zn	1.813714	0.083966	0.084475
O9	O	1.394306	-0.354536	-0.354095
O10	O	1.894306	0.145464	0.145905
O11	O	1.610012	-0.399762	-0.308843
O12	O	2.110012	0.100238	0.191157
O13	O	1.453297	-0.190024	-0.399527
O14	O	1.953297	0.309976	0.100473
O15	O	1.335115	-0.309379	-0.189652
O16	O	1.835115	0.190621	0.310348
O17	O	1.609830	-0.309341	-0.399366
O18	O	2.109830	0.190659	0.100634
O19	O	1.453718	-0.399783	-0.189531
O20	O	1.953718	0.100217	0.310469
O21	O	1.334875	-0.190040	-0.309126
O22	O	1.834875	0.309960	0.190874
O23	O	1.178661	-0.309336	-0.308952
O24	O	1.678661	0.190664	0.191048
O25	O	1.335255	-0.519024	-0.399060
O26	O	1.835255	-0.019024	0.100940
O27	O	1.178721	-0.399708	-0.399221
O28	O	1.678721	0.100292	0.100779
O29	O	1.453798	-0.519057	-0.308669
O30	O	1.953798	-0.019057	0.191331
O31	O	1.453376	-0.309298	-0.518665
O32	O	1.953376	0.190702	-0.018665
O33	O	1.335015	-0.399686	-0.518533
O34	O	1.835015	0.100314	-0.018533
C35	C	1.143692	-0.354520	-0.354085
C36	C	1.643692	0.145480	0.145915
C37	C	1.036478	-0.354530	-0.354099
C38	C	1.536478	0.145470	0.145901
C39	C	1.394204	-0.354501	-0.545302
C40	C	1.894204	0.145499	-0.045302
C41	C	1.394249	-0.354511	-0.627100
C42	C	1.894249	0.145489	-0.127100
C43	C	1.394106	-0.163330	-0.354310
C44	C	1.894106	0.336670	0.145690
C45	C	1.394183	-0.081531	-0.354218
C46	C	1.894183	0.418469	0.145782
C47	C	0.840183	-0.354549	-0.354101
C48	C	1.340183	0.145451	0.145899
C49	C	0.949415	-0.354537	-0.354098
C50	C	1.449415	0.145463	0.145902
C51	C	1.645899	-0.354554	-0.354106
C52	C	2.145899	0.145446	0.145894
C53	C	1.753113	-0.354561	-0.354110
C54	C	2.253113	0.145439	0.145890
C55	C	1.394563	-0.546490	-0.353826
C56	C	1.894563	-0.046490	0.146174
C57	C	1.394673	-0.628289	-0.353711
C58	C	1.894673	-0.128289	0.146289
C59	C	1.332287	0.106619	-0.307283
C60	C	1.832287	0.606619	0.192717
C61	C	1.332371	0.183478	-0.307195
C62	C	1.832371	0.683478	0.192805
C63	C	1.456576	0.183555	-0.400648
C64	C	1.956576	0.683555	0.099352
C65	C	1.456496	0.106698	-0.400732
C66	C	1.956496	0.606698	0.099268
C67	C	1.394346	0.068232	-0.354050
C68	C	1.894346	0.568232	0.145950
C69	C	1.394510	0.221948	-0.353879
C70	C	1.894510	0.721948	0.146121
C71	C	1.394602	0.305281	-0.353784
C72	C	1.894602	0.805281	0.146216
C73	C	1.394255	-0.015107	-0.354144
C74	C	1.894255	0.484893	0.145856
C75	C	1.456024	-0.307532	-0.815338
C76	C	1.956024	0.192468	-0.315338
C77	C	1.456068	-0.307550	-0.892197
C78	C	1.956068	0.192450	-0.392197
C79	C	1.332711	-0.401594	-0.892100
C80	C	1.832711	0.098406	-0.392100
C81	C	1.332674	-0.401579	-0.815243
C82	C	1.832674	0.098421	-0.315243
C83	C	1.394329	-0.354544	-0.776864
C84	C	1.894329	0.145456	-0.276864
C85	C	1.394409	-0.354577	-0.930580
C86	C	1.894409	0.145423	-0.430580
C87	C	1.394456	-0.354596	-1.013913
C88	C	1.894456	0.145404	-0.513913
C89	C	1.394284	-0.354525	-0.693525
C90	C	1.894284	0.145475	-0.193525
C91	C	1.394435	-0.354588	-0.162142
C92	C	1.894435	0.145412	0.337858
C93	C	1.394489	-0.354610	-0.080343
C94	C	1.894489	0.145390	0.419657
H95	H	1.281683	0.075303	-0.269269
H96	H	1.781683	0.575303	0.230731
H97	H	1.281838	0.214730	-0.269111
H98	H	1.781838	0.714730	0.230889
H99	H	1.507175	0.214883	-0.438656
H100	H	2.007175	0.714883	0.061344
H101	H	1.506229	-0.269234	-0.784092
H102	H	2.006229	0.230766	-0.284092
F103	F	1.267009	-0.451622	-0.774293
F104	F	1.767009	0.048378	-0.274293
H105	H	1.507037	0.075442	-0.438816
H106	H	2.007037	0.575442	0.061184
F107	F	1.521735	-0.257515	-0.933141
F108	F	2.021735	0.242485	-0.433141
F109	F	1.267095	-0.451648	-0.932952
F110	F	1.767095	0.048352	-0.432952
