data_functionalizedCrystal
_audit_creation_method	'MofGen! by Chris Wilmer'
_symmetry_space_group_name_H-M	'P1'
_symmetry_Int_Tables_number	1
_symmetry_cell_setting	triclinic
loop_
_symmetry_equiv_pos_as_xyz
  x,y,z
_cell_length_a	17.699083
_cell_length_b	16.776229
_cell_length_c	17.699104
_cell_angle_alpha	89.992410
_cell_angle_beta	96.712734
_cell_angle_gamma	90.001114
loop_
_atom_site_label
_atom_site_type_symbol
_atom_site_fract_x
_atom_site_fract_y
_atom_site_fract_z
O1	O	1.004086	0.066178	-0.095712
O2	O	1.504086	0.566178	0.404288
O3	O	0.783708	0.066204	-0.108164
O4	O	1.283708	0.566204	0.391836
O5	O	0.900115	0.066183	0.008250
O6	O	1.400115	0.566183	0.508250
O7	O	0.887679	0.066199	-0.212126
O8	O	1.387679	0.566199	0.287874
O9	O	0.900099	-0.066393	0.008257
O10	O	1.400099	0.433607	0.508257
O11	O	0.783693	-0.066372	-0.108157
O12	O	1.283693	0.433628	0.391843
O13	O	1.004070	-0.066398	-0.095705
O14	O	1.504070	0.433602	0.404295
Zn15	Zn	0.893879	-0.087435	-0.101930
Zn16	Zn	1.393879	0.412565	0.398070
Zn17	Zn	0.893899	0.087241	-0.101939
Zn18	Zn	1.393899	0.587241	0.398061
O19	O	0.887664	-0.066377	-0.212119
O20	O	1.387664	0.433623	0.287881
C21	C	0.755503	-0.000081	-0.107715
C22	C	1.255503	0.499919	0.392285
C23	C	0.671485	-0.000071	-0.106376
C24	C	1.171485	0.499929	0.393624
N25	N	0.893871	-0.206646	-0.101923
N26	N	1.393871	0.293354	0.398077
C27	C	0.622869	-0.000066	-0.174709
C28	C	1.122869	0.499934	0.325291
C29	C	0.543926	-0.000076	-0.173446
C30	C	1.043926	0.499924	0.326554
C31	C	0.513600	-0.000086	-0.103851
C32	C	1.013600	0.499914	0.396149
C33	C	0.562222	-0.000093	-0.035513
C34	C	1.062222	0.499907	0.464487
C35	C	0.641164	-0.000088	-0.036776
C36	C	1.141164	0.499912	0.463224
C37	C	0.243859	-0.000113	-0.030418
C38	C	0.743859	0.499887	0.469582
C39	C	0.164911	-0.000115	-0.029160
C40	C	0.664911	0.499885	0.470840
C41	C	0.146621	-0.000101	-0.167088
C42	C	0.646621	0.499899	0.332912
C43	C	0.225563	-0.000097	-0.168351
C44	C	0.725563	0.499903	0.331649
C45	C	0.274178	-0.000108	-0.100014
C46	C	0.774178	0.499892	0.399986
C47	C	0.359777	-0.000098	-0.101383
C48	C	0.859777	0.499902	0.398617
C49	C	0.428002	-0.000090	-0.102480
C50	C	0.928002	0.499910	0.397520
C51	C	0.945431	-0.248372	-0.050396
C52	C	1.445431	0.251628	0.449604
C53	C	0.945435	-0.331824	-0.050395
C54	C	1.445435	0.168176	0.449605
C55	C	0.893882	-0.373549	-0.101926
C56	C	1.393882	0.126451	0.398074
C57	C	0.842316	-0.331816	-0.153456
C58	C	1.342316	0.168184	0.346544
C59	C	0.842309	-0.248366	-0.153452
C60	C	1.342309	0.251634	0.346548
C61	C	0.842343	-0.668364	-0.153470
C62	C	1.342343	-0.168364	0.346530
C63	C	0.842356	-0.751820	-0.153472
C64	C	1.342356	-0.251820	0.346528
C65	C	0.945470	-0.751822	-0.050414
C66	C	1.445470	-0.251822	0.449586
C67	C	0.945463	-0.668372	-0.050410
C68	C	1.445463	-0.168372	0.449590
C69	C	0.893894	-0.626647	-0.101937
C70	C	1.393894	-0.126647	0.398063
C71	C	0.893890	-0.536158	-0.101936
C72	C	1.393890	-0.036158	0.398064
C73	C	0.893890	-0.464036	-0.101931
C74	C	1.393890	0.035964	0.398069
C75	C	1.032275	-0.000112	-0.096155
C76	C	1.532275	0.499888	0.403845
C77	C	1.116293	-0.000116	-0.097493
C78	C	1.616293	0.499884	0.402507
C79	C	0.899659	-0.000105	0.036450
C80	C	1.399659	0.499895	0.536450
C81	C	0.898314	-0.000105	0.120467
C82	C	1.398314	0.499895	0.620467
N83	N	0.893914	0.206452	-0.101940
N84	N	1.393914	0.706452	0.398060
C85	C	0.888120	-0.000087	-0.240319
C86	C	1.388120	0.499913	0.259681
C87	C	0.889464	-0.000082	-0.324337
C88	C	1.389464	0.499918	0.175663
C89	C	0.959058	-0.000090	0.645338
C90	C	1.459058	0.499910	1.145338
C91	C	0.960317	-0.000097	0.566395
C92	C	1.460317	0.499903	1.066395
C93	C	0.891982	-0.000091	0.517777
C94	C	1.391982	0.499909	1.017777
C95	C	0.822383	-0.000085	0.548107
C96	C	1.322383	0.499915	1.048107
C97	C	0.821125	-0.000084	0.627049
C98	C	1.321125	0.499916	1.127049
C99	C	0.827456	-0.000092	0.229741
C100	C	1.327456	0.499908	0.729741
C101	C	0.828720	-0.000092	0.150794
C102	C	1.328720	0.499908	0.650794
C103	C	0.966648	-0.000106	0.169086
C104	C	1.466648	0.499894	0.669086
C105	C	0.965390	-0.000104	0.248029
C106	C	1.465390	0.499896	0.748029
C107	C	0.895792	-0.000103	0.278352
C108	C	1.395792	0.499897	0.778352
C109	C	0.894427	-0.000097	0.363951
C110	C	1.394427	0.499903	0.863951
C111	C	0.893345	-0.000091	0.432179
C112	C	1.393345	0.499909	0.932179
H113	H	0.647554	-0.000058	-0.231382
H114	H	1.147554	0.499942	0.268618
Br115	Br	1.015409	-0.388456	0.019538
Br116	Br	1.515409	0.111544	0.519538
Br117	Br	0.477949	-0.000068	-0.266188
Br118	Br	0.977949	0.499932	0.233812
H119	H	1.023319	-0.000096	0.144388
H120	H	1.523319	0.499904	0.644388
H121	H	0.766743	-0.000085	0.508516
H122	H	1.266743	0.499915	1.008516
H123	H	0.800322	-0.214393	-0.195410
H124	H	1.300322	0.285607	0.304590
H125	H	0.537525	-0.000112	0.021153
H126	H	1.037525	0.499888	0.521153
H127	H	0.764455	-0.000084	0.651738
H128	H	1.264455	0.499916	1.151738
H129	H	0.987445	-0.634402	-0.008452
H130	H	1.487445	-0.134402	0.491548
Br131	Br	1.015457	-0.808453	0.019518
Br132	Br	1.515457	-0.308453	0.519518
H133	H	0.250249	-0.000085	-0.225023
H134	H	0.750249	0.499915	0.274977
Br135	Br	0.707144	-0.000101	0.055965
Br136	Br	1.207144	0.499899	0.555965
Br137	Br	0.080639	-0.000087	-0.259834
Br138	Br	0.580639	0.499913	0.240166
Br139	Br	0.733001	-0.000085	0.270884
Br140	Br	1.233001	0.499915	0.770884
Br141	Br	1.058134	-0.000108	0.314006
Br142	Br	1.558134	0.499892	0.814006
Br143	Br	0.772387	-0.808446	-0.223412
Br144	Br	1.272387	-0.308446	0.276588
H145	H	0.140223	-0.000124	0.027517
H146	H	0.640223	0.499876	0.527517
Br147	Br	0.309827	-0.000130	0.062327
Br148	Br	0.809827	0.499870	0.562327
H149	H	0.800356	-0.634398	-0.195426
H150	H	1.300356	-0.134398	0.304574
Br151	Br	1.015406	-0.191755	0.019537
Br152	Br	1.515406	0.308245	0.519537
Br153	Br	0.772343	-0.388439	-0.223387
Br154	Br	1.272343	0.111561	0.276613
Br155	Br	1.054769	-0.000088	0.525242
Br156	Br	1.554769	0.499912	1.025242
H157	H	0.773070	-0.000088	0.111210
H158	H	1.273070	0.499912	0.611210
H159	H	1.014705	-0.000088	0.684918
H160	H	1.514705	0.499912	1.184918
