data_functionalizedCrystal
_audit_creation_method	'MofGen! by Chris Wilmer'
_symmetry_space_group_name_H-M	'P1'
_symmetry_Int_Tables_number	1
_symmetry_cell_setting	triclinic
loop_
_symmetry_equiv_pos_as_xyz
  x,y,z
_cell_length_a	19.188930
_cell_length_b	16.109301
_cell_length_c	14.586319
_cell_angle_alpha	90.005214
_cell_angle_beta	90.017382
_cell_angle_gamma	83.303130
loop_
_atom_site_label
_atom_site_type_symbol
_atom_site_fract_x
_atom_site_fract_y
_atom_site_fract_z
O1	O	-0.926386	-0.103796	-0.076538
O2	O	-0.676386	0.146204	0.173462
O3	O	-0.426386	0.396204	0.423462
O4	O	-0.176386	0.646204	0.673462
O5	O	-0.723108	-0.117769	-0.076476
O6	O	-0.473108	0.132231	0.173524
O7	O	-0.223108	0.382231	0.423524
O8	O	0.026892	0.632231	0.673524
O9	O	-0.830331	0.010267	-0.076499
O10	O	-0.580331	0.260267	0.173501
O11	O	-0.330331	0.510267	0.423501
O12	O	-0.080331	0.760267	0.673501
O13	O	-0.819163	-0.231832	-0.076514
O14	O	-0.569163	0.018168	0.173486
O15	O	-0.319163	0.268168	0.423486
O16	O	-0.069163	0.518168	0.673486
O17	O	-0.830324	0.010268	0.075982
O18	O	-0.580324	0.260268	0.325982
O19	O	-0.330324	0.510268	0.575982
O20	O	-0.080324	0.760268	0.825982
O21	O	-0.723100	-0.117767	0.076005
O22	O	-0.473100	0.132233	0.326005
O23	O	-0.223100	0.382233	0.576005
O24	O	0.026900	0.632233	0.826005
O25	O	-0.926379	-0.103795	0.075943
O26	O	-0.676379	0.146205	0.325943
O27	O	-0.426379	0.396205	0.575943
O28	O	-0.176379	0.646205	0.825943
Cu29	Cu	-0.824739	-0.110781	0.089897
Cu30	Cu	-0.574739	0.139219	0.339897
Cu31	Cu	-0.324739	0.389219	0.589897
Cu32	Cu	-0.074739	0.639219	0.839897
Cu33	Cu	-0.824748	-0.110783	-0.090429
Cu34	Cu	-0.574748	0.139217	0.159571
Cu35	Cu	-0.324748	0.389217	0.409571
Cu36	Cu	-0.074748	0.639217	0.659571
O37	O	-0.819155	-0.231830	0.075966
O38	O	-0.569155	0.018170	0.325966
O39	O	-0.319155	0.268170	0.575966
O40	O	-0.069155	0.518170	0.825966
C41	C	-0.697092	-0.117316	-0.000227
C42	C	-0.447092	0.132684	0.249773
C43	C	-0.197092	0.382684	0.499773
C44	C	0.052908	0.632684	0.749773
C45	C	-0.619584	-0.115958	-0.000203
C46	C	-0.369584	0.134042	0.249797
C47	C	-0.119584	0.384042	0.499797
C48	C	0.130416	0.634042	0.749797
C49	C	-0.952395	-0.104248	-0.000308
C50	C	-0.702395	0.145752	0.249692
C51	C	-0.452395	0.395752	0.499692
C52	C	-0.202395	0.645752	0.749692
C53	C	-1.029903	-0.105606	-0.000338
C54	C	-0.779903	0.144394	0.249662
C55	C	-0.529903	0.394394	0.499662
C56	C	-0.279903	0.644394	0.749662
C57	C	-0.574836	-0.191085	-0.000222
C58	C	-0.324836	0.058915	0.249778
C59	C	-0.074836	0.308915	0.499778
C60	C	0.175164	0.558915	0.749778
C61	C	-0.502009	-0.189809	-0.000232
C62	C	-0.252009	0.060191	0.249768
C63	C	-0.002009	0.310191	0.499768
C64	C	0.247991	0.560191	0.749768
C65	C	-0.473934	-0.113401	-0.000241
C66	C	-0.223934	0.136599	0.249759
C67	C	0.026066	0.386599	0.499759
C68	C	0.276066	0.636599	0.749759
C69	C	-0.518692	-0.038264	-0.000217
C70	C	-0.268692	0.211736	0.249783
C71	C	-0.018692	0.461736	0.499783
C72	C	0.231308	0.711736	0.749783
C73	C	-0.591517	-0.039542	-0.000198
C74	C	-0.341517	0.210458	0.249802
C75	C	-0.091517	0.460458	0.499802
C76	C	0.158483	0.710458	0.749802
N77	N	-0.365820	-0.054998	-0.052170
N78	N	-0.115820	0.195002	0.197830
N79	N	0.134180	0.445002	0.447830
N80	N	0.384180	0.695002	0.697830
N81	N	-0.296638	-0.053788	-0.052191
N82	N	-0.046638	0.196212	0.197809
N83	N	0.203362	0.446212	0.447809
N84	N	0.453362	0.696212	0.697809
C85	C	-0.254516	-0.109545	-0.000297
C86	C	-0.004516	0.140455	0.249703
C87	C	0.245484	0.390455	0.499703
C88	C	0.495484	0.640455	0.749703
N89	N	-0.284188	-0.166569	0.051606
N90	N	-0.034188	0.083431	0.301606
N91	N	0.215812	0.333431	0.551606
N92	N	0.465812	0.583431	0.801606
N93	N	-0.353375	-0.167781	0.051622
N94	N	-0.103375	0.082219	0.301622
N95	N	0.146625	0.332219	0.551622
N96	N	0.396625	0.582219	0.801622
C97	C	-0.394968	-0.112007	-0.000262
C98	C	-0.144968	0.137993	0.249738
C99	C	0.105032	0.387993	0.499738
C100	C	0.355032	0.637993	0.749738
C101	C	-0.130800	-0.183294	-0.000326
C102	C	0.119200	0.066706	0.249674
C103	C	0.369200	0.316706	0.499674
C104	C	0.619200	0.566706	0.749674
C105	C	-0.057973	-0.182015	-0.000330
C106	C	0.192027	0.067985	0.249670
C107	C	0.442027	0.317985	0.499670
C108	C	0.692027	0.567985	0.749670
C109	C	-0.074657	-0.030468	-0.000324
C110	C	0.175343	0.219532	0.249676
C111	C	0.425343	0.469532	0.499676
C112	C	0.675343	0.719532	0.749676
C113	C	-0.147483	-0.031749	-0.000311
C114	C	0.102517	0.218251	0.249689
C115	C	0.352517	0.468251	0.499689
C116	C	0.602517	0.718251	0.749689
C117	C	-0.175550	-0.108165	-0.000316
C118	C	0.074450	0.141835	0.249684
C119	C	0.324450	0.391835	0.499684
C120	C	0.574450	0.641835	0.749684
C121	C	-0.829875	0.041241	-0.000258
C122	C	-0.579875	0.291241	0.249742
C123	C	-0.329875	0.541241	0.499742
C124	C	-0.079875	0.791241	0.749742
C125	C	-0.828519	0.133532	-0.000256
C126	C	-0.578519	0.383532	0.249744
C127	C	-0.328519	0.633532	0.499744
C128	C	-0.078519	0.883532	0.749744
C129	C	-0.819612	-0.262805	-0.000277
C130	C	-0.569612	-0.012805	0.249723
C131	C	-0.319612	0.237195	0.499723
C132	C	-0.069612	0.487195	0.749723
C133	C	-0.820968	-0.355096	-0.000284
C134	C	-0.570968	-0.105096	0.249716
C135	C	-0.320968	0.144904	0.499716
C136	C	-0.070968	0.394904	0.749716
N137	N	-0.824738	-0.110779	0.216728
N138	N	-0.574738	0.139221	0.466728
N139	N	-0.324738	0.389221	0.716728
N140	N	-0.074738	0.639221	0.966728
C141	C	-0.888990	0.356005	-0.000290
C142	C	-0.638990	0.606005	0.249710
C143	C	-0.388990	0.856005	0.499710
C144	C	-0.138990	1.106005	0.749710
C145	C	-0.887710	0.442721	-0.000297
C146	C	-0.637710	0.692721	0.249703
C147	C	-0.387710	0.942721	0.499703
C148	C	-0.137710	1.192721	0.749703
C149	C	-0.760493	0.422425	-0.000254
C150	C	-0.510493	0.672425	0.249746
C151	C	-0.260493	0.922425	0.499746
C152	C	-0.010493	1.172425	0.749746
C153	C	-0.761773	0.335710	-0.000253
C154	C	-0.511773	0.585710	0.249747
C155	C	-0.261773	0.835710	0.499747
C156	C	-0.011773	1.085710	0.749747
C157	C	-0.826024	0.302503	-0.000267
C158	C	-0.576024	0.552503	0.249733
C159	C	-0.326024	0.802503	0.499733
C160	C	-0.076024	1.052503	0.749733
C161	C	-0.823463	0.475933	-0.000274
C162	C	-0.573463	0.725933	0.249726
C163	C	-0.323463	0.975933	0.499726
C164	C	-0.073463	1.225933	0.749726
C165	C	-0.822075	0.569955	-0.000282
C166	C	-0.572075	0.819955	0.249718
C167	C	-0.322075	1.069955	0.499718
C168	C	-0.072075	1.319955	0.749718
C169	C	-0.827412	0.208475	-0.000261
C170	C	-0.577412	0.458475	0.249739
C171	C	-0.327412	0.708475	0.499739
C172	C	-0.077412	0.958475	0.749739
N173	N	-0.824754	-0.110778	-0.217261
N174	N	-0.574754	0.139222	0.032739
N175	N	-0.324754	0.389222	0.282739
N176	N	-0.074754	0.639222	0.532739
C177	C	-0.872232	-0.054103	0.451724
C178	C	-0.622232	0.195897	0.701724
C179	C	-0.372232	0.445897	0.951724
C180	C	-0.122232	0.695897	1.201724
C181	C	-0.872234	-0.054101	0.547706
C182	C	-0.622234	0.195899	0.797706
C183	C	-0.372234	0.445899	1.047706
C184	C	-0.122234	0.695899	1.297706
C185	C	-0.777255	-0.167457	0.547736
C186	C	-0.527255	0.082543	0.797736
C187	C	-0.277255	0.332543	1.047736
C188	C	-0.027255	0.582543	1.297736
C189	C	-0.777250	-0.167454	0.451757
C190	C	-0.527250	0.082546	0.701757
C191	C	-0.277250	0.332546	0.951757
C192	C	-0.027250	0.582546	1.201757
C193	C	-0.824743	-0.110778	0.403753
C194	C	-0.574743	0.139222	0.653753
C195	C	-0.324743	0.389222	0.903753
C196	C	-0.074743	0.639222	1.153753
C197	C	-0.824750	-0.110779	0.595714
C198	C	-0.574750	0.139221	0.845714
C199	C	-0.324750	0.389221	1.095714
C200	C	-0.074750	0.639221	1.345714
C201	C	-0.824751	-0.110777	0.699781
C202	C	-0.574751	0.139223	0.949781
C203	C	-0.324751	0.389223	1.199781
C204	C	-0.074751	0.639223	1.449781
C205	C	-0.824740	-0.110779	0.299679
C206	C	-0.574740	0.139221	0.549679
C207	C	-0.324740	0.389221	0.799679
C208	C	-0.074740	0.639221	1.049679
H209	H	-0.597683	-0.253308	-0.000228
H210	H	-0.347683	-0.003308	0.249772
H211	H	-0.097683	0.246692	0.499772
H212	H	0.152317	0.496692	0.749772
Br213	Br	-0.936685	0.022815	0.386580
Br214	Br	-0.686685	0.272815	0.636580
Br215	Br	-0.436685	0.522815	0.886580
Br216	Br	-0.186685	0.772815	1.136580
Br217	Br	-0.973167	0.515328	-0.000333
Br218	Br	-0.723167	0.765328	0.249667
Br219	Br	-0.473167	1.015328	0.499667
Br220	Br	-0.223167	1.265328	0.749667
H221	H	-0.153654	-0.245516	-0.000316
H222	H	0.096346	0.004484	0.249684
H223	H	0.346346	0.254484	0.499684
H224	H	0.596346	0.504484	0.749684
H225	H	-0.183919	0.029428	-0.000300
H226	H	0.066081	0.279428	0.249700
H227	H	0.316081	0.529428	0.499700
H228	H	0.566081	0.779428	0.749700
Br229	Br	-0.676313	0.263094	-0.000235
Br230	Br	-0.426313	0.513094	0.249765
Br231	Br	-0.176313	0.763094	0.499765
Br232	Br	0.073687	1.013094	0.749765
Br233	Br	-0.936683	0.022822	0.612808
Br234	Br	-0.686683	0.272822	0.862808
Br235	Br	-0.436683	0.522822	1.112808
Br236	Br	-0.186683	0.772822	1.362808
H237	H	-0.738589	-0.213602	0.586830
H238	H	-0.488589	0.036398	0.836830
H239	H	-0.238589	0.286398	1.086830
H240	H	0.011411	0.536398	1.336830
H241	H	-0.738575	-0.213606	0.412696
H242	H	-0.488575	0.036394	0.662696
H243	H	-0.238575	0.286394	0.912696
H244	H	0.011425	0.536394	1.162696
H245	H	-0.465568	-0.250988	-0.000245
H246	H	-0.215568	-0.000988	0.249755
H247	H	0.034432	0.249012	0.499755
H248	H	0.284432	0.499012	0.749755
H249	H	-0.495829	0.023948	-0.000237
H250	H	-0.245829	0.273948	0.249763
H251	H	0.004171	0.523948	0.499763
H252	H	0.254171	0.773948	0.749763
H253	H	-0.627952	0.021638	-0.000183
H254	H	-0.377952	0.271638	0.249817
H255	H	-0.127952	0.521638	0.499817
H256	H	0.122048	0.771638	0.749817
Br257	Br	-0.036564	0.073231	-0.000322
Br258	Br	0.213436	0.323231	0.249678
Br259	Br	0.463436	0.573231	0.499678
Br260	Br	0.713436	0.823231	0.749678
H261	H	-0.708182	0.449473	-0.000242
H262	H	-0.458182	0.699473	0.249758
H263	H	-0.208182	0.949473	0.499758
H264	H	0.041818	1.199473	0.749758
Br265	Br	0.002760	-0.283983	-0.000348
Br266	Br	0.252760	-0.033983	0.249652
Br267	Br	0.502760	0.216017	0.499652
Br268	Br	0.752760	0.466017	0.749652
H269	H	-0.941306	0.328970	-0.000302
H270	H	-0.691306	0.578970	0.249698
H271	H	-0.441306	0.828970	0.499698
H272	H	-0.191306	1.078970	0.749698
