data_functionalizedCrystal
_audit_creation_method	'MofGen! by Chris Wilmer'
_symmetry_space_group_name_H-M	'P1'
_symmetry_Int_Tables_number	1
_symmetry_cell_setting	triclinic
loop_
_symmetry_equiv_pos_as_xyz
  x,y,z
_cell_length_a	16.959455
_cell_length_b	18.050589
_cell_length_c	16.959447
_cell_angle_alpha	89.973357
_cell_angle_beta	89.985678
_cell_angle_gamma	90.025168
loop_
_atom_site_label
_atom_site_type_symbol
_atom_site_fract_x
_atom_site_fract_y
_atom_site_fract_z
Zn1	Zn	1.208339	-0.295705	-0.446929
Zn2	Zn	1.708339	0.204295	0.053071
Zn3	Zn	1.208243	-0.419907	-0.314759
Zn4	Zn	1.708243	0.080093	0.185241
Zn5	Zn	1.076167	-0.295729	-0.314766
Zn6	Zn	1.576167	0.204271	0.185234
Zn7	Zn	1.076113	-0.419851	-0.446897
Zn8	Zn	1.576113	0.080149	0.053103
O9	O	1.142216	-0.357798	-0.380838
O10	O	1.642216	0.142202	0.119162
O11	O	1.318937	-0.312194	-0.429406
O12	O	1.818937	0.187806	0.070594
O13	O	1.190705	-0.403467	-0.204149
O14	O	1.690705	0.096533	0.295851
O15	O	1.093763	-0.191801	-0.332314
O16	O	1.593763	0.308199	0.167686
O17	O	1.318866	-0.403445	-0.332301
O18	O	1.818866	0.096555	0.167699
O19	O	1.190869	-0.191784	-0.429414
O20	O	1.690869	0.308216	0.070586
O21	O	1.093670	-0.312234	-0.204154
O22	O	1.593670	0.187766	0.295846
O23	O	0.965549	-0.312180	-0.332284
O24	O	1.465549	0.187820	0.167716
O25	O	1.093671	-0.403350	-0.557512
O26	O	1.593671	0.096650	-0.057512
O27	O	0.965510	-0.403373	-0.429360
O28	O	1.465510	0.096627	0.070640
O29	O	1.190817	-0.312141	-0.557536
O30	O	1.690817	0.187859	-0.057536
O31	O	1.190653	-0.523824	-0.332271
O32	O	1.690653	-0.023824	0.167729
O33	O	1.093578	-0.523783	-0.429353
O34	O	1.593578	-0.023783	0.070647
C35	C	0.936849	-0.357774	-0.380820
C36	C	1.436849	0.142226	0.119180
C37	C	0.848993	-0.357781	-0.380831
C38	C	1.348993	0.142219	0.119169
C39	C	0.477513	-0.310275	-0.330396
C40	C	0.977513	0.189725	0.169604
C41	C	0.477521	-0.405382	-0.431325
C42	C	0.977521	0.094618	0.068675
C43	C	0.560067	-0.405371	-0.431320
C44	C	1.060067	0.094629	0.068680
C45	C	0.601340	-0.357813	-0.380852
C46	C	1.101340	0.142187	0.119148
C47	C	0.560067	-0.310265	-0.330388
C48	C	1.060067	0.189735	0.169612
C49	C	0.601346	-0.452924	-0.481777
C50	C	1.101346	0.047076	0.018223
C51	C	0.683897	-0.452916	-0.481774
C52	C	1.183897	0.047084	0.018226
C53	C	0.725171	-0.405353	-0.431309
C54	C	1.225171	0.094647	0.068691
C55	C	0.683893	-0.357802	-0.380844
C56	C	1.183893	0.142198	0.119156
C57	C	0.725166	-0.310243	-0.330375
C58	C	1.225166	0.189757	0.169625
C59	C	0.683890	-0.262689	-0.279913
C60	C	1.183890	0.237311	0.220087
C61	C	0.601342	-0.262702	-0.279923
C62	C	1.101342	0.237298	0.220077
C63	C	0.807720	-0.405340	-0.431299
C64	C	1.307720	0.094660	0.068701
C65	C	0.807720	-0.310233	-0.330367
C66	C	1.307720	0.189767	0.169633
C67	C	1.142120	-0.550750	-0.380825
C68	C	1.642120	-0.050750	0.119175
C69	C	1.142152	-0.633296	-0.380846
C70	C	1.642152	-0.133296	0.119154
C71	C	1.089414	-0.832751	-0.433620
C72	C	1.589414	-0.332751	0.066380
C73	C	1.070151	-0.882194	-0.361493
C74	C	1.570151	-0.382194	0.138507
C75	C	1.142229	-0.784426	-0.380856
C76	C	1.642229	-0.284426	0.119144
C77	C	1.161531	-0.882065	-0.452991
C78	C	1.661531	-0.382065	0.047009
C79	C	1.142303	-0.930411	-0.380872
C80	C	1.642303	-0.430411	0.119128
C81	C	1.122929	-0.832782	-0.308691
C82	C	1.622929	-0.332782	0.191309
C83	C	1.214342	-0.832648	-0.400237
C84	C	1.714342	-0.332648	0.099763
C85	C	1.195106	-0.882069	-0.328061
C86	C	1.695106	-0.382069	0.171939
C87	C	1.142185	-0.700328	-0.380848
C88	C	1.642185	-0.200328	0.119152
C89	C	1.142347	-1.014508	-0.380872
C90	C	1.642347	-0.514508	0.119128
C91	C	1.348384	-0.357823	-0.380857
C92	C	1.848384	0.142177	0.119143
C93	C	1.436240	-0.357834	-0.380864
C94	C	1.936240	0.142166	0.119136
C95	C	1.142249	-0.357737	-0.587006
C96	C	1.642249	0.142263	-0.087006
C97	C	1.142263	-0.357710	-0.674863
C98	C	1.642263	0.142290	-0.174863
C99	C	1.142333	-0.164092	-0.380868
C100	C	1.642333	0.335908	0.119132
C101	C	1.142383	-0.081547	-0.380881
C102	C	1.642383	0.418453	0.119119
C103	C	1.091778	-0.405121	-1.046329
C104	C	1.591778	0.094879	-0.546329
C105	C	1.192936	-0.310143	-1.046348
C106	C	1.692936	0.189857	-0.546348
C107	C	1.192915	-0.310159	-0.963802
C108	C	1.692915	0.189841	-0.463802
C109	C	1.142326	-0.357657	-0.922516
C110	C	1.642326	0.142343	-0.422516
C111	C	1.091757	-0.405139	-0.963775
C112	C	1.591757	0.094861	-0.463775
C113	C	1.243489	-0.262683	-0.922537
C114	C	1.743489	0.237317	-0.422537
C115	C	1.243470	-0.262698	-0.839986
C116	C	1.743470	0.237302	-0.339986
C117	C	1.192876	-0.310192	-0.798698
C118	C	1.692876	0.189808	-0.298698
C119	C	1.142305	-0.357676	-0.839962
C120	C	1.642305	0.142324	-0.339962
C121	C	1.091715	-0.405174	-0.798676
C122	C	1.591715	0.094826	-0.298676
C123	C	1.041139	-0.452654	-0.839939
C124	C	1.541139	0.047346	-0.339939
C125	C	1.041162	-0.452634	-0.922488
C126	C	1.541162	0.047366	-0.422488
C127	C	1.192852	-0.310212	-0.716149
C128	C	1.692852	0.189788	-0.216149
C129	C	1.091694	-0.405193	-0.716122
C130	C	1.591694	0.094807	-0.216122
C131	C	1.142228	-0.357806	-0.175472
C132	C	1.642228	0.142194	0.324528
C133	C	1.142368	-0.357623	-0.087615
C134	C	1.642368	0.142377	0.412385
H135	H	0.443911	-0.444106	-0.472410
H136	H	0.943911	0.055894	0.027590
H137	H	1.050598	-0.443776	-1.079929
H138	H	1.550598	0.056224	-0.579929
N139	N	1.244613	-0.261641	-1.088530
N140	N	1.744613	0.238359	-0.588530
N141	N	1.244629	-0.261636	-1.162234
N142	N	1.744629	0.238364	-0.662234
H143	H	1.281127	-0.227379	-1.192029
H144	H	1.781127	0.272621	-0.692029
H145	H	0.999952	-0.491330	-0.806313
H146	H	1.499952	0.008670	-0.306313
H147	H	1.275277	-0.810871	-0.416650
H148	H	1.775277	-0.310871	0.083350
H149	H	1.177827	-0.903713	-0.513989
H150	H	1.677827	-0.403713	-0.013989
H151	H	1.284681	-0.224017	-0.956158
H152	H	1.784681	0.275983	-0.456158
N153	N	1.102383	-0.805757	-0.232146
N154	N	1.602383	-0.305757	0.267854
N155	N	1.087805	-0.850317	-0.177613
N156	N	1.587805	-0.350317	0.322387
H157	H	1.073292	-0.831230	-0.123554
H158	H	1.573292	-0.331230	0.376446
H159	H	1.044685	-0.811096	-0.478178
H160	H	1.544685	-0.311096	0.021822
H161	H	0.841323	-0.444060	-0.472382
H162	H	1.341323	0.055940	0.027618
H163	H	1.284652	-0.224036	-0.806396
H164	H	1.784652	0.275964	-0.306396
N165	N	0.993684	-0.909488	-0.340935
N166	N	1.493684	-0.409488	0.159065
N167	N	0.935421	-0.893700	-0.382814
N168	N	1.435421	-0.393700	0.117186
H169	H	0.881414	-0.912973	-0.368300
H170	H	1.381414	-0.412973	0.131700
N171	N	1.251173	-0.909060	-0.272024
N172	N	1.751173	-0.409060	0.227976
N173	N	1.243975	-0.893120	-0.200668
N174	N	1.743975	-0.393120	0.299332
H175	H	1.283569	-0.912183	-0.161090
H176	H	1.783569	-0.412183	0.338910
H177	H	1.050490	-0.443865	-0.682513
H178	H	1.550490	0.056135	-0.182513
N179	N	0.559178	-0.214124	-0.228388
N180	N	1.059178	0.285876	0.271612
N181	N	0.513137	-0.166841	-0.256289
N182	N	1.013137	0.333159	0.243711
H183	H	0.483355	-0.132534	-0.219893
H184	H	0.983355	0.367466	0.280107
N185	N	0.989509	-0.501124	-0.964649
N186	N	1.489509	-0.001124	-0.464649
N187	N	0.989539	-0.501101	-1.038352
N188	N	1.489539	-0.001101	-0.538352
H189	H	0.953060	-0.535348	-1.068133
H190	H	1.453060	-0.035348	-0.568133
N191	N	1.244506	-0.261708	-0.674012
N192	N	1.744506	0.238292	-0.174012
N193	N	1.239311	-0.193178	-0.683253
N194	N	1.739311	0.306822	-0.183253
H195	H	1.275792	-0.158918	-0.653494
H196	H	1.775792	0.341082	-0.153494
N197	N	0.849878	-0.261640	-0.278827
N198	N	1.349878	0.238360	0.221173
N199	N	0.840685	-0.193120	-0.284202
N200	N	1.340685	0.306880	0.215798
H201	H	0.870460	-0.158799	-0.247803
H202	H	1.370460	0.341201	0.252197
N203	N	0.726066	-0.214121	-0.228360
N204	N	1.226066	0.285879	0.271640
N205	N	0.799769	-0.214130	-0.228359
N206	N	1.299769	0.285870	0.271641
H207	H	0.829560	-0.179831	-0.191950
H208	H	1.329560	0.320169	0.308050
N209	N	0.435344	-0.261701	-0.278863
N210	N	0.935344	0.238299	0.221137
N211	N	0.361641	-0.261709	-0.278878
N212	N	0.861641	0.238291	0.221122
H213	H	0.331856	-0.227403	-0.242483
H214	H	0.831856	0.272597	0.257517
H215	H	0.567735	-0.491649	-0.522861
H216	H	1.067735	0.008351	-0.022861
H217	H	0.717497	-0.491637	-0.522864
H218	H	1.217497	0.008363	-0.022864
