data_functionalizedCrystal
_audit_creation_method	'MofGen! by Chris Wilmer'
_symmetry_space_group_name_H-M	'P1'
_symmetry_Int_Tables_number	1
_symmetry_cell_setting	triclinic
loop_
_symmetry_equiv_pos_as_xyz
  x,y,z
_cell_length_a	29.839131
_cell_length_b	10.686220
_cell_length_c	10.686551
_cell_angle_alpha	90.308082
_cell_angle_beta	85.589901
_cell_angle_gamma	94.423467
loop_
_atom_site_label
_atom_site_type_symbol
_atom_site_fract_x
_atom_site_fract_y
_atom_site_fract_z
Zn1	Zn	-0.109531	1.972144	-0.562362
Zn2	Zn	-0.190848	1.955808	-0.352586
Zn3	Zn	-0.121024	1.746247	-0.368677
Zn4	Zn	-0.189937	1.762239	-0.578364
O5	O	-0.152835	1.859109	-0.465497
O6	O	-0.115889	2.145524	-0.521104
O7	O	-0.186776	1.914480	-0.179174
O8	O	-0.056627	1.776357	-0.394408
O9	O	-0.175632	2.133522	-0.366982
O10	O	-0.048183	1.942322	-0.536707
O11	O	-0.135477	1.760516	-0.190996
O12	O	-0.134594	1.572821	-0.409924
O13	O	-0.174081	1.803613	-0.751788
O14	O	-0.185225	1.584570	-0.563980
O15	O	-0.115006	1.957829	-0.740032
O16	O	-0.253599	1.929986	-0.382499
O17	O	-0.252930	1.787772	-0.548377
C18	C	-0.161058	1.533178	-0.490435
C19	C	-0.164586	1.393745	-0.501133
C20	C	-0.269565	1.858878	-0.465453
C21	C	-0.319499	1.858897	-0.465467
C22	C	-0.629464	1.933315	-0.379231
C23	C	-0.817132	1.933474	-0.379268
O24	O	-0.841676	1.996563	-0.305913
N25	N	-0.840268	1.859377	-0.465572
C26	C	-0.816484	1.785241	-0.551879
O27	O	-0.840468	1.722231	-0.625295
C28	C	-0.628816	1.785090	-0.551847
C29	C	-0.605683	1.859182	-0.465528
C30	C	-0.606331	2.007402	-0.292920
C31	C	-0.559417	2.007357	-0.292908
C32	C	-0.535636	1.933224	-0.379205
C33	C	-0.558769	1.859137	-0.465516
C34	C	-0.605033	1.710962	-0.638159
C35	C	-0.558113	1.710934	-0.638145
C36	C	-0.534980	1.785026	-0.551827
C37	C	-0.488075	1.784958	-0.551801
N38	N	-0.464939	1.859055	-0.465496
C39	C	-0.488720	1.933188	-0.379198
C40	C	-0.915012	1.785324	-0.551888
C41	C	-0.961928	1.785360	-0.551895
C42	C	-0.962573	1.933594	-0.379285
C43	C	-0.915656	1.933551	-0.379273
C44	C	-0.891876	1.859421	-0.465583
C45	C	-0.390197	1.933086	-0.379177
C46	C	-0.343279	1.933030	-0.379169
C47	C	-0.342638	1.784801	-0.551783
C48	C	-0.389552	1.784851	-0.551787
C49	C	-0.413330	1.859004	-0.465480
O50	O	-0.463501	1.721913	-0.625126
O51	O	-0.464726	1.996210	-0.305811
C52	C	-0.676378	1.933361	-0.379244
C53	C	-0.699511	1.859273	-0.465554
C54	C	-0.675730	1.785141	-0.551852
C55	C	-0.746428	1.859309	-0.465561
C56	C	-0.770208	1.933442	-0.379263
C57	C	-0.747072	2.007539	-0.292959
C58	C	-0.700158	2.007493	-0.292946
C59	C	-0.698867	1.711044	-0.638156
C60	C	-0.745781	1.711094	-0.638161
C61	C	-0.769561	1.785227	-0.551863
C62	C	-0.035647	1.859378	-0.465567
C63	C	0.014291	1.859492	-0.465597
C64	C	-0.143160	1.884327	-0.792700
C65	C	-0.139037	1.895073	-0.932134
C66	C	-0.144580	2.186314	-0.440463
C67	C	-0.141063	2.325749	-0.429795
C68	C	-0.162438	1.834062	-0.139563
C69	C	-0.166429	1.823559	-0.000111
H70	H	-0.118225	1.374204	-0.360535
H71	H	-0.540584	2.067693	-0.222623
H72	H	-0.112431	1.964530	-0.980613
H73	H	-0.187428	1.345283	-0.570390
H74	H	-0.324446	1.993364	-0.308874
H75	H	-0.193035	1.754116	-0.951637
H76	H	-0.679508	1.650678	-0.708432
H77	H	-0.409551	1.993471	-0.308900
H78	H	-0.625688	2.067777	-0.222645
H79	H	-0.323269	1.724438	-0.622042
H80	H	-0.896824	1.993883	-0.308986
H81	H	-0.895653	1.724955	-0.622174
H82	H	-0.981943	1.993956	-0.309018
H83	H	-0.980760	1.725014	-0.622173
H84	H	-0.623860	1.650622	-0.708443
H85	H	-0.538753	1.650570	-0.708433
H86	H	-0.408388	1.724524	-0.622078
H87	H	-0.681327	2.067826	-0.222658
H88	H	-0.764612	1.650749	-0.708452
H89	H	-0.766443	2.067897	-0.222689
