data_functionalizedCrystal
_audit_creation_method	'MofGen! by Chris Wilmer'
_symmetry_space_group_name_H-M	'P1'
_symmetry_Int_Tables_number	1
_symmetry_cell_setting	triclinic
loop_
_symmetry_equiv_pos_as_xyz
  x,y,z
_cell_length_a	16.992694
_cell_length_b	19.288865
_cell_length_c	17.766277
_cell_angle_alpha	90.011603
_cell_angle_beta	89.996404
_cell_angle_gamma	93.097764
loop_
_atom_site_label
_atom_site_type_symbol
_atom_site_fract_x
_atom_site_fract_y
_atom_site_fract_z
O1	O	1.039877	-0.147253	-0.062515
O2	O	1.539877	0.352747	0.437485
O3	O	0.811597	-0.145638	-0.062537
O4	O	1.311597	0.354362	0.437463
O5	O	0.932333	-0.045700	-0.062510
O6	O	1.432333	0.454300	0.437490
O7	O	0.919141	-0.247191	-0.062541
O8	O	1.419141	0.252809	0.437459
O9	O	0.932312	-0.045693	0.062678
O10	O	1.432312	0.454307	0.562678
O11	O	0.811576	-0.145631	0.062652
O12	O	1.311576	0.354369	0.562652
O13	O	1.039855	-0.147247	0.062674
O14	O	1.539855	0.352753	0.562674
Cu15	Cu	0.925714	-0.146438	0.074094
Cu16	Cu	1.425714	0.353562	0.574094
Cu17	Cu	0.925739	-0.146446	-0.073956
Cu18	Cu	1.425739	0.353554	0.426044
O19	O	0.919119	-0.247185	0.062647
O20	O	1.419119	0.252815	0.562647
C21	C	0.782381	-0.143556	0.000055
C22	C	1.282381	0.356444	0.500055
C23	C	0.695359	-0.137355	0.000047
C24	C	1.195359	0.362645	0.500047
N25	N	0.925702	-0.146433	0.178224
N26	N	1.425702	0.353567	0.678224
C27	C	0.931898	-0.019795	0.000086
C28	C	1.431898	0.480205	0.500086
C29	C	0.930624	0.057383	0.000093
C30	C	1.430624	0.557383	0.500093
C31	C	0.644907	-0.197184	0.000039
C32	C	1.144907	0.302816	0.500039
C33	C	0.563141	-0.191353	0.000050
C34	C	1.063141	0.308647	0.500050
C35	C	0.531829	-0.125694	0.000064
C36	C	1.031829	0.374306	0.500064
C37	C	0.582287	-0.065862	0.000075
C38	C	1.082287	0.434138	0.500075
C39	C	0.664051	-0.071693	0.000069
C40	C	1.164051	0.428307	0.500069
C41	C	0.288316	-0.101527	0.000088
C42	C	0.788316	0.398473	0.500088
C43	C	0.206545	-0.095701	0.000092
C44	C	0.706545	0.404299	0.500092
C45	C	0.187405	-0.221193	0.000068
C46	C	0.687405	0.278807	0.500068
C47	C	0.269172	-0.227018	0.000057
C48	C	0.769172	0.272982	0.500057
C49	C	0.319623	-0.167186	0.000072
C50	C	0.819623	0.332814	0.500072
N51	N	0.448251	-0.119733	0.000074
N52	N	0.948251	0.380267	0.500074
N53	N	0.403199	-0.173147	0.000069
N54	N	0.903199	0.326853	0.500069
C55	C	1.069071	-0.149328	0.000080
C56	C	1.569071	0.350672	0.500080
C57	C	1.156093	-0.155529	0.000083
C58	C	1.656093	0.344471	0.500083
C59	C	0.919555	-0.273089	0.000049
C60	C	1.419555	0.226911	0.500049
C61	C	0.920829	-0.350267	0.000038
C62	C	1.420829	0.149733	0.500038
C63	C	1.001466	0.097950	0.000103
C64	C	1.501466	0.597950	0.500103
C65	C	1.000269	0.170467	0.000091
C66	C	1.500269	0.670467	0.500091
C67	C	0.928225	0.202413	0.000084
C68	C	1.428225	0.702413	0.500084
C69	C	0.857374	0.161837	0.000069
C70	C	1.357374	0.661837	0.500069
C71	C	0.858573	0.089321	0.000074
C72	C	1.358573	0.589321	0.500074
C73	C	0.871583	0.314004	0.043929
C74	C	1.371583	0.814004	0.543929
C75	C	0.870387	0.386518	0.043929
C76	C	1.370387	0.886518	0.543929
C77	C	0.924524	0.426075	0.000067
C78	C	1.424524	0.926075	0.500067
C79	C	0.979870	0.393109	-0.043787
C80	C	1.479870	0.893109	0.456213
C81	C	0.981069	0.320594	-0.043782
C82	C	1.481069	0.820594	0.456218
C83	C	0.926917	0.281044	0.000079
C84	C	1.426917	0.781044	0.500079
C85	C	0.994073	0.545274	0.000063
C86	C	1.494073	1.045274	0.500063
C87	C	0.992873	0.617792	0.000046
C88	C	1.492873	1.117792	0.500046
C89	C	0.849976	0.609160	0.000032
C90	C	1.349976	1.109160	0.500032
C91	C	0.851178	0.536643	0.000041
C92	C	1.351178	1.036643	0.500041
C93	C	0.923229	0.504705	0.000060
C94	C	1.423229	1.004705	0.500060
N95	N	0.925757	-0.146447	-0.178087
N96	N	1.425757	0.353553	0.321913
C97	C	0.979181	-0.102204	0.217622
C98	C	1.479181	0.397796	0.717622
C99	C	0.979185	-0.102201	0.296424
C100	C	1.479185	0.397799	0.796424
C101	C	0.925718	-0.146439	0.335824
C102	C	1.425718	0.353561	0.835824
C103	C	0.872229	-0.190671	0.296416
C104	C	1.372229	0.309329	0.796416
C105	C	0.872221	-0.190667	0.217616
C106	C	1.372221	0.309333	0.717616
C107	C	0.915223	-0.209115	0.460652
C108	C	1.415223	0.290885	0.960652
C109	C	0.915237	-0.209120	0.539451
C110	C	1.415237	0.290880	1.039451
C111	C	0.925739	-0.146449	0.578871
C112	C	1.425739	0.353551	1.078871
C113	C	0.936244	-0.083771	0.539482
C114	C	1.436244	0.416229	1.039482
C115	C	0.936236	-0.083768	0.460682
C116	C	1.436236	0.416232	0.960682
C117	C	0.925721	-0.146447	0.421270
C118	C	1.425721	0.353553	0.921270
C119	C	0.979226	-0.102213	0.703715
C120	C	1.479226	0.397787	1.203715
C121	C	0.979225	-0.102209	0.782519
C122	C	1.479225	0.397791	1.282519
C123	C	0.872273	-0.190685	0.782509
C124	C	1.372273	0.309315	1.282509
C125	C	0.872270	-0.190683	0.703707
C126	C	1.372270	0.309317	1.203707
C127	C	0.925751	-0.146448	0.664315
C128	C	1.425751	0.353552	1.164315
H129	H	0.670395	-0.250650	0.000026
H130	H	1.170395	0.249350	0.500026
Cl131	Cl	1.084649	0.505119	0.000092
Cl132	Cl	1.584649	1.005119	0.500092
Cl133	Cl	0.167183	-0.013151	0.000127
Cl134	Cl	0.667183	0.486849	0.500127
H135	H	0.146320	-0.269905	0.000057
H136	H	0.646320	0.230095	0.500057
H137	H	1.023953	0.425315	-0.079504
H138	H	1.523953	0.925315	0.420496
H139	H	0.294660	-0.280485	0.000037
H140	H	0.794660	0.219515	0.500037
Cl141	Cl	0.351730	-0.026308	0.000106
Cl142	Cl	0.851730	0.473692	0.500106
Cl143	Cl	0.804986	-0.246274	0.168083
Cl144	Cl	1.304986	0.253726	0.668083
H145	H	0.522066	-0.240072	0.000042
H146	H	1.022066	0.259928	0.500042
Cl147	Cl	0.800813	0.427953	0.099061
Cl148	Cl	1.300813	0.927953	0.599061
H149	H	1.022772	-0.066189	0.814598
H150	H	1.522772	0.433811	1.314598
H151	H	0.556786	-0.012400	0.000098
H152	H	1.056786	0.487600	0.500098
H153	H	1.022726	-0.066184	0.185552
H154	H	1.522726	0.433816	0.685552
Cl155	Cl	0.805010	-0.246281	0.345946
Cl156	Cl	1.305010	0.253719	0.845946
H157	H	0.705129	-0.022974	0.000076
H158	H	1.205129	0.477026	0.500076
H159	H	1.060135	0.071951	0.000116
H160	H	1.560135	0.571951	0.500116
Cl161	Cl	0.805051	-0.246293	0.832035
Cl162	Cl	1.305051	0.253707	1.332035
H163	H	1.057959	0.203504	0.000097
H164	H	1.557959	0.703504	0.500097
H165	H	0.827497	0.281802	0.079652
H166	H	1.327497	0.781802	0.579652
Cl167	Cl	0.805040	-0.246291	0.654173
Cl168	Cl	1.305040	0.253709	1.154173
Cl169	Cl	1.050639	0.279153	-0.098914
Cl170	Cl	1.550639	0.779153	0.401086
Cl171	Cl	1.081941	0.668792	0.000055
Cl172	Cl	1.581941	1.168792	0.500055
Cl173	Cl	0.766805	0.201997	0.000054
Cl174	Cl	1.266805	0.701997	0.500054
Cl175	Cl	0.759405	0.649314	0.000018
Cl176	Cl	1.259405	1.149314	0.500018
H177	H	0.793490	0.503612	0.000037
H178	H	1.293490	1.003612	0.500037
H179	H	0.800883	0.056291	0.000065
H180	H	1.300883	0.556291	0.500065
H181	H	1.022736	-0.066184	0.328509
H182	H	1.522736	0.433816	0.828509
H183	H	0.906688	-0.260155	0.571515
H184	H	1.406688	0.239845	1.071515
H185	H	0.944788	-0.032734	0.428615
H186	H	1.444788	0.467266	0.928615
H187	H	0.944796	-0.032739	0.571576
H188	H	1.444796	0.467261	1.071576
H189	H	1.022771	-0.066192	0.671641
H190	H	1.522771	0.433808	1.171641
H191	H	0.906658	-0.260152	0.428563
H192	H	1.406658	0.239848	0.928563
