data_functionalizedCrystal
_audit_creation_method	'MofGen! by Chris Wilmer'
_symmetry_space_group_name_H-M	'P1'
_symmetry_Int_Tables_number	1
_symmetry_cell_setting	triclinic
loop_
_symmetry_equiv_pos_as_xyz
  x,y,z
_cell_length_a	9.065218
_cell_length_b	10.654550
_cell_length_c	9.730223
_cell_angle_alpha	90.004253
_cell_angle_beta	90.003359
_cell_angle_gamma	84.750408
loop_
_atom_site_label
_atom_site_type_symbol
_atom_site_fract_x
_atom_site_fract_y
_atom_site_fract_z
O1	O	-1.959392	-0.184159	-0.114293
O2	O	-1.530025	-0.199265	-0.114295
O3	O	-1.754581	-0.009012	-0.114285
O4	O	-1.734837	-0.374412	-0.114303
O5	O	-1.754566	-0.009006	0.114294
O6	O	-1.530010	-0.199259	0.114285
O7	O	-1.959378	-0.184154	0.114287
Zn8	Zn	-1.744692	-0.191706	0.150578
Zn9	Zn	-1.744711	-0.191713	-0.150586
O10	O	-1.734822	-0.374407	0.114277
C11	C	-1.753124	0.037795	0.000004
C12	C	-1.748786	0.177255	0.000002
C13	C	-1.475039	-0.197810	-0.000005
C14	C	-1.311220	-0.193469	-0.000006
C15	C	-2.014364	-0.185608	-0.000006
C16	C	-2.178183	-0.189949	-0.000015
C17	C	-1.736279	-0.421213	-0.000015
C18	C	-1.740616	-0.560673	-0.000022
N19	N	-1.744689	-0.191700	0.356114
C20	C	-1.881001	0.256217	0.000002
C21	C	-1.876917	0.387254	-0.000015
C22	C	-1.608391	0.360354	-0.000026
C23	C	-1.612477	0.229320	-0.000019
N24	N	-1.744725	-0.191708	-0.356123
C25	C	-1.844157	-0.107492	0.428044
C26	C	-1.844172	-0.107493	0.571927
C27	C	-1.645247	-0.275920	0.571937
C28	C	-1.645226	-0.275912	0.428057
H29	H	-1.991993	0.213831	0.000016
H30	H	-1.504805	0.165025	-0.000023
O31	O	-2.005489	0.463777	0.000050
C32	C	-2.272260	0.476620	-0.000014
C33	C	-2.126758	0.389814	-0.000053
H34	H	-2.370344	0.416857	-0.000126
H35	H	-2.277153	0.538629	0.095663
H36	H	-2.276993	0.538652	-0.095658
H37	H	-2.121929	0.327704	0.095527
H38	H	-2.121926	0.327891	-0.095792
O39	O	-1.940816	-0.025564	0.358371
C40	C	-2.138175	0.141448	0.373554
C41	C	-2.028766	0.048746	0.452624
H42	H	-2.209332	0.201534	0.449723
H43	H	-2.073905	0.205039	0.306252
H44	H	-2.212358	0.086328	0.306134
H45	H	-1.954557	0.103763	0.520119
H46	H	-2.093128	-0.014846	0.519839
H47	H	-1.564221	-0.344485	0.369487
O48	O	-1.548435	-0.357596	0.641767
C49	C	-1.292647	-0.428186	0.685772
C50	C	-1.402121	-0.335594	0.606631
H51	H	-1.174329	-0.410448	0.657372
H52	H	-1.309622	-0.413726	0.800979
H53	H	-1.312960	-0.529002	0.657481
H54	H	-1.381875	-0.234741	0.634807
H55	H	-1.385120	-0.350164	0.491444
H56	H	-1.925165	-0.038922	0.630489
H57	H	-1.497413	0.402762	-0.000041
