data_functionalizedCrystal
_audit_creation_method	'MofGen! by Chris Wilmer'
_symmetry_space_group_name_H-M	'P1'
_symmetry_Int_Tables_number	1
_symmetry_cell_setting	triclinic
loop_
_symmetry_equiv_pos_as_xyz
  x,y,z
_cell_length_a	16.974829
_cell_length_b	16.992695
_cell_length_c	16.053810
_cell_angle_alpha	92.752725
_cell_angle_beta	96.215690
_cell_angle_gamma	92.974284
loop_
_atom_site_label
_atom_site_type_symbol
_atom_site_fract_x
_atom_site_fract_y
_atom_site_fract_z
O1	O	1.061791	-0.093214	0.141170
O2	O	0.831691	-0.106679	0.125625
O3	O	0.945818	0.014192	0.133329
O4	O	0.947664	-0.214085	0.133467
O5	O	0.939564	0.007541	-0.005952
O6	O	0.825437	-0.113330	-0.013656
O7	O	1.055536	-0.099865	0.001889
Zn8	Zn	0.939493	-0.107653	-0.027997
Zn9	Zn	0.947734	-0.098891	0.155512
O10	O	0.941409	-0.220736	-0.005814
C11	C	0.798985	-0.109615	0.053986
C12	C	0.710850	-0.108445	0.048032
C13	C	0.214373	-0.102274	0.006365
C14	C	0.297185	-0.103373	0.011962
C15	C	0.342002	-0.100292	0.090683
C16	C	0.304001	-0.096118	0.163813
C17	C	0.221189	-0.095025	0.158216
C18	C	0.590037	-0.103178	0.115565
C19	C	0.672855	-0.104269	0.121156
C20	C	0.666034	-0.111526	-0.030696
C21	C	0.583221	-0.110427	-0.036286
C22	C	0.545227	-0.106258	0.036844
N23	N	0.426650	-0.101412	0.096406
N24	N	0.460580	-0.105143	0.031121
C25	C	0.940318	0.040069	0.063528
C26	C	0.933237	0.127083	0.063050
C27	C	1.088242	-0.096929	0.073530
C28	C	1.176378	-0.098099	0.079490
C29	C	0.946910	-0.246613	0.063988
C30	C	0.953991	-0.333626	0.064472
C31	C	1.001559	0.177615	0.067665
C32	C	0.994901	0.259374	0.067223
C33	C	0.919920	0.290598	0.062160
C34	C	0.851593	0.240059	0.057547
C35	C	0.858251	0.158302	0.057995
C36	C	0.892322	0.534078	0.060307
C37	C	0.885668	0.615841	0.059857
C38	C	1.028978	0.635150	0.069534
C39	C	1.035630	0.553391	0.069976
C40	C	0.967303	0.502860	0.065368
N41	N	0.913113	0.374168	0.061706
N42	N	0.974111	0.419292	0.065829
N43	N	0.933875	-0.113633	-0.153237
C44	C	0.904784	-0.144323	-0.678832
C45	C	0.908732	-0.140155	-0.591159
C46	C	0.961259	-0.084571	-0.543904
C47	C	1.009836	-0.033148	-0.584326
C48	C	1.005883	-0.037313	-0.671998
C49	C	0.978498	-0.066374	-0.281331
C50	C	0.982449	-0.062215	-0.193653
C51	C	0.881344	-0.169221	-0.200492
C52	C	0.877399	-0.173385	-0.288165
C53	C	0.925973	-0.121958	-0.328580
N54	N	0.965298	-0.080311	-0.454287
N55	N	0.921929	-0.126215	-0.418195
N56	N	0.953358	-0.092905	0.280751
H57	H	0.328117	-0.106771	-0.047584
C58	C	1.039503	-0.001780	-0.142494
C59	C	1.081180	0.042381	-0.196652
C60	C	1.133735	0.098062	-0.149556
H61	H	1.075911	-0.028144	-0.105951
H62	H	1.010466	0.032411	-0.110360
H63	H	1.110215	0.008195	-0.228772
H64	H	1.044792	0.068762	-0.233196
H65	H	1.104698	0.132253	-0.117422
H66	H	1.170138	0.071692	-0.113014
H67	H	1.162014	0.128037	-0.186295
H68	H	0.696977	-0.114922	-0.090234
H69	H	1.062616	0.152199	0.071782
C70	C	0.804244	0.649711	0.054540
C71	C	0.765867	0.627440	0.123404
C72	C	0.690868	0.658637	0.118540
H73	H	0.773610	0.630054	0.004108
H74	H	0.810039	0.705644	0.054974
H75	H	0.760069	0.571518	0.122962
H76	H	0.796478	0.647096	0.173845
H77	H	0.696663	0.714571	0.118974
H78	H	0.660241	0.638978	0.068106
H79	H	0.664823	0.643538	0.165266
H80	H	1.045436	0.004559	-0.704904
H81	H	0.709342	-0.101766	0.185264
C82	C	1.066890	0.027282	-0.533172
C83	C	1.108568	0.071435	-0.587337
C84	C	1.161128	0.127116	-0.540247
H85	H	1.103298	0.000918	-0.496628
H86	H	1.037857	0.061478	-0.501039
H87	H	1.137599	0.037244	-0.619455
H88	H	1.072180	0.097816	-0.623881
H89	H	1.132095	0.161312	-0.508114
H90	H	1.197531	0.100745	-0.503704
H91	H	1.189407	0.157085	-0.576990
H92	H	0.340497	-0.093614	0.227910
C93	C	0.820292	-0.233764	-0.339323
C94	C	0.778584	-0.277892	-0.285163
C95	C	0.725967	-0.333519	-0.332259
H96	H	0.849260	-0.267990	-0.371476
H97	H	0.783911	-0.207333	-0.375849
H98	H	0.814960	-0.304322	-0.248651
H99	H	0.749600	-0.243688	-0.253009
H100	H	0.689586	-0.307088	-0.368785
H101	H	0.754941	-0.367739	-0.364411
H102	H	0.697657	-0.363462	-0.295519
H103	H	0.177889	-0.104787	-0.057738
H104	H	0.546738	-0.112920	-0.100389
C105	C	0.548944	-0.098594	0.195058
C106	C	0.605922	-0.096101	0.265194
C107	C	0.568095	-0.091863	0.338441
H108	H	0.513636	-0.143705	0.195952
H109	H	0.519951	-0.052286	0.196281
H110	H	0.634902	-0.142405	0.263972
H111	H	0.641234	-0.050993	0.264327
H112	H	0.539102	-0.045555	0.339663
H113	H	0.532787	-0.136976	0.339326
H114	H	0.606748	-0.090164	0.386036
H115	H	0.790541	0.265488	0.053431
C116	C	0.180084	-0.090451	0.237706
C117	C	0.237056	-0.087967	0.307847
C118	C	0.199220	-0.083749	0.381089
H119	H	0.144778	-0.135567	0.238587
H120	H	0.151086	-0.044146	0.238937
H121	H	0.266040	-0.134267	0.306617
H122	H	0.272364	-0.042853	0.306994
H123	H	0.170223	-0.037444	0.382319
H124	H	0.163916	-0.128865	0.381961
H125	H	0.237870	-0.082055	0.428688
C126	C	1.069064	0.314281	0.072405
C127	C	1.072664	0.365179	0.144104
C128	C	1.140981	0.415762	0.148915
H129	H	1.067341	0.344341	0.023926
H130	H	1.114694	0.284001	0.075528
H131	H	1.027046	0.395456	0.140974
H132	H	1.074399	0.335141	0.192595
H133	H	1.186611	0.385483	0.152037
H134	H	1.139252	0.445816	0.100432
H135	H	1.143436	0.450298	0.197566
H136	H	1.096687	0.527975	0.074099
H137	H	1.084606	0.676302	0.073287
C138	C	0.783976	0.103563	0.052936
C139	C	0.716884	0.148403	0.048385
C140	C	0.648445	0.098005	0.043718
H141	H	0.785666	0.073568	0.101461
H142	H	0.781366	0.068961	0.004318
H143	H	0.719493	0.182992	0.096998
H144	H	0.715167	0.178397	-0.000138
H145	H	0.645835	0.063403	-0.004900
H146	H	0.650144	0.068012	0.092244
H147	H	0.602915	0.128421	0.040621
C148	C	0.847670	-0.204698	-0.729989
C149	C	0.805960	-0.248819	-0.675825
C150	C	0.753328	-0.304435	-0.722918
H151	H	0.876627	-0.238929	-0.762148
H152	H	0.811292	-0.178259	-0.766510
H153	H	0.842333	-0.275257	-0.639319
H154	H	0.776987	-0.214609	-0.643666
H155	H	0.716950	-0.277996	-0.759439
H156	H	0.782292	-0.338661	-0.755076
H157	H	0.725016	-0.334373	-0.686176
C158	C	0.828738	-0.225080	-0.156496
C159	C	0.876283	-0.270512	-0.103109
C160	C	0.827846	-0.321970	-0.062559
H161	H	0.796875	-0.258851	-0.197101
H162	H	0.795500	-0.195393	-0.124583
H163	H	0.909508	-0.300197	-0.135019
H164	H	0.908146	-0.236763	-0.062488
H165	H	0.794608	-0.292283	-0.030646
H166	H	0.795985	-0.355735	-0.103170
H167	H	0.860098	-0.352797	-0.026325
H168	H	1.018050	-0.024502	-0.314230
C169	C	0.818172	0.479196	0.055472
C170	C	0.821010	0.435129	0.127116
C171	C	0.752708	0.384569	0.122696
H172	H	0.815535	0.444511	0.006929
H173	H	0.772548	0.509481	0.052434
H174	H	0.866622	0.404846	0.130145
H175	H	0.823636	0.469793	0.175670
H176	H	0.707084	0.414855	0.119658
H177	H	0.750077	0.349890	0.074150
H178	H	0.754621	0.354669	0.171308
H179	H	0.869179	-0.182023	-0.558253
