data_functionalizedCrystal
_audit_creation_method	'MofGen! by Chris Wilmer'
_symmetry_space_group_name_H-M	'P1'
_symmetry_Int_Tables_number	1
_symmetry_cell_setting	triclinic
loop_
_symmetry_equiv_pos_as_xyz
  x,y,z
_cell_length_a	15.944551
_cell_length_b	19.188930
_cell_length_c	15.021413
_cell_angle_alpha	89.998889
_cell_angle_beta	89.997174
_cell_angle_gamma	83.321760
loop_
_atom_site_label
_atom_site_type_symbol
_atom_site_fract_x
_atom_site_fract_y
_atom_site_fract_z
O1	O	1.114192	0.090039	-0.073949
O2	O	1.614192	0.590039	0.426051
O3	O	0.869601	0.101141	-0.073973
O4	O	1.369601	0.601141	0.426027
O5	O	0.998955	-0.006048	-0.073943
O6	O	1.498955	0.493952	0.426057
O7	O	0.984838	0.197227	-0.073979
O8	O	1.484838	0.697227	0.426021
O9	O	0.998934	-0.006033	0.074121
O10	O	1.498934	0.493967	0.574121
O11	O	0.869580	0.101156	0.074091
O12	O	1.369580	0.601156	0.574091
O13	O	1.114171	0.090054	0.074115
O14	O	1.614171	0.590054	0.574115
Zn15	Zn	0.991873	0.095607	0.097611
Zn16	Zn	1.491873	0.595607	0.597611
Zn17	Zn	0.991900	0.095587	-0.097470
Zn18	Zn	1.491900	0.595587	0.402530
O19	O	0.984817	0.197242	0.074085
O20	O	1.484817	0.697242	0.574085
C21	C	0.838298	0.100687	0.000056
C22	C	1.338298	0.600687	0.500056
C23	C	0.745057	0.099306	0.000048
C24	C	1.245057	0.599306	0.500048
C25	C	0.530462	0.029563	0.000078
C26	C	1.030462	0.529563	0.500078
C27	C	0.469331	0.061941	-0.072931
C28	C	0.969331	0.561941	0.427069
C29	C	0.574341	0.096806	0.000059
C30	C	1.074341	0.596806	0.500059
C31	C	0.469332	0.061972	0.073048
C32	C	0.969332	0.561972	0.573048
C33	C	0.409437	0.094386	0.000074
C34	C	0.909437	0.594386	0.500074
C35	C	0.514438	0.129203	-0.073010
C36	C	1.014438	0.629203	0.426990
C37	C	0.514446	0.129225	0.073035
C38	C	1.014446	0.629225	0.573035
C39	C	0.453332	0.161652	0.000008
C40	C	0.953332	0.661652	0.500008
C41	C	0.669338	0.098198	0.000050
C42	C	1.169338	0.598198	0.500050
C43	C	0.314441	0.093000	0.000076
C44	C	0.814441	0.593000	0.500076
C45	C	0.998487	-0.032052	0.000091
C46	C	1.498487	0.467948	0.500091
C47	C	0.997115	-0.109560	0.000099
C48	C	1.497115	0.390440	0.500099
C49	C	1.073016	-0.154288	0.000111
C50	C	1.573016	0.345712	0.500111
C51	C	1.071726	-0.227115	0.000096
C52	C	1.571726	0.272885	0.500096
C53	C	0.994532	-0.255211	0.000088
C54	C	1.494532	0.244789	0.500088
C55	C	0.918622	-0.210474	0.000072
C56	C	1.418622	0.289526	0.500072
C57	C	0.919913	-0.137648	0.000077
C58	C	1.419913	0.362352	0.500077
N59	N	0.935519	-0.363364	0.050472
N60	N	1.435519	0.136636	0.550472
N61	N	0.934298	-0.432546	0.050468
N62	N	1.434298	0.067454	0.550468
C63	C	0.990637	-0.474630	0.000070
C64	C	1.490637	0.025370	0.500070
N65	N	1.048256	-0.444921	-0.050314
N66	N	1.548256	0.055079	0.449686
N67	N	1.049480	-0.375733	-0.050307
N68	N	1.549480	0.124267	0.449693
C69	C	0.993123	-0.334178	0.000082
C70	C	1.493123	0.165822	0.500082
C71	C	1.065145	-0.598326	0.000064
C72	C	1.565145	-0.098326	0.500064
C73	C	1.063852	-0.671154	0.000044
C74	C	1.563852	-0.171154	0.500044
C75	C	0.910745	-0.654511	0.000029
C76	C	1.410745	-0.154511	0.500029
C77	C	0.912040	-0.581685	0.000040
C78	C	1.412040	-0.081685	0.500040
C79	C	0.989242	-0.553597	0.000062
C80	C	1.489242	-0.053597	0.500062
C81	C	1.145474	0.090507	0.000083
C82	C	1.645474	0.590507	0.500083
C83	C	1.238715	0.091889	0.000086
C84	C	1.738715	0.591889	0.500086
C85	C	0.985285	0.223247	0.000048
C86	C	1.485285	0.723247	0.500048
C87	C	0.986657	0.300755	0.000035
C88	C	1.486657	0.800755	0.500035
N89	N	0.991860	0.095621	0.230749
N90	N	1.491860	0.595621	0.730749
N91	N	0.991919	0.095568	-0.230607
N92	N	1.491919	0.595568	0.269393
C93	C	0.932038	0.145161	0.470418
C94	C	1.432038	0.645161	0.970418
C95	C	1.007887	0.158716	0.529757
C96	C	1.507887	0.658716	1.029757
C97	C	0.991882	0.095603	0.412356
C98	C	1.491882	0.595603	0.912356
C99	C	0.916053	0.082064	0.529759
C100	C	1.416053	0.582064	1.029759
C101	C	0.991896	0.095588	0.587780
C102	C	1.491896	0.595588	1.087780
C103	C	1.067770	0.109189	0.470388
C104	C	1.567770	0.609189	0.970388
C105	C	0.975885	0.032510	0.470384
C106	C	1.475885	0.532510	0.970384
C107	C	1.051789	0.046038	0.529697
C108	C	1.551789	0.546038	1.029697
C109	C	0.991872	0.095614	0.311299
C110	C	1.491872	0.595614	0.811299
C111	C	0.991914	0.095577	0.688835
C112	C	1.491914	0.595577	1.188835
H113	H	0.449335	0.033494	-0.134646
H114	H	0.949335	0.533494	0.365354
H115	H	0.534328	0.157617	-0.134801
H116	H	1.034328	0.657617	0.365199
C117	C	1.147347	-0.720355	0.000059
C118	C	1.647347	-0.220355	0.500059
H119	H	1.193507	-0.693194	0.000081
H120	H	1.693507	-0.193194	0.500081
H121	H	1.150041	-0.749108	-0.051576
H122	H	1.650041	-0.249108	0.448424
H123	H	1.150011	-0.749112	0.051697
H124	H	1.650011	-0.249112	0.551697
H125	H	0.419965	0.217516	-0.000043
H126	H	0.919965	0.717516	0.499957
C127	C	0.836419	-0.088446	0.000073
C128	C	1.336419	0.411554	0.500073
H129	H	0.790258	-0.115606	0.000070
H130	H	1.290258	0.384394	0.500070
H131	H	0.833747	-0.059684	-0.051555
H132	H	1.333747	0.440316	0.448445
H133	H	0.833735	-0.059698	0.051718
H134	H	1.333735	0.440302	0.551718
H135	H	1.133536	-0.263540	0.000102
H136	H	1.633536	0.236460	0.500102
H137	H	0.962318	-0.020823	0.444285
H138	H	1.462318	0.479177	0.944285
H139	H	0.847892	-0.677386	0.000018
H140	H	1.347892	-0.177386	0.500018
H141	H	0.449344	0.033525	0.134770
H142	H	0.949344	0.533525	0.634770
H143	H	1.021431	0.212066	0.555837
H144	H	1.521431	0.712066	1.055837
C145	C	0.833708	-0.241373	0.000059
C146	C	1.333708	0.258627	0.500059
H147	H	0.788687	-0.204301	0.000045
H148	H	1.288687	0.295699	0.500045
H149	H	0.830010	-0.269439	0.051689
H150	H	1.330010	0.230561	0.551689
H151	H	0.830035	-0.269433	-0.051584
H152	H	1.330035	0.230567	0.448416
H153	H	1.128007	-0.575456	0.000078
H154	H	1.628007	-0.075456	0.500078
H155	H	0.850233	-0.545266	0.000035
H156	H	1.350233	-0.045266	0.500035
C157	C	0.829416	0.066594	0.564980
C158	C	1.329416	0.566594	1.064980
H159	H	0.786961	0.101853	0.544670
H160	H	1.286961	0.601853	1.044670
H161	H	0.830190	0.066271	0.628212
H162	H	1.330190	0.566271	1.128212
H163	H	0.817642	0.022116	0.543765
H164	H	1.317642	0.522116	1.043765
H165	H	0.881481	0.187105	0.444391
H166	H	1.381481	0.687105	0.944391
H167	H	0.534463	0.157649	0.134752
H168	H	1.034463	0.657649	0.634752
C169	C	1.157934	-0.123395	0.000119
C170	C	1.657934	0.376605	0.500119
H171	H	1.202954	-0.160468	0.000115
H172	H	1.702954	0.339532	0.500115
H173	H	1.161618	-0.095331	0.051751
H174	H	1.661618	0.404669	0.551751
H175	H	1.161625	-0.095333	-0.051522
H176	H	1.661625	0.404667	0.448478
C177	C	1.154424	0.124744	0.435313
C178	C	1.654424	0.624744	0.935313
H179	H	1.153880	0.124681	0.372071
H180	H	1.653880	0.624681	0.872071
H181	H	1.196958	0.089746	0.456082
H182	H	1.696958	0.589746	0.956082
H183	H	1.165883	0.169417	0.456137
H184	H	1.665883	0.669417	0.956137
C185	C	1.120234	-0.010588	0.564647
C186	C	1.620234	0.489412	1.064647
H187	H	1.174047	-0.000858	0.544208
H188	H	1.674047	0.499142	1.044208
H189	H	1.109323	-0.055287	0.543419
H190	H	1.609323	0.444713	1.043419
H191	H	1.119567	-0.010539	0.627887
H192	H	1.619567	0.489461	1.127887
H193	H	0.564003	-0.026244	-0.000002
H194	H	1.064003	0.473756	0.499998
