data_functionalizedCrystal
_audit_creation_method	'MofGen! by Chris Wilmer'
_symmetry_space_group_name_H-M	'P1'
_symmetry_Int_Tables_number	1
_symmetry_cell_setting	triclinic
loop_
_symmetry_equiv_pos_as_xyz
  x,y,z
_cell_length_a	19.288862
_cell_length_b	15.995350
_cell_length_c	17.766277
_cell_angle_alpha	89.995404
_cell_angle_beta	89.984775
_cell_angle_gamma	96.686170
loop_
_atom_site_label
_atom_site_type_symbol
_atom_site_fract_x
_atom_site_fract_y
_atom_site_fract_z
O1	O	-0.089534	1.110640	0.062543
O2	O	-0.100590	0.866823	0.062560
O3	O	0.006050	0.995777	0.062532
O4	O	-0.196174	0.981685	0.062571
O5	O	0.006060	0.995781	-0.062657
O6	O	-0.100580	0.866826	-0.062628
O7	O	-0.089524	1.110643	-0.062645
Cu8	Cu	-0.095051	0.988735	-0.074068
Cu9	Cu	-0.095063	0.988731	0.073982
O10	O	-0.196164	0.981688	-0.062617
C11	C	0.031933	0.995326	-0.000066
C12	C	0.109040	0.993966	-0.000075
C13	C	-0.100128	0.835631	-0.000032
C14	C	-0.098758	0.742686	-0.000027
C15	C	0.153540	1.069630	-0.000086
C16	C	0.225990	1.068352	-0.000077
C17	C	0.253938	0.991406	-0.000073
C18	C	0.209428	0.915731	-0.000058
C19	C	0.136979	0.917011	-0.000059
C20	C	0.362386	0.930919	-0.043924
C21	C	0.434834	0.929642	-0.043927
C22	C	0.477394	0.987454	-0.000065
C23	C	0.447499	1.046558	0.043791
C24	C	0.375050	1.047838	0.043789
C25	C	0.332495	0.990009	-0.000071
C26	C	0.600453	1.061739	-0.000065
C27	C	0.672905	1.060458	-0.000052
C28	C	0.656341	0.907834	-0.000040
C29	C	0.583891	0.909117	-0.000046
C30	C	0.555952	0.986072	-0.000062
C31	C	-0.093837	0.404957	-0.000043
C32	C	-0.017889	0.452679	-0.000337
C33	C	-0.019260	0.549364	-0.000050
C34	C	-0.096277	0.572509	-0.000035
C35	C	-0.133743	0.531278	0.071458
C36	C	-0.131835	0.434649	0.071512
C37	C	-0.133392	0.434308	-0.070850
C38	C	-0.133374	0.531254	-0.071790
C39	C	-0.097661	0.667201	-0.000028
C40	C	-0.092455	0.310265	-0.000045
C41	C	0.777953	0.982142	-0.000029
C42	C	0.700847	0.983510	-0.000046
C43	C	-0.089986	1.141834	-0.000051
C44	C	-0.091356	1.234780	-0.000052
N45	N	-0.095067	0.988729	0.178113
N46	N	-0.095041	0.988743	-0.178198
C47	C	-0.047939	1.045931	0.217487
C48	C	-0.047938	1.045939	0.296289
C49	C	-0.095058	0.988729	0.335713
C50	C	-0.142195	0.931522	0.296329
C51	C	-0.142199	0.931522	0.217529
C52	C	-0.104005	0.912438	0.460565
C53	C	-0.103996	0.912437	0.539364
C54	C	-0.095048	0.988729	0.578760
C55	C	-0.086095	1.065026	0.539347
C56	C	-0.086100	1.065026	0.460547
C57	C	-0.095059	0.988723	0.421159
C58	C	-0.047917	1.045944	0.703580
C59	C	-0.047920	1.045953	0.782383
C60	C	-0.142173	0.931529	0.782422
C61	C	-0.142173	0.931528	0.703620
C62	C	-0.095041	0.988735	0.664204
H63	H	0.130797	1.132293	-0.000097
N64	N	0.017702	0.585182	-0.064326
N65	N	0.069903	0.638413	-0.055760
H66	H	0.096013	0.663710	-0.101155
H67	H	-0.107730	0.559749	0.124654
N68	N	0.271447	1.145653	-0.000087
N69	N	0.246492	1.214354	-0.000100
H70	H	0.278593	1.268948	-0.000108
N71	N	0.538421	0.831834	-0.000037
N72	N	0.496132	0.815523	0.052734
H73	H	0.464018	0.760938	0.052743
N74	N	0.344523	1.108212	0.088587
N75	N	0.382523	1.159831	0.127746
H76	H	0.360964	1.202470	0.159387
H77	H	0.012324	0.433198	0.050639
N78	N	0.465360	0.869294	-0.088757
N79	N	0.427356	0.817688	-0.127925
H80	H	0.448913	0.775074	-0.159596
N81	N	0.318925	0.871845	-0.088727
N82	N	0.345623	0.819083	-0.127881
H83	H	0.314930	0.777361	-0.159519
N84	N	-0.097560	0.411820	0.138538
N85	N	-0.035897	0.441775	0.151214
H86	H	-0.011687	0.425657	0.198552
H87	H	0.482150	1.093635	0.079508
N88	N	0.571897	1.140334	-0.000063
N89	N	0.507210	1.141468	-0.000065
H90	H	0.487043	1.196976	-0.000061
H91	H	0.012473	0.434272	-0.051608
H92	H	-0.009541	1.092528	0.671486
H93	H	-0.189388	0.402335	-0.071324
N94	N	0.000215	1.104340	0.177214
N95	N	0.000222	1.104317	0.106858
H96	H	0.034239	1.145557	0.078412
H97	H	-0.189538	0.546407	-0.076098
N98	N	0.718354	1.137760	-0.000052
N99	N	0.693395	1.206458	-0.000064
H100	H	0.725493	1.261055	-0.000064
H101	H	0.679095	0.845183	-0.000032
N102	N	-0.076996	1.142956	0.579592
N103	N	-0.119471	1.195500	0.570798
H104	H	-0.113055	1.250533	0.599228
N105	N	0.237983	0.837139	-0.000046
N106	N	0.302670	0.836006	-0.000046
H107	H	0.322838	0.780498	-0.000034
H108	H	0.100746	0.855394	-0.000051
H109	H	-0.009560	1.092522	0.328354
N110	N	-0.076954	1.142961	0.420300
N111	N	-0.068962	1.211076	0.455475
H112	H	-0.062505	1.266120	0.427051
H113	H	-0.180542	0.884951	0.814521
H114	H	0.010380	0.577332	0.051278
N115	N	-0.113138	0.834499	0.579607
N116	N	-0.121137	0.766388	0.544426
H117	H	-0.127595	0.711341	0.572845
N118	N	0.000194	1.104432	0.822594
N119	N	0.042249	1.155525	0.787388
H120	H	0.076221	1.196841	0.815787
H121	H	-0.187595	0.402190	0.074766
H122	H	-0.190326	0.545189	0.074126
H123	H	-0.180546	0.884945	0.671560
H124	H	-0.108559	0.413868	-0.125040
H125	H	-0.111295	0.850308	0.428495
N126	N	-0.099042	0.565614	-0.138142
N127	N	-0.072603	0.518433	-0.183288
H128	H	-0.048346	0.542699	-0.230146
H129	H	-0.180562	0.884942	0.328433
H130	H	-0.180577	0.884940	0.185470
