data_functionalizedCrystal
_audit_creation_method	'MofGen! by Chris Wilmer'
_symmetry_space_group_name_H-M	'P1'
_symmetry_Int_Tables_number	1
_symmetry_cell_setting	triclinic
loop_
_symmetry_equiv_pos_as_xyz
  x,y,z
_cell_length_a	12.759395
_cell_length_b	12.759394
_cell_length_c	12.759387
_cell_angle_alpha	89.968340
_cell_angle_beta	90.020509
_cell_angle_gamma	89.983626
loop_
_atom_site_label
_atom_site_type_symbol
_atom_site_fract_x
_atom_site_fract_y
_atom_site_fract_z
Zn1	Zn	1.606268	0.418168	0.593999
Zn2	Zn	1.606158	0.593885	0.418317
Zn3	Zn	1.430566	0.418225	0.418336
Zn4	Zn	1.430558	0.593810	0.593956
O5	O	1.518387	0.506022	0.506152
O6	O	1.753274	0.441485	0.570704
O7	O	1.582823	0.570639	0.271298
O8	O	1.453922	0.271197	0.441664
O9	O	1.753194	0.570583	0.441631
O10	O	1.583010	0.271155	0.570723
O11	O	1.453816	0.441582	0.271312
O12	O	1.283544	0.441510	0.441622
O13	O	1.453909	0.570456	0.740983
O14	O	1.283538	0.570511	0.570649
O15	O	1.583002	0.441412	0.741014
O16	O	1.582815	0.740896	0.441590
O17	O	1.453802	0.740841	0.570631
C18	C	1.245420	0.506009	0.506134
C19	C	1.128643	0.506029	0.506151
C20	C	1.518324	0.778990	0.506126
C21	C	1.518393	0.895766	0.506151
C22	C	1.128676	0.640576	0.640290
C23	C	1.073831	0.707857	0.707362
C24	C	0.964109	0.707870	0.707375
C25	C	0.909230	0.640592	0.640310
C26	C	0.964074	0.573310	0.573238
C27	C	1.073799	0.573307	0.573230
C28	C	0.964042	0.438760	0.439106
C29	C	1.073764	0.438751	0.439086
C30	C	0.909162	0.371482	0.372042
C31	C	0.964007	0.304204	0.304962
C32	C	1.073735	0.304195	0.304951
C33	C	1.128608	0.371469	0.372014
C34	C	1.518467	0.505919	0.780185
C35	C	1.518500	0.505875	0.896962
C36	C	1.792421	0.506036	0.506170
C37	C	1.909197	0.506042	0.506178
C38	C	1.518479	0.231989	0.506200
C39	C	1.518518	0.115212	0.506221
C40	C	1.652835	0.895770	0.371881
C41	C	1.720083	0.950633	0.304758
C42	C	1.720145	1.060354	0.304786
C43	C	1.652953	1.115216	0.371947
C44	C	1.585705	1.060353	0.439070
C45	C	1.585648	0.950629	0.439032
C46	C	1.451270	1.060349	0.573343
C47	C	1.451202	0.950628	0.573311
C48	C	1.384079	1.115211	0.640504
C49	C	1.316823	1.060348	0.707623
C50	C	1.316764	0.950620	0.707591
C51	C	1.383954	0.895765	0.640434
C52	C	1.518369	0.506049	0.233184
C53	C	1.518538	0.505797	0.116408
C54	C	1.652934	0.371511	0.897015
C55	C	1.720166	0.304313	0.951902
C56	C	1.720192	0.304275	1.061624
C57	C	1.652976	0.371439	1.116461
C58	C	1.585744	0.438637	1.061574
C59	C	1.585728	0.438671	0.951849
C60	C	1.451307	0.572995	1.061521
C61	C	1.451285	0.573040	0.951799
C62	C	1.384091	0.640159	1.116358
C63	C	1.316863	0.707364	1.061471
C64	C	1.316841	0.707400	0.951742
C65	C	1.384053	0.640238	0.896912
H66	H	1.218017	0.640580	0.640278
H67	H	1.653018	1.204557	0.371973
H68	H	1.383905	0.806424	0.640394
H69	H	1.118526	0.762632	0.761966
O70	O	1.384235	1.221793	0.640705
C71	C	1.411212	1.379140	0.741513
C72	C	1.411100	1.258436	0.741424
H73	H	1.432909	1.408803	0.822942
H74	H	1.470850	1.408987	0.682064
H75	H	1.329877	1.408992	0.719608
H76	H	1.492391	1.228496	0.763356
H77	H	1.351407	1.228661	0.800852
H78	H	0.819821	0.371492	0.372061
O79	O	1.384119	0.640317	1.222941
C80	C	1.411161	0.740984	1.380374
C81	C	1.411143	0.740952	1.259669
H82	H	1.433028	0.822332	1.410106
H83	H	1.329814	0.719228	1.410217
H84	H	1.470730	0.681381	1.410159
H85	H	1.351625	0.800556	1.229794
H86	H	1.492527	0.762661	1.229898
H87	H	1.774890	0.249627	0.907242
O88	O	1.251629	0.772746	1.114622
C89	C	1.200606	0.951441	1.148213
C90	C	1.274532	0.877512	1.087931
H91	H	1.219111	1.036160	1.126673
H92	H	1.115876	0.933077	1.126606
H93	H	1.212149	0.939810	1.236056
H94	H	1.263082	0.889101	1.000075
H95	H	1.359235	0.895893	1.109625
H96	H	0.919455	0.762651	0.761996
O97	O	0.802647	0.640766	0.640425
C98	C	0.645209	0.714556	0.714092
C99	C	0.765913	0.714484	0.714054
H100	H	0.615473	0.774136	0.773630
H101	H	0.615319	0.736320	0.632727
H102	H	0.615475	0.633198	0.735995
H103	H	0.795737	0.795818	0.692196
H104	H	0.795732	0.692662	0.795429
H105	H	0.919315	0.249426	0.250369
H106	H	1.118383	0.249398	0.250340
H107	H	1.217949	0.371471	0.372008
O108	O	1.785250	0.897178	0.239553
C109	C	1.844786	0.728147	0.180035
C110	C	1.770913	0.788548	0.253911
H111	H	1.833236	0.640310	0.191633
H112	H	1.826381	0.749730	0.095288
H113	H	1.929495	0.749698	0.198545
H114	H	1.686179	0.767030	0.235496
H115	H	1.789408	0.766960	0.338636
H116	H	1.652778	0.806429	0.371837
H117	H	1.774909	1.105023	0.250135
O118	O	1.251675	1.113592	0.773008
C119	C	1.200578	1.147010	0.951687
C120	C	1.274441	1.086659	0.877760
H121	H	1.218943	1.125240	1.036393
H122	H	1.212185	1.234866	0.940275
H123	H	1.115862	1.125546	0.933109
H124	H	1.359185	1.108035	0.896292
H125	H	1.262743	0.998818	0.889186
O126	O	1.785597	0.238966	1.114784
C127	C	1.918895	0.105652	1.103270
C128	C	1.844897	0.179577	1.042936
H129	H	1.966842	0.057601	1.045207
H130	H	1.973889	0.153831	1.154607
H131	H	1.870672	0.050743	1.154674
H132	H	1.893034	0.234501	0.991475
H133	H	1.789900	0.131333	0.991665
H134	H	1.652994	0.371393	1.205802
H135	H	1.262006	0.905956	0.762254
H136	H	1.652930	0.371545	0.807674
H137	H	1.262082	0.762110	0.907060
H138	H	1.384046	0.640265	0.807571
