data_functionalizedCrystal
_audit_creation_method	'MofGen! by Chris Wilmer'
_symmetry_space_group_name_H-M	'P1'
_symmetry_Int_Tables_number	1
_symmetry_cell_setting	triclinic
loop_
_symmetry_equiv_pos_as_xyz
  x,y,z
_cell_length_a	19.805407
_cell_length_b	13.897447
_cell_length_c	19.805399
_cell_angle_alpha	90.023747
_cell_angle_beta	90.019573
_cell_angle_gamma	90.019530
loop_
_atom_site_label
_atom_site_type_symbol
_atom_site_fract_x
_atom_site_fract_y
_atom_site_fract_z
Zn1	Zn	1.034768	-0.384037	0.382738
Zn2	Zn	1.034696	-0.545343	0.269557
Zn3	Zn	0.921583	-0.384064	0.269562
Zn4	Zn	0.921560	-0.545292	0.382704
O5	O	0.978152	-0.464684	0.326140
O6	O	1.129475	-0.405445	0.367736
O7	O	1.019671	-0.523982	0.174841
O8	O	0.936636	-0.249079	0.284592
O9	O	1.129423	-0.523956	0.284583
O10	O	1.019793	-0.249059	0.367741
O11	O	0.936567	-0.405490	0.174845
O12	O	0.826863	-0.405441	0.284559
O13	O	0.936597	-0.523869	0.477425
O14	O	0.826846	-0.523894	0.367683
O15	O	1.019771	-0.405395	0.477450
O16	O	1.019649	-0.680318	0.284550
O17	O	0.936528	-0.680280	0.367678
C18	C	0.802296	-0.464666	0.326118
C19	C	0.727064	-0.464681	0.326125
C20	C	0.691729	-0.526453	0.369338
C21	C	0.621040	-0.526454	0.369347
C22	C	0.585688	-0.464688	0.326140
C23	C	0.621028	-0.402910	0.282925
C24	C	0.691715	-0.402904	0.282920
C25	C	0.335955	-0.402931	0.282948
C26	C	0.265263	-0.402944	0.282955
C27	C	0.265280	-0.526481	0.369375
C28	C	0.335967	-0.526476	0.369370
C29	C	0.371301	-0.464694	0.326158
C30	C	0.447949	-0.464692	0.326149
C31	C	0.509041	-0.464695	0.326145
C32	C	0.978097	-0.715298	0.326125
C33	C	0.978135	-0.822512	0.326140
C34	C	0.978168	-0.909582	0.326156
C35	C	0.978215	-1.018815	0.326173
C36	C	1.154694	-0.464703	0.326163
C37	C	1.229926	-0.464711	0.326172
C38	C	0.978190	-0.464623	0.502683
C39	C	0.978206	-0.464597	0.577915
C40	C	0.978225	-0.213091	0.326171
C41	C	0.978257	-0.105877	0.326184
C42	C	0.978153	-0.464675	0.150284
C43	C	0.978268	-0.464429	0.075053
C44	C	1.021515	-0.402905	0.613273
C45	C	1.021522	-0.402877	0.683962
C46	C	0.978223	-0.464547	0.719291
C47	C	0.934908	-0.526242	0.683927
C48	C	0.934899	-0.526264	0.613240
C49	C	0.934947	-0.526152	0.969001
C50	C	0.934961	-0.526127	1.039693
C51	C	1.021570	-0.402765	1.039722
C52	C	1.021560	-0.402787	0.969035
C53	C	0.978244	-0.464478	0.933678
C54	C	0.978236	-0.464507	0.857030
C55	C	0.978234	-0.464524	0.795938
H56	H	0.364715	-0.352632	0.247757
H57	H	0.720507	-0.576753	0.404520
O58	O	0.231000	-0.342983	0.240887
C59	C	0.248232	-0.363946	0.173400
H60	H	0.299548	-0.401017	0.171950
H61	H	0.208431	-0.413498	0.150541
C62	C	0.188473	-0.224298	0.134300
C63	C	0.251503	-0.269823	0.132518
H64	H	0.190488	-0.166240	0.109080
H65	H	0.176861	-0.210177	0.179766
H66	H	0.155312	-0.265602	0.115252
H67	H	0.284661	-0.228525	0.151573
H68	H	0.263121	-0.283935	0.087053
H69	H	0.592239	-0.352615	0.247748
O70	O	0.892936	-0.586211	0.934698
C71	C	0.907681	-0.682346	0.951974
H72	H	0.961759	-0.687233	0.971399
H73	H	0.871399	-0.707527	0.993006
C74	C	0.833326	-0.740743	0.865317
C75	C	0.899748	-0.746746	0.889170
H76	H	0.828431	-0.780469	0.826578
H77	H	0.823390	-0.675975	0.853679
H78	H	0.803099	-0.761726	0.899516
H79	H	0.929973	-0.725752	0.854974
H80	H	0.909690	-0.811512	0.900801
O81	O	0.586820	-0.586562	0.411338
C82	C	0.633181	-0.641068	0.449477
H83	H	0.683557	-0.644338	0.421746
H84	H	0.640724	-0.605858	0.500931
C85	C	0.543707	-0.739739	0.493152
C86	C	0.605579	-0.743762	0.459090
H87	H	0.526681	-0.803084	0.499085
H88	H	0.512473	-0.703015	0.467459
H89	H	0.550002	-0.710392	0.536027
H90	H	0.599282	-0.773097	0.416213
H91	H	0.636812	-0.780494	0.484776
O92	O	0.725938	-0.342874	0.240875
C93	C	0.679579	-0.288344	0.202750
H94	H	0.629182	-0.327852	0.200364
H95	H	0.672088	-0.215131	0.227623
C96	C	0.769038	-0.225786	0.133657
C97	C	0.707141	-0.274314	0.130722
H98	H	0.786040	-0.217126	0.089228
H99	H	0.800272	-0.262520	0.159344
H100	H	0.762787	-0.164780	0.154388
H101	H	0.713394	-0.335323	0.109999
H102	H	0.675909	-0.237589	0.105029
H103	H	0.899625	-0.576490	0.584453
O104	O	0.370202	-0.586505	0.411406
C105	C	0.323856	-0.641045	0.449538
H106	H	0.273475	-0.601546	0.451934
H107	H	0.316314	-0.714259	0.424666
C108	C	0.413350	-0.703587	0.518615
C109	C	0.351473	-0.655071	0.521561
H110	H	0.430386	-0.712244	0.563041
H111	H	0.444575	-0.666846	0.492923
H112	H	0.407057	-0.764594	0.497885
H113	H	0.357768	-0.594061	0.542283
H114	H	0.320250	-0.691802	0.547259
O115	O	1.063684	-0.343011	0.934682
C116	C	1.107368	-0.397931	0.893774
H117	H	1.111547	-0.473894	0.915067
H118	H	1.086421	-0.401277	0.840201
C119	C	1.172604	-0.257492	0.866541
C120	C	1.177741	-0.350788	0.892697
H121	H	1.216012	-0.228410	0.865873
H122	H	1.143172	-0.220490	0.894099
H123	H	1.155145	-0.260293	0.821899
H124	H	1.195191	-0.347985	0.937340
H125	H	1.207178	-0.387788	0.865145
H126	H	0.236502	-0.576783	0.404563
O127	O	1.063599	-0.342908	0.579062
C128	C	1.101837	-0.288467	0.625432
H129	H	1.074121	-0.285110	0.675815
H130	H	1.153234	-0.323793	0.632956
C131	C	1.145660	-0.189939	0.535981
C132	C	1.111616	-0.185809	0.597860
H133	H	1.151695	-0.126615	0.518973
H134	H	1.119901	-0.226618	0.504740
H135	H	1.188487	-0.219381	0.542259
H136	H	1.068787	-0.156378	0.591580
H137	H	1.137368	-0.149122	0.629100
O138	O	0.892750	-0.586046	0.718213
C139	C	0.825294	-0.564979	0.700918
H140	H	0.821896	-0.487925	0.681498
H141	H	0.807581	-0.616702	0.659875
C142	C	0.784302	-0.670823	0.787552
C143	C	0.780127	-0.576181	0.763706
H144	H	0.756439	-0.677737	0.826281
H145	H	0.829747	-0.685020	0.799203
H146	H	0.769542	-0.713915	0.753343
H147	H	0.794895	-0.533092	0.797911
H148	H	0.734683	-0.561977	0.752062
O149	O	0.892992	-0.586138	1.074042
C150	C	0.931515	-0.648418	1.114938
H151	H	0.984817	-0.654393	1.093642
H152	H	0.933868	-0.618578	1.168515
C153	C	0.832948	-0.741348	1.142163
C154	C	0.898413	-0.748693	1.116002
H155	H	0.812528	-0.803201	1.142822
H156	H	0.806993	-0.699387	1.114612
H157	H	0.834918	-0.716478	1.186808
H158	H	0.896441	-0.773550	1.071355
H159	H	0.924366	-0.790660	1.143546
H160	H	1.056791	-0.352644	0.712747
H161	H	1.056838	-0.352530	1.068519
