data_functionalizedCrystal
_audit_creation_method	'MofGen! by Chris Wilmer'
_symmetry_space_group_name_H-M	'P1'
_symmetry_Int_Tables_number	1
_symmetry_cell_setting	triclinic
loop_
_symmetry_equiv_pos_as_xyz
  x,y,z
_cell_length_a	10.489746
_cell_length_b	9.565339
_cell_length_c	16.992695
_cell_angle_alpha	89.999951
_cell_angle_beta	92.395238
_cell_angle_gamma	90.000667
loop_
_atom_site_label
_atom_site_type_symbol
_atom_site_fract_x
_atom_site_fract_y
_atom_site_fract_z
O1	O	1.703680	0.116167	-0.110702
O2	O	2.203680	0.616167	0.389298
O3	O	1.333389	0.116191	-0.121088
O4	O	1.833389	0.616191	0.378912
O5	O	1.517050	0.116168	-0.001744
O6	O	2.017050	0.616168	0.498256
O7	O	1.520019	0.116190	-0.230046
O8	O	2.020019	0.616190	0.269954
O9	O	1.517035	-0.116352	-0.001751
O10	O	2.017035	0.383648	0.498249
O11	O	1.333374	-0.116329	-0.121095
O12	O	1.833374	0.383671	0.378905
O13	O	1.703665	-0.116353	-0.110710
O14	O	2.203665	0.383647	0.389290
Zn15	Zn	1.518517	-0.153259	-0.115904
Zn16	Zn	2.018517	0.346741	0.384096
Zn17	Zn	1.518537	0.153097	-0.115894
Zn18	Zn	2.018537	0.653097	0.384106
O19	O	1.520004	-0.116330	-0.230054
O20	O	2.020004	0.383670	0.269946
C21	C	1.285781	-0.000066	-0.120306
C22	C	1.785781	0.499934	0.379694
C23	C	1.143948	-0.000058	-0.117957
C24	C	1.643948	0.499942	0.382043
C25	C	0.984363	-0.000085	-0.040631
C26	C	1.484363	0.499915	0.459369
C27	C	1.065113	-0.114722	-0.079295
C28	C	1.565113	0.385278	0.420705
C29	C	1.065084	0.114525	-0.079305
C30	C	1.565084	0.614525	0.420695
C31	C	0.971988	-0.114824	-0.152474
C32	C	1.471988	0.385176	0.347526
C33	C	0.971953	0.114526	-0.152474
C34	C	1.471953	0.614526	0.347526
C35	C	1.052658	-0.000139	-0.191191
C36	C	1.552658	0.499861	0.308809
N37	N	1.518513	-0.362338	-0.115910
N38	N	2.018513	0.137662	0.384090
C39	C	1.433547	-0.453531	-0.171084
C40	C	1.933547	0.046469	0.328916
C41	C	1.550425	-0.546715	-0.186960
C42	C	2.050425	-0.046715	0.313040
C43	C	1.401686	-0.546709	-0.100040
C44	C	1.901686	-0.046709	0.399960
C45	C	1.635453	-0.453471	-0.131822
C46	C	2.135453	0.046529	0.368178
C47	C	1.486635	-0.453456	-0.044871
C48	C	1.986635	0.046544	0.455129
C49	C	1.603593	-0.546599	-0.060717
C50	C	2.103593	-0.046599	0.439283
C51	C	1.751272	-0.000093	-0.111491
C52	C	2.251272	0.499907	0.388509
C53	C	1.893106	-0.000092	-0.113841
C54	C	2.393106	0.499908	0.386159
C55	C	1.513223	-0.000092	0.027486
C56	C	2.013223	0.499908	0.527486
C57	C	1.501828	-0.000091	0.114595
C58	C	2.001828	0.499909	0.614595
N59	N	1.518550	0.362176	-0.115882
N60	N	2.018550	0.862176	0.384118
C61	C	1.523830	-0.000067	-0.259284
C62	C	2.023830	0.499933	0.240716
C63	C	1.535226	-0.000059	-0.346393
C64	C	2.035226	0.499941	0.153607
C65	C	1.611777	-0.000099	0.164213
C66	C	2.111777	0.499901	0.664213
C67	C	1.601062	-0.000085	0.246061
C68	C	2.101062	0.499915	0.746061
C69	C	1.480397	-0.000073	0.278288
C70	C	1.980397	0.499927	0.778288
C71	C	1.370440	-0.000060	0.228663
C72	C	1.870440	0.499940	0.728663
C73	C	1.381156	-0.000064	0.146817
C74	C	1.881156	0.499936	0.646817
C75	C	1.435984	-0.000051	0.522137
C76	C	1.935984	0.499949	1.022137
C77	C	1.425277	-0.000051	0.603989
C78	C	1.925277	0.499949	1.103989
C79	C	1.655900	-0.000073	0.621381
C80	C	2.155900	0.499927	1.121381
C81	C	1.666606	-0.000086	0.539533
C82	C	2.166606	0.499914	1.039533
C83	C	1.556648	-0.000066	0.489915
C84	C	2.056648	0.499934	0.989915
N85	N	1.469442	-0.000063	0.361949
N86	N	1.969442	0.499937	0.861949
N87	N	1.567604	-0.000065	0.406256
N88	N	2.067604	0.499935	0.906256
H89	H	1.082677	-0.000196	-0.254897
H90	H	1.582677	0.499804	0.245103
H91	H	1.675546	-0.587206	-0.014044
H92	H	2.175546	-0.087206	0.485956
H93	H	1.734296	-0.412688	-0.145304
H94	H	2.234296	0.087312	0.354696
H95	H	0.931145	0.211456	-0.183348
H96	H	1.431145	0.711456	0.316652
H97	H	1.105843	0.211444	-0.048383
H98	H	1.605843	0.711444	0.451617
H99	H	1.302872	-0.587668	-0.086630
H100	H	1.802872	-0.087668	0.413370
H101	H	1.459613	-0.412461	0.015174
H102	H	1.959613	0.087539	0.515174
H103	H	1.710035	-0.000118	0.137981
H104	H	2.210035	0.499882	0.637981
H105	H	1.690595	-0.000095	0.286457
H106	H	2.190595	0.499905	0.786457
H107	H	1.764864	-0.000096	0.513300
H108	H	2.264864	0.499904	1.013300
H109	H	1.745421	-0.000087	0.661788
H110	H	2.245421	0.499913	1.161788
H111	H	0.931389	-0.211853	-0.183361
H112	H	1.431389	0.288147	0.316639
H113	H	1.327012	-0.000063	0.630225
H114	H	1.827012	0.499937	1.130225
H115	H	1.272192	-0.000041	0.254909
H116	H	1.772192	0.499959	0.754909
H117	H	1.361767	-0.412667	-0.217786
H118	H	1.861767	0.087333	0.282214
H119	H	1.346448	-0.000035	0.481748
H120	H	1.846448	0.499965	0.981748
H121	H	0.954104	-0.000207	0.023027
H122	H	1.454104	0.499793	0.523027
H123	H	1.105894	-0.211648	-0.048393
H124	H	1.605894	0.288352	0.451607
H125	H	1.577413	-0.587678	-0.247024
H126	H	2.077413	-0.087678	0.252976
H127	H	1.291623	-0.000057	0.106418
H128	H	1.791623	0.499943	0.606418
