data_functionalizedCrystal
_audit_creation_method	'MofGen! by Chris Wilmer'
_symmetry_space_group_name_H-M	'P1'
_symmetry_Int_Tables_number	1
_symmetry_cell_setting	triclinic
loop_
_symmetry_equiv_pos_as_xyz
  x,y,z
_cell_length_a	23.532409
_cell_length_b	17.038272
_cell_length_c	16.098546
_cell_angle_alpha	92.921539
_cell_angle_beta	87.278796
_cell_angle_gamma	86.980558
loop_
_atom_site_label
_atom_site_type_symbol
_atom_site_fract_x
_atom_site_fract_y
_atom_site_fract_z
O1	O	0.121240	1.039956	0.069213
O2	O	0.621240	1.539956	0.569213
O3	O	0.119277	0.812340	0.069223
O4	O	0.619277	1.312340	0.569223
O5	O	0.037687	0.933011	0.069219
O6	O	0.537687	1.433011	0.569219
O7	O	0.202829	0.919285	0.069217
O8	O	0.702829	1.419285	0.569217
O9	O	0.042453	0.925989	-0.069294
O10	O	0.542453	1.425989	0.430706
O11	O	0.124042	0.805318	-0.069290
O12	O	0.624042	1.305318	0.430710
O13	O	0.126006	1.032934	-0.069299
O14	O	0.626006	1.532934	0.430701
Zn15	Zn	0.125781	0.918011	-0.091286
Zn16	Zn	0.625781	1.418011	0.408714
Zn17	Zn	0.119502	0.927263	0.091210
Zn18	Zn	0.619502	1.427263	0.591210
O19	O	0.207595	0.912263	-0.069295
O20	O	0.707595	1.412263	0.430705
C21	C	0.018836	0.929151	-0.000035
C22	C	0.518836	1.429151	0.499965
C23	C	-0.044437	0.928099	-0.000029
C24	C	0.455563	1.428099	0.499971
C25	C	0.119874	0.779714	-0.000032
C26	C	0.619874	1.279714	0.499968
C27	C	0.114547	0.692961	-0.000029
C28	C	0.614547	1.192961	0.499971
C29	C	0.125408	1.065560	-0.000042
C30	C	0.625408	1.565560	0.499958
C31	C	0.130735	1.152314	-0.000040
C32	C	0.630735	1.652314	0.499960
C33	C	-0.320515	0.927455	0.075478
C34	C	0.179485	1.427455	0.575478
C35	C	-0.261063	0.928431	0.075478
C36	C	0.238937	1.428431	0.575478
O37	O	-0.232520	0.932219	0.139688
O38	O	0.267480	1.432219	0.639688
N39	N	-0.228738	0.925087	-0.000027
N40	N	0.271262	1.425087	0.499973
C41	C	-0.255867	0.920774	-0.075536
C42	C	0.244133	1.420774	0.424464
O43	O	-0.222913	0.918019	-0.139758
O44	O	0.277087	1.418019	0.360242
C45	C	-0.315318	0.919803	-0.075535
C46	C	0.184682	1.419803	0.424465
C47	C	-0.347640	0.923139	-0.000026
C48	C	0.152360	1.423139	0.499974
C49	C	-0.352837	0.930792	0.150981
C50	C	0.147163	1.430792	0.650981
C51	C	-0.412284	0.929814	0.150981
C52	C	0.087716	1.429814	0.650981
C53	C	-0.439409	0.925499	0.075477
C54	C	0.060591	1.425499	0.575477
C55	C	-0.407088	0.922161	-0.000026
C56	C	0.092912	1.422161	0.499974
C57	C	-0.342447	0.915495	-0.151044
C58	C	0.157553	1.415495	0.348956
C59	C	-0.401902	0.914525	-0.151037
C60	C	0.098098	1.414525	0.348963
C61	C	-0.434224	0.917862	-0.075527
C62	C	0.065776	1.417862	0.424473
C63	C	-0.493660	0.916868	-0.075531
C64	C	0.006340	1.416868	0.424469
N65	N	-0.525986	0.920212	-0.000026
N66	N	-0.025986	1.420212	0.499974
C67	C	-0.498860	0.924528	0.075478
C68	C	0.001140	1.424528	0.575478
C69	C	-0.131017	0.922814	-0.075532
C70	C	0.368983	1.422814	0.424468
C71	C	-0.071567	0.923780	-0.075534
C72	C	0.428433	1.423780	0.424466
C73	C	-0.076767	0.931439	0.075481
C74	C	0.423233	1.431439	0.575481
C75	C	-0.136218	0.930468	0.075482
C76	C	0.363782	1.430468	0.575482
C77	C	-0.163342	0.926159	-0.000027
C78	C	0.336658	1.426159	0.499973
C79	C	-0.623704	0.922473	0.075471
C80	C	-0.123704	1.422473	0.575471
C81	C	-0.683156	0.921491	0.075464
C82	C	-0.183156	1.421491	0.575464
C83	C	-0.677951	0.913836	-0.075550
C84	C	-0.177951	1.413836	0.424450
C85	C	-0.618504	0.914814	-0.075543
C86	C	-0.118504	1.414814	0.424457
C87	C	-0.591382	0.919135	-0.000026
C88	C	-0.091382	1.419135	0.499974
O89	O	-0.522243	0.913085	-0.139708
O90	O	-0.022243	1.413085	0.360292
O91	O	-0.531822	0.927292	0.139689
O92	O	-0.031822	1.427292	0.639689
C93	C	0.226446	0.916124	-0.000039
C94	C	0.726446	1.416124	0.499961
C95	C	0.289719	0.917176	-0.000040
C96	C	0.789719	1.417176	0.499960
N97	N	0.130066	0.911703	-0.215835
N98	N	0.630066	1.411703	0.284165
C99	C	0.081830	1.202790	-0.000037
C100	C	0.581830	1.702790	0.499963
C101	C	0.086838	1.284303	-0.000040
C102	C	0.586838	1.784303	0.499960
C103	C	0.140752	1.315339	-0.000041
C104	C	0.640752	1.815339	0.499959
C105	C	0.189660	1.264857	-0.000046
C106	C	0.689660	1.764857	0.499954
C107	C	0.184652	1.183345	-0.000049
C108	C	0.684652	1.683345	0.499951
C109	C	0.158447	1.560966	-0.000037
C110	C	0.658447	2.060966	0.499963
C111	C	0.163452	1.642485	-0.000032
C112	C	0.663452	2.142485	0.499968
C113	C	0.060630	1.661926	-0.000027
C114	C	0.560630	2.161926	0.499973
C115	C	0.055625	1.580412	-0.000025
C116	C	0.555625	2.080412	0.499975
C117	C	0.104534	1.529936	-0.000035
C118	C	0.604534	2.029936	0.499965
C119	C	0.145872	1.398659	-0.000041
C120	C	0.645872	1.898659	0.499959
C121	C	0.099413	1.446618	-0.000041
C122	C	0.599413	1.946618	0.499959
C123	C	0.149832	0.882348	-0.740653
C124	C	0.649832	1.382348	-0.240653
C125	C	0.146846	0.886778	-0.653465
C126	C	0.646846	1.386778	-0.153465
C127	C	0.109243	0.942442	-0.609865
C128	C	0.609243	1.442442	-0.109865
C129	C	0.074619	0.993674	-0.653459
C130	C	0.574619	1.493674	-0.153459
C131	C	0.077602	0.989240	-0.740647
C132	C	0.577602	1.489240	-0.240647
C133	C	0.098425	0.958501	-0.346616
C134	C	0.598425	1.458501	0.153384
C135	C	0.095446	0.962933	-0.259423
C136	C	0.595446	1.462933	0.240577
C137	C	0.167673	0.856035	-0.259434
C138	C	0.667673	1.356035	0.240566
C139	C	0.170655	0.851609	-0.346623
C140	C	0.670655	1.351609	0.153377
C141	C	0.136029	0.902838	-0.390210
C142	C	0.636029	1.402838	0.109790
C143	C	0.106191	0.946973	-0.520745
C144	C	0.606191	1.446973	-0.020745
C145	C	0.139079	0.898303	-0.479329
C146	C	0.639079	1.398303	0.020671
N147	N	0.115212	0.933578	0.215759
N148	N	0.615212	1.433578	0.715759
H149	H	-0.709470	0.924205	0.136955
H150	H	-0.209470	1.424205	0.636955
F151	F	0.220837	1.675513	-0.000033
F152	F	0.720837	2.175513	0.499967
F153	F	0.042036	1.413585	-0.000045
F154	F	0.542036	1.913585	0.499955
H155	H	0.169693	0.852979	-0.514830
H156	H	0.669693	1.352979	-0.014830
H157	H	0.201275	0.806283	-0.382120
H158	H	0.701275	1.306283	0.117880
F159	F	-0.594847	0.927072	0.155845
F160	F	-0.094847	1.427072	0.655845
F161	F	0.024447	1.169767	-0.000033
F162	F	0.524447	1.669767	0.499967
F163	F	-0.323977	0.935387	0.231350
F164	F	0.176023	1.435387	0.731350
F165	F	0.236703	1.129624	-0.000057
F166	F	0.736703	1.629624	0.499943
H167	H	0.075574	0.992297	-0.485239
H168	H	0.575574	1.492297	0.014761
H169	H	-0.162531	0.933183	0.136968
H170	H	0.337469	1.433183	0.636968
H171	H	-0.045254	0.921048	-0.137021
H172	H	0.454746	1.421048	0.362979
H173	H	0.011723	1.555149	-0.000025
H174	H	0.511723	2.055149	0.499975
F175	F	0.203250	1.431697	-0.000034
F176	F	0.703250	1.931697	0.499966
H177	H	0.175036	0.845062	-0.617976
H178	H	0.675036	1.345062	-0.117976
H179	H	-0.316140	0.912786	-0.212532
H180	H	0.183860	1.412786	0.287468
H181	H	0.233558	1.290132	-0.000052
H182	H	0.733558	1.790132	0.499948
F183	F	-0.159879	0.918220	-0.155904
F184	F	0.340121	1.418220	0.344096
H185	H	-0.423983	0.911017	-0.212527
H186	H	0.076017	1.411017	0.287473
F187	F	0.204521	0.801515	-0.213041
F188	F	0.704521	1.301515	0.286959
F189	F	0.210501	1.507257	-0.000039
F190	F	0.710501	2.007257	0.499961
H191	H	0.043998	1.038994	-0.617956
H192	H	0.543998	1.538994	-0.117956
H193	H	0.047015	1.325398	-0.000041
H194	H	0.547015	1.825398	0.499959
H195	H	0.180456	0.837024	-0.776146
H196	H	0.680456	1.337024	-0.276146
H197	H	0.070232	1.000215	-0.382098
H198	H	0.570232	1.500215	0.117902
H199	H	-0.438596	0.932537	0.212468
H200	H	0.061404	1.432537	0.712468
H201	H	-0.054671	0.934950	0.136960
H202	H	0.445329	1.434950	0.636960
H203	H	-0.592184	0.912066	-0.137029
H204	H	-0.092184	1.412066	0.362971
H205	H	0.049410	1.030956	-0.776135
H206	H	0.549410	1.530956	-0.276135
F207	F	-0.706830	0.909238	-0.155902
F208	F	-0.206830	1.409238	0.344098
H209	H	0.064823	1.008264	-0.223929
H210	H	0.564823	1.508264	0.276071
F211	F	0.008581	1.715651	-0.000021
F212	F	0.508581	2.215651	0.499979
