data_functionalizedCrystal
_audit_creation_method	'MofGen! by Chris Wilmer'
_symmetry_space_group_name_H-M	'P1'
_symmetry_Int_Tables_number	1
_symmetry_cell_setting	triclinic
loop_
_symmetry_equiv_pos_as_xyz
  x,y,z
_cell_length_a	11.169417
_cell_length_b	19.120786
_cell_length_c	11.169409
_cell_angle_alpha	87.520717
_cell_angle_beta	89.980487
_cell_angle_gamma	92.466524
loop_
_atom_site_label
_atom_site_type_symbol
_atom_site_fract_x
_atom_site_fract_y
_atom_site_fract_z
Zn1	Zn	1.814457	-0.279552	-0.658094
Zn2	Zn	2.147790	0.053781	-0.324760
Zn3	Zn	2.481123	0.387114	0.008573
Zn4	Zn	1.805729	-0.397034	-0.448821
Zn5	Zn	2.139062	-0.063700	-0.115488
Zn6	Zn	2.472395	0.269633	0.217846
Zn7	Zn	1.613739	-0.279596	-0.457426
Zn8	Zn	1.947073	0.053738	-0.124093
Zn9	Zn	2.280406	0.387071	0.209241
Zn10	Zn	1.605137	-0.396977	-0.649471
Zn11	Zn	1.938470	-0.063644	-0.316138
Zn12	Zn	2.271803	0.269689	0.017196
O13	O	1.709765	-0.338290	-0.553453
O14	O	2.043099	-0.004956	-0.220120
O15	O	2.376432	0.328377	0.113214
O16	O	1.981248	-0.295142	-0.630341
O17	O	2.314582	0.038192	-0.297007
O18	O	2.647915	0.371525	0.036326
O19	O	1.780208	-0.381497	-0.282010
O20	O	2.113542	-0.048164	0.051324
O21	O	2.446875	0.285169	0.384657
O22	O	1.647618	-0.181299	-0.491255
O23	O	1.980951	0.152034	-0.157921
O24	O	2.314285	0.485368	0.175412
O25	O	1.974836	-0.381455	-0.476589
O26	O	2.308169	-0.048122	-0.143256
O27	O	2.641502	0.285212	0.190078
O28	O	1.795084	-0.181267	-0.638684
O29	O	2.128417	0.152066	-0.305351
O30	O	2.461751	0.485400	0.027982
O31	O	1.639155	-0.295216	-0.288332
O32	O	1.972488	0.038117	0.045002
O33	O	2.305821	0.371451	0.378335
O34	O	1.444649	-0.295161	-0.482894
O35	O	1.777982	0.038172	-0.149560
O36	O	2.111316	0.371505	0.183773
O37	O	1.632956	-0.381359	-0.818568
O38	O	1.966289	-0.048026	-0.485235
O39	O	2.299623	0.285308	-0.151901
O40	O	1.438329	-0.381401	-0.623989
O41	O	1.771662	-0.048068	-0.290655
O42	O	2.104995	0.285266	0.042678
O43	O	1.786742	-0.295087	-0.824903
O44	O	2.120076	0.038246	-0.491569
O45	O	2.453409	0.371580	-0.158236
O46	O	1.771867	-0.495317	-0.468228
O47	O	2.105200	-0.161984	-0.134895
O48	O	2.438533	0.171349	0.198439
O49	O	1.624493	-0.495276	-0.615645
O50	O	1.957826	-0.161943	-0.282311
O51	O	2.291159	0.171391	0.051022
C52	C	1.397941	-0.338280	-0.553440
C53	C	1.731275	-0.004947	-0.220107
C54	C	2.064608	0.328386	0.113227
C55	C	1.264540	-0.338293	-0.553462
C56	C	1.597874	-0.004960	-0.220128
C57	C	1.931207	0.328373	0.113205
C58	C	1.696332	-0.520782	-0.540093
C59	C	2.029665	-0.187449	-0.206760
C60	C	2.362998	0.145884	0.126574
C61	C	1.690695	-0.598854	-0.534418
C62	C	2.024028	-0.265520	-0.201085
C63	C	2.357361	0.067813	0.132249
C64	C	1.764767	-0.635455	-0.608573
C65	C	2.098100	-0.302121	-0.275239
C66	C	2.431433	0.031212	0.058094
C67	C	1.759465	-0.708811	-0.603242
C68	C	2.092798	-0.375477	-0.269909
C69	C	2.426132	-0.042144	0.063424
C70	C	1.680097	-0.745565	-0.523750
C71	C	2.013430	-0.412231	-0.190417
C72	C	2.346763	-0.078898	0.142916
C73	C	1.606016	-0.708958	-0.449592
C74	C	1.939350	-0.375625	-0.116259
C75	C	2.272683	-0.042292	0.217074
C76	C	1.611313	-0.635604	-0.454930
C77	C	1.944646	-0.302270	-0.121596
C78	C	2.277979	0.031063	0.211737
C79	C	1.660261	-0.967052	-0.503797
C80	C	1.993595	-0.633719	-0.170464
C81	C	2.326928	-0.300386	0.162869
C82	C	1.654973	-1.040412	-0.498463
C83	C	1.988306	-0.707079	-0.165130
C84	C	2.321640	-0.373746	0.168204
C85	C	1.808421	-1.040259	-0.652115
C86	C	2.141754	-0.706926	-0.318782
C87	C	2.475088	-0.373593	0.014551
C88	C	1.813715	-0.966903	-0.657440
C89	C	2.147049	-0.633570	-0.324107
C90	C	2.480382	-0.300237	0.009226
C91	C	1.739631	-0.930304	-0.583287
C92	C	2.072964	-0.596970	-0.249954
C93	C	2.406297	-0.263637	0.083380
C94	C	1.674678	-0.820546	-0.518297
C95	C	2.008012	-0.487213	-0.184964
C96	C	2.341345	-0.153880	0.148370
C97	C	1.745044	-0.855323	-0.588747
C98	C	2.078377	-0.521990	-0.255414
C99	C	2.411710	-0.188657	0.077920
C100	C	2.022807	-0.338300	-0.553467
C101	C	2.356140	-0.004966	-0.220133
C102	C	2.689474	0.328367	0.113200
C103	C	2.156207	-0.338304	-0.553473
C104	C	2.489540	-0.004971	-0.220139
C105	C	2.822873	0.328363	0.113194
C106	C	1.709863	-0.338212	-0.866501
C107	C	2.043197	-0.004878	-0.533168
C108	C	2.376530	0.328455	-0.199835
C109	C	1.709905	-0.338179	-0.999904
C110	C	2.043238	-0.004845	-0.666570
C111	C	2.376572	0.328488	-0.333237
C112	C	1.723284	-0.155084	-0.566891
C113	C	2.056618	0.178249	-0.233558
C114	C	2.389951	0.511582	0.099775
C115	C	1.729045	-0.077013	-0.572618
C116	C	2.062378	0.256320	-0.239284
C117	C	2.395712	0.589653	0.094049
C118	C	1.709741	-0.338317	-0.241626
C119	C	2.043074	-0.004983	0.091707
C120	C	2.376407	0.328350	0.425040
C121	C	1.709946	-0.338152	-0.108239
C122	C	2.043279	-0.004819	0.225094
C123	C	2.376613	0.328515	0.558428
H124	H	1.829402	-0.605534	-0.673298
H125	H	2.162736	-0.272201	-0.339965
H126	H	2.496069	0.061132	-0.006632
H127	H	1.541388	-0.738889	-0.384873
H128	H	1.874721	-0.405556	-0.051540
H129	H	2.208054	-0.072223	0.281794
H130	H	1.590336	-1.070335	-0.433730
H131	H	1.923669	-0.737002	-0.100397
H132	H	2.257003	-0.403669	0.232937
N133	N	1.593644	-0.858112	-0.437089
N134	N	1.926977	-0.524779	-0.103756
N135	N	2.260311	-0.191445	0.229578
N136	N	1.632990	-0.899061	-0.357693
N137	N	1.966324	-0.565728	-0.024360
N138	N	2.299657	-0.232395	0.308974
H139	H	1.575765	-0.925599	-0.300340
H140	H	1.909098	-0.592266	0.032993
H141	H	2.242432	-0.258933	0.366327
N142	N	1.584563	-0.929684	-0.428063
N143	N	1.917896	-0.596350	-0.094730
N144	N	2.251230	-0.263017	0.238603
N145	N	1.473221	-0.937948	-0.435344
N146	N	1.806555	-0.604615	-0.102011
N147	N	2.139888	-0.271282	0.231322
H148	H	1.419749	-0.911558	-0.381854
H149	H	1.753082	-0.578225	-0.048521
H150	H	2.086415	-0.244891	0.284812
H151	H	1.550994	-0.605804	-0.394546
H152	H	1.884327	-0.272471	-0.061213
H153	H	2.217660	0.060863	0.272120
N154	N	1.826122	-0.817774	-0.669924
N155	N	2.159456	-0.484441	-0.336591
N156	N	2.492789	-0.151107	-0.003257
N157	N	1.905568	-0.776821	-0.630722
N158	N	2.238902	-0.443487	-0.297388
N159	N	2.572235	-0.110154	0.035945
H160	H	1.962836	-0.750296	-0.688048
H161	H	2.296170	-0.416962	-0.354714
H162	H	2.629503	-0.083629	-0.021381
H163	H	1.819792	-0.738608	-0.663618
H164	H	2.153125	-0.405275	-0.330285
H165	H	2.486458	-0.071941	0.003049
N166	N	1.894842	-0.929390	-0.738622
N167	N	2.228175	-0.596057	-0.405289
N168	N	2.561508	-0.262723	-0.071955
N169	N	2.004990	-0.937566	-0.730116
N170	N	2.338324	-0.604232	-0.396783
N171	N	2.671657	-0.270899	-0.063449
H172	H	2.062307	-0.911082	-0.787446
H173	H	2.395640	-0.577748	-0.454112
H174	H	2.728974	-0.244415	-0.120779
N175	N	1.884085	-1.077656	-0.727846
N176	N	2.217418	-0.744323	-0.394513
N177	N	2.550751	-0.410990	-0.061180
N178	N	1.879352	-1.143151	-0.723073
N179	N	2.212685	-0.809818	-0.389740
N180	N	2.546018	-0.476484	-0.056406
H181	H	1.932790	-1.169564	-0.776563
H182	H	2.266124	-0.836230	-0.443230
H183	H	2.599457	-0.502897	-0.109896
