data_functionalizedCrystal
_audit_creation_method	'MofGen! by Chris Wilmer'
_symmetry_space_group_name_H-M	'P1'
_symmetry_Int_Tables_number	1
_symmetry_cell_setting	triclinic
loop_
_symmetry_equiv_pos_as_xyz
  x,y,z
_cell_length_a	14.519731
_cell_length_b	11.792241
_cell_length_c	10.868271
_cell_angle_alpha	90.000107
_cell_angle_beta	89.993880
_cell_angle_gamma	96.058865
loop_
_atom_site_label
_atom_site_type_symbol
_atom_site_fract_x
_atom_site_fract_y
_atom_site_fract_z
O1	O	0.126403	-1.506220	-0.102206
O2	O	0.626403	-1.006220	0.397794
O3	O	0.139430	-1.175807	-0.102235
O4	O	0.639430	-0.675807	0.397765
O5	O	-0.001288	-1.349761	-0.102208
O6	O	0.498712	-0.849761	0.397792
O7	O	0.267122	-1.332266	-0.102232
O8	O	0.767122	-0.832266	0.397768
O9	O	-0.001294	-1.349747	0.102436
O10	O	0.498706	-0.849747	0.602436
O11	O	0.139425	-1.175793	0.102410
O12	O	0.639425	-0.675793	0.602410
O13	O	0.126398	-1.506205	0.102439
O14	O	0.626398	-1.006205	0.602439
Zn15	Zn	0.132910	-1.340997	0.134916
Zn16	Zn	0.632910	-0.840997	0.634916
Zn17	Zn	0.132918	-1.341016	-0.134712
Zn18	Zn	0.632918	-0.841016	0.365288
O19	O	0.267116	-1.332251	0.102412
O20	O	0.767116	-0.832251	0.602412
C21	C	0.138609	-1.133514	0.000084
C22	C	0.638609	-0.633514	0.500084
C23	C	0.136160	-1.007513	0.000073
C24	C	0.636160	-0.507513	0.500073
C25	C	-0.035654	-1.348934	0.000114
C26	C	0.464346	-0.848934	0.500114
C27	C	-0.138043	-1.346478	0.000115
C28	C	0.361957	-0.846478	0.500115
C29	C	0.127219	-1.548499	0.000117
C30	C	0.627219	-1.048499	0.500117
C31	C	0.129668	-1.674499	0.000120
C32	C	0.629668	-1.174499	0.500120
C33	C	-0.221194	-1.344482	0.000112
C34	C	0.278806	-0.844482	0.500112
C35	C	-0.325512	-1.341988	0.000102
C36	C	0.174488	-0.841988	0.500102
C37	C	-0.408658	-1.340008	0.000094
C38	C	0.091342	-0.840008	0.500094
C39	C	-0.512983	-1.337514	0.000087
C40	C	-0.012983	-0.837514	0.500087
C41	C	0.301482	-1.333078	0.000087
C42	C	0.801482	-0.833078	0.500087
C43	C	0.403871	-1.335535	0.000079
C44	C	0.903871	-0.835535	0.500079
N45	N	0.132905	-1.340992	0.318930
N46	N	0.632905	-0.840992	0.818930
C47	C	0.131656	-0.776826	0.000109
C48	C	0.631656	-0.276826	0.500109
C49	C	0.134159	-0.905197	0.000089
C50	C	0.634159	-0.405197	0.500089
N51	N	0.132916	-1.341029	-0.318726
N52	N	0.632916	-0.841029	0.181274
C53	C	0.132916	-1.341010	0.569936
C54	C	0.632916	-0.841010	1.069936
C55	C	0.132912	-1.340996	0.430259
C56	C	0.632912	-0.840996	0.930259
