data_functionalizedCrystal
_audit_creation_method	'MofGen! by Chris Wilmer'
_symmetry_space_group_name_H-M	'P1'
_symmetry_Int_Tables_number	1
_symmetry_cell_setting	triclinic
loop_
_symmetry_equiv_pos_as_xyz
  x,y,z
_cell_length_a	19.288864
_cell_length_b	9.730223
_cell_length_c	10.654550
_cell_angle_alpha	90.004253
_cell_angle_beta	83.810588
_cell_angle_gamma	90.017135
loop_
_atom_site_label
_atom_site_type_symbol
_atom_site_fract_x
_atom_site_fract_y
_atom_site_fract_z
O1	O	0.922373	0.114731	0.156654
O2	O	0.720251	0.114637	0.177787
O3	O	0.825959	0.114677	-0.015618
O4	O	0.816665	0.114690	0.350059
O5	O	0.825952	-0.113903	-0.015623
O6	O	0.720244	-0.113943	0.177782
O7	O	0.922366	-0.113849	0.156649
Zn8	Zn	0.821304	-0.150188	0.167215
Zn9	Zn	0.821313	0.150976	0.167222
O10	O	0.816658	-0.113890	0.350054
C11	C	0.694366	0.000335	0.177105
C12	C	0.617249	0.000299	0.175063
N13	N	0.821303	-0.355725	0.167209
C14	C	0.868126	-0.427633	0.081605
C15	C	0.868133	-0.571515	0.081606
C16	C	0.774491	-0.571570	0.252825
C17	C	0.774481	-0.427689	0.252818
C18	C	0.573296	0.000324	0.288545
C19	C	0.500836	0.000339	0.286627
C20	C	0.472333	0.000357	0.171222
C21	C	0.516296	0.000323	0.057725
C22	C	0.588754	0.000294	0.059646
C23	C	0.363480	0.080481	0.080502
C24	C	0.291023	0.080519	0.078586
C25	C	0.248849	0.000439	0.165292
C26	C	0.279140	-0.079659	0.253936
C27	C	0.351598	-0.079688	0.255857
C28	C	0.393766	0.000387	0.169126
C29	C	0.126326	0.000480	0.276702
C30	C	0.053865	0.000486	0.274779
C31	C	0.069327	0.000484	0.045875
C32	C	0.141786	0.000463	0.047800
C33	C	0.170281	0.000468	0.163217
C34	C	0.948250	0.000456	0.157332
C35	C	1.025367	0.000501	0.159373
C36	C	0.825273	0.000388	-0.062404
C37	C	0.823231	0.000389	-0.201803
N38	N	0.821319	0.356512	0.167217
C39	C	0.885471	0.000418	-0.282621
C40	C	0.883548	0.000434	-0.413601
C41	C	0.757141	0.000385	-0.382932
C42	C	0.759065	0.000379	-0.251955
C43	C	0.817344	0.000403	0.396840
C44	C	0.819385	0.000411	0.536240
H45	H	0.906251	-0.369042	0.011896
Br46	Br	0.441174	0.000366	0.440648
Br47	Br	0.972553	0.000430	-0.214562
Br48	Br	0.968020	0.000482	-0.523279
H49	H	0.704899	0.000375	-0.423782
Br50	Br	0.249920	0.189241	-0.041699
Br51	Br	0.674590	0.000358	-0.142263
Br52	Br	0.931679	-0.669103	-0.034582
Br53	Br	0.710950	-0.669241	0.369006
H54	H	0.149528	0.000463	0.370681
Br55	Br	0.710925	-0.330088	0.368993
Br56	Br	0.611965	0.000328	0.445181
H57	H	0.376257	-0.144912	0.328030
Br58	Br	0.221913	-0.188342	0.371622
Br59	Br	0.030652	0.000484	-0.110750
H60	H	0.018079	0.000499	0.367194
Br61	Br	0.201441	0.000432	-0.106219
Br62	Br	0.420709	0.189166	-0.037185
Br63	Br	0.477616	0.000332	-0.098898
H64	H	0.624542	0.000274	-0.032767
