data_functionalizedCrystal
_audit_creation_method	'MofGen! by Chris Wilmer'
_symmetry_space_group_name_H-M	'P1'
_symmetry_Int_Tables_number	1
_symmetry_cell_setting	triclinic
loop_
_symmetry_equiv_pos_as_xyz
  x,y,z
_cell_length_a	11.792241
_cell_length_b	19.288865
_cell_length_c	17.766277
_cell_angle_alpha	89.988397
_cell_angle_beta	89.994854
_cell_angle_gamma	83.664832
loop_
_atom_site_label
_atom_site_type_symbol
_atom_site_fract_x
_atom_site_fract_y
_atom_site_fract_z
O1	O	1.505473	0.095201	-0.062531
O2	O	1.174983	0.105012	-0.062549
O3	O	1.349777	-0.000970	-0.062524
O4	O	1.330678	0.201183	-0.062555
O5	O	1.349747	-0.000975	0.062664
O6	O	1.174952	0.105007	0.062639
O7	O	1.505442	0.095195	0.062658
Cu8	Cu	1.340194	0.100100	0.074079
Cu9	Cu	1.340230	0.100107	-0.073971
O10	O	1.330647	0.201177	0.062633
C11	C	1.349147	-0.026852	0.000072
C12	C	1.347303	-0.103966	0.000079
C13	C	1.132686	0.104393	0.000043
C14	C	1.006700	0.102548	0.000037
C15	C	1.449864	-0.148080	0.000088
C16	C	1.448131	-0.220537	0.000076
C17	C	1.343830	-0.248877	0.000070
C18	C	1.241255	-0.204754	0.000056
C19	C	1.242992	-0.132298	0.000060
C20	C	1.261827	-0.357632	0.043916
C21	C	1.260096	-0.430086	0.043916
C22	C	1.338472	-0.472353	0.000053
C23	C	1.418599	-0.442158	-0.043802
C24	C	1.420335	-0.369703	-0.043797
C25	C	1.341936	-0.327442	0.000064
C26	C	1.439161	-0.595033	0.000048
C27	C	1.437423	-0.667491	0.000031
C28	C	1.230545	-0.651706	0.000019
C29	C	1.232285	-0.579250	0.000028
C30	C	1.336596	-0.550918	0.000046
C31	C	0.776039	0.099156	0.000059
C32	C	0.904396	0.101041	0.000047
C33	C	1.547739	0.095814	0.000064
C34	C	1.673725	0.097659	0.000066
C35	C	1.331277	0.227060	0.000035
C36	C	1.333122	0.304174	0.000024
N37	N	1.340177	0.100095	0.178210
N38	N	1.340257	0.100107	-0.178101
C39	C	1.417601	0.053190	0.217608
C40	C	1.417607	0.053187	0.296409
C41	C	1.340201	0.100101	0.335810
C42	C	1.262763	0.147010	0.296403
C43	C	1.262751	0.147007	0.217603
C44	C	1.325007	0.163302	0.460638
C45	C	1.325027	0.163306	0.539437
C46	C	1.340231	0.100110	0.578857
C47	C	1.355440	0.036907	0.539468
C48	C	1.355428	0.036904	0.460667
C49	C	1.340205	0.100109	0.421256
C50	C	1.417667	0.053197	0.703700
C51	C	1.417665	0.053193	0.782504
C52	C	1.262826	0.147022	0.782496
C53	C	1.262822	0.147020	0.703694
C54	C	1.340248	0.100108	0.664301
H55	H	1.534802	-0.125017	0.000100
C56	C	1.177589	0.198610	0.174263
H57	H	1.131491	0.226554	0.209012
H58	H	1.130475	0.173431	0.143532
H59	H	1.218271	0.227694	0.143515
C60	C	1.372139	-0.032612	0.417340
H61	H	1.381352	-0.070250	0.452095
H62	H	1.438128	-0.033705	0.386507
H63	H	1.307223	-0.036772	0.386695
H64	H	1.148769	-0.543331	0.000024
H65	H	1.159471	-0.096380	0.000053
C66	C	1.175607	-0.311145	0.092168
H67	H	1.127651	-0.339505	0.118292
H68	H	1.130465	-0.279377	0.060549
H69	H	1.215521	-0.285883	0.127443
H70	H	1.485575	-0.345121	-0.079506
H71	H	1.480709	0.014996	0.671625
C72	C	1.126528	-0.235925	0.000052
H73	H	1.140183	-0.285395	0.000058
H74	H	1.084322	-0.220800	-0.043606
H75	H	1.084305	-0.220816	0.043711
C76	C	1.115813	-0.682868	0.000009
H77	H	1.054978	-0.646215	0.000001
H78	H	1.110821	-0.710817	0.043661
H79	H	1.110850	-0.710792	-0.043657
H80	H	1.194847	-0.454665	0.079620
C81	C	1.177621	0.198616	0.339740
H82	H	1.188724	0.191905	0.392314
H83	H	1.101915	0.190761	0.326841
H84	H	1.189710	0.245025	0.326810
H85	H	1.312650	0.214770	0.571501
C86	C	1.504811	-0.488641	-0.092059
H87	H	1.492295	-0.536116	-0.085791
H88	H	1.580184	-0.482503	-0.076636
H89	H	1.495122	-0.475988	-0.143527
H90	H	1.480657	0.014989	0.328493
C91	C	1.560952	-0.269071	0.000092
H92	H	1.623323	-0.241820	0.000108
H93	H	1.564593	-0.297658	-0.043563
H94	H	1.564551	-0.297669	0.043754
H95	H	1.524097	-0.571964	0.000059
C96	C	1.177666	0.198624	0.660354
H97	H	1.131572	0.226569	0.695104
H98	H	1.130550	0.173445	0.629625
H99	H	1.218347	0.227707	0.629604
C100	C	1.502838	0.001595	0.825842
H101	H	1.548953	-0.026337	0.791092
H102	H	1.462177	-0.027490	0.856594
H103	H	1.549951	0.026786	0.856568
C104	C	1.308274	0.232821	0.417280
H105	H	1.310431	0.223768	0.364709
H106	H	1.367484	0.260286	0.430177
H107	H	1.236561	0.257291	0.430199
H108	H	1.520945	-0.703409	0.000035
C109	C	1.177679	0.198627	0.825827
H110	H	1.188778	0.191914	0.878401
H111	H	1.101975	0.190772	0.812924
H112	H	1.189770	0.245036	0.812899
C113	C	1.502754	0.001582	0.174279
H114	H	1.548859	-0.026359	0.209034
H115	H	1.549862	0.026758	0.143523
H116	H	1.462066	-0.027505	0.143557
C117	C	1.372156	-0.032614	0.582818
H118	H	1.369971	-0.023563	0.635390
H119	H	1.443859	-0.057090	0.569906
H120	H	1.312933	-0.060071	0.569914
