data_functionalizedCrystal
_audit_creation_method	'MofGen! by Chris Wilmer'
_symmetry_space_group_name_H-M	'P1'
_symmetry_Int_Tables_number	1
_symmetry_cell_setting	triclinic
loop_
_symmetry_equiv_pos_as_xyz
  x,y,z
_cell_length_a	21.295418
_cell_length_b	21.295417
_cell_length_c	21.295411
_cell_angle_alpha	90.020597
_cell_angle_beta	90.043738
_cell_angle_gamma	90.045515
loop_
_atom_site_label
_atom_site_type_symbol
_atom_site_fract_x
_atom_site_fract_y
_atom_site_fract_z
Zn1	Zn	0.962359	-0.250415	0.356238
Zn2	Zn	1.212359	-0.000415	0.606238
Zn3	Zn	1.462359	0.249585	0.856238
Zn4	Zn	1.712359	0.499585	1.106238
Zn5	Zn	0.962263	-0.355667	0.250965
Zn6	Zn	1.212263	-0.105667	0.500965
Zn7	Zn	1.462263	0.144333	0.750965
Zn8	Zn	1.712263	0.394333	1.000965
Zn9	Zn	0.857082	-0.250445	0.250948
Zn10	Zn	1.107082	-0.000445	0.500948
Zn11	Zn	1.357082	0.249555	0.750948
Zn12	Zn	1.607082	0.499555	1.000948
Zn13	Zn	0.857053	-0.355680	0.356162
Zn14	Zn	1.107053	-0.105680	0.606162
Zn15	Zn	1.357053	0.144320	0.856162
Zn16	Zn	1.607053	0.394320	1.106162
O17	O	0.909690	-0.303052	0.303578
O18	O	1.159690	-0.053052	0.553578
O19	O	1.409690	0.196948	0.803578
O20	O	1.659690	0.446948	1.053578
O21	O	1.050436	-0.264360	0.342313
O22	O	1.300436	-0.014360	0.592313
O23	O	1.550436	0.235640	0.842313
O24	O	1.800436	0.485640	1.092313
O25	O	0.948283	-0.341716	0.162874
O26	O	1.198283	-0.091716	0.412874
O27	O	1.448283	0.158284	0.662874
O28	O	1.698283	0.408284	0.912874
O29	O	0.871100	-0.162351	0.264940
O30	O	1.121100	0.087649	0.514940
O31	O	1.371100	0.337649	0.764940
O32	O	1.621100	0.587649	1.014940
O33	O	1.050365	-0.341688	0.264969
O34	O	1.300365	-0.091688	0.514969
O35	O	1.550365	0.158312	0.764969
O36	O	1.800365	0.408312	1.014969
O37	O	0.948447	-0.162330	0.342296
O38	O	1.198447	0.087670	0.592296
O39	O	1.448447	0.337670	0.842296
O40	O	1.698447	0.587670	1.092296
O41	O	0.871007	-0.264410	0.162861
O42	O	1.121007	-0.014410	0.412861
O43	O	1.371007	0.235590	0.662861
O44	O	1.621007	0.485590	0.912861
O45	O	0.768989	-0.264422	0.264866
O46	O	1.018989	-0.014422	0.514866
O47	O	1.268989	0.235578	0.764866
O48	O	1.518989	0.485578	1.014866
O49	O	0.871050	-0.341709	0.444262
O50	O	1.121050	-0.091709	0.694262
O51	O	1.371050	0.158291	0.944262
O52	O	1.621050	0.408291	1.194262
O53	O	0.768968	-0.341738	0.342166
O54	O	1.018968	-0.091738	0.592166
O55	O	1.268968	0.158262	0.842166
O56	O	1.518968	0.408262	1.092166
O57	O	0.948418	-0.264372	0.444318
O58	O	1.198418	-0.014372	0.694318
O59	O	1.448418	0.235628	0.944318
O60	O	1.698418	0.485628	1.194318
O61	O	0.948254	-0.443758	0.264895
O62	O	1.198254	-0.193758	0.514895
O63	O	1.448254	0.056242	0.764895
O64	O	1.698254	0.306242	1.014895
O65	O	0.870957	-0.443767	0.342183
O66	O	1.120957	-0.193767	0.592183
O67	O	1.370957	0.056233	0.842183
O68	O	1.620957	0.306233	1.092183
C69	C	0.746138	-0.303085	0.303506
C70	C	0.996138	-0.053085	0.553506
C71	C	1.246138	0.196915	0.803506
C72	C	1.496138	0.446915	1.053506
C73	C	0.676170	-0.303114	0.303490
C74	C	0.926170	-0.053114	0.553490
C75	C	1.176170	0.196886	0.803490
C76	C	1.426170	0.446886	1.053490
C77	C	0.643308	-0.343426	0.343680
C78	C	0.893308	-0.093426	0.593680
C79	C	1.143308	0.156574	0.843680
C80	C	1.393308	0.406574	1.093680
C81	C	0.577566	-0.343410	0.343708
C82	C	0.827566	-0.093410	0.593708
C83	C	1.077566	0.156590	0.843708
C84	C	1.327566	0.406590	1.093708
C85	C	0.544687	-0.303090	0.303535
C86	C	0.794687	-0.053090	0.553535
C87	C	1.044687	0.196910	0.803535
C88	C	1.294687	0.446910	1.053535
C89	C	0.577557	-0.262770	0.263342
C90	C	0.827557	-0.012770	0.513342
C91	C	1.077557	0.237230	0.763342
C92	C	1.327557	0.487230	1.013342
C93	C	0.643298	-0.262783	0.263320
C94	C	0.893298	-0.012783	0.513320
C95	C	1.143298	0.237217	0.763320
C96	C	1.393298	0.487217	1.013320
N97	N	0.441411	-0.298163	0.248477
N98	N	0.691411	-0.048163	0.498477
N99	N	0.941411	0.201837	0.748477
N100	N	1.191411	0.451837	0.998477
N101	N	0.378960	-0.298155	0.248501
N102	N	0.628960	-0.048155	0.498501
N103	N	0.878960	0.201845	0.748501
N104	N	1.128960	0.451845	0.998501
C105	C	0.346613	-0.303050	0.303602
C106	C	0.596613	-0.053050	0.553602
C107	C	0.846613	0.196950	0.803602
C108	C	1.096613	0.446950	1.053602
N109	N	0.379076	-0.307965	0.358680
N110	N	0.629076	-0.057965	0.608680
N111	N	0.879076	0.192035	0.858680
N112	N	1.129076	0.442035	1.108680
N113	N	0.441533	-0.307976	0.358656
N114	N	0.691533	-0.057976	0.608656
N115	N	0.941533	0.192024	0.858656
N116	N	1.191533	0.442024	1.108656
C117	C	0.473402	-0.303072	0.303556
C118	C	0.723402	-0.053072	0.553556
C119	C	0.973402	0.196928	0.803556
C120	C	1.223402	0.446928	1.053556
C121	C	0.242466	-0.343346	0.343826
C122	C	0.492466	-0.093346	0.593826
C123	C	0.742466	0.156654	0.843826
C124	C	0.992466	0.406654	1.093826
C125	C	0.176722	-0.343326	0.343855
C126	C	0.426722	-0.093326	0.593855
C127	C	0.676722	0.156674	0.843855
C128	C	0.926722	0.406674	1.093855
C129	C	0.176714	-0.262690	0.263484
C130	C	0.426714	-0.012690	0.513484
C131	C	0.676714	0.237310	0.763484
C132	C	0.926714	0.487310	1.013484
C133	C	0.242456	-0.262707	0.263460
C134	C	0.492456	-0.012707	0.513460
C135	C	0.742456	0.237293	0.763460
C136	C	0.992456	0.487293	1.013460
C137	C	0.275328	-0.303038	0.303630
C138	C	0.525328	-0.053038	0.553630
C139	C	0.775328	0.196962	0.803630
C140	C	1.025328	0.446962	1.053630
C141	C	0.909609	-0.466603	0.303547
C142	C	1.159609	-0.216603	0.553547
C143	C	1.409609	0.033397	0.803547
C144	C	1.659609	0.283397	1.053547
C145	C	0.909633	-0.536571	0.303554
C146	C	1.159633	-0.286571	0.553554
C147	C	1.409633	-0.036571	0.803554
C148	C	1.659633	0.213429	1.053554
C149	C	0.949884	-0.569370	0.343862
C150	C	1.199884	-0.319370	0.593862
C151	C	1.449884	-0.069370	0.843862
C152	C	1.699884	0.180630	1.093862
C153	C	0.949906	-0.635112	0.343878
C154	C	1.199906	-0.385112	0.593878
C155	C	1.449906	-0.135112	0.843878
C156	C	1.699906	0.114888	1.093878
C157	C	0.909684	-0.668054	0.303574
C158	C	1.159684	-0.418054	0.553574
C159	C	1.409684	-0.168054	0.803574
C160	C	1.659684	0.081946	1.053574
C161	C	0.869425	-0.635248	0.263263
C162	C	1.119425	-0.385248	0.513263
C163	C	1.369425	-0.135248	0.763263
C164	C	1.619425	0.114752	1.013263
C165	C	0.869399	-0.569507	0.263253
C166	C	1.119399	-0.319507	0.513253
C167	C	1.369399	-0.069507	0.763253
C168	C	1.619399	0.180493	1.013253
N169	N	0.904924	-0.771307	0.248481
N170	N	1.154924	-0.521307	0.498481
N171	N	1.404924	-0.271307	0.748481
N172	N	1.654924	-0.021307	0.998481
N173	N	0.904952	-0.833759	0.248492
N174	N	1.154952	-0.583759	0.498492
N175	N	1.404952	-0.333759	0.748492
N176	N	1.654952	-0.083759	0.998492
C177	C	0.909757	-0.866129	0.303602
C178	C	1.159757	-0.616129	0.553602
C179	C	1.409757	-0.366129	0.803602
C180	C	1.659757	-0.116129	1.053602
N181	N	0.914546	-0.833687	0.358702
N182	N	1.164546	-0.583687	0.608702
N183	N	1.414546	-0.333687	0.858702
N184	N	1.664546	-0.083687	1.108702
N185	N	0.914521	-0.771230	0.358690
N186	N	1.164521	-0.521230	0.608690
N187	N	1.414521	-0.271230	0.858690
N188	N	1.664521	-0.021230	1.108690
C189	C	0.909707	-0.739339	0.303580
C190	C	1.159707	-0.489339	0.553580
C191	C	1.409707	-0.239339	0.803580
C192	C	1.659707	0.010661	1.053580
C193	C	0.950035	-0.970212	0.343931
C194	C	1.200035	-0.720212	0.593931
C195	C	1.450035	-0.470212	0.843931
C196	C	1.700035	-0.220212	1.093931
C197	C	0.950052	-1.035956	0.343947
C198	C	1.200052	-0.785956	0.593947
C199	C	1.450052	-0.535956	0.843947
C200	C	1.700052	-0.285956	1.093947
C201	C	0.869574	-1.036090	0.263327
C202	C	1.119574	-0.786090	0.513327
C203	C	1.369574	-0.536090	0.763327
C204	C	1.619574	-0.286090	1.013327
C205	C	0.869553	-0.970348	0.263316
C206	C	1.119553	-0.720348	0.513316
C207	C	1.369553	-0.470348	0.763316
C208	C	1.619553	-0.220348	1.013316
C209	C	0.909787	-0.937413	0.303617
C210	C	1.159787	-0.687413	0.553617
C211	C	1.409787	-0.437413	0.803617
C212	C	1.659787	-0.187413	1.053617
C213	C	1.073880	-0.303019	0.303652
C214	C	1.323880	-0.053019	0.553652
C215	C	1.573880	0.196981	0.803652
C216	C	1.823880	0.446981	1.053652
C217	C	1.143848	-0.303005	0.303683
C218	C	1.393848	-0.053005	0.553683
C219	C	1.643848	0.196995	0.803683
C220	C	1.893848	0.446995	1.053683
C221	C	0.909742	-0.303038	0.467769
C222	C	1.159742	-0.053038	0.717769
C223	C	1.409742	0.196962	0.967769
C224	C	1.659742	0.446962	1.217769
C225	C	0.909764	-0.303033	0.537737
C226	C	1.159764	-0.053033	0.787737
C227	C	1.409764	0.196967	1.037737
C228	C	1.659764	0.446967	1.287737
C229	C	0.909787	-0.138861	0.303624
C230	C	1.159787	0.111139	0.553624
C231	C	1.409787	0.361139	0.803624
C232	C	1.659787	0.611139	1.053624
C233	C	0.909829	-0.068893	0.303644
C234	C	1.159829	0.181107	0.553644
C235	C	1.409829	0.431107	0.803644
C236	C	1.659829	0.681107	1.053644
C237	C	0.909674	-0.303019	0.140027
C238	C	1.159674	-0.053019	0.390027
C239	C	1.409674	0.196981	0.640027
C240	C	1.659674	0.446981	0.890027
C241	C	0.909774	-0.302848	0.070059
C242	C	1.159774	-0.052848	0.320059
C243	C	1.409774	0.197152	0.570059
C244	C	1.659774	0.447152	0.820059
C245	C	0.950048	-0.262761	0.570634
C246	C	1.200048	-0.012761	0.820634
C247	C	1.450048	0.237239	1.070634
C248	C	1.700048	0.487239	1.320634
C249	C	0.950047	-0.262734	0.636376
C250	C	1.200047	-0.012734	0.886376
C251	C	1.450047	0.237266	1.136376
C252	C	1.700047	0.487266	1.386376
C253	C	0.909769	-0.302989	0.669219
C254	C	1.159769	-0.052989	0.919219
C255	C	1.409769	0.197011	1.169219
C256	C	1.659769	0.447011	1.419219
C257	C	0.869477	-0.343263	0.636315
C258	C	1.119477	-0.093263	0.886315
C259	C	1.369477	0.156737	1.136315
C260	C	1.619477	0.406737	1.386315
C261	C	0.869475	-0.343285	0.570573
C262	C	1.119475	-0.093285	0.820573
C263	C	1.369475	0.156715	1.070573
C264	C	1.619475	0.406715	1.320573
N265	N	0.904913	-0.358058	0.772434
N266	N	1.154913	-0.108058	1.022434
N267	N	1.404913	0.141942	1.272434
N268	N	1.654913	0.391942	1.522434
N269	N	0.904919	-0.358036	0.834886
N270	N	1.154919	-0.108036	1.084886
N271	N	1.404919	0.141964	1.334886
N272	N	1.654919	0.391964	1.584886
C273	C	0.909773	-0.302926	0.867294
C274	C	1.159773	-0.052926	1.117294
C275	C	1.409773	0.197074	1.367294
C276	C	1.659773	0.447074	1.617294
N277	N	0.914633	-0.247837	0.834892
N278	N	1.164633	0.002163	1.084892
N279	N	1.414633	0.252163	1.334892
N280	N	1.664633	0.502163	1.584892
N281	N	0.914630	-0.247860	0.772435
N282	N	1.164630	0.002140	1.022435
N283	N	1.414630	0.252140	1.272435
N284	N	1.664630	0.502140	1.522435
C285	C	0.909767	-0.302970	0.740505
C286	C	1.159767	-0.052970	0.990505
C287	C	1.409767	0.197030	1.240505
C288	C	1.659767	0.447030	1.490505
C289	C	0.950058	-0.262621	0.971477
C290	C	1.200058	-0.012621	1.221477
C291	C	1.450058	0.237379	1.471477
C292	C	1.700058	0.487379	1.721477
C293	C	0.950053	-0.262593	1.037220
C294	C	1.200053	-0.012593	1.287220
C295	C	1.450053	0.237407	1.537220
C296	C	1.700053	0.487407	1.787220
C297	C	0.869486	-0.343128	1.037158
C298	C	1.119486	-0.093128	1.287158
C299	C	1.369486	0.156872	1.537158
C300	C	1.619486	0.406872	1.787158
C301	C	0.869488	-0.343151	0.971415
C302	C	1.119488	-0.093151	1.221415
C303	C	1.369488	0.156849	1.471415
C304	C	1.619488	0.406849	1.721415
C305	C	0.909777	-0.302898	0.938579
C306	C	1.159777	-0.052898	1.188579
C307	C	1.409777	0.197102	1.438579
C308	C	1.659777	0.447102	1.688579
H309	H	0.670053	-0.229954	0.230592
H310	H	0.920053	0.020046	0.480592
H311	H	1.170053	0.270046	0.730592
H312	H	1.420053	0.520046	0.980592
N313	N	0.826040	-0.386541	1.072576
N314	N	1.076040	-0.136541	1.322576
N315	N	1.326040	0.113459	1.572576
N316	N	1.576040	0.363459	1.822576
H317	H	0.851604	-0.415699	1.099872
H318	H	1.101604	-0.165699	1.349872
H319	H	1.351604	0.084301	1.599872
H320	H	1.601604	0.334301	1.849872
H321	H	0.800528	-0.412017	1.041720
H322	H	1.050528	-0.162017	1.291720
H323	H	1.300528	0.087983	1.541720
H324	H	1.550528	0.337983	1.791720
H325	H	0.550783	-0.229940	0.230634
H326	H	0.800783	0.020060	0.480634
H327	H	1.050783	0.270060	0.730634
H328	H	1.300783	0.520060	0.980634
N329	N	0.826148	-0.934970	0.219829
N330	N	1.076148	-0.684970	0.469829
N331	N	1.326148	-0.434970	0.719829
N332	N	1.576148	-0.184970	0.969829
H333	H	0.832236	-0.888325	0.225938
H334	H	1.082236	-0.638325	0.475938
H335	H	1.332236	-0.388325	0.725938
H336	H	1.582236	-0.138325	0.975938
H337	H	0.781189	-0.946508	0.229570
H338	H	1.031189	-0.696508	0.479570
H339	H	1.281189	-0.446508	0.729570
H340	H	1.531189	-0.196508	0.979570
H341	H	0.670069	-0.376266	0.376391
H342	H	0.920069	-0.126266	0.626391
H343	H	1.170069	0.123734	0.876391
H344	H	1.420069	0.373734	1.126391
N345	N	0.277927	-0.386842	0.387151
N346	N	0.527927	-0.136842	0.637151
N347	N	0.777927	0.113158	0.887151
N348	N	1.027927	0.363158	1.137151
H349	H	0.247130	-0.412374	0.412621
H350	H	0.497130	-0.162374	0.662621
H351	H	0.747130	0.087626	0.912621
H352	H	0.997130	0.337626	1.162621
H353	H	0.305263	-0.361267	0.416318
H354	H	0.555263	-0.111267	0.666318
H355	H	0.805263	0.138733	0.916318
H356	H	1.055263	0.388733	1.166318
H357	H	0.982830	-1.062659	0.376774
H358	H	1.232830	-0.812659	0.626774
H359	H	1.482830	-0.562659	0.876774
H360	H	1.732830	-0.312659	1.126774
H361	H	0.550805	-0.376236	0.376438
H362	H	0.800805	-0.126236	0.626438
H363	H	1.050805	0.123764	0.876438
H364	H	1.300805	0.373764	1.126438
H365	H	0.149945	-0.229857	0.230777
H366	H	0.399945	0.020143	0.480777
H367	H	0.649945	0.270143	0.730777
H368	H	0.899945	0.520143	0.980777
H369	H	0.836820	-1.062911	0.230515
H370	H	1.086820	-0.812911	0.480515
H371	H	1.336820	-0.562911	0.730515
H372	H	1.586820	-0.312911	0.980515
H373	H	0.149968	-0.376152	0.376587
H374	H	0.399968	-0.126152	0.626587
H375	H	0.649968	0.123848	0.876587
H376	H	0.899968	0.373848	1.126587
N377	N	0.826029	-0.386576	0.935928
N378	N	1.076029	-0.136576	1.185928
N379	N	1.326029	0.113424	1.435928
N380	N	1.576029	0.363424	1.685928
H381	H	0.800508	-0.412071	0.966708
H382	H	1.050508	-0.162071	1.216708
H383	H	1.300508	0.087929	1.466708
H384	H	1.550508	0.337929	1.716708
H385	H	0.851622	-0.415716	0.908663
H386	H	1.101622	-0.165716	1.158663
H387	H	1.351622	0.084284	1.408663
H388	H	1.601622	0.334284	1.658663
N389	N	0.993508	-0.219158	1.072703
N390	N	1.243508	0.030842	1.322703
N391	N	1.493508	0.280842	1.572703
N392	N	1.743508	0.530842	1.822703
H393	H	0.987396	-0.225249	1.119333
H394	H	1.237396	0.024751	1.369333
H395	H	1.487396	0.274751	1.619333
H396	H	1.737396	0.524751	1.869333
H397	H	0.983743	-0.174205	1.061205
H398	H	1.233743	0.075795	1.311205
H399	H	1.483743	0.325795	1.561205
H400	H	1.733743	0.575795	1.811205
H401	H	0.982678	-0.661822	0.376709
H402	H	1.232678	-0.411822	0.626709
H403	H	1.482678	-0.161822	0.876709
H404	H	1.732678	0.088178	1.126709
N405	N	0.277902	-0.219237	0.220101
N406	N	0.527902	0.030763	0.470101
N407	N	0.777902	0.280763	0.720101
N408	N	1.027902	0.530763	0.970101
H409	H	0.324538	-0.225363	0.226181
H410	H	0.574538	0.024637	0.476181
H411	H	0.824538	0.274637	0.726181
H412	H	1.074538	0.524637	0.976181
H413	H	0.266468	-0.174291	0.229982
H414	H	0.516468	0.075709	0.479982
H415	H	0.766468	0.325709	0.729982
H416	H	1.016468	0.575709	0.979982
H417	H	0.836621	-0.542802	0.230429
H418	H	1.086621	-0.292802	0.480429
H419	H	1.336621	-0.042802	0.730429
H420	H	1.586621	0.207198	0.980429
N421	N	0.826042	-0.670773	0.219791
N422	N	1.076042	-0.420773	0.469791
N423	N	1.326042	-0.170773	0.719791
N424	N	1.576042	0.079227	0.969791
H425	H	0.832168	-0.717397	0.225911
H426	H	1.082168	-0.467397	0.475911
H427	H	1.332168	-0.217397	0.725911
H428	H	1.582168	0.032603	0.975911
H429	H	0.835859	-0.659290	0.174845
H430	H	1.085859	-0.409290	0.424845
H431	H	1.335859	-0.159290	0.674845
H432	H	1.585859	0.090710	0.924845
H433	H	0.982849	-0.229937	0.663166
H434	H	1.232849	0.020063	0.913166
H435	H	1.482849	0.270063	1.163166
H436	H	1.732849	0.520063	1.413166
N437	N	0.993272	-0.533847	0.387332
N438	N	1.243272	-0.283847	0.637332
N439	N	1.493272	-0.033847	0.887332
N440	N	1.743272	0.216153	1.137332
H441	H	1.018773	-0.564604	0.412871
H442	H	1.268773	-0.314604	0.662871
H443	H	1.518773	-0.064604	0.912871
H444	H	1.768773	0.185396	1.162871
H445	H	0.967621	-0.506588	0.416428
H446	H	1.217621	-0.256588	0.666428
H447	H	1.467621	-0.006588	0.916428
H448	H	1.717621	0.243412	1.166428
N449	N	0.993425	-0.934683	0.387397
N450	N	1.243425	-0.684683	0.637397
N451	N	1.493425	-0.434683	0.887397
N452	N	1.743425	-0.184683	1.137397
H453	H	1.018925	-0.965440	0.412939
H454	H	1.268925	-0.715440	0.662939
H455	H	1.518925	-0.465440	0.912939
H456	H	1.768925	-0.215440	1.162939
H457	H	0.967777	-0.907419	0.416490
H458	H	1.217777	-0.657419	0.666490
H459	H	1.467777	-0.407419	0.916490
H460	H	1.717777	-0.157419	1.166490
N461	N	0.826031	-0.386731	0.535089
N462	N	1.076031	-0.136731	0.785089
N463	N	1.326031	0.113269	1.035089
N464	N	1.576031	0.363269	1.285089
H465	H	0.832144	-0.380638	0.488460
H466	H	1.082144	-0.130638	0.738460
H467	H	1.332144	0.119362	0.988460
H468	H	1.582144	0.369362	1.238460
H469	H	0.781078	-0.376939	0.546545
H470	H	1.031078	-0.126939	0.796545
H471	H	1.281078	0.123061	1.046545
H472	H	1.531078	0.373061	1.296545
N473	N	0.826024	-0.386672	0.671734
N474	N	1.076024	-0.136672	0.921734
N475	N	1.326024	0.113328	1.171734
N476	N	1.576024	0.363328	1.421734
H477	H	0.832137	-0.380547	0.718373
H478	H	1.082137	-0.130547	0.968373
H479	H	1.332137	0.119453	1.218373
H480	H	1.582137	0.369453	1.468373
H481	H	0.835785	-0.431635	0.660251
H482	H	1.085785	-0.181635	0.910251
H483	H	1.335785	0.068365	1.160251
H484	H	1.585785	0.318365	1.410251
H485	H	0.982854	-0.229984	0.543902
H486	H	1.232854	0.020016	0.793902
H487	H	1.482854	0.270016	1.043902
H488	H	1.732854	0.520016	1.293902
H489	H	0.982860	-0.229842	0.944740
H490	H	1.232860	0.020158	1.194740
H491	H	1.482860	0.270158	1.444740
H492	H	1.732860	0.520158	1.694740
