data_functionalizedCrystal
_audit_creation_method	'MofGen! by Chris Wilmer'
_symmetry_space_group_name_H-M	'P1'
_symmetry_Int_Tables_number	1
_symmetry_cell_setting	triclinic
loop_
_symmetry_equiv_pos_as_xyz
  x,y,z
_cell_length_a	20.919309
_cell_length_b	23.196402
_cell_length_c	23.196402
_cell_angle_alpha	60.002465
_cell_angle_beta	90.000400
_cell_angle_gamma	57.441790
loop_
_atom_site_label
_atom_site_type_symbol
_atom_site_fract_x
_atom_site_fract_y
_atom_site_fract_z
Zr1	Zr	0.641781	0.585955	-0.053117
O2	O	0.535411	0.713686	-0.148893
O3	O	0.674387	0.463401	-0.023760
O4	O	0.674387	0.583666	-0.144024
O5	O	0.535414	0.593420	0.066242
O6	O	0.784017	0.575972	-0.140179
O7	O	0.535411	0.593420	-0.028629
O8	O	0.784016	0.360839	0.074952
O9	O	0.535414	0.808553	-0.148889
O10	O	0.770111	0.506149	-0.008365
O11	O	0.688298	0.511891	0.059566
O12	O	0.688298	0.653488	-0.082029
O13	O	0.606485	0.659230	-0.014098
Zr14	Zr	0.816632	0.573683	0.104324
Zr15	Zr	0.816628	0.573683	-0.046984
Zr16	Zr	0.641786	0.585954	0.098191
Zr17	Zr	0.641786	0.737257	-0.053110
Zr18	Zr	0.816627	0.422381	0.104317
O19	O	0.784027	0.696236	0.074967
O20	O	0.784020	0.696237	-0.140173
O21	O	0.535418	0.713685	0.066247
O22	O	0.923002	0.445952	0.200101
O23	O	0.922996	0.445952	-0.015040
O24	O	0.674393	0.463400	0.191381
O25	O	0.923000	0.566217	-0.015034
O26	O	0.784026	0.575971	0.195231
O27	O	0.674397	0.583665	0.191386
O28	O	0.923002	0.566217	0.079836
O29	O	0.674394	0.798798	-0.144014
O30	O	0.784020	0.360839	0.195222
O31	O	0.922999	0.351085	0.200097
O32	O	0.922996	0.351085	0.079827
O33	O	0.535418	0.808552	-0.028619
O34	O	0.674397	0.798798	-0.023745
O35	O	0.770115	0.506149	0.133237
O36	O	0.851928	0.500407	0.065306
O37	O	0.770116	0.647746	-0.008359
O38	O	0.688302	0.653488	0.059573
C39	C	0.729201	0.390563	0.025595
C40	C	0.729199	0.326331	0.025593
C41	C	0.771899	0.293164	-0.009870
C42	C	0.771907	0.232802	-0.009864
C43	C	0.729198	0.205623	0.025594
C44	C	0.686497	0.238794	0.061065
C45	C	0.686497	0.299148	0.061064
C46	C	0.657664	0.148614	0.017811
C47	C	0.657661	0.088265	0.017807
C48	C	0.729200	0.019468	0.025602
C49	C	0.800740	0.011035	0.033386
C50	C	0.800740	0.071389	0.033385
C51	C	0.729194	0.140179	0.025600
C52	C	0.771912	-0.079151	-0.009856
C53	C	0.771922	-0.139518	-0.009845
C54	C	0.686504	-0.133518	0.061079
C55	C	0.686502	-0.073159	0.061073
C56	C	0.729204	-0.045976	0.025601
C57	C	0.510500	0.595168	0.017933
C58	C	0.436274	0.600378	0.015329
C59	C	0.444105	0.525918	0.052554
C60	C	0.374358	0.530818	0.050107
C61	C	0.296781	0.610179	0.010429
C62	C	0.288951	0.684644	-0.026797
C63	C	0.358697	0.679744	-0.024345
C64	C	0.084056	0.628824	0.001104
C65	C	0.014308	0.633719	-0.001347
C66	C	0.099721	0.479892	0.075558
C67	C	0.169464	0.474999	0.078004
C68	C	0.161629	0.549464	0.040781
C69	C	0.225487	0.615189	0.007924
C70	C	0.232921	0.544453	0.043290
C71	C	0.947913	0.564469	0.033275
C72	C	1.022140	0.559259	0.035878
C73	C	0.729201	0.579819	-0.163659
C74	C	0.729199	0.579819	-0.227894
C75	C	0.729213	0.769074	0.025612
C76	C	0.729215	0.833306	0.025615
C77	C	0.668813	0.584067	-0.692852
C78	C	0.668812	0.584061	-0.632494
C79	C	0.729208	0.579823	-0.600194
C80	C	0.789620	0.575569	-0.628246
C81	C	0.789623	0.575566	-0.688598
C82	C	0.748030	0.626008	-0.527666
C83	C	0.748021	0.626016	-0.467318
C84	C	0.729203	0.579828	-0.414046
C85	C	0.710375	0.533643	-0.421135
C86	C	0.710378	0.533641	-0.481488
C87	C	0.729211	0.579825	-0.534752
C88	C	0.668797	0.584070	-0.320552
C89	C	0.668803	0.584059	-0.260190
C90	C	0.789607	0.575575	-0.255947
C91	C	0.789605	0.575578	-0.316303
C92	C	0.729196	0.579829	-0.348604
C93	C	0.729212	0.579818	0.214867
C94	C	0.729214	0.579818	0.279101
C95	C	0.947907	0.375213	0.033266
C96	C	1.022132	0.305772	0.035867
C97	C	0.729206	0.390562	0.214859
C98	C	0.729206	0.326330	0.279090
C99	C	0.947912	0.375212	0.222530
C100	C	1.022139	0.305771	0.289364
C101	C	0.510501	0.784425	-0.171322
C102	C	0.436274	0.853866	-0.238157
C103	C	0.510506	0.784424	0.017941
C104	C	0.436282	0.853866	0.015340
C105	C	0.729207	0.769075	-0.163651
C106	C	0.729207	0.833307	-0.227882
C107	C	1.014281	0.276159	-0.001373
C108	C	1.084016	0.210920	0.001056
C109	C	1.161602	0.175291	0.040730
C110	C	1.169451	0.204910	0.077971
C111	C	1.099717	0.270152	0.075538
C112	C	0.771914	0.293169	0.347715
C113	C	0.771910	0.232825	0.408073
C114	C	0.729204	0.205639	0.399804
C115	C	0.686491	0.238807	0.331172
C116	C	0.686490	0.299154	0.270815
C117	C	1.099710	0.270163	0.285292
C118	C	1.169460	0.204923	0.348085
C119	C	1.161639	0.175289	0.414950
C120	C	1.084060	0.210903	0.419021
C121	C	1.014311	0.276146	0.356229
C122	C	0.358704	0.889482	-0.234084
C123	C	0.288953	0.954740	-0.296877
C124	C	0.296775	0.984378	-0.363742
C125	C	0.374354	0.948759	-0.367813
C126	C	0.444103	0.883506	-0.305021
C127	C	0.444133	0.883485	0.052574
C128	C	0.374397	0.948740	0.050129
C129	C	0.296812	0.984371	0.010452
C130	C	0.288962	0.954749	-0.026786
C131	C	0.358697	0.889499	-0.024344
C132	C	0.771922	0.860473	-0.219591
C133	C	0.771939	0.920817	-0.279936
C134	C	0.729234	0.953997	-0.348574
C135	C	0.686518	0.926825	-0.356864
C136	C	0.686507	0.866478	-0.296519
H137	H	0.806686	-0.057021	-0.038736
H138	H	0.806671	0.315292	-0.038750
H139	H	0.380804	0.972847	0.080456
F140	F	0.817374	0.322088	0.356532
H141	H	0.951113	0.305167	-0.033689
F142	F	1.108085	0.301657	0.115181
F143	F	0.817376	0.197534	0.481110
H144	H	0.838785	0.572119	-0.229646
F145	F	0.729213	0.141410	0.464048
F146	F	0.526666	0.441451	0.094781
H147	H	0.225783	0.983770	-0.059090
H148	H	0.838796	0.572116	-0.601943
H149	H	0.225792	0.983731	-0.293548
F150	F	0.817363	0.197490	-0.047603
F151	F	0.526657	0.845603	-0.309367
F152	F	0.817378	0.825170	-0.146547
F153	F	0.641043	0.209864	0.322382
F154	F	0.075707	0.708077	-0.038514
H155	H	0.651715	0.326146	0.214940
F156	F	-0.068259	0.718190	-0.043585
F157	F	0.350359	0.758994	-0.063963
F158	F	1.108053	0.301693	0.214135
F159	F	0.853913	0.571044	-0.718449
F160	F	0.931756	0.314033	0.360574
F161	F	0.315485	0.459994	0.085523
F162	F	0.817401	0.949728	-0.271098
F163	F	0.690343	0.484485	-0.364443
H164	H	1.232622	0.175932	0.344757
F165	F	0.222534	1.053827	-0.430566
F166	F	1.075645	0.179407	-0.038581
H167	H	0.352319	0.865355	-0.179645
H168	H	0.380713	0.972899	-0.422262
H169	H	1.218439	0.122163	0.466073
F170	F	0.817370	-0.174815	-0.047593
H171	H	0.651723	0.326154	0.089942
F172	F	0.526699	0.845577	0.094804
H173	H	0.599408	0.095140	0.011464
F174	F	0.768044	0.675181	-0.459784
H175	H	0.240036	1.037501	0.008470
H176	H	0.225781	0.749262	-0.059100
F177	F	0.729251	1.018226	-0.412793
H178	H	0.651749	0.953850	-0.412757
H179	H	0.838787	0.572123	-0.339143
F180	F	1.075748	0.179355	0.490190
H181	H	0.599400	0.204640	0.011449
H182	H	0.651720	0.844367	-0.303280
H183	H	0.858991	0.064519	0.039726
F184	F	0.641050	-0.162440	0.098816
F185	F	0.876881	-0.062180	0.041680
H186	H	0.352293	0.865386	-0.054663
H187	H	0.651724	0.216660	0.089936
F188	F	0.641052	-0.037857	0.098815
H189	H	0.232628	0.410375	0.110300
F190	F	0.382699	0.451567	0.089733
H191	H	0.106091	0.419267	0.105864
H192	H	0.619626	0.587526	-0.719148
F193	F	0.142919	0.699649	-0.034303
H194	H	0.619625	0.587521	-0.609654
H195	H	0.695051	0.496034	-0.487256
F196	F	0.604508	0.588590	-0.354927
F197	F	0.604516	0.588574	-0.230336
F198	F	1.235813	0.105854	0.043314
H199	H	1.232631	0.175892	0.110273
F200	F	0.768071	0.675162	-0.584356
