data_functionalizedCrystal
_audit_creation_method	'MofGen! by Chris Wilmer'
_symmetry_space_group_name_H-M	'P1'
_symmetry_Int_Tables_number	1
_symmetry_cell_setting	triclinic
loop_
_symmetry_equiv_pos_as_xyz
  x,y,z
_cell_length_a	14.421503
_cell_length_b	11.792241
_cell_length_c	15.944493
_cell_angle_alpha	96.165771
_cell_angle_beta	89.989835
_cell_angle_gamma	89.996519
loop_
_atom_site_label
_atom_site_type_symbol
_atom_site_fract_x
_atom_site_fract_y
_atom_site_fract_z
O1	O	0.077009	-1.505935	0.115119
O2	O	0.077029	-1.175493	0.126985
O3	O	0.077026	-1.349772	-0.001185
O4	O	0.077012	-1.331656	0.243289
O5	O	-0.077198	-1.349743	-0.001166
O6	O	-0.077195	-1.175464	0.127004
O7	O	-0.077215	-1.505906	0.115138
Cu8	Cu	-0.091286	-1.340682	0.121073
Cu9	Cu	0.091101	-1.340716	0.121050
O10	O	-0.077212	-1.331627	0.243308
C11	C	-0.000080	-1.133194	0.126249
C12	C	-0.000072	-1.007199	0.124018
N13	N	-0.219568	-1.340666	0.121088
C14	C	-0.000082	-1.349017	-0.032474
C15	C	-0.000070	-1.346797	-0.125733
C16	C	-0.469220	-1.260066	0.180327
C17	C	-0.531030	-1.362618	0.197097
C18	C	-0.408729	-1.340694	0.121068
C19	C	-0.531013	-1.238168	0.104317
C20	C	-0.591451	-1.340711	0.121051
C21	C	-0.469179	-1.443298	0.137877
C22	C	-0.469156	-1.318781	0.045063
C23	C	-0.530938	-1.421407	0.061802
C24	C	-0.303468	-1.340682	0.121080
C25	C	-0.696710	-1.340735	0.121038
N26	N	0.219382	-1.340741	0.121028
C27	C	-0.000104	-1.548205	0.115874
C28	C	-0.000106	-1.674200	0.118105
C29	C	-0.000098	-0.776522	0.119916
C30	C	-0.000084	-0.904887	0.122195
C31	C	-0.000094	-1.449381	-0.361030
C32	C	0.075949	-1.394076	-0.411857
C33	C	-0.000081	-1.342684	-0.296472
C34	C	-0.076103	-1.394022	-0.411814
C35	C	-0.000096	-1.338719	-0.461400
C36	C	0.076025	-1.287407	-0.346071
C37	C	-0.076096	-1.287369	-0.346025
C38	C	-0.000034	-1.231985	-0.396820
C39	C	-0.000072	-1.344971	-0.201462
C40	C	-0.000098	-1.336423	-0.556407
C41	C	-0.000102	-1.332382	0.274597
C42	C	-0.000108	-1.334602	0.367855
H43	H	-0.558208	-1.381169	0.261366
C44	C	0.078933	-1.088777	-0.465985
C45	C	0.000025	-1.107823	-0.418269
H46	H	0.078967	-1.012128	-0.479232
H47	H	0.132951	-1.102158	-0.434427
H48	H	0.078383	-1.139117	-0.516666
H49	H	0.000578	-1.057488	-0.367586
H50	H	-0.054007	-1.094430	-0.449828
H51	H	0.140233	-1.439148	-0.440607
H52	H	-0.000023	-1.541288	-0.344986
H53	H	-0.140382	-1.242336	-0.317259
C54	C	-0.162739	-1.568618	-0.432878
C55	C	-0.162892	-1.454854	-0.450577
H56	H	-0.216319	-1.606174	-0.456804
H57	H	-0.108750	-1.605752	-0.456300
H58	H	-0.163060	-1.571077	-0.373523
H59	H	-0.162564	-1.452395	-0.509933
H60	H	-0.216894	-1.417710	-0.427159
H61	H	-0.442121	-1.191950	0.230481
H62	H	0.140382	-1.242385	-0.317462
H63	H	-0.557867	-1.489674	0.011678
C64	C	-0.335586	-1.559252	0.157071
C65	C	-0.432675	-1.560353	0.157169
H66	H	-0.313051	-1.631504	0.169009
H67	H	-0.313873	-1.543623	0.103256
H68	H	-0.313990	-1.501893	0.198894
H69	H	-0.454271	-1.617707	0.115342
H70	H	-0.454397	-1.575996	0.210992
H71	H	-0.441956	-1.300198	-0.019185
C72	C	-0.536511	-1.036814	0.147338
C73	C	-0.567673	-1.121112	0.085190
H74	H	-0.559137	-0.964548	0.135529
H75	H	-0.558613	-1.052938	0.200910
H76	H	-0.470647	-1.035777	0.147712
H77	H	-0.633537	-1.122155	0.084820
H78	H	-0.545576	-1.104985	0.031604
