data_functionalizedCrystal
_audit_creation_method	'MofGen! by Chris Wilmer'
_symmetry_space_group_name_H-M	'P1'
_symmetry_Int_Tables_number	1
_symmetry_cell_setting	triclinic
loop_
_symmetry_equiv_pos_as_xyz
  x,y,z
_cell_length_a	17.699083
_cell_length_b	10.723024
_cell_length_c	16.776229
_cell_angle_alpha	89.994545
_cell_angle_beta	89.998886
_cell_angle_gamma	83.875442
loop_
_atom_site_label
_atom_site_type_symbol
_atom_site_fract_x
_atom_site_fract_y
_atom_site_fract_z
O1	O	1.005074	0.157797	-0.066174
O2	O	0.784825	0.178327	-0.066200
O3	O	0.900030	-0.013601	-0.066184
O4	O	0.889869	0.349725	-0.066191
O5	O	0.900014	-0.013613	0.066393
O6	O	0.784809	0.178315	0.066376
O7	O	1.005058	0.157785	0.066402
Zn8	Zn	0.894931	0.168048	0.087439
Zn9	Zn	0.894952	0.168064	-0.087237
O10	O	0.889854	0.349713	0.066386
C11	C	0.756616	0.177585	0.000085
C12	C	0.672584	0.175378	0.000075
C13	C	0.624673	0.288036	0.000073
C14	C	0.545717	0.285955	0.000083
C15	C	0.514672	0.171215	0.000090
C16	C	0.562589	0.058549	0.000094
C17	C	0.641544	0.060631	0.000090
C18	C	0.244173	0.050148	0.000114
C19	C	0.165212	0.048075	0.000116
C20	C	0.148346	0.275473	0.000108
C21	C	0.227301	0.277555	0.000103
C22	C	0.275210	0.164889	0.000112
C23	C	0.360824	0.167147	0.000102
C24	C	0.429060	0.168956	0.000094
C25	C	0.899283	-0.060094	0.000103
C26	C	0.897070	-0.198610	0.000100
C27	C	0.961533	-0.274698	0.000107
C28	C	0.959248	-0.417863	0.000104
C29	C	1.033268	0.158527	0.000115
C30	C	1.117300	0.160734	0.000120
C31	C	0.890601	0.396206	0.000097
C32	C	0.892813	0.534723	0.000095
N33	N	0.894923	0.168037	0.206650
N34	N	0.894966	0.168065	-0.206448
C35	C	0.945952	0.083086	0.248374
C36	C	0.945956	0.083085	0.331826
C37	C	0.894934	0.168042	0.373553
C38	C	0.843900	0.252997	0.331822
C39	C	0.843893	0.252991	0.248372
C40	C	0.843928	0.253021	0.668370
C41	C	0.843941	0.253023	0.751826
C42	C	0.945991	0.083115	0.751824
C43	C	0.945983	0.083109	0.668374
C44	C	0.894947	0.168059	0.626651
C45	C	0.894942	0.168058	0.536162
C46	C	0.894942	0.168050	0.464040
H47	H	0.649943	0.381471	0.000067
H48	H	0.252572	0.370988	0.000094
H49	H	1.018413	-0.233851	0.000118
C50	C	1.046822	-0.084874	0.256763
C51	C	1.002035	-0.010306	0.202513
H52	H	1.081442	-0.142538	0.228450
H53	H	1.074315	-0.032987	0.289301
H54	H	1.015080	-0.129685	0.289322
H55	H	1.033777	0.034513	0.169957
H56	H	0.974540	-0.062199	0.169961
H57	H	0.987507	0.013911	0.365798
H58	H	0.837625	-0.399906	0.000094
C59	C	0.800566	0.469101	0.222656
C60	C	0.787805	0.346376	0.202503
H61	H	0.765939	0.526750	0.194335
H62	H	0.793265	0.481258	0.278320
H63	H	0.851146	0.482532	0.208968
H64	H	0.737226	0.332942	0.216197
H65	H	0.795099	0.334214	0.146827
H66	H	0.840190	-0.239457	0.000089
H67	H	0.537306	-0.034875	0.000111
C68	C	1.036712	-0.581843	-0.068047
C69	C	1.033752	-0.506109	0.000108
H70	H	1.082713	-0.636318	-0.068046
H71	H	0.994743	-0.630145	-0.068045
H72	H	1.034702	-0.530424	-0.114273
H73	H	1.035756	-0.557528	0.046334
H74	H	1.075733	-0.457802	0.000113
H75	H	0.283172	-0.041591	0.000122
C76	C	0.189811	-0.176510	0.000144
C77	C	0.131086	-0.078058	0.000132
H78	H	0.168741	-0.254372	0.000157
H79	H	0.220254	-0.170978	-0.046087
H80	H	0.220256	-0.170958	0.046378
H81	H	0.100644	-0.083604	-0.046106
H82	H	0.100630	-0.083592	0.046367
C83	C	1.046854	-0.084854	0.676756
C84	C	1.002065	-0.010282	0.622509
H85	H	1.081471	-0.142517	0.648440
H86	H	1.074349	-0.032969	0.709293
H87	H	1.015113	-0.129665	0.709316
H88	H	1.033805	0.034537	0.589953
H89	H	0.974567	-0.062173	0.589958
H90	H	0.987545	0.013940	0.785804
C91	C	0.650290	-0.164358	0.000086
C92	C	0.694210	-0.063206	0.000084
H93	H	0.682805	-0.240811	0.000079
H94	H	0.619148	-0.160448	0.046317
H95	H	0.619139	-0.160426	-0.046148
H96	H	0.725357	-0.067134	0.046321
H97	H	0.725365	-0.067119	-0.046152
C98	C	0.743044	0.420960	0.743450
C99	C	0.787847	0.346403	0.797694
H100	H	0.708413	0.478598	0.771769
H101	H	0.774768	0.465789	0.710895
H102	H	0.715555	0.369053	0.710908
H103	H	0.815339	0.398310	0.830232
H104	H	0.756118	0.301572	0.830263
H105	H	0.109328	0.367210	0.000105
H106	H	0.802374	0.322193	0.634405
C107	C	0.798603	0.328462	0.459746
C108	C	0.787818	0.346387	0.377686
H109	H	0.763982	0.386127	0.488057
H110	H	0.789952	0.245211	0.473428
H111	H	0.849186	0.341911	0.473404
H112	H	0.737236	0.332928	0.364027
H113	H	0.796462	0.429657	0.363998
H114	H	0.506711	0.377693	0.000081
