data_functionalizedCrystal
_audit_creation_method	'MofGen! by Chris Wilmer'
_symmetry_space_group_name_H-M	'P1'
_symmetry_Int_Tables_number	1
_symmetry_cell_setting	triclinic
loop_
_symmetry_equiv_pos_as_xyz
  x,y,z
_cell_length_a	6.817900
_cell_length_b	7.076028
_cell_length_c	10.992421
_cell_angle_alpha	88.447974
_cell_angle_beta	108.764763
_cell_angle_gamma	117.700652
loop_
_atom_site_label
_atom_site_type_symbol
_atom_site_fract_x
_atom_site_fract_y
_atom_site_fract_z
V1	V	-4.226249	-0.664973	-0.175714
O2	O	-4.182249	-0.652345	0.010550
O3	O	-4.203056	-0.660396	-0.350437
O4	O	-4.252690	-0.955004	-0.172087
O5	O	-4.132272	-0.355697	-0.169035
V6	V	-4.696912	-0.627985	-0.153544
O7	O	-4.515715	-0.746110	-0.224346
O8	O	-4.857644	-0.546848	-0.104912
O9	O	-4.496898	-0.632562	0.021179
O10	O	-4.858308	-0.640613	-0.339808
O11	O	-4.908286	-0.937261	-0.160223
O12	O	-4.447264	-0.337954	-0.157171
C13	C	-4.051768	-0.649898	-0.393060
C14	C	-4.114591	-0.648089	-0.535892
C15	C	-3.979799	-0.633503	-0.731224
C16	C	-3.913891	-0.634540	-0.582577
C17	C	-4.151700	-0.449189	-0.575140
C18	C	-4.215581	-0.447083	-0.723689
C19	C	-4.415760	-0.854816	-0.761016
C20	C	-4.347433	-0.859132	-0.612489
C21	C	-4.248200	-0.267249	-0.163705
C22	C	-4.122044	-0.025690	-0.165547
C23	C	-4.311528	-0.643054	0.063795
C24	C	-4.227946	-0.644877	0.206626
H25	H	-3.739689	-0.483014	-0.530601
O26	O	-4.438838	-1.034441	-0.819692
C27	C	-4.699889	-1.363938	-0.970559
C28	C	-4.674106	-1.160604	-0.904226
H29	H	-4.890103	-1.466020	-1.038899
H30	H	-4.575752	-1.314573	-1.028287
H31	H	-4.652912	-1.461831	-0.893512
H32	H	-4.721121	-1.062620	-0.981187
H33	H	-4.798207	-1.210116	-0.846470
O34	O	-3.810942	-0.453027	-0.756226
C35	C	-3.398305	-0.240239	-0.728238
C36	C	-3.589298	-0.444732	-0.699854
H37	H	-3.219054	-0.233441	-0.682653
H38	H	-3.442969	-0.244256	-0.837711
H39	H	-3.391489	-0.091532	-0.685285
H40	H	-3.596216	-0.593545	-0.742725
H41	H	-3.544559	-0.440525	-0.590370
H42	H	-4.323218	-1.006287	-0.588140
H43	H	-3.977765	-0.774743	-0.777210
O44	O	-4.530839	-0.886005	-0.576504
C45	C	-4.943454	-1.106970	-0.606725
C46	C	-4.735939	-1.076853	-0.647572
H47	H	-5.109340	-1.261240	-0.664183
H48	H	-4.898818	-1.118680	-0.498510
H49	H	-4.975859	-0.963176	-0.627303
H50	H	-4.703426	-1.220597	-0.627079
H51	H	-4.780675	-1.065048	-0.755777
H52	H	-4.391739	-0.446769	-0.764573
H53	H	-4.297718	-0.451483	-0.544897
O54	O	-3.874008	-0.803877	-0.551096
C55	C	-3.595577	-0.918753	-0.428711
C56	C	-3.640393	-0.726760	-0.464238
H57	H	-3.406690	-0.856473	-0.358503
H58	H	-3.724722	-1.029394	-0.380858
H59	H	-3.622114	-1.012540	-0.520558
H60	H	-3.613825	-0.632807	-0.372454
H61	H	-3.511262	-0.616273	-0.512142
O62	O	-4.051960	-0.258558	-0.745234
C63	C	-3.978921	0.069115	-0.838712
C64	C	-4.164467	-0.144297	-0.814386
H65	H	-4.069818	0.161535	-0.894647
H66	H	-3.842545	0.170753	-0.741769
H67	H	-3.887037	0.032968	-0.897808
H68	H	-4.256525	-0.108347	-0.755333
H69	H	-4.300690	-0.245871	-0.911374
H70	H	-3.984795	-0.292948	-0.521383
H71	H	-4.597365	-0.865241	-0.802101
