data_functionalizedCrystal
_audit_creation_method	'MofGen! by Chris Wilmer'
_symmetry_space_group_name_H-M	'P1'
_symmetry_Int_Tables_number	1
_symmetry_cell_setting	triclinic
loop_
_symmetry_equiv_pos_as_xyz
  x,y,z
_cell_length_a	15.944499
_cell_length_b	15.944545
_cell_length_c	9.730217
_cell_angle_alpha	89.994648
_cell_angle_beta	89.996000
_cell_angle_gamma	83.486891
loop_
_atom_site_label
_atom_site_type_symbol
_atom_site_fract_x
_atom_site_fract_y
_atom_site_fract_z
O1	O	1.114545	0.108124	-0.114379
O2	O	0.869989	0.121526	-0.114364
O3	O	0.998948	-0.007451	-0.114356
O4	O	0.985586	0.237101	-0.114388
O5	O	0.998944	-0.007453	0.114224
O6	O	0.869985	0.121525	0.114216
O7	O	1.114541	0.108123	0.114201
Zn8	Zn	0.992263	0.114824	0.150500
Zn9	Zn	0.992268	0.114825	-0.150664
O10	O	0.985582	0.237100	0.114193
C11	C	0.838693	0.120977	-0.000072
C12	C	0.745444	0.119332	-0.000066
C13	C	0.453907	0.194264	-0.000096
C14	C	0.514939	0.155313	-0.112796
C15	C	0.409808	0.113355	-0.000097
C16	C	0.514921	0.155290	0.112566
C17	C	0.574717	0.116296	-0.000080
C18	C	0.469612	0.074382	-0.112889
C19	C	0.469587	0.074370	0.112574
C20	C	0.530602	0.035360	-0.000153
C21	C	0.314808	0.111664	-0.000108
C22	C	0.669716	0.117981	-0.000078
C23	C	0.998392	-0.038746	-0.000064
C24	C	0.996732	-0.131992	-0.000060
C25	C	0.911837	-0.402609	-0.000083
C26	C	0.952768	-0.352030	-0.112788
C27	C	0.990811	-0.467635	-0.000099
C28	C	0.952786	-0.352059	0.112574
C29	C	0.993716	-0.302722	-0.000078
C30	C	1.031722	-0.418284	-0.112897
C31	C	1.031728	-0.418316	0.112566
C32	C	1.072718	-0.367771	-0.000166
C33	C	0.989136	-0.562637	-0.000112
C34	C	0.995398	-0.207723	-0.000074
C35	C	1.145838	0.108672	-0.000094
C36	C	1.239086	0.110317	-0.000109
C37	C	0.986138	0.268395	-0.000102
C38	C	0.987798	0.361641	-0.000115
N39	N	0.992265	0.114822	0.356037
N40	N	0.992272	0.114820	-0.356200
C41	C	1.106505	0.000646	0.356035
C42	C	1.163630	-0.056440	0.427974
C43	C	1.163639	-0.056441	0.571854
C44	C	1.106514	0.000649	0.643798
C45	C	1.049389	0.057735	0.571859
C46	C	1.049388	0.057731	0.427976
C47	C	0.935147	0.171906	0.571861
C48	C	0.935141	0.171912	0.427981
C49	C	0.878022	0.228996	0.643805
C50	C	0.820899	0.286087	0.571866
C51	C	0.820894	0.286086	0.427977
C52	C	0.878015	0.228998	0.356042
H53	H	0.449470	0.040177	0.207864
C54	C	1.163419	-0.346957	-0.000187
C55	C	1.164012	-0.259217	0.000967
C56	C	1.247549	-0.240014	0.000957
H57	H	1.191421	-0.369779	-0.080283
H58	H	1.191679	-0.370617	0.079144
H59	H	1.135764	-0.235567	-0.078355
H60	H	1.136027	-0.236375	0.081057
H61	H	1.275810	-0.263674	0.080287
H62	H	1.275544	-0.262841	-0.079141
H63	H	1.247963	-0.180482	0.001752
H64	H	0.563781	-0.031846	-0.000204
C65	C	0.908166	-0.313608	0.239589
C66	C	0.824025	-0.330941	0.239067
C67	C	0.782895	-0.295552	0.356058
H68	H	0.909887	-0.254254	0.239256
H69	H	0.935614	-0.337214	0.319645
H70	H	0.796584	-0.307333	0.159032
H71	H	0.822279	-0.390289	0.239422
H72	H	0.810343	-0.319157	0.436114
H73	H	0.784622	-0.236199	0.355714
H74	H	0.725803	-0.307314	0.355726
H75	H	0.420575	0.261410	-0.000214
C76	C	0.541965	0.200842	-0.239796
C77	C	0.629748	0.201072	-0.238652
C78	C	0.654694	0.242986	-0.355625
H79	H	0.515558	0.257324	-0.239863
H80	H	0.525758	0.172624	-0.319862
H81	H	0.645946	0.229292	-0.158607
H82	H	0.656176	0.144602	-0.238605
H83	H	0.638487	0.214768	-0.435691
H84	H	0.628282	0.299465	-0.355682
H85	H	0.714257	0.243140	-0.354871
H86	H	0.878028	0.228989	0.760959
C87	C	0.541655	0.200788	0.239777
C88	C	0.517571	0.159059	0.357515
C89	C	0.542191	0.200948	0.474718
H90	H	0.515147	0.257232	0.239822
H91	H	0.601209	0.201052	0.239380
H92	H	0.458028	0.158805	0.357912
H93	H	0.544077	0.102619	0.357516
H94	H	0.601745	0.201211	0.474321
H95	H	0.515681	0.257390	0.474749
H96	H	0.525860	0.172636	0.554617
H97	H	0.843822	-0.418249	-0.000189
H98	H	1.106511	0.000647	0.238881
C99	C	0.442811	0.028860	-0.240031
C100	C	0.355120	0.027873	-0.238603
C101	C	0.330398	-0.014040	-0.355712
H102	H	0.469677	-0.027447	-0.240475
H103	H	0.458648	0.057419	-0.320002
H104	H	0.339292	-0.000688	-0.158653
H105	H	0.328234	0.084168	-0.238179
H106	H	0.346235	0.014519	-0.435683
H107	H	0.357269	-0.070344	-0.356147
H108	H	0.270897	-0.014709	-0.354765
C109	C	0.908142	-0.313458	-0.239712
C110	C	0.823986	-0.330740	-0.239175
C111	C	0.782842	-0.295214	-0.356060
H112	H	0.935535	-0.336984	-0.319848
H113	H	0.909914	-0.254101	-0.239215
H114	H	0.822218	-0.390086	-0.239686
H115	H	0.796570	-0.307214	-0.159066
H116	H	0.784615	-0.235857	-0.355563
H117	H	0.810242	-0.318743	-0.436187
H118	H	0.725737	-0.306929	-0.355705
C119	C	1.076090	-0.456848	-0.240046
C120	C	1.073972	-0.544391	-0.238620
C121	C	1.114820	-0.579943	-0.355735
H122	H	1.133086	-0.444812	-0.240498
H123	H	1.048225	-0.433625	-0.320013
H124	H	1.101838	-0.567606	-0.158674
H125	H	1.016986	-0.556450	-0.238187
H126	H	1.086956	-0.556719	-0.435702
H127	H	1.171814	-0.567901	-0.356177
H128	H	1.113382	-0.639343	-0.354789
C129	C	0.758978	0.348026	0.650223
C130	C	0.771220	0.335815	0.791623
C131	C	0.714201	0.392867	0.863854
H132	H	0.702883	0.338931	0.626820
H133	H	0.768101	0.404111	0.626721
H134	H	0.762090	0.279743	0.815116
H135	H	0.827303	0.344917	0.815068
H136	H	0.723325	0.448952	0.840351
H137	H	0.658111	0.383767	0.840439
H138	H	0.722505	0.384595	0.959800
C139	C	1.076018	-0.456872	0.239777
C140	C	1.034368	-0.423168	0.357473
C141	C	1.075129	-0.458674	0.474696
H142	H	1.132859	-0.444361	0.240776
H143	H	1.075065	-0.516336	0.238468
H144	H	1.035329	-0.363717	0.358783
H145	H	0.977529	-0.435677	0.356520
H146	H	1.074177	-0.518138	0.473387
H147	H	1.131969	-0.446161	0.475681
H148	H	1.046871	-0.435817	0.554566
H149	H	1.210139	-0.102924	0.369385
C150	C	1.225748	-0.118462	0.649720
C151	C	1.275783	-0.168449	0.555929
C152	C	1.333011	-0.225586	0.627608
H153	H	1.195631	-0.153519	0.705864
H154	H	1.260758	-0.088249	0.705807
H155	H	1.240778	-0.198660	0.499865
H156	H	1.305919	-0.133415	0.499782
H157	H	1.368021	-0.195373	0.683696
H158	H	1.302887	-0.260638	0.683749
H159	H	1.366972	-0.259504	0.563982
C160	C	1.106356	0.000746	0.800011
C161	C	1.044093	0.062945	0.847619
C162	C	1.043913	0.063051	0.991514
H163	H	1.159986	0.012301	0.832727
H164	H	1.094822	-0.052932	0.832613
H165	H	1.055632	0.116611	0.815031
H166	H	0.990453	0.051403	0.814941
H167	H	1.032379	0.009373	1.024116
H168	H	1.097546	0.074605	1.024217
H169	H	1.001663	0.105247	1.023835
C170	C	0.758832	0.348161	0.350125
C171	C	0.708826	0.398165	0.443932
C172	C	0.651653	0.455367	0.372271
H173	H	0.723790	0.318024	0.294002
H174	H	0.789018	0.383194	0.294018
H175	H	0.678642	0.363137	0.500015
H176	H	0.743845	0.428321	0.500058
H177	H	0.681839	0.490400	0.316164
H178	H	0.616617	0.425223	0.316150
H179	H	0.617722	0.489307	0.435908
H180	H	0.878019	0.228995	0.238887
