data_functionalizedCrystal
_audit_creation_method	'MofGen! by Chris Wilmer'
_symmetry_space_group_name_H-M	'P1'
_symmetry_Int_Tables_number	1
_symmetry_cell_setting	triclinic
loop_
_symmetry_equiv_pos_as_xyz
  x,y,z
_cell_length_a	19.077241
_cell_length_b	15.298259
_cell_length_c	19.077068
_cell_angle_alpha	82.166277
_cell_angle_beta	85.292229
_cell_angle_gamma	82.229381
loop_
_atom_site_label
_atom_site_type_symbol
_atom_site_fract_x
_atom_site_fract_y
_atom_site_fract_z
Zn1	Zn	-0.992535	-0.569739	-0.163467
Zn2	Zn	-1.006277	-0.426602	-0.299954
Zn3	Zn	-0.894705	-0.415119	-0.188297
Zn4	Zn	-0.869881	-0.569661	-0.286055
O5	O	-0.940850	-0.495280	-0.234443
O6	O	-1.092382	-0.555590	-0.176998
O7	O	-1.007617	-0.300499	-0.301352
O8	O	-0.912320	-0.430857	-0.086971
O9	O	-1.102479	-0.450427	-0.277275
O10	O	-0.984195	-0.544455	-0.068729
O11	O	-0.925646	-0.292062	-0.219318
O12	O	-0.793388	-0.430781	-0.205839
O13	O	-0.870011	-0.694251	-0.253585
O14	O	-0.775150	-0.544323	-0.277661
O15	O	-0.960124	-0.694309	-0.163520
O16	O	-0.983547	-0.450352	-0.396143
O17	O	-0.883337	-0.555457	-0.385931
C18	C	-0.758852	-0.486298	-0.242937
C19	C	-0.680989	-0.482477	-0.246585
C20	C	-0.639138	-0.535525	-0.196149
C21	C	-0.565979	-0.531927	-0.199574
C22	C	-0.534671	-0.475286	-0.253438
C23	C	-0.576528	-0.422232	-0.303876
C24	C	-0.649687	-0.425826	-0.300447
C25	C	-0.316437	-0.458652	-0.269281
C26	C	-0.243272	-0.455065	-0.272707
C27	C	-0.232729	-0.564759	-0.168405
C28	C	-0.305888	-0.568352	-0.164983
C29	C	-0.347739	-0.515295	-0.215419
N30	N	-0.459891	-0.471609	-0.256942
N31	N	-0.422519	-0.518967	-0.211912
C32	C	-0.932256	-0.504163	-0.416452
C33	C	-0.928640	-0.507995	-0.494309
C34	C	-0.910766	-0.727485	-0.204232
C35	C	-0.897946	-0.826437	-0.191358
C36	C	-0.123559	-0.504291	-0.225914
C37	C	-0.201421	-0.508112	-0.222272
C38	C	-1.032524	-1.122929	-0.325917
C39	C	-1.044565	-1.029959	-0.338018
C40	C	-1.007912	-0.979074	-0.301354
C41	C	-0.959214	-1.021168	-0.252587
C42	C	-0.947168	-1.114148	-0.240489
C43	C	-0.922556	-0.970293	-0.215926
C44	C	-0.873858	-1.012387	-0.167160
C45	C	-0.861814	-1.105357	-0.155064
C46	C	-0.898468	-1.156242	-0.191728
C47	C	-0.934602	-0.877313	-0.228024
C48	C	-0.849246	-0.868532	-0.142596
C49	C	-0.837205	-0.961502	-0.130496
C50	C	-0.970859	-0.263978	-0.264485
C51	C	-0.983824	-0.165024	-0.277155
C52	C	-0.979143	-0.455122	-0.536172
C53	C	-0.975745	-0.458733	-0.609326
C54	C	-0.921840	-0.515212	-0.640616
C55	C	-0.871334	-0.568091	-0.598747
C56	C	-0.874736	-0.564485	-0.525594
C57	C	-0.906073	-0.531865	-0.858833
C58	C	-0.902674	-0.535465	-0.931992
C59	C	-1.007086	-0.426108	-0.942566
C60	C	-1.010480	-0.422503	-0.869411
C61	C	-0.959976	-0.475385	-0.827548
N62	N	-0.918365	-0.518902	-0.715391
N63	N	-0.963455	-0.471699	-0.752774
C64	C	-0.949494	-0.486384	-0.051721
C65	C	-0.953177	-0.482592	0.026145
H66	H	-0.331373	-0.614479	-0.121124
C67	C	-0.362463	-0.400295	-0.324760
H68	H	-0.333336	-0.366055	-0.357333
H69	H	-0.397278	-0.361651	-0.301618
H70	H	-0.385164	-0.437182	-0.349568
H71	H	-0.819399	-0.827101	-0.112742
H72	H	-0.797555	-0.995789	-0.090789
C73	C	-0.812041	-0.630222	-0.633160
H74	H	-0.782454	-0.661201	-0.597748
H75	H	-0.784627	-0.596042	-0.667595
H76	H	-0.832464	-0.671767	-0.655358
C77	C	-1.031283	-0.400550	-0.655380
H78	H	-1.021539	-0.410787	-0.703428
H79	H	-1.029358	-0.339637	-0.651674
H80	H	-1.077215	-0.415341	-0.639455
H81	H	-0.858784	-0.581474	-0.957463
C82	C	-1.038440	-0.392996	-0.501760
H83	H	-1.068035	-0.362031	-0.537171
H84	H	-1.018026	-0.351451	-0.479558
H85	H	-1.065853	-0.427187	-0.467326
H86	H	-1.054374	-0.376513	-0.843937
H87	H	-1.084208	-0.995692	-0.377730
H88	H	-0.683761	-0.382628	-0.341517
H89	H	-0.833611	-0.607541	-0.491509
H90	H	-0.974256	-0.843049	-0.267726
H91	H	-0.198646	-0.607954	-0.127342
H92	H	-0.888668	-1.231947	-0.181876
H93	H	-1.017718	-0.903374	-0.311210
H94	H	-1.048204	-0.383056	-0.976658
C95	C	-1.072835	-1.178902	-0.366242
H96	H	-1.058688	-1.240301	-0.352049
H97	H	-1.062331	-1.165451	-0.415772
H98	H	-1.122363	-1.165493	-0.355772
H99	H	-0.217784	-0.408940	-0.316573
H100	H	-0.864949	-0.574922	-0.824754
H101	H	-0.822155	-1.139628	-0.115362
C102	C	-0.673571	-0.597831	-0.136899
H103	H	-0.638166	-0.628903	-0.107349
H104	H	-0.695833	-0.639278	-0.157364
H105	H	-0.707948	-0.563743	-0.109418
H106	H	-0.551032	-0.376109	-0.347730
C107	C	-0.519946	-0.590282	-0.144097
H108	H	-0.549068	-0.624538	-0.111532
H109	H	-0.497246	-0.553399	-0.119290
H110	H	-0.485129	-0.628926	-0.167244
