data_functionalizedCrystal
_audit_creation_method	'MofGen! by Chris Wilmer'
_symmetry_space_group_name_H-M	'P1'
_symmetry_Int_Tables_number	1
_symmetry_cell_setting	triclinic
loop_
_symmetry_equiv_pos_as_xyz
  x,y,z
_cell_length_a	17.640112
_cell_length_b	25.639239
_cell_length_c	17.639306
_cell_angle_alpha	101.185844
_cell_angle_beta	87.804122
_cell_angle_gamma	101.263838
loop_
_atom_site_label
_atom_site_type_symbol
_atom_site_fract_x
_atom_site_fract_y
_atom_site_fract_z
Zn1	Zn	1.247712	-0.067208	-0.195068
Zn2	Zn	1.747712	0.432792	0.304932
Zn3	Zn	1.221936	-0.141116	-0.068094
Zn4	Zn	1.721936	0.358884	0.431906
Zn5	Zn	1.095061	-0.074108	-0.093721
Zn6	Zn	1.595061	0.425892	0.406279
Zn7	Zn	1.120633	-0.175050	-0.220667
Zn8	Zn	1.620633	0.324950	0.279333
O9	O	1.171336	-0.114370	-0.144387
O10	O	1.671336	0.385630	0.355613
O11	O	1.350574	-0.059923	-0.156787
O12	O	1.850574	0.440077	0.343213
O13	O	1.183616	-0.120914	0.034773
O14	O	1.683616	0.379086	0.534773
O15	O	1.115396	-0.000018	-0.107176
O16	O	1.615396	0.499982	0.392824
O17	O	1.331636	-0.114223	-0.063500
O18	O	1.831636	0.385777	0.436500
O19	O	1.227548	0.005052	-0.181635
O20	O	1.727548	0.505052	0.318365
O21	O	1.090402	-0.071683	0.015945
O22	O	1.590402	0.428317	0.515945
O23	O	0.992173	-0.104587	-0.131998
O24	O	1.492173	0.395413	0.368002
O25	O	1.158980	-0.172058	-0.323537
O26	O	1.658980	0.327942	0.176463
O27	O	1.010960	-0.178748	-0.225265
O28	O	1.510960	0.321252	0.274735
O29	O	1.252344	-0.092827	-0.304730
O30	O	1.752344	0.407173	0.195270
O31	O	1.208412	-0.218793	-0.088322
O32	O	1.708412	0.281207	0.411678
O33	O	1.133986	-0.243723	-0.200416
O34	O	1.633986	0.256277	0.299584
C35	C	0.974009	-0.146099	-0.184191
C36	C	1.474009	0.353901	0.315809
C37	C	0.889596	-0.159687	-0.201236
C38	C	1.389596	0.340313	0.298764
C39	C	0.563031	-0.011134	-0.014897
C40	C	1.063031	0.488866	0.485103
C41	C	0.483714	-0.023914	-0.030925
C42	C	0.983714	0.476086	0.469075
C43	C	0.503298	-0.101212	-0.127876
C44	C	1.003298	0.398788	0.372124
C45	C	0.582619	-0.088437	-0.111859
C46	C	1.082619	0.411563	0.388141
C47	C	0.612479	-0.043398	-0.055368
C48	C	1.112479	0.456602	0.444632
C49	C	0.632067	-0.120701	-0.152330
C50	C	1.132067	0.379299	0.347670
C51	C	0.711381	-0.107929	-0.136312
C52	C	1.211381	0.392071	0.363688
C53	C	0.741246	-0.062892	-0.079822
C54	C	1.241246	0.437108	0.420178
C55	C	0.691793	-0.030625	-0.039350
C56	C	1.191793	0.469375	0.460650
C57	C	0.602205	-0.165743	-0.208817
C58	C	1.102205	0.334257	0.291183
C59	C	0.651653	-0.198007	-0.249288
C60	C	1.151653	0.301993	0.250712
C61	C	0.730969	-0.185232	-0.233274
C62	C	1.230969	0.314768	0.266726
C63	C	0.760834	-0.140196	-0.176784
C64	C	1.260834	0.359804	0.323216
C65	C	0.780422	-0.217499	-0.273746
C66	C	1.280422	0.282501	0.226254
C67	C	0.859736	-0.204727	-0.257727
C68	C	1.359736	0.295273	0.242273
C69	C	0.840148	-0.127423	-0.160765
C70	C	1.340148	0.372577	0.339235
C71	C	1.171201	-0.250230	-0.144378
C72	C	1.671201	0.249770	0.355622
C73	C	1.171218	-0.308343	-0.144386
C74	C	1.671218	0.191657	0.355614
C75	C	1.210233	-0.655684	-0.086077
C76	C	1.710233	-0.155684	0.413923
C77	C	1.210265	-0.710285	-0.086081
C78	C	1.710265	-0.210285	0.413919
O79	O	1.243296	-0.727468	-0.036494
O80	O	1.743296	-0.227468	0.463506
N81	N	1.171479	-0.750593	-0.144411
N82	N	1.671479	-0.250593	0.355589
C83	C	1.132666	-0.736299	-0.202744
C84	C	1.632666	-0.236299	0.297256
O85	O	1.099680	-0.775598	-0.252359
O86	O	1.599680	-0.275598	0.247641
C87	C	1.132640	-0.681699	-0.202742
C88	C	1.632640	-0.181699	0.297258
C89	C	1.171421	-0.641393	-0.144405
C90	C	1.671421	-0.141393	0.355595
C91	C	1.249012	-0.615379	-0.027745
C92	C	1.749012	-0.115379	0.472255
C93	C	1.248979	-0.560783	-0.027740
C94	C	1.748979	-0.060783	0.472260
C95	C	1.210167	-0.546491	-0.086067
C96	C	1.710167	-0.046491	0.413933
C97	C	1.171388	-0.586796	-0.144400
C98	C	1.671388	-0.086796	0.355600
C99	C	1.093832	-0.667405	-0.261078
C100	C	1.593832	-0.167405	0.238922
C101	C	1.093810	-0.612800	-0.261072
C102	C	1.593810	-0.112800	0.238928
C103	C	1.132591	-0.572494	-0.202734
C104	C	1.632591	-0.072494	0.297266
C105	C	1.132544	-0.517907	-0.202723
C106	C	1.632544	-0.017907	0.297277
N107	N	1.171329	-0.477599	-0.144393
N108	N	1.671329	0.022401	0.355607
C109	C	1.210141	-0.491891	-0.086066
C110	C	1.710141	0.008109	0.413934
C111	C	1.132726	-0.850961	-0.202744
C112	C	1.632726	-0.350961	0.297256
C113	C	1.132747	-0.905561	-0.202744
C114	C	1.632747	-0.405561	0.297256
C115	C	1.210347	-0.879543	-0.086081
C116	C	1.710347	-0.379543	0.413919
C117	C	1.210320	-0.824943	-0.086080
C118	C	1.710320	-0.324943	0.413920
C119	C	1.171511	-0.810653	-0.144415
C120	C	1.671511	-0.310653	0.355585
C121	C	1.210068	-0.377235	-0.086060
C122	C	1.710068	0.122765	0.413940
C123	C	1.210029	-0.322634	-0.086058
C124	C	1.710029	0.177366	0.413942
C125	C	1.132434	-0.348656	-0.202722
C126	C	1.632434	0.151344	0.297278
C127	C	1.132469	-0.403252	-0.202722
C128	C	1.632469	0.096748	0.297278
C129	C	1.171292	-0.417539	-0.144387
C130	C	1.671292	0.082461	0.355613
O131	O	1.099531	-0.500684	-0.252287
O132	O	1.599531	-0.000684	0.247713
O133	O	1.243130	-0.452587	-0.036465
O134	O	1.743130	0.047413	0.463535
C135	C	1.369433	-0.082518	-0.104429
C136	C	1.869433	0.417482	0.395571
C137	C	1.453850	-0.068945	-0.087401
C138	C	1.953850	0.431055	0.412599
C139	C	1.211390	-0.135458	-0.342458
C140	C	1.711390	0.364542	0.157542
C141	C	1.228459	-0.144444	-0.426863
C142	C	1.728459	0.355556	0.073137
C143	C	1.171495	0.022021	-0.144409
C144	C	1.671495	0.522021	0.355591
C145	C	1.171563	0.080143	-0.144418
C146	C	1.671563	0.580143	0.355582
C147	C	1.041961	-0.045860	-0.753495
C148	C	1.541961	0.454140	-0.253495
C149	C	1.058017	-0.054312	-0.832803
C150	C	1.558017	0.445688	-0.332803
C151	C	1.155071	-0.105571	-0.813180
C152	C	1.655071	0.394429	-0.313180
C153	C	1.139026	-0.097120	-0.733868
C154	C	1.639026	0.402880	-0.233868
C155	C	1.082470	-0.067265	-0.704032
C156	C	1.582470	0.432735	-0.204032
C157	C	1.179535	-0.118526	-0.684405
C158	C	1.679535	0.381474	-0.184405
C159	C	1.163488	-0.110078	-0.605100
C160	C	1.663488	0.389922	-0.105100
C161	C	1.106932	-0.080226	-0.575258
C162	C	1.606932	0.419774	-0.075258
C163	C	1.066423	-0.058818	-0.624727
C164	C	1.566423	0.441182	-0.124727
C165	C	1.236087	-0.148384	-0.714243
C166	C	1.736087	0.351616	-0.214243
C167	C	1.276595	-0.169789	-0.664780
C168	C	1.776595	0.330211	-0.164780
C169	C	1.260552	-0.161339	-0.585473
C170	C	1.760552	0.338661	-0.085473
C171	C	1.203997	-0.131486	-0.555631
C172	C	1.703997	0.368514	-0.055631
C173	C	1.301062	-0.182747	-0.536004
C174	C	1.801062	0.317253	-0.036004
C175	C	1.285015	-0.174300	-0.456699
C176	C	1.785015	0.325700	0.043301
C177	C	1.187950	-0.123039	-0.476326
C178	C	1.687950	0.376961	0.023674
C179	C	1.131481	-0.093320	0.052921
C180	C	1.631481	0.406680	0.552921
C181	C	1.114559	-0.084163	0.137356
C182	C	1.614559	0.415837	0.637356
H183	H	0.443456	0.002366	0.002031
H184	H	0.943456	0.502366	0.502031
H185	H	0.478975	-0.137885	-0.173869
H186	H	0.978975	0.362115	0.326131
N187	N	1.130200	-0.092526	-0.445833
N188	N	1.630200	0.407474	0.054167
N189	N	1.137101	-0.044406	-0.453679
N190	N	1.637101	0.455594	0.046321
H191	H	1.096320	-0.022854	-0.432140
H192	H	1.596320	0.477146	0.067860
N193	N	1.090534	-0.071585	-0.494251
N194	N	1.590534	0.428415	0.005749
N195	N	1.040039	-0.044927	-0.467622
N196	N	1.540039	0.455073	0.032378
H197	H	1.028458	-0.038823	-0.410410
H198	H	1.528458	0.461177	0.089590
H199	H	0.537622	-0.176140	-0.221857
H200	H	1.037622	0.323860	0.278143
H201	H	1.062208	-0.601169	-0.308577
H202	H	1.562208	-0.101169	0.191423
N203	N	0.870651	-0.081420	-0.103053
N204	N	1.370651	0.418580	0.396947
N205	N	0.905086	-0.087483	-0.045678
N206	N	1.405086	0.412517	0.454322
H207	H	0.926628	-0.054994	-0.004920
H208	H	1.426628	0.445006	0.495080
H209	H	1.318011	-0.191721	-0.416423
H210	H	1.818011	0.308279	0.083577
H211	H	0.899998	-0.230999	-0.290684
H212	H	1.399998	0.269001	0.209316
N213	N	1.008666	-0.028306	-0.594252
N214	N	1.508666	0.471694	-0.094252
N215	N	0.972511	-0.009185	-0.638419
N216	N	1.472511	0.490815	-0.138419
H217	H	0.931725	0.012366	-0.616896
H218	H	1.431725	0.512366	-0.116896
N219	N	0.722309	0.015392	0.018335
N220	N	1.222309	0.515392	0.518335
N221	N	0.714536	0.061660	0.011377
N222	N	1.214536	0.561660	0.511377
H223	H	0.736091	0.094159	0.052113
H224	H	1.236091	0.594159	0.552113
N225	N	0.621135	-0.244012	-0.306983
N226	N	1.121135	0.255988	0.193017
N227	N	0.550318	-0.255412	-0.321278
N228	N	1.050318	0.244588	0.178722
H229	H	0.528765	-0.287903	-0.362027
H230	H	1.028765	0.212097	0.137973
H231	H	0.756097	-0.254173	-0.319735
H232	H	1.256097	0.245827	0.180265
N233	N	1.093138	-0.946729	-0.262338
N234	N	1.593138	-0.446729	0.237662
N235	N	1.129626	-0.978024	-0.305376
N236	N	1.629626	-0.478024	0.194624
H237	H	1.101655	-1.007098	-0.347469
H238	H	1.601655	-0.507098	0.152531
N239	N	1.249722	-0.391831	-0.026478
N240	N	1.749722	0.108169	0.473522
N241	N	1.303530	-0.417322	-0.043467
N242	N	1.803530	0.082678	0.456533
H243	H	1.331531	-0.427631	-0.001386
H244	H	1.831531	0.072369	0.498614
N245	N	1.092797	-0.334060	-0.262313
N246	N	1.592797	0.165940	0.237687
N247	N	1.058178	-0.370048	-0.314400
N248	N	1.558178	0.129952	0.185600
H249	H	1.030189	-0.359739	-0.356490
H250	H	1.530189	0.140261	0.143510
N251	N	1.249645	-0.281470	-0.026456
N252	N	1.749645	0.218530	0.473544
N253	N	1.284294	-0.294242	0.025616
N254	N	1.784294	0.205758	0.525616
H255	H	1.312272	-0.265172	0.067710
H256	H	1.812272	0.234828	0.567710
N257	N	1.288599	-0.519622	0.031856
N258	N	1.788599	-0.019622	0.531856
N259	N	1.323248	-0.532400	0.083924
N260	N	1.823248	-0.032400	0.583924
H261	H	1.351234	-0.503333	0.126016
H262	H	1.851234	-0.003333	0.626016
N263	N	1.054234	-0.708568	-0.320680
N264	N	1.554234	-0.208568	0.179320
N265	N	1.090727	-0.739862	-0.363715
N266	N	1.590727	-0.239862	0.136285
H267	H	1.062760	-0.768934	-0.405813
H268	H	1.562760	-0.268934	0.094187
N269	N	1.016648	-0.032436	-0.883328
N270	N	1.516648	0.467564	-0.383328
N271	N	1.052362	0.000470	-0.922197
N272	N	1.552362	0.500470	-0.422197
H273	H	1.023146	0.015919	-0.957882
H274	H	1.523146	0.515919	-0.457882
N275	N	0.984204	-0.015348	-0.723020
N276	N	1.484204	0.484652	-0.223020
N277	N	0.948050	0.003773	-0.767187
N278	N	1.448050	0.503773	-0.267187
H279	H	0.907264	0.025324	-0.745664
H280	H	1.407264	0.525324	-0.245664
H281	H	1.347104	-0.207060	-0.560310
H282	H	1.847104	0.292940	-0.060310
N283	N	1.288669	-0.629962	0.031844
N284	N	1.788669	-0.129962	0.531844
N285	N	1.323289	-0.593960	0.083915
N286	N	1.823289	-0.093960	0.583915
H287	H	1.351296	-0.604254	0.126006
H288	H	1.851296	-0.104254	0.626006
H289	H	1.241900	-0.792128	-0.038577
H290	H	1.741900	-0.292128	0.461423
H291	H	0.805829	-0.052495	-0.066779
H292	H	1.305829	0.447505	0.433221
H293	H	1.101116	-0.839331	-0.250247
H294	H	1.601116	-0.339331	0.249753
N295	N	0.593548	0.034883	0.042788
N296	N	1.093548	0.534883	0.542788
N297	N	0.585775	0.081151	0.035830
N298	N	1.085775	0.581151	0.535830
H299	H	0.607330	0.113651	0.076565
H300	H	1.107330	0.613651	0.576565
N301	N	1.249988	-0.894157	-0.026504
N302	N	1.749988	-0.394157	0.473496
N303	N	1.250003	-0.942910	-0.026522
N304	N	1.750003	-0.442910	0.473478
H305	H	1.277996	-0.953233	0.015553
H306	H	1.777996	-0.453233	0.515553
N307	N	1.212832	-0.136068	-0.843674
N308	N	1.712832	0.363932	-0.343674
N309	N	1.227151	-0.143610	-0.914483
N310	N	1.727151	0.356390	-0.414483
H311	H	1.267947	-0.165149	-0.936019
H312	H	1.767947	0.334851	-0.436019
H313	H	1.100893	-0.436071	-0.250227
H314	H	1.600893	0.063929	0.249773
N315	N	1.252486	-0.157030	-0.795250
N316	N	1.752486	0.342970	-0.295250
N317	N	1.275590	-0.117479	-0.827493
N318	N	1.775590	0.382521	-0.327493
H319	H	1.287176	-0.123593	-0.884704
H320	H	1.787176	0.376407	-0.384704
H321	H	1.322641	-0.194100	-0.689085
H322	H	1.822641	0.305900	-0.189085
