data_functionalizedCrystal
_audit_creation_method	'MofGen! by Chris Wilmer'
_symmetry_space_group_name_H-M	'P1'
_symmetry_Int_Tables_number	1
_symmetry_cell_setting	triclinic
loop_
_symmetry_equiv_pos_as_xyz
  x,y,z
_cell_length_a	14.519709
_cell_length_b	12.996460
_cell_length_c	11.026607
_cell_angle_alpha	90.002303
_cell_angle_beta	83.866919
_cell_angle_gamma	90.000602
loop_
_atom_site_label
_atom_site_type_symbol
_atom_site_fract_x
_atom_site_fract_y
_atom_site_fract_z
O1	O	1.250088	0.085427	-0.159123
O2	O	0.984699	0.085458	-0.177863
O3	O	1.095398	0.085441	0.008208
O4	O	1.139388	0.085444	-0.345194
O5	O	1.095382	-0.085693	0.008197
O6	O	0.984682	-0.085676	-0.177874
O7	O	1.250071	-0.085707	-0.159134
Cu8	Cu	1.117375	-0.101317	-0.168505
Cu9	Cu	1.117395	0.101068	-0.168492
O10	O	1.139372	-0.085690	-0.345205
C11	C	0.950187	-0.000105	-0.176995
C12	C	0.847374	-0.000093	-0.174378
N13	N	1.117368	-0.243664	-0.168513
C14	C	0.470891	-0.000140	-0.164743
C15	C	0.575640	-0.000127	-0.167419
C16	C	0.659129	-0.000116	-0.169560
C17	C	0.763885	-0.000104	-0.172237
C18	C	1.117373	-0.336770	-0.168516
C19	C	1.117380	-0.453575	-0.168508
C20	C	1.117389	-0.546674	-0.168495
C21	C	1.117398	-0.663486	-0.168488
C22	C	1.284583	-0.000142	-0.160002
C23	C	1.387396	-0.000147	-0.162619
C24	C	1.087274	-0.000123	0.053431
C25	C	1.063082	-0.000117	0.188197
N26	N	1.117408	0.243415	-0.168474
C27	C	1.147496	-0.000123	-0.390428
C28	C	1.171688	-0.000123	-0.525194
C29	C	1.129881	-0.000123	0.261858
C30	C	1.104879	-0.000117	0.401146
H31	H	1.029175	-0.000101	0.441197
H32	H	1.205581	-0.000138	0.221802
C33	C	1.317865	-0.088113	0.459936
C34	C	1.273889	-0.000137	0.420756
H35	H	1.380960	-0.088116	0.426572
H36	H	1.288010	-0.147776	0.433359
H37	H	1.314462	-0.088101	0.546449
H38	H	1.277287	-0.000153	0.334242
H39	H	1.303753	0.059542	0.447325
C40	C	0.916913	0.087880	0.203083
C41	C	0.960887	-0.000099	0.242259
H42	H	0.853822	0.087893	0.236464
H43	H	0.920307	0.087867	0.116582
H44	H	0.946780	0.147548	0.229656
H45	H	0.931024	-0.059767	0.215678
H46	H	0.957487	-0.000096	0.328779
