data_functionalizedCrystal
_audit_creation_method	'MofGen! by Chris Wilmer'
_symmetry_space_group_name_H-M	'P1'
_symmetry_Int_Tables_number	1
_symmetry_cell_setting	triclinic
loop_
_symmetry_equiv_pos_as_xyz
  x,y,z
_cell_length_a	16.959455
_cell_length_b	13.897448
_cell_length_c	16.959447
_cell_angle_alpha	90.029368
_cell_angle_beta	90.014322
_cell_angle_gamma	90.014639
loop_
_atom_site_label
_atom_site_type_symbol
_atom_site_fract_x
_atom_site_fract_y
_atom_site_fract_z
Zn1	Zn	1.208397	-0.384074	0.446914
Zn2	Zn	1.208325	-0.545393	0.314738
Zn3	Zn	1.076225	-0.384105	0.314751
Zn4	Zn	1.076195	-0.545321	0.446876
O5	O	1.142286	-0.464723	0.380820
O6	O	1.318998	-0.405491	0.429390
O7	O	1.190784	-0.524040	0.204128
O8	O	1.093801	-0.249119	0.332305
O9	O	1.318945	-0.524011	0.332281
O10	O	1.190907	-0.249097	0.429404
O11	O	1.093731	-0.405543	0.204139
O12	O	0.965610	-0.405473	0.332268
O13	O	1.093750	-0.523888	0.557492
O14	O	0.965589	-0.523917	0.429340
O15	O	1.190878	-0.405421	0.557520
O16	O	1.190755	-0.680365	0.332244
O17	O	1.093680	-0.680312	0.429326
C18	C	0.936919	-0.464691	0.380802
C19	C	0.849063	-0.464701	0.380813
C20	C	1.142228	-0.715337	0.380797
C21	C	1.142276	-0.822551	0.380814
C22	C	0.477574	-0.402998	0.330380
C23	C	0.477600	-0.526527	0.431305
C24	C	0.560146	-0.526513	0.431300
C25	C	0.601410	-0.464742	0.380834
C26	C	0.560128	-0.402985	0.330372
C27	C	0.601434	-0.588276	0.481754
C28	C	0.683985	-0.588266	0.481751
C29	C	0.725251	-0.526489	0.431288
C30	C	0.683963	-0.464728	0.380825
C31	C	0.725227	-0.402957	0.330359
C32	C	0.683941	-0.341191	0.279900
C33	C	0.601393	-0.341208	0.279909
C34	C	0.807799	-0.526472	0.431279
C35	C	0.807781	-0.402944	0.330351
C36	C	1.142359	-1.018846	0.380863
C37	C	1.142310	-0.909614	0.380838
C38	C	1.348454	-0.464756	0.380838
C39	C	1.436310	-0.464770	0.380846
C40	C	1.142319	-0.464643	0.586988
C41	C	1.142333	-0.464609	0.674845
C42	C	1.142365	-0.213130	0.380860
C43	C	1.142399	-0.105916	0.380877
C44	C	1.142298	-0.464733	0.175454
C45	C	1.142437	-0.464495	0.087597
C46	C	1.091857	-0.526188	1.046309
C47	C	1.192997	-0.402827	1.046333
C48	C	1.192976	-0.402848	0.963787
C49	C	1.142395	-0.464540	0.922498
C50	C	1.091836	-0.526212	0.963755
C51	C	1.243540	-0.341184	0.922523
C52	C	1.243522	-0.341203	0.839972
C53	C	1.192937	-0.402891	0.798682
C54	C	1.142375	-0.464564	0.839944
C55	C	1.091794	-0.526257	0.798655
C56	C	1.041227	-0.587926	0.839916
C57	C	1.041251	-0.587900	0.922465
C58	C	1.192913	-0.402917	0.716134
C59	C	1.091773	-0.526281	0.716102
H60	H	0.841372	-0.352635	0.289260
C61	C	1.282109	-0.177853	0.947979
C62	C	1.299137	-0.273379	0.967910
H63	H	1.316436	-0.135994	0.976001
H64	H	1.229014	-0.163729	0.961509
H65	H	1.289342	-0.169051	0.892911
H66	H	1.291898	-0.282183	1.022978
H67	H	1.352244	-0.287508	0.954386
H68	H	0.717549	-0.290901	0.238807
C69	C	0.709433	-0.635441	0.615529
C70	C	0.729363	-0.656148	0.537222
H71	H	0.737452	-0.677344	0.649775
H72	H	0.654371	-0.644295	0.622746
H73	H	0.722974	-0.570643	0.627177
H74	H	0.715817	-0.720944	0.525573
H75	H	0.784437	-0.647302	0.530001
H76	H	1.050685	-0.576395	1.079907
C77	C	1.326863	-0.355858	1.071755
C78	C	1.248596	-0.335020	1.091714
H79	H	1.361187	-0.313996	1.099777
H80	H	1.334078	-0.347040	1.016693
H81	H	1.338405	-0.420668	1.085271
H82	H	1.237052	-0.270211	1.078192
H83	H	1.241377	-0.343829	1.146787
H84	H	0.567831	-0.638574	0.522836
H85	H	0.567771	-0.290922	0.238827
H86	H	1.050577	-0.576511	0.682490
C87	C	1.254496	-0.211460	0.747192
C88	C	1.299087	-0.273392	0.794629
H89	H	1.288797	-0.169595	0.719198
H90	H	1.220078	-0.174574	0.779414
H91	H	1.224380	-0.248214	0.710784
H92	H	1.329199	-0.236639	0.831041
H93	H	1.333520	-0.310282	0.762404
H94	H	1.234086	-0.352709	0.682543
H95	H	1.000048	-0.638161	0.806288
C96	C	0.351027	-0.348157	0.285577
C97	C	0.432198	-0.335108	0.274916
H98	H	0.323015	-0.306248	0.251331
H99	H	0.337524	-0.334120	0.338701
H100	H	0.337492	-0.412954	0.273915
H101	H	0.445734	-0.270313	0.286583
H102	H	0.445706	-0.349139	0.221780
C103	C	0.351071	-0.581394	0.476125
C104	C	0.432245	-0.594423	0.486775
H105	H	0.323070	-0.623308	0.510377
H106	H	0.337530	-0.595438	0.423004
H107	H	0.337560	-0.516601	0.487786
H108	H	0.445757	-0.659215	0.475109
H109	H	0.445791	-0.580386	0.539908
H110	H	0.841410	-0.576764	0.472360
H111	H	1.000085	-0.638111	0.956067
