data_functionalizedCrystal
_audit_creation_method	'MofGen! by Chris Wilmer'
_symmetry_space_group_name_H-M	'P1'
_symmetry_Int_Tables_number	1
_symmetry_cell_setting	triclinic
loop_
_symmetry_equiv_pos_as_xyz
  x,y,z
_cell_length_a	14.044191
_cell_length_b	27.731996
_cell_length_c	13.101039
_cell_angle_alpha	93.327690
_cell_angle_beta	86.337551
_cell_angle_gamma	87.906582
loop_
_atom_site_label
_atom_site_type_symbol
_atom_site_fract_x
_atom_site_fract_y
_atom_site_fract_z
O1	O	1.261209	0.114036	-0.085190
O2	O	0.985303	0.109829	-0.085202
O3	O	1.131850	0.041938	-0.085173
O4	O	1.114663	0.181927	-0.085218
O5	O	1.121335	0.046818	0.085254
O6	O	0.974789	0.114709	0.085226
O7	O	1.250695	0.118916	0.085238
Zn8	Zn	1.111072	0.117587	0.112291
Zn9	Zn	1.124926	0.111158	-0.112255
O10	O	1.104148	0.186807	0.085209
C11	C	0.944759	0.110429	0.000011
C12	C	0.839616	0.104941	0.000007
C13	C	0.588896	0.133832	0.000008
C14	C	0.647108	0.094915	0.000019
C15	C	0.754229	0.100494	0.000012
C16	C	0.481765	0.128253	0.000015
C17	C	1.126239	0.026354	0.000044
C18	C	1.125175	-0.027352	0.000054
C19	C	1.124218	-0.363044	-0.092896
C20	C	1.120180	-0.564892	-0.092914
O21	O	1.124492	-0.593251	-0.171923
N22	N	1.113947	-0.587473	-0.000015
C23	C	1.108717	-0.559588	0.092895
O24	O	1.103313	-0.583425	0.171912
C25	C	1.112748	-0.357740	0.092913
C26	C	1.118991	-0.335163	0.000007
C27	C	1.130459	-0.340466	-0.185794
C28	C	1.131474	-0.290007	-0.185788
C29	C	1.126247	-0.262126	-0.092885
C30	C	1.120005	-0.284704	0.000013
C31	C	1.107511	-0.329856	0.185822
C32	C	1.108517	-0.279391	0.185818
C33	C	1.114760	-0.256814	0.092913
C34	C	1.115793	-0.206364	0.092921
N35	N	1.122026	-0.183783	0.000022
C36	C	1.127253	-0.211664	-0.092881
C37	C	1.106603	-0.665561	0.092880
C38	C	1.105597	-0.716023	0.092876
C39	C	1.117058	-0.721323	-0.092934
C40	C	1.118071	-0.670861	-0.092929
C41	C	1.112836	-0.642980	-0.000019
C42	C	1.129384	-0.105696	-0.092863
C43	C	1.130402	-0.055233	-0.092849
C44	C	1.118935	-0.049936	0.092961
C45	C	1.117922	-0.100396	0.092948
C46	C	1.123144	-0.128275	0.000028
O47	O	1.111474	-0.177974	0.171889
O48	O	1.132635	-0.187817	-0.171885
C49	C	1.123203	-0.413503	-0.092902
C50	C	1.116962	-0.436081	-0.000004
C51	C	1.111735	-0.408199	0.092900
C52	C	1.115956	-0.486542	-0.000008
C53	C	1.121183	-0.514423	-0.092911
C54	C	1.127416	-0.491843	-0.185810
C55	C	1.128430	-0.441384	-0.185805
C56	C	1.105502	-0.430780	0.185799
C57	C	1.104489	-0.481239	0.185786
C58	C	1.109716	-0.509120	0.092882
C59	C	1.291239	0.118316	0.000023
C60	C	1.396383	0.123804	0.000020
C61	C	1.109759	0.202391	-0.000010
C62	C	1.110824	0.256096	-0.000027
N63	N	1.101625	0.121975	0.265538
N64	N	1.134381	0.106766	-0.265502
C65	C	1.088770	0.127950	0.474578
C66	C	1.147232	0.100793	0.525465
C67	C	1.140080	0.104118	0.641782
C68	C	1.095921	0.124626	0.358250
H69	H	0.619507	0.171338	-0.000007
N70	N	0.608697	0.047862	0.000044
N71	N	0.520469	0.043336	0.000052
H72	H	0.493335	0.010107	0.000069
N73	N	1.136787	-0.032179	-0.187763
N74	N	1.141453	-0.057082	-0.270703
H75	H	1.145963	-0.040803	-0.337736
H76	H	1.133631	-0.128389	-0.168527
N77	N	1.019238	0.160246	0.529490
N78	N	0.932393	0.155527	0.517619
H79	H	0.883286	0.178336	0.556411
H80	H	1.136554	-0.271629	-0.261442
H81	H	1.100527	-0.734401	0.168529
H82	H	1.104239	-0.256693	0.261478
N83	N	1.101281	-0.637085	0.187791
N84	N	1.167365	-0.609915	0.208531
H85	H	1.163611	-0.589806	0.275563
H86	H	1.134713	-0.363161	-0.261451
H87	H	1.123153	-0.652482	-0.168581
H88	H	1.202655	0.075048	0.481673
H89	H	1.121315	-0.744033	-0.168580
N90	N	1.098120	-0.504307	0.280684
N91	N	1.163065	-0.533454	0.301427
H92	H	1.158561	-0.549745	0.368446
N93	N	1.134782	-0.418324	-0.280706
N94	N	1.069825	-0.389183	-0.301445
H95	H	1.074309	-0.372900	-0.368475
N96	N	1.101119	-0.352900	0.280736
N97	N	1.030591	-0.343900	0.342926
H98	H	1.026075	-0.360173	0.409966
N99	N	1.111553	-0.123454	0.187855
N100	N	1.106887	-0.098551	0.270797
H101	H	1.102379	-0.114832	0.337828
H102	H	1.114684	-0.027227	0.168600
H103	H	1.131676	-0.514552	-0.261456
H104	H	1.101246	-0.408084	0.261454
