data_functionalizedCrystal
_audit_creation_method	'MofGen! by Chris Wilmer'
_symmetry_space_group_name_H-M	'P1'
_symmetry_Int_Tables_number	1
_symmetry_cell_setting	triclinic
loop_
_symmetry_equiv_pos_as_xyz
  x,y,z
_cell_length_a	14.044220
_cell_length_b	14.853568
_cell_length_c	12.503572
_cell_angle_alpha	86.467190
_cell_angle_beta	86.164750
_cell_angle_gamma	91.587968
loop_
_atom_site_label
_atom_site_type_symbol
_atom_site_fract_x
_atom_site_fract_y
_atom_site_fract_z
O1	O	1.263445	-0.212603	-0.089186
O2	O	0.987467	-0.204758	-0.089214
O3	O	1.132828	-0.078035	-0.089204
O4	O	1.118084	-0.339327	-0.089195
O5	O	1.121896	-0.087582	0.089437
O6	O	0.976535	-0.214305	0.089427
O7	O	1.252513	-0.222151	0.089455
Cu8	Cu	1.113526	-0.219100	0.105753
Cu9	Cu	1.126454	-0.207809	-0.105511
O10	O	1.107152	-0.348874	0.089446
C11	C	0.946682	-0.206098	0.000103
C12	C	0.841444	-0.195856	0.000092
C13	C	1.126694	-0.049167	0.000112
C14	C	1.124692	0.051076	0.000101
N15	N	1.104440	-0.227041	0.254344
C16	C	0.648756	-0.177133	0.000113
C17	C	0.591218	-0.249772	0.000120
C18	C	0.484001	-0.239354	0.000131
C19	C	0.755984	-0.187549	0.000101
C20	C	1.293298	-0.220811	0.000136
C21	C	1.398537	-0.231053	0.000140
C22	C	1.029881	0.471121	0.000105
C23	C	1.202573	0.478719	0.000122
C24	C	1.204455	0.384537	0.000118
C25	C	1.119050	0.333642	0.000109
C26	C	1.031761	0.376930	0.000104
C27	C	1.291742	0.341241	0.000133
C28	C	1.293628	0.247053	0.000130
C29	C	1.208222	0.196157	0.000113
C30	C	1.120930	0.239450	0.000107
C31	C	1.035524	0.188556	0.000098
C32	C	0.948231	0.231848	0.000084
C33	C	0.946354	0.326034	0.000087
C34	C	1.210098	0.101971	0.000111
C35	C	1.037404	0.094364	0.000097
C36	C	1.113286	0.622258	0.000123
C37	C	1.115287	0.522016	0.000115
N38	N	1.135548	-0.199861	-0.254103
C39	C	1.091073	-0.238731	0.473459
C40	C	1.148911	-0.188174	0.526790
C41	C	1.141474	-0.194678	0.648712
C42	C	1.098509	-0.232228	0.351525
H43	H	0.622482	-0.319784	0.000117
H44	H	1.035976	-0.286898	0.519363
O45	O	1.285546	0.528103	0.000321
C46	C	1.332889	0.502433	0.092828
H47	H	1.278930	0.470857	0.157491
H48	H	1.389099	0.451252	0.071909
C49	C	1.447837	0.624968	0.055365
C50	C	1.381563	0.586193	0.134789
H51	H	1.477865	0.676633	0.081247
H52	H	1.415944	0.642261	-0.006961
H53	H	1.494670	0.582308	0.037940
H54	H	1.334725	0.628849	0.152203
H55	H	1.413449	0.568909	0.197119
H56	H	1.204013	-0.140005	0.480880
H57	H	0.617495	-0.107126	0.000116
H58	H	0.967855	0.052932	0.000084
O59	O	1.294917	0.059967	-0.000069
C60	C	1.352661	0.090263	-0.092566
H61	H	1.305583	0.117395	-0.157237
H62	H	1.404130	0.146182	-0.071636
C63	C	1.467628	-0.022157	-0.055089
C64	C	1.409805	0.011161	-0.134522
H65	H	1.502881	-0.070949	-0.080968
H66	H	1.428728	-0.042566	0.007231
H67	H	1.510511	0.024450	-0.037654
H68	H	1.366916	-0.035443	-0.151945
H69	H	1.448700	0.031560	-0.196845
H70	H	0.878693	0.190397	0.000084
H71	H	0.875285	0.361291	0.000077
H72	H	0.958809	0.506374	0.000090
O73	O	1.374768	0.390592	-0.000001
C74	C	1.433412	0.374856	-0.092527
H75	H	1.412123	0.307035	-0.123370
H76	H	1.424342	0.430798	-0.157318
C77	C	1.564630	0.457013	-0.026529
C78	C	1.538488	0.373710	-0.064405
H79	H	1.629446	0.456309	-0.009185
H80	H	1.525120	0.467618	0.035806
H81	H	1.557065	0.503622	-0.080528
H82	H	1.546042	0.327103	-0.010402
H83	H	1.578002	0.363097	-0.126731
O84	O	1.378384	0.204951	0.000322
C85	C	1.378974	0.145725	0.092822
H86	H	1.325455	0.168488	0.157491
H87	H	1.358480	0.074443	0.071894
C88	C	1.545330	0.118614	0.055348
C89	C	1.479603	0.146577	0.134779
H90	H	1.607403	0.119135	0.081228
H91	H	1.544933	0.158513	-0.006973
H92	H	1.528240	0.059214	0.037916
H93	H	1.496687	0.205979	0.152200
H94	H	1.480006	0.106688	0.197104
