data_functionalizedCrystal
_audit_creation_method	'MofGen! by Chris Wilmer'
_symmetry_space_group_name_H-M	'P1'
_symmetry_Int_Tables_number	1
_symmetry_cell_setting	triclinic
loop_
_symmetry_equiv_pos_as_xyz
  x,y,z
_cell_length_a	16.109302
_cell_length_b	10.654545
_cell_length_c	14.586319
_cell_angle_alpha	89.998553
_cell_angle_beta	89.994552
_cell_angle_gamma	83.973604
loop_
_atom_site_label
_atom_site_type_symbol
_atom_site_fract_x
_atom_site_fract_y
_atom_site_fract_z
O1	O	1.104091	0.161423	-0.076277
O2	O	0.862148	0.181511	-0.076269
O3	O	0.988682	-0.011348	-0.076272
O4	O	0.977557	0.354282	-0.076273
O5	O	0.988673	-0.011350	0.076208
O6	O	0.862139	0.181508	0.076212
O7	O	1.104082	0.161420	0.076204
Cu8	Cu	0.983110	0.171464	0.090131
Cu9	Cu	0.983120	0.171467	-0.090196
O10	O	0.977548	0.354279	0.076207
C11	C	0.831164	0.180695	-0.000028
C12	C	0.738854	0.178255	-0.000025
C13	C	0.526475	0.172612	0.083083
C14	C	0.439741	0.170306	0.083080
C15	C	0.439761	0.170316	-0.083163
C16	C	0.526494	0.172613	-0.083159
C17	C	0.569848	0.173767	-0.000033
C18	C	0.396382	0.169164	-0.000040
C19	C	0.302341	0.166664	-0.000044
C20	C	0.663895	0.176265	-0.000028
C21	C	0.987860	-0.058136	-0.000034
C22	C	0.985416	-0.197546	-0.000039
C23	C	0.985435	-0.197552	-0.166278
C24	C	0.984300	-0.263049	-0.249397
C25	C	0.982003	-0.394036	-0.249398
C26	C	0.980840	-0.459529	-0.166271
C27	C	0.981975	-0.394032	-0.083152
C28	C	0.984274	-0.263042	-0.083160
C29	C	0.981950	-0.394026	0.083085
C30	C	0.984252	-0.263039	0.083088
C31	C	0.980786	-0.459519	0.166212
C32	C	0.981927	-0.394023	0.249334
C33	C	0.984225	-0.263027	0.249331
C34	C	0.985388	-0.197542	0.166207
C35	C	1.135066	0.162236	-0.000039
C36	C	1.227376	0.164676	-0.000048
C37	C	0.978370	0.401067	-0.000033
C38	C	0.980814	0.540477	-0.000034
N39	N	0.983108	0.171461	0.216962
N40	N	0.983128	0.171460	-0.217027
C41	C	1.039156	0.086092	0.451967
C42	C	1.039159	0.086089	0.547949
C43	C	0.927074	0.256834	0.547961
C44	C	0.927069	0.256830	0.451982
C45	C	0.983114	0.171460	0.403987
C46	C	0.983122	0.171461	0.595948
C47	C	0.983125	0.171458	0.700015
C48	C	0.983111	0.171461	0.299913
H49	H	0.404430	0.169366	0.150762
Br50	Br	0.851000	0.372685	0.386858
Br51	Br	0.380922	0.168710	-0.195971
H52	H	0.561810	0.173550	-0.150846
Br53	Br	0.980335	-0.482907	0.362137
H54	H	0.987315	-0.090896	-0.166286
Br55	Br	0.980452	-0.482929	-0.362203
Br56	Br	1.115215	-0.029779	0.613063
Br57	Br	1.115216	-0.029769	0.386835
Br58	Br	0.985757	-0.174147	0.362142
Br59	Br	0.585311	0.174175	0.195896
Br60	Br	0.985901	-0.174166	-0.362208
Br61	Br	0.988513	-0.019773	0.166197
Br62	Br	0.977701	-0.637295	-0.166274
H63	H	0.978911	-0.566175	0.166206
H64	H	0.881444	0.326341	0.587048
