data_functionalizedCrystal
_audit_creation_method	'MofGen! by Chris Wilmer'
_symmetry_space_group_name_H-M	'P1'
_symmetry_Int_Tables_number	1
_symmetry_cell_setting	triclinic
loop_
_symmetry_equiv_pos_as_xyz
  x,y,z
_cell_length_a	16.992694
_cell_length_b	19.188924
_cell_length_c	15.455301
_cell_angle_alpha	86.989818
_cell_angle_beta	87.178730
_cell_angle_gamma	86.905094
loop_
_atom_site_label
_atom_site_type_symbol
_atom_site_fract_x
_atom_site_fract_y
_atom_site_fract_z
O1	O	1.042929	0.150912	-0.072029
O2	O	1.542929	0.650912	0.427971
O3	O	0.814650	0.149289	-0.072055
O4	O	1.314650	0.649289	0.427945
O5	O	0.935380	0.048830	-0.072031
O6	O	1.435380	0.548830	0.427969
O7	O	0.922200	0.251372	-0.072053
O8	O	1.422200	0.751372	0.427947
O9	O	0.929262	0.043030	0.072231
O10	O	1.429262	0.543030	0.572231
O11	O	0.808532	0.143490	0.072208
O12	O	1.308532	0.643490	0.572208
O13	O	1.036811	0.145112	0.072233
O14	O	1.536811	0.645112	0.572233
Cu15	Cu	0.922113	0.143771	0.085393
Cu16	Cu	1.422113	0.643771	0.585393
Cu17	Cu	0.929348	0.150630	-0.085214
Cu18	Cu	1.429348	0.650630	0.414786
O19	O	0.916082	0.245572	0.072209
O20	O	1.416082	0.745572	0.572209
C21	C	0.782386	0.144301	0.000073
C22	C	1.282386	0.644301	0.500073
C23	C	0.695364	0.138068	0.000064
C24	C	1.195364	0.638068	0.500064
C25	C	0.644916	0.198208	0.000058
C26	C	1.144916	0.698208	0.500058
C27	C	0.563149	0.192347	0.000071
C28	C	1.063149	0.692347	0.500071
C29	C	0.531832	0.126345	0.000083
C30	C	1.031832	0.626345	0.500083
C31	C	0.582287	0.066201	0.000091
C32	C	1.082287	0.566201	0.500091
C33	C	0.664052	0.072062	0.000085
C34	C	1.164052	0.572062	0.500085
C35	C	0.288317	0.102051	0.000109
C36	C	0.788317	0.602051	0.500109
C37	C	0.206546	0.096194	0.000113
C38	C	0.706546	0.596194	0.500113
C39	C	0.187414	0.222341	0.000093
C40	C	0.687414	0.722341	0.500093
C41	C	0.269182	0.228197	0.000082
C42	C	0.769182	0.728197	0.500082
C43	C	0.319629	0.168052	0.000095
C44	C	0.819629	0.668052	0.500095
N45	N	0.448254	0.120353	0.000093
N46	N	0.948254	0.620353	0.500093
N47	N	0.403205	0.174045	0.000091
N48	N	0.903205	0.674045	0.500091
C49	C	0.931895	0.019894	0.000101
C50	C	1.431895	0.519894	0.500101
C51	C	0.930616	-0.057686	0.000103
C52	C	1.430616	0.442314	0.500103
C53	C	0.933354	-0.090958	-0.078535
C54	C	1.433354	0.409042	0.421465
C55	C	0.932142	-0.163851	-0.078542
C56	C	1.432142	0.336149	0.421458
C57	C	0.928207	-0.203471	0.000094
C58	C	1.428207	0.296529	0.500094
C59	C	0.925464	-0.170190	0.078742
C60	C	1.425464	0.329810	0.578742
C61	C	0.926669	-0.097297	0.078747
C62	C	1.426669	0.402703	0.578747
N63	N	0.968445	-0.322987	0.058625
N64	N	1.468445	0.177013	0.558625
N65	N	0.967303	-0.392232	0.058616
N66	N	1.467303	0.107768	0.558616
C67	C	0.924576	-0.423092	0.000085
C68	C	1.424576	0.076908	0.500085
N69	N	0.883045	-0.382091	-0.058449
N70	N	1.383045	0.117909	0.441551
N71	N	0.884192	-0.312840	-0.058441
N72	N	1.384192	0.187160	0.441559
C73	C	0.926900	-0.282511	0.000098
C74	C	1.426900	0.217489	0.500098
C75	C	0.925999	-0.535403	-0.078565
C76	C	1.425999	-0.035403	0.421435
C77	C	0.924782	-0.608298	-0.078569
C78	C	1.424782	-0.108298	0.421431
C79	C	0.918112	-0.614636	0.078717
C80	C	1.418112	-0.114636	0.578717
C81	C	0.919321	-0.541742	0.078718
C82	C	1.419321	-0.041742	0.578718
C83	C	0.923269	-0.502130	0.000075
C84	C	1.423269	-0.002130	0.500075
C85	C	1.069075	0.150101	0.000103
C86	C	1.569075	0.650101	0.500103
C87	C	1.156098	0.156334	0.000107
C88	C	1.656098	0.656334	0.500107
C89	C	0.919567	0.274508	0.000075
C90	C	1.419567	0.774508	0.500075
C91	C	0.920846	0.352088	0.000068
C92	C	1.420846	0.852088	0.500068
N93	N	0.917030	0.138947	0.205389
N94	N	1.417030	0.638947	0.705389
N95	N	0.934438	0.155449	-0.205210
N96	N	1.434438	0.655449	0.294790
C97	C	0.962505	0.182140	0.250780
C98	C	1.462505	0.682140	0.750780
C99	C	0.958671	0.178488	0.341588
C100	C	1.458671	0.678488	0.841588
C101	C	0.909358	0.131646	0.387003
C102	C	1.409358	0.631646	0.887003
C103	C	0.863881	0.088448	0.341605
C104	C	1.363881	0.588448	0.841605
C105	C	0.867720	0.092097	0.250799
C106	C	1.367720	0.592097	0.750799
C107	C	0.892800	0.115901	0.658586
C108	C	1.392800	0.615901	1.158586
C109	C	0.888963	0.112257	0.749398
C110	C	1.388963	0.612257	1.249398
C111	C	0.983754	0.202296	0.749375
C112	C	1.483754	0.702296	1.249375
C113	C	0.987585	0.205944	0.658566
C114	C	1.487585	0.705944	1.158566
C115	C	0.942111	0.162744	0.613177
C116	C	1.442111	0.662744	1.113177
N117	N	0.905436	0.127913	0.479824
N118	N	1.405436	0.627913	0.979824
N119	N	0.946038	0.166473	0.520358
N120	N	1.446038	0.666473	1.020358
H121	H	0.181052	0.042445	0.000122
H122	H	0.681052	0.542445	0.500122
H123	H	0.556782	0.012460	0.000114
H124	H	1.056782	0.512460	0.500114
O125	O	0.913875	-0.657361	0.163533
O126	O	1.413875	-0.157361	0.663533
H127	H	0.859750	-0.687483	0.167286
H128	H	1.359750	-0.187483	0.667286
O129	O	0.930238	-0.492672	-0.163383
O130	O	1.430238	0.007328	0.336617
H131	H	0.985019	-0.508391	-0.201096
H132	H	1.485019	-0.008391	0.298904
O133	O	0.835777	0.061728	0.798385
O134	O	1.335777	0.561728	1.298385
H135	H	0.773806	0.074080	0.780952
H136	H	1.273806	0.574080	1.280952
H137	H	0.670407	0.251953	0.000047
H138	H	1.170407	0.751953	0.500047
H139	H	0.146331	0.271307	0.000085
H140	H	0.646331	0.771307	0.500085
H141	H	0.924436	-0.070208	0.142785
H142	H	1.424436	0.429792	0.642785
H143	H	0.705126	0.023090	0.000089
H144	H	1.205126	0.523090	0.500089
O145	O	0.916377	-0.505854	0.163539
O146	O	1.416377	-0.005854	0.663539
H147	H	0.917869	-0.448512	0.150332
H148	H	1.417869	0.051488	0.650332
H149	H	1.027743	0.244085	0.621595
H150	H	1.527743	0.744085	1.121595
O151	O	0.843747	0.069317	0.609634
O152	O	1.343747	0.569317	1.109634
H153	H	0.808805	0.036141	0.656472
H154	H	1.308805	0.536141	1.156472
O155	O	0.937592	-0.048231	-0.163353
O156	O	1.437592	0.451769	0.336647
H157	H	0.939281	-0.083618	-0.218037
H158	H	1.439281	0.416382	0.281963
O159	O	0.302949	0.299387	0.000088
O160	O	0.802949	0.799387	0.500088
H161	H	0.285146	0.330877	-0.058705
H162	H	0.785146	0.830877	0.441295
H163	H	0.823734	0.050305	0.378590
H164	H	1.323734	0.550305	0.878590
H165	H	1.020776	0.237466	0.786341
H166	H	1.520776	0.737466	1.286341
O167	O	0.935093	-0.199748	-0.163363
O168	O	1.435093	0.300252	0.336637
H169	H	0.988121	-0.236054	-0.167111
H170	H	1.488121	0.263946	0.332889
O171	O	0.342724	0.037184	0.000122
O172	O	0.842724	0.537184	0.500122
H173	H	0.307208	-0.009693	0.000124
H174	H	0.807208	0.490307	0.500124
O175	O	0.921234	-0.212917	0.163559
O176	O	1.421234	0.287083	0.663559
H177	H	0.920870	-0.269195	0.150346
H178	H	1.420870	0.230805	0.650346
O179	O	0.927705	-0.644189	-0.163389
O180	O	1.427705	-0.144189	0.336611
H181	H	0.930648	-0.604395	-0.218069
H182	H	1.430648	-0.104395	0.281931
O183	O	0.508734	0.257211	0.000065
O184	O	1.008734	0.757211	0.500065
H185	H	0.544248	0.304090	0.000045
H186	H	1.044248	0.804090	0.500045
O187	O	1.015689	0.232666	0.201796
O188	O	1.515689	0.732666	0.701796
H189	H	1.077661	0.220302	0.219215
H190	H	1.577661	0.720302	0.719215
O191	O	1.007715	0.225076	0.390549
O192	O	1.507715	0.725076	0.890549
H193	H	1.042642	0.258267	0.343713
H194	H	1.542642	0.758267	0.843713
O195	O	0.818669	0.045516	0.201834
O196	O	1.318669	0.545516	0.701834
H197	H	0.783726	0.012335	0.248668
H198	H	1.283726	0.512335	0.748668
