data_functionalizedCrystal
_audit_creation_method	'MofGen! by Chris Wilmer'
_symmetry_space_group_name_H-M	'P1'
_symmetry_Int_Tables_number	1
_symmetry_cell_setting	triclinic
loop_
_symmetry_equiv_pos_as_xyz
  x,y,z
_cell_length_a	19.121102
_cell_length_b	21.295417
_cell_length_c	19.120904
_cell_angle_alpha	87.591662
_cell_angle_beta	89.911827
_cell_angle_gamma	87.584620
loop_
_atom_site_label
_atom_site_type_symbol
_atom_site_fract_x
_atom_site_fract_y
_atom_site_fract_z
Zn1	Zn	1.054814	-0.307921	0.442032
Zn2	Zn	1.388148	0.025413	0.775365
Zn3	Zn	1.721481	0.358746	1.108698
Zn4	Zn	1.059724	-0.408895	0.324785
Zn5	Zn	1.393057	-0.075562	0.658118
Zn6	Zn	1.726390	0.257772	0.991452
Zn7	Zn	0.942584	-0.298967	0.319816
Zn8	Zn	1.275917	0.034366	0.653150
Zn9	Zn	1.609251	0.367699	0.986483
Zn10	Zn	0.937535	-0.408472	0.436987
Zn11	Zn	1.270868	-0.075138	0.770321
Zn12	Zn	1.604202	0.258195	1.103654
O13	O	0.998664	-0.356064	0.380905
O14	O	1.331998	-0.022730	0.714238
O15	O	1.665331	0.310603	1.047572
O16	O	1.153571	-0.325239	0.430669
O17	O	1.486904	0.008094	0.764002
O18	O	1.820237	0.341427	1.097336
O19	O	1.048352	-0.390743	0.226021
O20	O	1.381686	-0.057409	0.559355
O21	O	1.715019	0.275924	0.892688
O22	O	0.957530	-0.212069	0.336060
O23	O	1.290864	0.121264	0.669393
O24	O	1.624197	0.454598	1.002727
O25	O	1.157177	-0.399425	0.344528
O26	O	1.490511	-0.066091	0.677862
O27	O	1.823844	0.267242	1.011195
O28	O	1.039985	-0.218647	0.425851
O29	O	1.373319	0.114686	0.759184
O30	O	1.706652	0.448020	1.092518
O31	O	0.962291	-0.309980	0.222371
O32	O	1.295624	0.023354	0.555704
O33	O	1.628957	0.356687	0.889038
O34	O	0.843809	-0.309569	0.331169
O35	O	1.177143	0.023764	0.664502
O36	O	1.510476	0.357097	0.997836
O37	O	0.948925	-0.398703	0.535761
O38	O	1.282258	-0.065370	0.869094
O39	O	1.615591	0.267963	1.202428
O40	O	0.840100	-0.390022	0.417254
O41	O	1.173433	-0.056688	0.750587
O42	O	1.506766	0.276645	1.083921
O43	O	1.035089	-0.324829	0.539467
O44	O	1.368423	0.008504	0.872800
O45	O	1.701756	0.341838	1.206134
O46	O	1.043456	-0.496925	0.339637
O47	O	1.376790	-0.163591	0.672970
O48	O	1.710123	0.169742	1.006304
O49	O	0.953685	-0.496614	0.422072
O50	O	1.287018	-0.163280	0.755405
O51	O	1.620352	0.170053	1.088738
C52	C	0.816517	-0.348778	0.373125
C53	C	1.149850	-0.015445	0.706459
C54	C	1.483184	0.317888	1.039792
C55	C	0.738593	-0.345677	0.369814
C56	C	1.071926	-0.012344	0.703147
C57	C	1.405260	0.320989	1.036480
C58	C	0.700074	-0.386166	0.413007
C59	C	1.033407	-0.052833	0.746341
C60	C	1.366741	0.280501	1.079674
C61	C	0.626856	-0.383244	0.409899
C62	C	0.960189	-0.049911	0.743232
C63	C	1.293523	0.283422	1.076566
C64	C	0.592158	-0.339836	0.363593
C65	C	0.925492	-0.006503	0.696927
C66	C	1.258825	0.326830	1.030260
C67	C	0.630682	-0.299344	0.320398
C68	C	0.964016	0.033990	0.653731
C69	C	1.297349	0.367323	0.987065
C70	C	0.703899	-0.302263	0.323510
C71	C	1.037232	0.031071	0.656843
C72	C	1.370566	0.364404	0.990177
C73	C	0.371187	-0.328921	0.351961
C74	C	0.704520	0.004412	0.685294
C75	C	1.037853	0.337746	1.018627
C76	C	0.297965	-0.326006	0.348850
C77	C	0.631298	0.007327	0.682184
C78	C	0.964632	0.340661	1.015517
C79	C	0.294144	-0.409906	0.438353
C80	C	0.627477	-0.076573	0.771686
C81	C	0.960810	0.256760	1.105020
C82	C	0.367362	-0.412824	0.441458
C83	C	0.700695	-0.079491	0.774791
C84	C	1.034029	0.253842	1.108125
C85	C	0.405880	-0.372329	0.398265
C86	C	0.739213	-0.038996	0.731599
C87	C	1.072546	0.294337	1.064932
C88	C	0.517318	-0.336850	0.360413
C89	C	0.850651	-0.003517	0.693747
C90	C	1.183984	0.329816	1.027080
C91	C	0.480719	-0.375313	0.401449
C92	C	0.814052	-0.041980	0.734782
C93	C	1.147385	0.291354	1.068116
C94	C	0.998574	-0.519610	0.380862
C95	C	1.331907	-0.186277	0.714196
C96	C	1.665241	0.147056	1.047529
C97	C	0.998599	-0.589580	0.380870
C98	C	1.331932	-0.256246	0.714203
C99	C	1.665265	0.077087	1.047537
C100	C	1.045380	-0.622590	0.337994
C101	C	1.378714	-0.289257	0.671327
C102	C	1.712047	0.044076	1.004661
C103	C	1.045413	-0.688335	0.338011
C104	C	1.378746	-0.355001	0.671345
C105	C	1.712079	-0.021668	1.004678
C106	C	0.998651	-0.721065	0.380897
C107	C	1.331984	-0.387732	0.714230
C108	C	1.665317	-0.054398	1.047563
C109	C	0.951865	-0.688046	0.423781
C110	C	1.285199	-0.354713	0.757115
C111	C	1.618532	-0.021380	1.090448
C112	C	0.951839	-0.622304	0.423768
C113	C	1.285173	-0.288970	0.757101
C114	C	1.618506	0.044363	1.090435
N115	N	0.937094	-0.822078	0.383622
N116	N	1.270427	-0.488744	0.716955
N117	N	1.603761	-0.155411	1.050288
N118	N	0.937121	-0.884530	0.383630
N119	N	1.270454	-0.551197	0.716964
N120	N	1.603788	-0.217864	1.050297
C121	C	0.998728	-0.919144	0.380940
C122	C	1.332061	-0.585811	0.714273
C123	C	1.665394	-0.252478	1.047607
N124	N	1.060308	-0.888946	0.378228
N125	N	1.393642	-0.555612	0.711561
N126	N	1.726975	-0.222279	1.044894
N127	N	1.060281	-0.826487	0.378215
N128	N	1.393614	-0.493154	0.711549
N129	N	1.726947	-0.159820	1.044882
C130	C	0.998674	-0.792352	0.380916
C131	C	1.332007	-0.459019	0.714249
C132	C	1.665341	-0.125685	1.047583
C133	C	1.045548	-1.023443	0.338080
C134	C	1.378881	-0.690110	0.671414
C135	C	1.712215	-0.356776	1.004747
C136	C	1.045581	-1.089189	0.338103
C137	C	1.378915	-0.755855	0.671436
C138	C	1.712248	-0.422522	1.004769
C139	C	0.952028	-1.088899	0.423869
C140	C	1.285361	-0.755565	0.757202
C141	C	1.618695	-0.422232	1.090535
C142	C	0.952001	-1.023154	0.423850
C143	C	1.285334	-0.689821	0.757184
C144	C	1.618668	-0.356488	1.090517
C145	C	0.998760	-0.990430	0.380953
C146	C	1.332094	-0.657097	0.714286
C147	C	1.665427	-0.323764	1.047619
C148	C	1.181523	-0.363378	0.388716
C149	C	1.514856	-0.030045	0.722049
C150	C	1.848189	0.303289	1.055382
C151	C	1.259446	-0.366495	0.392044
C152	C	1.592779	-0.033161	0.725377
C153	C	1.926113	0.300172	1.058711
C154	C	0.990896	-0.362718	0.563763
C155	C	1.324230	-0.029384	0.897096
C156	C	1.657563	0.303949	1.230429
C157	C	0.987586	-0.365553	0.641686
C158	C	1.320919	-0.032220	0.975019
C159	C	1.654253	0.301113	1.308352
C160	C	0.998773	-0.191880	0.380964
C161	C	1.332107	0.141454	0.714297
C162	C	1.665440	0.474787	1.047631
C163	C	0.998820	-0.121914	0.380989
C164	C	1.332153	0.211419	0.714323
C165	C	1.665486	0.544752	1.047656
C166	C	1.006442	-0.349392	0.198761
C167	C	1.339776	-0.016058	0.532094
C168	C	1.673109	0.317275	0.865427
C169	C	1.009889	-0.346384	0.120844
C170	C	1.343222	-0.013051	0.454177
C171	C	1.676555	0.320282	0.787510
C172	C	1.030890	-0.328425	0.680225
C173	C	1.364223	0.004909	1.013558
C174	C	1.697556	0.338242	1.346891
C175	C	1.027771	-0.331086	0.753441
C176	C	1.361104	0.002247	1.086775
C177	C	1.694438	0.335580	1.420108
C178	C	0.981351	-0.370880	0.788118
C179	C	1.314685	-0.037547	1.121451
C180	C	1.648018	0.295786	1.454784
C181	C	0.938043	-0.408010	0.749573
C182	C	1.271376	-0.074677	1.082907
C183	C	1.604709	0.258657	1.416240
C184	C	0.941159	-0.405345	0.676358
C185	C	1.274492	-0.072011	1.009691
C186	C	1.607825	0.261322	1.343025
C187	C	0.969696	-0.380849	1.009084
C188	C	1.303029	-0.047515	1.342417
C189	C	1.636363	0.285818	1.675751
C190	C	0.966585	-0.383513	1.082305
C191	C	1.299918	-0.050179	1.415638
C192	C	1.633251	0.283154	1.748971
C193	C	1.056312	-0.306588	1.086168
C194	C	1.389646	0.026746	1.419501
C195	C	1.722979	0.360079	1.752834
C196	C	1.059427	-0.303929	1.012951
C197	C	1.392760	0.029405	1.346284
C198	C	1.726094	0.362738	1.679617
C199	C	1.016116	-0.341056	0.974413
C200	C	1.349449	-0.007723	1.307746
C201	C	1.682783	0.325610	1.641079
C202	C	0.978164	-0.373603	0.862957
C203	C	1.311497	-0.040270	1.196290
C204	C	1.644830	0.293063	1.529623
C205	C	1.019300	-0.338330	0.899575
C206	C	1.352634	-0.004996	1.232908
C207	C	1.685967	0.328337	1.566241
H208	H	0.595497	-0.416215	0.445071
H209	H	0.928830	-0.082882	0.778405
H210	H	1.262164	0.250452	1.111738
H211	H	0.269716	-0.290651	0.311147
H212	H	0.603050	0.042682	0.644480
H213	H	0.936383	0.376015	0.977813
F214	F	1.068696	-0.295973	0.862668
F215	F	1.402029	0.037360	1.196001
F216	F	1.735362	0.370693	1.529335
H217	H	0.602426	-0.263997	0.282698
H218	H	0.935759	0.069336	0.616031
H219	H	1.269092	0.402669	0.949364
F220	F	1.095153	-0.587767	0.292346
F221	F	1.428487	-0.254434	0.625680
F222	F	1.761820	0.078899	0.959013
F223	F	0.412171	-0.285821	0.305993
F224	F	0.745504	0.047513	0.639326
F225	F	1.078837	0.380846	0.972659
H226	H	0.928782	-0.415919	1.110536
H227	H	1.262115	-0.082586	1.443869
H228	H	1.595449	0.250748	1.777203
F229	F	0.253145	-0.453002	0.484317
F230	F	0.586479	-0.119669	0.817650
F231	F	0.919812	0.213665	1.150984
F232	F	0.928764	-0.415956	0.899868
F233	F	1.262098	-0.082623	1.233202
F234	F	1.595431	0.250711	1.566535
F235	F	0.404284	-0.459026	0.490742
F236	F	0.737618	-0.125693	0.824075
F237	F	1.070951	0.207641	1.157408
F238	F	0.480383	-0.290653	0.311133
F239	F	0.813717	0.042680	0.644466
F240	F	1.147050	0.376013	0.977800
H241	H	0.913743	-0.595426	0.458684
H242	H	1.247077	-0.262092	0.792017
H243	H	1.580410	0.071241	1.125350
H244	H	0.934439	-0.411090	0.977716
H245	H	1.267772	-0.077757	1.311049
H246	H	1.601106	0.255576	1.644382
F247	F	0.744893	-0.259168	0.277539
F248	F	1.078227	0.074165	0.610872
F249	F	1.411560	0.407499	0.944206
F250	F	0.517648	-0.421508	0.450730
F251	F	0.850981	-0.088175	0.784064
F252	F	1.184314	0.245158	1.117397
H253	H	1.091573	-0.276360	1.117553
H254	H	1.424906	0.056973	1.450886
H255	H	1.758240	0.390307	1.784220
H256	H	1.083625	-0.996798	0.303153
H257	H	1.416958	-0.663465	0.636486
H258	H	1.750291	-0.330131	0.969819
H259	H	0.913904	-0.996275	0.458761
H260	H	1.247237	-0.662942	0.792094
H261	H	1.580571	-0.329608	1.125428
F262	F	1.095206	-0.723475	0.292374
F263	F	1.428539	-0.390141	0.625708
F264	F	1.761872	-0.056808	0.959041
F265	F	1.095380	-1.124322	0.292470
F266	F	1.428713	-0.790988	0.625804
F267	F	1.762047	-0.457655	0.959137
H268	H	0.905889	-0.435572	0.644980
H269	H	1.239222	-0.102239	0.978313
H270	H	1.572556	0.231094	1.311647
F271	F	1.073885	-0.291591	0.794455
F272	F	1.407218	0.041742	1.127788
F273	F	1.740552	0.375075	1.461122
H274	H	0.728320	-0.421515	0.450712
H275	H	1.061653	-0.088182	0.784046
H276	H	1.394986	0.245151	1.117379
F277	F	0.902101	-0.722881	0.469426
F278	F	1.235434	-0.389548	0.802759
F279	F	1.568767	-0.056215	1.136092
F280	F	0.902264	-1.123728	0.469515
F281	F	1.235597	-0.790395	0.802848
F282	F	1.568931	-0.457062	1.136182
F283	F	1.080300	-0.286074	0.643326
F284	F	1.413633	0.047260	0.976659
F285	F	1.746967	0.380593	1.309993
F286	F	1.108834	-0.261575	0.976051
F287	F	1.442167	0.071758	1.309384
F288	F	1.775500	0.405092	1.642718
H289	H	0.900244	-0.440409	0.777813
H290	H	1.233578	-0.107075	1.111146
H291	H	1.566911	0.226258	1.444479
