data_functionalizedCrystal
_audit_creation_method	'MofGen! by Chris Wilmer'
_symmetry_space_group_name_H-M	'P1'
_symmetry_Int_Tables_number	1
_symmetry_cell_setting	triclinic
loop_
_symmetry_equiv_pos_as_xyz
  x,y,z
_cell_length_a	19.188925
_cell_length_b	19.188930
_cell_length_c	16.176319
_cell_angle_alpha	89.988074
_cell_angle_beta	89.991631
_cell_angle_gamma	83.143665
loop_
_atom_site_label
_atom_site_type_symbol
_atom_site_fract_x
_atom_site_fract_y
_atom_site_fract_z
O1	O	0.926150	0.087151	-0.068774
O2	O	1.259483	0.420485	0.264560
O3	O	1.592817	0.753818	0.597893
O4	O	0.722838	0.098889	-0.068773
O5	O	1.056171	0.432223	0.264561
O6	O	1.389505	0.765556	0.597894
O7	O	0.830361	-0.008635	-0.068757
O8	O	1.163695	0.324698	0.264576
O9	O	1.497028	0.658031	0.597910
O10	O	0.818627	0.194676	-0.068789
O11	O	1.151960	0.528009	0.264544
O12	O	1.485294	0.861343	0.597877
O13	O	0.830346	-0.008642	0.068736
O14	O	1.163680	0.324691	0.402070
O15	O	1.497013	0.658024	0.735403
O16	O	0.722823	0.098883	0.068721
O17	O	1.056157	0.432216	0.402054
O18	O	1.389490	0.765549	0.735387
O19	O	0.926135	0.087144	0.068720
O20	O	1.259469	0.420478	0.402053
O21	O	1.592802	0.753811	0.735386
Cu22	Cu	0.824478	0.093013	0.081274
Cu23	Cu	1.157811	0.426346	0.414608
Cu24	Cu	1.491145	0.759680	0.747941
Cu25	Cu	0.824495	0.093021	-0.081327
Cu26	Cu	1.157829	0.426354	0.252006
Cu27	Cu	1.491162	0.759688	0.585339
O28	O	0.818612	0.194669	0.068704
O29	O	1.151945	0.528003	0.402037
O30	O	1.485279	0.861336	0.735371
C31	C	0.696820	0.098507	-0.000026
C32	C	1.030153	0.431840	0.333308
C33	C	1.363486	0.765173	0.666641
C34	C	0.619315	0.097367	-0.000025
C35	C	0.952648	0.430701	0.333309
C36	C	1.285982	0.764034	0.666642
C37	C	0.057545	0.152831	-0.000035
C38	C	0.390878	0.486165	0.333298
C39	C	0.724211	0.819498	0.666631
C40	C	0.130368	0.153908	-0.000040
C41	C	0.463701	0.487241	0.333293
C42	C	0.797035	0.820575	0.666627
C43	C	0.175302	0.090816	-0.000028
C44	C	0.508636	0.424149	0.333305
C45	C	0.841969	0.757482	0.666638
C46	C	0.147408	0.026642	-0.000033
C47	C	0.480742	0.359976	0.333300
C48	C	0.814075	0.693309	0.666633
C49	C	0.074586	0.025568	-0.000037
C50	C	0.407920	0.358901	0.333296
C51	C	0.741253	0.692234	0.666630
N52	N	0.295975	0.045137	0.046783
N53	N	0.629308	0.378471	0.380116
N54	N	0.962641	0.711804	0.713449
N55	N	0.365152	0.046162	0.046788
N56	N	0.698485	0.379496	0.380121
N57	N	1.031818	0.712829	0.713454
C58	C	0.394712	0.094050	-0.000019
C59	C	0.728045	0.427383	0.333314
C60	C	1.061378	0.760716	0.666648
N61	N	0.352479	0.140884	-0.046821
N62	N	0.685813	0.474217	0.286512
N63	N	1.019146	0.807551	0.619846
N64	N	0.283295	0.139861	-0.046823
N65	N	0.616629	0.473194	0.286511
N66	N	0.949962	0.806527	0.619844
C67	C	0.254267	0.091974	-0.000025
C68	C	0.587600	0.425307	0.333308
C69	C	0.920933	0.758641	0.666642
C70	C	0.501561	0.159386	-0.000025
C71	C	0.834894	0.492720	0.333308
C72	C	1.168227	0.826053	0.666642
C73	C	0.574385	0.160460	-0.000035
C74	C	0.907719	0.493794	0.333299
C75	C	1.241052	0.827127	0.666632
C76	C	0.591425	0.033193	-0.000020
C77	C	0.924758	0.366526	0.333313
C78	C	1.258091	0.699859	0.666647
C79	C	0.518601	0.032121	-0.000018
C80	C	0.851934	0.365454	0.333315
C81	C	1.185268	0.698787	0.666648
C82	C	0.473673	0.095220	-0.000017
C83	C	0.807006	0.428553	0.333316
C84	C	1.140340	0.761886	0.666650
C85	C	0.829974	-0.034650	-0.000008
C86	C	1.163307	0.298683	0.333325
C87	C	1.496640	0.632017	0.666659
C88	C	0.828833	-0.112154	-0.000001
C89	C	1.162166	0.221179	0.333332
C90	C	1.495500	0.554512	0.666666
C91	C	0.891924	-0.157079	0.000003
C92	C	1.225257	0.176254	0.333336
C93	C	1.558591	0.509587	0.666669
C94	C	0.890852	-0.229903	-0.000010
C95	C	1.224186	0.103430	0.333323
C96	C	1.557519	0.436763	0.666656
C97	C	0.826686	-0.257799	-0.000011
C98	C	1.160020	0.075535	0.333323
C99	C	1.493353	0.408868	0.666656
C100	C	0.763587	-0.212864	-0.000019
C101	C	1.096920	0.120470	0.333314
C102	C	1.430254	0.453803	0.666648
C103	C	0.764660	-0.140041	-0.000014
C104	C	1.097994	0.193292	0.333319
C105	C	1.431327	0.526625	0.666653
N106	N	0.777634	-0.365805	0.046781
N107	N	1.110967	-0.032472	0.380114
N108	N	1.444300	0.300862	0.713448
N109	N	0.776618	-0.434984	0.046778
N110	N	1.109952	-0.101650	0.380111
N111	N	1.443285	0.231683	0.713445
C112	C	0.823448	-0.477207	-0.000027
C113	C	1.156781	-0.143874	0.333306
C114	C	1.490115	0.189459	0.666639
N115	N	0.871342	-0.447640	-0.046820
N116	N	1.204676	-0.114307	0.286514
N117	N	1.538009	0.219026	0.619847
N118	N	0.872360	-0.378456	-0.046813
N119	N	1.205693	-0.045122	0.286520
N120	N	1.539026	0.288211	0.619854
C121	C	0.825515	-0.336761	-0.000017
C122	C	1.158848	-0.003428	0.333317
C123	C	1.492182	0.329906	0.666650
C124	C	0.885381	-0.601097	-0.000039
C125	C	1.218715	-0.267763	0.333294
C126	C	1.552048	0.065570	0.666627
C127	C	0.884307	-0.673922	-0.000058
C128	C	1.217640	-0.340588	0.333276
C129	C	1.550974	-0.007255	0.666609
C130	C	0.757040	-0.656880	-0.000058
C131	C	1.090373	-0.323547	0.333275
C132	C	1.423706	0.009786	0.666609
C133	C	0.758116	-0.584057	-0.000048
C134	C	1.091449	-0.250724	0.333285
C135	C	1.424782	0.082610	0.666619
C136	C	0.822289	-0.556170	-0.000035
C137	C	1.155622	-0.222837	0.333299
C138	C	1.488955	0.110497	0.666632
C139	C	0.952154	0.087527	-0.000029
C140	C	1.285487	0.420861	0.333304
C141	C	1.618820	0.754194	0.666637
C142	C	1.029658	0.088666	-0.000036
C143	C	1.362992	0.422000	0.333298
C144	C	1.696325	0.755333	0.666631
C145	C	0.819000	0.220684	-0.000047
C146	C	1.152333	0.554017	0.333287
C147	C	1.485666	0.887350	0.666620
C148	C	0.820140	0.298188	-0.000059
C149	C	1.153474	0.631522	0.333274
C150	C	1.486807	0.964855	0.666607
N151	N	0.824471	0.093007	0.195640
N152	N	1.157804	0.426340	0.528973
N153	N	1.491137	0.759673	0.862306
N154	N	0.824508	0.093021	-0.195693
N155	N	1.157841	0.426355	0.137641
N156	N	1.491175	0.759688	0.470974
C157	C	0.872096	0.045414	0.238911
C158	C	1.205430	0.378747	0.572244
C159	C	1.538763	0.712081	0.905577
C160	C	0.872100	0.045413	0.325458
C161	C	1.205433	0.378747	0.658791
C162	C	1.538766	0.712080	0.992124
C163	C	0.824481	0.093009	0.368732
C164	C	1.157814	0.426343	0.702065
C165	C	1.491147	0.759676	1.035399
C166	C	0.776850	0.140604	0.325455
C167	C	1.110183	0.473937	0.658788
C168	C	1.443517	0.807271	0.992122
C169	C	0.776844	0.140601	0.238909
C170	C	1.110177	0.473934	0.572243
C171	C	1.443510	0.807268	0.905576
C172	C	0.776874	0.140617	0.674483
C173	C	1.110207	0.473950	1.007817
C174	C	1.443541	0.807284	1.341150
C175	C	0.776885	0.140618	0.761035
C176	C	1.110219	0.473951	1.094368
C177	C	1.443552	0.807285	1.427701
C178	C	0.872130	0.045430	0.761031
C179	C	1.205463	0.378763	1.094365
C180	C	1.538797	0.712096	1.427698
C181	C	0.872124	0.045426	0.674486
C182	C	1.205457	0.378760	1.007819
C183	C	1.538790	0.712093	1.341153
C184	C	0.824491	0.093019	0.631216
C185	C	1.157824	0.426352	0.964550
C186	C	1.491158	0.759685	1.297883
C187	C	0.824487	0.093018	0.537372
C188	C	1.157820	0.426351	0.870706
C189	C	1.491154	0.759685	1.204039
C190	C	0.824488	0.093014	0.462575
C191	C	1.157821	0.426347	0.795908
C192	C	1.491154	0.759680	1.129241
H193	H	0.597088	0.212713	-0.000041
H194	H	0.930421	0.546046	0.333292
H195	H	1.263755	0.879380	0.666626
H196	H	0.738106	0.179378	0.796267
H197	H	1.071439	0.512711	1.129601
H198	H	1.404772	0.846044	1.462934
H199	H	0.628010	-0.018178	-0.000017
H200	H	0.961343	0.315155	0.333316
H201	H	1.294676	0.648489	0.666650
H202	H	0.020968	0.204211	-0.000038
H203	H	0.354302	0.537545	0.333295
H204	H	0.687635	0.870878	0.666629
H205	H	0.937635	-0.578390	-0.000032
H206	H	1.270968	-0.245057	0.333301
H207	H	1.604301	0.088277	0.666634
H208	H	0.495896	-0.020129	-0.000014
H209	H	0.829230	0.313204	0.333319
H210	H	1.162563	0.646537	0.666653
H211	H	0.738091	0.179370	0.639260
H212	H	1.071424	0.512703	0.972593
H213	H	1.404758	0.846036	1.305927
H214	H	0.738074	0.179355	0.360694
H215	H	1.071408	0.512689	0.694027
H216	H	1.404741	0.846022	1.027361
H217	H	0.910880	0.006659	0.360689
H218	H	1.244213	0.339993	0.694022
H219	H	1.577546	0.673326	1.027355
H220	H	0.944179	-0.134379	0.000011
H221	H	1.277512	0.198954	0.333344
H222	H	1.610845	0.532288	0.666677
H223	H	0.738062	0.179355	0.203679
H224	H	1.071395	0.512688	0.537012
H225	H	1.404728	0.846022	0.870346
H226	H	0.942230	-0.266488	-0.000011
H227	H	1.275564	0.066845	0.333323
H228	H	1.608897	0.400178	0.666656
H229	H	0.711342	-0.235581	-0.000021
H230	H	1.044676	0.097753	0.333312
H231	H	1.378009	0.431086	0.666646
H232	H	0.935686	-0.710500	-0.000059
H233	H	1.269019	-0.377166	0.333274
H234	H	1.602352	-0.043833	0.666607
H235	H	0.153078	0.206160	-0.000032
H236	H	0.486411	0.539494	0.333302
H237	H	0.819744	0.872827	0.666635
H238	H	0.704794	-0.679592	-0.000062
H239	H	1.038128	-0.346258	0.333271
H240	H	1.371461	-0.012925	0.666604
H241	H	0.706740	-0.547478	-0.000046
H242	H	1.040073	-0.214144	0.333287
H243	H	1.373407	0.119189	0.666620
H244	H	0.183999	-0.024728	-0.000026
H245	H	0.517332	0.308606	0.333307
H246	H	0.850665	0.641939	0.666640
H247	H	0.713282	-0.103462	-0.000017
H248	H	1.046616	0.229871	0.333317
H249	H	1.379949	0.563204	0.666650
H250	H	0.910876	0.006659	0.203682
H251	H	1.244209	0.339992	0.537016
H252	H	1.577543	0.673326	0.870349
H253	H	0.910902	0.006672	0.639255
H254	H	1.244235	0.340005	0.972588
H255	H	1.577568	0.673339	1.305921
H256	H	0.910913	0.006675	0.796271
H257	H	1.244246	0.340009	1.129604
H258	H	1.577580	0.673342	1.462937
H259	H	0.051883	-0.026685	-0.000038
H260	H	0.385216	0.306649	0.333296
H261	H	0.718549	0.639982	0.666629
H262	H	0.464978	0.210765	-0.000025
H263	H	0.798311	0.544098	0.333308
H264	H	1.131645	0.877432	0.666641
