data_functionalizedCrystal
_audit_creation_method	'MofGen! by Chris Wilmer'
_symmetry_space_group_name_H-M	'P1'
_symmetry_Int_Tables_number	1
_symmetry_cell_setting	triclinic
loop_
_symmetry_equiv_pos_as_xyz
  x,y,z
_cell_length_a	14.519731
_cell_length_b	19.188924
_cell_length_c	12.996460
_cell_angle_alpha	89.991787
_cell_angle_beta	89.994327
_cell_angle_gamma	83.415409
loop_
_atom_site_label
_atom_site_type_symbol
_atom_site_fract_x
_atom_site_fract_y
_atom_site_fract_z
O1	O	1.223285	0.091596	-0.085574
O2	O	1.556618	0.424929	0.247759
O3	O	1.889951	0.758262	0.581093
O4	O	0.954743	0.102358	-0.085576
O5	O	1.288077	0.435692	0.247757
O6	O	1.621410	0.769025	0.581091
O7	O	1.096767	-0.004651	-0.085563
O8	O	1.430100	0.328682	0.247771
O9	O	1.763433	0.662016	0.581104
O10	O	1.081261	0.198605	-0.085587
O11	O	1.414594	0.531938	0.247746
O12	O	1.747928	0.865272	0.581079
O13	O	1.096752	-0.004657	0.085571
O14	O	1.430085	0.328676	0.418904
O15	O	1.763419	0.662010	0.752238
O16	O	0.954729	0.102352	0.085558
O17	O	1.288062	0.435686	0.418891
O18	O	1.621395	0.769019	0.752224
O19	O	1.223270	0.091590	0.085560
O20	O	1.556603	0.424923	0.418893
O21	O	1.889937	0.758256	0.752227
Cu22	Cu	1.088998	0.096970	0.101185
Cu23	Cu	1.422331	0.430304	0.434518
Cu24	Cu	1.755665	0.763637	0.767851
Cu25	Cu	1.089015	0.096977	-0.101201
Cu26	Cu	1.422349	0.430311	0.232132
Cu27	Cu	1.755682	0.763644	0.565466
O28	O	1.081246	0.198599	0.085547
O29	O	1.414580	0.531932	0.418880
O30	O	1.747913	0.865266	0.752213
C31	C	0.920380	0.101851	-0.000009
C32	C	1.253713	0.435184	0.333324
C33	C	1.587046	0.768518	0.666657
C34	C	0.818009	0.100340	-0.000010
C35	C	1.151342	0.433673	0.333324
C36	C	1.484675	0.767006	0.666657
C37	C	0.734872	0.099112	-0.000014
C38	C	1.068206	0.432445	0.333320
C39	C	1.401539	0.765779	0.666653
C40	C	0.630573	0.097578	-0.000014
C41	C	0.963906	0.430911	0.333319
C42	C	1.297240	0.764244	0.666653
C43	C	0.547442	0.096360	-0.000014
C44	C	0.880775	0.429693	0.333320
C45	C	1.214108	0.763027	0.666653
C46	C	0.443136	0.094826	-0.000016
C47	C	0.776469	0.428159	0.333318
C48	C	1.109803	0.761492	0.666651
C49	C	1.096258	-0.030667	0.000005
C50	C	1.429592	0.302666	0.333338
C51	C	1.762925	0.636000	0.666672
C52	C	1.094754	-0.108177	0.000008
C53	C	1.428088	0.225156	0.333341
C54	C	1.761421	0.558490	0.666674
C55	C	1.094060	-0.144575	-0.093277
C56	C	1.427394	0.188758	0.240056
C57	C	1.760727	0.522091	0.573389
C58	C	1.092634	-0.217403	-0.093285
C59	C	1.425967	0.115930	0.240048
C60	C	1.759301	0.449264	0.573381
C61	C	1.091920	-0.253832	-0.000003
C62	C	1.425253	0.079501	0.333331
C63	C	1.758587	0.412835	0.666664
C64	C	1.092609	-0.217424	0.093295
C65	C	1.425942	0.115909	0.426628
C66	C	1.759276	0.449242	0.759962
C67	C	1.094026	-0.144597	0.093300
C68	C	1.427359	0.188736	0.426634
C69	C	1.760693	0.522070	0.759967
N70	N	1.142169	-0.373316	0.069426
N71	N	1.475502	-0.039982	0.402759
N72	N	1.808836	0.293351	0.736093
N73	N	1.140825	-0.442499	0.069415
N74	N	1.474158	-0.109165	0.402748
N75	N	1.807491	0.224168	0.736081
C76	C	1.087648	-0.473256	-0.000013
C77	C	1.420982	-0.139923	0.333321
C78	C	1.754315	0.193410	0.666654
N79	N	1.035879	-0.432219	-0.069444
N80	N	1.369212	-0.098885	0.263890
N81	N	1.702545	0.234448	0.597223
N82	N	1.037227	-0.363029	-0.069435
N83	N	1.370560	-0.029696	0.263898
N84	N	1.703894	0.303637	0.597231
C85	C	1.090383	-0.332801	0.000002
C86	C	1.423716	0.000532	0.333336
C87	C	1.757049	0.333866	0.666669
C88	C	1.085406	-0.588623	-0.093313
C89	C	1.418740	-0.255289	0.240021
C90	C	1.752073	0.078044	0.573354
C91	C	1.083974	-0.661451	-0.093317
C92	C	1.417308	-0.328118	0.240017
C93	C	1.750641	0.005215	0.573350
C94	C	1.083959	-0.661472	0.093266
C95	C	1.417292	-0.328139	0.426600
C96	C	1.750625	0.005194	0.759933
C97	C	1.085381	-0.588644	0.093268
C98	C	1.418715	-0.255311	0.426601
C99	C	1.752048	0.078023	0.759934
C100	C	1.086110	-0.552224	-0.000025
C101	C	1.419443	-0.218891	0.333309
C102	C	1.752776	0.114443	0.666642
C103	C	1.257634	0.092097	-0.000009
C104	C	1.590967	0.425430	0.333324
C105	C	1.924300	0.758764	0.666658
C106	C	1.360004	0.093608	-0.000016
C107	C	1.693338	0.426941	0.333318
C108	C	2.026671	0.760275	0.666651
C109	C	1.081755	0.224615	-0.000023
C110	C	1.415088	0.557948	0.333310
C111	C	1.748421	0.891281	0.666643
C112	C	1.083259	0.302125	-0.000033
C113	C	1.416592	0.635458	0.333300
C114	C	1.749926	0.968792	0.666634
N115	N	1.088992	0.096965	0.243532
N116	N	1.422326	0.430298	0.576865
N117	N	1.755659	0.763632	0.910198
N118	N	1.089028	0.096977	-0.243548
N119	N	1.422361	0.430311	0.089785
N120	N	1.755695	0.763644	0.423119
C121	C	1.089014	0.096978	0.663346
C122	C	1.422347	0.430312	0.996679
C123	C	1.755681	0.763645	1.330013
C124	C	1.089005	0.096977	0.546541
C125	C	1.422339	0.430310	0.879874
C126	C	1.755672	0.763644	1.213208
C127	C	1.089004	0.096972	0.453443
C128	C	1.422337	0.430306	0.786776
C129	C	1.755670	0.763639	1.120109
C130	C	1.088994	0.096970	0.336630
C131	C	1.422327	0.430303	0.669963
C132	C	1.755661	0.763636	1.003297
H133	H	1.094650	-0.114926	-0.169244
H134	H	1.427984	0.218407	0.164090
H135	H	1.761317	0.551740	0.497423
H136	H	1.094587	-0.114962	0.169267
H137	H	1.427921	0.218372	0.502600
H138	H	1.761254	0.551705	0.835933
H139	H	1.085994	-0.558968	-0.169277
H140	H	1.419327	-0.225634	0.164056
H141	H	1.752661	0.107699	0.497390
H142	H	1.092025	-0.247089	0.169246
H143	H	1.425358	0.086244	0.502580
H144	H	1.758692	0.419578	0.835913
H145	H	1.083405	-0.691085	-0.169284
H146	H	1.416738	-0.357752	0.164049
H147	H	1.750071	-0.024419	0.497383
Br148	Br	1.086319	-0.539242	0.219876
Br149	Br	1.419652	-0.205909	0.553210
Br150	Br	1.752986	0.127424	0.886543
Br151	Br	1.091688	-0.266812	-0.219896
Br152	Br	1.425022	0.066522	0.113438
Br153	Br	1.758355	0.399855	0.446771
Br154	Br	1.082980	-0.710902	0.219867
Br155	Br	1.416314	-0.377569	0.553201
Br156	Br	1.749647	-0.044236	0.886534
