data_functionalizedCrystal
_audit_creation_method	'MofGen! by Chris Wilmer'
_symmetry_space_group_name_H-M	'P1'
_symmetry_Int_Tables_number	1
_symmetry_cell_setting	triclinic
loop_
_symmetry_equiv_pos_as_xyz
  x,y,z
_cell_length_a	17.699083
_cell_length_b	10.654550
_cell_length_c	9.130313
_cell_angle_alpha	90.000276
_cell_angle_beta	89.994594
_cell_angle_gamma	96.116027
loop_
_atom_site_label
_atom_site_type_symbol
_atom_site_fract_x
_atom_site_fract_y
_atom_site_fract_z
O1	O	0.106303	-1.665979	-0.121693
O2	O	0.116430	-1.300323	-0.121721
O3	O	0.001243	-1.493481	-0.121693
O4	O	0.221490	-1.472820	-0.121721
O5	O	0.001240	-1.493468	0.121906
O6	O	0.116427	-1.300310	0.121878
O7	O	0.106299	-1.665966	0.121906
Cu8	Cu	0.111363	-1.483136	0.144134
Cu9	Cu	0.111367	-1.483152	-0.143949
O10	O	0.221487	-1.472807	0.121878
C11	C	0.115685	-1.253531	0.000076
C12	C	0.113460	-1.114127	0.000066
C13	C	-0.026960	-1.492735	0.000106
C14	C	-0.110993	-1.490514	0.000107
N15	N	0.111360	-1.483135	0.346757
C16	C	-0.158893	-1.603894	0.000117
C17	C	-0.237849	-1.601799	0.000104
C18	C	-0.268904	-1.486323	0.000091
C19	C	-0.220998	-1.372935	0.000076
C20	C	-0.142043	-1.375030	0.000079
C21	C	-0.539415	-1.364481	0.000064
C22	C	-0.618376	-1.362394	0.000065
C23	C	-0.635221	-1.591249	0.000089
C24	C	-0.556266	-1.593345	0.000092
C25	C	-0.508367	-1.479957	0.000069
C26	C	-0.422753	-1.482229	0.000080
C27	C	-0.354516	-1.484050	0.000090
C28	C	0.249690	-1.473554	0.000075
C29	C	0.333722	-1.475775	0.000065
C30	C	0.107045	-1.712757	0.000106
C31	C	0.109269	-1.852161	0.000107
C32	C	0.181281	-1.033454	0.000061
C33	C	0.179186	-0.902470	0.000087
C34	C	0.041444	-0.932844	0.000115
C35	C	0.043539	-1.063826	0.000100
N36	N	0.111364	-1.483164	-0.346572
C37	C	0.060376	-1.568694	0.423421
C38	C	0.060376	-1.568706	0.576758
C39	C	0.162350	-1.397596	0.576753
C40	C	0.162345	-1.397579	0.423419
H41	H	-0.133614	-1.697927	0.000137
H42	H	-0.276847	-1.694125	0.000116
H43	H	-0.011692	-1.129514	0.000108
H44	H	0.234412	-0.836791	0.000087
O45	O	-0.526226	-1.705628	0.000038
C46	C	-0.551269	-1.932409	0.000137
C47	C	-0.585389	-1.805337	0.000170
H48	H	-0.599087	-2.013057	0.000274
H49	H	-0.514748	-1.939199	-0.101832
H50	H	-0.514705	-1.939038	0.102059
H51	H	-0.621989	-1.798622	-0.101683
H52	H	-0.621867	-1.798601	0.102207
H53	H	-0.246289	-1.278912	0.000056
H54	H	-0.500424	-1.272153	0.000046
H55	H	-0.674231	-1.683575	0.000100
H56	H	-0.643657	-1.268354	0.000058
H57	H	0.018859	-1.638357	0.361006
O58	O	0.010825	-1.651942	0.651002
C59	C	-0.090348	-1.821610	0.634814
C60	C	-0.034256	-1.727432	0.550553
H61	H	-0.126821	-1.882651	0.553638
H62	H	-0.057356	-1.884330	0.706545
H63	H	-0.128430	-1.767501	0.706657
H64	H	0.003840	-1.781439	0.478630
H65	H	-0.067295	-1.664713	0.478914
O66	O	-0.026539	-0.884188	0.000194
C67	C	-0.162938	-0.928141	0.000112
C68	C	-0.086000	-0.983408	0.000066
H69	H	-0.211033	-1.008333	-0.000023
H70	H	-0.167419	-0.867627	0.102085
H71	H	-0.167318	-0.867531	-0.101807
H72	H	-0.081568	-1.044074	0.101916
H73	H	-0.081553	-1.043849	-0.101974
O74	O	0.211801	-1.314324	0.651164
C75	C	0.254951	-1.095840	0.698044
C76	C	0.198891	-1.190007	0.613712
H77	H	0.244544	-0.995310	0.667772
H78	H	0.246196	-1.110443	0.820822
H79	H	0.315657	-1.112068	0.667893
H80	H	0.138163	-1.173836	0.643740
H81	H	0.207712	-1.175381	0.490954
O82	O	0.211981	-1.314586	0.349006
C83	C	0.343169	-1.240528	0.302119
C84	C	0.287047	-1.334604	0.386455
H85	H	0.403871	-1.256662	0.332389
H86	H	0.334472	-1.255207	0.179342
H87	H	0.332702	-1.139997	0.332270
H88	H	0.297479	-1.435172	0.356427
H89	H	0.295757	-1.319814	0.509212
H90	H	-0.103043	-1.282705	0.000070
H91	H	0.238215	-1.074405	0.000044
