data_functionalizedCrystal
_audit_creation_method	'MofGen! by Chris Wilmer'
_symmetry_space_group_name_H-M	'P1'
_symmetry_Int_Tables_number	1
_symmetry_cell_setting	triclinic
loop_
_symmetry_equiv_pos_as_xyz
  x,y,z
_cell_length_a	12.645331
_cell_length_b	16.625546
_cell_length_c	16.625539
_cell_angle_alpha	90.028532
_cell_angle_beta	90.017266
_cell_angle_gamma	90.021447
loop_
_atom_site_label
_atom_site_type_symbol
_atom_site_fract_x
_atom_site_fract_y
_atom_site_fract_z
Zn1	Zn	1.620639	-0.321037	0.455902
Zn2	Zn	1.953973	0.012296	0.789235
Zn3	Zn	2.287306	0.345630	1.122569
Zn4	Zn	1.620523	-0.455876	0.321064
Zn5	Zn	1.953856	-0.122542	0.654398
Zn6	Zn	2.287190	0.210791	0.987731
Zn7	Zn	1.443371	-0.321058	0.321082
Zn8	Zn	1.776704	0.012275	0.654415
Zn9	Zn	2.110037	0.345608	0.987749
Zn10	Zn	1.443321	-0.455829	0.455854
Zn11	Zn	1.776654	-0.122496	0.789187
Zn12	Zn	2.109988	0.210838	1.122520
O13	O	1.531964	-0.388450	0.388476
O14	O	1.865297	-0.055117	0.721809
O15	O	2.198630	0.278217	1.055142
O16	O	1.768971	-0.338934	0.438028
O17	O	2.102305	-0.005601	0.771362
O18	O	2.435638	0.327732	1.104695
O19	O	1.596996	-0.438020	0.208234
O20	O	1.930329	-0.104687	0.541568
O21	O	2.263662	0.228646	0.874901
O22	O	1.466955	-0.208223	0.338994
O23	O	1.800289	0.125110	0.672327
O24	O	2.133622	0.458444	1.005661
O25	O	1.768886	-0.438000	0.338964
O26	O	2.102219	-0.104666	0.672297
O27	O	2.435552	0.228667	1.005630
O28	O	1.597194	-0.208207	0.438046
O29	O	1.930527	0.125126	0.771379
O30	O	2.263861	0.458459	1.104712
O31	O	1.466843	-0.338971	0.208247
O32	O	1.800176	-0.005637	0.541581
O33	O	2.133509	0.327696	0.874914
O34	O	1.295017	-0.338925	0.338947
O35	O	1.628350	-0.005592	0.672280
O36	O	1.961684	0.327741	1.005614
O37	O	1.466871	-0.437920	0.568693
O38	O	1.800204	-0.104587	0.902026
O39	O	2.133537	0.228747	1.235359
O40	O	1.294980	-0.437941	0.437963
O41	O	1.628314	-0.104607	0.771297
O42	O	1.961647	0.228726	1.104630
O43	O	1.597146	-0.338889	0.568728
O44	O	1.930479	-0.005556	0.902061
O45	O	2.263812	0.327778	1.235395
O46	O	1.596947	-0.568702	0.338917
O47	O	1.930281	-0.235369	0.672250
O48	O	2.263614	0.097965	1.005584
O49	O	1.466758	-0.568668	0.437946
O50	O	1.800091	-0.235334	0.771279
O51	O	2.133424	0.097999	1.104613
C52	C	1.531863	-0.597941	0.388442
C53	C	1.865197	-0.264608	0.721775
C54	C	2.198530	0.068726	1.055109
C55	C	1.531917	-0.687562	0.388454
C56	C	1.865251	-0.354229	0.721788
C57	C	2.198584	-0.020895	1.055121
C58	C	1.256534	-0.388431	0.388452
C59	C	1.589867	-0.055098	0.721786
C60	C	1.923201	0.278236	1.055119
C61	C	1.138704	-0.388442	0.388461
C62	C	1.472037	-0.055109	0.721795
C63	C	1.805370	0.278225	1.055128
C64	C	1.532102	-1.015738	0.388538
C65	C	1.865436	-0.682404	0.721872
C66	C	2.198769	-0.349071	1.055205
C67	C	1.532047	-0.924429	0.388517
C68	C	1.865381	-0.591096	0.721851
C69	C	2.198714	-0.257762	1.055184
C70	C	1.532009	-0.851653	0.388496
C71	C	1.865342	-0.518319	0.721829
C72	C	2.198676	-0.184986	1.055163
C73	C	1.531956	-0.760338	0.388476
C74	C	1.865289	-0.427005	0.721809
C75	C	2.198622	-0.093672	1.055142
C76	C	0.971127	-0.325865	0.326514
C77	C	1.304461	0.007468	0.659847
C78	C	1.637794	0.340802	0.993181
C79	C	1.093687	-0.326027	0.326241
C80	C	1.427020	0.007306	0.659574
C81	C	1.760354	0.340640	0.992908
C82	C	1.094177	-0.473380	0.365243
C83	C	1.427510	-0.140047	0.698576
C84	C	1.760844	0.193287	1.031910
C85	C	0.971579	-0.473038	0.364820
C86	C	1.304912	-0.139705	0.698154
C87	C	1.638245	0.193629	1.031487
C88	C	0.971546	-0.366890	0.473867
C89	C	1.304880	-0.033556	0.807200
C90	C	1.638213	0.299777	1.140533
C91	C	1.094152	-0.364992	0.473392
C92	C	1.427486	-0.031659	0.806726
C93	C	1.760819	0.301675	1.140059
C94	C	1.808469	-0.388470	0.388499
C95	C	2.141802	-0.055136	0.721833
C96	C	2.475135	0.278197	1.055166
C97	C	1.926299	-0.388478	0.388510
C98	C	2.259632	-0.055145	0.721843
C99	C	2.592965	0.278188	1.055176
C100	C	1.532016	-0.388397	0.598785
C101	C	1.865349	-0.055063	0.932118
C102	C	2.198682	0.278270	1.265451
C103	C	1.532038	-0.388374	0.688406
C104	C	1.865371	-0.055041	1.021739
C105	C	2.198704	0.278293	1.355072
C106	C	1.532093	-0.178141	0.388527
C107	C	1.865427	0.155192	0.721860
C108	C	2.198760	0.488526	1.055194
C109	C	1.532148	-0.088520	0.388549
C110	C	1.865482	0.244813	0.721882
C111	C	2.198815	0.578147	1.055216
C112	C	1.531973	-0.388445	0.178985
C113	C	1.865306	-0.055112	0.512318
C114	C	2.198639	0.278222	0.845651
C115	C	1.532156	-0.388240	0.089364
C116	C	1.865489	-0.054907	0.422697
C117	C	2.198823	0.278426	0.756031
C118	C	1.532055	-0.388356	0.761188
C119	C	1.865388	-0.055023	1.094522
C120	C	2.198722	0.278310	1.427855
C121	C	1.532080	-0.388326	0.852497
C122	C	1.865413	-0.054993	1.185830
C123	C	2.198746	0.278340	1.519163
C124	C	1.532105	-0.388298	0.925273
C125	C	1.865438	-0.054965	1.258607
C126	C	2.198771	0.278369	1.591940
C127	C	1.532131	-0.388269	1.016588
C128	C	1.865464	-0.054935	1.349921
C129	C	2.198798	0.278398	1.683254
H130	H	0.941668	-0.262691	0.340912
H131	H	1.275002	0.070643	0.674245
H132	H	1.608335	0.403976	1.007579
H133	H	0.940654	-0.306034	0.494981
H134	H	1.273987	0.027299	0.828314
H135	H	1.607320	0.360632	1.161648
H136	H	1.124799	-0.407270	0.522055
H137	H	1.458133	-0.073937	0.855388
H138	H	1.791466	0.259396	1.188722
N139	N	1.130670	-0.286585	0.495371
N140	N	1.464003	0.046748	0.828704
N141	N	1.797336	0.380081	1.162038
N142	N	1.184945	-0.277335	0.557543
N143	N	1.518278	0.055998	0.890876
N144	N	1.851612	0.389331	1.224209
H145	H	1.210738	-0.221959	0.573065
H146	H	1.544072	0.111374	0.906398
H147	H	1.877405	0.444707	1.239732
H148	H	1.122971	-0.340295	0.262988
H149	H	1.456305	-0.006962	0.596322
H150	H	1.789638	0.326371	0.929655
H151	H	0.940286	-0.339975	0.263633
H152	H	1.273619	-0.006642	0.596967
H153	H	1.606952	0.326691	0.930300
H154	H	0.942939	-0.491346	0.302420
H155	H	1.276272	-0.158013	0.635753
H156	H	1.609605	0.175320	0.969086
N157	N	0.934385	-0.533548	0.418992
N158	N	1.267719	-0.200215	0.752325
N159	N	1.601052	0.133119	1.085658
N160	N	0.998975	-0.575900	0.456985
N161	N	1.332309	-0.242566	0.790318
N162	N	1.665642	0.090767	1.123652
H163	H	0.972713	-0.618638	0.495239
H164	H	1.306046	-0.285305	0.828573
H165	H	1.639379	0.048028	1.161906
N166	N	1.130757	-0.533463	0.420115
N167	N	1.464090	-0.200129	0.753449
N168	N	1.797424	0.133204	1.086782
N169	N	1.190196	-0.514306	0.477081
N170	N	1.523529	-0.180973	0.810415
N171	N	1.856862	0.152360	1.143748
H172	H	1.216032	-0.556738	0.515837
H173	H	1.549365	-0.223405	0.849171
H174	H	1.882699	0.109929	1.182504
N175	N	1.132645	-0.496736	0.287802
N176	N	1.465978	-0.163403	0.621136
N177	N	1.799312	0.169930	0.954469
N178	N	1.192840	-0.450974	0.249579
N179	N	1.526173	-0.117640	0.582912
N180	N	1.859506	0.215693	0.916245
H181	H	1.220007	-0.467464	0.194884
H182	H	1.553340	-0.134131	0.528217
H183	H	1.886674	0.199202	0.861551
N184	N	0.935198	-0.424117	0.531804
N185	N	1.268531	-0.090783	0.865137
N186	N	1.601865	0.242550	1.198470
N187	N	0.876227	-0.480578	0.510434
N188	N	1.209561	-0.147245	0.843768
N189	N	1.542894	0.186089	1.177101
H190	H	0.850559	-0.521002	0.551345
H191	H	1.183892	-0.187669	0.884678
H192	H	1.517226	0.145665	1.218011
H193	H	1.123793	-0.263042	0.340795
H194	H	1.457126	0.070291	0.674129
H195	H	1.790460	0.403625	1.007462
