data_functionalizedCrystal
_audit_creation_method	'MofGen! by Chris Wilmer'
_symmetry_space_group_name_H-M	'P1'
_symmetry_Int_Tables_number	1
_symmetry_cell_setting	triclinic
loop_
_symmetry_equiv_pos_as_xyz
  x,y,z
_cell_length_a	19.188933
_cell_length_b	19.188930
_cell_length_c	15.072220
_cell_angle_alpha	89.993728
_cell_angle_beta	89.988933
_cell_angle_gamma	83.145175
loop_
_atom_site_label
_atom_site_type_symbol
_atom_site_fract_x
_atom_site_fract_y
_atom_site_fract_z
O1	O	0.926153	0.087169	-0.073763
O2	O	0.722841	0.098902	-0.073772
O3	O	0.830364	-0.008620	-0.073750
O4	O	0.818630	0.194691	-0.073785
O5	O	0.830338	-0.008614	0.073815
O6	O	0.722815	0.098908	0.073793
O7	O	0.926126	0.087175	0.073802
Zn8	Zn	0.824466	0.093043	0.097227
Zn9	Zn	0.824501	0.093035	-0.097197
O10	O	0.818603	0.194697	0.073780
C11	C	0.696817	0.098525	0.000009
C12	C	0.619313	0.097384	0.000006
C13	C	0.066072	0.089235	-0.080421
C14	C	0.138896	0.090303	-0.080424
C15	C	0.175299	0.090844	0.000013
C16	C	0.138873	0.090298	0.080460
C17	C	0.066051	0.089223	0.080461
N18	N	0.284308	0.132265	0.059879
N19	N	0.353485	0.133288	0.059873
C20	C	0.394707	0.094082	0.000014
N21	N	0.364137	0.053823	-0.059851
N22	N	0.294953	0.052804	-0.059847
C23	C	0.254262	0.092009	0.000021
C24	C	0.510089	0.095781	-0.080432
C25	C	0.582915	0.096844	-0.080432
C26	C	0.582890	0.096847	0.080455
C27	C	0.510066	0.095776	0.080453
C28	C	0.473669	0.095246	0.000007
C29	C	0.829971	-0.034628	0.000035
C30	C	0.828830	-0.112132	0.000043
C31	C	0.891921	-0.157056	0.000050
C32	C	0.890849	-0.229880	0.000036
C33	C	0.826683	-0.257777	0.000032
C34	C	0.763584	-0.212843	0.000020
C35	C	0.764658	-0.140021	0.000025
N36	N	0.777627	-0.365780	0.050249
N37	N	0.776612	-0.434959	0.050246
C38	C	0.823445	-0.477185	0.000014
N39	N	0.871343	-0.447622	-0.050204
N40	N	0.872361	-0.378437	-0.050196
C41	C	0.825512	-0.336739	0.000026
C42	C	0.885378	-0.601073	0.000004
C43	C	0.884304	-0.673898	-0.000015
C44	C	0.757037	-0.656860	-0.000022
C45	C	0.758113	-0.584037	-0.000012
C46	C	0.822286	-0.556148	0.000006
C47	C	0.952150	0.087553	0.000019
C48	C	1.029655	0.088694	0.000016
C49	C	0.818997	0.220705	-0.000007
C50	C	0.820137	0.298210	-0.000021
N51	N	0.824448	0.093048	0.229915
N52	N	0.824525	0.093024	-0.229886
C53	C	0.824500	0.093032	0.589117
C54	C	0.766774	0.150373	0.551498
C55	C	0.766906	0.150582	0.448672
C56	C	0.824473	0.093040	0.410913
C57	C	0.897276	0.108730	0.448204
C58	C	0.896952	0.109137	0.551062
C59	C	0.810073	0.019830	0.551229
C60	C	0.808400	0.020324	0.448366
C61	C	0.824463	0.093043	0.310199
C62	C	0.824515	0.093031	0.689830
H63	H	0.036401	0.088785	0.145964
H64	H	0.713280	-0.103444	0.000019
N65	N	0.744916	0.000848	0.583779
N66	N	0.697113	-0.009256	0.530674
H67	H	0.651091	-0.022656	0.553659
H68	H	0.168552	0.090748	-0.145927
N69	N	0.957468	-0.128568	0.000042
N70	N	0.972277	-0.089829	-0.062160
H71	H	1.018571	-0.069707	-0.062169
N72	N	0.472873	0.095224	0.162626
N73	N	0.505381	0.095703	0.234440
H74	H	0.479115	0.095310	0.292480
N75	N	0.913644	0.174934	0.415874
N76	N	0.873791	0.229694	0.432831
H77	H	0.885346	0.276454	0.409999
N78	N	0.176065	0.090845	0.162617
N79	N	0.241084	0.091805	0.162606
H80	H	0.267353	0.092187	0.220632
N81	N	0.620063	0.097410	0.162622
N82	N	0.605336	0.146495	0.216476
H83	H	0.631592	0.146891	0.274510
H84	H	0.480453	0.095347	-0.145935
N85	N	0.691486	-0.685335	-0.000019
N86	N	0.635157	-0.645212	-0.000018
H87	H	0.588859	-0.665324	-0.000018
N88	N	0.741216	0.005387	0.417791
N89	N	0.705269	0.048101	0.368598
H90	H	0.657820	0.037554	0.346999
H91	H	0.937631	-0.578365	0.000015
N92	N	0.912920	0.176107	0.581140
N93	N	0.869797	0.213712	0.628038
H94	H	0.881071	0.261013	0.649276
N95	N	0.857751	-0.035684	0.416129
N96	N	0.921694	-0.036063	0.432225
H97	H	0.956556	-0.075615	0.409458
N98	N	0.955304	-0.275769	0.000042
N99	N	1.012594	-0.250859	0.000055
H100	H	1.058116	-0.283266	0.000061
H101	H	0.712476	0.141215	0.576259
H102	H	0.711340	-0.235562	0.000015
N103	N	0.952442	0.058719	0.582271
N104	N	0.991286	0.023348	0.528084
H105	H	1.030478	-0.012257	0.550121
N106	N	0.948760	-0.719779	-0.000020
N107	N	1.006047	-0.694865	-0.000008
H108	H	1.051572	-0.727269	-0.000012
H109	H	0.852172	-0.022839	0.575556
H110	H	0.706738	-0.547459	-0.000012
N111	N	0.698911	0.139237	0.417054
N112	N	0.651030	0.131100	0.470953
H113	H	0.602968	0.123219	0.448628
H114	H	0.775836	0.204394	0.577327
N115	N	0.620114	0.097378	-0.162604
N116	N	0.618567	0.048053	-0.216457
H117	H	0.644838	0.048427	-0.274494
N118	N	0.028905	0.088697	-0.162599
N119	N	0.061435	0.089182	-0.234413
H120	H	0.035186	0.088802	-0.292453
N121	N	0.778395	0.218747	0.417789
N122	N	0.786348	0.266313	0.472201
H123	H	0.794452	0.314462	0.450392
H124	H	0.941248	0.068067	0.423744
