data_functionalizedCrystal
_audit_creation_method	'MofGen! by Chris Wilmer'
_symmetry_space_group_name_H-M	'P1'
_symmetry_Int_Tables_number	1
_symmetry_cell_setting	triclinic
loop_
_symmetry_equiv_pos_as_xyz
  x,y,z
_cell_length_a	29.839135
_cell_length_b	18.215405
_cell_length_c	18.215399
_cell_angle_alpha	90.030551
_cell_angle_beta	90.022923
_cell_angle_gamma	90.027415
loop_
_atom_site_label
_atom_site_type_symbol
_atom_site_fract_x
_atom_site_fract_y
_atom_site_fract_z
Zn1	Zn	0.686804	-0.292942	0.416163
Zn2	Zn	0.686748	-0.416013	0.293091
Zn3	Zn	0.611677	-0.292971	0.293104
Zn4	Zn	0.611656	-0.415977	0.416110
O5	O	0.649222	-0.354476	0.354617
O6	O	0.749664	-0.309271	0.399855
O7	O	0.676775	-0.399719	0.190109
O8	O	0.621675	-0.189983	0.309456
O9	O	0.749623	-0.399691	0.309434
O10	O	0.676871	-0.189962	0.399867
O11	O	0.621621	-0.309320	0.190118
O12	O	0.548807	-0.309284	0.309404
O13	O	0.621640	-0.399629	0.519101
O14	O	0.548792	-0.399657	0.399776
O15	O	0.676850	-0.309236	0.519140
O16	O	0.676755	-0.518993	0.309382
O17	O	0.621585	-0.518966	0.399763
C18	C	0.649174	-0.545682	0.354582
C19	C	0.649195	-0.627481	0.354591
C20	C	0.532499	-0.354470	0.354586
C21	C	0.482565	-0.354485	0.354590
C22	C	0.677989	-0.815664	0.307616
C23	C	0.678009	-0.892523	0.307634
C24	C	0.620511	-0.892535	0.401671
C25	C	0.620494	-0.815678	0.401656
C26	C	0.649232	-0.777244	0.354625
C27	C	0.649270	-0.930960	0.354657
C28	C	0.649291	-1.014294	0.354677
C29	C	0.649211	-0.693905	0.354606
C30	C	0.172940	-0.307465	0.401768
C31	C	-0.014733	-0.307470	0.401789
O32	O	-0.038983	-0.267476	0.441867
N33	N	-0.038221	-0.354477	0.354644
C34	C	-0.014786	-0.401481	0.307487
O35	O	-0.039070	-0.441458	0.267382
C36	C	0.172886	-0.401472	0.307463
C37	C	0.196370	-0.354468	0.354616
C38	C	0.196424	-0.260465	0.448917
C39	C	0.243340	-0.260467	0.448915
C40	C	0.266771	-0.307470	0.401763
C41	C	0.243286	-0.354470	0.354613
C42	C	0.196319	-0.448472	0.260302
C43	C	0.243240	-0.448465	0.260299
C44	C	0.266725	-0.401461	0.307453
C45	C	0.313632	-0.401475	0.307459
N46	N	0.337119	-0.354469	0.354604
C47	C	0.313688	-0.307466	0.401756
C48	C	-0.113317	-0.401484	0.307504
C49	C	-0.160235	-0.401487	0.307511
C50	C	-0.160179	-0.307475	0.401812
C51	C	-0.113260	-0.307476	0.401809
C52	C	-0.089830	-0.354478	0.354649
C53	C	0.412214	-0.307474	0.401747
C54	C	0.459134	-0.307483	0.401742
C55	C	0.459073	-0.401492	0.307438
C56	C	0.412158	-0.401486	0.307445
C57	C	0.388729	-0.354472	0.354602
O58	O	0.337910	-0.441443	0.267396
O59	O	0.337980	-0.267484	0.441843
C60	C	0.126024	-0.307463	0.401771
C61	C	0.102539	-0.354464	0.354622
C62	C	0.125970	-0.401467	0.307470
C63	C	0.055622	-0.354467	0.354629
C64	C	0.032191	-0.307465	0.401781
C65	C	0.055678	-0.260459	0.448926
C66	C	0.102593	-0.260461	0.448923
C67	C	0.102483	-0.448473	0.260325
C68	C	0.055568	-0.448467	0.260332
C69	C	0.032137	-0.401465	0.307484
C70	C	0.766400	-0.354482	0.354649
C71	C	0.816334	-0.354485	0.354663
C72	C	0.649249	-0.354425	0.546570
C73	C	0.649261	-0.354403	0.628369
C74	C	0.649281	-0.162523	0.354669
C75	C	0.649307	-0.080724	0.354691
C76	C	0.649220	-0.354473	0.163411
C77	C	0.649296	-0.354288	0.081612
C78	C	0.678019	-0.307292	0.816585
C79	C	0.678025	-0.307270	0.893444
C80	C	0.620534	-0.401401	0.893391
C81	C	0.620527	-0.401418	0.816534
C82	C	0.649272	-0.354365	0.778133
C83	C	0.649284	-0.354326	0.931849
C84	C	0.649290	-0.354303	1.015182
C85	C	0.649266	-0.354386	0.694794
H86	H	0.701390	-0.784374	0.269322
H87	H	0.177352	-0.222186	0.487314
H88	H	-0.179264	-0.269204	0.440206
H89	H	0.597076	-0.784394	0.439939
C90	C	0.484851	-0.453196	0.255577
H91	H	0.464147	-0.481197	0.227498
H92	H	0.503155	-0.425002	0.223565
H93	H	0.503151	-0.485298	0.283678
C94	C	0.128251	-0.500183	0.208459
H95	H	0.107540	-0.528178	0.180389
H96	H	0.146555	-0.471999	0.176439
H97	H	0.146549	-0.532290	0.236557
H98	H	0.701427	-0.923801	0.269356
H99	H	0.597113	-0.923837	0.439961
H100	H	0.262457	-0.222190	0.487311
H101	H	0.478253	-0.269206	0.440142
C102	C	0.588921	-0.453163	0.935635
H103	H	0.593045	-0.446417	0.986916
H104	H	0.558737	-0.442398	0.923032
H105	H	0.595484	-0.502614	0.923024
H106	H	0.393144	-0.269188	0.440144
H107	H	-0.094142	-0.269200	0.440204
H108	H	0.597114	-0.439750	0.785225
H109	H	-0.179352	-0.439771	0.269122
H110	H	-0.094245	-0.439761	0.269099
C111	C	0.269010	-0.500174	0.208429
H112	H	0.248301	-0.528170	0.180356
H113	H	0.287315	-0.471987	0.176412
H114	H	0.287308	-0.532281	0.236527
H115	H	0.177206	-0.486747	0.221904
C116	C	0.709649	-0.255493	0.935738
H117	H	0.726768	-0.227478	0.901857
H118	H	0.692478	-0.223419	0.965723
H119	H	0.729219	-0.283644	0.965719
C120	C	0.128421	-0.208751	0.500787
H121	H	0.107741	-0.180757	0.528861
H122	H	0.146725	-0.236936	0.532804
H123	H	0.146722	-0.176643	0.472689
C124	C	0.386324	-0.453194	0.255583
H125	H	0.407000	-0.481186	0.227500
H126	H	0.368016	-0.485294	0.283674
H127	H	0.368024	-0.424995	0.223565
C128	C	0.029898	-0.208755	0.500790
H129	H	-0.001407	-0.215488	0.494029
H130	H	0.037594	-0.219583	0.550219
H131	H	0.037597	-0.159292	0.490102
H132	H	0.036450	-0.486751	0.221935
H133	H	0.701424	-0.268975	0.785321
