data_functionalizedCrystal
_audit_creation_method	'MofGen! by Chris Wilmer'
_symmetry_space_group_name_H-M	'P1'
_symmetry_Int_Tables_number	1
_symmetry_cell_setting	triclinic
loop_
_symmetry_equiv_pos_as_xyz
  x,y,z
_cell_length_a	27.732048
_cell_length_b	17.038272
_cell_length_c	15.500227
_cell_angle_alpha	86.966746
_cell_angle_beta	87.176649
_cell_angle_gamma	93.122895
loop_
_atom_site_label
_atom_site_type_symbol
_atom_site_fract_x
_atom_site_fract_y
_atom_site_fract_z
O1	O	0.647280	-0.089326	-0.071995
O2	O	1.147280	0.410674	0.428005
O3	O	0.507133	-0.103465	-0.071986
O4	O	1.007133	0.396535	0.428014
O5	O	0.576373	0.017410	-0.071983
O6	O	1.076373	0.517410	0.428017
O7	O	0.578040	-0.210201	-0.071997
O8	O	1.078040	0.289799	0.428003
O9	O	0.572170	0.010103	0.071905
O10	O	1.072170	0.510103	0.571905
O11	O	0.502930	-0.110771	0.071903
O12	O	1.002930	0.389229	0.571903
O13	O	0.643077	-0.096633	0.071894
O14	O	1.143077	0.403367	0.571894
Cu15	Cu	0.572620	-0.104369	0.085037
Cu16	Cu	1.072620	0.395631	0.585037
Cu17	Cu	0.577590	-0.095728	-0.085128
Cu18	Cu	1.077590	0.404272	0.414872
O19	O	0.573837	-0.217507	0.071892
O20	O	1.073837	0.282493	0.571892
C21	C	0.572757	0.042867	-0.000039
C22	C	1.072757	0.542867	0.499961
C23	C	0.568236	0.129607	-0.000039
C24	C	1.068236	0.629607	0.499961
C25	C	0.487011	-0.106821	-0.000040
C26	C	0.987011	0.393179	0.499960
C27	C	0.433315	-0.105928	-0.000037
C28	C	0.933315	0.394072	0.499963
C29	C	0.663199	-0.093276	-0.000053
C30	C	1.163199	0.406724	0.499947
C31	C	0.716895	-0.094169	-0.000063
C32	C	1.216895	0.405831	0.499937
C33	C	1.052699	-0.028368	-0.000029
C34	C	1.552699	0.471632	0.499971
C35	C	1.254511	-0.031684	-0.000026
C36	C	1.754511	0.468316	0.499974
O37	O	1.283013	0.028486	0.000015
O38	O	1.783013	0.528486	0.500015
N39	N	1.276913	-0.103357	-0.000033
N40	N	1.776913	0.396643	0.499967
C41	C	1.248859	-0.174207	-0.000035
C42	C	1.748859	0.325793	0.499965
O43	O	1.272544	-0.235246	-0.000032
O44	O	1.772544	0.264754	0.499968
C45	C	1.047049	-0.170891	-0.000031
C46	C	1.547049	0.329109	0.499969
C47	C	1.024649	-0.099212	-0.000033
C48	C	1.524649	0.400788	0.499967
C49	C	1.030300	0.043305	-0.000030
C50	C	1.530300	0.543305	0.499970
C51	C	0.979850	0.044133	-0.000035
C52	C	1.479850	0.544133	0.499965
C53	C	0.951800	-0.026711	-0.000040
C54	C	1.451800	0.473289	0.499960
C55	C	0.974200	-0.098384	-0.000039
C56	C	1.474200	0.401616	0.499961
C57	C	1.018996	-0.241740	-0.000027
C58	C	1.518996	0.258260	0.499973
C59	C	0.968540	-0.240904	-0.000024
C60	C	1.468540	0.259096	0.499976
C61	C	0.946141	-0.169226	-0.000026
C62	C	1.446141	0.330774	0.499974
C63	C	0.895700	-0.168399	-0.000048
C64	C	1.395700	0.331601	0.499952
N65	N	0.873298	-0.096726	-0.000042
N66	N	1.373298	0.403274	0.499958
C67	C	0.901348	-0.025882	-0.000037
C68	C	1.401348	0.474118	0.499963
C69	C	1.354813	-0.175943	-0.000039
C70	C	1.854813	0.324057	0.499961
C71	C	1.405265	-0.176772	-0.000041
C72	C	1.905265	0.323228	0.499959
C73	C	1.410913	-0.034249	-0.000031
C74	C	1.910913	0.465751	0.499969
C75	C	1.360460	-0.033420	-0.000034
C76	C	1.860460	0.466580	0.499966
C77	C	1.332410	-0.104270	-0.000032
C78	C	1.832410	0.395730	0.499968
C79	C	0.795399	-0.024147	-0.000049
C80	C	1.295399	0.475853	0.499951
C81	C	0.744945	-0.023325	-0.000058
C82	C	1.244945	0.476675	0.499942
C83	C	0.739302	-0.165848	-0.000064
C84	C	1.239302	0.334152	0.499936
C85	C	0.789752	-0.166671	-0.000060
C86	C	1.289752	0.333329	0.499940
C87	C	0.817799	-0.095814	-0.000049
C88	C	1.317799	0.404186	0.499951
O89	O	0.867168	-0.228538	-0.000080
O90	O	1.367168	0.271462	0.499920
O91	O	0.877653	0.035147	-0.000021
O92	O	1.377653	0.535147	0.499979
C93	C	1.103149	-0.029196	-0.000024
C94	C	1.603149	0.470804	0.499976
C95	C	1.125549	-0.100869	-0.000023
C96	C	1.625549	0.399131	0.499977
C97	C	1.097499	-0.171713	-0.000027
C98	C	1.597499	0.328287	0.499973
C99	C	1.176001	-0.101698	-0.000025
C100	C	1.676001	0.398302	0.499975
C101	C	1.204051	-0.030854	-0.000021
C102	C	1.704051	0.469146	0.499979
C103	C	1.181649	0.040819	-0.000014
C104	C	1.681649	0.540819	0.499986
C105	C	1.131199	0.041648	-0.000019
C106	C	1.631199	0.541648	0.499981
C107	C	1.119901	-0.243387	-0.000034
C108	C	1.619901	0.256613	0.499966
C109	C	1.170351	-0.244209	-0.000030
C110	C	1.670351	0.255791	0.499970
C111	C	1.198401	-0.173365	-0.000025
C112	C	1.698401	0.326635	0.499975
C113	C	0.577453	-0.242965	-0.000055
C114	C	1.077453	0.257035	0.499945
C115	C	0.581974	-0.329705	-0.000060
C116	C	1.081974	0.170295	0.499940
N117	N	0.569127	-0.110446	0.204721
N118	N	1.069127	0.389554	0.704721
C119	C	0.609739	0.180205	-0.000041
C120	C	1.109739	0.680205	0.499959
C121	C	0.605489	0.261707	-0.000049
C122	C	1.105489	0.761707	0.499951
C123	C	0.559736	0.292608	-0.000049
C124	C	1.059736	0.792608	0.499951
C125	C	0.518230	0.242004	-0.000049
C126	C	1.018230	0.742004	0.499951
C127	C	0.522480	0.160504	-0.000048
C128	C	1.022480	0.660504	0.499952
C129	C	0.544719	0.538192	-0.000059
C130	C	1.044719	1.038192	0.499941
C131	C	0.540471	0.619697	-0.000059
C132	C	1.040471	1.119697	0.499941
C133	C	0.627731	0.639395	-0.000059
C134	C	1.127731	1.139395	0.499941
C135	C	0.631978	0.557893	-0.000052
C136	C	1.131978	1.057893	0.499948
C137	C	0.590472	0.507296	-0.000058
C138	C	1.090472	1.007296	0.499942
C139	C	0.555390	0.375915	-0.000054
C140	C	1.055390	0.875915	0.499946
C141	C	0.594818	0.423990	-0.000059
C142	C	1.094818	0.923990	0.499941
N143	N	0.581086	-0.089645	-0.204813
N144	N	1.081086	0.410355	0.295187
C145	C	0.598479	-0.059246	0.249999
C146	C	1.098479	0.440754	0.749999
C147	C	0.595842	-0.063849	0.340572
C148	C	1.095842	0.436151	0.840572
C149	C	0.563857	-0.119656	0.385865
C150	C	1.063857	0.380344	0.885865
C151	C	0.534502	-0.170859	0.340581
C152	C	1.034502	0.329141	0.840581
C153	C	0.537137	-0.166252	0.250010
C154	C	1.037137	0.333748	0.750010
C155	C	0.554366	-0.136241	0.659332
C156	C	1.054366	0.363759	1.159332
C157	C	0.551735	-0.140846	0.749909
C158	C	1.051735	0.359154	1.249909
C159	C	0.613075	-0.033834	0.749894
C160	C	1.113075	0.466166	1.249894
C161	C	0.615708	-0.029235	0.659321
C162	C	1.115708	0.470765	1.159321
C163	C	0.586352	-0.080435	0.614045
C164	C	1.086352	0.419565	1.114045
C165	C	0.561162	-0.124364	0.478445
C166	C	1.061162	0.375636	0.978445
C167	C	0.589044	-0.075722	0.521466
C168	C	1.089044	0.424278	1.021466
H169	H	0.726710	0.035047	-0.000062
H170	H	1.226710	0.535047	0.499938
Cl171	Cl	0.830652	0.064931	-0.000039
Cl172	Cl	1.330652	0.564931	0.499961
Cl173	Cl	0.494289	-0.241014	0.397520
Cl174	Cl	0.994289	0.258986	0.897520
H175	H	0.480976	0.267170	-0.000055
H176	H	0.980976	0.767170	0.499945
H177	H	0.646996	0.155052	-0.000035
H178	H	1.146996	0.655052	0.499965
Cl179	Cl	0.482948	0.658543	-0.000054
Cl180	Cl	0.982948	1.158543	0.499946
H181	H	0.510922	0.497005	-0.000064
H182	H	1.010922	0.997005	0.499936
Cl183	Cl	0.638694	0.010913	0.193068
Cl184	Cl	1.138694	0.510913	0.693068
H185	H	0.488684	0.119307	-0.000046
H186	H	0.988684	0.619307	0.499954
Cl187	Cl	0.933281	-0.329979	-0.000017
Cl188	Cl	1.433281	0.170021	0.499983
Cl189	Cl	0.817912	-0.256781	-0.000068
Cl190	Cl	1.317912	0.243219	0.499932
Cl191	Cl	0.520953	-0.194523	0.535389
Cl192	Cl	1.020953	0.305477	1.035389
H193	H	0.961617	0.102501	-0.000033
H194	H	1.461617	0.602501	0.499967
Cl195	Cl	0.679906	0.703006	-0.000055
Cl196	Cl	1.179906	1.203006	0.499945
H197	H	1.433760	0.023435	-0.000030
H198	H	1.933760	0.523435	0.499970
H199	H	0.632071	0.398828	-0.000078
H200	H	1.132071	0.898828	0.499922
H201	H	0.525687	-0.186294	0.786783
H202	H	1.025687	0.313706	1.286783
H203	H	0.513235	-0.207943	0.213146
H204	H	1.013235	0.292057	0.713146
H205	H	0.619742	-0.022157	0.377437
H206	H	1.119742	0.477843	0.877437
Cl207	Cl	1.216921	0.129880	-0.000011
Cl208	Cl	1.716921	0.629880	0.499989
Cl209	Cl	0.657667	0.325313	-0.000048
Cl210	Cl	1.157667	0.825313	0.499952
H211	H	1.053133	0.100998	-0.000023
H212	H	1.553133	0.600998	0.499977
Cl213	Cl	0.497873	0.414770	-0.000059
Cl214	Cl	0.997873	0.914770	0.499941
H215	H	0.641753	0.016208	0.622445
H216	H	1.141753	0.516208	1.122445
H217	H	0.530464	-0.177931	0.622475
H218	H	1.030464	0.322069	1.122475
Cl219	Cl	0.649976	0.030530	0.806816
Cl220	Cl	1.149976	0.530530	1.306816
Cl221	Cl	0.629252	-0.005564	0.464526
Cl222	Cl	1.129252	0.494436	0.964526
H223	H	1.342226	0.024947	-0.000035
H224	H	1.842226	0.524947	0.499965
H225	H	1.423499	-0.235139	-0.000052
H226	H	1.923499	0.264861	0.499948
H227	H	1.037224	-0.300108	-0.000029
H228	H	1.537224	0.199892	0.499971
Cl229	Cl	1.103048	0.131763	-0.000025
Cl230	Cl	1.603048	0.631763	0.499975
Cl231	Cl	1.319557	-0.265020	-0.000043
Cl232	Cl	1.819557	0.234980	0.499957
H233	H	0.669235	0.532739	-0.000052
H234	H	1.169235	1.032739	0.499948
H235	H	0.716454	-0.223527	-0.000072
H236	H	1.216454	0.276473	0.499928
H237	H	1.188584	-0.302582	-0.000034
H238	H	1.688584	0.197418	0.499966
H239	H	1.097068	-0.301078	-0.000036
H240	H	1.597068	0.198922	0.499964
