data_functionalizedCrystal
_audit_creation_method	'MofGen! by Chris Wilmer'
_symmetry_space_group_name_H-M	'P1'
_symmetry_Int_Tables_number	1
_symmetry_cell_setting	triclinic
loop_
_symmetry_equiv_pos_as_xyz
  x,y,z
_cell_length_a	13.635800
_cell_length_b	17.458011
_cell_length_c	17.458048
_cell_angle_alpha	94.087977
_cell_angle_beta	73.632323
_cell_angle_gamma	73.632728
loop_
_atom_site_label
_atom_site_type_symbol
_atom_site_fract_x
_atom_site_fract_y
_atom_site_fract_z
V1	V	2.037770	-0.112157	-0.249885
O2	O	2.023317	0.003757	-0.244390
O3	O	2.020811	-0.220819	-0.248886
O4	O	2.020808	-0.111148	-0.358545
O5	O	2.023320	-0.106673	-0.133972
V6	V	2.277707	-0.098208	-0.235935
O7	O	2.172399	-0.142756	-0.280486
O8	O	2.368177	-0.067609	-0.205334
O9	O	2.183063	0.010453	-0.236934
O10	O	2.350859	-0.214122	-0.241430
O11	O	2.350856	-0.103693	-0.351848
O12	O	2.183066	-0.099217	-0.127275
V13	V	2.537770	-0.112157	-0.249885
O14	O	2.523317	0.003757	-0.244390
O15	O	2.520811	-0.220819	-0.248886
O16	O	2.520808	-0.111148	-0.358545
O17	O	2.523320	-0.106673	-0.133972
V18	V	2.777707	-0.098208	-0.235935
O19	O	2.672399	-0.142756	-0.280486
O20	O	2.868177	-0.067609	-0.205334
O21	O	2.683063	0.010453	-0.236934
O22	O	2.850859	-0.214122	-0.241430
O23	O	2.850856	-0.103693	-0.351848
O24	O	2.683066	-0.099217	-0.127275
C25	C	2.444838	-0.247286	-0.245127
C26	C	2.471664	-0.336122	-0.245034
C27	C	1.944838	-0.247286	-0.245127
C28	C	1.971664	-0.336122	-0.245034
C29	C	2.575875	-0.381941	-0.249010
C30	C	2.601099	-0.465415	-0.248935
C31	C	2.522108	-0.503068	-0.244879
C32	C	2.417889	-0.457243	-0.240905
C33	C	2.392668	-0.373772	-0.240986
C34	C	2.132499	-0.836605	-0.244852
C35	C	2.107289	-0.753135	-0.244950
C36	C	2.003083	-0.707310	-0.240990
C37	C	1.924079	-0.744958	-0.236924
C38	C	1.949287	-0.828426	-0.236821
C39	C	1.917867	-0.457238	-0.240865
C40	C	1.892666	-0.373765	-0.240971
C41	C	2.075878	-0.381948	-0.248995
C42	C	2.101080	-0.465418	-0.248896
C43	C	2.022072	-0.503057	-0.244826
N44	N	1.977314	-0.621990	-0.241093
N45	N	2.047840	-0.588375	-0.244718
C46	C	1.944834	-0.107389	-0.385007
C47	C	1.971655	-0.107284	-0.473842
C48	C	2.090707	0.036916	-0.240691
C49	C	2.053501	0.125752	-0.240789
C50	C	2.132507	-0.107144	-0.974331
C51	C	2.107298	-0.107244	-0.890862
C52	C	2.003088	-0.103273	-0.845034
C53	C	1.924085	-0.099211	-0.882682
C54	C	1.949296	-0.099117	-0.966152
C55	C	1.917864	-0.103128	-0.594959
C56	C	1.892657	-0.103219	-0.511484
C57	C	2.075873	-0.111254	-0.519669
C58	C	2.101075	-0.111155	-0.603139
C59	C	2.022072	-0.107097	-0.640780
N60	N	1.977317	-0.103372	-0.759714
N61	N	2.047845	-0.107004	-0.726100
C62	C	2.090711	-0.102978	-0.100809
C63	C	2.053509	-0.103080	-0.011973
C64	C	2.444834	-0.107389	-0.385007
C65	C	2.471655	-0.107284	-0.473842
C66	C	2.590707	0.036916	-0.240691
C67	C	2.553501	0.125752	-0.240789
C68	C	2.590711	-0.102978	-0.100809
C69	C	2.553509	-0.103080	-0.011973
C70	C	2.575862	-0.111244	-0.519659
C71	C	2.601073	-0.111134	-0.603127
C72	C	2.522079	-0.107069	-0.640778
C73	C	2.417863	-0.103106	-0.594954
C74	C	2.392651	-0.103210	-0.511487
C75	C	2.621783	0.171571	-0.236815
C76	C	2.586831	0.255044	-0.236894
C77	C	2.483600	0.292697	-0.240952
C78	C	2.415312	0.246872	-0.244924
C79	C	2.450261	0.163401	-0.244839
C80	C	2.450273	-0.107136	0.025657
C81	C	2.415299	-0.107222	0.109128
C82	C	2.483565	-0.103258	0.154967
C83	C	2.586809	-0.099199	0.117331
C84	C	2.621778	-0.099108	0.033862
H85	H	2.685964	-0.502714	-0.252169
H86	H	2.455155	0.360665	-0.241020
N87	N	2.549318	-0.593099	-0.244791
H88	H	2.627324	-0.616405	-0.247923
H89	H	2.501784	-0.603460	-0.193370
N90	N	2.303974	0.287484	-0.249309
H91	H	2.261451	0.330016	-0.199708
H92	H	2.309958	0.313803	-0.299377
H93	H	1.853527	-0.487872	-0.237541
N94	N	1.811686	-0.094930	-0.833259
H95	H	1.807698	-0.095601	-0.774669
H96	H	1.758515	-0.043337	-0.837985
H97	H	1.807808	-0.336457	-0.237751
H98	H	2.185930	-0.114383	-0.640445
H99	H	2.455082	-0.103343	0.222930
N100	N	2.161073	-0.115639	-0.479063
H101	H	2.223087	-0.167200	-0.503460
H102	H	2.187846	-0.067524	-0.487303
N103	N	1.811682	-0.695536	-0.232649
H104	H	1.807700	-0.636948	-0.233335
H105	H	1.793677	-0.716431	-0.280702
N106	N	1.780254	-0.098939	-0.462054
H107	H	1.748133	-0.048975	-0.419163
H108	H	1.734116	-0.096387	-0.498623
H109	H	1.853531	-0.099823	-0.625596
N110	N	1.864099	-0.094751	-1.006758
H111	H	1.794257	-0.092252	-0.965063
H112	H	1.852980	-0.044721	-1.033138
N113	N	2.161083	-0.341346	-0.253383
H114	H	2.137122	-0.298810	-0.203784
H115	H	2.230890	-0.383093	-0.255903
H116	H	2.705844	0.140925	-0.233512
N117	N	2.280260	-0.324363	-0.236694
H118	H	2.227032	-0.329037	-0.185103
H119	H	2.276349	-0.265791	-0.237394
N120	N	2.376608	0.113986	-0.249128
H121	H	2.305913	0.150511	-0.251714
H122	H	2.411568	0.071101	-0.299091
N123	N	2.660502	0.304455	-0.232628
H124	H	2.625650	0.347346	-0.182664
H125	H	2.731185	0.267870	-0.230089
N126	N	1.864082	-0.869029	-0.232433
H127	H	1.794242	-0.827335	-0.229941
H128	H	1.888135	-0.911572	-0.282035
N129	N	2.213512	-0.514792	-0.253208
H130	H	2.266690	-0.510087	-0.304810
H131	H	2.231503	-0.493925	-0.205137
H132	H	2.394673	-0.110364	-0.011655
N133	N	2.244902	-0.111417	-1.023755
H134	H	2.291121	-0.114008	-0.987240
H135	H	2.276936	-0.161373	-1.066649
N136	N	2.661069	-0.115612	-0.479061
H137	H	2.629298	-0.115075	-0.419230
H138	H	2.723072	-0.167162	-0.503524
H139	H	2.331231	-0.110527	0.139759
N140	N	2.733131	-0.094735	-0.006712
H141	H	2.788721	-0.142819	0.001534
H142	H	2.744846	-0.095250	-0.066530
H143	H	2.171621	-0.722491	-0.248262
H144	H	2.685937	-0.114365	-0.640426
N145	N	2.660422	-0.094923	0.166785
H146	H	2.673918	-0.144605	0.193515
H147	H	2.731088	-0.092310	0.130244
N148	N	2.661083	-0.341341	-0.253386
H149	H	2.730924	-0.383044	-0.255897
H150	H	2.672190	-0.314964	-0.303418
H151	H	2.217354	-0.873911	-0.248081
N152	N	2.332693	-0.497859	-0.236508
H153	H	2.356645	-0.540394	-0.286106
H154	H	2.321556	-0.524176	-0.186438
H155	H	2.542623	-0.106986	-0.708743
N156	N	2.192502	-0.111625	-0.850260
H157	H	2.262342	-0.114120	-0.891956
H158	H	2.168446	-0.062018	-0.807724
N159	N	2.332669	-0.098722	-0.635569
H160	H	2.364466	-0.099262	-0.695397
H161	H	2.305851	-0.146812	-0.627285
H162	H	2.307795	-0.099986	-0.474188
