data_functionalizedCrystal
_audit_creation_method	'MofGen! by Chris Wilmer'
_symmetry_space_group_name_H-M	'P1'
_symmetry_Int_Tables_number	1
_symmetry_cell_setting	triclinic
loop_
_symmetry_equiv_pos_as_xyz
  x,y,z
_cell_length_a	19.077241
_cell_length_b	19.077114
_cell_length_c	19.076919
_cell_angle_alpha	94.472739
_cell_angle_beta	89.886096
_cell_angle_gamma	94.709190
loop_
_atom_site_label
_atom_site_type_symbol
_atom_site_fract_x
_atom_site_fract_y
_atom_site_fract_z
Zn1	Zn	-1.047576	0.256332	0.450423
Zn2	Zn	-1.047486	0.369489	0.337268
Zn3	Zn	-0.934807	0.255960	0.328186
Zn4	Zn	-0.924912	0.378907	0.450366
O5	O	-0.988695	0.315172	0.391561
O6	O	-1.146056	0.267557	0.439237
O7	O	-1.036642	0.350332	0.237575
O8	O	-0.953945	0.157199	0.340624
O9	O	-1.145990	0.350693	0.356103
O10	O	-1.036796	0.157472	0.430431
O11	O	-0.953858	0.266923	0.230903
O12	O	-0.835003	0.276055	0.340569
O13	O	-0.937080	0.366745	0.548862
O14	O	-0.827732	0.366384	0.430334
O15	O	-1.027201	0.276689	0.548904
O16	O	-1.027047	0.469549	0.356048
O17	O	-0.936992	0.476468	0.439140
C18	C	-0.805830	0.322202	0.384460
C19	C	-0.727597	0.325227	0.381440
C20	C	-0.690873	0.283438	0.423376
C21	C	-0.617366	0.286276	0.420531
C22	C	-0.580585	0.330908	0.375754
C23	C	-0.617314	0.372698	0.333814
C24	C	-0.690820	0.369855	0.336655
C25	C	-0.360743	0.344040	0.362605
C26	C	-0.287231	0.346881	0.359769
C27	C	-0.287288	0.260458	0.446486
C28	C	-0.360795	0.257622	0.449326
C29	C	-0.397519	0.299410	0.407383
N30	N	-0.505449	0.333812	0.372848
N31	N	-0.472654	0.296501	0.410286
C32	C	-0.980955	0.498629	0.398589
C33	C	-0.977707	0.577111	0.401622
C34	C	-0.981046	0.322809	0.575134
C35	C	-0.977787	0.326063	0.653361
C36	C	-0.172275	0.308112	0.398684
C37	C	-0.250507	0.305092	0.401705
C38	C	-1.023101	0.610356	0.359824
C39	C	-1.020050	0.684099	0.362681
C40	C	-0.971601	0.724595	0.407332
C41	C	-0.926205	0.691344	0.449135
C42	C	-0.929260	0.617603	0.446282
C43	C	-0.957437	0.945526	0.420505
C44	C	-0.954384	1.019272	0.423354
C45	C	-1.048231	1.012022	0.336900
C46	C	-1.051278	0.938279	0.334047
C47	C	-1.005885	0.905036	0.375853
N48	N	-0.968480	0.799971	0.410252
N49	N	-1.009010	0.829660	0.372937
C50	C	-0.996478	1.131000	0.384530
C51	C	-0.999778	1.052518	0.381556
C52	C	-0.996357	0.307513	0.208702
C53	C	-0.999761	0.304054	0.130472
C54	C	-1.023174	0.280707	0.690136
C55	C	-1.020103	0.283763	0.763639
C56	C	-0.971648	0.332178	0.800366
C57	C	-0.926255	0.377536	0.763586
C58	C	-0.929324	0.374477	0.690084
C59	C	-0.957437	0.346353	1.020190
C60	C	-0.954374	0.349410	1.093697
C61	C	-1.048221	0.255635	1.093745
C62	C	-1.051288	0.252583	1.020242
C63	C	-1.005893	0.297939	0.983468
N64	N	-0.968509	0.335304	0.875498
N65	N	-1.009029	0.294809	0.908337
H66	H	-0.587468	0.252249	0.454682
O67	O	-0.879235	0.730756	0.492552
C68	C	-0.915610	0.773698	0.541254
H69	H	-0.969545	0.781627	0.518973
H70	H	-0.884392	0.827068	0.551555
H71	H	-0.922305	0.747126	0.592616
O72	O	-0.913304	0.390473	0.984584
C73	C	-0.869865	0.433843	1.032764
H74	H	-0.896413	0.437375	1.086368
H75	H	-0.860868	0.488877	1.013355
H76	H	-0.817188	0.410349	1.037527
H77	H	-0.892296	0.590536	0.480319
H78	H	-1.057064	0.246831	0.793578
H79	H	-0.587361	0.409035	0.297352
H80	H	-0.886799	0.416954	0.793495
H81	H	-0.914913	0.388837	1.123599
H82	H	-0.892357	0.411404	0.660143
O83	O	-0.251460	0.390315	0.316369
C84	C	-0.205349	0.439281	0.356471
H85	H	-0.225021	0.445185	0.412919
H86	H	-0.203284	0.492549	0.332969
H87	H	-0.150459	0.419706	0.355950
O88	O	-0.726534	0.410346	0.295842
C89	C	-0.772643	0.366543	0.250562
H90	H	-0.753007	0.311603	0.243319
H91	H	-0.774654	0.389709	0.197364
H92	H	-0.827550	0.362895	0.274387
H93	H	-1.090729	0.905309	0.297688
H94	H	-0.720815	0.247096	0.459840
H95	H	-1.090747	0.213160	0.990344
O96	O	-0.396416	0.214199	0.492832
C97	C	-0.348238	0.177933	0.529248
H98	H	-0.297139	0.176275	0.498307
H99	H	-0.371501	0.121805	0.535529
H100	H	-0.337117	0.206392	0.583354
H101	H	-0.257380	0.226436	0.480633
O102	O	-0.396368	0.384741	0.321943
C103	C	-0.374795	0.456467	0.339202
H104	H	-0.352110	0.463239	0.394784
H105	H	-0.421919	0.489222	0.336280
H106	H	-0.332914	0.474942	0.300500
O107	O	-1.070226	0.571127	0.316431
C108	C	-1.109625	0.616287	0.280139
H109	H	-1.108662	0.669943	0.311098
H110	H	-1.166281	0.592493	0.274002
H111	H	-1.085794	0.622943	0.225973
H112	H	-1.085188	1.039097	0.302865
O113	O	-1.070266	0.233613	0.654569
C114	C	-1.109678	0.194248	0.702794
H115	H	-1.078764	0.195093	0.753973
H116	H	-1.120424	0.137442	0.679725
H117	H	-1.161712	0.218376	0.713679
O118	O	-1.092238	0.211605	1.129574
C119	C	-1.079154	0.224696	1.202325
H120	H	-1.023442	0.250329	1.211136
H121	H	-1.084997	0.172783	1.228422
H122	H	-1.118443	0.261559	1.226245
O123	O	-1.064309	0.716371	0.322235
C124	C	-1.106287	0.758829	0.365833
H125	H	-1.109054	0.738725	0.420579
H126	H	-1.161549	0.756389	0.342659
H127	H	-1.082204	0.815705	0.369514
H128	H	-0.914939	1.052243	0.459728
H129	H	-0.920474	0.918465	0.454544
