data_functionalizedCrystal
_audit_creation_method	'MofGen! by Chris Wilmer'
_symmetry_space_group_name_H-M	'P1'
_symmetry_Int_Tables_number	1
_symmetry_cell_setting	triclinic
loop_
_symmetry_equiv_pos_as_xyz
  x,y,z
_cell_length_a	13.032127
_cell_length_b	13.033808
_cell_length_c	19.805399
_cell_angle_alpha	82.841491
_cell_angle_beta	97.211097
_cell_angle_gamma	105.193324
loop_
_atom_site_label
_atom_site_type_symbol
_atom_site_fract_x
_atom_site_fract_y
_atom_site_fract_z
Zn1	Zn	-0.216377	1.570085	0.235919
Zn2	Zn	0.283623	2.070085	0.735919
Zn3	Zn	-0.394046	1.547445	0.109970
Zn4	Zn	0.105954	2.047445	0.609970
Zn5	Zn	-0.239004	1.392478	0.135473
Zn6	Zn	0.260996	1.892478	0.635473
Zn7	Zn	-0.416572	1.369909	0.235849
Zn8	Zn	0.083428	1.869909	0.735849
O9	O	-0.316500	1.469979	0.179303
O10	O	0.183500	1.969979	0.679303
O11	O	-0.221048	1.715710	0.208568
O12	O	0.278952	2.215710	0.708568
O13	O	-0.373522	1.526858	0.018635
O14	O	0.126478	2.026858	0.518635
O15	O	-0.087334	1.434957	0.159501
O16	O	0.412666	1.934957	0.659501
O17	O	-0.351582	1.699076	0.116034
O18	O	0.148418	2.199076	0.616034
O19	O	-0.070710	1.565444	0.233298
O20	O	0.429290	2.065444	0.733298
O21	O	-0.259613	1.413004	0.037373
O22	O	0.240387	1.913004	0.537373
O23	O	-0.281455	1.240856	0.159432
O24	O	0.218545	1.740856	0.659432
O25	O	-0.389973	1.396493	0.330576
O26	O	0.110027	1.896493	0.830576
O27	O	-0.411913	1.224275	0.233178
O28	O	0.088087	1.724275	0.733178
O29	O	-0.242890	1.543561	0.330628
O30	O	0.257110	2.043561	0.830628
O31	O	-0.545703	1.504974	0.115965
O32	O	-0.045703	2.004974	0.615965
O33	O	-0.562252	1.374540	0.208448
O34	O	-0.062252	1.874540	0.708448
C35	C	-0.351585	1.194028	0.199065
C36	C	0.148415	1.694028	0.699065
C37	C	-0.366620	1.075971	0.207534
C38	C	0.133380	1.575971	0.707534
C39	C	-0.324210	0.909509	0.183647
C40	C	0.175790	1.409509	0.683647
C41	C	-0.308671	1.031527	0.174892
C42	C	0.191329	1.531527	0.674892
C43	C	-0.592521	1.434880	0.159444
C44	C	-0.092521	1.934880	0.659444
C45	C	-0.710592	1.419962	0.150964
C46	C	-0.210592	1.919962	0.650964
C47	C	-0.876967	1.462407	0.174978
C48	C	-0.376967	1.962407	0.674978
C49	C	-0.754933	1.477834	0.183744
C50	C	-0.254933	1.977834	0.683744
C51	C	-0.039396	1.505244	0.199252
C52	C	0.460604	2.005244	0.699252
C53	C	0.078689	1.520271	0.207753
C54	C	0.578689	2.020271	0.707753
C55	C	-0.316420	1.470035	0.355848
C56	C	0.183580	1.970035	0.855848
C57	C	-0.316386	1.470059	0.431080
C58	C	0.183614	1.970059	0.931080
C59	C	-0.281278	1.747008	0.159464
C60	C	0.218722	2.247008	0.659464
C61	C	-0.266269	1.865061	0.151009
C62	C	0.233731	2.365061	0.651009
C63	C	-0.316495	1.469994	0.003446
C64	C	0.183505	1.969994	0.503446
C65	C	-0.316203	1.470214	-0.071780
C66	C	0.183797	1.970214	0.428220
C67	C	-0.257065	1.410795	0.476180
C68	C	0.242935	1.910795	0.976180
C69	C	-0.257042	1.410813	0.546869
C70	C	0.242958	1.910813	1.046869
C71	C	-0.316336	1.470100	0.572457
C72	C	0.183664	1.970100	1.072457
C73	C	-0.375664	1.529366	0.527352
C74	C	0.124336	2.029366	1.027352
C75	C	-0.375692	1.529342	0.456664
C76	C	0.124308	2.029342	0.956664
C77	C	-0.375554	1.529462	0.812427
C78	C	0.124446	2.029462	1.312427
C79	C	-0.375519	1.529484	0.883120
C80	C	0.124481	2.029484	1.383120
C81	C	-0.256904	1.410933	0.902631
C82	C	0.243096	1.910933	1.402631
C83	C	-0.256932	1.410909	0.831943
C84	C	0.243068	1.910909	1.331943
C85	C	-0.316265	1.470170	0.786845
C86	C	0.183735	1.970170	1.286845
C87	C	-0.316290	1.470149	0.710196
C88	C	0.183710	1.970149	1.210196
C89	C	-0.316305	1.470128	0.649104
C90	C	0.183695	1.970128	1.149104
H91	H	-0.205164	0.917340	0.116583
H92	H	0.294836	1.417340	0.616583
F93	F	-0.945427	1.382715	0.129826
F94	F	-0.445427	1.882715	0.629826
H95	H	-0.208774	1.362523	0.455352
H96	H	0.291226	1.862523	0.955352
H97	H	-0.423807	1.577765	0.903950
H98	H	0.076193	2.077765	1.403950
H99	H	-0.423948	1.577632	0.548191
H100	H	0.076052	2.077632	1.048191
F101	F	-0.446498	1.007649	0.252534
F102	F	0.053502	1.507649	0.752534
F103	F	-0.852853	1.599948	0.252916
F104	F	-0.352853	2.099948	0.752916
F105	F	-0.193761	1.347858	0.950634
F106	F	0.306239	1.847858	1.450634
F107	F	-0.193820	1.347812	0.804715
F108	F	0.306180	1.847812	1.304715
F109	F	-0.193948	1.347692	0.594864
F110	F	0.306052	1.847692	1.094864
F111	F	-0.779046	1.340274	0.105803
F112	F	-0.279046	1.840274	0.605803
F113	F	-0.438694	1.592539	0.764438
F114	F	0.061306	2.092539	1.264438
F115	F	-0.438834	1.592414	0.408666
F116	F	0.061166	2.092414	0.908666
F117	F	-0.404100	0.841180	0.228633
F118	F	0.095900	1.341180	0.728633
F119	F	-0.686478	1.557516	0.228909
F120	F	-0.186478	2.057516	0.728909
F121	F	-0.228796	1.099850	0.129890
F122	F	0.271204	1.599850	0.629890
