data_functionalizedCrystal
_audit_creation_method	'MofGen! by Chris Wilmer'
_symmetry_space_group_name_H-M	'P1'
_symmetry_Int_Tables_number	1
_symmetry_cell_setting	triclinic
loop_
_symmetry_equiv_pos_as_xyz
  x,y,z
_cell_length_a	16.959455
_cell_length_b	25.639240
_cell_length_c	16.959447
_cell_angle_alpha	89.963308
_cell_angle_beta	89.982507
_cell_angle_gamma	90.029705
loop_
_atom_site_label
_atom_site_type_symbol
_atom_site_fract_x
_atom_site_fract_y
_atom_site_fract_z
Zn1	Zn	1.208339	-0.208201	-0.446854
Zn2	Zn	1.708339	0.291799	0.053146
Zn3	Zn	1.208225	-0.295637	-0.314653
Zn4	Zn	1.708225	0.204363	0.185347
Zn5	Zn	1.076160	-0.208212	-0.314692
Zn6	Zn	1.576160	0.291788	0.185308
Zn7	Zn	1.076103	-0.295603	-0.446791
Zn8	Zn	1.576103	0.204397	0.053209
O9	O	1.142207	-0.251913	-0.380747
O10	O	1.642207	0.248087	0.119253
O11	O	1.318935	-0.219809	-0.429327
O12	O	1.818935	0.280191	0.070673
O13	O	1.190682	-0.284058	-0.204047
O14	O	1.690682	0.215942	0.295953
O15	O	1.093765	-0.135046	-0.332266
O16	O	1.593765	0.364954	0.167734
O17	O	1.318851	-0.284048	-0.332199
O18	O	1.818851	0.215952	0.167801
O19	O	1.190877	-0.135038	-0.429365
O20	O	1.690877	0.364962	0.070635
O21	O	1.093655	-0.219828	-0.204075
O22	O	1.593655	0.280172	0.295925
O23	O	0.965541	-0.219795	-0.332205
O24	O	1.465541	0.280205	0.167795
O25	O	1.093668	-0.283990	-0.557410
O26	O	1.593668	0.216010	-0.057410
O27	O	0.965499	-0.284001	-0.429258
O28	O	1.465499	0.215999	0.070742
O29	O	1.190821	-0.219777	-0.557457
O30	O	1.690821	0.280223	-0.057457
O31	O	1.190627	-0.368797	-0.332138
O32	O	1.690627	0.131203	0.167862
O33	O	1.093557	-0.368773	-0.429220
O34	O	1.593557	0.131227	0.070780
C35	C	0.936840	-0.251896	-0.380729
C36	C	1.436840	0.248104	0.119271
C37	C	0.848984	-0.251901	-0.380740
C38	C	1.348984	0.248099	0.119260
C39	C	0.477506	-0.218454	-0.330317
C40	C	0.977506	0.281546	0.169683
C41	C	0.477511	-0.285416	-0.431222
C42	C	0.977511	0.214584	0.068778
C43	C	0.560056	-0.285408	-0.431218
C44	C	1.060056	0.214592	0.068782
C45	C	0.601331	-0.251924	-0.380761
C46	C	1.101331	0.248076	0.119239
C47	C	0.560059	-0.218447	-0.330309
C48	C	1.060059	0.281553	0.169691
C49	C	0.601334	-0.318888	-0.481663
C50	C	1.101334	0.181112	0.018337
C51	C	0.683885	-0.318882	-0.481659
C52	C	1.183885	0.181118	0.018341
C53	C	0.725161	-0.285395	-0.431206
C54	C	1.225161	0.214605	0.068794
C55	C	0.683884	-0.251916	-0.380753
C56	C	1.183884	0.248084	0.119247
C57	C	0.725159	-0.218432	-0.330296
C58	C	1.225159	0.281568	0.169704
C59	C	0.683883	-0.184950	-0.279847
C60	C	1.183883	0.315050	0.220153
C61	C	0.601335	-0.184959	-0.279856
C62	C	1.101335	0.315041	0.220144
C63	C	0.807709	-0.285386	-0.431197
C64	C	1.307709	0.214614	0.068803
C65	C	0.807712	-0.218424	-0.330288
C66	C	1.307712	0.281576	0.169712
C67	C	1.142095	-0.387756	-0.380685
C68	C	1.642095	0.112244	0.119315
C69	C	1.142119	-0.445870	-0.380685
C70	C	1.642119	0.054130	0.119315
C71	C	1.192797	-0.806190	-0.431398
C72	C	1.692797	-0.306190	0.068602
C73	C	1.192821	-0.860795	-0.431414
C74	C	1.692821	-0.360795	0.068586
O75	O	1.235776	-0.888995	-0.474468
O76	O	1.735776	-0.388995	0.025532
N77	N	1.142316	-0.888152	-0.380824
N78	N	1.642316	-0.388152	0.119176
C79	C	1.091779	-0.860903	-0.330220
C80	C	1.591779	-0.360903	0.169780
O81	O	1.048823	-0.889187	-0.287190
O82	O	1.548823	-0.389187	0.212810
C83	C	1.091753	-0.806300	-0.330208
C84	C	1.591753	-0.306300	0.169792
C85	C	1.142266	-0.778945	-0.380796
C86	C	1.642266	-0.278945	0.119204
C87	C	1.243306	-0.778835	-0.481983
C88	C	1.743306	-0.278835	0.018017
C89	C	1.243284	-0.724235	-0.481965
C90	C	1.743284	-0.224235	0.018035
C91	C	1.192753	-0.696989	-0.431364
C92	C	1.692753	-0.196989	0.068636
C93	C	1.142244	-0.724344	-0.380779
C94	C	1.642244	-0.224344	0.119221
C95	C	1.041212	-0.779051	-0.279609
C96	C	1.541212	-0.279051	0.220391
C97	C	1.041190	-0.724444	-0.279602
C98	C	1.541190	-0.224444	0.220398
C99	C	1.091703	-0.697089	-0.330190
C100	C	1.591703	-0.197089	0.169810
C101	C	1.091690	-0.642498	-0.330160
C102	C	1.591690	-0.142498	0.169840
N103	N	1.142195	-0.615140	-0.380750
N104	N	1.642195	-0.115140	0.119250
C105	C	1.192726	-0.642386	-0.431352
C106	C	1.692726	-0.142386	0.068648
C107	C	1.091838	-0.975574	-0.330249
C108	C	1.591838	-0.475574	0.169751
C109	C	1.091868	-1.030176	-0.330255
C110	C	1.591868	-0.530176	0.169745
C111	C	1.192909	-1.030064	-0.431451
C112	C	1.692909	-0.530064	0.068549
C113	C	1.192882	-0.975461	-0.431440
C114	C	1.692882	-0.475461	0.068560
C115	C	1.142343	-0.948216	-0.380839
C116	C	1.642343	-0.448216	0.119161
C117	C	1.192675	-0.527721	-0.431311
C118	C	1.692675	-0.027721	0.068689
C119	C	1.192651	-0.473116	-0.431287
C120	C	1.692651	0.026884	0.068713
C121	C	1.091607	-0.473232	-0.330095
C122	C	1.591607	0.026768	0.169905
C123	C	1.091635	-0.527833	-0.330116
C124	C	1.591635	-0.027833	0.169884
C125	C	1.142171	-0.555076	-0.380730
C126	C	1.642171	-0.055076	0.119270
O127	O	1.048754	-0.614263	-0.287130
O128	O	1.548754	-0.114263	0.212870
O129	O	1.235668	-0.614095	-0.474381
O130	O	1.735668	-0.114095	0.025619
C131	C	1.348375	-0.251931	-0.380766
C132	C	1.848375	0.248069	0.119234
C133	C	1.436231	-0.251939	-0.380774
C134	C	1.936231	0.248061	0.119226
C135	C	1.142251	-0.251879	-0.586916
C136	C	1.642251	0.248121	-0.086916
C137	C	1.142270	-0.251864	-0.674772
C138	C	1.642270	0.248136	-0.174772
C139	C	1.142340	-0.115540	-0.380827
C140	C	1.642340	0.384460	0.119173
C141	C	1.142397	-0.057426	-0.380861
C142	C	1.642397	0.442574	0.119139
C143	C	1.091696	-0.285290	-0.716024
C144	C	1.591696	0.214710	-0.216024
C145	C	1.192856	-0.218420	-0.716074
C146	C	1.692856	0.281580	-0.216074
C147	C	1.192873	-0.218403	-0.798620
C148	C	1.692873	0.281597	-0.298620
C149	C	1.142299	-0.251829	-0.839872
C150	C	1.642299	0.248171	-0.339872
C151	C	1.091710	-0.285273	-0.798577
C152	C	1.591710	0.214727	-0.298577
C153	C	1.243456	-0.184956	-0.839921
C154	C	1.743456	0.315044	-0.339921
C155	C	1.243474	-0.184937	-0.922472
C156	C	1.743474	0.315063	-0.422472
C157	C	1.192904	-0.218367	-0.963725
C158	C	1.692904	0.281633	-0.463725
C159	C	1.142313	-0.251812	-0.922425
C160	C	1.642313	0.248188	-0.422425
C161	C	1.091739	-0.285239	-0.963677
C162	C	1.591739	0.214761	-0.463677
C163	C	1.041151	-0.318687	-0.922379
C164	C	1.541151	0.181313	-0.422379
C165	C	1.041139	-0.318703	-0.839830
C166	C	1.541139	0.181297	-0.339830
C167	C	1.192916	-0.218351	-1.046274
C168	C	1.692916	0.281649	-0.546274
C169	C	1.091752	-0.285222	-1.046231
C170	C	1.591752	0.214778	-0.546231
C171	C	1.142208	-0.251910	-0.175381
C172	C	1.642208	0.248090	0.324619
C173	C	1.142342	-0.251778	-0.087525
C174	C	1.642342	0.248222	0.412475
H175	H	0.567723	-0.346153	-0.522736
H176	H	1.067723	0.153847	-0.022736
H177	H	1.234014	-0.953191	-0.472633
H178	H	1.734014	-0.453191	0.027367
H179	H	0.717484	-0.346145	-0.522739
H180	H	1.217484	0.153855	-0.022739
H181	H	1.050509	-0.550107	-0.288916
H182	H	1.550509	-0.050107	0.211084
H183	H	1.050511	-0.312525	-0.682395
H184	H	1.550511	0.187475	-0.182395
H185	H	1.050468	-0.451041	-0.288893
H186	H	1.550468	0.048959	0.211107
H187	H	1.050685	-0.953394	-0.289037
H188	H	1.550685	-0.453394	0.210963
H189	H	1.050572	-0.312444	-1.079812
H190	H	1.550572	0.187556	-0.579812
H191	H	1.284667	-0.157702	-0.956090
H192	H	1.784667	0.342298	-0.456090
H193	H	1.234027	-0.191203	-0.682483
H194	H	1.734027	0.308797	-0.182483
H195	H	0.567721	-0.157701	-0.238782
H196	H	1.067721	0.342299	0.261218
H197	H	1.234053	-1.052257	-0.472656
H198	H	1.734053	-0.552257	0.027344
H199	H	1.000032	-0.702264	-0.238397
H200	H	1.500032	-0.202264	0.261603
H201	H	1.284455	-0.801013	-0.523194
H202	H	1.784455	-0.301013	-0.023194
H203	H	0.443896	-0.191193	-0.289245
H204	H	0.943896	0.308807	0.210755
H205	H	0.999970	-0.345900	-0.955977
H206	H	1.499970	0.154100	-0.455977
H207	H	1.050744	-1.052444	-0.289053
H208	H	1.550744	-0.552444	0.210947
H209	H	0.841312	-0.191154	-0.289205
H210	H	1.341312	0.308846	0.210795
H211	H	1.000079	-0.801314	-0.238414
H212	H	1.500079	-0.301314	0.261586
H213	H	0.999953	-0.345934	-0.806198
H214	H	1.499953	0.154066	-0.306198
H215	H	0.841312	-0.312648	-0.472270
H216	H	1.341312	0.187352	0.027730
H217	H	1.284627	-0.157740	-0.806328
H218	H	1.784627	0.342260	-0.306328
H219	H	1.233788	-0.450845	-0.472482
H220	H	1.733788	0.049155	0.027518
H221	H	0.717500	-0.157689	-0.238762
H222	H	1.217500	0.342311	0.261238
H223	H	0.443900	-0.312680	-0.472297
H224	H	0.943900	0.187320	0.027703
H225	H	1.233821	-0.549896	-0.472532
H226	H	1.733821	-0.049896	0.027468
H227	H	1.234097	-0.191114	-1.079895
H228	H	1.734097	0.308886	-0.579895
H229	H	1.284414	-0.701966	-0.523161
H230	H	1.784414	-0.201966	-0.023161
