data_functionalizedCrystal
_audit_creation_method	'MofGen! by Chris Wilmer'
_symmetry_space_group_name_H-M	'P1'
_symmetry_Int_Tables_number	1
_symmetry_cell_setting	triclinic
loop_
_symmetry_equiv_pos_as_xyz
  x,y,z
_cell_length_a	25.639239
_cell_length_b	12.594517
_cell_length_c	12.594509
_cell_angle_alpha	89.978673
_cell_angle_beta	90.034128
_cell_angle_gamma	89.961514
loop_
_atom_site_label
_atom_site_type_symbol
_atom_site_fract_x
_atom_site_fract_y
_atom_site_fract_z
Zn1	Zn	-0.208138	-1.627100	0.601816
Zn2	Zn	-0.295580	-1.626920	0.423819
Zn3	Zn	-0.208160	-1.449103	0.423845
Zn4	Zn	-0.295544	-1.449015	0.601750
O5	O	-0.251855	-1.538035	0.512808
O6	O	-0.219743	-1.776022	0.578222
O7	O	-0.284008	-1.603294	0.274877
O8	O	-0.134992	-1.472827	0.447492
O9	O	-0.283987	-1.775890	0.447448
O10	O	-0.134976	-1.603600	0.578247
O11	O	-0.219781	-1.472653	0.274896
O12	O	-0.219746	-1.300146	0.447427
O13	O	-0.283925	-1.472677	0.750704
O14	O	-0.283946	-1.300081	0.578133
O15	O	-0.219708	-1.603515	0.750753
O16	O	-0.368740	-1.603209	0.447384
O17	O	-0.368714	-1.472503	0.578108
C18	C	-0.387698	-1.537856	0.512759
C19	C	-0.445812	-1.537876	0.512774
C20	C	-0.251845	-1.261494	0.512776
C21	C	-0.251853	-1.143188	0.512788
C22	C	-0.251810	-1.538106	0.790429
C23	C	-0.251790	-1.538136	0.908734
C24	C	-0.806176	-1.606271	0.444855
C25	C	-0.860781	-1.606312	0.444870
O26	O	-0.889019	-1.664278	0.387070
N27	N	-0.888094	-1.538222	0.512878
C28	C	-0.860801	-1.470093	0.580885
O29	O	-0.889048	-1.412182	0.638733
C30	C	-0.806198	-1.470058	0.580875
C31	C	-0.778887	-1.538145	0.512854
C32	C	-0.778865	-1.674353	0.376841
C33	C	-0.724265	-1.674310	0.376826
C34	C	-0.696975	-1.606185	0.444825
C35	C	-0.724286	-1.538102	0.512839
C36	C	-0.778905	-1.401936	0.648886
C37	C	-0.724298	-1.401907	0.648871
C38	C	-0.696987	-1.469994	0.580850
C39	C	-0.642396	-1.469934	0.580822
N40	N	-0.615083	-1.538024	0.512814
C41	C	-0.642372	-1.606150	0.444815
C42	C	-0.975472	-1.470174	0.580901
C43	C	-1.030074	-1.470202	0.580906
C44	C	-1.030050	-1.606423	0.444892
C45	C	-0.975447	-1.606388	0.444883
C46	C	-0.948158	-1.538264	0.512892
C47	C	-0.527707	-1.606054	0.444787
C48	C	-0.473102	-1.606002	0.444775
C49	C	-0.473131	-1.469786	0.580792
C50	C	-0.527731	-1.469833	0.580801
C51	C	-0.555018	-1.537976	0.512795
O52	O	-0.614124	-1.412001	0.638596
O53	O	-0.614119	-1.664062	0.386986
C54	C	-0.115482	-1.538243	0.512880
C55	C	-0.057368	-1.538332	0.512911
C56	C	-0.251866	-1.815655	0.512840
C57	C	-0.251871	-1.933961	0.512853
C58	C	-0.216887	-1.073939	0.441833
C59	C	-0.264579	-1.003090	0.415643
C60	C	-0.204184	-1.003239	0.538996
C61	C	-0.299570	-1.073897	0.486547
C62	C	-0.239144	-1.074052	0.609946
C63	C	-0.286869	-1.003234	0.583793
C64	C	-0.251863	-1.538025	0.236267
C65	C	-0.251736	-1.538201	0.117962
C66	C	-0.286698	-1.466996	0.977961
C67	C	-0.299473	-1.564106	1.048748
C68	C	-0.238984	-1.441102	1.048746
C69	C	-0.264590	-1.635297	0.977964
C70	C	-0.204079	-1.512227	0.977955
C71	C	-0.216836	-1.609405	1.048711
H72	H	-0.549918	-1.661544	0.389413
O73	O	-0.277530	-1.733331	0.941216
C74	C	-0.286561	-1.801933	1.027755
H75	H	-0.265370	-1.770547	1.100878
H76	H	-0.330200	-1.806054	1.044564
C77	C	-0.292131	-1.952248	0.910993
C78	C	-0.266100	-1.913705	1.000802
H79	H	-0.279512	-2.021196	0.894366
H80	H	-0.286049	-1.906030	0.852688
H81	H	-0.328495	-1.955673	0.925012
H82	H	-0.229738	-1.910268	0.986777
H83	H	-0.272176	-1.959925	1.059103
H84	H	-1.052279	-1.661898	0.389527
O85	O	-1.056658	-1.404203	0.647027
C86	C	-1.088176	-1.464784	0.715862
H87	H	-1.096333	-1.545471	0.678400
H88	H	-1.067094	-1.476424	0.794739
C89	C	-1.130044	-1.307141	0.781117
C90	C	-1.140066	-1.406239	0.735102
H91	H	-1.162051	-1.271026	0.792991
H92	H	-1.108808	-1.266325	0.734745
H93	H	-1.112474	-1.316854	0.846844
H94	H	-1.157630	-1.396524	0.669372
H95	H	-1.161306	-1.447052	0.781464
O96	O	-0.446515	-1.672199	0.378846
C97	C	-0.414882	-1.740907	0.439497
H98	H	-0.406690	-1.703317	0.520121
H99	H	-0.435882	-1.819792	0.451273
C100	C	-0.373090	-1.806344	0.281909
C101	C	-0.363024	-1.760171	0.380929
H102	H	-0.341103	-1.818233	0.245780
H103	H	-0.394403	-1.760058	0.241046
H104	H	-0.390592	-1.872077	0.291736
H105	H	-0.345529	-1.694434	0.371100
H106	H	-0.341707	-1.806448	0.421789
H107	H	-0.228175	-1.359014	1.079838
O108	O	-0.277487	-0.965944	0.317680
C109	C	-0.327419	-1.003402	0.289496
H110	H	-0.336495	-1.078541	0.336459
H111	H	-0.357801	-0.940021	0.308313
C112	C	-0.317516	-0.936152	0.112171
C113	C	-0.328660	-1.028443	0.169844
H114	H	-0.318283	-0.951594	0.038363
H115	H	-0.283876	-0.910911	0.131159
H116	H	-0.342836	-0.883343	0.127864
H117	H	-0.303337	-1.081245	0.154161
H118	H	-0.362296	-1.053693	0.150850
O119	O	-0.697820	-1.740562	0.310728
C120	C	-0.733624	-1.800677	0.250707
H121	H	-0.772529	-1.804345	0.294321
H122	H	-0.739478	-1.761758	0.169830
C123	C	-0.664489	-1.909456	0.181910
C124	C	-0.712272	-1.913969	0.235483
H125	H	-0.651318	-1.979339	0.172514
H126	H	-0.640366	-1.868954	0.222344
H127	H	-0.669374	-1.877019	0.114519
H128	H	-0.707385	-1.946394	0.302878
H129	H	-0.736394	-1.954480	0.195060
O130	O	-0.181649	-1.681431	1.085497
C131	C	-0.195309	-1.783594	1.049213
H132	H	-0.238693	-1.785544	1.029444
H133	H	-0.171761	-1.803376	0.975049
C134	C	-0.130151	-1.863437	1.160745
C135	C	-0.183437	-1.865836	1.136474
H136	H	-0.122826	-1.914170	1.214569
H137	H	-0.120947	-1.794608	1.185188
H138	H	-0.110534	-1.879919	1.098935
H139	H	-0.203053	-1.849341	1.198280
H140	H	-0.192645	-1.934664	1.112043
O141	O	-0.347580	-1.590441	1.085736
C142	C	-0.361323	-1.692087	1.048153
H143	H	-0.338205	-1.710509	0.973088
H144	H	-0.352054	-1.753955	1.111524
C145	C	-0.448475	-1.672035	1.115089
C146	C	-0.420085	-1.694657	1.022888
H147	H	-0.484722	-1.673624	1.099509
H148	H	-0.439216	-1.603556	1.140414
H149	H	-0.440745	-1.723595	1.167890
H150	H	-0.427810	-1.643090	0.970095
H151	H	-0.429346	-1.763128	0.997554
H152	H	-0.316264	-1.406882	0.946897
O153	O	-0.226320	-1.111454	0.707850
C154	C	-0.226948	-1.223387	0.706649
H155	H	-0.253045	-1.252168	0.639249
H156	H	-0.185629	-1.254452	0.694182
C157	C	-0.216142	-1.229467	0.896005
C158	C	-0.248199	-1.264816	0.813229
H159	H	-0.229248	-1.255024	0.961750
H160	H	-0.215717	-1.154056	0.896815
H161	H	-0.181712	-1.255357	0.885602
H162	H	-0.282626	-1.238915	0.823626
H163	H	-0.248630	-1.340225	0.812424
H164	H	-0.163870	-0.972144	0.561099
O165	O	-0.181586	-1.111037	0.370313
C166	C	-0.143745	-1.172708	0.423308
H167	H	-0.142186	-1.148650	0.510502
H168	H	-0.154480	-1.260305	0.416976
C169	C	-0.091929	-1.183789	0.264875
C170	C	-0.090011	-1.154235	0.371965
H171	H	-0.058784	-1.172400	0.233202
H172	H	-0.117424	-1.142244	0.229169
H173	H	-0.100877	-1.256785	0.259612
H174	H	-0.081070	-1.081238	0.377225
H175	H	-0.064513	-1.195768	0.407671
O176	O	-0.805376	-1.740709	0.310965
C177	C	-0.836894	-1.809435	0.371668
H178	H	-0.820415	-1.815858	0.455515
H179	H	-0.878306	-1.776622	0.375264
C180	C	-0.857881	-1.912265	0.216874
C181	C	-0.837639	-1.920161	0.319854
H182	H	-0.858342	-1.980565	0.184911
H183	H	-0.836648	-1.865961	0.175976
H184	H	-0.892389	-1.884917	0.219884
H185	H	-0.803129	-1.947496	0.316841
H186	H	-0.858866	-1.966472	0.360750
O187	O	-0.949046	-1.403883	0.646995
C188	C	-0.984868	-1.343819	0.707034
H189	H	-1.023806	-1.340194	0.663434
H190	H	-0.990631	-1.382753	0.787909
C191	C	-0.915791	-1.234961	0.775818
C192	C	-0.963614	-1.230502	0.722262
H193	H	-0.902680	-1.165063	0.785216
H194	H	-0.891657	-1.275430	0.735371
H195	H	-0.920600	-1.267412	0.843208
H196	H	-0.958804	-1.198064	0.654869
H197	H	-0.987747	-1.190025	0.762698
H198	H	-0.316480	-0.972385	0.643825
O199	O	-0.805346	-1.335765	0.715066
C200	C	-0.769540	-1.275625	0.775058
H201	H	-0.730596	-1.319202	0.778755
H202	H	-0.763785	-1.194801	0.736012
C203	C	-0.838639	-1.206723	0.883798
C204	C	-0.790809	-1.260249	0.888347
H205	H	-0.851759	-1.197233	0.953679
H206	H	-0.862763	-1.247237	0.843379
H207	H	-0.833837	-1.139376	0.851256
H208	H	-0.795613	-1.327599	0.920877
H209	H	-0.766686	-1.219746	0.928775
H210	H	-0.953213	-1.661831	0.389495
H211	H	-0.702083	-1.346434	0.704256
O212	O	-0.554242	-1.403806	0.647021
C213	C	-0.540835	-1.426983	0.753117
H214	H	-0.525774	-1.511996	0.758560
H215	H	-0.509161	-1.369873	0.780876
C216	C	-0.607816	-1.310191	0.817478
C217	C	-0.589323	-1.414610	0.824164
H218	H	-0.637725	-1.302555	0.861304
H219	H	-0.616848	-1.294573	0.745999
H220	H	-0.581417	-1.262612	0.840608
H221	H	-0.615720	-1.462186	0.801021
H222	H	-0.580297	-1.430236	0.895641
O223	O	-0.446590	-1.403770	0.646959
C224	C	-0.414943	-1.464329	0.715719
H225	H	-0.431361	-1.548161	0.722367
H226	H	-0.373572	-1.467994	0.682793
C227	C	-0.393916	-1.309318	0.818162
C228	C	-0.414083	-1.412281	0.826334
H229	H	-0.393383	-1.277212	0.886394
H230	H	-0.415235	-1.268517	0.771835
H231	H	-0.359442	-1.312387	0.790720
H232	H	-0.448559	-1.409210	0.853763
H233	H	-0.392769	-1.453080	0.872669
O234	O	-0.347649	-1.110940	0.459989
C235	C	-0.347057	-1.222882	0.460259
H236	H	-0.305383	-1.252218	0.448563
H237	H	-0.362629	-1.253226	0.539415
C238	C	-0.432854	-1.228514	0.383793
C239	C	-0.381670	-1.264545	0.369419
H240	H	-0.454206	-1.254215	0.327762
H241	H	-0.433254	-1.153096	0.383615
H242	H	-0.445823	-1.253803	0.449759
H243	H	-0.368699	-1.239245	0.303461
H244	H	-0.381268	-1.339960	0.369584
H245	H	-0.163765	-1.490250	0.946835
