data_functionalizedCrystal
_audit_creation_method	'MofGen! by Chris Wilmer'
_symmetry_space_group_name_H-M	'P1'
_symmetry_Int_Tables_number	1
_symmetry_cell_setting	triclinic
loop_
_symmetry_equiv_pos_as_xyz
  x,y,z
_cell_length_a	12.594517
_cell_length_b	25.639239
_cell_length_c	12.594510
_cell_angle_alpha	89.959750
_cell_angle_beta	89.978880
_cell_angle_gamma	90.038486
loop_
_atom_site_label
_atom_site_type_symbol
_atom_site_fract_x
_atom_site_fract_y
_atom_site_fract_z
Zn1	Zn	1.627097	-0.208106	-0.601816
Zn2	Zn	1.626919	-0.295558	-0.423820
Zn3	Zn	1.449102	-0.208138	-0.423845
Zn4	Zn	1.449013	-0.295512	-0.601750
O5	O	1.538033	-0.251829	-0.512808
O6	O	1.776019	-0.219713	-0.578222
O7	O	1.603293	-0.283994	-0.274877
O8	O	1.472825	-0.134969	-0.447492
O9	O	1.775888	-0.283963	-0.447448
O10	O	1.603598	-0.134945	-0.578247
O11	O	1.472652	-0.219767	-0.274896
O12	O	1.300144	-0.219722	-0.447427
O13	O	1.472674	-0.283885	-0.750704
O14	O	1.300079	-0.283916	-0.578133
O15	O	1.603512	-0.219668	-0.750753
O16	O	1.603207	-0.368717	-0.447384
O17	O	1.472501	-0.368683	-0.578108
C18	C	1.261492	-0.251818	-0.512776
C19	C	1.143186	-0.251826	-0.512788
C20	C	1.073938	-0.216864	-0.441833
C21	C	1.003089	-0.264557	-0.415643
C22	C	1.003237	-0.204156	-0.538996
C23	C	1.073895	-0.299545	-0.486547
C24	C	1.074050	-0.239112	-0.609946
C25	C	1.003232	-0.286838	-0.583793
C26	C	1.537854	-0.387671	-0.512759
C27	C	1.537875	-0.445785	-0.512774
C28	C	1.606269	-0.806153	-0.444855
C29	C	1.606310	-0.860757	-0.444870
O30	O	1.664276	-0.888998	-0.387070
N31	N	1.538220	-0.888068	-0.512878
C32	C	1.470091	-0.860771	-0.580885
O33	O	1.412179	-0.889014	-0.638733
C34	C	1.470056	-0.806167	-0.580875
C35	C	1.538144	-0.778860	-0.512854
C36	C	1.674352	-0.778846	-0.376841
C37	C	1.674309	-0.724245	-0.376826
C38	C	1.606183	-0.696952	-0.444825
C39	C	1.538101	-0.724259	-0.512839
C40	C	1.401934	-0.778871	-0.648886
C41	C	1.401905	-0.724264	-0.648871
C42	C	1.469992	-0.696957	-0.580850
C43	C	1.469932	-0.642366	-0.580822
N44	N	1.538023	-0.615056	-0.512814
C45	C	1.606148	-0.642349	-0.444815
C46	C	1.470171	-0.975441	-0.580901
C47	C	1.470200	-1.030044	-0.580906
C48	C	1.606421	-1.030027	-0.444892
C49	C	1.606386	-0.975423	-0.444883
C50	C	1.538262	-0.948131	-0.512892
C51	C	1.606052	-0.527684	-0.444787
C52	C	1.606000	-0.473078	-0.444775
C53	C	1.469784	-0.473100	-0.580792
C54	C	1.469831	-0.527701	-0.580801
C55	C	1.537974	-0.554991	-0.512795
O56	O	1.411999	-0.614090	-0.638596
O57	O	1.664060	-0.614099	-0.386986
C58	C	1.815654	-0.251839	-0.512840
C59	C	1.933959	-0.251844	-0.512853
C60	C	1.538103	-0.251768	-0.790429
C61	C	1.538133	-0.251742	-0.908734
C62	C	1.538241	-0.115455	-0.512880
C63	C	1.538330	-0.057341	-0.512911
C64	C	1.609317	-0.216812	-0.978014
C65	C	1.512251	-0.204015	-1.048808
C66	C	1.635256	-0.264504	-1.048740
C67	C	1.441016	-0.238920	-0.977970
C68	C	1.564086	-0.299431	-0.977895
C69	C	1.466953	-0.286652	-1.048657
C70	C	1.538024	-0.251851	-0.236267
C71	C	1.538200	-0.251729	-0.117962
H72	H	0.972383	-0.316446	-0.643825
O73	O	1.404088	-1.056648	-0.646875
C74	C	1.418743	-1.110696	-0.632339
H75	H	1.453650	-1.118175	-0.550233
H76	H	1.339026	-1.131483	-0.639497
H77	H	1.475400	-1.126135	-0.695532
H78	H	1.358885	-0.228074	-0.947013
O79	O	1.672102	-0.554251	-0.378688
C80	C	1.611582	-0.585889	-0.309871
H81	H	1.530901	-0.594098	-0.347326
H82	H	1.654983	-0.624269	-0.295668
H83	H	1.599923	-0.564887	-0.230972
H84	H	1.104804	-0.339878	-0.464317
O85	O	1.733287	-0.277330	-1.085701
C86	C	1.808036	-0.240397	-1.049731
H87	H	1.776507	-0.220485	-0.975223
H88	H	1.886025	-0.260899	-1.030637
H89	H	1.822022	-0.209943	-1.114244
H90	H	0.972142	-0.163840	-0.561099
H91	H	1.105242	-0.228332	-0.692058
H92	H	1.104983	-0.187326	-0.381755
H93	H	1.414392	-0.549935	-0.636192
H94	H	1.414313	-0.450870	-0.636153
H95	H	1.669409	-0.187256	-0.946992
O96	O	1.486264	-0.155865	-1.085925
C97	C	1.561459	-0.119160	-1.049920
H98	H	1.638923	-0.139957	-1.030034
H99	H	1.576448	-0.088975	-1.114728
H100	H	1.529811	-0.098867	-0.975885
H101	H	1.661445	-0.450846	-0.389381
O102	O	1.394950	-0.321826	-1.085390
C103	C	1.292764	-0.308178	-1.049112
H104	H	1.290801	-0.264801	-1.029400
H105	H	1.231925	-0.316947	-1.113688
H106	H	1.272936	-0.331750	-0.974915
O107	O	1.590340	-0.347561	-0.940878
C108	C	1.609702	-0.381212	-1.027225
H109	H	1.631778	-0.357194	-1.100181
H110	H	1.677806	-0.408683	-1.006659
H111	H	1.535181	-0.404969	-1.044658
O112	O	0.965947	-0.277315	-0.317595
C113	C	1.001985	-0.240355	-0.242986
H114	H	1.021917	-0.202306	-0.285448
H115	H	0.937179	-0.232997	-0.181592
H116	H	1.075998	-0.255876	-0.201587
O117	O	1.335879	-0.697729	-0.715049
C118	C	1.396416	-0.666075	-0.783823
H119	H	1.480256	-0.682484	-0.790475
H120	H	1.357878	-0.665444	-0.865702
H121	H	1.400066	-0.624704	-0.750909
O122	O	1.740561	-0.697803	-0.310728
C123	C	1.800676	-0.733611	-0.250707
H124	H	1.804344	-0.772514	-0.294321
H125	H	1.884540	-0.717805	-0.239436
H126	H	1.761757	-0.739470	-0.169830
O127	O	1.672644	-1.056625	-0.379013
C128	C	1.658090	-1.110674	-0.393638
H129	H	1.623086	-1.118098	-0.475711
H130	H	1.737863	-1.131374	-0.386631
H131	H	1.601554	-1.126255	-0.330399
O132	O	1.740708	-0.805359	-0.310965
C133	C	1.809433	-0.836875	-0.371668
H134	H	1.815856	-0.820392	-0.455515
H135	H	1.891398	-0.837428	-0.333311
H136	H	1.776621	-0.878287	-0.375264
H137	H	1.661829	-0.953193	-0.389495
H138	H	1.414688	-0.953223	-0.636280
H139	H	1.346484	-0.801096	-0.704271
