data_functionalizedCrystal
_audit_creation_method	'MofGen! by Chris Wilmer'
_symmetry_space_group_name_H-M	'P1'
_symmetry_Int_Tables_number	1
_symmetry_cell_setting	triclinic
loop_
_symmetry_equiv_pos_as_xyz
  x,y,z
_cell_length_a	18.215407
_cell_length_b	18.215405
_cell_length_c	21.395355
_cell_angle_alpha	89.980149
_cell_angle_beta	89.977330
_cell_angle_gamma	90.019398
loop_
_atom_site_label
_atom_site_type_symbol
_atom_site_fract_x
_atom_site_fract_y
_atom_site_fract_z
Zn1	Zn	1.125107	-0.293177	-0.354224
Zn2	Zn	1.375107	-0.043177	-0.104224
Zn3	Zn	1.625107	0.206823	0.145776
Zn4	Zn	1.875107	0.456823	0.395776
Zn5	Zn	1.125005	-0.416226	-0.249444
Zn6	Zn	1.375005	-0.166226	0.000556
Zn7	Zn	1.625005	0.083774	0.250556
Zn8	Zn	1.875005	0.333774	0.500556
Zn9	Zn	1.002029	-0.293166	-0.249464
Zn10	Zn	1.252029	-0.043166	0.000536
Zn11	Zn	1.502029	0.206834	0.250536
Zn12	Zn	1.752029	0.456834	0.500536
Zn13	Zn	1.002006	-0.416195	-0.354188
Zn14	Zn	1.252006	-0.166195	-0.104188
Zn15	Zn	1.502006	0.083805	0.145812
Zn16	Zn	1.752006	0.333805	0.395812
O17	O	1.063537	-0.354691	-0.301830
O18	O	1.313537	-0.104691	-0.051830
O19	O	1.563537	0.145309	0.198170
O20	O	1.813537	0.395309	0.448170
O21	O	1.228078	-0.309518	-0.340332
O22	O	1.478078	-0.059518	-0.090332
O23	O	1.728078	0.190482	0.159668
O24	O	1.978078	0.440482	0.409668
O25	O	1.108659	-0.399909	-0.161769
O26	O	1.358659	-0.149909	0.088231
O27	O	1.608659	0.100091	0.338231
O28	O	1.858659	0.350091	0.588231
O29	O	1.018408	-0.190183	-0.263384
O30	O	1.268408	0.059817	-0.013384
O31	O	1.518408	0.309817	0.236616
O32	O	1.768408	0.559817	0.486616
O33	O	1.228003	-0.399921	-0.263350
O34	O	1.478003	-0.149921	-0.013350
O35	O	1.728003	0.100079	0.236650
O36	O	1.978003	0.350079	0.486650
O37	O	1.108833	-0.190191	-0.340351
O38	O	1.358833	0.059809	-0.090351
O39	O	1.608833	0.309809	0.159649
O40	O	1.858833	0.559809	0.409649
O41	O	1.018310	-0.309498	-0.161784
O42	O	1.268310	-0.059498	0.088216
O43	O	1.518310	0.190502	0.338216
O44	O	1.768310	0.440502	0.588216
O45	O	0.899042	-0.309468	-0.263349
O46	O	1.149042	-0.059468	-0.013349
O47	O	1.399042	0.190532	0.236651
O48	O	1.649042	0.440532	0.486651
O49	O	1.018368	-0.399868	-0.441871
O50	O	1.268368	-0.149868	-0.191871
O51	O	1.518368	0.100132	0.058129
O52	O	1.768368	0.350132	0.308129
O53	O	0.899024	-0.399857	-0.340289
O54	O	1.149024	-0.149857	-0.090289
O55	O	1.399024	0.100143	0.159711
O56	O	1.649024	0.350143	0.409711
O57	O	1.108810	-0.309488	-0.441897
O58	O	1.358810	-0.059488	-0.191897
O59	O	1.608810	0.190512	0.058103
O60	O	1.858810	0.440512	0.308103
O61	O	1.108636	-0.519206	-0.263315
O62	O	1.358636	-0.269206	-0.013315
O63	O	1.608636	-0.019206	0.236685
O64	O	1.858636	0.230794	0.486685
O65	O	1.018269	-0.519183	-0.340270
O66	O	1.268269	-0.269183	-0.090270
O67	O	1.518269	-0.019183	0.159730
O68	O	1.768269	0.230817	0.409730
C69	C	0.872331	-0.354658	-0.301818
C70	C	1.122331	-0.104658	-0.051818
C71	C	1.372331	0.145342	0.198182
C72	C	1.622331	0.395342	0.448182
C73	C	0.790532	-0.354662	-0.301827
C74	C	1.040532	-0.104662	-0.051827
C75	C	1.290532	0.145338	0.198173
C76	C	1.540532	0.395338	0.448173
C77	C	1.063459	-0.545897	-0.301800
C78	C	1.313459	-0.295897	-0.051800
C79	C	1.563459	-0.045897	0.198200
C80	C	1.813459	0.204103	0.448200
C81	C	1.063493	-0.627696	-0.301808
C82	C	1.313493	-0.377696	-0.051808
C83	C	1.563493	-0.127696	0.198192
C84	C	1.813493	0.122304	0.448192
C85	C	0.525507	-0.307709	-0.341978
C86	C	0.775507	-0.057709	-0.091978
C87	C	1.025507	0.192291	0.158022
C88	C	1.275507	0.442291	0.408022
C89	C	0.602366	-0.307697	-0.341976
C90	C	0.852366	-0.057697	-0.091976
C91	C	1.102366	0.192303	0.158024
C92	C	1.352366	0.442303	0.408024
C93	C	0.602307	-0.401697	-0.261696
C94	C	0.852307	-0.151697	-0.011696
C95	C	1.102307	0.098303	0.238304
C96	C	1.352307	0.348303	0.488304
C97	C	0.525450	-0.401712	-0.261701
C98	C	0.775450	-0.151712	-0.011701
C99	C	1.025450	0.098288	0.238299
C100	C	1.275450	0.348288	0.488299
C101	C	0.487052	-0.354714	-0.301842
C102	C	0.737052	-0.104714	-0.051842
C103	C	0.987052	0.145286	0.198158
C104	C	1.237052	0.395286	0.448158
C105	C	0.640768	-0.354687	-0.301834
C106	C	0.890768	-0.104687	-0.051834
C107	C	1.140768	0.145313	0.198166
C108	C	1.390768	0.395313	0.448166
C109	C	0.724102	-0.354674	-0.301832
C110	C	0.974102	-0.104674	-0.051832
C111	C	1.224102	0.145326	0.198168
C112	C	1.474102	0.395326	0.448168
C113	C	0.403713	-0.354727	-0.301845
C114	C	0.653713	-0.104727	-0.051845
C115	C	0.903713	0.145273	0.198155
C116	C	1.153713	0.395273	0.448155
C117	C	1.110658	-0.815877	-0.261811
C118	C	1.360658	-0.565877	-0.011811
C119	C	1.610658	-0.315877	0.238189
C120	C	1.860658	-0.065877	0.488189
C121	C	1.110691	-0.892736	-0.261827
C122	C	1.360691	-0.642736	-0.011827
C123	C	1.610691	-0.392736	0.238173
C124	C	1.860691	-0.142736	0.488173
C125	C	1.016510	-0.892752	-0.341894
C126	C	1.266510	-0.642752	-0.091894
C127	C	1.516510	-0.392752	0.158106
C128	C	1.766510	-0.142752	0.408106
C129	C	1.016481	-0.815895	-0.341881
C130	C	1.266481	-0.565895	-0.091881
C131	C	1.516481	-0.315895	0.158119
C132	C	1.766481	-0.065895	0.408119
C133	C	1.063554	-0.777459	-0.301837
C134	C	1.313554	-0.527459	-0.051837
C135	C	1.563554	-0.277459	0.198163
C136	C	1.813554	-0.027459	0.448163
C137	C	1.063616	-0.931176	-0.301864
C138	C	1.313616	-0.681176	-0.051864
C139	C	1.563616	-0.431176	0.198136
C140	C	1.813616	-0.181176	0.448136
C141	C	1.063651	-1.014509	-0.301881
C142	C	1.313651	-0.764509	-0.051881
C143	C	1.563651	-0.514509	0.198119
C144	C	1.813651	-0.264509	0.448119
C145	C	1.063520	-0.694121	-0.301821
C146	C	1.313520	-0.444121	-0.051821
C147	C	1.563520	-0.194121	0.198179
C148	C	1.813520	0.055879	0.448179
C149	C	1.255490	-0.354724	-0.301843
C150	C	1.505490	-0.104724	-0.051843
C151	C	1.755490	0.145276	0.198157
C152	C	2.005490	0.395276	0.448157
C153	C	1.337289	-0.354738	-0.301848
C154	C	1.587289	-0.104738	-0.051848
C155	C	1.837289	0.145262	0.198152
C156	C	2.087289	0.395262	0.448152
C157	C	1.063598	-0.354676	-0.465253
C158	C	1.313598	-0.104676	-0.215253
C159	C	1.563598	0.145324	0.034747
C160	C	1.813598	0.395324	0.284747
C161	C	1.063624	-0.354670	-0.534895
C162	C	1.313624	-0.104670	-0.284895
C163	C	1.563624	0.145330	-0.034895
C164	C	1.813624	0.395330	0.215105
C165	C	1.063635	-0.162738	-0.301874
C166	C	1.313635	0.087262	-0.051874
C167	C	1.563635	0.337262	0.198126
C168	C	1.813635	0.587262	0.448126
C169	C	1.063677	-0.080939	-0.301893
C170	C	1.313677	0.169061	-0.051893
C171	C	1.563677	0.419061	0.198107
C172	C	1.813677	0.669061	0.448107
C173	C	1.110715	-0.307607	-0.567623
C174	C	1.360715	-0.057607	-0.317623
C175	C	1.610715	0.192393	-0.067623
C176	C	1.860715	0.442393	0.182377
C177	C	1.110714	-0.307575	-0.633058
C178	C	1.360714	-0.057575	-0.383058
C179	C	1.610714	0.192425	-0.133058
C180	C	1.860714	0.442425	0.116942
C181	C	1.063630	-0.354619	-0.665763
C182	C	1.313630	-0.104619	-0.415763
C183	C	1.563630	0.145381	-0.165763
C184	C	1.813630	0.395381	0.084237
C185	C	1.016529	-0.401686	-0.633027
C186	C	1.266529	-0.151686	-0.383027
C187	C	1.516529	0.098314	-0.133027
C188	C	1.766529	0.348314	0.116973
C189	C	1.016526	-0.401711	-0.567593
C190	C	1.266526	-0.151711	-0.317593
C191	C	1.516526	0.098289	-0.067593
C192	C	1.766526	0.348289	0.182407
C193	C	1.057792	-0.420883	-0.769427
C194	C	1.307792	-0.170883	-0.519427
C195	C	1.557792	0.079117	-0.269427
C196	C	1.807792	0.329117	-0.019427
C197	C	1.057800	-0.420859	-0.834860
C198	C	1.307800	-0.170859	-0.584860
C199	C	1.557800	0.079141	-0.334860
C200	C	1.807800	0.329141	-0.084860
C201	C	1.063634	-0.354542	-0.867584
C202	C	1.313634	-0.104542	-0.617584
C203	C	1.563634	0.145458	-0.367584
C204	C	1.813634	0.395458	-0.117584
C205	C	1.069476	-0.288246	-0.834866
C206	C	1.319476	-0.038246	-0.584866
C207	C	1.569476	0.211754	-0.334866
C208	C	1.819476	0.461754	-0.084866
C209	C	1.069473	-0.288271	-0.769432
C210	C	1.319473	-0.038271	-0.519432
C211	C	1.569473	0.211729	-0.269432
C212	C	1.819473	0.461729	-0.019432
C213	C	1.063627	-0.354597	-0.736716
C214	C	1.313627	-0.104597	-0.486716
C215	C	1.563627	0.145403	-0.236716
C216	C	1.813627	0.395403	0.013284
C217	C	1.110727	-0.307440	-0.971265
C218	C	1.360727	-0.057440	-0.721265
C219	C	1.610727	0.192560	-0.471265
C220	C	1.860727	0.442560	-0.221265
C221	C	1.110721	-0.307407	-1.036701
C222	C	1.360721	-0.057407	-0.786701
C223	C	1.610721	0.192593	-0.536701
C224	C	1.860721	0.442593	-0.286701
C225	C	1.016540	-0.401525	-1.036669
C226	C	1.266540	-0.151525	-0.786669
C227	C	1.516540	0.098475	-0.536669
C228	C	1.766540	0.348475	-0.286669
C229	C	1.016542	-0.401551	-0.971234
C230	C	1.266542	-0.151551	-0.721234
C231	C	1.516542	0.098449	-0.471234
C232	C	1.766542	0.348449	-0.221234
C233	C	1.063639	-0.354510	-0.938535
C234	C	1.313639	-0.104510	-0.688535
C235	C	1.563639	0.145490	-0.438535
C236	C	1.813639	0.395490	-0.188535
C237	C	1.063518	-0.354653	-0.139043
C238	C	1.313518	-0.104653	0.110957
C239	C	1.563518	0.145347	0.360957
C240	C	1.813518	0.395347	0.610957
C241	C	1.063635	-0.354452	-0.069402
C242	C	1.313635	-0.104452	0.180598
C243	C	1.563635	0.145548	0.430598
C244	C	1.813635	0.395548	0.680598
H245	H	0.494246	-0.269439	-0.374663
H246	H	0.744246	-0.019439	-0.124663
H247	H	0.994246	0.230561	0.125337
H248	H	1.244246	0.480561	0.375337
H249	H	0.633673	-0.269421	-0.374660
H250	H	0.883673	-0.019421	-0.124660
H251	H	1.133673	0.230579	0.125340
H252	H	1.383673	0.480579	0.375340
Br253	Br	0.952556	-0.763752	-0.396211
Br254	Br	1.202556	-0.513752	-0.146211
Br255	Br	1.452556	-0.263752	0.103789
Br256	Br	1.702556	-0.013752	0.353789
H257	H	1.074228	-0.234244	-0.861508
H258	H	1.324228	0.015756	-0.611508
H259	H	1.574228	0.265756	-0.361508
H260	H	1.824228	0.515756	-0.111508
Br261	Br	0.654423	-0.465475	-0.207221
Br262	Br	0.904423	-0.215475	0.042779
Br263	Br	1.154423	0.034525	0.292779
Br264	Br	1.404423	0.284525	0.542779
H265	H	1.149048	-0.924012	-0.229235
H266	H	1.399048	-0.674012	0.020765
H267	H	1.649048	-0.424012	0.270765
H268	H	1.899048	-0.174012	0.520765
Br269	Br	0.952628	-0.944919	-0.396237
Br270	Br	1.202628	-0.694919	-0.146237
Br271	Br	1.452628	-0.444919	0.103763
Br272	Br	1.702628	-0.194919	0.353763
H273	H	1.148989	-0.784585	-0.229206
H274	H	1.398989	-0.534585	0.020794
H275	H	1.648989	-0.284585	0.270794
H276	H	1.898989	-0.034585	0.520794
H277	H	0.494139	-0.439993	-0.229017
H278	H	0.744139	-0.189993	0.020983
H279	H	0.994139	0.060007	0.270983
H280	H	1.244139	0.310007	0.520983
Br281	Br	1.174630	-0.243762	-0.523249
Br282	Br	1.424630	0.006238	-0.273249
Br283	Br	1.674630	0.256238	-0.023249
Br284	Br	1.924630	0.506238	0.226751
H285	H	1.149060	-0.269246	-0.659711
H286	H	1.399060	-0.019246	-0.409711
H287	H	1.649060	0.230754	-0.159711
H288	H	1.899060	0.480754	0.090289
Br289	Br	1.077397	-0.198304	-0.725031
Br290	Br	1.327397	0.051696	-0.475031
Br291	Br	1.577397	0.301696	-0.225031
Br292	Br	1.827397	0.551696	0.024969
H293	H	0.978190	-0.439988	-0.659660
H294	H	1.228190	-0.189988	-0.409660
H295	H	1.478190	0.060012	-0.159660
H296	H	1.728190	0.310012	0.090340
H297	H	1.149072	-0.269132	-0.944640
H298	H	1.399072	-0.019132	-0.694640
H299	H	1.649072	0.230868	-0.444640
H300	H	1.899072	0.480868	-0.194640
Br301	Br	1.174647	-0.243541	-1.081119
Br302	Br	1.424647	0.006459	-0.831119
Br303	Br	1.674647	0.256459	-0.581119
Br304	Br	1.924647	0.506459	-0.331119
Br305	Br	0.952629	-0.465363	-1.081047
Br306	Br	1.202629	-0.215363	-0.831047
Br307	Br	1.452629	0.034637	-0.581047
Br308	Br	1.702629	0.284637	-0.331047
Br309	Br	0.952630	-0.465428	-0.926814
Br310	Br	1.202630	-0.215428	-0.676814
Br311	Br	1.452630	0.034572	-0.426814
Br312	Br	1.702630	0.284572	-0.176814
Br313	Br	1.049882	-0.510831	-0.879256
Br314	Br	1.299882	-0.260831	-0.629256
Br315	Br	1.549882	-0.010831	-0.379256
Br316	Br	1.799882	0.239169	-0.129256
H317	H	1.052844	-0.474873	-0.742790
H318	H	1.302844	-0.224873	-0.492790
H319	H	1.552844	0.025127	-0.242790
H320	H	1.802844	0.275127	0.007210
Br321	Br	0.952611	-0.465586	-0.523173
Br322	Br	1.202611	-0.215586	-0.273173
Br323	Br	1.452611	0.034414	-0.023173
Br324	Br	1.702611	0.284414	0.226827
