data_functionalizedCrystal
_audit_creation_method	'MofGen! by Chris Wilmer'
_symmetry_space_group_name_H-M	'P1'
_symmetry_Int_Tables_number	1
_symmetry_cell_setting	triclinic
loop_
_symmetry_equiv_pos_as_xyz
  x,y,z
_cell_length_a	10.654550
_cell_length_b	9.730223
_cell_length_c	17.038278
_cell_angle_alpha	89.988929
_cell_angle_beta	87.797716
_cell_angle_gamma	90.000649
loop_
_atom_site_label
_atom_site_type_symbol
_atom_site_fract_x
_atom_site_fract_y
_atom_site_fract_z
O1	O	1.678039	-0.114212	0.109877
O2	O	2.178039	0.385788	0.609877
O3	O	1.313532	-0.114239	0.120346
O4	O	1.813532	0.385761	0.620346
O5	O	1.493621	-0.114191	0.001284
O6	O	1.993621	0.385809	0.501284
O7	O	1.497950	-0.114260	0.228939
O8	O	1.997950	0.385740	0.728939
O9	O	1.493611	0.114389	0.001282
O10	O	1.993611	0.614389	0.501282
O11	O	1.313522	0.114341	0.120344
O12	O	1.813522	0.614341	0.620344
O13	O	1.678029	0.114368	0.109875
O14	O	2.178029	0.614368	0.609875
Zn15	Zn	1.495774	0.150647	0.115109
Zn16	Zn	1.995774	0.650647	0.615109
Zn17	Zn	1.495787	-0.150517	0.115112
Zn18	Zn	1.995787	0.349483	0.615112
O19	O	1.497940	0.114320	0.228937
O20	O	1.997940	0.614320	0.728937
C21	C	1.266658	0.000048	0.119576
C22	C	1.766658	0.500048	0.619576
C23	C	1.127001	0.000039	0.117276
C24	C	1.627001	0.500039	0.617276
C25	C	1.489675	0.000105	-0.027867
C26	C	1.989675	0.500105	0.472133
C27	C	1.477920	0.000122	-0.114726
C28	C	1.977920	0.500122	0.385274
C29	C	1.054024	0.000021	0.187378
C30	C	1.554024	0.500021	0.687378
C31	C	0.922802	0.000046	0.185213
C32	C	1.422802	0.500046	0.685213
C33	C	0.937547	0.000100	0.042838
C34	C	1.437547	0.500100	0.542838
C35	C	1.068766	0.000085	0.045004
C36	C	1.568766	0.500085	0.545004
C37	C	1.724903	0.000078	0.110645
C38	C	2.224903	0.500078	0.610645
C39	C	1.864560	0.000078	0.112945
C40	C	2.364560	0.500078	0.612945
N41	N	1.495774	0.356183	0.115107
N42	N	1.995774	0.856183	0.615107
N43	N	1.495797	-0.356054	0.115108
N44	N	1.995797	0.143946	0.615108
C45	C	1.575554	0.572023	0.062406
C46	C	2.075554	1.072023	0.562406
C47	C	1.575546	0.428140	0.062407
C48	C	2.075546	0.928140	0.562407
C49	C	1.416013	0.428117	0.167814
C50	C	1.916013	0.928117	0.667814
C51	C	1.416028	0.571997	0.167817
C52	C	1.916028	1.071997	0.667817
C53	C	1.405698	-0.000009	-0.605541
C54	C	1.905698	0.499991	-0.105541
C55	C	1.416753	0.000005	-0.523929
C56	C	1.916753	0.500005	-0.023929
C57	C	1.535754	0.000033	-0.491831
C58	C	2.035754	0.500033	0.008169
C59	C	1.643705	0.000033	-0.541349
C60	C	2.143705	0.500033	-0.041349
C61	C	1.632649	0.000009	-0.622960
C62	C	2.132649	0.500009	-0.122960
C63	C	1.574815	0.000098	-0.245855
C64	C	2.074815	0.500098	0.254145
C65	C	1.585863	0.000126	-0.164238
C66	C	2.085863	0.500126	0.335762
C67	C	1.358910	0.000096	-0.146823
C68	C	1.858910	0.500096	0.353177
C69	C	1.347864	0.000080	-0.228436
C70	C	1.847864	0.500080	0.271564
C71	C	1.455815	0.000073	-0.277948
C72	C	1.955815	0.500073	0.222052
C73	C	1.547057	0.000052	-0.408410
C74	C	2.047057	0.500052	0.091590
C75	C	1.444511	0.000044	-0.361367
C76	C	1.944511	0.500044	0.138633
C77	C	1.501885	0.000021	0.258088
C78	C	2.001885	0.500021	0.758088
C79	C	1.513641	-0.000005	0.344947
C80	C	2.013641	0.499995	0.844947
H81	H	1.101434	-0.000006	0.246227
H82	H	1.601434	0.499994	0.746227
H83	H	1.740598	0.000058	-0.515209
H84	H	2.240598	0.500058	-0.015209
H85	H	1.347621	0.000014	-0.387504
H86	H	1.847621	0.500014	0.112496
Br87	Br	1.212413	0.000101	-0.079626
Br88	Br	1.712413	0.500101	0.420374
Br89	Br	1.683813	0.669663	-0.009125
Br90	Br	2.183813	1.169663	0.490875
Br91	Br	1.708554	0.000088	-0.364841
Br92	Br	2.208554	0.500088	0.135159
Br93	Br	1.747374	0.000210	-0.120677
Br94	Br	2.247374	0.500210	0.379323
H95	H	1.351065	0.369521	0.210727
H96	H	1.851065	0.869521	0.710727
H97	H	0.863389	0.000035	0.242297
H98	H	1.363389	0.500035	0.742297
H99	H	1.662717	0.000100	-0.286158
H100	H	2.162717	0.500100	0.213842
H101	H	0.890116	0.000146	-0.016004
H102	H	1.390116	0.500146	0.483996
Br103	Br	1.683798	0.330531	-0.009116
Br104	Br	2.183798	0.830531	0.490884
Br105	Br	1.307789	0.669619	0.239351
Br106	Br	1.807789	1.169619	0.739351
Br107	Br	1.244189	-0.000031	-0.649094
Br108	Br	1.744189	0.499969	-0.149094
H109	H	1.128187	0.000103	-0.012085
H110	H	1.628187	0.500103	0.487915
Br111	Br	1.270251	-0.000019	-0.456735
Br112	Br	1.770251	0.499981	0.043265
H113	H	1.720548	0.000006	-0.663273
H114	H	2.220548	0.500006	-0.163273
H115	H	1.250961	0.000042	-0.254564
H116	H	1.750961	0.500042	0.245436
