data_functionalizedCrystal
_audit_creation_method	'MofGen! by Chris Wilmer'
_symmetry_space_group_name_H-M	'P1'
_symmetry_Int_Tables_number	1
_symmetry_cell_setting	triclinic
loop_
_symmetry_equiv_pos_as_xyz
  x,y,z
_cell_length_a	18.760487
_cell_length_b	20.875641
_cell_length_c	18.760492
_cell_angle_alpha	57.588959
_cell_angle_beta	90.032780
_cell_angle_gamma	62.461161
loop_
_atom_site_label
_atom_site_type_symbol
_atom_site_fract_x
_atom_site_fract_y
_atom_site_fract_z
Zr1	Zr	0.715324	0.702109	-0.121727
O2	O	0.606971	0.835927	-0.241065
O3	O	0.744755	0.568290	-0.081362
O4	O	0.750220	0.702108	-0.235522
O5	O	0.601501	0.702109	0.030397
O6	O	0.867523	0.702108	-0.235449
O7	O	0.601506	0.702109	-0.086906
O8	O	0.857748	0.462731	0.040314
O9	O	0.611276	0.941486	-0.245366
O10	O	0.849422	0.623331	-0.068661
O11	O	0.761876	0.623331	0.018827
O12	O	0.768310	0.780886	-0.162676
O13	O	0.680765	0.780886	-0.075188
Zr14	Zr	0.902401	0.702109	0.065473
Zr15	Zr	0.902409	0.702108	-0.121612
Zr16	Zr	0.715316	0.702109	0.065357
Zr17	Zr	0.722191	0.870462	-0.128586
Zr18	Zr	0.895534	0.533755	0.072332
O19	O	0.872969	0.835927	0.025108
O20	O	0.872981	0.835927	-0.240902
O21	O	0.606959	0.835928	0.024944
O22	O	1.010754	0.568290	0.184811
O23	O	1.010765	0.568289	-0.081198
O24	O	0.744744	0.568290	0.184648
O25	O	1.016224	0.702108	-0.086651
O26	O	0.867505	0.702109	0.179267
O27	O	0.750202	0.702109	0.179195
O28	O	1.016219	0.702108	0.030652
O29	O	0.759983	0.941486	-0.245275
O30	O	0.857741	0.462731	0.189021
O31	O	1.006449	0.462731	0.189112
O32	O	1.006455	0.462731	0.040405
O33	O	0.611270	0.941486	-0.096659
O34	O	0.759977	0.941486	-0.096568
O35	O	0.849414	0.623331	0.106422
O36	O	0.936960	0.623331	0.018934
O37	O	0.855848	0.780886	-0.075081
O38	O	0.768303	0.780886	0.012407
C39	C	0.800273	0.491524	-0.019547
C40	C	0.797358	0.420053	-0.016635
C41	C	0.841684	0.386476	-0.060935
C42	C	0.838947	0.319317	-0.058190
C43	C	0.791879	0.285741	-0.011150
C44	C	0.747551	0.319321	0.033155
C45	C	0.750294	0.386474	0.030415
C46	C	0.778782	0.084897	0.001946
C47	C	0.776041	0.017741	0.004680
C48	C	0.867438	0.017741	-0.086663
C49	C	0.870172	0.084899	-0.089404
C50	C	0.825848	0.118470	-0.045095
N51	N	0.789078	0.217096	-0.008346
N52	N	0.828655	0.187109	-0.047894
C53	C	0.574848	0.702109	-0.028271
C54	C	0.495426	0.702109	-0.028320
C55	C	0.117269	0.784354	-0.077050
C56	C	0.201956	0.619864	0.021103
C57	C	0.276578	0.619863	0.021028
C58	C	0.271549	0.702108	-0.028088
C59	C	0.191897	0.784355	-0.077129
C60	C	0.356234	0.537617	0.070061
C61	C	0.430863	0.537613	0.069987
C62	C	0.425834	0.619859	0.020876
C63	C	0.346176	0.702109	-0.028166
C64	C	0.341147	0.784354	-0.077282
C65	C	0.261490	0.866606	-0.126320
C66	C	0.186868	0.866601	-0.126240
C67	C	0.500455	0.619864	0.020796
C68	C	0.415774	0.784356	-0.077361
C69	C	1.042877	0.702108	-0.027983
C70	C	1.122299	0.702108	-0.027934
C71	C	0.808872	0.702108	-0.262141
C72	C	0.808876	0.702108	-0.341563
C73	C	0.817451	0.912693	-0.036707
C74	C	0.820367	0.984164	-0.039619
C75	C	0.851193	0.619864	-0.628302
C76	C	0.766510	0.784353	-0.726451
C77	C	0.766516	0.784354	-0.651831
C78	C	0.808860	0.702109	-0.565442
C79	C	0.851198	0.619862	-0.553673
C80	C	0.724172	0.866600	-0.663592
C81	C	0.724175	0.866604	-0.588969
C82	C	0.766525	0.784358	-0.502578
C83	C	0.808865	0.702108	-0.490813
C84	C	0.851209	0.619863	-0.404424
C85	C	0.893555	0.537611	-0.392656
C86	C	0.893547	0.537616	-0.467282
C87	C	0.766532	0.784354	-0.427952
C88	C	0.851214	0.619861	-0.329795
C89	C	0.808852	0.702109	0.205887
C90	C	0.808849	0.702109	0.285309
C91	C	1.034287	0.491523	-0.019403
C92	C	1.110795	0.420053	-0.016442
C93	C	0.800263	0.491524	0.214467
C94	C	0.797345	0.420053	0.296801
C95	C	1.034277	0.491524	0.214611
C96	C	1.110781	0.420053	0.296994
C97	C	0.583447	0.912693	-0.270865
C98	C	0.506943	0.984164	-0.353248
C99	C	0.583437	0.912694	-0.036851
C100	C	0.506930	0.984164	-0.039812
C101	C	0.817462	0.912693	-0.270721
C102	C	0.820380	0.984164	-0.353055
C103	C	1.101029	0.386489	-0.060783
C104	C	1.172909	0.319344	-0.058019
C105	C	1.254553	0.285759	-0.010908
C106	C	1.264317	0.319329	0.033435
C107	C	1.192438	0.386478	0.030665
C108	C	0.841668	0.386490	0.381198
C109	C	0.838923	0.319345	0.458567
C110	C	0.791859	0.285761	0.451536
C111	C	0.747530	0.319331	0.367131
C112	C	0.750271	0.386479	0.289764
C113	C	1.192414	0.386490	0.290014
C114	C	1.264305	0.319345	0.367414
C115	C	1.254561	0.285760	0.451794
C116	C	1.172920	0.319330	0.458771
C117	C	1.101031	0.386478	0.381372
C118	C	0.425311	1.017736	-0.346269
C119	C	0.353421	1.084901	-0.423670
C120	C	0.363165	1.118490	-0.508049
C121	C	0.444806	1.084915	-0.515027
C122	C	0.516694	1.017755	-0.437627
C123	C	0.516696	1.017735	0.004521
C124	C	0.444816	1.084898	0.001735
C125	C	0.363172	1.118486	-0.045379
C126	C	0.353408	1.084912	-0.089717
C127	C	0.425287	1.017755	-0.086937
C128	C	0.867452	1.017727	-0.345996
C129	C	0.870211	1.084872	-0.423351
C130	C	0.825892	1.118457	-0.507763
C131	C	0.778819	1.084887	-0.514820
C132	C	0.776065	1.017739	-0.437467
H133	H	0.908499	0.112235	-0.127707
H134	H	0.452730	1.112272	-0.583738
H135	H	0.879993	0.413827	0.386939
H136	H	1.330802	0.291975	0.071791
H137	H	0.206045	0.552904	0.061088
H138	H	0.417361	0.990392	-0.277570
O139	O	0.604741	0.981535	-0.445158
H140	H	0.599430	1.016171	-0.516838
O141	O	0.100958	0.955310	-0.179133
H142	H	0.094908	0.994748	-0.250999
O143	O	0.702466	0.422666	0.198739
H144	H	0.712267	0.475006	0.146113
H145	H	0.583168	0.990393	0.042892
H146	H	0.286924	1.112270	-0.128077
H147	H	0.565308	0.552896	0.060729
O148	O	1.012988	0.422656	0.388918
H149	H	0.979807	0.496733	0.354080
O150	O	0.915240	-0.018470	-0.134451
H151	H	0.984225	-0.049060	-0.106761
H152	H	0.875024	0.292021	0.527286
H153	H	0.737730	0.990419	-0.443227
H154	H	0.709232	0.291973	0.071461
O155	O	0.265370	1.121091	-0.416134
H156	H	0.270679	1.086431	-0.344454
H157	H	0.903542	0.990393	-0.277271
O158	O	0.702519	0.422678	0.078220
H159	H	0.655044	0.496761	0.029056
H160	H	0.732032	0.851314	-0.796791
H161	H	0.928023	0.470652	-0.457710
O162	O	0.414749	0.981540	-0.134746
H163	H	0.345899	1.016176	-0.167963
H164	H	0.885698	0.552886	-0.259456
H165	H	1.313075	0.231082	-0.008659
O166	O	0.939271	0.448904	-0.299478
H167	H	0.932176	0.462728	-0.249569
O168	O	1.012974	0.422715	-0.111609
H169	H	1.018274	0.388096	-0.141984
H170	H	0.885672	0.552897	-0.618725
O171	O	1.202934	0.422717	0.199009
H172	H	1.271782	0.388099	0.207174
O173	O	1.202982	0.422657	0.078512
H174	H	1.174205	0.496734	0.029359
O175	O	0.285625	1.190937	-0.591529
H176	H	0.227227	1.208631	-0.572491
O177	O	1.332101	0.213325	0.535273
H178	H	1.390500	0.195626	0.516235
H179	H	0.737708	-0.009593	0.042985
O180	O	0.788921	0.213321	0.534986
H181	H	0.827663	0.195619	0.594851
H182	H	1.330774	0.292019	0.361717
H183	H	0.908542	1.112198	-0.417587
O184	O	0.516771	0.448901	0.122879
H185	H	0.567818	0.462716	0.114572
O186	O	0.678517	0.955304	-0.756763
H187	H	0.685644	0.941485	-0.806676
O188	O	0.455356	1.121091	0.049573
H189	H	0.524205	1.086435	0.082815
O190	O	0.285656	1.190898	-0.048340
H191	H	0.288209	1.252083	-0.079408
H192	H	0.828141	1.173134	-0.570742
O193	O	0.696786	0.283080	0.359573
H194	H	0.628845	0.339429	0.321010
H195	H	0.052410	0.851320	-0.116973
H196	H	1.164999	0.291975	0.527483
O197	O	0.731016	1.121100	-0.605859
H198	H	0.683529	1.195177	-0.645091
O199	O	0.892451	0.422689	-0.111670
H200	H	0.922820	0.388049	-0.142005
H201	H	0.875041	0.291978	-0.094261
O202	O	0.361662	0.448913	0.123027
H203	H	0.296388	0.462732	0.114849
H204	H	0.742694	0.112219	0.038029
O205	O	0.678509	0.955311	-0.601658
H206	H	0.649067	1.012500	-0.674267
O207	O	0.410375	0.873050	-0.130382
H208	H	0.442432	0.877017	-0.084481
H209	H	0.732048	0.851321	-0.437536
H210	H	1.164942	0.292020	-0.094128
O211	O	0.256066	0.955313	-0.179380
H212	H	0.321341	0.941489	-0.171222
