data_functionalizedCrystal
_audit_creation_method	'MofGen! by Chris Wilmer'
_symmetry_space_group_name_H-M	'P1'
_symmetry_Int_Tables_number	1
_symmetry_cell_setting	triclinic
loop_
_symmetry_equiv_pos_as_xyz
  x,y,z
_cell_length_a	12.645331
_cell_length_b	16.994747
_cell_length_c	12.645323
_cell_angle_alpha	90.006372
_cell_angle_beta	90.022676
_cell_angle_gamma	90.010038
loop_
_atom_site_label
_atom_site_type_symbol
_atom_site_fract_x
_atom_site_fract_y
_atom_site_fract_z
Zn1	Zn	1.620780	-0.314043	0.599583
Zn2	Zn	1.620682	-0.445958	0.422380
Zn3	Zn	1.443495	-0.314070	0.422327
Zn4	Zn	1.443497	-0.445907	0.599595
O5	O	1.532114	-0.379995	0.510971
O6	O	1.769114	-0.331552	0.576093
O7	O	1.597136	-0.428496	0.274026
O8	O	1.467052	-0.203685	0.445813
O9	O	1.769043	-0.428470	0.445903
O10	O	1.597303	-0.203666	0.576042
O11	O	1.466957	-0.331598	0.273987
O12	O	1.295148	-0.331548	0.445825
O13	O	1.467056	-0.428382	0.747941
O14	O	1.295149	-0.428408	0.576063
O15	O	1.597305	-0.331503	0.747932
O16	O	1.597138	-0.556333	0.445915
O17	O	1.466961	-0.556295	0.576115
C18	C	1.256684	-0.379976	0.510941
C19	C	1.138854	-0.379987	0.510953
C20	C	1.532052	-0.584934	0.511019
C21	C	1.532060	-0.674257	0.511016
Zn22	Zn	1.443525	-0.945156	0.422297
Zn23	Zn	1.620827	-0.945108	0.599536
Zn24	Zn	1.443533	-0.813299	0.599577
Zn25	Zn	1.620702	-0.813214	0.422345
O26	O	1.532147	-0.879194	0.510939
O27	O	1.467094	-1.055531	0.445771
O28	O	1.597365	-0.927639	0.747889
O29	O	1.295185	-0.830846	0.576058
O30	O	1.597357	-1.055496	0.575987
O31	O	1.295179	-0.927721	0.445811
O32	O	1.467108	-0.830800	0.747919
O33	O	1.466986	-0.702907	0.576105
O34	O	1.597143	-0.830700	0.273992
O35	O	1.597151	-0.702844	0.445893
O36	O	1.466972	-0.927638	0.273956
O37	O	1.769158	-0.927556	0.576034
O38	O	1.769066	-0.830654	0.445853
C39	C	0.971253	-0.318772	0.429471
C40	C	1.093813	-0.318930	0.429113
C41	C	1.094346	-0.463080	0.480474
C42	C	0.971748	-0.462746	0.479918
C43	C	0.971701	-0.358899	0.623227
C44	C	1.094307	-0.357043	0.622603
C45	C	1.808619	-0.380014	0.511003
C46	C	1.926449	-0.380022	0.511016
C47	C	1.532192	-0.379934	0.787477
C48	C	1.532225	-0.379908	0.905307
C49	C	1.532180	-0.174254	0.510917
C50	C	1.532213	-0.084932	0.510895
C51	C	1.532097	-0.379998	0.235541
C52	C	1.532269	-0.379802	0.117712
C53	C	1.450032	-0.440567	1.072877
C54	C	1.450248	-0.440868	0.950317
C55	C	1.643928	-0.402468	0.949836
C56	C	1.643477	-0.402849	1.072435
C57	C	1.503771	-0.296348	1.072468
C58	C	1.501279	-0.296849	0.949862
C59	C	1.807577	-0.879092	0.510947
C60	C	1.925407	-0.879072	0.510981
C61	C	1.532043	-0.879165	0.234434
C62	C	1.531998	-0.879153	0.116603
C63	C	1.255642	-0.879299	0.510934
C64	C	1.137812	-0.879343	0.510932
C65	C	1.532175	-0.879268	0.786369
C66	C	1.531924	-0.879431	0.904198
C67	C	2.092957	-0.818263	0.428924
C68	C	1.970397	-0.818025	0.429121
C69	C	1.969907	-0.856576	0.622732
C70	C	2.092505	-0.856133	0.622301
C71	C	2.092617	-0.962524	0.482403
C72	C	1.970011	-0.962084	0.479892
C73	C	1.613524	-0.817954	-0.050938
C74	C	1.613912	-0.818134	0.071622
C75	C	1.562351	-0.962256	0.072094
C76	C	1.562878	-0.961900	-0.050504
C77	C	1.419713	-0.857974	-0.050607
C78	C	1.420369	-0.856139	0.072000
H79	H	1.123904	-0.257313	0.448212
N80	N	1.339135	-0.917004	-0.089056
H81	H	1.267227	-0.903100	-0.059772
H82	H	1.359843	-0.971355	-0.064280
H83	H	1.697053	-0.832148	0.100944
N84	N	2.130402	-0.775332	0.654446
H85	H	2.067467	-0.740336	0.668761
H86	H	2.174247	-0.751992	0.595535
H87	H	1.123093	-0.332892	0.345958
N88	N	1.671501	-0.985683	-0.088372
H89	H	1.702876	-0.941828	-0.132190
H90	H	1.665752	-1.034879	-0.132818
N91	N	1.676472	-0.482435	0.909235
H92	H	1.748447	-0.496427	0.938329
H93	H	1.679523	-0.481292	0.829441
H94	H	1.667632	-0.463855	1.101072
H95	H	1.125005	-0.481301	0.399323
N96	N	1.134907	-0.411828	0.707389
H97	H	1.175658	-0.380651	0.761850
H98	H	1.182922	-0.452466	0.674393
N99	N	0.933333	-0.417989	0.703713
H100	H	0.886866	-0.458250	0.667725
H101	H	0.891461	-0.389967	0.760329
H102	H	2.122177	-0.898498	0.685589
H103	H	1.556799	-0.249182	0.919220
N104	N	0.933807	-0.486464	0.371255
H105	H	0.889962	-0.442591	0.339949
H106	H	0.889369	-0.535667	0.376923
N107	N	0.932479	-0.525238	0.555160
H108	H	0.994812	-0.552884	0.588538
H109	H	0.888174	-0.564682	0.515054
H110	H	1.392052	-0.798427	-0.081533
H111	H	1.469062	-0.502736	0.921029
H112	H	1.367416	-0.426750	0.920209
N113	N	2.133754	-0.736819	0.453756
H114	H	2.104563	-0.698120	0.400631
H115	H	2.213538	-0.736739	0.450112
N116	N	1.931314	-0.913426	0.705971
H117	H	1.884498	-0.954408	0.671960
H118	H	1.889755	-0.883813	0.761342
N119	N	1.335519	-0.910889	0.112531
H120	H	1.368385	-0.951570	0.160596
H121	H	1.300257	-0.938036	0.050829
N122	N	1.929269	-0.776657	0.655433
H123	H	1.849473	-0.777779	0.658538
H124	H	1.952831	-0.735975	0.602204
H125	H	1.706828	-0.360512	1.102095
N126	N	1.930532	-0.836655	0.319364
H127	H	1.885994	-0.885964	0.321609
H128	H	1.992655	-0.845058	0.270481
H129	H	2.122416	-0.832181	0.345821
H130	H	1.940928	-0.979048	0.397653
H131	H	2.123536	-0.983011	0.402335
N132	N	1.929442	-1.025310	0.553303
H133	H	1.881363	-1.000929	0.608001
H134	H	1.991120	-1.051575	0.589765
H135	H	2.121617	-1.007827	0.542229
H136	H	1.123523	-0.509936	0.538005
H137	H	1.643469	-0.980537	0.102819
H138	H	1.366956	-0.426585	1.102344
H139	H	0.941780	-0.256969	0.448366
N140	N	0.930764	-0.280043	0.659964
H141	H	0.882461	-0.257212	0.604233
H142	H	0.992262	-0.243212	0.672149
H143	H	1.123401	-0.295895	0.645586
H144	H	1.594893	-0.756513	0.101716
N145	N	1.588616	-0.736066	-0.089976
H146	H	1.524171	-0.737840	-0.137124
H147	H	1.650838	-0.715037	-0.131290
H148	H	1.941074	-0.756192	0.448076
N149	N	1.722984	-0.836289	-0.091754
H150	H	1.744213	-0.890904	-0.068505
H151	H	1.774872	-0.796661	-0.062552
N152	N	0.930013	-0.336836	0.320050
H153	H	0.882478	-0.384547	0.323062
H154	H	0.991344	-0.347685	0.271037
H155	H	1.505982	-1.009033	-0.080183
H156	H	1.504763	-1.009085	0.101230
N157	N	1.727273	-0.345695	0.911241
H158	H	1.693342	-0.304707	0.864404
H159	H	1.782607	-0.375362	0.869707
N160	N	1.474726	-0.522015	1.113694
H161	H	1.538948	-0.519721	1.161107
H162	H	1.489372	-0.558217	1.052076
N163	N	1.390051	-0.775123	0.110506
H164	H	1.448372	-0.753413	0.156656
H165	H	1.322436	-0.778564	0.152738
N166	N	1.397754	-0.269102	1.113385
H167	H	1.367124	-0.310586	1.161672
H168	H	1.348244	-0.260100	1.051876
H169	H	1.419075	-0.279835	0.920755
H170	H	1.563667	-0.251076	1.101462
