data_functionalizedCrystal
_audit_creation_method	'MofGen! by Chris Wilmer'
_symmetry_space_group_name_H-M	'P1'
_symmetry_Int_Tables_number	1
_symmetry_cell_setting	triclinic
loop_
_symmetry_equiv_pos_as_xyz
  x,y,z
_cell_length_a	12.827893
_cell_length_b	13.033855
_cell_length_c	12.827885
_cell_angle_alpha	97.207692
_cell_angle_beta	90.019272
_cell_angle_gamma	82.826843
loop_
_atom_site_label
_atom_site_type_symbol
_atom_site_fract_x
_atom_site_fract_y
_atom_site_fract_z
Zn1	Zn	1.650540	-0.415971	0.538054
Zn2	Zn	2.150540	0.084029	1.038054
Zn3	Zn	1.672649	-0.590746	0.341133
Zn4	Zn	2.172649	-0.090746	0.841133
Zn5	Zn	1.475788	-0.416023	0.363321
Zn6	Zn	1.975788	0.083977	0.863321
Zn7	Zn	1.497971	-0.590669	0.515842
Zn8	Zn	1.997971	-0.090669	1.015842
O9	O	1.574237	-0.503352	0.439588
O10	O	2.074237	-0.003352	0.939588
O11	O	1.799710	-0.439166	0.511942
O12	O	2.299710	0.060834	1.011942
O13	O	1.646503	-0.567622	0.197833
O14	O	2.146503	-0.067622	0.697833
O15	O	1.480433	-0.269782	0.405082
O16	O	1.980433	0.230218	0.905082
O17	O	1.815953	-0.567572	0.367264
O18	O	2.315953	-0.067572	0.867264
O19	O	1.608823	-0.269744	0.533458
O20	O	2.108823	0.230256	1.033458
O21	O	1.501871	-0.439254	0.214135
O22	O	2.001871	0.060746	0.714135
O23	O	1.332494	-0.439179	0.383544
O24	O	1.832494	0.060821	0.883544
O25	O	1.518241	-0.567441	0.665032
O26	O	2.018241	-0.067441	1.165032
O27	O	1.348791	-0.567491	0.495600
O28	O	1.848791	-0.067491	0.995600
O29	O	1.630333	-0.439091	0.681351
O30	O	2.130333	0.060909	1.181351
O31	O	1.668014	-0.736969	0.345726
O32	O	2.168014	-0.236969	0.845726
O33	O	1.539679	-0.736912	0.474085
O34	O	2.039679	-0.236912	0.974085
C35	C	1.302725	-0.503333	0.439570
C36	C	1.802725	-0.003333	0.939570
C37	C	1.186574	-0.503350	0.439584
C38	C	1.686574	-0.003350	0.939584
C39	C	1.126766	-0.439923	0.511260
C40	C	1.626766	0.060077	1.011260
C41	C	1.006718	-0.439939	0.511276
C42	C	1.506718	0.060061	1.011276
C43	C	1.608681	-0.774858	0.405110
C44	C	2.108681	-0.274858	0.905110
C45	C	1.623511	-0.891009	0.390395
C46	C	2.123511	-0.391009	0.890395
C47	C	1.566579	-0.942799	0.447288
C48	C	2.066579	-0.442799	0.947288
C49	C	1.581905	-1.062847	0.432081
C50	C	2.081905	-0.562847	0.932081
C51	C	1.846810	-0.503372	0.439606
C52	C	2.346810	-0.003372	0.939606
C53	C	1.962964	-0.503381	0.439613
C54	C	2.462964	-0.003381	0.939613
C55	C	1.574296	-0.503252	0.712171
C56	C	2.074296	-0.003252	1.212171
C57	C	1.574320	-0.503209	0.828329
C58	C	2.074320	-0.003209	1.328329
C59	C	1.539688	-0.230786	0.474223
C60	C	2.039688	0.269214	0.974223
C61	C	1.524965	-0.114635	0.488982
C62	C	2.024965	0.385365	0.988982
C63	C	1.574230	-0.503377	0.168075
C64	C	2.074230	-0.003377	0.668075
C65	C	1.574370	-0.503125	0.051954
C66	C	2.074370	-0.003125	0.551954
C67	C	1.629792	-0.439685	0.888191
C68	C	2.129792	0.060315	1.388191
C69	C	1.629819	-0.439639	1.008247
C70	C	2.129819	0.060361	1.508247
H71	H	1.014361	-0.557691	0.378251
H72	H	1.514361	-0.057691	0.878251
H73	H	1.641996	-1.107379	0.372108
H74	H	2.141996	-0.607379	0.872108
H75	H	1.464867	-1.070104	0.548949
H76	H	1.964867	-0.570104	1.048949
H77	H	1.677260	-0.385330	0.850560
H78	H	2.177260	0.114670	1.350560
O79	O	1.517862	-0.568064	0.990467
O80	O	2.017862	-0.068064	1.490467
C81	C	1.585958	-0.635545	0.918783
C82	C	2.085958	-0.135545	1.418783
H83	H	1.660491	-0.598685	0.907232
H84	H	2.160491	-0.098685	1.407232
H85	H	1.545215	-0.649506	0.840207
H86	H	2.045215	-0.149506	1.340207
H87	H	1.607230	-0.713010	0.950942
H88	H	2.107230	-0.213010	1.450942
H89	H	1.164437	-0.385605	0.572609
H90	H	1.664437	0.114395	1.072609
O91	O	1.517590	-0.568088	0.873047
O92	O	2.017590	-0.068088	1.373047
C93	C	1.466030	-0.627181	0.794075
C94	C	1.966030	-0.127181	1.294075
H95	H	1.456907	-0.584480	0.721668
H96	H	1.956907	-0.084480	1.221668
H97	H	1.385139	-0.638284	0.824277
H98	H	1.885139	-0.138284	1.324277
H99	H	1.514349	-0.706564	0.772423
H100	H	2.014349	-0.206564	1.272423
H101	H	1.148902	-0.557661	0.378230
H102	H	1.648902	-0.057661	0.878230
H103	H	0.955315	-0.385640	0.572643
H104	H	1.455315	0.114360	1.072643
O105	O	1.695345	-0.944159	0.319016
O106	O	2.195345	-0.444159	0.819016
C107	C	1.770777	-1.007189	0.370671
C108	C	2.270777	-0.507189	0.870671
H109	H	1.772952	-0.974165	0.457140
H110	H	2.272952	-0.474165	0.957140
H111	H	1.851398	-1.008465	0.332822
H112	H	2.351398	-0.508465	0.832822
H113	H	1.748978	-1.089904	0.363821
H114	H	2.248978	-0.589904	0.863821
H115	H	1.506485	-0.898266	0.507251
H116	H	2.006485	-0.398266	1.007251
O117	O	1.686382	-0.374785	1.069774
O118	O	2.186382	0.125215	1.569774
C119	C	1.673830	-0.389189	1.175944
C120	C	2.173830	0.110811	1.675944
H121	H	1.597514	-0.423420	1.186391
H122	H	2.097514	0.076580	1.686391
H123	H	1.670967	-0.310936	1.227442
H124	H	2.170967	0.189064	1.727442
H125	H	1.742855	-0.444854	1.199852
H126	H	2.242855	0.055146	1.699852
