data_functionalizedCrystal
_audit_creation_method	'MofGen! by Chris Wilmer'
_symmetry_space_group_name_H-M	'P1'
_symmetry_Int_Tables_number	1
_symmetry_cell_setting	triclinic
loop_
_symmetry_equiv_pos_as_xyz
  x,y,z
_cell_length_a	6.817900
_cell_length_b	16.886426
_cell_length_c	17.329402
_cell_angle_alpha	86.240444
_cell_angle_beta	103.025973
_cell_angle_gamma	83.786827
loop_
_atom_site_label
_atom_site_type_symbol
_atom_site_fract_x
_atom_site_fract_y
_atom_site_fract_z
V1	V	-3.942179	0.241291	-0.110321
O2	O	-3.936365	0.244133	0.003617
O3	O	-3.889406	0.232490	-0.217129
O4	O	-3.859111	0.349789	-0.109363
O5	O	-3.966870	0.126022	-0.104894
V6	V	-4.430866	0.228372	-0.096606
O7	O	-4.192110	0.269628	-0.140408
O8	O	-4.631133	0.200035	-0.066519
O9	O	-4.260433	0.237174	0.010202
O10	O	-4.554077	0.225530	-0.210544
O11	O	-4.523572	0.343641	-0.102033
O12	O	-4.290728	0.119875	-0.097564
C13	C	-3.734465	0.226838	-0.243143
C14	C	-3.772372	0.220365	-0.330464
C15	C	-3.806524	0.289567	-0.383189
C16	C	-3.842121	0.283478	-0.465235
C17	C	-3.843581	0.208185	-0.494555
C18	C	-3.809420	0.138978	-0.441823
C19	C	-3.773809	0.145068	-0.359779
C20	C	-3.950274	0.186183	-0.741691
C21	C	-3.985895	0.180098	-0.823743
C22	C	-4.018590	0.324599	-0.847149
C23	C	-3.982989	0.330683	-0.765102
C24	C	-3.948820	0.261475	-0.712377
C25	C	-3.879974	0.201959	-0.578419
C26	C	-3.912414	0.267701	-0.628514
C27	C	-4.117363	0.093195	-0.101253
C28	C	-4.083265	0.004544	-0.101325
C29	C	-3.893177	-0.033309	-0.105312
C30	C	-3.861156	-0.116606	-0.105389
C31	C	-4.019230	-0.162047	-0.101484
C32	C	-4.209331	-0.124188	-0.097494
C33	C	-4.241345	-0.040893	-0.097412
C34	C	-3.931272	-0.413733	-0.101529
C35	C	-3.899244	-0.497032	-0.101613
C36	C	-3.551070	-0.489445	-0.109506
C37	C	-3.583104	-0.406149	-0.109429
C38	C	-3.773199	-0.368297	-0.105435
C39	C	-3.986505	-0.247189	-0.101564
C40	C	-3.805916	-0.283157	-0.105349
C41	C	-3.695820	0.376463	-0.105677
C42	C	-3.709157	0.465114	-0.105600
C43	C	-4.078717	0.242823	0.036212
C44	C	-4.020046	0.249301	0.123532
H45	H	-3.745991	0.088715	-0.316850
H46	H	-3.922471	0.129829	-0.698772
F47	F	-3.878328	0.357131	-0.521343
F48	F	-3.724931	0.015046	-0.109474
H49	H	-3.911213	0.329004	-0.604638
H50	H	-4.338030	-0.161193	-0.094309
F51	F	-3.981432	0.410819	-0.733904
F52	F	-3.804990	0.369705	-0.351993
F53	F	-4.443656	-0.000608	-0.093162
H54	H	-3.677213	-0.246156	-0.108523
H55	H	-3.810599	0.077673	-0.465702
F56	F	-3.658849	-0.156887	-0.109642
F57	F	-4.054949	0.398250	-0.903267
F58	F	-3.881542	0.121830	-0.609631
F59	F	-4.154736	-0.295557	-0.097417
H60	H	-3.454381	-0.369155	-0.112611
H61	H	-3.396299	-0.520273	-0.112756
F62	F	-3.987436	0.099958	-0.854944
H63	H	-4.027979	-0.534029	-0.098435
H64	H	-4.086052	-0.382925	-0.098274
