data_functionalizedCrystal
_audit_creation_method	'MofGen! by Chris Wilmer'
_symmetry_space_group_name_H-M	'P1'
_symmetry_Int_Tables_number	1
_symmetry_cell_setting	triclinic
loop_
_symmetry_equiv_pos_as_xyz
  x,y,z
_cell_length_a	14.044191
_cell_length_b	8.597304
_cell_length_c	7.681481
_cell_angle_alpha	103.491353
_cell_angle_beta	83.749037
_cell_angle_gamma	89.224089
loop_
_atom_site_label
_atom_site_type_symbol
_atom_site_fract_x
_atom_site_fract_y
_atom_site_fract_z
O1	O	1.248746	0.398150	0.206735
O2	O	1.748746	0.898150	0.706735
O3	O	0.972775	0.384273	0.204652
O4	O	1.472775	0.884273	0.704652
O5	O	1.118308	0.160245	0.170649
O6	O	1.618308	0.660245	0.670649
O7	O	1.103213	0.622178	0.240738
O8	O	1.603213	1.122178	0.740738
O9	O	1.136221	0.132603	-0.126404
O10	O	1.636221	0.632603	0.373596
O11	O	0.990688	0.356631	-0.092401
O12	O	1.490688	0.856631	0.407599
O13	O	1.266659	0.370507	-0.090319
O14	O	1.766659	0.870507	0.409681
Zn15	Zn	1.131517	0.359180	-0.138524
Zn16	Zn	1.631517	0.859180	0.361476
Zn17	Zn	1.107917	0.395600	0.252857
Zn18	Zn	1.607917	0.895600	0.752857
O19	O	1.121126	0.594536	-0.056316
O20	O	1.621126	1.094536	0.443684
C21	C	0.946417	0.364381	0.055207
C22	C	1.446417	0.864381	0.555207
C23	C	0.841191	0.346271	0.052469
C24	C	1.341191	0.846271	0.552469
C25	C	1.126642	0.086950	0.013102
C26	C	1.626642	0.586950	0.513102
C27	C	1.124774	-0.090266	-0.013775
C28	C	1.624774	0.409734	0.486225
C29	C	0.590904	0.441604	0.066916
C30	C	1.090904	0.941604	0.566916
C31	C	0.648535	0.313185	0.047434
C32	C	1.148535	0.813185	0.547434
C33	C	0.755738	0.331598	0.050236
C34	C	1.255738	0.831598	0.550236
C35	C	0.483690	0.423193	0.064114
C36	C	0.983690	0.923193	0.564114
C37	C	1.293017	0.390400	0.059130
C38	C	1.793017	0.890400	0.559130
C39	C	1.398242	0.408511	0.061880
C40	C	1.898242	0.908511	0.561880
C41	C	1.112792	0.667831	0.101235
C42	C	1.612792	1.167831	0.601235
C43	C	1.114659	0.845048	0.128123
C44	C	1.614659	1.345048	0.628123
N45	N	1.147631	0.334325	-0.405630
N46	N	1.647631	0.834325	0.094370
N47	N	1.091810	0.420444	0.519962
N48	N	1.591810	0.920444	1.019962
H49	H	1.107425	-0.074755	0.270181
H50	H	1.607425	0.425245	0.770181
H51	H	0.622075	0.565367	0.085700
H52	H	1.122075	1.065367	0.585700
H53	H	1.034828	0.508346	-0.391500
H54	H	1.534828	1.008346	0.108500
H55	H	1.131995	-0.170471	-0.155841
H56	H	1.631995	0.329529	0.344159
H57	H	0.617354	0.189424	0.028780
H58	H	1.117354	0.689424	0.528780
H59	H	1.204624	0.246430	-0.494177
H60	H	1.704624	0.746430	0.005823
