data_functionalizedCrystal
_audit_creation_method	'MofGen! by Chris Wilmer'
_symmetry_space_group_name_H-M	'P1'
_symmetry_Int_Tables_number	1
_symmetry_cell_setting	triclinic
loop_
_symmetry_equiv_pos_as_xyz
  x,y,z
_cell_length_a	17.699083
_cell_length_b	10.654550
_cell_length_c	9.730223
_cell_angle_alpha	90.006378
_cell_angle_beta	89.999088
_cell_angle_gamma	96.116042
loop_
_atom_site_label
_atom_site_type_symbol
_atom_site_fract_x
_atom_site_fract_y
_atom_site_fract_z
O1	O	0.106297	-1.665978	-0.114406
O2	O	0.116425	-1.300323	-0.114384
O3	O	0.001238	-1.493481	-0.114384
O4	O	0.221485	-1.472820	-0.114407
O5	O	0.001244	-1.493469	0.114196
O6	O	0.116432	-1.300310	0.114196
O7	O	0.106304	-1.665966	0.114174
Zn8	Zn	0.111369	-1.483136	0.150477
Zn9	Zn	0.111360	-1.483153	-0.150687
O10	O	0.221491	-1.472807	0.114173
C11	C	-0.026961	-1.492735	-0.000093
C12	C	-0.110993	-1.490514	-0.000093
C13	C	0.115685	-1.253531	-0.000091
C14	C	0.113460	-1.114127	-0.000083
C15	C	0.107044	-1.712757	-0.000122
C16	C	0.109269	-1.852161	-0.000140
C17	C	-0.158893	-1.603894	-0.000097
C18	C	-0.237850	-1.601799	-0.000109
C19	C	-0.268905	-1.486324	-0.000107
C20	C	-0.220998	-1.372935	-0.000106
C21	C	-0.142043	-1.375031	-0.000104
C22	C	-0.539415	-1.364481	-0.000117
C23	C	-0.618376	-1.362394	-0.000115
C24	C	-0.635222	-1.591249	-0.000122
C25	C	-0.556266	-1.593345	-0.000120
C26	C	-0.508367	-1.479957	-0.000127
C27	C	-0.422753	-1.482229	-0.000116
C28	C	-0.354517	-1.484050	-0.000107
C29	C	0.249690	-1.473554	-0.000120
C30	C	0.333722	-1.475775	-0.000130
N31	N	0.111374	-1.483134	0.356013
C32	C	0.181281	-1.033454	-0.000110
C33	C	0.179185	-0.902470	-0.000133
C34	C	0.041443	-0.932845	-0.000108
C35	C	0.043539	-1.063826	-0.000075
C36	C	0.260805	-1.015917	-0.000130
C37	C	0.258710	-0.884933	-0.000154
N38	N	0.111349	-1.483165	-0.356223
C39	C	0.157701	-1.559153	0.427943
C40	C	0.157687	-1.559172	0.571826
C41	C	0.065017	-1.407143	0.571837
C42	C	0.065028	-1.407131	0.427957
C43	C	0.211205	-1.646922	0.427937
C44	C	0.211191	-1.646941	0.571820
H45	H	-0.133615	-1.697927	-0.000091
C46	C	0.014050	-1.323527	0.650973
H47	H	-0.013541	-1.278253	0.587523
H48	H	0.044740	-1.265646	0.707118
H49	H	-0.020505	-1.375102	0.707083
H50	H	0.192610	-1.746298	0.388868
H51	H	0.282746	-0.838835	0.098528
C52	C	0.291802	-1.603693	0.624610
H53	H	0.324963	-1.585886	0.548682
H54	H	0.309468	-1.668710	0.678846
H55	H	0.290704	-1.529768	0.678853
C56	C	-0.255157	-1.245914	-0.000099
H57	H	-0.309040	-1.260902	-0.000086
H58	H	-0.238756	-1.199241	-0.079806
H59	H	-0.238754	-1.199241	0.079626
C60	C	0.299176	-0.827840	-0.129392
H61	H	0.297759	-0.738954	-0.129394
H62	H	0.274213	-0.863085	-0.209102
H63	H	0.350528	-0.846242	-0.129391
C64	C	0.295015	-1.063501	-0.133439
H65	H	0.308803	-0.994053	-0.192825
H66	H	0.258535	-1.121762	-0.177718
H67	H	0.338824	-1.104029	-0.112014
H68	H	-0.530986	-1.687377	-0.000115
C69	C	-0.290540	-1.726514	-0.000129
H70	H	-0.342011	-1.708731	-0.000152
H71	H	-0.281069	-1.773878	0.079577
H72	H	-0.281054	-1.773869	-0.079855
H73	H	-0.674231	-1.683575	-0.000124
H74	H	-0.500424	-1.272153	-0.000122
H75	H	0.268195	-1.606394	0.383329
H76	H	0.187401	-1.741948	0.616419
C77	C	0.014094	-1.323473	0.348832
H78	H	0.020741	-1.334342	0.252838
H79	H	0.027692	-1.237524	0.372459
H80	H	-0.037572	-1.346947	0.372371
C81	C	-0.652535	-1.235365	-0.000130
H82	H	-0.612701	-1.168134	-0.000149
H83	H	-0.682987	-1.229777	0.079578
H84	H	-0.682984	-1.229813	-0.079853
C85	C	-0.089353	-1.250313	-0.000095
H86	H	-0.119155	-1.181239	-0.000082
H87	H	-0.058202	-1.246379	-0.079805
H88	H	-0.058204	-1.246368	0.079626
H89	H	-0.015484	-0.891873	-0.000123
C90	C	-0.031061	-1.152568	-0.000032
H91	H	-0.019801	-1.237781	-0.000002
H92	H	-0.059710	-1.137369	-0.079738
H93	H	-0.059692	-1.137314	0.079693
C94	C	0.302831	-1.054807	0.129085
H95	H	0.318685	-0.981918	0.182215
H96	H	0.346014	-1.094836	0.102507
H97	H	0.269712	-1.111647	0.182264
