data_functionalizedCrystal
_audit_creation_method	'MofGen! by Chris Wilmer'
_symmetry_space_group_name_H-M	'P1'
_symmetry_Int_Tables_number	1
_symmetry_cell_setting	triclinic
loop_
_symmetry_equiv_pos_as_xyz
  x,y,z
_cell_length_a	6.817900
_cell_length_b	7.190334
_cell_length_c	10.773890
_cell_angle_alpha	86.576725
_cell_angle_beta	83.354284
_cell_angle_gamma	119.388224
loop_
_atom_site_label
_atom_site_type_symbol
_atom_site_fract_x
_atom_site_fract_y
_atom_site_fract_z
V1	V	4.187881	0.661566	-0.170615
O2	O	4.208836	0.652548	0.010246
O3	O	4.103183	0.653603	-0.340270
O4	O	4.225769	0.951667	-0.167092
O5	O	4.085401	0.352421	-0.164131
V6	V	4.665031	0.625008	-0.149088
O7	O	4.463118	0.741760	-0.217836
O8	O	4.839991	0.544813	-0.101867
O9	O	4.526522	0.632971	0.020567
O10	O	4.761473	0.634026	-0.329950
O11	O	4.884908	0.934153	-0.155573
O12	O	4.403936	0.334907	-0.152611
C13	C	3.936561	0.642279	-0.381657
C14	C	3.949173	0.637702	-0.520346
C15	C	4.129614	0.645655	-0.588185
C16	C	4.142652	0.640925	-0.731528
C17	C	4.092945	1.022487	-0.160745
C18	C	4.207071	1.264079	-0.158952
C19	C	4.356483	0.644289	0.061947
C20	C	4.323113	0.648880	0.200635
H21	H	4.274448	0.655979	-0.540145
H22	H	3.804350	0.627402	-0.568389
H23	H	3.997816	0.630625	-0.779566
H24	H	4.467962	0.659201	-0.751331
