data_functionalizedCrystal
_audit_creation_method	'MofGen! by Chris Wilmer'
_symmetry_space_group_name_H-M	'P1'
_symmetry_Int_Tables_number	1
_symmetry_cell_setting	triclinic
loop_
_symmetry_equiv_pos_as_xyz
  x,y,z
_cell_length_a	15.298206
_cell_length_b	15.297327
_cell_length_c	15.296720
_cell_angle_alpha	72.680778
_cell_angle_beta	69.221745
_cell_angle_gamma	88.422996
loop_
_atom_site_label
_atom_site_type_symbol
_atom_site_fract_x
_atom_site_fract_y
_atom_site_fract_z
Zn1	Zn	1.197171	-0.637538	0.412757
Zn2	Zn	1.197068	-0.766145	0.284166
Zn3	Zn	1.077888	-0.593099	0.274918
Zn4	Zn	1.014713	-0.766131	0.466583
O5	O	1.121710	-0.690728	0.359606
O6	O	1.323393	-0.673202	0.377043
O7	O	1.207655	-0.724598	0.148911
O8	O	1.120193	-0.472757	0.266805
O9	O	1.323318	-0.767689	0.282568
O10	O	1.207829	-0.505406	0.368075
O11	O	1.120094	-0.597462	0.142116
O12	O	0.943272	-0.597448	0.318998
O13	O	1.012521	-0.767665	0.593471
O14	O	0.896858	-0.724574	0.459814
O15	O	1.146571	-0.673188	0.553925
O16	O	1.146397	-0.892380	0.334761
O17	O	1.012421	-0.892369	0.468782
C18	C	0.887333	-0.656188	0.394244
C19	C	0.787056	-0.641436	0.409090
C20	C	0.739953	-0.585415	0.465371
C21	C	0.645740	-0.571547	0.479320
C22	C	0.598618	-0.613704	0.436995
C23	C	0.645718	-0.669732	0.380718
C24	C	0.739943	-0.683596	0.366762
C25	C	0.598608	-0.711885	0.338386
C26	C	0.645708	-0.767913	0.282109
C27	C	0.739924	-0.781775	0.268156
C28	C	0.787046	-0.739617	0.310480
C29	C	0.504383	-0.698021	0.352342
C30	C	0.504373	-0.796202	0.253733
C31	C	0.598586	-0.810070	0.239784
C32	C	1.072563	-0.925113	0.408633
C33	C	1.051614	-1.025400	0.429627
C34	C	1.271744	-1.308042	0.209831
C35	C	1.291427	-1.213816	0.190101
C36	C	1.231476	-1.166708	0.249981
C37	C	1.151837	-1.213834	0.329594
C38	C	1.132148	-1.308067	0.349321
C39	C	1.091880	-1.166733	0.389471
C40	C	1.012241	-1.213859	0.469083
C41	C	0.992556	-1.308084	0.488807
C42	C	1.052508	-1.355192	0.428927
C43	C	1.111569	-1.072500	0.369744
C44	C	0.971973	-1.072525	0.509234
C45	C	0.952290	-1.166751	0.528963
C46	C	1.357002	-0.725404	0.324833
C47	C	1.457270	-0.740181	0.310014
C48	C	1.072511	-0.725382	0.609422
C49	C	1.051545	-0.740150	0.715878
C50	C	1.171069	-0.455435	0.310404
C51	C	1.192104	-0.355167	0.289438
C52	C	1.170784	-0.656151	0.110740
C53	C	1.191977	-0.641156	0.004205
C54	C	1.271623	-0.585029	0.933605
C55	C	1.291327	-0.571157	0.833583
C56	C	1.231383	-0.613404	0.804151
C57	C	1.151732	-0.669526	0.874752
C58	C	1.132030	-0.683405	0.974784
C59	C	1.091790	-0.711780	0.845331
C60	C	1.012139	-0.767902	0.915932
C61	C	0.992440	-0.781778	1.015954
C62	C	1.052384	-0.739532	1.045385
C63	C	1.111492	-0.697900	0.745299
C64	C	0.971899	-0.796276	0.786479
C65	C	0.952195	-0.810148	0.886501
H66	H	0.521906	-0.602406	0.448352
O67	O	0.907305	-1.021730	0.573831
H68	H	0.934381	-0.948293	0.546747
H69	H	1.176344	-0.652204	0.687825
H70	H	1.356267	-1.175449	0.125281
H71	H	1.247431	-0.602105	0.722708
H72	H	1.176411	-1.034138	0.304922
O73	O	1.377230	-0.510632	0.757436
H74	H	1.415600	-0.483582	0.794703
H75	H	0.927589	-0.827485	1.073436
O76	O	1.336254	-0.539441	0.965344
H77	H	1.309162	-0.558509	1.046759
H78	H	1.247506	-1.089985	0.233911
H79	H	0.778274	-0.827387	0.222322
O80	O	1.031127	-0.754496	1.153271
H81	H	1.086192	-0.715689	1.161870
H82	H	0.887342	-0.855843	0.943997
H83	H	0.778331	-0.551091	0.499820
O84	O	0.453591	-0.637598	0.413042
H85	H	0.428723	-0.579377	0.367000
O86	O	1.336418	-1.358854	0.145272
H87	H	1.309355	-1.432296	0.172376
O88	O	0.907232	-0.841843	0.754752
H89	H	0.934306	-0.822754	0.673336
H90	H	0.607397	-0.525930	0.525142
H91	H	1.036488	-1.431919	0.444989
O92	O	0.906659	-1.358916	0.574668
H93	H	0.868282	-1.310334	0.612999
O94	O	0.888673	-0.754559	0.295411
H95	H	0.913524	-0.715824	0.334290
H96	H	0.466006	-0.830531	0.219270
O97	O	0.649394	-0.870488	0.179074
H98	H	0.722828	-0.873035	0.176476
O99	O	0.866387	-1.217585	0.614815
H100	H	0.888161	-1.273179	0.666587
