data_functionalizedCrystal
_audit_creation_method	'MofGen! by Chris Wilmer'
_symmetry_space_group_name_H-M	'P1'
_symmetry_Int_Tables_number	1
_symmetry_cell_setting	triclinic
loop_
_symmetry_equiv_pos_as_xyz
  x,y,z
_cell_length_a	16.992695
_cell_length_b	16.992694
_cell_length_c	15.455313
_cell_angle_alpha	92.857794
_cell_angle_beta	87.152573
_cell_angle_gamma	90.668223
loop_
_atom_site_label
_atom_site_type_symbol
_atom_site_fract_x
_atom_site_fract_y
_atom_site_fract_z
O1	O	-0.163694	-1.054080	-0.072023
O2	O	0.336306	-0.554080	0.427977
O3	O	-0.161862	-0.825681	-0.072048
O4	O	0.338138	-0.325681	0.427952
O5	O	-0.048579	-0.938965	-0.072029
O6	O	0.451421	-0.438965	0.427971
O7	O	-0.276978	-0.940797	-0.072042
O8	O	0.223022	-0.440797	0.427958
O9	O	-0.055028	-0.932485	0.072232
O10	O	0.444972	-0.432485	0.572232
O11	O	-0.168312	-0.819202	0.072213
O12	O	0.331688	-0.319202	0.572213
O13	O	-0.170144	-1.047601	0.072238
O14	O	0.329856	-0.547601	0.572238
Cu15	Cu	-0.169817	-0.932809	0.085398
Cu16	Cu	0.330183	-0.432809	0.585398
Cu17	Cu	-0.162189	-0.940473	-0.085207
Cu18	Cu	0.337811	-0.440473	0.414793
O19	O	-0.283428	-0.934317	0.072219
O20	O	0.216572	-0.434317	0.572219
C21	C	-0.162731	-0.793081	0.000079
C22	C	0.337269	-0.293081	0.500079
C23	C	-0.155702	-0.705597	0.000070
C24	C	0.344298	-0.205597	0.500070
C25	C	-0.022443	-0.933369	0.000102
C26	C	0.477557	-0.433369	0.500102
C27	C	0.065041	-0.926341	0.000101
C28	C	0.565041	-0.426341	0.500101
C29	C	-0.169275	-1.080201	0.000109
C30	C	0.330725	-0.580201	0.500109
C31	C	-0.176304	-1.167685	0.000113
C32	C	0.323696	-0.667685	0.500113
C33	C	-0.309563	-0.939913	0.000087
C34	C	0.190437	-0.439913	0.500087
C35	C	-0.397047	-0.946942	0.000082
C36	C	0.102953	-0.446942	0.500082
C37	C	0.111032	-0.994158	0.000109
C38	C	0.611032	-0.494158	0.500109
C39	C	0.193233	-0.987550	0.000100
C40	C	0.693233	-0.487550	0.500100
C41	C	0.229442	-0.913123	0.000089
C42	C	0.729442	-0.413123	0.500089
C43	C	0.183445	-0.845300	0.000078
C44	C	0.683445	-0.345300	0.500078
C45	C	0.101246	-0.851910	0.000081
C46	C	0.601246	-0.351910	0.500081
C47	C	0.474757	-0.885729	0.000074
C48	C	0.974757	-0.385729	0.500074
C49	C	0.556962	-0.879124	0.000074
C50	C	1.056962	-0.379124	0.500074
C51	C	0.566744	-1.021375	0.000094
C52	C	1.066744	-0.521375	0.500094
C53	C	0.484543	-1.027977	0.000102
C54	C	0.984543	-0.527977	0.500102
C55	C	0.438554	-0.960155	0.000087
C56	C	0.938554	-0.460155	0.500087
N57	N	0.313464	-0.906366	0.000082
N58	N	0.813464	-0.406366	0.500082
N59	N	0.354533	-0.966913	0.000087
N60	N	0.854533	-0.466913	0.500087
N61	N	-0.175181	-0.927425	0.205392
N62	N	0.324819	-0.427425	0.705392
C63	C	-0.223520	-0.659607	0.000066
C64	C	0.276480	-0.159607	0.500066
C65	C	-0.216911	-0.577405	0.000079
C66	C	0.283089	-0.077405	0.500079
C67	C	-0.142484	-0.541197	0.000088
C68	C	0.357516	-0.041197	0.500088
C69	C	-0.074661	-0.587193	0.000094
C70	C	0.425339	-0.087193	0.500094
C71	C	-0.081271	-0.669393	0.000088
C72	C	0.418729	-0.169393	0.500088
C73	C	-0.115091	-0.295881	0.000113
C74	C	0.384909	0.204119	0.500113
C75	C	-0.108486	-0.213676	0.000116
C76	C	0.391514	0.286324	0.500116
C77	C	-0.250737	-0.203893	0.000103
C78	C	0.249263	0.296107	0.500103
C79	C	-0.257340	-0.286095	0.000091
C80	C	0.242660	0.213905	0.500091
C81	C	-0.189517	-0.332084	0.000102
C82	C	0.310483	0.167916	0.500102
N83	N	-0.135727	-0.457174	0.000098
N84	N	0.364273	0.042826	0.500098
N85	N	-0.196275	-0.416105	0.000098
N86	N	0.303725	0.083895	0.500098
N87	N	-0.156819	-0.945863	-0.205202
N88	N	0.343181	-0.445863	0.294798
C89	C	-0.127074	-0.975571	0.250795
C90	C	0.372926	-0.475571	0.750795
C91	C	-0.131139	-0.971507	0.341602
C92	C	0.368861	-0.471507	0.841602
C93	C	-0.183315	-0.919301	0.387005
C94	C	0.316685	-0.419301	0.887005
C95	C	-0.231424	-0.871149	0.341596
C96	C	0.268576	-0.371149	0.841596
C97	C	-0.227355	-0.875210	0.250791
C98	C	0.272645	-0.375210	0.750791
C99	C	-0.200858	-0.901772	0.658584
C100	C	0.299142	-0.401772	1.158584
C101	C	-0.204926	-0.897717	0.749395
C102	C	0.295074	-0.397717	1.249395
C103	C	-0.104639	-0.998074	0.749395
C104	C	0.395361	-0.498074	1.249395
C105	C	-0.100578	-1.002133	0.658588
C106	C	0.399422	-0.502133	1.158588
C107	C	-0.148684	-0.953979	0.613187
C108	C	0.351316	-0.453979	1.113187
N109	N	-0.187473	-0.915147	0.479825
N110	N	0.312527	-0.415147	0.979825
N111	N	-0.144522	-0.958129	0.520369
N112	N	0.355478	-0.458129	1.020369
H113	H	0.081557	-1.054764	0.000124
H114	H	0.581557	-0.554764	0.500124
F115	F	-0.336555	-0.324625	0.000077
F116	F	0.163445	0.175375	0.500077
F117	F	0.446014	-1.107194	0.000092
F118	F	0.946014	-0.607194	0.500092
H119	H	-0.305954	-0.166440	0.000096
H120	H	0.194046	0.333560	0.500096
H121	H	0.604197	-1.076591	0.000106
H122	H	1.104197	-0.576591	0.500106
H123	H	0.586440	-0.818513	0.000079
H124	H	1.086440	-0.318513	0.500079
F125	F	-0.029268	-0.175141	0.000142
F126	F	0.470732	0.324859	0.500142
H127	H	0.212933	-0.784700	0.000063
H128	H	0.712933	-0.284700	0.500063
F129	F	0.242176	-1.059731	0.000111
F130	F	0.742176	-0.559731	0.500111
F131	F	-0.260464	-0.842149	0.797711
F132	F	0.239536	-0.342149	1.297711
H133	H	-0.240030	-0.862564	0.621625
H134	H	0.259970	-0.362564	1.121625
H135	H	0.437322	-0.830503	0.000061
H136	H	0.937322	-0.330503	0.500061
F137	F	0.052300	-0.779729	0.000069
F138	F	0.552300	-0.279729	0.500069
F139	F	-0.286951	-0.815582	0.389918
F140	F	0.213049	-0.315582	0.889918
H141	H	-0.284126	-0.689081	0.000058
H142	H	0.215874	-0.189081	0.500058
F143	F	-0.042907	-0.344816	0.000124
F144	F	0.457093	0.155184	0.500124
H145	H	-0.272136	-0.539963	0.000075
H146	H	0.227864	-0.039963	0.500075
F147	F	0.004550	-0.548655	0.000110
F148	F	0.504550	-0.048655	0.500110
F149	F	-0.009090	-0.718339	0.000095
F150	F	0.490910	-0.218339	0.500095
H151	H	-0.091966	-1.010711	0.378568
H152	H	0.408034	-0.510711	0.878568
H153	H	-0.084591	-1.018087	0.213834
H154	H	0.415409	-0.518087	0.713834
F155	F	-0.045048	-1.057697	0.610267
F156	F	0.454952	-0.557697	1.110267
F157	F	-0.053443	-1.049317	0.797719
F158	F	0.446557	-0.549317	1.297719
H159	H	-0.266527	-0.836004	0.213825
H160	H	0.233473	-0.336004	0.713825
