data_functionalizedCrystal
_audit_creation_method	'MofGen! by Chris Wilmer'
_symmetry_space_group_name_H-M	'P1'
_symmetry_Int_Tables_number	1
_symmetry_cell_setting	triclinic
loop_
_symmetry_equiv_pos_as_xyz
  x,y,z
_cell_length_a	10.654555
_cell_length_b	17.666332
_cell_length_c	19.188930
_cell_angle_alpha	90.011603
_cell_angle_beta	96.184122
_cell_angle_gamma	89.993308
loop_
_atom_site_label
_atom_site_type_symbol
_atom_site_fract_x
_atom_site_fract_y
_atom_site_fract_z
O1	O	-1.665771	0.062912	0.098080
O2	O	-1.165771	0.562912	0.598080
O3	O	-1.300095	0.062924	0.107419
O4	O	-0.800095	0.562924	0.607419
O5	O	-1.493486	0.062903	0.001163
O6	O	-0.993486	0.562903	0.501163
O7	O	-1.472381	0.062933	0.204336
O8	O	-0.972381	0.562933	0.704336
O9	O	-1.493452	-0.062994	0.001157
O10	O	-0.993452	0.437006	0.501157
O11	O	-1.300062	-0.062972	0.107413
O12	O	-0.800062	0.437028	0.607413
O13	O	-1.665737	-0.062985	0.098074
O14	O	-1.165737	0.437015	0.598074
Cu15	Cu	-1.482896	-0.074474	0.102743
Cu16	Cu	-0.982896	0.425526	0.602743
Cu17	Cu	-1.482936	0.074414	0.102750
Cu18	Cu	-0.982936	0.574414	0.602750
O19	O	-1.472347	-0.062963	0.204330
O20	O	-0.972347	0.437037	0.704330
C21	C	-1.253295	-0.000023	0.106730
C22	C	-0.753295	0.499977	0.606730
C23	C	-1.113896	-0.000018	0.104676
C24	C	-0.613896	0.499982	0.604676
C25	C	-0.917430	0.068604	0.101787
C26	C	-0.417430	0.568604	0.601787
C27	C	-1.048411	0.068607	0.103713
C28	C	-0.548411	0.568607	0.603713
C29	C	-1.048393	-0.068652	0.103706
C30	C	-0.548393	0.431348	0.603706
C31	C	-0.917415	-0.068655	0.101776
C32	C	-0.417415	0.431345	0.601776
N33	N	-1.482877	-0.179193	0.102738
N34	N	-0.982877	0.320807	0.602738
C35	C	-1.568538	-0.218813	0.055711
C36	C	-1.068538	0.281187	0.555711
C37	C	-1.568545	-0.298060	0.055708
C38	C	-1.068545	0.201940	0.555708
C39	C	-1.482904	-0.337686	0.102743
C40	C	-0.982904	0.162314	0.602743
C41	C	-1.397227	-0.298057	0.149773
C42	C	-0.897227	0.201943	0.649773
C43	C	-1.397214	-0.218811	0.149771
C44	C	-0.897214	0.281189	0.649771
N45	N	-1.466579	-0.462095	0.164444
N46	N	-0.966579	0.037905	0.664444
N47	N	-1.466600	-0.537375	0.164444
N48	N	-0.966600	-0.037375	0.664444
C49	C	-1.482937	-0.576450	0.102753
C50	C	-0.982937	-0.076450	0.602753
N51	N	-1.499278	-0.537400	0.041060
N52	N	-0.999278	-0.037400	0.541060
N53	N	-1.499264	-0.462112	0.041060
N54	N	-0.999264	0.037888	0.541060
C55	C	-1.482908	-0.423615	0.102751
C56	C	-0.982908	0.076385	0.602751
C57	C	-1.568610	-0.701998	0.055719
C58	C	-1.068610	-0.201998	0.555719
C59	C	-1.568609	-0.781247	0.055714
C60	C	-1.068609	-0.281247	0.555714
C61	C	-1.397297	-0.781242	0.149786
C62	C	-0.897297	-0.281242	0.649786
C63	C	-1.397292	-0.701995	0.149785
C64	C	-0.897292	-0.201995	0.649785
C65	C	-1.482956	-0.662377	0.102752
C66	C	-0.982956	-0.162377	0.602752
C67	C	-0.712537	-0.000034	0.098764
C68	C	-0.212537	0.499966	0.598764
C69	C	-0.851936	-0.000025	0.100820
C70	C	-0.351936	0.499975	0.600820
C71	C	-1.492785	-0.000048	-0.024856
C72	C	-0.992785	0.499952	0.475144
C73	C	-1.490734	-0.000054	-0.102374
C74	C	-0.990734	0.499946	0.397626
N75	N	-1.482965	0.179133	0.102750
N76	N	-0.982965	0.679133	0.602750
C77	C	-1.604209	-0.000061	-0.146554
C78	C	-1.104209	0.499939	0.353446
C79	C	-1.602281	-0.000049	-0.219391
C80	C	-1.102281	0.499951	0.280609
C81	C	-1.486872	-0.000045	-0.248043
C82	C	-0.986872	0.499955	0.251957
C83	C	-1.373382	-0.000033	-0.203853
C84	C	-0.873382	0.499967	0.296147
C85	C	-1.375313	-0.000038	-0.131018
C86	C	-0.875313	0.499962	0.368982
N87	N	-1.398644	-0.042887	-0.356628
N88	N	-0.898644	0.457113	0.143372
N89	N	-1.396818	-0.042884	-0.425819
N90	N	-0.896818	0.457116	0.074181
C91	C	-1.481048	-0.000029	-0.467490
C92	C	-0.981048	0.499971	0.032510
N93	N	-1.567193	0.042813	-0.437358
N94	N	-1.067193	0.542813	0.062642
N95	N	-1.569023	0.042807	-0.368162
N96	N	-1.069023	0.542807	0.131838
C97	C	-1.484766	-0.000039	-0.327019
C98	C	-0.984766	0.499961	0.172981
C99	C	-1.592441	-0.000022	-0.590649
C100	C	-1.092441	0.499978	-0.090649
C101	C	-1.590509	-0.000006	-0.663486
C102	C	-1.090509	0.499994	-0.163486
C103	C	-1.361607	0.000003	-0.647947
C104	C	-0.861607	0.500003	-0.147947
C105	C	-1.363542	-0.000006	-0.575111
C106	C	-0.863542	0.499994	-0.075111
C107	C	-1.478963	-0.000023	-0.546466
C108	C	-0.978963	0.499977	-0.046466
C109	C	-1.473047	-0.000011	0.230348
C110	C	-0.973047	0.499989	0.730348
C111	C	-1.475099	0.000000	0.307866
C112	C	-0.975099	0.500000	0.807866
H113	H	-1.638303	-0.330324	0.017411
H114	H	-1.138303	0.169676	0.517411
C115	C	-0.891526	-0.185663	0.041267
C116	C	-0.391526	0.314337	0.541267
C117	C	-0.845420	-0.144100	0.100712
C118	C	-0.345420	0.355900	0.600712
H119	H	-0.847084	-0.232239	0.040612
H120	H	-0.347084	0.267761	0.540612
H121	H	-0.879858	-0.157471	0.000318
H122	H	-0.379858	0.342529	0.500318
H123	H	-0.978903	-0.195477	0.042563
H124	H	-0.478903	0.304523	0.542563
H125	H	-0.758045	-0.134281	0.099413
H126	H	-0.258045	0.365719	0.599413
H127	H	-0.857077	-0.172298	0.141672
H128	H	-0.357077	0.327702	0.641672
H129	H	-1.638359	-0.669740	0.017419
H130	H	-1.138359	-0.169740	0.517419
C131	C	-1.226279	-0.387202	0.164042
C132	C	-0.726279	0.112798	0.664042
C133	C	-1.303091	-0.341613	0.201476
C134	C	-0.803091	0.158387	0.701476
H135	H	-1.168165	-0.414094	0.195962
H136	H	-0.668165	0.085906	0.695962
H137	H	-1.181268	-0.356302	0.134751
H138	H	-0.681268	0.143698	0.634751
H139	H	-1.277315	-0.422138	0.136036
H140	H	-0.777315	0.077862	0.636036
H141	H	-1.252056	-0.306673	0.229479
H142	H	-0.752056	0.193327	0.729479
H143	H	-1.348105	-0.372515	0.230779
H144	H	-0.848105	0.127485	0.730779
H145	H	-1.101722	-0.124529	0.104486
H146	H	-0.601722	0.375471	0.604486
H147	H	-1.267638	0.000010	-0.671275
H148	H	-0.767638	0.500010	-0.171275
H149	H	-1.682918	-0.000007	-0.699458
H150	H	-1.182918	0.499993	-0.199458
C151	C	-1.249197	0.129560	0.106670
C152	C	-0.749197	0.629560	0.606670
C153	C	-1.120403	0.144046	0.104778
C154	C	-0.620403	0.644046	0.604778
H155	H	-1.293640	0.176135	0.107323
H156	H	-0.793640	0.676135	0.607323
H157	H	-1.260856	0.101372	0.147623
H158	H	-0.760856	0.601372	0.647623
H159	H	-1.280444	0.101357	0.066338
H160	H	-0.780444	0.601357	0.566338
H161	H	-1.089154	0.172244	0.145112
H162	H	-0.589154	0.672244	0.645112
H163	H	-1.108736	0.172245	0.063821
H164	H	-0.608736	0.672245	0.563821
H165	H	-1.271138	-0.000004	-0.539138
H166	H	-0.771138	0.499996	-0.039138
C167	C	-1.739161	-0.064790	-0.073677
C168	C	-1.239161	0.435210	0.426323
C169	C	-1.731076	-0.000070	-0.115068
C170	C	-1.231076	0.499930	0.384932
H171	H	-1.817487	-0.064795	-0.054241
H172	H	-1.317487	0.435205	0.445759
H173	H	-1.671862	-0.064783	-0.036942
H174	H	-1.171862	0.435217	0.463058
H175	H	-1.733638	-0.108687	-0.101784
H176	H	-1.233638	0.391313	0.398216
H177	H	-1.736590	0.043827	-0.086960
H178	H	-1.236590	0.543827	0.413040
H179	H	-1.798394	-0.000071	-0.151808
H180	H	-1.298394	0.499929	0.348192
H181	H	-1.638360	-0.813506	0.017416
H182	H	-1.138360	-0.313506	0.517416
C183	C	-1.737870	-0.226784	-0.037275
C184	C	-1.237870	0.273216	0.462725
C185	C	-1.662685	-0.175266	0.004005
C186	C	-1.162685	0.324734	0.504005
H187	H	-1.795985	-0.199897	-0.069199
H188	H	-1.295985	0.300103	0.430801
H189	H	-1.782882	-0.257674	-0.007976
H190	H	-1.282882	0.242326	0.492024
H191	H	-1.685732	-0.257710	-0.062655
H192	H	-1.185732	0.242290	0.437345
H193	H	-1.714823	-0.144343	0.029389
H194	H	-1.214823	0.355657	0.529389
H195	H	-1.617671	-0.144363	-0.025297
H196	H	-1.117671	0.355637	0.474703
H197	H	-1.327457	-0.186552	0.188066
H198	H	-0.827457	0.313448	0.688066
C199	C	-1.322880	-0.805612	0.270274
C200	C	-0.822880	-0.305612	0.770274
C201	C	-1.303153	-0.824788	0.201489
C202	C	-0.803153	-0.324788	0.701489
H203	H	-1.264749	-0.832496	0.302191
H204	H	-0.764749	-0.332496	0.802191
H205	H	-1.406634	-0.818592	0.278287
H206	H	-0.906634	-0.318592	0.778287
H207	H	-1.310613	-0.752744	0.276995
H208	H	-0.810613	-0.252744	0.776995
H209	H	-1.315429	-0.877656	0.194767
H210	H	-0.815429	-0.377656	0.694767
H211	H	-1.219379	-0.811813	0.193474
H212	H	-0.719379	-0.311813	0.693474
H213	H	-1.694689	-0.000052	-0.255369
H214	H	-1.194689	0.499948	0.244631
C215	C	-1.268789	-0.000034	-0.308605
C216	C	-0.768789	0.499966	0.191395
C217	C	-1.246522	-0.000031	-0.235345
C218	C	-0.746522	0.499969	0.264655
H219	H	-1.190466	-0.000035	-0.328044
H220	H	-0.690466	0.499965	0.171956
H221	H	-1.315500	0.043864	-0.323721
H222	H	-0.815500	0.543864	0.176279
H223	H	-1.315486	-0.043942	-0.323734
H224	H	-0.815486	0.456058	0.176266
H225	H	-1.199833	0.043880	-0.220215
H226	H	-0.699833	0.543880	0.279785
H227	H	-1.199791	-0.043934	-0.220223
H228	H	-0.699791	0.456066	0.279777
C229	C	-1.369513	-0.612856	0.244661
C230	C	-0.869513	-0.112856	0.744661
C231	C	-1.303146	-0.658440	0.201488
C232	C	-0.803146	-0.158440	0.701488
H233	H	-1.311385	-0.585965	0.276579
H234	H	-0.811385	-0.085965	0.776579
H235	H	-1.421638	-0.643760	0.270043
H236	H	-0.921638	-0.143760	0.770043
H237	H	-1.420511	-0.577920	0.216641
H238	H	-0.920511	-0.077920	0.716641
H239	H	-1.252154	-0.693381	0.229508
H240	H	-0.752154	-0.193381	0.729508
H241	H	-1.250999	-0.627534	0.176105
H242	H	-0.750999	-0.127534	0.676105
C243	C	-1.148862	-0.000029	-0.122975
C244	C	-0.648862	0.499971	0.377025
C245	C	-1.250572	-0.000037	-0.082449
C246	C	-0.750572	0.499963	0.417551
H247	H	-1.071853	-0.000035	-0.092989
H248	H	-0.571853	0.499965	0.407011
H249	H	-1.152879	0.043875	-0.151692
H250	H	-0.652879	0.543875	0.348308
H251	H	-1.152865	-0.043931	-0.151722
H252	H	-0.652865	0.456069	0.348278
H253	H	-1.246573	0.043868	-0.053707
H254	H	-0.746573	0.543868	0.446293
H255	H	-1.246553	-0.043946	-0.053721
H256	H	-0.746553	0.456054	0.446279
C257	C	-1.818505	-0.000012	-0.613322
C258	C	-1.318505	0.499988	-0.113322
C259	C	-1.719307	-0.000022	-0.559157
C260	C	-1.219307	0.499978	-0.059157
H261	H	-1.896825	-0.000005	-0.593880
H262	H	-1.396825	0.499995	-0.093880
H263	H	-1.812991	-0.043911	-0.641415
H264	H	-1.312991	0.456089	-0.141415
H265	H	-1.812983	0.043896	-0.641397
H266	H	-1.312983	0.543896	-0.141397
H267	H	-1.724824	-0.043933	-0.531084
H268	H	-1.224824	0.456067	-0.031084
H269	H	-1.724824	0.043881	-0.531051
H270	H	-1.224824	0.543881	-0.031051
H271	H	-0.864121	0.124487	0.101008
H272	H	-0.364121	0.624487	0.601008
