data_functionalizedCrystal
_audit_creation_method	'MofGen! by Chris Wilmer'
_symmetry_space_group_name_H-M	'P1'
_symmetry_Int_Tables_number	1
_symmetry_cell_setting	triclinic
loop_
_symmetry_equiv_pos_as_xyz
  x,y,z
_cell_length_a	6.817900
_cell_length_b	7.190339
_cell_length_c	12.200875
_cell_angle_alpha	91.281281
_cell_angle_beta	72.856407
_cell_angle_gamma	119.388276
loop_
_atom_site_label
_atom_site_type_symbol
_atom_site_fract_x
_atom_site_fract_y
_atom_site_fract_z
V1	V	4.155505	0.295578	-0.356849
V2	V	4.655505	0.795578	0.143151
O3	O	4.050997	-0.013705	-0.350890
O4	O	4.550997	0.486295	0.149110
O5	O	4.192288	0.585602	-0.353606
O6	O	4.692288	1.085602	0.146394
O7	O	4.123952	0.291250	-0.512849
O8	O	4.623952	0.791250	-0.012849
O9	O	4.119806	0.282684	-0.190545
O10	O	4.619806	0.782684	0.309455
V11	V	4.625913	0.258558	-0.337055
V12	V	5.125913	0.758558	0.162945
O13	O	4.445534	0.376784	-0.400268
O14	O	4.945534	0.876784	0.099732
O15	O	4.786081	0.177353	-0.293636
O16	O	5.286081	0.677353	0.206364
O17	O	4.365923	-0.031466	-0.340298
O18	O	4.865923	0.468534	0.159702
O19	O	4.847818	0.567842	-0.343013
O20	O	5.347818	1.067842	0.156987
O21	O	4.779009	0.271452	-0.503359
O22	O	5.279009	0.771452	-0.003359
O23	O	4.434260	0.262886	-0.181055
O24	O	4.934260	0.762886	0.318945
C25	C	4.057484	0.656300	-0.347774
C26	C	4.557484	1.156300	0.152226
C27	C	4.171054	0.897857	-0.346135
C28	C	4.671054	1.397857	0.153865
C29	C	3.970295	0.280819	-0.550898
C30	C	4.470295	0.780819	-0.050898
C31	C	4.026344	0.279200	-0.678424
C32	C	4.526344	0.779200	-0.178424
C33	C	4.128921	0.276237	-0.911906
C34	C	4.628921	0.776237	-0.411906
C35	C	4.071831	0.277885	-0.781980
C36	C	4.571831	0.777885	-0.281980
C37	C	4.251260	0.273324	-0.142999
C38	C	4.751260	0.773324	0.357001
C39	C	4.174447	0.274933	-0.015473
C40	C	4.674447	0.774933	0.484527
