data_functionalizedCrystal
_audit_creation_method	'MofGen! by Chris Wilmer'
_symmetry_space_group_name_H-M	'P1'
_symmetry_Int_Tables_number	1
_symmetry_cell_setting	triclinic
loop_
_symmetry_equiv_pos_as_xyz
  x,y,z
_cell_length_a	15.944499
_cell_length_b	11.792241
_cell_length_c	10.868271
_cell_angle_alpha	89.994719
_cell_angle_beta	89.993092
_cell_angle_gamma	83.835512
loop_
_atom_site_label
_atom_site_type_symbol
_atom_site_fract_x
_atom_site_fract_y
_atom_site_fract_z
O1	O	1.115210	0.146101	-0.102397
O2	O	1.615210	0.646101	0.397603
O3	O	0.870736	0.164209	-0.102383
O4	O	1.370736	0.664209	0.397617
O5	O	0.998906	-0.010066	-0.102381
O6	O	1.498906	0.489934	0.397619
O7	O	0.987041	0.320376	-0.102398
O8	O	1.487041	0.820376	0.397602
O9	O	0.998895	-0.010073	0.102263
O10	O	1.498895	0.489927	0.602263
O11	O	0.870726	0.164202	0.102262
O12	O	1.370726	0.664202	0.602262
O13	O	1.115200	0.146094	0.102248
O14	O	1.615200	0.646094	0.602248
Zn15	Zn	0.992961	0.155147	0.134747
Zn16	Zn	1.492961	0.655147	0.634747
Zn17	Zn	0.992975	0.155156	-0.134881
Zn18	Zn	1.492975	0.655156	0.365119
O19	O	0.987030	0.320369	0.102247
O20	O	1.487030	0.820369	0.602247
C21	C	0.998155	-0.052354	-0.000059
C22	C	1.498155	0.447646	0.499941
C23	C	0.995924	-0.178349	-0.000061
C24	C	1.495924	0.321651	0.499939
C25	C	0.839433	0.163464	-0.000059
C26	C	1.339433	0.663464	0.499941
C27	C	0.746175	0.161242	-0.000053
C28	C	1.246175	0.661242	0.499947
C29	C	0.991822	-0.409026	-0.000081
C30	C	1.491822	0.090974	0.499919
C31	C	0.994102	-0.280660	-0.000070
C32	C	1.494102	0.219340	0.499930
C33	C	0.455096	0.262491	-0.000077
C34	C	0.955096	0.762491	0.499923
C35	C	0.515892	0.209862	-0.100977
C36	C	1.015892	0.709862	0.399023
C37	C	0.410502	0.153167	-0.000081
C38	C	0.910502	0.653167	0.499919
C39	C	0.515868	0.209826	0.100787
C40	C	1.015868	0.709826	0.600787
C41	C	0.575428	0.157140	-0.000066
C42	C	1.075428	0.657140	0.499934
C43	C	0.470070	0.100508	-0.101065
C44	C	0.970070	0.600508	0.398935
C45	C	0.470039	0.100487	0.100789
C46	C	0.970039	0.600487	0.600789
C47	C	0.530818	0.047779	-0.000135
C48	C	1.030818	0.547779	0.499865
C49	C	0.315491	0.150881	-0.000092
C50	C	0.815491	0.650881	0.499908
C51	C	0.670438	0.159417	-0.000064
C52	C	1.170438	0.659417	0.499936
C53	C	1.146503	0.146839	-0.000079
C54	C	1.646503	0.646839	0.499921
C55	C	1.239761	0.149062	-0.000092
C56	C	1.739761	0.649062	0.499908
C57	C	0.987781	0.362657	-0.000078
C58	C	1.487781	0.862657	0.499922
C59	C	0.990011	0.488652	-0.000085
C60	C	1.490011	0.988652	0.499915
N61	N	0.992958	0.155140	0.318761
N62	N	1.492958	0.655140	0.818761
N63	N	0.992985	0.155154	-0.318896
N64	N	1.492985	0.655154	0.181104
C65	C	0.992971	0.155154	0.569767
C66	C	1.492971	0.655154	1.069767
C67	C	0.992961	0.155150	0.430089
C68	C	1.492961	0.655150	0.930089
H69	H	0.536204	0.256109	-0.186279
H70	H	1.036204	0.756109	0.313721
H71	H	0.449887	0.054314	-0.186464
H72	H	0.949887	0.554314	0.313536
C73	C	0.575102	-0.074889	-0.000203
C74	C	1.075102	0.425111	0.499797
C75	C	0.560347	-0.156209	-0.107020
C76	C	1.060347	0.343791	0.392980
C77	C	0.604633	-0.278874	-0.107095
C78	C	1.104633	0.221126	0.392905
C79	C	0.663675	-0.320220	-0.000351
C80	C	1.163675	0.179780	0.499649
C81	C	0.678433	-0.238899	0.106474
C82	C	1.178433	0.261101	0.606474
C83	C	0.634147	-0.116234	0.106549
C84	C	1.134147	0.383766	0.606549
H85	H	0.516638	-0.125604	-0.186046
H86	H	1.016638	0.374396	0.313954
H87	H	0.593707	-0.339073	-0.186175
H88	H	1.093707	0.160927	0.313825
H89	H	0.696458	-0.411024	-0.000406
H90	H	1.196458	0.088976	0.499594
H91	H	0.722142	-0.269504	0.185499
H92	H	1.222142	0.230496	0.685499
H93	H	0.645072	-0.056035	0.185629
H94	H	1.145072	0.443965	0.685629
H95	H	0.449710	0.054282	0.186100
H96	H	0.949710	0.554282	0.686100
H97	H	0.536147	0.256082	0.186087
H98	H	1.036147	0.756082	0.686087
H99	H	0.422175	0.353219	-0.000179
H100	H	0.922175	0.853219	0.499821
