data_functionalizedCrystal
_audit_creation_method	'MofGen! by Chris Wilmer'
_symmetry_space_group_name_H-M	'P1'
_symmetry_Int_Tables_number	1
_symmetry_cell_setting	triclinic
loop_
_symmetry_equiv_pos_as_xyz
  x,y,z
_cell_length_a	18.101398
_cell_length_b	19.121063
_cell_length_c	18.101389
_cell_angle_alpha	92.419391
_cell_angle_beta	89.975673
_cell_angle_gamma	92.464489
loop_
_atom_site_label
_atom_site_type_symbol
_atom_site_fract_x
_atom_site_fract_y
_atom_site_fract_z
Zn1	Zn	1.119554	-0.279777	-0.431404
Zn2	Zn	1.452887	0.053556	-0.098071
Zn3	Zn	1.786221	0.386889	0.235263
Zn4	Zn	1.114175	-0.397213	-0.312837
Zn5	Zn	1.447508	-0.063880	0.020497
Zn6	Zn	1.780841	0.269454	0.353830
Zn7	Zn	0.995713	-0.279770	-0.307565
Zn8	Zn	1.329047	0.053563	0.025769
Zn9	Zn	1.662380	0.386897	0.359102
Zn10	Zn	0.990390	-0.397183	-0.436624
Zn11	Zn	1.323723	-0.063850	-0.103291
Zn12	Zn	1.657057	0.269484	0.230043
O13	O	1.054958	-0.338486	-0.372107
O14	O	1.388291	-0.005153	-0.038774
O15	O	1.721625	0.328181	0.294559
O16	O	1.222473	-0.295371	-0.415698
O17	O	1.555806	0.037962	-0.082364
O18	O	1.889139	0.371296	0.250969
O19	O	1.098437	-0.381644	-0.208505
O20	O	1.431771	-0.048310	0.124828
O21	O	1.765104	0.285023	0.458162
O22	O	1.016620	-0.181486	-0.319601
O23	O	1.349953	0.151847	0.013732
O24	O	1.683287	0.485181	0.347065
O25	O	1.218521	-0.381651	-0.328587
O26	O	1.551854	-0.048317	0.004747
O27	O	1.885187	0.285016	0.338080
O28	O	1.107605	-0.181491	-0.410586
O29	O	1.440938	0.151842	-0.077252
O30	O	1.774272	0.485175	0.256081
O31	O	1.011404	-0.295359	-0.204632
O32	O	1.344737	0.037975	0.128702
O33	O	1.678071	0.371308	0.462035
O34	O	0.891375	-0.295330	-0.324663
O35	O	1.224708	0.038004	0.008670
O36	O	1.558042	0.371337	0.342004
O37	O	1.007547	-0.381599	-0.539564
O38	O	1.340881	-0.048266	-0.206231
O39	O	1.674214	0.285067	0.127103
O40	O	0.887464	-0.381592	-0.419482
O41	O	1.220797	-0.048259	-0.086149
O42	O	1.554131	0.285074	0.247184
O43	O	1.102443	-0.295342	-0.535729
O44	O	1.435777	0.037991	-0.202396
O45	O	1.769110	0.371325	0.130938
O46	O	1.093276	-0.495494	-0.333648
O47	O	1.426609	-0.162161	-0.000315
O48	O	1.759942	0.171172	0.333019
O49	O	1.002331	-0.495472	-0.424594
O50	O	1.335665	-0.162139	-0.091261
O51	O	1.668998	0.171195	0.242073
C52	C	0.862549	-0.338457	-0.372067
C53	C	1.195882	-0.005124	-0.038734
C54	C	1.529215	0.328209	0.294599
C55	C	0.780234	-0.338462	-0.372069
C56	C	1.113568	-0.005129	-0.038735
C57	C	1.446901	0.328205	0.294598
C58	C	0.481141	-0.338506	-0.372133
C59	C	0.814475	-0.005173	-0.038800
C60	C	1.147808	0.328161	0.294534
C61	C	0.514915	-0.283961	-0.312742
C62	C	0.848248	0.049373	0.020591
C63	C	1.181581	0.382706	0.353924
C64	C	0.600526	-0.284107	-0.312506
C65	C	0.933860	0.049226	0.020828
C66	C	1.267193	0.382560	0.354161
C67	C	0.629525	-0.338484	-0.372101
C68	C	0.962858	-0.005150	-0.038768
C69	C	1.296192	0.328183	0.294566
C70	C	0.595084	-0.412466	-0.354099
C71	C	0.928417	-0.079133	-0.020766
C72	C	1.261750	0.254201	0.312568
C73	C	0.509452	-0.412163	-0.353690
C74	C	0.842786	-0.078830	-0.020356
C75	C	1.176119	0.254504	0.312977
C76	C	0.513600	-0.319712	-0.449688
C77	C	0.846934	0.013621	-0.116355
C78	C	1.180267	0.346954	0.216978
C79	C	0.599325	-0.318065	-0.449186
C80	C	0.932658	0.015269	-0.115853
C81	C	1.265992	0.348602	0.217480
C82	C	0.713385	-0.338476	-0.372084
C83	C	1.046718	-0.005142	-0.038751
C84	C	1.380052	0.328191	0.294582
C85	C	0.397281	-0.338519	-0.372148
C86	C	0.730615	-0.005186	-0.038814
C87	C	1.063948	0.328148	0.294519
C88	C	1.046662	-0.520967	-0.380276
C89	C	1.379996	-0.187634	-0.046942
C90	C	1.713329	0.145699	0.286391
C91	C	1.043181	-0.599034	-0.383795
C92	C	1.376514	-0.265700	-0.050462
C93	C	1.709848	0.067633	0.282872
C94	C	1.088932	-0.635698	-0.338137
C95	C	1.422265	-0.302364	-0.004804
C96	C	1.755599	0.030969	0.328530
C97	C	1.085662	-0.709049	-0.341451
C98	C	1.418996	-0.375716	-0.008118
C99	C	1.752329	-0.042382	0.325215
C100	C	1.036637	-0.745735	-0.390420
C101	C	1.369971	-0.412402	-0.057087
C102	C	1.703304	-0.079069	0.276246
C103	C	0.990884	-0.709066	-0.436083
C104	C	1.324218	-0.375733	-0.102750
C105	C	1.657551	-0.042400	0.230583
C106	C	0.994158	-0.635716	-0.432772
C107	C	1.327492	-0.302383	-0.099439
C108	C	1.660825	0.030951	0.233894
C109	C	1.024385	-0.967206	-0.402788
C110	C	1.357718	-0.633873	-0.069454
C111	C	1.691052	-0.300540	0.263879
C112	C	1.021113	-1.040562	-0.406094
C113	C	1.354446	-0.707228	-0.072760
C114	C	1.687779	-0.373895	0.260573
C115	C	1.115892	-1.040539	-0.311462
C116	C	1.449226	-0.707206	0.021871
C117	C	1.782559	-0.373873	0.355205
C118	C	1.119159	-0.967188	-0.308152
C119	C	1.452492	-0.633854	0.025181
C120	C	1.785825	-0.300521	0.358514
C121	C	1.073408	-0.930525	-0.353818
C122	C	1.406742	-0.597192	-0.020485
C123	C	1.740075	-0.263858	0.312849
C124	C	1.033292	-0.820713	-0.393807
C125	C	1.366626	-0.487379	-0.060474
C126	C	1.699959	-0.154046	0.272859
C127	C	1.076758	-0.855549	-0.350434
C128	C	1.410091	-0.522216	-0.017101
C129	C	1.743424	-0.188883	0.316233
C130	C	1.248119	-0.338515	-0.372148
C131	C	1.581452	-0.005182	-0.038815
C132	C	1.914785	0.328152	0.294519
C133	C	1.330432	-0.338528	-0.372165
C134	C	1.663765	-0.005194	-0.038832
C135	C	1.997099	0.328139	0.294502
C136	C	1.055002	-0.338468	-0.565269
C137	C	1.388335	-0.005135	-0.231935
C138	C	1.721668	0.328198	0.101398
C139	C	1.055020	-0.338461	-0.647582
C140	C	1.388353	-0.005127	-0.314249
C141	C	1.721687	0.328206	0.019084
C142	C	1.063306	-0.155292	-0.363923
C143	C	1.396640	0.178041	-0.030590
C144	C	1.729973	0.511375	0.302743
C145	C	1.066864	-0.077226	-0.360436
C146	C	1.400197	0.256108	-0.027102
C147	C	1.733531	0.589441	0.306231
C148	C	1.055069	-0.338329	-0.946668
C149	C	1.388403	-0.004996	-0.613334
C150	C	1.721736	0.328338	-0.280001
C151	C	0.995174	-0.392427	-0.917747
C152	C	1.328507	-0.059094	-0.584414
C153	C	1.661840	0.274239	-0.251081
C154	C	0.995318	-0.392678	-0.832140
C155	C	1.328651	-0.059345	-0.498807
C156	C	1.661984	0.273988	-0.165474
C157	C	1.055044	-0.338394	-0.798288
C158	C	1.388378	-0.005061	-0.464955
C159	C	1.721711	0.328272	-0.131621
C160	C	1.132167	-0.358491	-0.830296
C161	C	1.465500	-0.025158	-0.496963
C162	C	1.798834	0.308175	-0.163630
C163	C	1.131831	-0.358846	-0.915957
C164	C	1.465164	-0.025513	-0.582624
C165	C	1.798497	0.307820	-0.249290
C166	C	1.038526	-0.264013	-0.911754
C167	C	1.371859	0.069320	-0.578421
C168	C	1.705193	0.402653	-0.245088
C169	C	1.036771	-0.264443	-0.826122
C170	C	1.370104	0.068891	-0.492789
C171	C	1.703437	0.402224	-0.159456
C172	C	1.055035	-0.338430	-0.714430
C173	C	1.388368	-0.005097	-0.381097
C174	C	1.721702	0.328237	-0.047763
C175	C	1.055084	-0.338295	-1.030526
C176	C	1.388417	-0.004962	-0.697192
C177	C	1.721750	0.328372	-0.363859
C178	C	1.054959	-0.338453	-0.179695
C179	C	1.388293	-0.005120	0.153638
C180	C	1.721626	0.328214	0.486971
C181	C	1.055093	-0.338263	-0.097373
C182	C	1.388427	-0.004929	0.235960
C183	C	1.721760	0.328404	0.569294
H184	H	0.613574	-0.454195	-0.396148
H185	H	0.946907	-0.120861	-0.062815
H186	H	1.280241	0.212472	0.270518
H187	H	0.619076	-0.354899	-0.495539
H188	H	0.952409	-0.021565	-0.162206
H189	H	1.285742	0.311768	0.171127
N190	N	0.488205	-0.249495	-0.472238
N191	N	0.821539	0.083838	-0.138904
N192	N	1.154872	0.417171	0.194429
H193	H	0.432444	-0.250957	-0.475263
H194	H	0.765777	0.082376	-0.141930
H195	H	1.099110	0.415710	0.191404
H196	H	0.505528	-0.212034	-0.434398
H197	H	0.838862	0.121300	-0.101065
H198	H	1.172195	0.454633	0.232268
N199	N	0.490935	-0.211067	-0.326964
N200	N	0.824268	0.122267	0.006369
N201	N	1.157602	0.455600	0.339702
H202	H	0.457945	-0.212690	-0.372043
H203	H	0.791278	0.120643	-0.038710
H204	H	1.124611	0.453976	0.294624
H205	H	0.462898	-0.192314	-0.282670
H206	H	0.796231	0.141019	0.050663
H207	H	1.129565	0.474352	0.383996
H208	H	0.937700	-0.379979	-0.937774
H209	H	1.271033	-0.046646	-0.604441
H210	H	1.604366	0.286687	-0.271108
H211	H	0.950970	-0.738942	-0.475958
H212	H	1.284304	-0.405609	-0.142625
H213	H	1.617637	-0.072276	0.190708
N214	N	1.009140	-0.464955	-0.949489
N215	N	1.342473	-0.131622	-0.616156
N216	N	1.675807	0.201712	-0.282823
H217	H	1.054094	-0.462921	-0.982525
H218	H	1.387428	-0.129587	-0.649191
H219	H	1.720761	0.203746	-0.315858
H220	H	1.017915	-0.497182	-0.907878
H221	H	1.351249	-0.163849	-0.574544
H222	H	1.684582	0.169484	-0.241211
H223	H	0.622115	-0.263622	-0.462821
H224	H	0.955448	0.069711	-0.129487
H225	H	1.288781	0.403045	0.203846
N226	N	0.944816	-0.596168	-0.482020
N227	N	1.278149	-0.262834	-0.148686
N228	N	1.611482	0.070499	0.184647
H229	H	0.913260	-0.630537	-0.513544
H230	H	1.246594	-0.297204	-0.180210
H231	H	1.579927	0.036129	0.153123
H232	H	0.911918	-0.565772	-0.450470
H233	H	1.245251	-0.232438	-0.117136
H234	H	1.578585	0.100895	0.216197
N235	N	0.484410	-0.372335	-0.508254
N236	N	0.817743	-0.039001	-0.174921
N237	N	1.151077	0.294332	0.158413
H238	H	0.450328	-0.408177	-0.484706
H239	H	0.783661	-0.074844	-0.151372
H240	H	1.116994	0.258490	0.181961
H241	H	0.456287	-0.347388	-0.546692
H242	H	0.789620	-0.014054	-0.213359
H243	H	1.122954	0.319279	0.119974
N244	N	0.631665	-0.211436	-0.326939
N245	N	0.964998	0.121897	0.006394
N246	N	1.298332	0.455230	0.339727
H247	H	0.663355	-0.193558	-0.283677
H248	H	0.996689	0.139776	0.049656
H249	H	1.330022	0.473109	0.382989
H250	H	0.662691	-0.213096	-0.373315
H251	H	0.996025	0.120237	-0.039982
H252	H	1.329358	0.453570	0.293351
H253	H	0.980032	-0.249287	-0.805110
H254	H	1.313365	0.084046	-0.471777
H255	H	1.646698	0.417379	-0.138443
H256	H	1.005969	-0.447763	-0.814132
H257	H	1.339303	-0.114430	-0.480799
H258	H	1.672636	0.218904	-0.147465
N259	N	0.481992	-0.433263	-0.278717
N260	N	0.815325	-0.099929	0.054617
N261	N	1.148658	0.233404	0.387950
H262	H	0.426204	-0.433275	-0.277699
H263	H	0.759537	-0.099941	0.055634
H264	H	1.092870	0.233392	0.388967
H265	H	0.498638	-0.481749	-0.268882
H266	H	0.831971	-0.148416	0.064452
H267	H	1.165305	0.184918	0.397785
H268	H	0.987132	-0.937361	-0.439969
H269	H	1.320465	-0.604028	-0.106636
H270	H	1.653798	-0.270695	0.226697
H271	H	1.128850	-0.605832	-0.298258
H272	H	1.462184	-0.272499	0.035075
H273	H	1.795517	0.060834	0.368409
N274	N	0.485382	-0.300031	-0.237015
N275	N	0.818716	0.033303	0.096319
N276	N	1.152049	0.366636	0.429652
H277	H	0.450251	-0.342512	-0.241007
H278	H	0.783585	-0.009179	0.092326
H279	H	1.116918	0.324154	0.425660
H280	H	0.527792	-0.309688	-0.203209
H281	H	0.861125	0.023645	0.130124
H282	H	1.194459	0.356978	0.463458
N283	N	1.135008	-0.748595	-0.292206
N284	N	1.468341	-0.415261	0.041127
N285	N	1.801674	-0.081928	0.374461
H286	H	1.166558	-0.714224	-0.260678
H287	H	1.499891	-0.380891	0.072655
H288	H	1.833224	-0.047557	0.405988
H289	H	1.103521	-0.779068	-0.259282
H290	H	1.436854	-0.445734	0.074051
H291	H	1.770187	-0.112401	0.407385
N292	N	0.626880	-0.300561	-0.236293
N293	N	0.960214	0.032772	0.097040
N294	N	1.293547	0.366105	0.430374
H295	H	0.605857	-0.348137	-0.222882
H296	H	0.939191	-0.014804	0.110452
H297	H	1.272524	0.318530	0.443785
H298	H	0.682667	-0.300684	-0.235869
H299	H	1.016001	0.032649	0.097464
H300	H	1.349334	0.365983	0.430797
H301	H	1.077478	-0.221996	-0.802832
H302	H	1.410812	0.111337	-0.469499
H303	H	1.744145	0.444670	-0.136165
H304	H	0.993375	-0.850591	-0.433677
H305	H	1.326708	-0.517257	-0.100343
H306	H	1.660041	-0.183924	0.232990
H307	H	1.177791	-0.321154	-0.935005
H308	H	1.511125	0.012179	-0.601671
H309	H	1.844458	0.345512	-0.268338
N310	N	1.192680	-0.307936	-0.801091
N311	N	1.526013	0.025397	-0.467757
N312	N	1.859346	0.358731	-0.134424
H313	H	1.170630	-0.271433	-0.766745
H314	H	1.503963	0.061900	-0.433412
H315	H	1.837296	0.395233	-0.100079
H316	H	1.230141	-0.334348	-0.773254
H317	H	1.563475	-0.001015	-0.439920
H318	H	1.896808	0.332318	-0.106587
H319	H	0.486843	-0.454179	-0.395241
H320	H	0.820176	-0.120846	-0.061908
H321	H	1.153510	0.212488	0.271425
H322	H	1.159079	-0.937319	-0.268278
H323	H	1.492412	-0.603986	0.065055
H324	H	1.825745	-0.270653	0.398389
H325	H	0.615770	-0.428682	-0.298133
H326	H	0.949103	-0.095349	0.035201
H327	H	1.282437	0.237984	0.368534
N328	N	1.151688	-0.429685	-0.805095
N329	N	1.485022	-0.096352	-0.471761
N330	N	1.818355	0.236981	-0.138428
H331	H	1.110690	-0.449022	-0.772957
H332	H	1.444023	-0.115688	-0.439623
H333	H	1.777356	0.217645	-0.106290
H334	H	1.158196	-0.462415	-0.849664
H335	H	1.491530	-0.129081	-0.516330
H336	H	1.824863	0.204252	-0.182997
H337	H	1.116677	-0.825677	-0.310566
H338	H	1.450010	-0.492344	0.022767
H339	H	1.783343	-0.159011	0.356100
H340	H	0.938024	-0.380101	-0.810543
H341	H	1.271357	-0.046768	-0.477210
H342	H	1.604690	0.286565	-0.143876
N343	N	1.165231	-1.080082	-0.262208
N344	N	1.498565	-0.746748	0.071126
N345	N	1.831898	-0.413415	0.404459
H346	H	1.155720	-1.132116	-0.271732
H347	H	1.489053	-0.798782	0.061601
H348	H	1.822386	-0.465449	0.394934
H349	H	1.218690	-1.067219	-0.273204
H350	H	1.552024	-0.733886	0.060129
H351	H	1.885357	-0.400552	0.393463
H352	H	1.082192	-0.223708	-0.930220
H353	H	1.415525	0.109626	-0.596887
H354	H	1.748858	0.442959	-0.263553
H355	H	0.983441	-0.245705	-0.932518
H356	H	1.316775	0.087629	-0.599185
H357	H	1.650108	0.420962	-0.265851
N358	N	1.150917	-0.430804	-0.945672
N359	N	1.484251	-0.097470	-0.612339
N360	N	1.817584	0.235863	-0.279006
H361	H	1.201553	-0.442162	-0.927403
H362	H	1.534886	-0.108829	-0.594069
H363	H	1.868220	0.224505	-0.260736
H364	H	1.113054	-0.466663	-0.928010
H365	H	1.446387	-0.133329	-0.594676
H366	H	1.779720	0.200004	-0.261343
H367	H	0.981200	-1.070430	-0.445983
H368	H	1.314533	-0.737096	-0.112650
H369	H	1.647866	-0.403763	0.220684
