data_functionalizedCrystal
_audit_creation_method	'MofGen! by Chris Wilmer'
_symmetry_space_group_name_H-M	'P1'
_symmetry_Int_Tables_number	1
_symmetry_cell_setting	triclinic
loop_
_symmetry_equiv_pos_as_xyz
  x,y,z
_cell_length_a	10.654554
_cell_length_b	15.625429
_cell_length_c	9.130313
_cell_angle_alpha	71.921598
_cell_angle_beta	89.999615
_cell_angle_gamma	84.353173
loop_
_atom_site_label
_atom_site_type_symbol
_atom_site_fract_x
_atom_site_fract_y
_atom_site_fract_z
O1	O	1.666509	0.126638	-0.189054
O2	O	1.300906	0.138697	-0.195460
O3	O	1.493479	0.001494	-0.122589
O4	O	1.473936	0.263841	-0.261924
O5	O	1.493477	0.001497	0.121008
O6	O	1.300904	0.138701	0.048137
O7	O	1.666507	0.126641	0.054543
Cu8	Cu	1.483705	0.132671	0.073583
Cu9	Cu	1.483708	0.132667	-0.214499
O10	O	1.473934	0.263845	-0.018327
C11	C	1.254116	0.137813	-0.073191
C12	C	1.114701	0.135161	-0.071783
C13	C	0.903375	0.213456	-0.113369
C14	C	1.034371	0.215948	-0.114693
C15	C	1.064030	0.051876	-0.027561
C16	C	0.933036	0.049385	-0.026248
C17	C	0.886253	0.308181	-0.163668
C18	C	1.017249	0.310673	-0.164992
C19	C	1.492595	-0.032097	0.017048
C20	C	1.489947	-0.132192	0.070200
C21	C	1.481210	-0.461403	-0.418859
C22	C	1.478717	-0.555457	-0.368869
C23	C	1.478715	-0.555440	-0.103317
C24	C	1.481214	-0.461384	-0.153284
C25	C	1.482461	-0.414373	-0.311057
C26	C	1.482465	-0.414354	-0.045482
C27	C	1.484957	-0.320306	-0.095446
C28	C	1.486200	-0.273289	-0.253213
C29	C	1.484953	-0.320326	-0.361021
C30	C	1.481209	-0.461366	0.112290
C31	C	1.482460	-0.414336	0.220092
C32	C	1.484961	-0.320287	0.170128
C33	C	1.486204	-0.273270	0.012362
C34	C	1.486208	-0.273251	0.277937
C35	C	1.488701	-0.179203	0.227973
C36	C	1.488697	-0.179222	-0.037602
C37	C	1.713297	0.127526	-0.067729
C38	C	1.852712	0.130177	-0.069146
C39	C	1.474818	0.297435	-0.157967
C40	C	1.477466	0.397530	-0.211129
N41	N	1.483712	0.132674	0.276204
N42	N	1.483711	0.132657	-0.417117
C43	C	1.569005	0.071941	0.385112
C44	C	1.569002	0.071930	0.538454
C45	C	1.398408	0.193393	0.473963
C46	C	1.398407	0.193399	0.320626
C47	C	1.667500	0.001818	0.422345
C48	C	1.667497	0.001807	0.575688
H49	H	0.840303	0.336802	-0.073692
Cl50	Cl	1.165016	-0.049685	0.026367
Cl51	Cl	1.291172	0.269729	0.529820
Cl52	Cl	1.621432	-0.099284	0.702800
H53	H	1.489692	-0.140908	0.315755
Cl54	Cl	1.480882	-0.473443	0.418427
Cl55	Cl	1.490283	-0.120117	-0.235948
H56	H	1.646780	-0.067475	0.417527
H57	H	1.328944	0.242844	0.231956
Cl58	Cl	1.807917	0.035731	0.330896
Cl59	Cl	1.071791	0.357245	-0.352112
Cl60	Cl	1.816251	0.025649	0.627290
Cl61	Cl	1.484616	-0.332359	0.476271
Cl62	Cl	1.477137	-0.614547	0.095019
H63	H	0.891793	-0.018428	0.009743
Cl64	Cl	1.489339	-0.155056	-0.316029
Cl65	Cl	0.821219	0.363287	-0.350322
H66	H	1.477687	-0.593745	-0.456667
H67	H	1.479166	-0.537945	0.152965
Cl68	Cl	1.486539	-0.261221	-0.559367
Cl69	Cl	1.482796	-0.402298	-0.617205
Cl70	Cl	1.061990	0.367864	-0.037972
