data_functionalizedCrystal
_audit_creation_method	'MofGen! by Chris Wilmer'
_symmetry_space_group_name_H-M	'P1'
_symmetry_Int_Tables_number	1
_symmetry_cell_setting	triclinic
loop_
_symmetry_equiv_pos_as_xyz
  x,y,z
_cell_length_a	10.540539
_cell_length_b	9.130307
_cell_length_c	10.540510
_cell_angle_alpha	90.000835
_cell_angle_beta	95.480599
_cell_angle_gamma	90.000534
loop_
_atom_site_label
_atom_site_type_symbol
_atom_site_fract_x
_atom_site_fract_y
_atom_site_fract_z
O1	O	1.685863	-0.121722	-0.178901
O2	O	1.316448	-0.121739	-0.195757
O3	O	1.509603	-0.121729	-0.002620
O4	O	1.492708	-0.121731	-0.372038
O5	O	1.509597	0.121870	-0.002618
O6	O	1.316442	0.121860	-0.195755
O7	O	1.685857	0.121877	-0.178899
Cu8	Cu	1.501149	0.144111	-0.187327
Cu9	Cu	1.501156	-0.143973	-0.187329
O10	O	1.492701	0.121868	-0.372036
C11	C	1.269142	0.000058	-0.194492
C12	C	1.128194	0.000051	-0.190710
N13	N	1.501153	0.346734	-0.187324
N14	N	1.501162	-0.346596	-0.187321
C15	C	0.944783	0.000621	-0.045791
C16	C	1.091401	0.000057	-0.049624
C17	C	1.066518	-0.139050	-0.258607
C18	C	0.919974	-0.139152	-0.253792
C19	C	0.919478	0.137866	-0.256660
C20	C	1.066460	0.139689	-0.257959
C21	C	1.733163	0.000077	-0.180164
C22	C	1.874110	0.000074	-0.183946
C23	C	1.508341	0.000067	0.044685
C24	C	1.504574	0.000058	0.185635
C25	C	1.672262	0.346733	-0.016352
C26	C	1.757825	0.423399	0.069131
C27	C	1.757838	0.576732	0.069132
C28	C	1.672275	0.653403	-0.016357
C29	C	1.586712	0.576737	-0.101839
C30	C	1.586712	0.423400	-0.101834
C31	C	1.415599	0.576739	-0.272804
C32	C	1.415590	0.423405	-0.272813
C33	C	1.330037	0.653410	-0.358292
C34	C	1.244478	0.576743	-0.443783
C35	C	1.244470	0.423401	-0.443781
C36	C	1.330027	0.346739	-0.358295
C37	C	1.493964	0.000068	-0.419340
C38	C	1.497731	0.000068	-0.560290
C39	C	1.638758	0.000622	0.403090
C40	C	1.642776	0.000066	0.256495
C41	C	1.433832	-0.139049	0.230392
C42	C	1.430792	-0.139158	0.377153
C43	C	1.427907	0.137859	0.376964
C44	C	1.434462	0.139691	0.230623
H45	H	1.134018	0.099771	0.003800
C46	C	1.672264	0.178062	-0.016353
N47	N	1.672267	0.051016	-0.016350
C48	C	1.500216	-0.278901	0.188720
N49	N	1.550225	-0.384235	0.157337
H50	H	1.174789	0.360987	-0.513387
C51	C	1.330037	0.822081	-0.358273
N52	N	1.330034	0.949126	-0.358258
C53	C	1.150360	0.661091	-0.537800
N54	N	1.079468	0.724627	-0.608614
C55	C	0.881873	-0.279615	-0.185987
N56	N	0.853182	-0.385413	-0.134909
H57	H	0.887934	0.243304	-0.211000
H58	H	1.330033	0.221887	-0.358291
H59	H	1.827487	0.360960	0.138737
H60	H	1.827506	0.639154	0.138743
H61	H	0.871994	-0.145466	-0.355258
H62	H	1.088860	-0.144227	-0.362216
C63	C	1.717555	0.134778	0.216850
N64	N	1.773886	0.236244	0.186997
H65	H	1.471823	0.243303	0.419147
H66	H	1.485937	0.242601	0.202012
C67	C	1.711501	0.135391	0.459779
N68	N	1.766292	0.236902	0.502486
H69	H	1.672281	0.778255	-0.016340
H70	H	1.692293	-0.098569	0.446595
C71	C	1.717990	-0.134879	0.218113
N72	N	1.774640	-0.236528	0.189205
H73	H	1.479143	-0.243138	0.417368
C74	C	1.121753	0.278714	-0.190912
N75	N	1.163397	0.383426	-0.140400
C76	C	1.298148	0.151031	0.164342
N77	N	1.195469	0.159560	0.114421
H78	H	1.327425	-0.145465	0.400148
C79	C	1.287734	0.139135	0.406908
N80	N	1.182162	0.140089	0.429474
C81	C	1.147813	-0.134891	0.023050
N82	N	1.190302	-0.236540	0.077790
H83	H	0.916201	0.100379	0.009947
C84	C	1.099193	0.151054	-0.396914
N85	N	1.123856	0.159610	-0.501576
H86	H	1.109114	-0.242573	-0.211443
H87	H	1.332090	-0.144227	0.183003
H88	H	0.914584	-0.098581	0.009709
H89	H	0.872240	0.138805	-0.358565
