data_functionalizedCrystal
_audit_creation_method	'MofGen! by Chris Wilmer'
_symmetry_space_group_name_H-M	'P1'
_symmetry_Int_Tables_number	1
_symmetry_cell_setting	triclinic
loop_
_symmetry_equiv_pos_as_xyz
  x,y,z
_cell_length_a	10.723024
_cell_length_b	6.394989
_cell_length_c	9.198806
_cell_angle_alpha	90.000201
_cell_angle_beta	89.996352
_cell_angle_gamma	94.517210
loop_
_atom_site_label
_atom_site_type_symbol
_atom_site_fract_x
_atom_site_fract_y
_atom_site_fract_z
O1	O	1.660298	-0.293022	-0.120873
O2	O	1.297443	-0.321070	-0.120877
O3	O	1.484021	-0.003055	-0.120876
O4	O	1.473720	-0.611036	-0.120874
O5	O	1.484006	-0.003054	0.120909
O6	O	1.297428	-0.321069	0.120908
O7	O	1.660282	-0.293021	0.120912
Cu8	Cu	1.478854	-0.307045	0.142987
Cu9	Cu	1.478872	-0.307046	-0.142952
O10	O	1.473705	-0.611035	0.120911
C11	C	1.250914	-0.319028	0.000015
C12	C	1.112295	-0.312921	0.000013
C13	C	1.039201	-0.490865	0.000013
C14	C	0.895931	-0.484558	0.000011
C15	C	1.706811	-0.295062	0.000017
C16	C	1.845430	-0.301169	0.000010
C17	C	1.481977	0.074796	0.000011
C18	C	1.475752	0.311120	0.000010
N19	N	1.478850	-0.307043	0.344101
N20	N	1.478885	-0.307031	-0.344066
C21	C	1.557183	-0.172929	0.416299
C22	C	1.557202	-0.172922	0.583711
H23	H	1.068806	-0.155907	-0.000025
H24	H	1.624228	-0.058105	0.354173
O25	O	0.920300	-0.119359	-0.000249
C26	C	0.980655	0.203830	-0.125469
C27	C	0.895803	-0.002008	-0.125373
H28	H	0.960862	0.298787	-0.226605
H29	H	1.082874	0.166486	-0.125563
H30	H	0.960986	0.298673	-0.024236
H31	H	0.915362	-0.096952	-0.226588
H32	H	0.793611	0.035483	-0.125203
H33	H	1.411796	-0.421850	0.406229
O34	O	1.637152	-0.035644	0.657611
C35	C	1.703899	0.326697	0.704520
C36	C	1.613301	0.171455	0.620708
H37	H	1.684629	0.494171	0.674738
H38	H	1.804405	0.298644	0.674631
H39	H	1.689676	0.302187	0.826333
H40	H	1.627410	0.195873	0.498875
H41	H	1.512827	0.199547	0.650717
O42	O	1.091131	-0.678139	-0.000239
C43	C	1.224654	-0.904919	-0.125441
C44	C	1.165907	-0.692777	-0.125357
H45	H	1.285145	-0.916805	-0.226573
H46	H	1.147391	-1.038007	-0.125535
H47	H	1.284990	-0.916939	-0.024205
H48	H	1.105582	-0.680553	-0.226577
H49	H	1.243231	-0.559792	-0.125188
H50	H	1.411822	-0.421866	0.593857
H51	H	0.833115	-0.636892	0.000005
