data_functionalizedCrystal
_audit_creation_method	'MofGen! by Chris Wilmer'
_symmetry_space_group_name_H-M	'P1'
_symmetry_Int_Tables_number	1
_symmetry_cell_setting	triclinic
loop_
_symmetry_equiv_pos_as_xyz
  x,y,z
_cell_length_a	15.995300
_cell_length_b	15.995350
_cell_length_c	16.176319
_cell_angle_alpha	89.995430
_cell_angle_beta	89.990998
_cell_angle_gamma	83.482091
loop_
_atom_site_label
_atom_site_type_symbol
_atom_site_fract_x
_atom_site_fract_y
_atom_site_fract_z
O1	O	1.111015	0.107728	-0.068773
O2	O	0.867234	0.121100	-0.068767
O3	O	0.995789	-0.007475	-0.068769
O4	O	0.982461	0.236303	-0.068771
O5	O	0.995771	-0.007483	0.068724
O6	O	0.867216	0.121091	0.068726
O7	O	1.110997	0.107720	0.068720
Cu8	Cu	0.989105	0.114405	0.081277
Cu9	Cu	0.989126	0.114415	-0.081324
O10	O	0.982443	0.236294	0.068723
C11	C	0.836030	0.120550	-0.000020
C12	C	0.743077	0.118915	-0.000018
C13	C	0.572894	0.115896	-0.000024
C14	C	0.525428	0.207443	-0.000023
C15	C	0.428740	0.205773	-0.000337
C16	C	0.405337	0.112924	-0.000030
C17	C	0.446480	0.067508	-0.078390
C18	C	0.543114	0.069825	-0.078454
C19	C	0.543373	0.068460	0.077907
C20	C	0.446428	0.068468	0.078935
C21	C	0.310642	0.111239	-0.000035
C22	C	0.667590	0.117577	-0.000024
C23	C	0.995229	-0.038674	-0.000024
C24	C	0.993577	-0.131624	-0.000029
C25	C	0.987644	-0.469370	-0.000026
C26	C	0.896090	-0.421920	-0.000332
C27	C	0.897743	-0.325230	-0.000022
C28	C	0.990587	-0.301810	-0.000028
C29	C	1.035735	-0.342901	0.078485
C30	C	1.033435	-0.439536	0.078551
C31	C	1.035346	-0.439885	-0.077805
C32	C	1.035325	-0.342940	-0.078842
C33	C	0.992255	-0.207113	-0.000026
C34	C	0.985979	-0.564068	-0.000022
C35	C	1.142202	0.108269	-0.000029
C36	C	1.235154	0.109904	-0.000036
C37	C	0.983003	0.267493	-0.000024
C38	C	0.984655	0.360443	-0.000025
N39	N	0.989097	0.114397	0.195643
N40	N	0.989141	0.114415	-0.195689
C41	C	1.046038	0.057488	0.238906
C42	C	1.046042	0.057487	0.325453
C43	C	0.989109	0.114400	0.368735
C44	C	0.932161	0.171313	0.325466
C45	C	0.932154	0.171309	0.238920
C46	C	0.932190	0.171328	0.674494
C47	C	0.932204	0.171329	0.761046
C48	C	1.046078	0.057507	0.761027
C49	C	1.046071	0.057503	0.674481
C50	C	0.989121	0.114412	0.631220
C51	C	0.989116	0.114411	0.537375
C52	C	0.989117	0.114406	0.462578
H53	H	0.575153	0.000963	0.078661
C54	C	0.427429	-0.024658	-0.082035
N55	N	0.413077	-0.094077	-0.084779
C56	C	0.391126	0.253777	-0.076671
N57	N	0.362797	0.289932	-0.134172
C58	C	1.126797	-0.322210	-0.085250
N59	N	1.195699	-0.306599	-0.090068
H60	H	0.418102	0.098651	-0.136925
H61	H	0.575387	0.002601	-0.081801
H62	H	0.431089	0.000774	0.083899
H63	H	0.885786	0.217649	0.203696
H64	H	1.002316	-0.315682	-0.136924
C65	C	1.127878	-0.323818	0.082438
N66	N	1.197279	-0.309438	0.085417
H67	H	0.885801	0.217650	0.360711
C68	C	1.108718	-0.005102	0.808622
N69	N	1.155897	-0.052258	0.844470
C70	C	0.409477	0.113266	0.157255
N71	N	0.381638	0.147007	0.216244
H72	H	0.543912	0.244231	0.056161
C73	C	0.849791	-0.286817	-0.076052
N74	N	0.813667	-0.257887	-0.133317
C75	C	0.869564	0.233936	0.808655
N76	N	0.822386	0.281088	0.844514
H77	H	0.563865	0.098597	0.137319
H78	H	0.545044	0.243689	-0.056132
C79	C	0.567875	0.114045	-0.157890
N80	N	0.586521	0.147351	-0.217725
C81	C	0.390272	0.254014	0.075513
N82	N	0.361300	0.290365	0.132637
H83	H	0.859652	-0.441511	0.055659
C84	C	0.846657	-0.446950	-0.076389
N85	N	0.809422	-0.465812	-0.133676
H86	H	0.862000	-0.297362	0.056356
C87	C	1.126537	-0.482814	-0.078527
N88	N	1.195218	-0.515153	-0.079066
C89	C	0.988929	-0.464258	0.157838
N90	N	0.955403	-0.482874	0.217557
H91	H	1.005420	-0.460416	-0.137313
H92	H	1.100652	-0.471796	0.082109
C93	C	1.108670	-0.005123	0.191303
N94	N	1.155844	-0.052286	0.155452
C95	C	0.993349	-0.304563	0.157423
N96	N	0.961418	-0.275689	0.216878
C97	C	1.108662	-0.005138	0.373039
N98	N	1.155822	-0.052318	0.408880
H99	H	1.092434	0.011162	0.639244
H100	H	0.885821	0.217667	0.639277
