data_functionalizedCrystal
_audit_creation_method	'MofGen! by Chris Wilmer'
_symmetry_space_group_name_H-M	'P1'
_symmetry_Int_Tables_number	1
_symmetry_cell_setting	triclinic
loop_
_symmetry_equiv_pos_as_xyz
  x,y,z
_cell_length_a	11.792241
_cell_length_b	10.268362
_cell_length_c	14.971486
_cell_angle_alpha	90.001555
_cell_angle_beta	83.903772
_cell_angle_gamma	90.000426
loop_
_atom_site_label
_atom_site_type_symbol
_atom_site_fract_x
_atom_site_fract_y
_atom_site_fract_z
O1	O	1.506119	0.108175	0.122593
O2	O	1.839452	0.441508	0.455926
O3	O	2.172785	0.774841	0.789259
O4	O	1.175696	0.108205	0.135228
O5	O	1.509029	0.441538	0.468561
O6	O	1.842363	0.774872	0.801894
O7	O	1.349764	0.108180	-0.001255
O8	O	1.683097	0.441513	0.332079
O9	O	2.016430	0.774846	0.665412
O10	O	1.332051	0.108200	0.259075
O11	O	1.665385	0.441533	0.592408
O12	O	1.998718	0.774866	0.925741
O13	O	1.349747	-0.108421	-0.001250
O14	O	1.683080	0.224912	0.332083
O15	O	2.016414	0.558246	0.665417
O16	O	1.175679	-0.108396	0.135232
O17	O	1.509013	0.224938	0.468565
O18	O	1.842346	0.558271	0.801899
O19	O	1.506102	-0.108426	0.122597
O20	O	1.839435	0.224907	0.455931
O21	O	2.172769	0.558241	0.789264
Cu22	Cu	1.340889	-0.128188	0.128915
Cu23	Cu	1.674222	0.205145	0.462248
Cu24	Cu	2.007556	0.538478	0.795582
Cu25	Cu	1.340909	0.127967	0.128910
Cu26	Cu	1.674242	0.461300	0.462243
Cu27	Cu	2.007576	0.794634	0.795576
O28	O	1.332034	-0.108401	0.259079
O29	O	1.665368	0.224933	0.592413
O30	O	1.998701	0.558266	0.925746
C31	C	1.133402	-0.000092	0.134436
C32	C	1.466735	0.333242	0.467770
C33	C	1.800069	0.666575	0.801103
C34	C	1.007404	-0.000080	0.132061
C35	C	1.340737	0.333253	0.465394
C36	C	1.674070	0.666586	0.798727
N37	N	1.340884	-0.308354	0.128918
N38	N	1.674217	0.024979	0.462252
N39	N	2.007550	0.358313	0.795585
C40	C	1.340892	-0.426196	0.128919
C41	C	1.674225	-0.092863	0.462252
C42	C	2.007558	0.240470	0.795586
C43	C	1.340906	-0.574034	0.128911
C44	C	1.674239	-0.240701	0.462244
C45	C	2.007573	0.092632	0.795578
C46	C	0.776720	-0.000118	0.127692
C47	C	1.110053	0.333215	0.461026
C48	C	1.443386	0.666549	0.794359
C49	C	0.905089	-0.000097	0.130120
C50	C	1.238422	0.333236	0.463453
C51	C	1.571756	0.666569	0.796786
C52	C	1.548396	-0.000127	0.123389
C53	C	1.881729	0.333207	0.456722
C54	C	2.215063	0.666540	0.790055
C55	C	1.674395	-0.000130	0.125764
C56	C	2.007728	0.333204	0.459097
C57	C	2.341061	0.666537	0.792431
C58	C	1.348963	-0.000120	-0.034580
C59	C	1.682296	0.333213	0.298753
C60	C	2.015630	0.666546	0.632087
C61	C	1.346589	-0.000119	-0.133887
C62	C	1.679923	0.333214	0.199447
C63	C	2.013256	0.666548	0.532780
N64	N	1.340923	0.308133	0.128899
N65	N	1.674257	0.641466	0.462233
N66	N	2.007590	0.974800	0.795566
C67	C	1.448849	-0.000129	-0.190702
C68	C	1.782183	0.333204	0.142631
C69	C	2.115516	0.666537	0.475964
C70	C	1.446612	-0.000116	-0.284011
C71	C	1.779945	0.333217	0.049323
C72	C	2.113279	0.666551	0.382656
C73	C	1.342114	-0.000102	-0.320502
C74	C	1.675447	0.333232	0.012832
C75	C	2.008780	0.666565	0.346165
C76	C	1.239846	-0.000087	-0.263679
C77	C	1.573179	0.333246	0.069655
C78	C	1.906513	0.666579	0.402988
C79	C	1.242084	-0.000091	-0.170372
C80	C	1.575418	0.333242	0.162961
C81	C	1.908751	0.666575	0.496294
C82	C	1.235188	-0.000082	-0.458160
C83	C	1.568521	0.333251	-0.124827
C84	C	1.901854	0.666585	0.208507
C85	C	1.232949	-0.000081	-0.551473
C86	C	1.566282	0.333253	-0.218140
C87	C	1.899615	0.666586	0.115194
C88	C	1.439715	-0.000107	-0.571798
C89	C	1.773049	0.333227	-0.238465
C90	C	2.106382	0.666560	0.094868
C91	C	1.441954	-0.000111	-0.478492
C92	C	1.775287	0.333223	-0.145159
C93	C	2.108620	0.666556	0.188175
C94	C	1.339685	-0.000099	-0.421675
C95	C	1.673019	0.333234	-0.088342
C96	C	2.006352	0.666568	0.244991
C97	C	1.332835	-0.000098	0.292405
C98	C	1.666168	0.333235	0.625738
C99	C	1.999502	0.666569	0.959072
C100	C	1.335209	-0.000091	0.391711
C101	C	1.668542	0.333242	0.725045
C102	C	2.001875	0.666576	1.058378
H103	H	1.533944	-0.000149	-0.160999
H104	H	1.867277	0.333184	0.172334
H105	H	2.200610	0.666518	0.505667
Br106	Br	1.091128	-0.000067	-0.600997
Br107	Br	1.424462	0.333266	-0.267663
Br108	Br	1.757795	0.666600	0.065670
H109	H	1.154761	-0.000067	-0.293397
H110	H	1.488095	0.333266	0.039936
H111	H	1.821428	0.666599	0.373270
Br112	Br	1.096394	-0.000061	-0.381052
Br113	Br	1.429727	0.333272	-0.047719
Br114	Br	1.763060	0.666605	0.285615
H115	H	1.158814	-0.000083	-0.124113
H116	H	1.492147	0.333251	0.209220
H117	H	1.825480	0.666584	0.542554
H118	H	1.529883	-0.000127	-0.330267
H119	H	1.863216	0.333206	0.003066
H120	H	2.196549	0.666540	0.336400
Br121	Br	1.583774	-0.000127	-0.428968
Br122	Br	1.917108	0.333206	-0.095635
Br123	Br	2.250441	0.666540	0.237698
Br124	Br	1.578509	-0.000120	-0.648905
Br125	Br	1.911842	0.333213	-0.315572
Br126	Br	2.245175	0.666546	0.017762
