data_functionalizedCrystal
_audit_creation_method	'MofGen! by Chris Wilmer'
_symmetry_space_group_name_H-M	'P1'
_symmetry_Int_Tables_number	1
_symmetry_cell_setting	triclinic
loop_
_symmetry_equiv_pos_as_xyz
  x,y,z
_cell_length_a	15.995350
_cell_length_b	9.065218
_cell_length_c	8.140239
_cell_angle_alpha	89.997198
_cell_angle_beta	90.001286
_cell_angle_gamma	95.745870
loop_
_atom_site_label
_atom_site_type_symbol
_atom_site_fract_x
_atom_site_fract_y
_atom_site_fract_z
O1	O	0.122770	-1.957507	0.136609
O2	O	0.132840	-1.527985	0.136610
O3	O	0.006007	-1.754487	0.136608
O4	O	0.249604	-1.731005	0.136611
O5	O	0.006005	-1.754475	-0.136619
O6	O	0.132839	-1.527973	-0.136617
O7	O	0.122769	-1.957495	-0.136619
Zn8	Zn	0.127803	-1.742732	-0.179998
Zn9	Zn	0.127806	-1.742748	0.179990
O10	O	0.249602	-1.730992	-0.136616
C11	C	0.131872	-1.473015	-0.000003
C12	C	0.128978	-1.309240	-0.000002
C13	C	-0.025196	-1.753510	-0.000003
C14	C	-0.118169	-1.750600	0.000007
N15	N	0.127802	-1.742731	-0.425681
C16	C	-0.455995	-1.740148	0.000001
C17	C	-0.409785	-1.578837	0.000615
C18	C	-0.313072	-1.581748	-0.000001
C19	C	-0.288396	-1.745332	0.000005
C20	C	-0.328871	-1.824889	-0.156019
C21	C	-0.425537	-1.820837	-0.156149
C22	C	-0.425868	-1.824183	0.154561
C23	C	-0.328923	-1.824145	0.156623
C24	C	-0.193676	-1.748271	0.000001
C25	C	-0.550716	-1.737214	-0.000006
C26	C	0.280805	-1.731969	-0.000002
C27	C	0.373778	-1.734880	-0.000001
C28	C	0.123737	-2.012465	-0.000002
C29	C	0.126631	-2.176239	0.000008
N30	N	0.127801	-1.742760	0.425673
H31	H	-0.285124	-1.519210	0.111842
H32	H	-0.312656	-1.943438	0.166048
H33	H	-0.446807	-1.771448	0.272818
H34	H	-0.300909	-1.769623	-0.272130
H35	H	-0.456727	-1.943117	0.155614
H36	H	-0.456887	-1.939269	-0.163224
H37	H	-0.444279	-1.762813	-0.272783
H38	H	-0.429866	-1.514644	-0.110649
H39	H	-0.428805	-1.514368	0.112502
H40	H	-0.313833	-1.945070	-0.161817
H41	H	-0.285686	-1.518780	-0.112035
H42	H	-0.302115	-1.765979	0.272045
