data_functionalizedCrystal
_audit_creation_method	'MofGen! by Chris Wilmer'
_symmetry_space_group_name_H-M	'P1'
_symmetry_Int_Tables_number	1
_symmetry_cell_setting	triclinic
loop_
_symmetry_equiv_pos_as_xyz
  x,y,z
_cell_length_a	13.032831
_cell_length_b	13.897448
_cell_length_c	13.897441
_cell_angle_alpha	89.969401
_cell_angle_beta	82.806474
_cell_angle_gamma	82.822399
loop_
_atom_site_label
_atom_site_type_symbol
_atom_site_fract_x
_atom_site_fract_y
_atom_site_fract_z
Zn1	Zn	1.597719	-0.571548	-0.732369
Zn2	Zn	1.931053	-0.238214	-0.399035
Zn3	Zn	2.264386	0.095119	-0.065702
Zn4	Zn	1.597604	-0.732856	-0.571057
Zn5	Zn	1.930938	-0.399523	-0.237723
Zn6	Zn	2.264271	-0.066189	0.095610
Zn7	Zn	1.422952	-0.551073	-0.550633
Zn8	Zn	1.756286	-0.217740	-0.217300
Zn9	Zn	2.089619	0.115593	0.116033
Zn10	Zn	1.422932	-0.712283	-0.711867
Zn11	Zn	1.756266	-0.378950	-0.378533
Zn12	Zn	2.089599	-0.045617	-0.045200
O13	O	1.510302	-0.641940	-0.641481
O14	O	1.843635	-0.308607	-0.308148
O15	O	2.176969	0.024727	0.025185
O16	O	1.743946	-0.610124	-0.728098
O17	O	2.077279	-0.276790	-0.394764
O18	O	2.410612	0.056543	-0.061431
O19	O	1.574397	-0.708783	-0.433361
O20	O	1.907730	-0.375450	-0.100028
O21	O	2.241063	-0.042116	0.233306
O22	O	1.446192	-0.418814	-0.574774
O23	O	1.779525	-0.085481	-0.241440
O24	O	2.112858	0.247852	0.091893
O25	O	1.743861	-0.728636	-0.609582
O26	O	2.077194	-0.395303	-0.276249
O27	O	2.410528	-0.061970	0.057084
O28	O	1.574592	-0.433857	-0.708294
O29	O	1.907926	-0.100523	-0.374961
O30	O	2.241259	0.232810	-0.041627
O31	O	1.446080	-0.575228	-0.418356
O32	O	1.779414	-0.241895	-0.085023
O33	O	2.112747	0.091438	0.248311
O34	O	1.276708	-0.555280	-0.554894
O35	O	1.610041	-0.221947	-0.221561
O36	O	1.943375	0.111387	0.111773
O37	O	1.446158	-0.693573	-0.849573
O38	O	1.779491	-0.360240	-0.516239
O39	O	2.112825	-0.026907	-0.182906
O40	O	1.276694	-0.673720	-0.673351
O41	O	1.610027	-0.340387	-0.340018
O42	O	1.943360	-0.007054	-0.006685
O43	O	1.574573	-0.590175	-0.864635
O44	O	1.907907	-0.256842	-0.531302
O45	O	2.241240	0.076491	-0.197969
O46	O	1.574377	-0.865102	-0.589702
O47	O	1.907711	-0.531769	-0.256369
O48	O	2.241044	-0.198435	0.076964
O49	O	1.446047	-0.849987	-0.693155
O50	O	1.779380	-0.516654	-0.359822
O51	O	2.112713	-0.183321	-0.026488
C52	C	1.238782	-0.610047	-0.609682
C53	C	1.572115	-0.276713	-0.276349
C54	C	1.905449	0.056620	0.056984
C55	C	1.122625	-0.596426	-0.596101
C56	C	1.455958	-0.263092	-0.262768
C57	C	1.789291	0.070241	0.070565
C58	C	1.070858	-0.649049	-0.648569
C59	C	1.404192	-0.315716	-0.315236
C60	C	1.737525	0.017618	0.018098
C61	C	0.950803	-0.634972	-0.634534
C62	C	1.284137	-0.301639	-0.301201
C63	C	1.617470	0.031694	0.032133
C64	C	1.510226	-0.892545	-0.641444
C65	C	1.843559	-0.559212	-0.308111
C66	C	2.176892	-0.225879	0.025222
C67	C	1.510289	-0.999767	-0.641472
C68	C	1.843622	-0.666433	-0.308139
C69	C	2.176955	-0.333100	0.025195
C70	C	1.510399	-1.196075	-0.641545
C71	C	1.843732	-0.862741	-0.308212
C72	C	2.177065	-0.529408	0.025121
C73	C	1.510335	-1.086835	-0.641507
C74	C	1.843668	-0.753501	-0.308174
C75	C	2.177001	-0.420168	0.025159
C76	C	1.782882	-0.673959	-0.673405
C77	C	2.116216	-0.340625	-0.340072
C78	C	2.449549	-0.007292	-0.006738
C79	C	1.899040	-0.687603	-0.687009
C80	C	2.232373	-0.354270	-0.353676
C81	C	2.565707	-0.020936	-0.020342
C82	C	1.510376	-0.641863	-0.893083
C83	C	1.843710	-0.308530	-0.559750
C84	C	2.177043	0.024803	-0.226416
C85	C	1.510408	-0.641831	-1.000301
C86	C	1.843741	-0.308498	-0.666967
C87	C	2.177074	0.024836	-0.333634
C88	C	1.510407	-0.390359	-0.641543
C89	C	1.843740	-0.057026	-0.308209
C90	C	2.177074	0.276307	0.025124
C91	C	1.510452	-0.283151	-0.641569
C92	C	1.843785	0.050183	-0.308236
C93	C	2.177119	0.383516	0.025098
C94	C	1.510436	-0.641769	-1.196599
C95	C	1.843770	-0.308436	-0.863266
C96	C	2.177103	0.024898	-0.529933
C97	C	1.510417	-0.641806	-1.087365
C98	C	1.843751	-0.308472	-0.754031
C99	C	2.177084	0.024861	-0.420698
C100	C	1.510288	-0.641954	-0.390865
C101	C	1.843622	-0.308620	-0.057532
C102	C	2.176955	0.024713	0.275801
C103	C	1.510459	-0.641738	-0.283672
C104	C	1.843793	-0.308405	0.049661
C105	C	2.177126	0.024928	0.382995
H106	H	0.943596	-0.743076	-0.742329
H107	H	1.276929	-0.409742	-0.408996
H108	H	1.610262	-0.076409	-0.075663
H109	H	0.906246	-0.579491	-0.579224
H110	H	1.239580	-0.246157	-0.245890
H111	H	1.572913	0.087176	0.087443
N112	N	1.066750	-0.526834	-0.526701
N113	N	1.400083	-0.193501	-0.193368
N114	N	1.733417	0.139833	0.139965
N115	N	1.115357	-0.477355	-0.477363
N116	N	1.448691	-0.144022	-0.144030
N117	N	1.782024	0.189312	0.189304
H118	H	1.075899	-0.428204	-0.428346
H119	H	1.409233	-0.094871	-0.095013
H120	H	1.742566	0.238463	0.238320
N121	N	1.126765	-0.718630	-0.717963
N122	N	1.460098	-0.385296	-0.384630
N123	N	1.793432	-0.051963	-0.051297
N124	N	1.224210	-0.729962	-0.729271
N125	N	1.557544	-0.396628	-0.395937
N126	N	1.890877	-0.063295	-0.062604
H127	H	1.263695	-0.779103	-0.778284
H128	H	1.597028	-0.445770	-0.444950
H129	H	1.930361	-0.112436	-0.111617
