data_functionalizedCrystal
_audit_creation_method	'MofGen! by Chris Wilmer'
_symmetry_space_group_name_H-M	'P1'
_symmetry_Int_Tables_number	1
_symmetry_cell_setting	triclinic
loop_
_symmetry_equiv_pos_as_xyz
  x,y,z
_cell_length_a	23.532361
_cell_length_b	22.010155
_cell_length_c	12.837942
_cell_angle_alpha	90.005329
_cell_angle_beta	91.170696
_cell_angle_gamma	90.004127
loop_
_atom_site_label
_atom_site_type_symbol
_atom_site_fract_x
_atom_site_fract_y
_atom_site_fract_z
O1	O	0.762483	0.050464	-0.125520
O2	O	1.262483	0.550464	0.374480
O3	O	0.597663	0.050478	-0.143768
O4	O	1.097663	0.550478	0.356232
O5	O	0.676418	0.050467	0.016220
O6	O	1.176418	0.550467	0.516220
O7	O	0.683728	0.050474	-0.285508
O8	O	1.183728	0.550474	0.214492
O9	O	0.676404	-0.050583	0.016196
O10	O	1.176404	0.449417	0.516196
O11	O	0.597648	-0.050572	-0.143792
O12	O	1.097648	0.449428	0.356208
O13	O	0.762469	-0.050587	-0.125544
O14	O	1.262469	0.449413	0.374456
Cu15	Cu	0.680057	-0.059806	-0.134670
Cu16	Cu	1.180057	0.440194	0.365330
Cu17	Cu	0.680074	0.059697	-0.134642
Cu18	Cu	1.180074	0.559697	0.365358
O19	O	0.683713	-0.050576	-0.285532
O20	O	1.183713	0.449424	0.214468
C21	C	0.576413	-0.000045	-0.143323
C22	C	1.076413	0.499955	0.356677
C23	C	0.513116	-0.000040	-0.141949
C24	C	1.013116	0.499960	0.358051
N25	N	0.680049	-0.143859	-0.134689
N26	N	1.180049	0.356141	0.365311
C27	C	0.239535	0.055039	-0.135926
C28	C	0.739535	0.555039	0.364074
C29	C	0.299009	0.055040	-0.137227
C30	C	0.799009	0.555040	0.362773
O31	O	0.329779	0.101885	-0.137853
O32	O	0.829779	0.601885	0.362147
N33	N	0.328745	-0.000042	-0.137897
N34	N	0.828745	0.499958	0.362103
C35	C	0.299003	-0.055130	-0.137256
C36	C	0.799003	0.444870	0.362744
O37	O	0.329756	-0.101982	-0.137944
O38	O	0.829756	0.398018	0.362056
C39	C	0.239530	-0.055131	-0.135948
C40	C	0.739530	0.444869	0.364052
C41	C	0.209797	-0.000045	-0.135288
C42	C	0.709797	0.499955	0.364712
C43	C	0.209803	0.110121	-0.135266
C44	C	0.709803	0.610121	0.364734
C45	C	0.150332	0.110119	-0.133967
C46	C	0.650332	0.610119	0.366033
C47	C	0.120594	0.055035	-0.133329
C48	C	0.620594	0.555035	0.366671
C49	C	0.150327	-0.000046	-0.133990
C50	C	0.650327	0.499954	0.366010
C51	C	0.209789	-0.110218	-0.135299
C52	C	0.709789	0.389782	0.364701
C53	C	0.150312	-0.110214	-0.133990
C54	C	0.650312	0.389786	0.366010
C55	C	0.120579	-0.055128	-0.133331
C56	C	0.620579	0.444872	0.366669
C57	C	0.061119	-0.055132	-0.132054
C58	C	0.561119	0.444868	0.367946
N59	N	0.031384	-0.000049	-0.131383
N60	N	0.531384	0.499951	0.368617
C61	C	0.061121	0.055035	-0.132021
C62	C	0.561121	0.555035	0.367979
C63	C	0.423901	-0.055124	-0.140001
C64	C	0.923901	0.444876	0.359999
C65	C	0.483373	-0.055124	-0.141316
C66	C	0.983373	0.444876	0.358684
C67	C	0.483375	0.055047	-0.141285
C68	C	0.983375	0.555047	0.358715
C69	C	0.423902	0.055046	-0.139977
C70	C	0.923902	0.555046	0.360023
C71	C	0.394165	-0.000041	-0.139331
C72	C	0.894165	0.499959	0.360669
C73	C	-0.063771	0.055027	-0.129295
C74	C	0.436229	0.555027	0.370705
C75	C	-0.123246	0.055020	-0.128001
C76	C	0.376754	0.555020	0.371999
C77	C	-0.123243	-0.055150	-0.128027
C78	C	0.376757	0.444850	0.371973
C79	C	-0.063773	-0.055144	-0.129326
C80	C	0.436227	0.444856	0.370674
C81	C	-0.034038	-0.000051	-0.129957
C82	C	0.465962	0.499949	0.370043
O83	O	0.030312	-0.101953	-0.131423
O84	O	0.530312	0.398047	0.368577
O85	O	0.030361	0.101879	-0.131319
O86	O	0.530361	0.601879	0.368681
C87	C	0.714950	-0.563643	-0.063809
C88	C	1.214950	-0.063643	0.436191
C89	C	0.714952	-0.627250	-0.063802
C90	C	1.214952	-0.127250	0.436198
O91	O	0.744604	-0.660146	-0.003551
O92	O	1.244604	-0.160146	0.496449
N93	N	0.680073	-0.659066	-0.134620
N94	N	1.180073	-0.159066	0.365380
C95	C	0.645185	-0.627270	-0.205443
C96	C	1.145185	-0.127270	0.294557
O97	O	0.615517	-0.660173	-0.265678
O98	O	1.115517	-0.160173	0.234322
C99	C	0.645180	-0.563664	-0.205444
C100	C	1.145180	-0.063664	0.294556
C101	C	0.680066	-0.531852	-0.134629
C102	C	1.180066	-0.031852	0.365371
C103	C	0.749833	-0.531831	0.007002
C104	C	1.249833	-0.031831	0.507002
C105	C	0.749831	-0.468227	0.006993
C106	C	1.249831	0.031773	0.506993
C107	C	0.714947	-0.436436	-0.063827
C108	C	1.214947	0.063564	0.436173
C109	C	0.680064	-0.468249	-0.134637
C110	C	1.180064	0.031751	0.365363
C111	C	0.610289	-0.531870	-0.276261
C112	C	1.110289	-0.031870	0.223739
C113	C	0.610287	-0.468259	-0.276256
C114	C	1.110287	0.031741	0.223744
C115	C	0.645173	-0.436447	-0.205440
C116	C	1.145173	0.063553	0.294560
C117	C	0.645178	-0.372854	-0.205465
C118	C	1.145178	0.127146	0.294535
N119	N	0.680058	-0.341039	-0.134647
N120	N	1.180058	0.158961	0.365353
C121	C	0.714942	-0.372830	-0.063828
C122	C	1.214942	0.127170	0.436172
C123	C	0.645197	-0.760848	-0.205433
C124	C	1.145197	-0.260848	0.294567
C125	C	0.645204	-0.824453	-0.205438
C126	C	1.145204	-0.324453	0.294562
C127	C	0.714971	-0.824429	-0.063795
C128	C	1.214971	-0.324429	0.436205
C129	C	0.714966	-0.760823	-0.063797
C130	C	1.214966	-0.260823	0.436203
C131	C	0.680076	-0.729033	-0.134615
C132	C	1.180076	-0.229033	0.365385
C133	C	0.714936	-0.239259	-0.063852
C134	C	1.214936	0.260741	0.436148
C135	C	0.714933	-0.175650	-0.063870
C136	C	1.214933	0.324350	0.436130
C137	C	0.645164	-0.175680	-0.205508
C138	C	1.145164	0.324320	0.294492
C139	C	0.645169	-0.239283	-0.205495
C140	C	1.145169	0.260717	0.294505
C141	C	0.680057	-0.271071	-0.134658
C142	C	1.180057	0.228929	0.365342
O143	O	0.615540	-0.339919	-0.265683
O144	O	1.115540	0.160081	0.234317
O145	O	0.744599	-0.339920	-0.003594
O146	O	1.244599	0.160080	0.496406
C147	C	0.783719	-0.000062	-0.125989
C148	C	1.283719	0.499938	0.374011
C149	C	0.847016	-0.000064	-0.127363
C150	C	1.347016	0.499936	0.372637
N151	N	0.680086	0.143750	-0.134614
N152	N	1.180086	0.643750	0.365386
C153	C	0.673942	-0.000057	0.054802
C154	C	1.173942	0.499943	0.554802
C155	C	0.666577	-0.000056	0.169802
C156	C	1.166577	0.499944	0.669802
C157	C	0.686190	-0.000050	-0.324114
C158	C	1.186190	0.499950	0.175886
C159	C	0.693554	-0.000048	-0.439113
C160	C	1.193554	0.499952	0.060887
C161	C	0.755111	-0.000051	0.411698
C162	C	1.255111	0.499949	0.911698
C163	C	0.748194	-0.000049	0.519751
C164	C	1.248194	0.499951	1.019751
C165	C	0.645827	-0.000046	0.493961
C166	C	1.145827	0.499954	0.993961
C167	C	0.652744	-0.000048	0.385909
C168	C	1.152744	0.499952	0.885909
C169	C	0.707388	-0.000051	0.344782
C170	C	1.207388	0.499949	0.844782
C171	C	0.714304	-0.000057	0.236727
C172	C	1.214304	0.499943	0.736727
C173	C	0.611938	-0.000050	0.210939
C174	C	1.111938	0.499950	0.710939
C175	C	0.605021	-0.000048	0.318992
C176	C	1.105021	0.499952	0.818992
H177	H	-0.147452	0.099880	-0.127467
H178	H	0.352548	0.599880	0.372533
C179	C	0.783900	-0.232828	0.076152
C180	C	1.283900	0.267172	0.576152
C181	C	0.753286	-0.274194	0.014011
C182	C	1.253286	0.225806	0.514011
H183	H	0.807579	-0.254397	0.124213
H184	H	1.307579	0.245603	0.624213
H185	H	0.758183	-0.208020	0.113184
H186	H	1.258183	0.291980	0.613184
H187	H	0.806709	-0.208020	0.033200
H188	H	1.306709	0.291980	0.533200
H189	H	0.730474	-0.298999	0.056962
H190	H	1.230474	0.201001	0.556962
H191	H	0.779006	-0.299012	-0.023024
H192	H	1.279006	0.200988	0.476976
C193	C	0.358600	-0.119060	-0.049477
C194	C	0.858600	0.380940	0.450523
C195	C	0.391219	-0.115683	-0.139301
C196	C	0.891219	0.384317	0.360699
H197	H	0.338430	-0.156448	-0.049043
H198	H	0.838430	0.343552	0.450957
H199	H	0.332376	-0.086264	-0.048900
H200	H	0.832376	0.413736	0.451100
H201	H	0.382876	-0.116766	0.010429
H202	H	0.882876	0.383234	0.510429
H203	H	0.366942	-0.117972	-0.199208
H204	H	0.866942	0.382028	0.300792
H205	H	0.417445	-0.148488	-0.139889
H206	H	0.917445	0.351512	0.360111
H207	H	0.507576	-0.099981	-0.141870
H208	H	1.007576	0.400019	0.358130
C209	C	-0.117286	-0.164051	-0.128176
C210	C	0.382714	0.335949	0.371824
C211	C	-0.155938	-0.115697	-0.127321
C212	C	0.344062	0.384303	0.372679
H213	H	-0.137473	-0.201429	-0.127741
H214	H	0.362527	0.298571	0.372259
H215	H	-0.093022	-0.161760	-0.068266
H216	H	0.406978	0.338240	0.431734
H217	H	-0.095156	-0.161760	-0.189114
H218	H	0.404844	0.338240	0.310886
H219	H	-0.178065	-0.117985	-0.066380
H220	H	0.321935	0.382015	0.433620
H221	H	-0.180212	-0.117989	-0.187237
H222	H	0.319788	0.382011	0.312763
H223	H	0.233987	-0.155076	-0.135833
H224	H	0.733987	0.344924	0.364167
H225	H	0.758798	-0.000062	0.203244
H226	H	1.258798	0.499938	0.703244
C227	C	-0.069759	0.163926	-0.129158
C228	C	0.430241	0.663926	0.370842
C229	C	-0.031092	0.115586	-0.130004
C230	C	0.468908	0.615586	0.369996
H231	H	-0.049584	0.201311	-0.129610
H232	H	0.450416	0.701311	0.370390
H233	H	-0.091885	0.161634	-0.068229
H234	H	0.408115	0.661634	0.431771
H235	H	-0.094025	0.161621	-0.189076
H236	H	0.405975	0.661621	0.310924
H237	H	-0.006828	0.117888	-0.070083
H238	H	0.493172	0.617888	0.429917
H239	H	-0.008956	0.117879	-0.190941
H240	H	0.491044	0.617879	0.309059
H241	H	0.126103	-0.155074	-0.133473
H242	H	0.626103	0.344926	0.366527
H243	H	0.399698	0.099902	-0.139440
H244	H	0.899698	0.599902	0.360560
H245	H	0.616764	-0.149785	-0.263172
H246	H	1.116764	0.350215	0.236828
H247	H	0.778237	-0.442330	0.064660
H248	H	1.278237	0.057670	0.564660
H249	H	0.778239	-0.557709	0.064676
H250	H	1.278239	-0.057709	0.564676
H251	H	0.799604	-0.000059	0.378212
H252	H	1.299604	0.499941	0.878212
C253	C	0.156327	0.219015	-0.134044
C254	C	0.656327	0.719015	0.365956
C255	C	0.117656	0.170672	-0.133220
C256	C	0.617656	0.670672	0.366780
H257	H	0.136156	0.256399	-0.133571
H258	H	0.636156	0.756399	0.366429
H259	H	0.178451	0.216727	-0.194978
H260	H	0.678451	0.716727	0.305022
H261	H	0.180595	0.216707	-0.074131
H262	H	0.680595	0.716707	0.425869
H263	H	0.093390	0.172978	-0.193138
H264	H	0.593390	0.672978	0.306862
H265	H	0.095522	0.172961	-0.072280
H266	H	0.595522	0.672961	0.427720
H267	H	0.581881	-0.557762	-0.333925
H268	H	1.081881	-0.057762	0.166075
H269	H	0.234009	0.154979	-0.135782
H270	H	0.734009	0.654979	0.364218
H271	H	0.507598	0.099899	-0.141804
H272	H	1.007598	0.599899	0.358196
H273	H	-0.039564	-0.100000	-0.129884
H274	H	0.460436	0.400000	0.370116
C275	C	0.850073	-0.000056	0.534385
C276	C	1.350073	0.499944	1.034385
C277	C	0.800653	-0.000052	0.593307
C278	C	1.300653	0.499948	1.093307
H279	H	0.882460	-0.000061	0.579798
H280	H	1.382460	0.499939	1.079798
H281	H	0.850646	0.035180	0.491712
H282	H	1.350646	0.535180	0.991712
H283	H	0.850634	-0.035297	0.491695
H284	H	1.350634	0.464703	0.991695
H285	H	0.800090	0.035191	0.635992
H286	H	1.300090	0.535191	1.135992
H287	H	0.800081	-0.035292	0.635998
H288	H	1.300081	0.464708	1.135998
H289	H	0.743344	-0.149750	-0.006203
H290	H	1.243344	0.350250	0.493797
C291	C	0.576200	-0.232915	-0.345491
C292	C	1.076200	0.267085	0.154509
C293	C	0.606820	-0.274255	-0.283331
C294	C	1.106820	0.225745	0.216669
H295	H	0.552518	-0.254503	-0.393532
H296	H	1.052518	0.245497	0.106468
H297	H	0.601914	-0.208115	-0.382545
H298	H	1.101914	0.291885	0.117455
H299	H	0.553395	-0.208096	-0.302548
H300	H	1.053395	0.291904	0.197452
H301	H	0.629629	-0.299070	-0.326273
H302	H	1.129629	0.200930	0.173727
H303	H	0.581104	-0.299065	-0.246273
H304	H	1.081104	0.200935	0.253727
H305	H	0.560531	-0.000044	0.352493
H306	H	1.060531	0.499956	0.852493
C307	C	0.577083	-0.000048	0.033852
C308	C	1.077083	0.499952	0.533852
C309	C	0.559475	-0.000046	0.137380
C310	C	1.059475	0.499954	0.637380
H311	H	0.544695	-0.000042	-0.011557
H312	H	1.044695	0.499958	0.488443
H313	H	0.599238	-0.035286	0.021444
H314	H	1.099238	0.464714	0.521444
H315	H	0.599251	0.035191	0.021456
H316	H	1.099251	0.535191	0.521456
H317	H	0.537311	-0.035288	0.149778
H318	H	1.037311	0.464712	0.649778
H319	H	0.537311	0.035196	0.149794
H320	H	1.037311	0.535196	0.649794
C321	C	0.589778	-0.000041	0.648154
C322	C	1.089778	0.499959	1.148154
C323	C	0.585767	-0.000043	0.539182
C324	C	1.085767	0.499957	1.039182
H325	H	0.552698	-0.000043	0.676069
H326	H	1.052698	0.499957	1.176069
H327	H	0.609674	0.035197	0.671151
H328	H	1.109674	0.535197	1.171151
H329	H	0.609674	-0.035281	0.671145
H330	H	1.109674	0.464719	1.171145
H331	H	0.565874	0.035199	0.516190
H332	H	1.065874	0.535199	1.016190
H333	H	0.565862	-0.035284	0.516175
H334	H	1.065862	0.464716	1.016175
H335	H	0.743373	-0.734925	-0.006132
H336	H	1.243373	-0.234925	0.493868
H337	H	0.616803	-0.850351	-0.263113
H338	H	1.116803	-0.350351	0.236887
C339	C	0.738667	-0.844001	0.115888
C340	C	1.238667	-0.344001	0.615888
C341	C	0.753315	-0.859380	0.014061
C342	C	1.253315	-0.359380	0.514061
H343	H	0.762340	-0.865577	0.163947
H344	H	1.262340	-0.365577	0.663947
H345	H	0.700073	-0.854429	0.126766
H346	H	1.200073	-0.354429	0.626766
H347	H	0.743662	-0.801566	0.126012
H348	H	1.243662	-0.301566	0.626012
H349	H	0.748316	-0.901815	0.003934
H350	H	1.248316	-0.401815	0.503934
H351	H	0.791918	-0.848956	0.003179
H352	H	1.291918	-0.348956	0.503179
H353	H	0.616787	-0.734968	-0.263111
H354	H	1.116787	-0.234968	0.236889
C355	C	0.541323	-0.474677	-0.416262
C356	C	1.041323	0.025323	0.083738
C357	C	0.571937	-0.433317	-0.354110
C358	C	1.071937	0.066683	0.145890
H359	H	0.517651	-0.453104	-0.464330
H360	H	1.017651	0.046896	0.035670
H361	H	0.518512	-0.499482	-0.373324
H362	H	1.018512	0.000518	0.126676
H363	H	0.567044	-0.499488	-0.453295
H364	H	1.067044	0.000512	0.046705
H365	H	0.546215	-0.408508	-0.317071
H366	H	1.046215	0.091492	0.182929
H367	H	0.594749	-0.408501	-0.397053
H368	H	1.094749	0.091499	0.102947
