data_functionalizedCrystal
_audit_creation_method	'MofGen! by Chris Wilmer'
_symmetry_space_group_name_H-M	'P1'
_symmetry_Int_Tables_number	1
_symmetry_cell_setting	triclinic
loop_
_symmetry_equiv_pos_as_xyz
  x,y,z
_cell_length_a	16.992694
_cell_length_b	13.330367
_cell_length_c	14.853569
_cell_angle_alpha	89.994190
_cell_angle_beta	92.848106
_cell_angle_gamma	90.001888
loop_
_atom_site_label
_atom_site_type_symbol
_atom_site_fract_x
_atom_site_fract_y
_atom_site_fract_z
O1	O	1.040604	0.083302	-0.191178
O2	O	0.812316	0.083332	-0.189080
O3	O	0.932557	0.083307	-0.059330
O4	O	0.920363	0.083328	-0.320928
O5	O	0.932540	-0.083540	-0.059326
O6	O	0.812299	-0.083515	-0.189076
O7	O	1.040587	-0.083545	-0.191173
Cu8	Cu	0.926441	-0.098764	-0.190124
Cu9	Cu	0.926462	0.098552	-0.190129
O10	O	0.920345	-0.083520	-0.320924
C11	C	0.783092	-0.000088	-0.186380
C12	C	0.696039	-0.000077	-0.178330
N13	N	0.926432	-0.237546	-0.190121
C14	C	0.645884	-0.000072	-0.256005
C15	C	0.564089	-0.000086	-0.248436
C16	C	0.532451	-0.000099	-0.163190
C17	C	0.582613	-0.000107	-0.085509
C18	C	0.664406	-0.000100	-0.093079
C19	C	0.288819	-0.000128	-0.131813
C20	C	0.207019	-0.000132	-0.124249
C21	C	0.188501	-0.000113	-0.287177
C22	C	0.270296	-0.000100	-0.294740
C23	C	0.320451	-0.000114	-0.217058
N24	N	0.448844	-0.000110	-0.155450
N25	N	0.404057	-0.000109	-0.224798
C26	C	0.873217	-0.710158	-0.247559
C27	C	0.979728	-0.710148	-0.132695
C28	C	0.979719	-0.605130	-0.132691
C29	C	0.926459	-0.552620	-0.190123
C30	C	0.873208	-0.605130	-0.247559
C31	C	1.032975	-0.552613	-0.075263
C32	C	1.032969	-0.447588	-0.075258
C33	C	0.979704	-0.395077	-0.132687
C34	C	0.926450	-0.447592	-0.190124
C35	C	0.873190	-0.395083	-0.247556
C36	C	0.819932	-0.447597	-0.304989
C37	C	0.819943	-0.552619	-0.304987
C38	C	0.979692	-0.290055	-0.132688
C39	C	0.873181	-0.290055	-0.247556
C40	C	1.069811	-0.000123	-0.193874
C41	C	1.156864	-0.000127	-0.201924
C42	C	0.931996	-0.000117	-0.025700
C43	C	0.930340	-0.000118	0.074501
N44	N	0.926477	0.237333	-0.190127
C45	C	0.920907	-0.000094	-0.354554
C46	C	0.922563	-0.000086	-0.454754
C47	C	0.858137	-0.000110	0.115975
C48	C	1.000986	-0.000118	0.127178
C49	C	0.999432	-0.000113	0.221322
C50	C	0.927230	-0.000106	0.262797
C51	C	0.856580	-0.000103	0.210128
C52	C	1.070080	-0.000106	0.273998
C53	C	1.068529	-0.000101	0.368148
C54	C	0.996325	-0.000100	0.409625
C55	C	0.925673	-0.000098	0.356949
C56	C	0.853470	-0.000091	0.398424
C57	C	0.782818	-0.000096	0.345750
C58	C	0.784376	-0.000102	0.251604
C59	C	0.994766	-0.000094	0.503771
C60	C	0.851914	-0.000083	0.492576
H61	H	0.671636	-0.000061	-0.325421
C62	C	0.767923	-0.699601	-0.361088
C63	C	0.814672	-0.767873	-0.310683
H64	H	0.731776	-0.735235	-0.400053
H65	H	0.800593	-0.658638	-0.395898
H66	H	0.739684	-0.658640	-0.321494
H67	H	0.842916	-0.808830	-0.350277
H68	H	0.781998	-0.808854	-0.275871
C69	C	0.663103	0.085679	0.213062
C70	C	0.706720	-0.000095	0.193704
H71	H	0.615161	0.085682	0.177318
H72	H	0.692713	0.143847	0.199928
H73	H	0.651845	0.085668	0.275069
H74	H	0.717984	-0.000080	0.131698
H75	H	0.677105	-0.058278	0.206832
H76	H	1.052291	-0.000080	0.546654
H77	H	0.329646	-0.000140	-0.068559
H78	H	0.556847	-0.000132	-0.016099
C79	C	0.705383	0.085668	0.043455
C80	C	0.719543	-0.000098	-0.007698
H81	H	0.739427	0.085667	0.096163
H82	H	0.652150	0.085655	0.060163
H83	H	0.714983	0.143847	0.008731
H84	H	0.709937	-0.058278	0.027024
H85	H	0.772789	-0.000094	-0.024405
C86	C	0.786095	-0.000066	0.631923
C87	C	0.772545	-0.000076	0.538163
H88	H	0.737095	-0.000068	0.660063
H89	H	0.815183	0.058116	0.649635
H90	H	0.815186	-0.058252	0.649656
H91	H	0.743459	0.058114	0.520429
H92	H	0.743445	-0.058264	0.520443
H93	H	0.829807	-0.247308	-0.294321
C94	C	0.387456	-0.000011	-0.378685
C95	C	0.305071	-0.000042	-0.388444
H96	H	0.408922	0.000048	-0.436536
H97	H	0.404672	-0.058207	-0.346489
H98	H	0.404644	0.058160	-0.346423
H99	H	0.287882	-0.058217	-0.420700
H100	H	0.287848	0.058160	-0.420654
C101	C	0.233536	-0.000161	0.036046
C102	C	0.172242	-0.000148	-0.030539
H103	H	0.212063	-0.000174	0.093894
H104	H	0.265054	0.058018	0.029709
H105	H	0.265052	-0.058349	0.029701
H106	H	0.140729	0.058043	-0.024198
H107	H	0.140710	-0.058334	-0.024199
H108	H	1.023095	-0.752904	-0.085940
H109	H	1.076333	-0.404838	-0.028493
H110	H	1.076341	-0.595369	-0.028508
H111	H	1.126059	-0.000098	0.411028
C112	C	0.660570	-0.085852	0.365219
C113	C	0.703451	-0.000083	0.391342
H114	H	0.611573	-0.085837	0.393364
H115	H	0.689659	-0.144023	0.382965
H116	H	0.651387	-0.085853	0.301609
H117	H	0.712640	-0.000086	0.454951
H118	H	0.674356	0.058103	0.373602
H119	H	1.059771	-0.000144	0.093404
H120	H	1.128864	-0.000174	0.240223
C121	C	0.085767	0.085654	-0.373184
C122	C	0.133367	-0.000109	-0.372558
H123	H	0.051728	0.085649	-0.425895
H124	H	0.118059	0.143829	-0.372757
H125	H	0.055224	0.085637	-0.321327
H126	H	0.163915	-0.000088	-0.424412
H127	H	0.101072	-0.058299	-0.372994
C128	C	0.772636	-0.286602	-0.355986
C129	C	0.761389	-0.389871	-0.368118
H130	H	0.736492	-0.250965	-0.394955
H131	H	0.824972	-0.269396	-0.369588
H132	H	0.764058	-0.269410	-0.295189
H133	H	0.769972	-0.407065	-0.428914
H134	H	0.709041	-0.407085	-0.354523
H135	H	0.776583	-0.595382	-0.351748
H136	H	1.023058	-0.247303	-0.085931
H137	H	0.523255	-0.000081	-0.311687
H138	H	0.800613	-0.000118	0.073084
