data_functionalizedCrystal
_audit_creation_method	'MofGen! by Chris Wilmer'
_symmetry_space_group_name_H-M	'P1'
_symmetry_Int_Tables_number	1
_symmetry_cell_setting	triclinic
loop_
_symmetry_equiv_pos_as_xyz
  x,y,z
_cell_length_a	9.065218
_cell_length_b	10.540539
_cell_length_c	7.540329
_cell_angle_alpha	89.998539
_cell_angle_beta	89.996962
_cell_angle_gamma	84.770688
loop_
_atom_site_label
_atom_site_type_symbol
_atom_site_fract_x
_atom_site_fract_y
_atom_site_fract_z
O1	O	1.959469	0.186143	-0.147478
O2	O	1.530108	0.201412	-0.147479
O3	O	1.754584	0.009107	-0.147476
O4	O	1.734993	0.378448	-0.147481
O5	O	1.754570	0.009105	0.147489
O6	O	1.530094	0.201409	0.147486
O7	O	1.959455	0.186141	0.147487
Cu8	Cu	1.744773	0.193775	0.174419
Cu9	Cu	1.744789	0.193778	-0.174411
O10	O	1.734979	0.378445	0.147484
C11	C	1.475122	0.199943	0.000003
C12	C	1.311301	0.195556	0.000002
C13	C	1.753108	-0.038202	0.000003
C14	C	1.748712	-0.179167	-0.000007
C15	C	1.580278	-0.363216	-0.000669
C16	C	1.584734	-0.216582	-0.000005
C17	C	1.827618	-0.240534	0.168433
C18	C	1.822022	-0.387099	0.168575
C19	C	1.825372	-0.387602	-0.166855
C20	C	1.826883	-0.240615	-0.169082
C21	C	2.014441	0.187610	0.000001
C22	C	2.178262	0.191997	-0.000009
C23	C	1.736455	0.425755	0.000001
C24	C	1.740851	0.566719	-0.000001
N25	N	1.744773	0.193772	0.419768
N26	N	1.744801	0.193771	-0.419760
H27	H	1.522646	-0.174207	-0.120750
N28	N	1.973952	-0.446299	-0.168332
N29	N	2.060158	-0.422437	-0.290798
H30	H	2.165088	-0.463897	-0.291833
N31	N	1.499039	-0.399389	-0.152216
N32	N	1.558528	-0.477235	-0.261498
H33	H	1.501155	-0.502788	-0.368539
H34	H	1.515761	-0.393663	0.119445
H35	H	1.772306	-0.419350	-0.294522
H36	H	1.522200	-0.175058	0.120940
H37	H	1.763695	-0.415515	0.294487
N38	N	1.969966	-0.446718	0.178186
N39	N	2.077016	-0.380044	0.184780
H40	H	2.181500	-0.422143	0.191581
N41	N	1.978685	-0.211933	0.176274
N42	N	2.029999	-0.145842	0.057524
H43	H	2.136691	-0.125641	0.063056
H44	H	1.769148	-0.199969	-0.293689
N45	N	1.758834	-0.187345	0.325671
N46	N	1.651718	-0.104260	0.314115
H47	H	1.603129	-0.066696	0.425160
N48	N	1.976860	-0.209667	-0.181813
N49	N	2.066876	-0.241816	-0.060840
H50	H	2.172802	-0.219954	-0.069815
