data_functionalizedCrystal
_audit_creation_method	'MofGen! by Chris Wilmer'
_symmetry_space_group_name_H-M	'P1'
_symmetry_Int_Tables_number	1
_symmetry_cell_setting	triclinic
loop_
_symmetry_equiv_pos_as_xyz
  x,y,z
_cell_length_a	31.640172
_cell_length_b	23.096457
_cell_length_c	23.096457
_cell_angle_alpha	60.008701
_cell_angle_beta	90.017156
_cell_angle_gamma	59.998714
loop_
_atom_site_label
_atom_site_type_symbol
_atom_site_fract_x
_atom_site_fract_y
_atom_site_fract_z
Zr1	Zr	0.407181	0.633660	-0.075881
O2	O	0.339677	0.754459	-0.168338
O3	O	0.427872	0.512870	-0.047541
O4	O	0.427854	0.633658	-0.168327
O5	O	0.339712	0.633670	0.047730
O6	O	0.497411	0.633646	-0.168314
O7	O	0.339696	0.633671	-0.047552
O8	O	0.497444	0.417579	0.047749
O9	O	0.339679	0.849737	-0.168334
O10	O	0.488609	0.562541	-0.035441
O11	O	0.436711	0.562548	0.035657
O12	O	0.436689	0.704760	-0.106552
O13	O	0.384792	0.704768	-0.035454
Zr14	Zr	0.518142	0.633638	0.076103
Zr15	Zr	0.518116	0.633641	-0.075861
Zr16	Zr	0.407207	0.633658	0.076083
Zr17	Zr	0.407183	0.785617	-0.075874
Zr18	Zr	0.518140	0.481681	0.076097
O19	O	0.497450	0.754428	0.047764
O20	O	0.497413	0.754432	-0.168309
O21	O	0.339715	0.754456	0.047735
O22	O	0.585646	0.512839	0.168560
O23	O	0.585608	0.512843	-0.047512
O24	O	0.427910	0.512867	0.168532
O25	O	0.585611	0.633629	-0.047507
O26	O	0.497469	0.633640	0.168549
O27	O	0.427912	0.633652	0.168537
O28	O	0.585627	0.633627	0.047775
O29	O	0.427858	0.849722	-0.168318
O30	O	0.497465	0.417577	0.168540
O31	O	0.585644	0.417561	0.168556
O32	O	0.585623	0.417563	0.047766
O33	O	0.339700	0.849735	-0.047543
O34	O	0.427879	0.849720	-0.047527
O35	O	0.488633	0.562538	0.106775
O36	O	0.540531	0.562530	0.035676
O37	O	0.488611	0.704750	-0.035435
O38	O	0.436714	0.704758	0.035663
C39	C	0.462658	0.443574	0.000103
C40	C	0.462657	0.379064	0.000100
C41	C	0.323898	0.633673	0.000086
C42	C	0.276803	0.633681	0.000077
C43	C	0.489743	0.348759	-0.037015
C44	C	0.489748	0.288137	-0.037009
C45	C	0.462657	0.257833	0.000102
C46	C	0.435569	0.288142	0.037226
C47	C	0.435569	0.348758	0.037225
N48	N	0.418559	0.195445	-0.005052
N49	N	0.418560	0.137865	-0.005055
C50	C	0.462656	0.075201	0.000109
N51	N	0.506750	0.072301	0.005263
N52	N	0.506748	0.129890	0.005262
C53	C	0.462654	0.192106	0.000108
C54	C	0.489751	-0.020838	-0.037002
C55	C	0.489757	-0.081465	-0.036991
C56	C	0.435573	-0.081453	0.037239
C57	C	0.435572	-0.020832	0.037233
C58	C	0.462659	0.009474	0.000109
C59	C	0.011898	0.559404	0.037245
C60	C	-0.165087	0.559390	0.037259
O61	O	-0.164924	0.496253	0.068853
N62	N	-0.214318	0.633627	0.000139
C63	C	-0.219302	0.707872	-0.036984
O64	O	-0.265237	0.771015	-0.068551
C65	C	-0.042317	0.707886	-0.036994
C66	C	0.006913	0.633644	0.000123
C67	C	0.061127	0.485169	0.074359
C68	C	0.105370	0.485173	0.074352
C69	C	0.100385	0.559413	0.037231
C70	C	0.051157	0.633648	0.000116
C71	C	-0.047302	0.782131	-0.074112
C72	C	-0.003050	0.782127	-0.074109
C73	C	0.046180	0.707886	-0.036992
C74	C	0.090415	0.707893	-0.037012
N75	N	0.139646	0.633656	0.000108
C76	C	0.144631	0.559416	0.037230
C77	C	-0.312219	0.707860	-0.036978
C78	C	-0.356465	0.707857	-0.036976
C79	C	-0.302247	0.559374	0.037268
C80	C	-0.258000	0.559378	0.037262
C81	C	-0.262988	0.633623	0.000143
C82	C	0.237543	0.559431	0.037212
C83	C	0.281788	0.559441	0.037199
C84	C	0.227566	0.707924	-0.037042
C85	C	0.183325	0.707913	-0.037033
C86	C	0.188317	0.633660	0.000099
O87	O	0.090292	0.770996	-0.068584
O88	O	0.190570	0.496283	0.068805
C89	C	-0.032345	0.559400	0.037252
C90	C	-0.081573	0.633636	0.000137
C91	C	-0.086558	0.707875	-0.036984
C92	C	-0.125819	0.633632	0.000139
C93	C	-0.120834	0.559393	0.037260
C94	C	-0.071603	0.485156	0.074381
C95	C	-0.027360	0.485160	0.074374
C96	C	-0.135789	0.782112	-0.074104
C97	C	-0.180031	0.782102	-0.074095
C98	C	-0.175046	0.707862	-0.036973
C99	C	0.601425	0.633625	0.000137
C100	C	0.648520	0.633617	0.000145
C101	C	0.462628	0.633652	-0.189972
C102	C	0.462617	0.633654	-0.254485
C103	C	0.462665	0.823725	0.000119
C104	C	0.462666	0.888235	0.000122
C105	C	0.435519	0.707889	-0.321908
C106	C	0.435532	0.707890	-0.382524
C107	C	0.462637	0.633652	-0.375714
C108	C	0.489741	0.559407	-0.308278
C109	C	0.489732	0.559408	-0.247664
N110	N	0.458896	0.578396	-0.443272
N111	N	0.458903	0.578400	-0.500856
C112	C	0.462668	0.633644	-0.558339
N113	N	0.466418	0.688896	-0.556070
N114	N	0.466408	0.688895	-0.498482
C115	C	0.462650	0.633642	-0.441436
C116	C	0.435583	0.707886	-0.691492
C117	C	0.435600	0.707884	-0.752108
C118	C	0.489806	0.559399	-0.677860
C119	C	0.489792	0.559403	-0.617246
C120	C	0.462678	0.633649	-0.624067
C121	C	0.462694	0.633646	0.190195
C122	C	0.462706	0.633645	0.254707
C123	C	0.601421	0.443550	0.000129
C124	C	0.648515	0.379032	0.000134
C125	C	0.462691	0.443571	0.190187
C126	C	0.462701	0.379060	0.254697
C127	C	0.601454	0.443547	0.190212
C128	C	0.648559	0.379028	0.254731
C129	C	0.323869	0.823752	-0.189990
C130	C	0.276764	0.888271	-0.254508
C131	C	0.323902	0.823749	0.000094
C132	C	0.276808	0.888267	0.000088
C133	C	0.462632	0.823728	-0.189964
C134	C	0.462622	0.888239	-0.254474
C135	C	0.643528	0.348739	-0.036992
C136	C	0.687773	0.288126	-0.037000
C137	C	0.737005	0.257803	0.000122
C138	C	0.741991	0.288102	0.037249
C139	C	0.697746	0.348718	0.037253
C140	C	0.489808	0.348759	0.322120
C141	C	0.489816	0.288153	0.382740
C142	C	0.462718	0.257844	0.375934
C143	C	0.435608	0.288150	0.308504
C144	C	0.435598	0.348759	0.247886
C145	C	0.697775	0.348725	0.247916
C146	C	0.742039	0.288111	0.308533
C147	C	0.737087	0.257796	0.375962
C148	C	0.687866	0.288105	0.382775
C149	C	0.643603	0.348722	0.322159
C150	C	0.227548	0.918581	-0.247694
C151	C	0.183284	0.979214	-0.308310
C152	C	0.188236	1.009532	-0.375740
C153	C	0.237457	0.979219	-0.382552
C154	C	0.281720	0.918591	-0.321937
C155	C	0.281795	0.918566	0.037208
C156	C	0.237549	0.979196	0.037200
C157	C	0.188318	1.009521	0.000076
C158	C	0.183332	0.979219	-0.037049
C159	C	0.227576	0.918595	-0.037044
C160	C	0.489725	0.918529	-0.247646
C161	C	0.489725	0.979136	-0.308254
C162	C	0.462620	1.009456	-0.375690
C163	C	0.435517	0.979160	-0.382516
C164	C	0.435519	0.918550	-0.321909
H165	H	0.511801	0.373430	-0.067242
C166	C	0.222087	0.885260	-0.077869
H167	H	0.255486	0.844813	-0.072557
H168	H	0.203700	0.861626	-0.059538
H169	H	0.203693	0.928782	-0.126707
H170	H	-0.087381	0.842586	-0.104335
C171	C	0.682423	0.254756	0.456948
H172	H	0.646772	0.281486	0.452332
H173	H	0.698568	0.197527	0.482134
H174	H	0.698564	0.264696	0.482134
H175	H	0.603531	0.373387	0.327717
H176	H	0.152295	1.058886	0.000078
H177	H	0.321792	0.893913	-0.327494
C178	C	0.682282	0.254798	-0.077834
H179	H	0.715682	0.214360	-0.072531
H180	H	0.663901	0.231154	-0.059500
H181	H	0.663882	0.298325	-0.126670
C182	C	0.242897	1.012567	-0.456727
H183	H	0.209485	1.053007	-0.491845
H184	H	0.261283	1.036212	-0.462053
H185	H	0.261274	0.969049	-0.462047
H186	H	0.413447	0.893895	-0.327478
C187	C	0.785670	0.191119	0.000119
H188	H	0.775644	0.177418	-0.027304
H189	H	0.805690	0.210973	-0.019749
H190	H	0.805694	0.143815	0.047413
H191	H	0.321878	0.893880	0.067443
C192	C	0.519527	0.477748	-0.173494
H193	H	0.515637	0.488382	-0.138371
H194	H	0.506143	0.447259	-0.168207
H195	H	0.555184	0.447228	-0.168142
H196	H	-0.298195	0.498925	0.067489
H197	H	0.511817	-0.106144	-0.067212
C198	C	0.796148	0.254734	0.078086
H199	H	0.821780	0.214288	0.072769
H200	H	0.800038	0.298235	0.059770
H201	H	0.800039	0.231072	0.126924
H202	H	-0.217917	0.498924	0.067492
C203	C	0.405666	1.012565	-0.456695
H204	H	0.389515	0.985859	-0.452089
H205	H	0.380033	1.069792	-0.481842
H206	H	0.429030	1.002652	-0.481916
C207	C	0.222090	0.885252	-0.173530
H208	H	0.186437	0.912002	-0.178163
H209	H	0.238224	0.828024	-0.148333
H210	H	0.238233	0.895189	-0.148343
H211	H	0.241619	1.003858	0.067434
C212	C	0.519554	0.477747	-0.300785
H213	H	0.515674	0.488378	-0.346541
H214	H	0.555204	0.447237	-0.275580
H215	H	0.506169	0.447250	-0.275617
C216	C	0.703238	0.382024	0.078104
H217	H	0.738897	0.355273	0.100215
H218	H	0.687101	0.439253	0.046078
H219	H	0.687115	0.372076	0.113234
H220	H	0.701817	0.373398	0.193017
H221	H	0.511874	0.373430	0.327675
H222	H	0.511857	0.498952	-0.562346
H223	H	0.511894	0.263485	0.437639
H224	H	0.603445	0.373427	-0.067230
H225	H	0.511806	0.263457	-0.067234
H226	H	0.782113	0.263439	0.302973
C227	C	-0.317713	0.789535	-0.077819
H228	H	-0.353371	0.833741	-0.099929
H229	H	-0.301575	0.792634	-0.045789
H230	H	-0.301589	0.792623	-0.112950
C231	C	-0.141280	0.863781	-0.114946
H232	H	-0.176939	0.907987	-0.137054
H233	H	-0.125140	0.866880	-0.082919
H234	H	-0.125159	0.866868	-0.150079
C235	C	0.519554	0.012488	-0.077823
H236	H	0.535695	-0.014256	-0.099917
H237	H	0.496164	0.069717	-0.112953
H238	H	0.545201	0.002544	-0.045773
C239	C	0.405768	0.254814	0.078045
H240	H	0.409642	0.214379	0.072724
H241	H	0.419156	0.231165	0.126879
H242	H	0.370114	0.298339	0.059704
C243	C	0.129176	1.012574	-0.077877
H244	H	0.132538	0.985853	-0.099990
H245	H	0.110799	1.002643	-0.045834
H246	H	0.110784	1.069807	-0.113005
H247	H	0.511797	0.893852	-0.192742
H248	H	0.413511	0.373433	0.067449
H249	H	0.462731	0.208492	0.425299
H250	H	0.413546	0.263463	0.302973
H251	H	0.413515	-0.106125	0.067456
C252	C	0.026788	0.403494	0.115209
H253	H	0.023413	0.359285	0.137321
H254	H	0.045172	0.400399	0.083176
H255	H	0.045183	0.400406	0.150339
H256	H	0.241616	0.498967	0.067449
C257	C	0.405769	0.012514	0.078051
H258	H	0.389631	-0.014209	0.100150
H259	H	0.429161	0.002580	0.113178
H260	H	0.380120	0.069747	0.046002
H261	H	0.143211	1.003885	-0.302749
C262	C	0.335941	0.477773	0.078034
H263	H	0.332569	0.433559	0.100149
H264	H	0.354322	0.474682	0.045997
H265	H	0.354335	0.474689	0.113160
C266	C	0.159519	0.403507	0.115189
H267	H	0.156143	0.359298	0.137301
H268	H	0.177903	0.400411	0.083157
H269	H	0.177912	0.400420	0.150319
C270	C	0.519533	1.012460	-0.300732
H271	H	0.535667	0.985729	-0.251889
H272	H	0.545178	1.002519	-0.322820
H273	H	0.496138	1.069693	-0.322838
H274	H	0.065195	0.424710	0.104592
C275	C	0.405784	0.382079	0.173722
H276	H	0.409653	0.422521	0.138589
H277	H	0.419166	0.338553	0.168419
H278	H	0.370132	0.405734	0.168402
C279	C	0.462617	1.076131	-0.442351
H280	H	0.482637	1.089830	-0.428620
H281	H	0.477119	1.056272	-0.469778
H282	H	0.428089	1.123438	-0.469775
C283	C	0.139544	1.076209	-0.442410
H284	H	0.109525	1.089907	-0.428689
H285	H	0.139527	1.123510	-0.469839
H286	H	0.139534	1.056334	-0.469828
H287	H	0.773133	0.208438	0.425313
C288	C	0.405789	0.789545	-0.826277
H289	H	0.409681	0.778913	-0.861402
H290	H	0.370136	0.820047	-0.831613
H291	H	0.419165	0.820050	-0.831579
C292	C	-0.410614	0.789523	-0.077810
H293	H	-0.407241	0.833734	-0.099910
H294	H	-0.429013	0.792616	-0.112936
H295	H	-0.428992	0.792607	-0.045765
C296	C	-0.066126	0.403494	0.115217
H297	H	-0.099530	0.414133	0.109906
H298	H	-0.047747	0.372982	0.096894
H299	H	-0.047731	0.372995	0.164054
C300	C	0.405769	0.789551	-0.698990
H301	H	0.389639	0.833765	-0.747829
H302	H	0.380121	0.792650	-0.676910
H303	H	0.429160	0.792625	-0.676865
H304	H	0.143238	0.768367	-0.067266
C305	C	-0.008540	0.863799	-0.114945
H306	H	-0.044198	0.908008	-0.137052
H307	H	0.007602	0.866889	-0.082912
H308	H	0.007582	0.866890	-0.150079
H309	H	0.223516	0.768368	-0.067268
H310	H	-0.220115	0.842563	-0.104327
H311	H	0.413442	0.768346	-0.327468
C312	C	0.405716	0.789551	-0.456698
H313	H	0.389564	0.833768	-0.452078
H314	H	0.429103	0.792641	-0.481876
H315	H	0.380078	0.792629	-0.481896
H316	H	0.511876	0.498952	-0.672313
