data_functionalizedCrystal
_audit_creation_method	'MofGen! by Chris Wilmer'
_symmetry_space_group_name_H-M	'P1'
_symmetry_Int_Tables_number	1
_symmetry_cell_setting	triclinic
loop_
_symmetry_equiv_pos_as_xyz
  x,y,z
_cell_length_a	6.817900
_cell_length_b	23.288402
_cell_length_c	16.255661
_cell_angle_alpha	86.265787
_cell_angle_beta	76.511078
_cell_angle_gamma	106.195573
loop_
_atom_site_label
_atom_site_type_symbol
_atom_site_fract_x
_atom_site_fract_y
_atom_site_fract_z
V1	V	-4.039203	-0.083035	0.262155
O2	O	-4.013665	0.003494	0.258920
O3	O	-4.002960	-0.164168	0.258674
O4	O	-3.990606	-0.081975	0.377260
O5	O	-4.026105	-0.079267	0.139513
V6	V	-4.521281	-0.072659	0.247691
O7	O	-4.303631	-0.105795	0.293883
O8	O	-4.707051	-0.049900	0.215963
O9	O	-4.334318	0.008473	0.251173
O10	O	-4.664217	-0.159189	0.250926
O11	O	-4.651777	-0.076428	0.370333
O12	O	-4.346672	-0.073719	0.132586
C13	C	-3.850925	-0.183939	0.254102
C14	C	-3.902577	-0.250267	0.252023
C15	C	-4.075943	0.095813	0.257876
C16	C	-4.149699	0.028239	0.255748
V17	V	-4.215451	0.205753	0.253595
O18	O	-4.158498	0.293802	0.248297
O19	O	-4.211207	0.121241	0.254720
O20	O	-4.198206	0.203411	0.373337
O21	O	-4.171589	0.211063	0.128859
V22	V	-4.656832	0.233094	0.215958
O23	O	-4.477986	0.190919	0.274490
O24	O	-4.813447	0.263301	0.174062
O25	O	-4.453263	0.309984	0.225246
O26	O	-4.823086	0.149054	0.215780
O27	O	-4.809995	0.231793	0.335218
O28	O	-4.466264	0.227814	0.106628
C29	C	-3.836797	-0.407358	0.242709
C30	C	-3.925487	-0.440807	0.173707
C31	C	-3.997253	-0.371711	0.248257
C32	C	-4.000623	-0.456449	0.313563
C33	C	-4.088693	-0.489021	0.244623
C34	C	-4.085232	-0.404280	0.179224
C35	C	-4.160372	-0.419925	0.319143
C36	C	-4.249178	-0.453356	0.250127
C37	C	-3.944570	-0.304132	0.250350
C38	C	-4.141386	-0.556599	0.242524
C39	C	-3.835164	-0.079094	0.405370
C40	C	-3.876795	-0.078765	0.499458
C41	C	-4.165456	-0.076602	0.104471
C42	C	-4.103064	-0.076929	0.010383
C43	C	-4.275104	0.323913	0.237794
C44	C	-4.183379	0.389531	0.240858
C45	C	-4.059342	0.200630	0.409181
C46	C	-4.121190	0.200943	0.503284
C47	C	-3.786759	-0.074828	0.722358
C48	C	-3.950817	-0.125631	0.790784
C49	C	-3.953086	-0.078147	0.671720
C50	C	-3.863231	-0.026763	0.770943
C51	C	-4.026764	-0.077547	0.838116
C52	C	-4.116633	-0.128995	0.738915
C53	C	-4.028978	-0.030082	0.719059
C54	C	-4.193175	-0.080899	0.787465
C55	C	-3.910637	-0.078493	0.575863
C56	C	-4.069231	-0.077206	0.933971
C57	C	-4.291688	0.219097	0.086485
C58	C	-4.210509	0.218079	-0.006650
C59	C	-4.322385	0.204195	0.543409
C60	C	-4.380514	0.204498	0.631827
C61	C	-4.237451	0.201543	0.680117
C62	C	-4.036236	0.198292	0.639986
C63	C	-3.978105	0.197994	0.551569
C64	C	-4.014249	0.208594	-0.037917
C65	C	-3.937938	0.207641	-0.125426
C66	C	-4.057896	0.216170	-0.181667
C67	C	-4.254171	0.225658	-0.150395
C68	C	-4.330472	0.226614	-0.062888
H69	H	-3.661946	-0.387256	0.239506
H70	H	-3.614629	-0.072328	0.693930
Br71	Br	-4.653601	0.208905	0.686273
H72	H	-4.284813	0.201786	0.752111
Br73	Br	-3.760890	-0.456650	0.071215
Br74	Br	-4.143904	-0.366544	0.084508
Br75	Br	-3.954314	0.214869	-0.300426
H76	H	-4.351821	0.232604	-0.196200
H77	H	-3.916543	0.201649	0.007865
Br78	Br	-3.671572	0.194761	-0.167846
Br79	Br	-4.324854	-0.404094	0.421666
H80	H	-3.814274	0.195343	0.518906
H81	H	-4.424018	-0.473339	0.253228
H82	H	-3.918221	-0.166027	0.822035
Br83	Br	-4.596804	0.239510	-0.020471
Br84	Br	-4.480281	-0.085194	0.834624
Br85	Br	-3.941788	-0.494298	0.408145
H86	H	-4.223356	-0.172246	0.724554
Br87	Br	-4.083177	0.037252	0.666929
H88	H	-4.438903	0.206600	0.504102
Br89	Br	-3.685342	0.045248	0.795069
Br90	Br	-3.842113	0.194275	0.705538
