data_functionalizedCrystal
_audit_creation_method	'MofGen! by Chris Wilmer'
_symmetry_space_group_name_H-M	'P1'
_symmetry_Int_Tables_number	1
_symmetry_cell_setting	triclinic
loop_
_symmetry_equiv_pos_as_xyz
  x,y,z
_cell_length_a	10.654550
_cell_length_b	7.681481
_cell_length_c	10.654550
_cell_angle_alpha	84.202374
_cell_angle_beta	95.515069
_cell_angle_gamma	84.217550
loop_
_atom_site_label
_atom_site_type_symbol
_atom_site_fract_x
_atom_site_fract_y
_atom_site_fract_z
O1	O	1.656080	0.146299	-0.188176
O2	O	1.290599	0.146331	-0.204984
O3	O	1.481744	0.146303	-0.013840
O4	O	1.464936	0.146327	-0.379320
O5	O	1.505270	-0.146558	0.009741
O6	O	1.314126	-0.146530	-0.181404
O7	O	1.679607	-0.146563	-0.164595
Zn8	Zn	1.500601	-0.193044	-0.169256
Zn9	Zn	1.469604	0.192813	-0.200324
O10	O	1.488462	-0.146535	-0.355740
C11	C	1.255564	-0.000096	-0.191960
C12	C	1.116120	-0.000084	-0.188269
N13	N	1.521765	-0.456382	-0.148052
C14	C	1.036634	-0.000081	-0.300811
C15	C	0.905616	-0.000112	-0.297332
C16	C	0.933581	-0.000140	-0.068760
C17	C	1.064598	-0.000122	-0.072240
C18	C	1.714641	-0.000132	-0.177619
C19	C	1.854085	-0.000133	-0.181311
C20	C	1.492273	-0.000127	0.044748
C21	C	1.488581	-0.000124	0.184191
N22	N	1.448451	0.456150	-0.221518
C23	C	1.477933	-0.000101	-0.414328
C24	C	1.481624	-0.000093	-0.553772
C25	C	1.601123	-0.000133	0.263678
C26	C	1.597645	-0.000111	0.394697
C27	C	1.369073	-0.000078	0.366731
C28	C	1.372551	-0.000087	0.235713
H29	H	1.078580	-0.000063	-0.395289
C30	C	1.348622	-0.443898	-0.321618
C31	C	1.284171	-0.563901	-0.386248
C32	C	1.192212	-0.471879	-0.478481
H33	H	1.290027	-0.371980	-0.281921
H34	H	1.388566	-0.372006	-0.380058
H35	H	1.244229	-0.635762	-0.327816
H36	H	1.342732	-0.635823	-0.425971
H37	H	1.232155	-0.399987	-0.536921
H38	H	1.133626	-0.399964	-0.438773
H39	H	1.148479	-0.553286	-0.522351
C40	C	1.719981	-0.000217	0.480794
C41	C	1.822335	-0.000293	0.407628
C42	C	1.935057	-0.000412	0.486898
H43	H	1.715359	0.101888	0.524282
H44	H	1.731647	-0.102380	0.540702
H45	H	1.810671	0.101859	0.347743
H46	H	1.826998	-0.102391	0.364141
H47	H	1.946723	-0.102575	0.546806
H48	H	1.930422	0.101695	0.530382
H49	H	2.004518	-0.000480	0.437268
H50	H	1.280899	-0.000075	0.170991
H51	H	0.891616	-0.000182	0.025708
C52	C	1.150690	-0.000033	0.050087
C53	C	1.077526	-0.000009	0.152440
C54	C	1.156789	0.000090	0.265139
H55	H	1.210620	-0.102127	0.061875
H56	H	1.194145	0.102141	0.045323
H57	H	1.034092	-0.102172	0.157205
H58	H	1.017599	0.102078	0.140695
H59	H	1.200243	0.102263	0.260375
H60	H	1.216715	-0.102006	0.276913
H61	H	1.107157	0.000122	0.334597
H62	H	0.840903	-0.000114	-0.388975
C63	C	1.621485	-0.556438	-0.047876
C64	C	1.596319	-0.511698	0.072109
C65	C	1.688159	-0.603818	0.164418
H66	H	1.619278	-0.679425	-0.050012
H67	H	1.703068	-0.526258	-0.064505
H68	H	1.514757	-0.541890	0.088733
H69	H	1.598537	-0.388727	0.074286
H70	H	1.769742	-0.573638	0.147789
H71	H	1.685945	-0.726800	0.162270
H72	H	1.671104	-0.573463	0.245837
H73	H	1.695601	-0.000159	0.221733
H74	H	1.274605	-0.000052	0.408697
