data_functionalizedCrystal
_audit_creation_method	'MofGen! by Chris Wilmer'
_symmetry_space_group_name_H-M	'P1'
_symmetry_Int_Tables_number	1
_symmetry_cell_setting	triclinic
loop_
_symmetry_equiv_pos_as_xyz
  x,y,z
_cell_length_a	15.995350
_cell_length_b	14.044220
_cell_length_c	12.503572
_cell_angle_alpha	86.156832
_cell_angle_beta	93.514695
_cell_angle_gamma	88.340626
loop_
_atom_site_label
_atom_site_type_symbol
_atom_site_fract_x
_atom_site_fract_y
_atom_site_fract_z
O1	O	-1.124525	-0.116702	-0.089231
O2	O	-0.881878	-0.131788	-0.089254
O3	O	-0.999559	0.013739	-0.089232
O4	O	-1.006844	-0.262229	-0.089253
O5	O	-0.990710	0.002777	0.089408
O6	O	-0.873029	-0.142751	0.089386
O7	O	-1.115676	-0.127664	0.089409
Cu8	Cu	-0.993545	-0.136208	0.105709
Cu9	Cu	-1.004010	-0.123244	-0.105554
O10	O	-0.997995	-0.273191	0.089387
C11	C	-0.846212	-0.136645	0.000064
C12	C	-0.753123	-0.134775	0.000055
C13	C	-0.991946	0.043572	0.000088
C14	C	-0.982435	0.148798	0.000088
C15	C	-1.151342	-0.122807	0.000089
C16	C	-1.244432	-0.124677	0.000090
C17	C	-0.414873	-0.128061	0.000078
C18	C	-0.454546	-0.024443	0.000484
C19	C	-0.551396	-0.026288	0.000074
C20	C	-0.582682	-0.131391	0.000067
C21	C	-0.550467	-0.176251	-0.101944
C22	C	-0.453640	-0.173643	-0.102022
C23	C	-0.443398	-0.188250	0.101125
C24	C	-0.540276	-0.188308	0.102466
C25	C	-0.677521	-0.133279	0.000058
C26	C	-0.320034	-0.126176	0.000081
C27	C	-1.005609	-0.303024	0.000065
C28	C	-1.015120	-0.408250	0.000057
N29	N	-0.986190	-0.145326	0.254300
C30	C	-0.965048	0.341460	0.000071
C31	C	-1.032504	0.399093	0.000074
C32	C	-1.022829	0.506297	0.000065
C33	C	-0.974721	0.234246	0.000081
N34	N	-1.011370	-0.114118	-0.254145
C35	C	-0.975372	-0.158747	0.473413
C36	C	-1.022186	-0.100701	0.526749
C37	C	-1.016166	-0.108168	0.648671
C38	C	-0.981391	-0.151281	0.351480
H39	H	-0.573201	0.009407	0.073201
H40	H	-1.097524	0.367926	0.000008
C41	C	-0.568329	-0.144122	0.204421
N42	N	-0.589457	-0.110833	0.281212
H43	H	-0.900036	0.372630	0.000063
C44	C	-0.577598	-0.280251	-0.107083
N45	N	-0.598036	-0.358584	-0.110952
H46	H	-0.435475	0.021259	-0.072263
C47	C	-1.082448	-0.025998	0.464736
N48	N	-1.127840	0.030261	0.418024
H49	H	-0.429305	0.012496	0.073642
H50	H	-0.930777	-0.214048	0.519312
H51	H	-0.579860	0.018662	-0.073174
H52	H	-0.427305	-0.249451	-0.106656
C53	C	-0.430246	-0.116949	-0.205029
N54	N	-0.412629	-0.074242	-0.282613
H55	H	-0.416502	-0.159112	0.178448
C56	C	-0.590289	-0.121986	-0.204504
N57	N	-0.620281	-0.081108	-0.281750
H58	H	-0.417310	-0.264707	0.101810
C59	C	-0.568367	-0.292359	0.110797
N60	N	-0.589531	-0.370731	0.117069
