data_functionalizedCrystal
_audit_creation_method	'MofGen! by Chris Wilmer'
_symmetry_space_group_name_H-M	'P1'
_symmetry_Int_Tables_number	1
_symmetry_cell_setting	triclinic
loop_
_symmetry_equiv_pos_as_xyz
  x,y,z
_cell_length_a	8.597340
_cell_length_b	6.394989
_cell_length_c	7.681481
_cell_angle_alpha	95.906187
_cell_angle_beta	103.474906
_cell_angle_gamma	94.092678
loop_
_atom_site_label
_atom_site_type_symbol
_atom_site_fract_x
_atom_site_fract_y
_atom_site_fract_z
O1	O	2.105650	-0.288858	0.173048
O2	O	2.605650	0.211142	0.673048
O3	O	1.642258	-0.322139	0.102741
O4	O	2.142258	0.177861	0.602741
O5	O	1.880531	-0.001434	0.138891
O6	O	2.380531	0.498566	0.638891
O7	O	1.867377	-0.609563	0.136898
O8	O	2.367377	-0.109563	0.636898
O9	O	1.909857	0.038128	0.436198
O10	O	2.409857	0.538128	0.936198
O11	O	1.671584	-0.282577	0.400048
O12	O	2.171584	0.217423	0.900048
O13	O	2.134976	-0.249296	0.470355
O14	O	2.634976	0.250704	0.970355
Zn15	Zn	1.907936	-0.259655	0.482405
Zn16	Zn	2.407936	0.240345	0.982405
Zn17	Zn	1.869298	-0.311780	0.090691
Zn18	Zn	2.369298	0.188220	0.590691
O19	O	1.896702	-0.570001	0.434205
O20	O	2.396702	-0.070001	0.934205
C21	C	1.597510	-0.300988	0.242380
C22	C	2.097510	0.199012	0.742380
C23	C	1.420483	-0.296880	0.215521
C24	C	1.920483	0.203120	0.715521
C25	C	2.179724	-0.270448	0.330712
C26	C	2.679724	0.229552	0.830712
C27	C	2.356749	-0.274557	0.357560
C28	C	2.856749	0.225443	0.857560
C29	C	1.892593	0.096167	0.287143
C30	C	2.392593	0.596167	0.787143
C31	C	1.884643	0.332402	0.285936
C32	C	2.384643	0.832402	0.785936
N33	N	1.934317	-0.224079	0.749742
N34	N	2.434317	0.275921	1.249742
N35	N	1.842929	-0.347339	-0.176644
N36	N	2.342929	0.152661	0.323356
H37	H	1.339608	-0.312851	0.073351
H38	H	1.839608	0.187149	0.573351
F39	F	1.720992	-0.511788	0.706569
F40	F	2.220992	-0.011788	1.206569
H41	H	1.437617	-0.258572	0.499720
H42	H	1.937617	0.241428	0.999720
F43	F	2.056276	-0.059642	0.866539
F44	F	2.556276	0.440358	1.366539
