data_functionalizedCrystal
_audit_creation_method	'MofGen! by Chris Wilmer'
_symmetry_space_group_name_H-M	'P1'
_symmetry_Int_Tables_number	1
_symmetry_cell_setting	triclinic
loop_
_symmetry_equiv_pos_as_xyz
  x,y,z
_cell_length_a	9.065215
_cell_length_b	27.732064
_cell_length_c	7.540329
_cell_angle_alpha	90.000516
_cell_angle_beta	89.997574
_cell_angle_gamma	83.832060
loop_
_atom_site_label
_atom_site_type_symbol
_atom_site_fract_x
_atom_site_fract_y
_atom_site_fract_z
O1	O	1.955908	0.070859	-0.147443
O2	O	1.526254	0.076674	-0.147450
O3	O	1.754412	0.003461	-0.147453
O4	O	1.727749	0.144072	-0.147440
O5	O	1.754399	0.003460	0.147512
O6	O	1.526240	0.076673	0.147515
O7	O	1.955894	0.070858	0.147522
Cu8	Cu	1.741066	0.073765	0.174451
Cu9	Cu	1.741082	0.073767	-0.174379
O10	O	1.727736	0.144071	0.147525
C11	C	1.471296	0.076115	0.000032
C12	C	1.307558	0.074445	0.000028
C13	C	1.753842	-0.014550	0.000024
C14	C	1.752145	-0.068216	0.000007
C15	C	1.605765	-0.446287	-0.000002
C16	C	1.612009	-0.244584	-0.000004
O17	O	1.498423	-0.214107	-0.000077
N18	N	1.747303	-0.224534	-0.000002
C19	C	1.881045	-0.254913	-0.000012
O20	O	1.996264	-0.233230	-0.000028
C21	C	1.874799	-0.456614	-0.000022
C22	C	1.739497	-0.476662	-0.000006
C23	C	1.470473	-0.466335	0.000012
C24	C	1.468914	-0.516758	0.000022
C25	C	1.602646	-0.547133	0.000018
C26	C	1.737937	-0.527085	0.000004
C27	C	2.008540	-0.486992	-0.000044
C28	C	2.006966	-0.537420	-0.000051
C29	C	1.871664	-0.557468	-0.000035
C30	C	1.870109	-0.607882	0.000011
N31	N	1.734816	-0.627933	0.000009
C32	C	1.601084	-0.597558	0.000013
C33	C	1.884315	-0.149016	-0.000003
C34	C	1.885877	-0.098591	0.000003
C35	C	1.616840	-0.088266	0.000007
C36	C	1.615280	-0.138692	0.000014
C37	C	1.749021	-0.169066	-0.000004
C38	C	1.597819	-0.703450	0.000036
C39	C	1.596271	-0.753877	0.000053
C40	C	1.865306	-0.764198	0.000040
C41	C	1.866855	-0.713775	0.000032
C42	C	1.733099	-0.683401	0.000023
O43	O	1.983635	-0.638389	0.000063
O44	O	1.485882	-0.619250	-0.000010
C45	C	1.607325	-0.395864	-0.000012
C46	C	1.742616	-0.375817	-0.000026
C47	C	1.876348	-0.406191	-0.000030
C48	C	1.744178	-0.325391	-0.000021
C49	C	1.610446	-0.295017	-0.000017
C50	C	1.475152	-0.315067	-0.000019
C51	C	1.473593	-0.365490	-0.000008
C52	C	2.011642	-0.386141	-0.000028
C53	C	2.013190	-0.335718	-0.000037
C54	C	1.879459	-0.305343	-0.000033
C55	C	2.010852	0.071417	0.000036
C56	C	2.174589	0.073087	0.000028
C57	C	1.728306	0.162082	0.000044
C58	C	1.730003	0.215748	0.000049
N59	N	1.741066	0.073764	0.419800
N60	N	1.741094	0.073764	-0.419728
H61	H	1.486087	-0.770197	0.000074
H62	H	2.123378	-0.319400	-0.000036
Br63	Br	2.069509	-0.071390	0.000015
H64	H	2.120545	-0.410868	-0.000034
H65	H	1.361567	-0.441609	0.000009
H66	H	1.974187	-0.788938	0.000045
Br67	Br	1.289958	-0.392689	0.000013
Br68	Br	2.192177	-0.459798	-0.000107
Br69	Br	1.416291	-0.662237	0.000026
Br70	Br	1.285279	-0.543957	0.000026
Br71	Br	1.431650	-0.165894	0.000036
H72	H	1.993230	-0.173743	-0.000015
H73	H	1.507951	-0.063526	0.000018
H74	H	1.366263	-0.290327	-0.000004
H75	H	2.115878	-0.562149	-0.000076
Br76	Br	2.050481	-0.686566	0.000085
