data_functionalizedCrystal
_audit_creation_method	'MofGen! by Chris Wilmer'
_symmetry_space_group_name_H-M	'P1'
_symmetry_Int_Tables_number	1
_symmetry_cell_setting	triclinic
loop_
_symmetry_equiv_pos_as_xyz
  x,y,z
_cell_length_a	12.811457
_cell_length_b	10.654545
_cell_length_c	11.295483
_cell_angle_alpha	94.137200
_cell_angle_beta	91.289320
_cell_angle_gamma	84.263291
loop_
_atom_site_label
_atom_site_type_symbol
_atom_site_fract_x
_atom_site_fract_y
_atom_site_fract_z
O1	O	1.390272	0.173489	0.051121
O2	O	1.087142	0.189102	0.018383
O3	O	1.245676	-0.001416	0.035506
O4	O	1.231738	0.364007	0.033999
O5	O	1.231752	0.015291	0.232052
O6	O	1.073218	0.205809	0.214930
O7	O	1.376348	0.190197	0.247668
Cu8	Cu	1.223511	0.199529	0.249245
Cu9	Cu	1.239979	0.179770	0.016806
O10	O	1.217814	0.380715	0.230545
C11	C	1.041366	0.196069	0.112465
C12	C	0.925711	0.191921	0.099974
C13	C	0.693201	0.202321	0.290802
C14	C	0.584533	0.198424	0.279072
C15	C	0.599704	0.180222	0.064784
C16	C	0.708373	0.184119	0.076515
C17	C	0.755117	0.195170	0.189527
C18	C	0.863787	0.199076	0.201256
C19	C	0.878957	0.180865	-0.013030
C20	C	0.770288	0.176968	-0.024760
C21	C	1.237690	-0.039865	0.133666
C22	C	1.234628	-0.179321	0.133328
C23	C	1.249822	-0.197544	-0.080952
C24	C	1.255983	-0.272171	-0.188246
C25	C	1.253106	-0.403202	-0.188558
C26	C	1.244063	-0.459606	-0.081565
C27	C	1.237901	-0.384979	0.025730
C28	C	1.240783	-0.253947	0.026031
C29	C	1.222701	-0.366755	0.240007
C30	C	1.225585	-0.235725	0.240322
C31	C	1.213658	-0.423159	0.347000
C32	C	1.207503	-0.348533	0.454298
C33	C	1.210382	-0.217495	0.454606
C34	C	1.219423	-0.161098	0.347617
C35	C	1.422124	0.183230	0.153584
C36	C	1.537780	0.187376	0.166067
C37	C	1.225800	0.419163	0.132382
C38	C	1.228863	0.558618	0.132712
N39	N	1.211937	0.213425	0.412731
N40	N	1.251561	0.165864	-0.146680
C41	C	1.334882	0.065759	0.675299
C42	C	1.326142	0.076270	0.799019
C43	C	1.185713	0.244950	0.783892
C44	C	1.194453	0.234439	0.660173
C45	C	1.269041	0.144842	0.605881
C46	C	1.277785	0.134339	0.482159
C47	C	1.137351	0.303012	0.467034
C48	C	1.128612	0.313523	0.590754
H49	H	0.929380	0.175050	-0.095496
O50	O	1.113116	0.331832	0.836580
C51	C	0.929851	0.405922	0.854943
C52	C	1.011958	0.307440	0.795206
H53	H	0.848048	0.386252	0.821497
H54	H	0.934827	0.399830	0.955295
H55	H	0.945908	0.504659	0.832201
H56	H	0.995956	0.208658	0.817854
H57	H	1.006964	0.313643	0.694868
H58	H	1.379756	0.011871	0.855537
H59	H	1.241709	-0.566297	-0.081830
H60	H	1.252177	-0.090855	-0.080707
H61	H	1.211310	-0.529851	0.346738
H62	H	0.534124	0.204253	0.361540
H63	H	0.901843	0.208082	0.293277
H64	H	1.263345	-0.226232	-0.275358
O65	O	0.724949	0.166018	-0.134559
C66	C	0.715732	0.040763	-0.320155
C67	C	0.767140	0.052981	-0.195830
H68	H	0.749838	-0.050609	-0.369738
H69	H	0.627428	0.039118	-0.311220
H70	H	0.731923	0.124795	-0.371580
H71	H	0.751030	-0.031028	-0.144337
H72	H	0.855428	0.054684	-0.204851
H73	H	1.221773	-0.054408	0.347857
H74	H	1.083742	0.367410	0.410500
O75	O	1.056020	0.400419	0.643433
C76	C	0.872762	0.474550	0.661780
C77	C	0.954859	0.376042	0.602059
H78	H	0.790957	0.454893	0.628334
H79	H	0.877732	0.468475	0.762134
H80	H	0.888835	0.573277	0.639023
H81	H	0.938840	0.277271	0.624722
H82	H	0.949870	0.382229	0.501719
H83	H	0.731259	0.211336	0.382821
H84	H	0.561628	0.171203	-0.027225
H85	H	1.258114	-0.463962	-0.275928
H86	H	1.395621	-0.007186	0.631095
O87	O	1.198532	-0.403237	0.558231
C88	C	1.094609	-0.414773	0.731580
C89	C	1.104624	-0.352737	0.613891
H90	H	1.018700	-0.373949	0.776627
H91	H	1.093530	-0.521240	0.712988
H92	H	1.164236	-0.394994	0.792296
H93	H	1.035016	-0.372418	0.553117
H94	H	1.105751	-0.246288	0.632571
O95	O	1.204212	-0.144921	0.558781
C96	C	1.108589	0.026571	0.673714
C97	C	1.115439	-0.055542	0.555691
H98	H	1.036834	0.098870	0.671246
H99	H	1.101560	-0.036180	0.750166
H100	H	1.182359	0.077867	0.687075
H101	H	1.041689	-0.106851	0.542217
H102	H	1.122520	0.007273	0.479301
H103	H	1.338520	0.061388	0.437957
