data_functionalizedCrystal
_audit_creation_method	'MofGen! by Chris Wilmer'
_symmetry_space_group_name_H-M	'P1'
_symmetry_Int_Tables_number	1
_symmetry_cell_setting	triclinic
loop_
_symmetry_equiv_pos_as_xyz
  x,y,z
_cell_length_a	12.827893
_cell_length_b	21.295417
_cell_length_c	12.827893
_cell_angle_alpha	90.014724
_cell_angle_beta	90.003977
_cell_angle_gamma	90.029863
loop_
_atom_site_label
_atom_site_type_symbol
_atom_site_fract_x
_atom_site_fract_y
_atom_site_fract_z
Zn1	Zn	1.597408	-0.250715	0.590795
Zn2	Zn	1.597305	-0.355956	0.416034
Zn3	Zn	1.422696	-0.250705	0.416069
Zn4	Zn	1.422591	-0.355950	0.590733
O5	O	1.510000	-0.303331	0.503408
O6	O	1.743630	-0.264682	0.567624
O7	O	1.574144	-0.341992	0.269802
O8	O	1.445959	-0.162617	0.439288
O9	O	1.743555	-0.342002	0.439227
O10	O	1.574319	-0.162624	0.567658
O11	O	1.445859	-0.264665	0.269828
O12	O	1.276446	-0.264659	0.439228
O13	O	1.445780	-0.341993	0.736978
O14	O	1.276369	-0.341983	0.567553
O15	O	1.574217	-0.264676	0.737023
O16	O	1.574042	-0.444044	0.439167
O17	O	1.445680	-0.444040	0.567518
C18	C	1.238490	-0.303320	0.503388
C19	C	1.122337	-0.303330	0.503404
C20	C	1.070589	-0.265137	0.567038
C21	C	0.950539	-0.265147	0.567056
C22	C	1.509867	-0.466883	0.503355
C23	C	1.509905	-0.536851	0.503367
C24	C	1.576704	-0.569664	0.570258
C25	C	1.576741	-0.635407	0.570283
C26	C	1.509990	-0.668334	0.503400
C27	C	1.443178	-0.635512	0.436505
C28	C	1.443136	-0.569771	0.436489
N29	N	1.502119	-0.771580	0.411945
N30	N	1.502165	-0.834032	0.411963
C31	C	1.510112	-0.866408	0.503447
N32	N	1.518032	-0.833974	0.594914
N33	N	1.517991	-0.771517	0.594894
C34	C	1.510028	-0.739619	0.503411
C35	C	1.576955	-0.970507	0.570371
C36	C	1.576984	-1.036251	0.570399
C37	C	1.443427	-1.036355	0.436611
C38	C	1.443392	-0.970613	0.436593
C39	C	1.510161	-0.937693	0.503472
C40	C	1.782570	-0.303344	0.503428
C41	C	1.898723	-0.303349	0.503437
C42	C	1.509998	-0.303335	0.775978
C43	C	1.509998	-0.303336	0.892131
C44	C	1.510162	-0.139141	0.503484
C45	C	1.510231	-0.069173	0.503516
C46	C	1.573543	-0.265085	1.063983
C47	C	1.573545	-0.265083	0.943932
C48	C	1.509994	-0.303342	1.231898
C49	C	1.509994	-0.303340	1.115745
H50	H	0.943218	-0.336052	0.448961
Br51	Br	1.664223	-0.210486	0.869746
Br52	Br	1.419299	-0.357925	0.966310
H53	H	1.455594	-0.336093	1.071184
H54	H	0.906037	-0.232451	0.621539
H55	H	1.077763	-0.336034	0.448937
H56	H	1.115163	-0.232430	0.621500
Br57	Br	1.667314	-0.524990	0.661026
H58	H	1.631128	-0.662129	0.624766
H59	H	1.389070	-1.063163	0.382160
H60	H	1.388827	-0.662325	0.382051
H61	H	1.388739	-0.543054	0.382018
H62	H	1.631319	-0.943703	0.624831
H63	H	1.389002	-0.943894	0.382120
Br64	Br	1.664236	-0.210502	1.138243
Br65	Br	1.667631	-1.080785	0.661204
