data_functionalizedCrystal
_audit_creation_method	'MofGen! by Chris Wilmer'
_symmetry_space_group_name_H-M	'P1'
_symmetry_Int_Tables_number	1
_symmetry_cell_setting	triclinic
loop_
_symmetry_equiv_pos_as_xyz
  x,y,z
_cell_length_a	27.732064
_cell_length_b	27.731996
_cell_length_c	11.295483
_cell_angle_alpha	94.054077
_cell_angle_beta	85.936193
_cell_angle_gamma	82.635407
loop_
_atom_site_label
_atom_site_type_symbol
_atom_site_fract_x
_atom_site_fract_y
_atom_site_fract_z
O1	O	0.644185	0.054284	-0.098826
O2	O	0.503393	0.063019	-0.098877
O3	O	0.578174	-0.011746	-0.098824
O4	O	0.569404	0.129049	-0.098879
O5	O	0.571606	-0.005189	0.099222
O6	O	0.496825	0.069576	0.099169
O7	O	0.637617	0.060840	0.099220
Cu8	Cu	0.566621	0.065807	0.117278
Cu9	Cu	0.574389	0.058053	-0.116935
O10	O	0.562836	0.135606	0.099167
C11	C	0.482103	0.066113	0.000140
C12	C	0.428449	0.065556	0.000122
C13	C	0.051382	0.017591	0.000208
C14	C	0.253043	0.019636	0.000176
O15	O	0.284301	-0.017584	0.000235
N16	N	0.272163	0.063971	0.000154
C17	C	0.240864	0.107797	0.000147
O18	O	0.261753	0.145554	0.000139
C19	C	0.039204	0.105752	0.000187
C20	C	0.020087	0.061414	0.000198
C21	C	0.032265	-0.026744	0.000220
C22	C	-0.018147	-0.027255	0.000221
C23	C	-0.049442	0.016569	0.000211
C24	C	-0.030325	0.060903	0.000199
C25	C	0.007905	0.149578	0.000189
C26	C	-0.042512	0.149063	0.000202
C27	C	-0.061629	0.104725	0.000213
C28	C	-0.112032	0.104215	0.000190
N29	N	-0.131152	0.059880	0.000213
C30	C	-0.099857	0.016057	0.000223
C31	C	0.346739	0.108868	0.000123
C32	C	0.397154	0.109379	0.000111
C33	C	0.409330	0.021218	0.000143
C34	C	0.358914	0.020707	0.000146
C35	C	0.327619	0.064533	0.000146
C36	C	-0.205726	0.014987	0.000225
C37	C	-0.256143	0.014480	0.000222
C38	C	-0.268314	0.102641	0.000196
C39	C	-0.217902	0.103149	0.000194
C40	C	-0.186609	0.059318	0.000212
O41	O	-0.143318	0.141416	0.000145
O42	O	-0.120757	-0.021693	0.000257
C43	C	0.101794	0.018102	0.000207
C44	C	0.120911	0.062436	0.000195
C45	C	0.089616	0.106259	0.000185
C46	C	0.171326	0.062947	0.000183
C47	C	0.202621	0.019124	0.000193
C48	C	0.183501	-0.025210	0.000215
C49	C	0.133089	-0.025722	0.000217
C50	C	0.108736	0.150594	0.000162
C51	C	0.159149	0.151101	0.000159
C52	C	0.190444	0.107278	0.000170
C53	C	0.574710	-0.026475	0.000203
C54	C	0.574167	-0.080131	0.000215
C55	C	0.574334	-0.416423	-0.107799
C56	C	0.572274	-0.618082	-0.107821
O57	O	0.575032	-0.647193	-0.199633
N58	N	0.568438	-0.639725	0.000133
C59	C	0.565113	-0.610950	0.108100
O60	O	0.561798	-0.633985	0.199921
C61	C	0.567170	-0.409291	0.108120
C62	C	0.571011	-0.387652	0.000159
C63	C	0.578175	-0.394783	-0.215751
C64	C	0.578692	-0.344372	-0.215745
C65	C	0.575370	-0.315600	-0.107786
C66	C	0.571529	-0.337240	0.000166
C67	C	0.563842	-0.380516	0.216086
C68	C	0.564355	-0.330099	0.216081
C69	C	0.568197	-0.308459	0.108120
C70	C	0.568724	-0.258058	0.108131
N71	N	0.572560	-0.236414	0.000177
C72	C	0.575883	-0.265186	-0.107782
C73	C	0.564035	-0.716824	0.108081
C74	C	0.563521	-0.767239	0.108077
C75	C	0.570681	-0.774367	-0.107845
C76	C	0.571198	-0.723952	-0.107839
C77	C	0.567871	-0.695181	0.000128
C78	C	0.576970	-0.159318	-0.107760
C79	C	0.577490	-0.108902	-0.107744
C80	C	0.570327	-0.101777	0.108177
C81	C	0.569810	-0.152189	0.108162
C82	C	0.573131	-0.180958	0.000184
O83	O	0.565963	-0.228917	0.199895
O84	O	0.579187	-0.242140	-0.199589
C85	C	0.573817	-0.466835	-0.107806
C86	C	0.569976	-0.488475	0.000146
C87	C	0.566653	-0.459703	0.108105
C88	C	0.569463	-0.538889	0.000141
C89	C	0.572786	-0.567661	-0.107817
C90	C	0.576622	-0.546017	-0.215771
C91	C	0.577139	-0.495606	-0.215764
C92	C	0.562817	-0.481346	0.216059
C93	C	0.562300	-0.531758	0.216043
C94	C	0.565623	-0.560530	0.108085
C95	C	0.658908	0.057747	0.000201
C96	C	0.712562	0.058303	0.000211
C97	C	0.566301	0.150334	0.000138
C98	C	0.566844	0.203990	0.000118
N99	N	0.561162	0.071260	0.282010
N100	N	0.579853	0.052595	-0.281667
C101	C	0.619155	0.013311	0.531341
C102	C	0.615033	0.017436	0.656002
C103	C	0.548792	0.083632	0.655995
C104	C	0.552915	0.079507	0.531334
C105	C	0.588098	0.044346	0.469012
C106	C	0.592222	0.040224	0.344349
C107	C	0.525980	0.106418	0.344344
C108	C	0.521857	0.110542	0.469005
H109	H	0.434819	-0.014465	0.000147
H110	H	0.057741	-0.062432	0.000232
H111	H	0.083260	0.186281	0.000155
H112	H	0.520144	0.112256	0.706754
C113	C	0.491814	0.140559	0.275777
C114	C	0.496350	0.136024	0.138655
C115	C	0.462188	0.170165	0.070086
C116	C	0.423490	0.208841	0.138638
C117	C	0.418953	0.213377	0.275768
C118	C	0.453115	0.179236	0.344337
H119	H	0.524998	0.107392	0.087901
H120	H	0.465547	0.166807	-0.031427
H121	H	0.398201	0.234115	0.087879
H122	H	0.390305	0.242009	0.326522
H123	H	0.449756	0.182594	0.445850
H124	H	-0.202337	0.139252	0.000184
C125	C	0.581835	-0.426428	-0.334517
C126	C	0.540482	-0.456267	-0.364263
C127	C	0.544148	-0.487909	-0.483037
C128	C	0.589167	-0.489712	-0.572066
C129	C	0.630523	-0.459872	-0.542323
C130	C	0.626857	-0.428230	-0.423549
H131	H	0.507153	-0.454933	-0.298357
H132	H	0.513533	-0.509999	-0.505055
H133	H	0.591880	-0.513136	-0.659990
H134	H	0.663851	-0.461206	-0.608229
H135	H	0.657472	-0.406140	-0.401531
C136	C	0.580276	-0.577672	-0.334528
C137	C	0.541309	-0.567881	-0.423606
C138	C	0.544959	-0.599538	-0.542356
C139	C	0.587576	-0.640985	-0.572027
C140	C	0.626546	-0.650778	-0.482947
C141	C	0.622896	-0.619121	-0.364197
H142	H	0.509759	-0.537198	-0.401643
H143	H	0.516111	-0.592288	-0.608299
H144	H	0.590278	-0.664419	-0.659933
H145	H	0.658096	-0.681461	-0.504910
H146	H	0.651744	-0.626370	-0.298254
C147	C	0.630921	0.001547	0.275791
C148	C	0.615150	-0.038127	0.190104
C149	C	0.653849	-0.076806	0.121550
C150	C	0.708319	-0.075811	0.138683
C151	C	0.724093	-0.036136	0.224374
C152	C	0.685394	0.002544	0.292928
H153	H	0.574826	-0.038865	0.177417
H154	H	0.642172	-0.106176	0.058116
H155	H	0.736966	-0.104444	0.087936
H156	H	0.764417	-0.035398	0.237060
H157	H	0.697071	0.031914	0.356362
C158	C	-0.171309	-0.033227	0.000236
C159	C	-0.131574	-0.048405	-0.102607
C160	C	-0.097156	-0.096619	-0.102606
C161	C	-0.102473	-0.129655	0.000237
C162	C	-0.142210	-0.114478	0.103087
C163	C	-0.176628	-0.066264	0.103086
H164	H	-0.127636	-0.023949	-0.178744
H165	H	-0.067740	-0.107854	-0.178743
H166	H	-0.076995	-0.165346	0.000237
H167	H	-0.146148	-0.138934	0.179224
H168	H	-0.206043	-0.055029	0.179223
H169	H	0.560715	-0.398126	0.303999
H170	H	0.493210	0.139169	0.519762
H171	H	0.321262	0.144559	0.000121
H172	H	0.343353	-0.015397	0.000156
C173	C	0.559303	-0.791037	0.226838
C174	C	0.515975	-0.818911	0.256525
C175	C	0.511753	-0.842707	0.375293
C176	C	0.550859	-0.838628	0.464373
C177	C	0.594190	-0.810753	0.434688
C178	C	0.598412	-0.786958	0.315921
H179	H	0.487023	-0.821931	0.190581
H180	H	0.479677	-0.863342	0.397267
H181	H	0.547734	-0.856243	0.552292
H182	H	0.623142	-0.807733	0.500633
H183	H	0.630488	-0.766323	0.293947
H184	H	-0.271704	-0.021627	0.000227
H185	H	0.580619	-0.091286	-0.195662
H186	H	-0.033707	-0.063359	0.000235
H187	H	0.412714	0.145483	0.000086
C188	C	0.560697	-0.298451	0.334849
C189	C	0.518077	-0.257008	0.364531
C190	C	0.514421	-0.225361	0.483296
C191	C	0.553384	-0.235157	0.572379
C192	C	0.596007	-0.276602	0.542700
C193	C	0.599664	-0.308249	0.423934
H194	H	0.489231	-0.249754	0.298584
H195	H	0.482868	-0.194680	0.505266
H196	H	0.550677	-0.211730	0.660296
H197	H	0.624853	-0.283855	0.608646
H198	H	0.631217	-0.338929	0.401964
C199	C	0.028920	0.198354	0.000193
C200	C	0.013550	0.238042	0.103040
C201	C	0.034562	0.286822	0.103050
C202	C	0.070944	0.295915	0.000213
C203	C	0.086316	0.256226	-0.102642
C204	C	0.065304	0.207445	-0.102652
H205	H	-0.013384	0.231313	0.179173
H206	H	0.023182	0.316203	0.179191
H207	H	0.086498	0.332025	0.000220
H208	H	0.113250	0.262955	-0.178775
H209	H	0.076684	0.178065	-0.178793
H210	H	-0.067991	0.184753	0.000207
C211	C	0.566670	-0.070121	0.226925
C212	C	0.524047	-0.028679	0.256578
C213	C	0.520385	0.002980	0.375326
C214	C	0.559346	-0.006803	0.464422
C215	C	0.601971	-0.048248	0.434772
C216	C	0.605633	-0.079907	0.316024
H217	H	0.495203	-0.021434	0.190621
H218	H	0.488831	0.033660	0.397274
H219	H	0.556635	0.016633	0.552327
H220	H	0.630815	-0.055492	0.500729
H221	H	0.637188	-0.110587	0.294076
H222	H	0.117530	-0.061826	0.000226
H223	H	0.640322	-0.007837	0.706747
C224	C	-0.302746	0.150845	0.000191
C225	C	-0.335682	0.159213	-0.102640
C226	C	-0.370116	0.207416	-0.102635
C227	C	-0.371614	0.247252	0.000202
C228	C	-0.338677	0.238886	0.103041
C229	C	-0.304243	0.190682	0.103035
H230	H	-0.334574	0.129723	-0.178773
H231	H	-0.394498	0.213610	-0.178763
H232	H	-0.397104	0.282936	0.000206
H233	H	-0.339785	0.268376	0.179174
H234	H	-0.279861	0.184489	0.179164
H235	H	0.174709	0.187209	0.000142
C236	C	0.217932	-0.073417	0.000230
C237	C	0.250862	-0.081777	0.103076
C238	C	0.285295	-0.129980	0.103098
C239	C	0.286798	-0.169823	0.000274
C240	C	0.253867	-0.161463	-0.102580
C241	C	0.219435	-0.113260	-0.102602
H242	H	0.249750	-0.052282	0.179199
H243	H	0.309672	-0.136168	0.179237
H244	H	0.312287	-0.205505	0.000290
H245	H	0.254979	-0.190958	-0.178703
H246	H	0.195057	-0.107072	-0.178741
H247	H	0.560112	-0.457925	0.303974
H248	H	0.579671	-0.182736	-0.195686
H249	H	0.574325	-0.706337	-0.195750
H250	H	0.573387	-0.797802	-0.195749
H251	H	0.581819	-0.326757	-0.303658
H252	H	0.561327	-0.693403	0.196005
H253	H	0.566687	-0.169810	0.196072
H254	H	0.580267	-0.477992	-0.303677
H255	H	0.559176	-0.549373	0.303965
H256	H	0.647806	-0.015315	0.480597
