data_functionalizedCrystal
_audit_creation_method	'MofGen! by Chris Wilmer'
_symmetry_space_group_name_H-M	'P1'
_symmetry_Int_Tables_number	1
_symmetry_cell_setting	triclinic
loop_
_symmetry_equiv_pos_as_xyz
  x,y,z
_cell_length_a	23.532407
_cell_length_b	27.732048
_cell_length_c	22.610064
_cell_angle_alpha	89.999096
_cell_angle_beta	89.997161
_cell_angle_gamma	82.745667
loop_
_atom_site_label
_atom_site_type_symbol
_atom_site_fract_x
_atom_site_fract_y
_atom_site_fract_z
O1	O	0.755138	0.058672	-0.049117
O2	O	1.255138	0.558672	0.450883
O3	O	0.589257	0.067162	-0.049135
O4	O	1.089257	0.567162	0.450865
O5	O	0.677349	-0.007472	-0.049114
O6	O	1.177349	0.492528	0.450886
O7	O	0.667046	0.133306	-0.049138
O8	O	1.167046	0.633306	0.450862
O9	O	0.677334	-0.007461	0.049255
O10	O	1.177334	0.492539	0.549255
O11	O	0.589241	0.067173	0.049234
O12	O	1.089241	0.567173	0.549234
O13	O	0.755123	0.058683	0.049252
O14	O	1.255123	0.558683	0.549252
Zn15	Zn	0.672179	0.062930	0.064861
Zn16	Zn	1.172179	0.562930	0.564861
Zn17	Zn	0.672200	0.062915	-0.064744
Zn18	Zn	1.172200	0.562915	0.435256
O19	O	0.667030	0.133317	0.049231
O20	O	1.167030	0.633317	0.549231
C21	C	0.568033	0.066952	0.000047
C22	C	1.068033	0.566952	0.500047
C23	C	0.504818	0.066302	0.000041
C24	C	1.004818	0.566302	0.500041
C25	C	0.105629	0.106391	0.000061
C26	C	0.605629	0.606391	0.500061
C27	C	0.046230	0.105787	0.000064
C28	C	0.546230	0.605787	0.500064
O29	O	0.009406	0.142951	0.000080
O30	O	0.509406	0.642951	0.500080
N31	N	0.023699	0.061418	0.000071
N32	N	0.523699	0.561418	0.500071
C33	C	0.060570	0.017649	0.000080
C34	C	0.560570	0.517649	0.500080
O35	O	0.035951	-0.020147	0.000086
O36	O	0.535951	0.479853	0.500086
C37	C	0.119967	0.018253	0.000080
C38	C	0.619967	0.518253	0.500080
C39	C	0.142495	0.062626	0.000068
C40	C	0.642495	0.562626	0.500068
C41	C	0.128158	0.150760	0.000049
C42	C	0.628158	0.650760	0.500049
C43	C	0.187552	0.151364	0.000044
C44	C	0.687552	0.651364	0.500044
C45	C	0.224419	0.107599	0.000051
C46	C	0.724419	0.607599	0.500051
C47	C	0.201890	0.063229	0.000063
C48	C	0.701890	0.563229	0.500063
C49	C	0.156837	-0.025515	0.000093
C50	C	0.656837	0.474485	0.500093
C51	C	0.216239	-0.024907	0.000094
C52	C	0.716239	0.475093	0.500094
C53	C	0.238766	0.019466	0.000082
C54	C	0.738766	0.519466	0.500082
C55	C	0.298151	0.020068	0.000065
C56	C	0.798151	0.520068	0.500065
N57	N	0.320683	0.064437	0.000059
N58	N	0.820683	0.564437	0.500059
C59	C	0.283817	0.108203	0.000052
C60	C	0.783817	0.608203	0.500052
C61	C	-0.064170	0.016383	0.000080
C62	C	0.435830	0.516383	0.500080
C63	C	-0.123567	0.015778	0.000075
C64	C	0.376433	0.515778	0.500075
C65	C	-0.137902	0.103917	0.000061
C66	C	0.362098	0.603917	0.500061
C67	C	-0.078505	0.104521	0.000061
C68	C	0.421495	0.604521	0.500061
C69	C	-0.041639	0.060753	0.000073
C70	C	0.458361	0.560753	0.500073
C71	C	0.408551	0.109467	0.000041
C72	C	0.908551	0.609467	0.500041
C73	C	0.467951	0.110067	0.000034
C74	C	0.967951	0.610067	0.500034
C75	C	0.482282	0.021928	0.000051
C76	C	0.982282	0.521928	0.500051
C77	C	0.422886	0.021328	0.000055
C78	C	0.922886	0.521328	0.500055
C79	C	0.386021	0.065102	0.000052
C80	C	0.886021	0.565102	0.500052
O81	O	0.335010	-0.017077	0.000052
O82	O	0.835010	0.482923	0.500052
O83	O	0.308444	0.145992	0.000053
O84	O	0.808444	0.645992	0.500053
C85	C	0.677125	-0.025473	0.000072
C86	C	1.177125	0.474527	0.500072
C87	C	0.676474	-0.079129	0.000077
C88	C	1.176474	0.420871	0.500077
C89	C	0.724431	-0.417871	0.000052
C90	C	1.224431	0.082129	0.500052
C91	C	0.722014	-0.619534	0.000043
C92	C	1.222014	-0.119534	0.500043
O93	O	0.765867	-0.650722	0.000022
O94	O	1.265867	-0.150722	0.500022
N95	N	0.669779	-0.638738	0.000038
N96	N	1.169779	-0.138738	0.500038
C97	C	0.618144	-0.607523	0.000031
C98	C	1.118144	-0.107523	0.500031
O99	O	0.573659	-0.628484	0.000020
O100	O	1.073659	-0.128484	0.500020
C101	C	0.620561	-0.405860	0.000035
C102	C	1.120561	0.094140	0.500035
C103	C	0.672800	-0.386659	0.000046
C104	C	1.172800	0.113341	0.500046
C105	C	0.776665	-0.398669	0.000062
C106	C	1.276665	0.101331	0.500062
C107	C	0.777269	-0.348256	0.000067
C108	C	1.277269	0.151744	0.500067
C109	C	0.725638	-0.317045	0.000062
C110	C	1.225638	0.182955	0.500062
C111	C	0.673403	-0.336247	0.000052
C112	C	1.173403	0.163753	0.500052
C113	C	0.568927	-0.374646	0.000024
C114	C	1.068927	0.125354	0.500024
C115	C	0.569536	-0.324228	0.000024
C116	C	1.069536	0.175772	0.500024
C117	C	0.621775	-0.305027	0.000035
C118	C	1.121775	0.194973	0.500035
C119	C	0.622376	-0.254622	0.000052
C120	C	1.122376	0.245378	0.500052
N121	N	0.674611	-0.235418	0.000057
N122	N	1.174611	0.264582	0.500057
C123	C	0.726242	-0.266630	0.000062
C124	C	1.226242	0.233370	0.500062
C125	C	0.616879	-0.713399	0.000030
C126	C	1.116879	-0.213399	0.500030
C127	C	0.616274	-0.763814	0.000030
C128	C	1.116274	-0.263814	0.500030
C129	C	0.720145	-0.775822	0.000041
C130	C	1.220145	-0.275822	0.500041
C131	C	0.720749	-0.725406	0.000045
C132	C	1.220749	-0.225406	0.500045
C133	C	0.669114	-0.694195	0.000035
C134	C	1.169114	-0.194195	0.500035
C135	C	0.727506	-0.160758	0.000074
C136	C	1.227506	0.339242	0.500074
C137	C	0.728105	-0.110341	0.000082
C138	C	1.228105	0.389659	0.500082
C139	C	0.624235	-0.098337	0.000068
C140	C	1.124235	0.401663	0.500068
C141	C	0.623635	-0.148751	0.000063
C142	C	1.123635	0.351249	0.500063
C143	C	0.675276	-0.179961	0.000064
C144	C	1.175276	0.320039	0.500064
O145	O	0.578547	-0.223406	0.000066
O146	O	1.078547	0.276594	0.500066
O147	O	0.770721	-0.245659	0.000060
O148	O	1.270721	0.254341	0.500060
C149	C	0.723827	-0.468283	0.000046
C150	C	1.223827	0.031717	0.500046
C151	C	0.671593	-0.487485	0.000036
C152	C	1.171593	0.012515	0.500036
C153	C	0.619962	-0.456274	0.000030
C154	C	1.119962	0.043726	0.500030
C155	C	0.670988	-0.537900	0.000036
C156	C	1.170988	-0.037900	0.500036
C157	C	0.722619	-0.569112	0.000041
C158	C	1.222619	-0.069112	0.500041
C159	C	0.774855	-0.549908	0.000046
C160	C	1.274855	-0.049908	0.500046
C161	C	0.775458	-0.499495	0.000051
C162	C	1.275458	0.000505	0.500051
C163	C	0.567727	-0.475478	0.000025
C164	C	1.067727	0.024522	0.500025
C165	C	0.567127	-0.525891	0.000021
C166	C	1.067127	-0.025891	0.500021
C167	C	0.618758	-0.557103	0.000026
C168	C	1.118758	-0.057103	0.500026
C169	C	0.776346	0.058894	0.000068
C170	C	1.276346	0.558894	0.500068
C171	C	0.839562	0.059544	0.000071
C172	C	1.339562	0.559544	0.500071
C173	C	0.667254	0.151319	0.000044
C174	C	1.167254	0.651319	0.500044
C175	C	0.667905	0.204975	0.000035
C176	C	1.167905	0.704975	0.500035
N177	N	0.672170	0.062939	0.153314
N178	N	1.172170	0.562939	0.653314
N179	N	0.672214	0.062902	-0.153197
N180	N	1.172214	0.562902	0.346803
C181	C	0.711209	0.029873	0.561964
C182	C	1.211209	0.529873	1.061964
C183	C	0.711212	0.029869	0.623884
C184	C	1.211212	0.529869	1.123884
O185	O	0.744380	0.001762	0.655911
O186	O	1.244380	0.501762	1.155911
N187	N	0.672200	0.062905	0.654851
N188	N	1.172200	0.562905	1.154851
C189	C	0.633178	0.095944	0.623894
C190	C	1.133178	0.595944	1.123894
O191	O	0.599995	0.124044	0.655919
O192	O	1.099995	0.624044	1.155919
C193	C	0.633173	0.095945	0.561975
C194	C	1.133173	0.595945	1.061975
C195	C	0.672191	0.062910	0.531012
C196	C	1.172191	0.562910	1.031012
C197	C	0.750224	-0.003160	0.531001
C198	C	1.250224	0.496840	1.031001
C199	C	0.750222	-0.003156	0.469085
C200	C	1.250222	0.496844	0.969085
C201	C	0.711204	0.029881	0.438133
C202	C	1.211204	0.529881	0.938133
C203	C	0.672189	0.062914	0.469096
C204	C	1.172189	0.562914	0.969096
C205	C	0.594149	0.128981	0.531020
C206	C	1.094149	0.628981	1.031020
C207	C	0.594146	0.128979	0.469097
C208	C	1.094146	0.628979	0.969097
C209	C	0.633165	0.095944	0.438134
C210	C	1.133165	0.595944	0.938134
C211	C	0.633169	0.095955	0.376229
C212	C	1.133169	0.595955	0.876229
N213	N	0.672182	0.062919	0.345262
N214	N	1.172182	0.562919	0.845262
C215	C	0.711199	0.029882	0.376214
C216	C	1.211199	0.529882	0.876214
C217	C	0.633191	0.095939	0.753928
C218	C	1.133191	0.595939	1.253928
C219	C	0.633198	0.095941	0.815846
C220	C	1.133198	0.595941	1.315846
C221	C	0.711232	0.029865	0.815831
C222	C	1.211232	0.529865	1.315831
C223	C	0.711227	0.029866	0.753912
C224	C	1.211227	0.529866	1.253912
C225	C	0.672203	0.062903	0.722961
C226	C	1.172203	0.562903	1.222961
C227	C	0.711192	0.029894	0.246187
C228	C	1.211192	0.529894	0.746187
C229	C	0.711187	0.029902	0.184266
C230	C	1.211187	0.529902	0.684266
C231	C	0.633152	0.095976	0.184286
C232	C	1.133152	0.595976	0.684286
C233	C	0.633158	0.095969	0.246201
C234	C	1.133158	0.595969	0.746201
C235	C	0.672180	0.062924	0.277150
C236	C	1.172180	0.562924	0.777150
O237	O	0.600016	0.124047	0.344163
O238	O	1.100016	0.624047	0.844163
O239	O	0.744372	0.001783	0.344182
O240	O	1.244372	0.501783	0.844182
H241	H	0.098146	0.186402	0.000045
H242	H	0.598146	0.686402	0.500045
H243	H	0.762185	-0.801243	0.000045
H244	H	1.262185	-0.301243	0.500045
H245	H	0.562367	0.155881	0.443900
H246	H	1.062367	0.655881	0.943900
H247	H	-0.060167	0.140653	0.000054
H248	H	0.439833	0.640653	0.500054
O249	O	0.518018	-0.020628	0.000031
O250	O	1.018018	0.479372	0.500031
C251	C	0.485403	-0.059924	0.000057
C252	C	0.985403	0.440076	0.500057
H253	H	0.440960	-0.047444	-0.018568
H254	H	0.940960	0.452556	0.481432
H255	H	0.507585	-0.090574	-0.028495
H256	H	1.007585	0.409426	0.471505
H257	H	0.481291	-0.073531	0.047253
H258	H	0.981291	0.426469	0.547253
H259	H	-0.034156	-0.019261	0.000084
H260	H	0.465844	0.480739	0.500084
O261	O	0.400933	-0.021745	0.000141
O262	O	0.900933	0.478255	0.500141
C263	C	0.367021	-0.024732	0.051102
C264	C	0.867021	0.475268	0.551102
H265	H	0.351896	0.013441	0.068080
H266	H	0.851896	0.513441	0.568080
H267	H	0.328288	-0.043812	0.039655
H268	H	0.828288	0.456188	0.539655
H269	H	0.393456	-0.046240	0.086777
H270	H	0.893456	0.453760	0.586777
O271	O	0.788108	-0.035320	0.560997
O272	O	1.288108	0.464680	1.060997
C273	C	0.779267	-0.083132	0.545875
C274	C	1.279267	0.416868	1.045875
H275	H	0.757302	-0.082974	0.500925
H276	H	1.257302	0.417026	1.000925
H277	H	0.822287	-0.107118	0.543738
H278	H	1.322287	0.392882	1.043738
H279	H	0.751064	-0.097966	0.580731
H280	H	1.251064	0.402034	1.080731
H281	H	0.581099	-0.164385	0.000070
H282	H	1.081099	0.335615	0.500070
O283	O	0.749054	-0.002279	0.845931
O284	O	1.249054	0.497721	1.345931
C285	C	0.718815	-0.031959	0.881759
C286	C	1.218815	0.468041	1.381759
H287	H	0.673911	-0.032579	0.863100
H288	H	1.173911	0.467421	1.363100
H289	H	0.742388	-0.070482	0.882464
H290	H	1.242388	0.429518	1.382464
H291	H	0.715695	-0.016816	0.928686
H292	H	1.215695	0.483184	1.428686
H293	H	0.527488	-0.298818	0.000014
H294	H	1.027488	0.201182	0.500014
H295	H	0.138506	-0.061648	0.000104
H296	H	0.638506	0.438352	0.500104
H297	H	0.742963	0.003001	0.159057
H298	H	1.242963	0.503001	0.659057
O299	O	0.565580	-0.782544	0.000050
O300	O	1.065580	-0.282544	0.500050
C301	C	0.576110	-0.833735	0.000035
C302	C	1.076110	-0.333735	0.500035
H303	H	0.620655	-0.845787	0.018666
H304	H	1.120655	-0.345787	0.518666
H305	H	0.542703	-0.849057	0.028586
H306	H	1.042703	-0.349057	0.528586
H307	H	0.573485	-0.847755	-0.047159
H308	H	1.073485	-0.347755	0.452841
O309	O	0.778903	-0.091770	0.000064
O310	O	1.278903	0.408230	0.500064
C311	C	0.824342	-0.130133	0.000080
C312	C	1.324342	0.369867	0.500080
H313	H	0.808686	-0.164308	-0.018548
H314	H	1.308686	0.335692	0.481452
H315	H	0.860844	-0.119767	-0.028474
H316	H	1.360844	0.380233	0.471526
H317	H	0.840239	-0.137345	0.047274
H318	H	1.340239	0.362655	0.547274
H319	H	0.781993	-0.030058	0.443879
H320	H	1.281993	0.469942	0.943879
O321	O	0.826254	-0.480927	0.000032
O322	O	1.326254	0.019073	0.500032
C323	C	0.871688	-0.519294	0.000050
C324	C	1.371688	-0.019294	0.500050
H325	H	0.856027	-0.553467	-0.018576
H326	H	1.356027	-0.053467	0.481424
H327	H	0.908192	-0.508932	-0.028506
H328	H	1.408192	-0.008932	0.471494
H329	H	0.887585	-0.526505	0.047244
H330	H	1.387585	-0.026505	0.547244
O331	O	0.251968	-0.067470	0.000076
O332	O	0.751968	0.432530	0.500076
C333	C	0.219342	-0.106759	0.000102
C334	C	0.719342	0.393241	0.500102
H335	H	0.174900	-0.094270	-0.018520
H336	H	0.674900	0.405730	0.481480
H337	H	0.241515	-0.137411	-0.028453
H338	H	0.741515	0.362589	0.471547
H339	H	0.215229	-0.120367	0.047298
H340	H	0.715229	0.379633	0.547298
O341	O	0.595244	0.128054	0.845828
O342	O	1.095244	0.628054	1.345828
C343	C	0.560819	0.157220	0.805223
C344	C	1.060819	0.657220	1.305223
H345	H	0.560354	0.137403	0.761086
H346	H	1.060354	0.637403	1.261086
H347	H	0.515273	0.164790	0.823113
H348	H	1.015273	0.664790	1.323113
H349	H	0.578993	0.193050	0.798637
H350	H	1.078993	0.693050	1.298637
O351	O	0.777631	-0.191120	0.000157
O352	O	1.277631	0.308880	0.500157
C353	C	0.780391	-0.220635	0.051109
C354	C	1.280391	0.279365	0.551109
H355	H	0.735207	-0.222981	0.068085
H356	H	1.235207	0.277019	0.568085
H357	H	0.801957	-0.258626	0.039653
H358	H	1.301957	0.241374	0.539653
H359	H	0.806241	-0.204165	0.086790
H360	H	1.306241	0.295835	0.586790
H361	H	0.816894	-0.575329	0.000053
H362	H	1.316894	-0.075329	0.500053
H363	H	0.574829	-0.687991	0.000022
H364	H	1.074829	-0.187991	0.500022
H365	H	0.601415	0.122846	0.728730
H366	H	1.101415	0.622846	1.228730
O367	O	0.574135	-0.067945	0.000036
O368	O	1.074135	0.432055	0.500036
C369	C	0.585876	-0.019332	0.000054
C370	C	1.085876	0.480668	0.500054
H371	H	0.630598	-0.017612	-0.018559
H372	H	1.130598	0.482388	0.481441
H373	H	0.552949	0.003668	-0.028512
H374	H	1.052949	0.503668	0.471488
H375	H	0.583576	-0.004740	0.047247
H376	H	1.083576	0.495260	0.547247
H377	H	0.819807	-0.332628	0.000074
H378	H	1.319807	0.167372	0.500074
O379	O	0.595201	0.128077	0.276191
O380	O	1.095201	0.628077	0.776191
C381	C	0.560773	0.157246	0.235591
C382	C	1.060773	0.657246	0.735591
H383	H	0.560313	0.137435	0.191449
H384	H	1.060313	0.637435	0.691449
H385	H	0.515225	0.164808	0.253479
H386	H	1.015225	0.664808	0.753479
H387	H	0.578940	0.193080	0.229014
H388	H	1.078940	0.693080	0.729014
O389	O	0.516328	-0.544459	-0.000016
O390	O	1.016328	-0.044459	0.499984
C391	C	0.470891	-0.506095	-0.000006
C392	C	0.970891	-0.006095	0.499994
H393	H	0.486557	-0.471917	-0.018619
H394	H	0.986557	0.028083	0.481381
H395	H	0.434400	-0.516454	-0.028576
H396	H	0.934400	-0.016454	0.471424
H397	H	0.454975	-0.498890	0.047184
H398	H	0.954975	0.001110	0.547184
H399	H	0.818712	-0.424077	0.000064
H400	H	1.318712	0.075923	0.500064
O401	O	0.749034	-0.002271	0.723789
O402	O	1.249034	0.497729	1.223789
C403	C	0.718771	-0.031970	0.688017
C404	C	1.218771	0.468030	1.188017
H405	H	0.674051	-0.012504	0.678725
H406	H	1.174051	0.487496	1.178725
H407	H	0.742607	-0.039764	0.644481
H408	H	1.242607	0.460236	1.144481
H409	H	0.715183	-0.067658	0.711916
H410	H	1.215183	0.432342	1.211916
H411	H	0.763286	-0.709776	0.000054
H412	H	1.263286	-0.209776	0.500054
H413	H	0.526389	-0.390270	0.000011
H414	H	1.026389	0.109730	0.500011
O415	O	0.517607	-0.445114	0.000101
O416	O	1.017607	0.054886	0.500101
C417	C	0.514832	-0.415604	0.051058
C418	C	1.014832	0.084396	0.551058
H419	H	0.560011	-0.413262	0.068047
H420	H	1.060011	0.086738	0.568047
H421	H	0.493272	-0.377612	0.039603
H422	H	0.993272	0.122388	0.539603
H423	H	0.488970	-0.432077	0.086729
H424	H	0.988970	0.067923	0.586729
O425	O	0.556189	0.161090	0.560996
O426	O	1.056189	0.661090	1.060996
C427	C	0.521763	0.190250	0.520387
C428	C	1.021763	0.690250	1.020387
H429	H	0.521302	0.170431	0.476252
H430	H	1.021302	0.670431	0.976252
H431	H	0.476215	0.197818	0.538274
H432	H	0.976215	0.697818	1.038274
H433	H	0.539932	0.226082	0.513799
H434	H	1.039932	0.726082	1.013799
H435	H	0.742966	0.002985	0.271379
H436	H	1.242966	0.502985	0.771379
O437	O	0.595272	0.128019	0.154121
O438	O	1.095272	0.628019	0.654121
C439	C	0.603649	0.120940	0.092831
C440	C	1.103649	0.620940	0.592831
H441	H	0.625281	0.082418	0.084378
H442	H	1.125281	0.582418	0.584378
H443	H	0.560473	0.126496	0.069300
H444	H	1.060473	0.626496	0.569300
H445	H	0.631964	0.148181	0.075255
H446	H	1.131964	0.648181	0.575255
O447	O	0.209358	0.194501	-0.000043
O448	O	0.709358	0.694501	0.499957
C449	C	0.190486	0.221148	-0.051000
C450	C	0.690486	0.721148	0.449000
H451	H	0.149406	0.208165	-0.067983
H452	H	0.649406	0.708165	0.432017
H453	H	0.181879	0.261443	-0.039548
H454	H	0.681879	0.761443	0.460452
H455	H	0.224913	0.215386	-0.086674
H456	H	0.724913	0.715386	0.413326
H457	H	0.486290	0.146202	0.000023
H458	H	0.986290	0.646202	0.500023
H459	H	0.378542	0.145112	0.000040
H460	H	0.878542	0.645112	0.500040
H461	H	-0.167930	0.139553	0.000058
H462	H	0.332070	0.639553	0.500058
O463	O	-0.145474	-0.027314	-0.000025
O464	O	0.354526	0.472686	0.499975
C465	C	-0.179413	-0.030304	-0.050962
C466	C	0.320587	0.469696	0.449038
H467	H	-0.165586	-0.005115	-0.086575
H468	H	0.334414	0.494885	0.413425
H469	H	-0.173740	-0.069289	-0.068057
H470	H	0.326260	0.430711	0.431943
H471	H	-0.226357	-0.018927	-0.039442
H472	H	0.273643	0.481073	0.460558
