data_functionalizedCrystal
_audit_creation_method	'MofGen! by Chris Wilmer'
_symmetry_space_group_name_H-M	'P1'
_symmetry_Int_Tables_number	1
_symmetry_cell_setting	triclinic
loop_
_symmetry_equiv_pos_as_xyz
  x,y,z
_cell_length_a	6.817900
_cell_length_b	11.168129
_cell_length_c	14.125465
_cell_angle_alpha	94.659518
_cell_angle_beta	100.398878
_cell_angle_gamma	108.508637
loop_
_atom_site_label
_atom_site_type_symbol
_atom_site_fract_x
_atom_site_fract_y
_atom_site_fract_z
V1	V	-4.016763	-0.173620	-0.299985
O2	O	-3.978122	0.009459	-0.294266
O3	O	-3.993686	-0.345333	-0.297941
O4	O	-3.952442	-0.170460	-0.430815
O5	O	-4.019651	-0.166624	-0.160472
V6	V	-4.499173	-0.151779	-0.283297
O7	O	-4.280464	-0.221529	-0.336591
O8	O	-4.685669	-0.103870	-0.246691
O9	O	-4.299043	0.019933	-0.285340
O10	O	-4.655211	-0.334859	-0.289016
O11	O	-4.613681	-0.158775	-0.422809
O12	O	-4.340287	-0.154940	-0.152467
C13	C	-3.845362	-0.387208	-0.293211
C14	C	-3.907675	-0.527582	-0.292412
C15	C	-3.904634	-0.573332	-0.208324
C16	C	-3.969036	-0.718416	-0.207497
C17	C	-3.792750	-0.164138	-0.462703
C18	C	-3.821612	-0.162690	-0.569657
C19	C	-3.874513	-0.160035	-0.765480
C20	C	-4.060791	-0.165361	-0.817802
C21	C	-4.090228	-0.163884	-0.926764
C22	C	-3.845068	-0.161513	-0.656507
C23	C	-4.110710	0.061802	-0.290068
C24	C	-4.027635	0.202175	-0.290873
C25	C	-4.163322	-0.161265	-0.120574
C26	C	-4.113698	-0.162707	-0.013619
H27	H	-3.957963	-0.595824	-0.363791
H28	H	-3.737155	-0.154368	-0.802518
O29	O	-4.224496	-0.172194	-0.773477
C30	C	-4.158204	-0.172159	-0.672972
H31	H	-4.016940	-0.207068	-0.659927
H32	H	-4.293838	-0.238266	-0.645147
H33	H	-4.110231	-0.071117	-0.632572
O34	O	-3.844884	-0.491810	-0.123237
C35	C	-3.982524	-0.420584	-0.123033
H36	H	-4.059785	-0.418378	-0.201188
H37	H	-3.888645	-0.318921	-0.085343
H38	H	-4.110438	-0.466855	-0.082405
H39	H	-4.030127	-0.758425	-0.362869
O40	O	-3.966273	-0.765634	-0.121694
C41	C	-4.031166	-0.899979	-0.139968
H42	H	-4.130352	-0.935322	-0.217279
H43	H	-4.129972	-0.942310	-0.086022
H44	H	-3.885653	-0.930940	-0.131381
