data_functionalizedCrystal
_audit_creation_method	'MofGen! by Chris Wilmer'
_symmetry_space_group_name_H-M	'P1'
_symmetry_Int_Tables_number	1
_symmetry_cell_setting	triclinic
loop_
_symmetry_equiv_pos_as_xyz
  x,y,z
_cell_length_a	10.540535
_cell_length_b	10.540539
_cell_length_c	9.130313
_cell_angle_alpha	89.999141
_cell_angle_beta	89.997873
_cell_angle_gamma	84.524567
loop_
_atom_site_label
_atom_site_type_symbol
_atom_site_fract_x
_atom_site_fract_y
_atom_site_fract_z
O1	O	1.685883	0.178867	0.121712
O2	O	1.316470	0.195729	0.121731
O3	O	1.509604	0.002592	0.121719
O4	O	1.492749	0.372005	0.121724
O5	O	1.509602	0.002597	-0.121880
O6	O	1.316467	0.195735	-0.121867
O7	O	1.685881	0.178873	-0.121887
Cu8	Cu	1.501174	0.187304	-0.144120
Cu9	Cu	1.501177	0.187298	0.143964
O10	O	1.492746	0.372010	-0.121875
C11	C	1.269165	0.194469	-0.000065
C12	C	1.128217	0.190689	-0.000058
C13	C	1.091546	0.049675	-0.000065
C14	C	0.944946	0.045698	-0.000633
C15	C	0.918880	0.255062	-0.138910
C16	C	1.065645	0.258063	-0.139013
C17	C	1.065532	0.260109	0.138015
C18	C	0.919185	0.253587	0.139825
C19	C	1.508339	-0.044709	-0.000077
C20	C	1.504557	-0.185657	-0.000069
C21	C	1.359640	-0.369081	0.000485
C22	C	1.363474	-0.222463	-0.000063
C23	C	1.572452	-0.247312	-0.139180
C24	C	1.567637	-0.393857	-0.139297
C25	C	1.570509	-0.394381	0.137720
C26	C	1.571808	-0.247399	0.139560
C27	C	1.733185	0.180133	-0.000087
C28	C	1.874134	0.183913	-0.000085
C29	C	1.494011	0.419311	-0.000075
C30	C	1.497793	0.560259	-0.000074
N31	N	1.501181	0.187308	-0.346742
C32	C	1.586723	0.101816	-0.423400
C33	C	1.586720	0.101800	-0.576737
C34	C	1.415628	0.272780	-0.576745
C35	C	1.415626	0.272788	-0.423411
C36	C	1.685506	0.003105	-0.423396
C37	C	1.685502	0.003090	-0.576733
N38	N	1.501179	0.187284	0.346587
H39	H	0.890584	0.201809	0.242530
Br40	Br	1.634027	-0.150596	-0.655996
H41	H	1.777684	0.034055	-0.375842
Br42	Br	1.104040	0.430356	-0.148878
Br43	Br	1.848106	0.039380	-0.646120
H44	H	0.870137	0.354460	0.148641
Br45	Br	1.273796	-0.152849	-0.166532
H46	H	1.517458	-0.422053	-0.243279
H47	H	1.133516	-0.004478	0.099475
H48	H	1.669102	-0.441827	-0.145613
Br49	Br	1.132606	0.177986	-0.312642
H50	H	1.087716	0.363860	0.139359
Br51	Br	1.649327	-0.159530	-0.354011
H52	H	1.135003	-0.003567	-0.099474
Br53	Br	1.493845	-0.176312	-0.311720
Br54	Br	1.274433	-0.151449	0.166144
Br55	Br	1.266853	-0.420030	-0.164339
H56	H	1.676059	-0.224960	-0.144357
H57	H	1.522130	-0.206542	0.242470
Br58	Br	0.896041	-0.047041	0.165202
H59	H	1.524848	-0.425935	0.243157
H60	H	0.916492	-0.009669	-0.100738
H61	H	0.871523	0.356828	-0.143680
Br62	Br	1.743250	-0.207025	0.153567
H63	H	0.887977	0.206252	-0.242624
Br64	Br	1.266743	-0.416744	0.166761
H65	H	1.345971	0.342376	-0.639185
Br66	Br	1.740354	-0.473095	0.139274
H67	H	1.107992	0.216104	0.243276
Br68	Br	1.299510	0.388794	-0.319372
