data_functionalizedCrystal
_audit_creation_method	'MofGen! by Chris Wilmer'
_symmetry_space_group_name_H-M	'P1'
_symmetry_Int_Tables_number	1
_symmetry_cell_setting	triclinic
loop_
_symmetry_equiv_pos_as_xyz
  x,y,z
_cell_length_a	15.995350
_cell_length_b	10.540510
_cell_length_c	9.016244
_cell_angle_alpha	90.003796
_cell_angle_beta	89.997620
_cell_angle_gamma	84.002843
loop_
_atom_site_label
_atom_site_type_symbol
_atom_site_fract_x
_atom_site_fract_y
_atom_site_fract_z
O1	O	0.117873	1.684288	0.123341
O2	O	0.129017	1.314717	0.123342
O3	O	0.001617	1.509605	0.123340
O4	O	0.245273	1.489400	0.123343
O5	O	0.001625	1.509590	-0.123341
O6	O	0.129025	1.314702	-0.123339
O7	O	0.117881	1.684273	-0.123339
Cu8	Cu	0.123453	1.499486	-0.145863
Cu9	Cu	0.123444	1.499504	0.145865
O10	O	0.245281	1.489385	-0.123338
C11	C	0.128190	1.267417	0.000001
C12	C	0.125706	1.126502	0.000002
C13	C	-0.029579	1.508762	0.000003
C14	C	-0.122544	1.506258	0.000011
C15	C	0.214210	0.907830	0.000569
C16	C	0.216860	1.054389	0.000005
C17	C	0.079048	1.082375	-0.140862
C18	C	0.077043	0.935641	-0.140971
C19	C	0.075136	0.935878	0.139551
C20	C	0.079460	1.082160	0.141404
C21	C	-0.460345	1.497265	0.000006
C22	C	-0.413731	1.358469	0.000559
C23	C	-0.317026	1.360974	0.000003
C24	C	-0.292758	1.501726	0.000009
C25	C	-0.333426	1.570176	-0.140855
C26	C	-0.430083	1.566689	-0.140973
C27	C	-0.430432	1.569574	0.139549
C28	C	-0.333487	1.569541	0.141411
C29	C	-0.198045	1.504254	0.000006
C30	C	-0.555057	1.494740	-0.000001
C31	C	0.276477	1.490228	0.000003
C32	C	0.369442	1.492732	0.000004
C33	C	0.118707	1.731573	0.000004
C34	C	0.121192	1.872489	0.000014
N35	N	0.123459	1.499483	-0.351049
C36	C	0.191599	1.395185	-0.414019
C37	C	0.191403	1.394835	-0.585910
C38	C	0.035795	1.471131	-0.586525
C39	C	0.036209	1.470362	-0.414581
C40	C	0.142167	1.632490	-0.414386
C41	C	0.144131	1.631618	-0.586342
N42	N	0.123432	1.499518	0.351052
H43	H	0.249719	0.865395	0.101591
H44	H	0.179695	1.297028	-0.370840
H45	H	-0.305322	1.522621	-0.245685
O46	O	-0.472002	1.701664	-0.149476
H47	H	-0.511335	1.712789	-0.250992
O48	O	0.082762	1.739221	-0.643169
H49	H	0.036338	1.700051	-0.717241
O50	O	0.175402	1.264097	-0.640443
H51	H	0.175215	1.263387	-0.763544
O52	O	0.265238	1.092618	0.133727
H53	H	0.223853	1.159562	0.203307
H54	H	-0.432593	1.303000	0.101576
H55	H	0.111457	1.112777	-0.245693
H56	H	0.103879	0.892942	0.246319
H57	H	0.019895	1.373378	-0.374503
H58	H	0.208613	1.653158	-0.627119
H59	H	-0.016078	1.543467	-0.372921
O60	O	-0.440094	1.285296	-0.132511
H61	H	-0.486251	1.347353	-0.199043
H62	H	-0.016187	1.545112	-0.627352
H63	H	0.019099	1.375276	-0.629625
O64	O	0.225103	1.668783	-0.356983
H65	H	0.253916	1.592416	-0.282661
O66	O	0.124431	1.119440	0.279447
H67	H	0.124858	1.224643	0.282400
O68	O	-0.008694	1.148370	0.152665
H69	H	-0.015338	1.203383	0.257732
H70	H	0.006698	0.914665	0.140502
O71	O	-0.279803	1.289685	0.133750
H72	H	-0.246387	1.355118	0.203332
O73	O	0.076373	1.735304	-0.360434
H74	H	0.030564	1.691967	-0.288857
H75	H	0.249521	0.863831	-0.099879
O76	O	-0.280525	1.289235	-0.133996
H77	H	-0.331958	1.252625	-0.198659
O78	O	-0.312341	1.705506	0.152690
H79	H	-0.371238	1.771291	0.151310
O80	O	0.119288	0.881787	-0.280453
H81	H	0.073866	0.832171	-0.346184
O82	O	-0.454722	1.500544	-0.280443
H83	H	-0.397624	1.471338	-0.347167
O84	O	0.278140	1.417078	-0.359269
H85	H	0.325079	1.342342	-0.405179
H86	H	0.253590	1.082282	-0.101141
H87	H	-0.451244	1.524201	0.246316
H88	H	-0.318689	1.673582	-0.146089
H89	H	0.008866	0.913583	-0.147371
H90	H	0.011942	1.130686	-0.146102
H91	H	-0.306538	1.519495	0.245619
H92	H	0.256511	1.411663	-0.628118
H93	H	-0.461589	1.671907	0.140500
