data_functionalizedCrystal
_audit_creation_method	'MofGen! by Chris Wilmer'
_symmetry_space_group_name_H-M	'P1'
_symmetry_Int_Tables_number	1
_symmetry_cell_setting	triclinic
loop_
_symmetry_equiv_pos_as_xyz
  x,y,z
_cell_length_a	13.185408
_cell_length_b	13.262508
_cell_length_c	11.804365
_cell_angle_alpha	117.325227
_cell_angle_beta	82.233045
_cell_angle_gamma	68.866655
loop_
_atom_site_label
_atom_site_type_symbol
_atom_site_fract_x
_atom_site_fract_y
_atom_site_fract_z
O1	O	1.491265	-0.329987	-0.205814
O2	O	1.165891	-0.213290	-0.168039
O3	O	1.348757	-0.441928	-0.242075
O4	O	1.308399	-0.101349	-0.131778
O5	O	1.300618	-0.381784	-0.024544
O6	O	1.117753	-0.153146	0.049493
O7	O	1.443127	-0.269842	0.011717
Cu8	Cu	1.276044	-0.206002	0.050467
Cu9	Cu	1.332973	-0.277130	-0.206789
O10	O	1.260261	-0.041204	0.085754
C11	C	1.100395	-0.171388	-0.055444
C12	C	0.976957	-0.136150	-0.044040
C13	C	0.898614	-0.010682	-0.003409
C14	C	0.782633	0.022434	0.007327
C15	C	0.744985	-0.069918	-0.022578
C16	C	0.823330	-0.195392	-0.063219
C17	C	0.939320	-0.228508	-0.073945
C18	C	0.785691	-0.287744	-0.093114
C19	C	0.864035	-0.413218	-0.133755
C20	C	0.980014	-0.446329	-0.144481
C21	C	1.017662	-0.353977	-0.114576
C22	C	0.669700	-0.254628	-0.082388
C23	C	0.710406	-0.472454	-0.152925
C24	C	0.826387	-0.505570	-0.163660
C25	C	1.326852	-0.454528	-0.147132
C26	C	1.333289	-0.581675	-0.188317
C27	C	1.246463	-0.808947	0.169912
C28	C	1.240406	-0.689482	0.208610
C29	C	1.263626	-0.662524	0.109381
C30	C	1.292904	-0.755043	-0.028551
C31	C	1.298952	-0.874515	-0.067251
C32	C	1.316116	-0.728093	-0.127782
C33	C	1.345394	-0.820612	-0.265715
C34	C	1.351442	-0.940072	-0.304408
C35	C	1.328221	-0.967030	-0.205180
C36	C	1.310068	-0.608621	-0.089082
C37	C	1.362558	-0.674189	-0.326245
C38	C	1.368614	-0.793654	-0.364943
C39	C	1.508623	-0.311746	-0.100880
C40	C	1.632064	-0.346985	-0.112294
C41	C	1.282166	-0.028605	-0.009193
C42	C	1.275731	0.098539	0.031983
N43	N	1.236012	-0.155978	0.231407
N44	N	1.373016	-0.327167	-0.387732
C45	C	1.469150	-0.447316	0.511016
C46	C	1.499434	-0.485164	0.374098
C47	C	1.433581	-0.402871	0.338418
C48	C	1.337439	-0.282723	0.439670
C49	C	1.307158	-0.244867	0.576602
C50	C	1.271588	-0.200422	0.404005
C51	C	1.175446	-0.080274	0.505256
C52	C	1.145170	-0.042424	0.642174
C53	C	1.211023	-0.124717	0.677854
C54	C	1.301869	-0.238278	0.267072
C55	C	1.139877	-0.035828	0.332659
C56	C	1.109593	0.002020	0.469576
H57	H	1.112101	-0.380932	-0.123311
O58	O	1.041521	0.087197	0.751399
H59	H	1.000823	0.138070	0.703593
H60	H	1.381457	-0.652239	-0.407044
O61	O	1.540173	-0.536054	0.549510
H62	H	1.612118	-0.625958	0.456106
O63	O	0.698135	0.157757	0.051162
H64	H	0.730243	0.179113	-0.022651
O65	O	0.585204	-0.119306	-0.038559
H66	H	0.617317	-0.097955	-0.112374
O67	O	1.278512	-0.508853	0.059677
H68	H	1.190568	-0.482796	0.119886
O69	O	1.208852	-0.589706	0.357364
H70	H	1.193739	-0.628526	0.419861
H71	H	1.258692	-0.565248	0.140898
H72	H	1.186364	-0.093905	0.789342
H73	H	0.929278	0.064500	0.020945
H74	H	1.043797	-0.548493	-0.177557
O75	O	0.910895	-0.640892	-0.207475
H76	H	0.918023	-0.711283	-0.310995
O77	O	0.669820	-0.572079	-0.185188
H78	H	0.576011	-0.527976	-0.170917
O79	O	1.221438	-0.838028	0.276926
H80	H	1.230576	-0.936649	0.226838
H81	H	1.333157	-1.064308	-0.236682
O82	O	1.382962	-1.039840	-0.453167
H83	H	1.398085	-1.001026	-0.515666
O84	O	0.619894	-0.034212	-0.011012
H85	H	0.571744	0.068548	0.022259
O86	O	1.400168	-0.893441	-0.513705
H87	H	1.415302	-0.854637	-0.576211
H88	H	1.458242	-0.433692	0.226932
O89	O	1.405541	-0.367867	0.157861
H90	H	1.485530	-0.372240	0.180356
H91	H	1.577712	-0.582986	0.291664
O92	O	1.005912	0.131618	0.578786
H93	H	0.941285	0.116797	0.630804
H94	H	1.086255	0.031184	0.303612
