data_functionalizedCrystal
_audit_creation_method	'MofGen! by Chris Wilmer'
_symmetry_space_group_name_H-M	'P1'
_symmetry_Int_Tables_number	1
_symmetry_cell_setting	triclinic
loop_
_symmetry_equiv_pos_as_xyz
  x,y,z
_cell_length_a	10.489741
_cell_length_b	15.995350
_cell_length_c	14.472310
_cell_angle_alpha	90.009379
_cell_angle_beta	89.999301
_cell_angle_gamma	95.984226
loop_
_atom_site_label
_atom_site_type_symbol
_atom_site_fract_x
_atom_site_fract_y
_atom_site_fract_z
O1	O	0.164399	-1.111988	-0.076762
O2	O	0.184702	-0.868335	-0.076781
O3	O	-0.011125	-0.995706	-0.076766
O4	O	0.360226	-0.984617	-0.076777
O5	O	-0.011114	-0.995673	0.076916
O6	O	0.184713	-0.868302	0.076901
O7	O	0.164411	-1.111955	0.076920
Cu8	Cu	0.174563	-0.990125	0.090943
Cu9	Cu	0.174549	-0.990164	-0.090804
O10	O	0.360237	-0.984584	0.076905
C11	C	0.183868	-0.837119	0.000058
C12	C	0.181352	-0.744153	0.000050
C13	C	-0.058639	-0.994852	0.000075
C14	C	-0.200234	-0.992346	0.000073
C15	C	0.165244	-1.143171	0.000079
C16	C	0.167761	-1.236137	0.000080
C17	C	-0.267240	-0.911304	0.000060
C18	C	-0.359892	-0.949571	0.075836
C19	C	-0.359878	-0.949623	-0.075682
C20	C	-0.291021	-1.030647	0.075912
C21	C	-0.290998	-1.030687	-0.075675
C22	C	-0.383624	-1.069013	0.000120
C23	C	0.407752	-0.985438	0.000062
C24	C	0.549346	-0.987944	0.000058
N25	N	0.174572	-0.990104	0.218774
C26	C	0.172315	-0.406351	0.000070
C27	C	0.032851	-0.452944	0.000417
C28	C	0.035368	-0.549650	0.000064
C29	C	0.176797	-0.573939	0.000061
C30	C	0.245579	-0.533285	-0.087698
C31	C	0.242076	-0.436628	-0.087765
C32	C	0.244970	-0.436269	0.087001
C33	C	0.244937	-0.533214	0.088154
C34	C	0.179338	-0.668651	0.000053
C35	C	0.169778	-0.311638	0.000072
N36	N	0.174531	-0.990192	-0.218635
C37	C	0.174544	-0.990163	0.592865
C38	C	0.278976	-0.921777	0.553691
C39	C	0.279357	-0.921938	0.446603
C40	C	0.174558	-0.990133	0.407274
C41	C	0.203626	-1.077673	0.446117
C42	C	0.204368	-1.077290	0.553238
C43	C	0.040735	-0.971787	0.553397
C44	C	0.041628	-0.969789	0.446269
C45	C	0.174563	-0.990122	0.302386
C46	C	0.174542	-0.990181	0.697753
H47	H	-0.216656	-0.844671	0.000131
H48	H	-0.260664	-1.064894	0.140046
H49	H	0.378654	-0.933757	0.420966
C50	C	-0.451667	-1.159108	0.000186
N51	N	-0.502922	-1.226966	0.000241
H52	H	0.301954	-1.093360	0.578212
C53	C	-0.038175	-0.586862	-0.085070
N54	N	-0.093568	-0.614890	-0.149197
C55	C	0.183372	-0.408145	0.176865
N56	N	0.136961	-0.386963	0.244547
C57	C	0.003002	-0.887345	0.589924
N58	N	-0.025404	-0.823739	0.617437
C59	C	-0.401140	-0.903227	0.162373
N60	N	-0.432204	-0.868315	0.227550
C61	C	-0.042133	-0.426028	-0.084121
N62	N	-0.098609	-0.405751	-0.147795
C63	C	0.181022	-0.571240	-0.175929
N64	N	0.132389	-0.599826	-0.242383
C65	C	-0.249706	-1.076991	-0.162220
N66	N	-0.218601	-1.111861	-0.227413
C67	C	0.333967	-1.099871	0.409872
N68	N	0.432146	-1.116583	0.382577
C69	C	-0.401085	-0.903299	-0.162229
N70	N	-0.432116	-0.868402	-0.227412
H71	H	-0.018699	-0.577739	0.062974
H72	H	0.191907	-0.418031	-0.153364
C73	C	0.383881	-0.394195	0.087802
N74	N	0.488504	-0.362500	0.088399
C75	C	-0.042457	-0.427440	0.085438
N76	N	-0.099181	-0.408224	0.149477
C77	C	0.255983	-0.834062	0.411124
N78	N	0.238385	-0.767869	0.384406
H79	H	0.344468	-0.404998	-0.091750
H80	H	0.348073	-0.549200	0.093452
C81	C	0.105553	-1.148176	0.588247
N82	N	0.031142	-1.201576	0.614612
H83	H	0.261942	-0.856524	0.579474
H84	H	0.349484	-0.548037	-0.090963
C85	C	0.177067	-0.569658	0.175864
N86	N	0.125936	-0.597105	0.241925
H87	H	0.377714	-0.933437	0.580598
H88	H	0.129587	-1.129811	0.420640
H89	H	0.019568	-0.905390	0.420883
C90	C	-0.068278	-1.032638	0.410127
N91	N	-0.151056	-1.079989	0.382912
C92	C	-0.064255	-1.039143	0.587626
N93	N	-0.143325	-1.089877	0.613414
