data_functionalizedCrystal
_audit_creation_method	'MofGen! by Chris Wilmer'
_symmetry_space_group_name_H-M	'P1'
_symmetry_Int_Tables_number	1
_symmetry_cell_setting	triclinic
loop_
_symmetry_equiv_pos_as_xyz
  x,y,z
_cell_length_a	16.974829
_cell_length_b	16.053802
_cell_length_c	19.288865
_cell_angle_alpha	92.551370
_cell_angle_beta	96.732854
_cell_angle_gamma	96.228883
loop_
_atom_site_label
_atom_site_type_symbol
_atom_site_fract_x
_atom_site_fract_y
_atom_site_fract_z
O1	O	1.055614	0.140761	-0.082619
O2	O	0.824616	0.125157	-0.094547
O3	O	0.946789	0.133393	0.012554
O4	O	0.933441	0.132525	-0.189719
O5	O	0.940064	-0.005919	0.006683
O6	O	0.817891	-0.014156	-0.100418
O7	O	1.048890	0.001449	-0.088489
Zn8	Zn	0.932323	-0.028472	-0.095386
Zn9	Zn	0.941183	0.155078	-0.087651
O10	O	0.926716	-0.006788	-0.195590
C11	C	0.791700	0.053504	-0.097137
C12	C	0.703642	0.047555	-0.096099
C13	C	0.207567	0.005914	-0.090625
C14	C	0.290308	0.011506	-0.091600
C15	C	0.335345	0.090242	-0.088881
C16	C	0.297636	0.163392	-0.085195
C17	C	0.214896	0.157799	-0.084225
C18	C	0.583193	0.115111	-0.091443
C19	C	0.665939	0.120698	-0.092411
C20	C	0.658605	-0.031188	-0.098817
C21	C	0.575864	-0.036773	-0.097842
C22	C	0.538162	0.036376	-0.094160
N23	N	0.419919	0.095960	-0.089876
N24	N	0.453588	0.030657	-0.093171
N25	N	0.926282	-0.153740	-0.100664
C26	C	0.978285	-0.193928	-0.055109
C27	C	0.974067	-0.281619	-0.058808
C28	C	0.917848	-0.329120	-0.108066
C29	C	0.865839	-0.288927	-0.153624
C30	C	0.870054	-0.201237	-0.149921
C31	C	0.899436	-0.591771	-0.124221
C32	C	0.895226	-0.679466	-0.127922
C33	C	1.003454	-0.672153	-0.033105
C34	C	1.007667	-0.584462	-0.029409
C35	C	0.955655	-0.544276	-0.074964
N36	N	0.913537	-0.418755	-0.111850
N37	N	0.959963	-0.454643	-0.071177
C38	C	1.081805	0.073103	-0.085899
C39	C	1.169864	0.079058	-0.086937
C40	C	0.942997	0.063706	0.035494
C41	C	0.941707	0.063611	0.112596
N42	N	0.947230	0.280346	-0.082366
C43	C	0.930508	0.062902	-0.218530
C44	C	0.931799	0.063002	-0.295632
C45	C	1.013393	0.068450	0.157367
C46	C	1.012182	0.068381	0.229813
C47	C	0.939281	0.063457	0.257485
C48	C	0.867586	0.058622	0.212705
C49	C	0.868799	0.058700	0.140261
C50	C	0.879616	0.010787	0.363657
C51	C	0.878406	0.010705	0.436100
C52	C	0.935536	0.063223	0.480928
C53	C	0.993890	0.115812	0.453304
C54	C	0.995103	0.115889	0.380860
C55	C	0.937957	0.063373	0.336038
C56	C	1.005914	0.067988	0.604253
C57	C	1.004701	0.067925	0.676701
C58	C	0.860102	0.058157	0.659591
C59	C	0.861318	0.058230	0.587145
C60	C	0.934226	0.063141	0.559481
H61	H	0.334311	0.227501	-0.082986
H62	H	1.016412	-0.314339	-0.021713
Br63	Br	1.083967	-0.519994	0.037439
Br64	Br	0.761162	0.051483	0.697138
H65	H	0.184199	0.217361	-0.081224
Br66	Br	0.532036	0.214386	-0.086443
Br67	Br	1.109477	0.074952	0.290585
Br68	Br	0.764024	0.051662	0.526381
H69	H	0.857087	-0.559059	-0.161315
H70	H	1.045799	-0.704880	0.003985
H71	H	1.040411	0.158577	0.489802
Br72	Br	0.709775	-0.130456	-0.103818
H73	H	0.830887	-0.032111	0.458584
Br74	Br	0.727061	0.227562	-0.088720
H75	H	0.849444	-0.718139	-0.168037
Br76	Br	0.514746	-0.143634	-0.101547
H77	H	0.833091	-0.031983	0.327162
H78	H	1.024068	-0.155257	-0.015001
H79	H	1.042615	0.158711	0.358372
H80	H	0.820060	-0.327608	-0.193729
H81	H	0.827706	-0.168517	-0.187016
H82	H	1.072761	0.072452	0.134848
H83	H	1.065281	0.071991	0.581728
Br84	Br	0.771503	0.052135	0.079496
H85	H	1.063079	0.071869	0.713153
H86	H	0.170903	-0.058201	-0.092841
H87	H	0.321002	-0.048056	-0.094601
Br88	Br	0.768647	0.051950	0.250258
