data_functionalizedCrystal
_audit_creation_method	'MofGen! by Chris Wilmer'
_symmetry_space_group_name_H-M	'P1'
_symmetry_Int_Tables_number	1
_symmetry_cell_setting	triclinic
loop_
_symmetry_equiv_pos_as_xyz
  x,y,z
_cell_length_a	15.995292
_cell_length_b	15.995350
_cell_length_c	14.472310
_cell_angle_alpha	89.998838
_cell_angle_beta	89.985801
_cell_angle_gamma	96.519505
loop_
_atom_site_label
_atom_site_type_symbol
_atom_site_fract_x
_atom_site_fract_y
_atom_site_fract_z
O1	O	1.111027	-0.107689	-0.076861
O2	O	1.361027	0.142311	0.173139
O3	O	1.611027	0.392311	0.423139
O4	O	1.861027	0.642311	0.673139
O5	O	0.867245	-0.121067	-0.076857
O6	O	1.117245	0.128933	0.173143
O7	O	1.367245	0.378933	0.423143
O8	O	1.617245	0.628933	0.673143
O9	O	0.995800	0.007511	-0.076858
O10	O	1.245800	0.257511	0.173142
O11	O	1.495800	0.507511	0.423142
O12	O	1.745800	0.757511	0.673142
O13	O	0.982472	-0.236267	-0.076860
O14	O	1.232472	0.013733	0.173140
O15	O	1.482472	0.263733	0.423140
O16	O	1.732472	0.513733	0.673140
O17	O	0.995767	0.007503	0.076824
O18	O	1.245767	0.257503	0.326824
O19	O	1.495767	0.507503	0.576824
O20	O	1.745767	0.757503	0.826824
O21	O	0.867212	-0.121075	0.076825
O22	O	1.117212	0.128925	0.326825
O23	O	1.367212	0.378925	0.576825
O24	O	1.617212	0.628925	0.826825
O25	O	1.110994	-0.107696	0.076821
O26	O	1.360994	0.142304	0.326821
O27	O	1.610994	0.392304	0.576821
O28	O	1.860994	0.642304	0.826821
Cu29	Cu	0.989100	-0.114386	0.090855
Cu30	Cu	1.239100	0.135614	0.340855
Cu31	Cu	1.489100	0.385614	0.590855
Cu32	Cu	1.739100	0.635614	0.840855
Cu33	Cu	0.989139	-0.114378	-0.090892
Cu34	Cu	1.239139	0.135622	0.159108
Cu35	Cu	1.489139	0.385622	0.409108
Cu36	Cu	1.739139	0.635622	0.659108
O37	O	0.982439	-0.236275	0.076822
O38	O	1.232439	0.013725	0.326822
O39	O	1.482439	0.263725	0.576822
O40	O	1.732439	0.513725	0.826822
C41	C	0.836033	-0.120527	-0.000016
C42	C	1.086033	0.129473	0.249984
C43	C	1.336033	0.379473	0.499984
C44	C	1.586033	0.629473	0.749984
C45	C	0.743080	-0.118894	-0.000014
C46	C	0.993080	0.131106	0.249986
C47	C	1.243080	0.381106	0.499986
C48	C	1.493080	0.631106	0.749986
C49	C	0.405341	-0.112893	-0.000025
C50	C	0.655341	0.137107	0.249975
C51	C	0.905341	0.387107	0.499975
C52	C	1.155341	0.637107	0.749975
C53	C	0.428654	-0.205697	-0.000368
C54	C	0.678654	0.044303	0.249632
C55	C	0.928654	0.294303	0.499632
C56	C	1.178654	0.544303	0.749632
C57	C	0.525329	-0.207461	-0.000018
C58	C	0.775329	0.042539	0.249982
C59	C	1.025329	0.292539	0.499982
C60	C	1.275329	0.542539	0.749982
C61	C	0.572897	-0.115871	-0.000020
C62	C	0.822897	0.134129	0.249980
C63	C	1.072897	0.384129	0.499980
C64	C	1.322897	0.634129	0.749980
C65	C	0.543777	-0.069477	0.087737
C66	C	0.793777	0.180523	0.337737
C67	C	1.043777	0.430523	0.587737
C68	C	1.293777	0.680523	0.837737
C69	C	0.446986	-0.068360	0.087807
C70	C	0.696986	0.181640	0.337807
C71	C	0.946986	0.431640	0.587807
C72	C	1.196986	0.681640	0.837807
C73	C	0.447168	-0.066457	-0.086958
C74	C	0.697168	0.183543	0.163042
C75	C	0.947168	0.433543	0.413042
C76	C	1.197168	0.683543	0.663042
C77	C	0.543661	-0.069896	-0.088114
C78	C	0.793661	0.180104	0.161886
C79	C	1.043661	0.430104	0.411886
C80	C	1.293661	0.680104	0.661886
C81	C	0.667593	-0.117549	-0.000014
C82	C	0.917593	0.132451	0.249986
C83	C	1.167593	0.382451	0.499986
C84	C	1.417593	0.632451	0.749986
C85	C	0.310646	-0.111212	-0.000024
C86	C	0.560646	0.138788	0.249976
C87	C	0.810646	0.388788	0.499976
C88	C	1.060646	0.638788	0.749976
C89	C	0.995232	0.038702	-0.000019
C90	C	1.245232	0.288702	0.249981
C91	C	1.495232	0.538702	0.499981
C92	C	1.745232	0.788702	0.749981
C93	C	0.993580	0.131652	-0.000024
C94	C	1.243580	0.381652	0.249976
C95	C	1.493580	0.631652	0.499976
C96	C	1.743580	0.881652	0.749976
C97	C	1.142206	-0.108237	-0.000023
C98	C	1.392206	0.141763	0.249977
C99	C	1.642206	0.391763	0.499977
C100	C	1.892206	0.641763	0.749977
C101	C	1.235159	-0.109870	-0.000030
C102	C	1.485159	0.140130	0.249970
C103	C	1.735159	0.390130	0.499970
C104	C	1.985159	0.640130	0.749970
C105	C	0.983006	-0.267466	-0.000019
C106	C	1.233006	-0.017466	0.249981
C107	C	1.483006	0.232534	0.499981
C108	C	1.733006	0.482534	0.749981
C109	C	0.984658	-0.360416	-0.000020
C110	C	1.234658	-0.110416	0.249980
C111	C	1.484658	0.139584	0.499980
C112	C	1.734658	0.389584	0.749980
N113	N	0.989078	-0.114392	0.218686
N114	N	1.239078	0.135608	0.468686
N115	N	1.489078	0.385608	0.718686
N116	N	1.739078	0.635608	0.968686
C117	C	0.987648	0.469398	-0.000021
C118	C	1.237648	0.719398	0.249979
C119	C	1.487648	0.969398	0.499979
C120	C	1.737648	1.219398	0.749979
C121	C	0.896094	0.421945	-0.000364
C122	C	1.146094	0.671945	0.249636
C123	C	1.396094	0.921945	0.499636
C124	C	1.646094	1.171945	0.749636
C125	C	0.897746	0.325255	-0.000018
C126	C	1.147746	0.575255	0.249982
C127	C	1.397746	0.825255	0.499982
C128	C	1.647746	1.075255	0.749982
C129	C	0.990591	0.301838	-0.000023
C130	C	1.240591	0.551838	0.249977
C131	C	1.490591	0.801838	0.499977
C132	C	1.740591	1.051838	0.749977
C133	C	1.035730	0.342921	0.087734
C134	C	1.285730	0.592921	0.337734
C135	C	1.535730	0.842921	0.587734
C136	C	1.785730	1.092921	0.837734
C137	C	1.033430	0.439556	0.087808
C138	C	1.283430	0.689556	0.337808
C139	C	1.533430	0.939556	0.587808
C140	C	1.783430	1.189556	0.837808
C141	C	1.035359	0.439923	-0.086958
C142	C	1.285359	0.689923	0.163042
C143	C	1.535359	0.939923	0.413042
C144	C	1.785359	1.189923	0.663042
C145	C	1.035337	0.342978	-0.088117
C146	C	1.285337	0.592978	0.161883
C147	C	1.535337	0.842978	0.411883
C148	C	1.785337	1.092978	0.661883
C149	C	0.992259	0.207141	-0.000021
C150	C	1.242259	0.457141	0.249979
C151	C	1.492259	0.707141	0.499979
C152	C	1.742259	0.957141	0.749979
C153	C	0.985983	0.564095	-0.000017
C154	C	1.235983	0.814095	0.249983
C155	C	1.485983	1.064095	0.499983
C156	C	1.735983	1.314095	0.749983
N157	N	0.989167	-0.114365	-0.218722
N158	N	1.239167	0.135635	0.031278
N159	N	1.489167	0.385635	0.281278
N160	N	1.739167	0.635635	0.531278
C161	C	0.989138	-0.114374	0.592777
C162	C	1.239138	0.135626	0.842777
C163	C	1.489138	0.385626	1.092777
C164	C	1.739138	0.635626	1.342777
C165	C	0.920120	-0.182943	0.553612
C166	C	1.170120	0.067057	0.803612
C167	C	1.420120	0.317057	1.053612
C168	C	1.670120	0.567057	1.303612
C169	C	0.920279	-0.183193	0.446524
C170	C	1.170279	0.066807	0.696524
C171	C	1.420279	0.316807	0.946524
C172	C	1.670279	0.566807	1.196524
C173	C	0.989108	-0.114383	0.407186
C174	C	1.239108	0.135617	0.657186
C175	C	1.489108	0.385617	0.907186
C176	C	1.739108	0.635617	1.157186
C177	C	1.076475	-0.133447	0.446022
C178	C	1.326475	0.116553	0.696022
C179	C	1.576475	0.366553	0.946022
C180	C	1.826475	0.616553	1.196022
C181	C	1.076087	-0.133934	0.553143
C182	C	1.326087	0.116066	0.803143
C183	C	1.576087	0.366066	1.053143
C184	C	1.826087	0.616066	1.303143
C185	C	0.971568	-0.026538	0.553308
C186	C	1.221568	0.223462	0.803308
C187	C	1.471568	0.473462	1.053308
C188	C	1.721568	0.723462	1.303308
C189	C	0.969564	-0.027124	0.446180
C190	C	1.219564	0.222876	0.696180
C191	C	1.469564	0.472876	0.946180
C192	C	1.719564	0.722876	1.196180
C193	C	0.989096	-0.114386	0.302298
C194	C	1.239096	0.135614	0.552298
C195	C	1.489096	0.385614	0.802298
C196	C	1.739096	0.635614	1.052298
C197	C	0.989155	-0.114373	0.697665
C198	C	1.239155	0.135627	0.947665
C199	C	1.489155	0.385627	1.197665
C200	C	1.739155	0.635627	1.447665
H201	H	0.433175	0.001854	-0.087553
H202	H	0.683175	0.251854	0.162447
H203	H	0.933175	0.501854	0.412447
H204	H	1.183175	0.751854	0.662447
H205	H	0.862262	0.296829	-0.062926
H206	H	1.112262	0.546829	0.187074
H207	H	1.362262	0.796829	0.437074
H208	H	1.612262	1.046829	0.687074
H209	H	1.092327	-0.196774	0.419184
H210	H	1.342327	0.053226	0.669184
H211	H	1.592327	0.303226	0.919184
H212	H	1.842327	0.553226	1.169184
H213	H	0.399622	-0.241273	0.062213
H214	H	0.649622	0.008727	0.312213
H215	H	0.899622	0.258727	0.562213
H216	H	1.149622	0.508727	0.812213
H217	H	1.103940	0.328809	0.090994
H218	H	1.353940	0.578809	0.340994
H219	H	1.603940	0.828809	0.590994
H220	H	1.853940	1.078809	0.840994
H221	H	0.576632	-0.003044	-0.093416
H222	H	0.826632	0.246956	0.156584
H223	H	1.076632	0.496956	0.406584
H224	H	1.326632	0.746956	0.656584
H225	H	0.432435	-0.000316	0.091792
H226	H	0.682435	0.249684	0.341792
H227	H	0.932435	0.499684	0.591792
H228	H	1.182435	0.749684	0.841792
H229	H	0.931499	-0.248375	0.420889
H230	H	1.181499	0.001625	0.670889
H231	H	1.431499	0.251625	0.920889
H232	H	1.681499	0.501625	1.170889
H233	H	1.102861	0.471698	-0.087551
H234	H	1.352861	0.721698	0.162449
H235	H	1.602861	0.971698	0.412449
H236	H	1.852861	1.221698	0.662449
H237	H	0.861997	0.297380	0.062999
H238	H	1.111997	0.547380	0.312999
H239	H	1.361997	0.797380	0.562999
H240	H	1.611997	1.047380	0.812999
H241	H	0.575644	-0.002079	0.090999
H242	H	0.825644	0.247921	0.340999
H243	H	1.075644	0.497921	0.590999
H244	H	1.325644	0.747921	0.840999
H245	H	0.562245	-0.103675	-0.153037
H246	H	0.812245	0.146325	0.096963
H247	H	1.062245	0.396325	0.346963
H248	H	1.312245	0.646325	0.596963
H249	H	1.000486	0.457847	0.153412
H250	H	1.250486	0.707847	0.403412
H251	H	1.500486	0.957847	0.653412
H252	H	1.750486	1.207847	0.903412
H253	H	1.002335	0.315725	-0.153038
H254	H	1.252335	0.565725	0.096962
H255	H	1.502335	0.815725	0.346962
H256	H	1.752335	1.065725	0.596962
H257	H	1.103045	0.327630	-0.093420
H258	H	1.353045	0.577630	0.156580
H259	H	1.603045	0.827630	0.406580
H260	H	1.853045	1.077630	0.656580
H261	H	1.129049	-0.085960	0.579049
H262	H	1.379049	0.164040	0.829049
H263	H	1.629049	0.414040	1.079049
H264	H	1.879049	0.664040	1.329049
H265	H	1.004351	0.314530	0.153044
H266	H	1.254351	0.564530	0.403044
H267	H	1.504351	0.814530	0.653044
H268	H	1.754351	1.064530	0.903044
H269	H	0.909244	-0.008203	0.580376
H270	H	1.159244	0.241797	0.830376
H271	H	1.409244	0.491797	1.080376
H272	H	1.659244	0.741797	1.330376
H273	H	1.091569	-0.197992	0.578118
H274	H	1.341569	0.052008	0.828118
H275	H	1.591569	0.302008	1.078118
H276	H	1.841569	0.552008	1.328118
H277	H	0.563822	-0.101701	0.153047
H278	H	0.813822	0.148299	0.403047
H279	H	1.063822	0.398299	0.653047
H280	H	1.313822	0.648299	0.903047
H281	H	0.418855	-0.095461	-0.153473
H282	H	0.668855	0.154539	0.096527
H283	H	0.918855	0.404539	0.346527
H284	H	1.168855	0.654539	0.596527
H285	H	0.905296	-0.012657	0.420799
H286	H	1.155296	0.237343	0.670799
H287	H	1.405296	0.487343	0.920799
H288	H	1.655296	0.737343	1.170799
H289	H	1.129060	-0.084832	0.420538
H290	H	1.379060	0.165168	0.670538
H291	H	1.629060	0.415168	0.920538
H292	H	1.879060	0.665168	1.170538
H293	H	0.855338	-0.171838	0.420269
H294	H	1.105338	0.078162	0.670269
H295	H	1.355338	0.328162	0.920269
H296	H	1.605338	0.578162	1.170269
H297	H	1.016569	0.026291	0.419406
H298	H	1.266569	0.276291	0.669406
H299	H	1.516569	0.526291	0.919406
H300	H	1.766569	0.776291	1.169406
H301	H	0.859514	0.440472	-0.063297
H302	H	1.109514	0.690472	0.186703
H303	H	1.359514	0.940472	0.436703
H304	H	1.609514	1.190472	0.686703
H305	H	1.021900	0.024488	0.578633
H306	H	1.271900	0.274488	0.828633
H307	H	1.521900	0.524488	1.078633
H308	H	1.771900	0.774488	1.328633
H309	H	0.859649	0.441528	0.062219
H310	H	1.109649	0.691528	0.312219
H311	H	1.359649	0.941528	0.562219
H312	H	1.609649	1.191528	0.812219
H313	H	0.543719	-0.244020	0.062997
H314	H	0.793719	0.005980	0.312997
H315	H	1.043719	0.255980	0.562997
H316	H	1.293719	0.505980	0.812997
H317	H	1.100647	0.471818	0.091786
H318	H	1.350647	0.721818	0.341786
H319	H	1.600647	0.971818	0.591786
H320	H	1.850647	1.221818	0.841786
H321	H	0.854968	-0.171775	0.579401
H322	H	1.104968	0.078225	0.829401
H323	H	1.354968	0.328225	1.079401
H324	H	1.604968	0.578225	1.329401
H325	H	1.005439	0.460460	-0.153473
H326	H	1.255439	0.710460	0.096527
H327	H	1.505439	0.960460	0.346527
H328	H	1.755439	1.210460	0.596527
H329	H	0.931185	-0.247758	0.580521
H330	H	1.181185	0.002242	0.830521
H331	H	1.431185	0.252242	1.080521
H332	H	1.681185	0.502242	1.330521
H333	H	0.544369	-0.243790	-0.062928
H334	H	0.794369	0.006210	0.187072
H335	H	1.044369	0.256210	0.437072
H336	H	1.294369	0.506210	0.687072
H337	H	0.400671	-0.241465	-0.063303
H338	H	0.650671	0.008535	0.186697
H339	H	0.900671	0.258535	0.436697
H340	H	1.150671	0.508535	0.686697
H341	H	0.420155	-0.100497	0.153408
H342	H	0.670155	0.149503	0.403408
H343	H	0.920155	0.399503	0.653408
H344	H	1.170155	0.649503	0.903408
