data_functionalizedCrystal
_audit_creation_method	'MofGen! by Chris Wilmer'
_symmetry_space_group_name_H-M	'P1'
_symmetry_Int_Tables_number	1
_symmetry_cell_setting	triclinic
loop_
_symmetry_equiv_pos_as_xyz
  x,y,z
_cell_length_a	19.188900
_cell_length_b	17.038272
_cell_length_c	18.266242
_cell_angle_alpha	89.995358
_cell_angle_beta	90.014008
_cell_angle_gamma	92.877977
loop_
_atom_site_label
_atom_site_type_symbol
_atom_site_fract_x
_atom_site_fract_y
_atom_site_fract_z
O1	O	-0.932215	0.097478	-0.061025
O2	O	-0.729719	0.110640	-0.060995
O3	O	-0.829764	-0.009753	-0.061004
O4	O	-0.832171	0.217870	-0.061016
O5	O	-0.829752	-0.009755	0.060758
O6	O	-0.729707	0.110637	0.060767
O7	O	-0.932204	0.097475	0.060737
Zn8	Zn	-0.830953	0.104056	0.080084
Zn9	Zn	-0.830969	0.104059	-0.080342
O10	O	-0.832159	0.217868	0.060746
C11	C	-0.703675	0.110216	-0.000110
C12	C	-0.626091	0.108948	-0.000099
C13	C	-0.589668	0.108341	-0.066472
C14	C	-0.516769	0.107141	-0.066480
C15	C	-0.480298	0.106533	-0.000110
C16	C	-0.516730	0.107145	0.066272
C17	C	-0.589626	0.108353	0.066278
N18	N	-0.368391	0.060152	0.049287
N19	N	-0.299143	0.059003	0.049278
C20	C	-0.260665	0.102896	-0.000122
N21	N	-0.294052	0.147972	-0.049523
N22	N	-0.363307	0.149117	-0.049516
C23	C	-0.401254	0.105224	-0.000108
C24	C	-0.145197	0.100989	-0.066508
C25	C	-0.072297	0.099794	-0.066513
C26	C	-0.072259	0.099790	0.066241
C27	C	-0.145157	0.100992	0.066244
C28	C	-0.181622	0.101588	-0.000133
C29	C	-0.827568	-0.038875	-0.000123
C30	C	-0.821037	-0.125647	-0.000122
C31	C	-0.881004	-0.175956	-0.000130
C32	C	-0.874863	-0.257486	-0.000136
C33	C	-0.808754	-0.288706	-0.000129
C34	C	-0.748783	-0.238391	-0.000123
C35	C	-0.754924	-0.156862	-0.000122
C36	C	-0.787056	-0.534394	-0.000136
C37	C	-0.780918	-0.615929	-0.000134
C38	C	-0.906999	-0.635019	-0.000149
C39	C	-0.913135	-0.553488	-0.000143
C40	C	-0.853164	-0.503179	-0.000142
C41	C	-0.802475	-0.372044	-0.000133
C42	C	-0.859443	-0.419844	-0.000143
C43	C	0.041753	0.097904	-0.000143
C44	C	-0.035830	0.099187	-0.000142
C45	C	-0.834354	0.246990	-0.000137
C46	C	-0.840885	0.333762	-0.000142
N47	N	-0.830980	0.104056	-0.189829
N48	N	-0.830948	0.104053	0.189571
C49	C	-0.875281	0.050761	0.771845
C50	C	-0.875282	0.050763	0.695200
C51	C	-0.830969	0.104052	0.656884
C52	C	-0.786664	0.157357	0.695219
C53	C	-0.786670	0.157359	0.771863
N54	N	-0.769786	0.114190	0.536566
N55	N	-0.769783	0.114183	0.463758
C56	C	-0.830952	0.104051	0.425961
N57	N	-0.892125	0.093910	0.463724
N58	N	-0.892127	0.093912	0.536538
C59	C	-0.830959	0.104056	0.573777
C60	C	-0.875258	0.050754	0.304528
C61	C	-0.875261	0.050762	0.227882
C62	C	-0.786636	0.157353	0.227903
C63	C	-0.786640	0.157349	0.304548
C64	C	-0.830950	0.104046	0.342856
H65	H	-0.487108	0.106648	-0.120531
H66	H	-0.727082	-0.641345	-0.000117
H67	H	-0.911341	0.007354	0.335720
N68	N	-0.971678	-0.689281	-0.000164
H69	H	-1.014489	-0.657131	-0.000170
H70	H	-0.971874	-0.723530	0.044973
H71	H	-0.487030	0.106652	0.120311
H72	H	-0.619282	0.108848	0.120329
N73	N	-0.677481	-0.272067	-0.000113
H74	H	-0.650986	-0.253707	0.045028
H75	H	-0.651050	-0.253694	-0.045276
N76	N	-0.628994	0.109002	-0.138063
H77	H	-0.680701	0.109861	-0.127990
H78	H	-0.619053	0.060345	-0.167048
H79	H	-0.911363	0.007360	0.803033
H80	H	-0.911340	0.007365	0.196676
H81	H	-0.750585	0.200748	0.664019
H82	H	-0.738223	-0.493442	-0.000134
N83	N	-0.923068	-0.006721	0.653850
H84	H	-0.951139	-0.040486	0.689748
H85	H	-0.894283	-0.041197	0.622064
H86	H	-0.750563	0.200744	0.335755
H87	H	-0.750559	0.200745	0.196707
H88	H	-0.174887	0.101482	-0.120556
H89	H	-0.706093	-0.115901	-0.000116
H90	H	-0.042642	0.099304	-0.120564
H91	H	-0.042564	0.099299	0.120281
N92	N	-0.184448	0.101647	0.137833
H93	H	-0.150284	0.101081	0.179878
H94	H	-0.217484	0.053701	0.140731
N95	N	-0.738880	0.214839	0.813206
H96	H	-0.710806	0.248600	0.777306
H97	H	-0.706246	0.184996	0.845014
N98	N	-0.952307	-0.142285	-0.000131
H99	H	-0.989364	-0.186531	-0.000138
H100	H	-0.957608	-0.108869	-0.045269
H101	H	-0.923694	-0.298445	-0.000141
N102	N	-0.930745	-0.386177	-0.000144
H103	H	-0.936112	-0.352768	-0.045279
H104	H	-0.936042	-0.352820	0.045025
H105	H	-0.966968	-0.528075	-0.000149
H106	H	-0.748649	-0.397472	-0.000125
