data_functionalizedCrystal
_audit_creation_method	'MofGen! by Chris Wilmer'
_symmetry_space_group_name_H-M	'P1'
_symmetry_Int_Tables_number	1
_symmetry_cell_setting	triclinic
loop_
_symmetry_equiv_pos_as_xyz
  x,y,z
_cell_length_a	12.645331
_cell_length_b	25.639239
_cell_length_c	25.639234
_cell_angle_alpha	89.975416
_cell_angle_beta	89.981581
_cell_angle_gamma	90.037665
loop_
_atom_site_label
_atom_site_type_symbol
_atom_site_fract_x
_atom_site_fract_y
_atom_site_fract_z
Zn1	Zn	1.620532	-0.208199	-0.295623
Zn2	Zn	2.120532	0.291801	0.204377
Zn3	Zn	1.620362	-0.295626	-0.208187
Zn4	Zn	2.120362	0.204374	0.291813
Zn5	Zn	1.443260	-0.208205	-0.208200
Zn6	Zn	1.943260	0.291795	0.291800
Zn7	Zn	1.443163	-0.295603	-0.295590
Zn8	Zn	1.943163	0.204397	0.204410
O9	O	1.531829	-0.251908	-0.251900
O10	O	2.031829	0.248092	0.248100
O11	O	1.768857	-0.219803	-0.284032
O12	O	2.268857	0.280197	0.215968
O13	O	1.596838	-0.284042	-0.135023
O14	O	2.096838	0.215958	0.364977
O15	O	1.466887	-0.135039	-0.219816
O16	O	1.966887	0.364961	0.280184
O17	O	1.768732	-0.284036	-0.219794
O18	O	2.268732	0.215964	0.280206
O19	O	1.597128	-0.135034	-0.284045
O20	O	2.097128	0.364966	0.215955
O21	O	1.466722	-0.219814	-0.135033
O22	O	1.966722	0.280186	0.364967
O23	O	1.294900	-0.219792	-0.219784
O24	O	1.794900	0.280208	0.280216
O25	O	1.466723	-0.283996	-0.368760
O26	O	1.966723	0.216004	0.131240
O27	O	1.294829	-0.284003	-0.283989
O28	O	1.794829	0.215997	0.216011
O29	O	1.597035	-0.219781	-0.368784
O30	O	2.097035	0.280219	0.131216
O31	O	1.596745	-0.368788	-0.219762
O32	O	2.096745	0.131212	0.280238
O33	O	1.466558	-0.368771	-0.283977
O34	O	1.966558	0.131229	0.216023
C35	C	1.256400	-0.251896	-0.251885
C36	C	1.756400	0.248104	0.248115
C37	C	1.138569	-0.251903	-0.251891
C38	C	1.638569	0.248097	0.248109
C39	C	0.971015	-0.211322	-0.211722
C40	C	1.471015	0.288678	0.288278
C41	C	1.093574	-0.211427	-0.211545
C42	C	1.593574	0.288573	0.288455
C43	C	1.094011	-0.306979	-0.236834
C44	C	1.594011	0.193021	0.263166
C45	C	0.971412	-0.306757	-0.236560
C46	C	1.471412	0.193243	0.263440
C47	C	0.971422	-0.237932	-0.307271
C48	C	1.471422	0.262068	0.192729
C49	C	1.094029	-0.236702	-0.306964
C50	C	1.594029	0.263298	0.193036
C51	C	1.531651	-0.387751	-0.251876
C52	C	2.031651	0.112249	0.248124
C53	C	1.531672	-0.445865	-0.251883
C54	C	2.031672	0.054135	0.248117
C55	C	1.599794	-0.806224	-0.218520
C56	C	2.099794	-0.306224	0.281480
C57	C	1.599836	-0.860828	-0.218527
C58	C	2.099836	-0.360828	0.281473
O59	O	1.657571	-0.889062	-0.190135
O60	O	2.157571	-0.389062	0.309865
N61	N	1.532016	-0.888147	-0.251934
N62	N	2.032016	-0.388147	0.248066
C63	C	1.464158	-0.860859	-0.285341
C64	C	1.964158	-0.360859	0.214659
O65	O	1.406476	-0.889110	-0.313757
O66	O	1.906476	-0.389110	0.186243
C67	C	1.464123	-0.806256	-0.285336
C68	C	1.964123	-0.306256	0.214664
C69	C	1.531940	-0.778940	-0.251923
C70	C	2.031940	-0.278940	0.248077
C71	C	1.667607	-0.778908	-0.185110
C72	C	2.167607	-0.278908	0.314890
C73	C	1.667564	-0.724308	-0.185103
C74	C	2.167564	-0.224308	0.314897
C75	C	1.599709	-0.697023	-0.218505
C76	C	2.099709	-0.197023	0.281495
C77	C	1.531897	-0.724339	-0.251915
C78	C	2.031897	-0.224339	0.248085
C79	C	1.396271	-0.778968	-0.318744
C80	C	1.896271	-0.278968	0.181256
C81	C	1.396242	-0.724361	-0.318737
C82	C	1.896242	-0.224361	0.181263
C83	C	1.464059	-0.697045	-0.285324
C84	C	1.964059	-0.197045	0.214676
C85	C	1.463999	-0.642454	-0.285310
C86	C	1.963999	-0.142454	0.214690
N87	N	1.531819	-0.615135	-0.251903
N88	N	2.031819	-0.115135	0.248097
C89	C	1.599674	-0.642420	-0.218500
C90	C	2.099674	-0.142420	0.281500
C91	C	1.464238	-0.975530	-0.285349
C92	C	1.964238	-0.475530	0.214651
C93	C	1.464266	-1.030132	-0.285351
C94	C	1.964266	-0.530132	0.214649
C95	C	1.599946	-1.030098	-0.218538
C96	C	2.099946	-0.530098	0.281462
C97	C	1.599911	-0.975494	-0.218534
C98	C	2.099911	-0.475494	0.281466
C99	C	1.532058	-0.948211	-0.251941
C100	C	2.032058	-0.448211	0.248059
C101	C	1.599579	-0.527755	-0.218487
C102	C	2.099579	-0.027755	0.281513
C103	C	1.599527	-0.473149	-0.218481
C104	C	2.099527	0.026851	0.281519
C105	C	1.463851	-0.473188	-0.285295
C106	C	1.963851	0.026812	0.214705
C107	C	1.463899	-0.527789	-0.285300
C108	C	1.963899	-0.027789	0.214700
C109	C	1.531771	-0.555071	-0.251894
C110	C	2.031771	-0.055071	0.248106
O111	O	1.406296	-0.614186	-0.313690
O112	O	1.906296	-0.114186	0.186310
O113	O	1.657356	-0.614162	-0.190094
O114	O	2.157356	-0.114162	0.309906
C115	C	1.808334	-0.251921	-0.251915
C116	C	2.308334	0.248079	0.248085
C117	C	1.926165	-0.251927	-0.251922
C118	C	2.426165	0.248073	0.248078
C119	C	1.531887	-0.251885	-0.388273
C120	C	2.031887	0.248115	0.111727
C121	C	1.531911	-0.251875	-0.446387
C122	C	2.031911	0.248125	0.053613
C123	C	1.532037	-0.115535	-0.251935
C124	C	2.032037	0.384465	0.248065
C125	C	1.532126	-0.057421	-0.251950
C126	C	2.032126	0.442579	0.248050
C127	C	1.599691	-0.285276	-0.697568
C128	C	2.099691	0.214724	-0.197568
C129	C	1.599679	-0.285287	-0.642964
C130	C	2.099679	0.214713	-0.142964
O131	O	1.657259	-0.313743	-0.614716
O132	O	2.157259	0.186257	-0.114716
N133	N	1.531934	-0.251850	-0.615661
N134	N	2.031934	0.248150	-0.115661
C135	C	1.464188	-0.218404	-0.642965
C136	C	1.964188	0.281596	-0.142965
O137	O	1.406564	-0.189965	-0.614728
O138	O	1.906564	0.310035	-0.114728
C139	C	1.464195	-0.218396	-0.697569
C140	C	1.964195	0.281604	-0.197569
C141	C	1.531952	-0.251831	-0.724869
C142	C	2.031952	0.248169	-0.224869
C143	C	1.667442	-0.318709	-0.724868
C144	C	2.167442	0.181291	-0.224868
C145	C	1.667454	-0.318697	-0.779469
C146	C	2.167454	0.181303	-0.279469
C147	C	1.599715	-0.285252	-0.806769
C148	C	2.099715	0.214748	-0.306769
C149	C	1.531964	-0.251819	-0.779469
C150	C	2.031964	0.248181	-0.279469
C151	C	1.396444	-0.184953	-0.724872
C152	C	1.896444	0.315047	-0.224872
C153	C	1.396456	-0.184948	-0.779479
C154	C	1.896456	0.315052	-0.279479
C155	C	1.464213	-0.218383	-0.806779
C156	C	1.964213	0.281617	-0.306779
C157	C	1.464238	-0.218363	-0.861370
C158	C	1.964238	0.281637	-0.361370
N159	N	1.531983	-0.251800	-0.888673
N160	N	2.031983	0.248200	-0.388673
C161	C	1.599722	-0.285245	-0.861373
C162	C	2.099722	0.214755	-0.361373
C163	C	1.464178	-0.218424	-0.528295
C164	C	1.964178	0.281576	-0.028295
C165	C	1.464176	-0.218428	-0.473692
C166	C	1.964176	0.281572	0.026308
C167	C	1.599666	-0.285312	-0.473694
C168	C	2.099666	0.214688	0.026306
C169	C	1.599673	-0.285304	-0.528298
C170	C	2.099673	0.214696	-0.028298
C171	C	1.531923	-0.251860	-0.555597
C172	C	2.031923	0.248140	-0.055597
C173	C	1.599743	-0.285217	-0.976038
C174	C	2.099743	0.214783	-0.476038
C175	C	1.599753	-0.285201	-1.030643
C176	C	2.099753	0.214799	-0.530643
C177	C	1.464259	-0.218319	-1.030636
C178	C	1.964259	0.281681	-0.530636
C179	C	1.464253	-0.218333	-0.976035
C180	C	1.964253	0.281667	-0.476035
C181	C	1.531999	-0.251786	-0.948738
C182	C	2.031999	0.248214	-0.448738
O183	O	1.406685	-0.189923	-0.889652
O184	O	1.906685	0.310077	-0.389652
O185	O	1.657327	-0.313684	-0.889616
O186	O	2.157327	0.186316	-0.389616
C187	C	1.531833	-0.251894	-0.116057
C188	C	2.031833	0.248106	0.383943
C189	C	1.532014	-0.251756	-0.057944
C190	C	2.032014	0.248244	0.442056
H191	H	0.940553	-0.198472	-0.320963
H192	H	1.440553	0.301528	0.179037
H193	H	1.123161	-0.196172	-0.318317
H194	H	1.623161	0.303828	0.181683
H195	H	1.722868	-0.801117	-0.157910
H196	H	2.222868	-0.301117	0.342090
Cl197	Cl	1.684819	-0.327360	-0.439363
Cl198	Cl	2.184819	0.172640	0.060637
H199	H	1.409012	-0.191184	-0.550519
H200	H	1.909012	0.308816	-0.050519
Cl201	Cl	1.684903	-0.562043	-0.176489
Cl202	Cl	2.184903	-0.062043	0.323511
H203	H	1.341285	-0.157713	-0.801704
H204	H	1.841285	0.342287	-0.301704
Cl205	Cl	1.684911	-0.327272	-0.941729
Cl206	Cl	2.184911	0.172728	-0.441729
H207	H	1.409014	-0.191196	-0.451469
H208	H	1.909014	0.308804	0.048531
Cl209	Cl	1.685171	-0.941160	-0.176528
Cl210	Cl	2.185171	-0.441160	0.323472
H211	H	1.340989	-0.702150	-0.345943
H212	H	1.840989	-0.202150	0.154057
H213	H	1.722625	-0.345925	-0.801691
H214	H	2.222625	0.154075	-0.301691
H215	H	1.124662	-0.264119	-0.338518
H216	H	1.624662	0.235881	0.161482
H217	H	1.722789	-0.702070	-0.157896
H218	H	2.222789	-0.202070	0.342104
H219	H	0.942417	-0.267507	-0.337224
H220	H	1.442417	0.232493	0.162776
Cl221	Cl	1.685249	-1.064408	-0.176545
Cl222	Cl	2.185249	-0.564408	0.323455
H223	H	1.409094	-0.191101	-0.953807
H224	H	1.909094	0.308899	-0.453807
Cl225	Cl	1.378558	-0.438878	-0.327287
Cl226	Cl	1.878558	0.061122	0.172713
H227	H	1.341267	-0.157727	-0.702654
H228	H	1.841267	0.342273	-0.202654
Cl229	Cl	1.684789	-0.438813	-0.176473
Cl230	Cl	2.184789	0.061187	0.323527
Cl231	Cl	1.311022	-0.813295	-0.360758
Cl232	Cl	1.811022	-0.313295	0.139242
Cl233	Cl	1.752612	-0.360759	-0.690557
Cl234	Cl	2.252612	0.139241	-0.190557
H235	H	1.409033	-1.052368	-0.312555
H236	H	1.909033	-0.552368	0.187445
H237	H	1.408680	-0.550031	-0.312509
H238	H	1.908680	-0.050031	0.187491
Cl239	Cl	1.140097	-0.148371	-0.226115
Cl240	Cl	1.640097	0.351629	0.273885
Cl241	Cl	0.925570	-0.148074	-0.226135
Cl242	Cl	1.425570	0.351926	0.273865
Cl243	Cl	1.684855	-0.327340	-0.562612
Cl244	Cl	2.184855	0.172660	-0.062612
H245	H	1.122852	-0.220676	-0.170529
H246	H	1.622852	0.279324	0.329471
Cl247	Cl	1.379107	-0.176276	-1.064967
Cl248	Cl	1.879107	0.323724	-0.564967
H249	H	1.408974	-0.953318	-0.312552
H250	H	1.908974	-0.453318	0.187448
H251	H	0.940166	-0.220468	-0.170947
H252	H	1.440166	0.279532	0.329053
H253	H	1.124663	-0.319052	-0.196805
H254	H	1.624663	0.180948	0.303195
Cl255	Cl	1.684940	-0.327237	-1.064960
Cl256	Cl	2.184940	0.172763	-0.564960
H257	H	0.942764	-0.318626	-0.196097
H258	H	1.442764	0.181374	0.303903
Cl259	Cl	0.925596	-0.355049	-0.279789
Cl260	Cl	1.425596	0.144951	0.220211
H261	H	1.123153	-0.338041	-0.265194
H262	H	1.623153	0.161959	0.234806
