data_functionalizedCrystal
_audit_creation_method	'MofGen! by Chris Wilmer'
_symmetry_space_group_name_H-M	'P1'
_symmetry_Int_Tables_number	1
_symmetry_cell_setting	triclinic
loop_
_symmetry_equiv_pos_as_xyz
  x,y,z
_cell_length_a	14.560438
_cell_length_b	18.426585
_cell_length_c	14.560438
_cell_angle_alpha	90.000730
_cell_angle_beta	60.000095
_cell_angle_gamma	59.998545
loop_
_atom_site_label
_atom_site_type_symbol
_atom_site_fract_x
_atom_site_fract_y
_atom_site_fract_z
Zr1	Zr	1.005365	0.699060	-0.120567
O2	O	1.196971	0.583171	-0.267216
O3	O	0.813755	0.734592	-0.075609
O4	O	1.005369	0.734579	-0.267217
O5	O	1.005355	0.583188	0.075533
O6	O	1.005375	0.854005	-0.267221
O7	O	1.005358	0.583184	-0.075608
O8	O	0.662614	0.854029	0.075531
O9	O	1.348117	0.583164	-0.267218
O10	O	0.892573	0.838865	-0.056441
O11	O	0.892566	0.749741	0.056357
O12	O	1.118166	0.749726	-0.169237
O13	O	1.118160	0.660602	-0.056439
Zr14	Zr	1.005371	0.889535	0.120479
Zr15	Zr	1.005375	0.889530	-0.120573
Zr16	Zr	1.005361	0.699065	0.120485
Zr17	Zr	1.246424	0.699048	-0.120572
Zr18	Zr	0.764311	0.889547	0.120483
O19	O	1.196980	0.854003	0.075521
O20	O	1.196986	0.853996	-0.267224
O21	O	1.196965	0.583178	0.075529
O22	O	0.813764	1.005424	0.267127
O23	O	0.813770	1.005417	-0.075618
O24	O	0.813750	0.734599	0.267136
O25	O	1.005380	1.005408	-0.075621
O26	O	1.005366	0.854016	0.267129
O27	O	1.005360	0.734590	0.267132
O28	O	1.005378	1.005411	0.075519
O29	O	1.348125	0.734563	-0.267223
O30	O	0.662611	0.854032	0.267135
O31	O	0.662619	1.005431	0.267130
O32	O	0.662622	1.005427	0.075526
O33	O	1.348113	0.583168	-0.075614
O34	O	1.348122	0.734567	-0.075619
O35	O	0.892569	0.838870	0.169149
O36	O	0.892576	0.927993	0.056351
O37	O	1.118169	0.838854	-0.056445
O38	O	1.118163	0.749730	0.056353
C39	C	0.703839	0.794312	-0.000039
C40	C	0.601503	0.794317	-0.000037
C41	C	0.374013	0.860087	0.083218
C42	C	0.470148	0.860109	0.083224
C43	C	0.636722	0.728504	-0.083315
C44	C	0.540588	0.728487	-0.083324
C45	C	1.005355	0.556048	-0.000036
C46	C	1.005351	0.475188	-0.000034
C47	C	1.005390	0.179074	-0.000054
C48	C	1.005384	0.261460	-0.000051
C49	C	1.005370	0.327128	-0.000045
C50	C	1.005364	0.409520	-0.000040
C51	C	1.306897	0.794283	-0.000050
C52	C	1.409233	0.794278	-0.000052
C53	C	1.005373	0.794292	-0.301564
C54	C	1.005374	0.794289	-0.403897
C55	C	1.005380	1.032547	-0.000052
C56	C	1.005385	1.113407	-0.000054
C57	C	1.123130	0.747761	-0.510851
C58	C	1.123124	0.747771	-0.607000
C59	C	0.887596	0.840840	-0.489226
C60	C	0.887604	0.840835	-0.393080
C61	C	1.005363	0.794304	0.301475
C62	C	1.005361	0.794306	0.403808
C63	C	0.703852	1.032562	-0.000046
C64	C	0.601520	1.113426	-0.000047
C65	C	0.703834	0.794318	0.301481
C66	C	0.601496	0.794325	0.403816
C67	C	0.703846	1.032568	0.301473
C68	C	0.601513	1.113434	0.403805
C69	C	1.306889	0.556027	-0.301562
C70	C	1.409222	0.475161	-0.403894
C71	C	1.306884	0.556034	-0.000042
C72	C	1.409216	0.475169	-0.000041
C73	C	1.306902	0.794277	-0.301569
C74	C	1.409240	0.794270	-0.403904
C75	C	0.553462	1.104877	-0.058934
C76	C	0.457324	1.180851	-0.058957
C77	C	0.409238	1.265373	-0.000086
C78	C	0.457305	1.273920	0.058802
C79	C	0.553449	1.197947	0.058818
C80	C	0.553460	1.197940	0.392983
C81	C	0.457320	1.273930	0.489125
C82	C	0.409228	1.265413	0.596090
C83	C	0.457291	1.180898	0.606911
C84	C	0.553436	1.104910	0.510769
C85	C	1.457288	0.390655	-0.393071
C86	C	1.553457	0.314665	-0.489214
C87	C	1.601554	0.323182	-0.596178
C88	C	1.553484	0.407697	-0.606999
C89	C	1.457323	0.483685	-0.510857
C90	C	1.457283	0.483718	0.058835
C91	C	1.553448	0.407744	0.058832
C92	C	1.601537	0.323222	-0.000042
C93	C	1.553465	0.314675	-0.058926
C94	C	1.457309	0.390648	-0.058929
C95	C	0.553417	0.840852	0.510769
C96	C	0.457269	0.840848	0.606920
C97	C	0.457283	0.747790	0.489150
C98	C	0.553436	0.747789	0.393002
H99	H	0.569277	0.674896	-0.151139
C100	C	0.404380	0.892036	0.724569
N101	N	0.364543	0.930594	0.813184
H102	H	0.267061	0.913659	0.151023
H103	H	0.441459	0.913698	0.151030
C104	C	1.404430	0.381228	-0.123687
N105	N	1.364605	0.374127	-0.172464
H106	H	1.219026	0.709861	-0.519665
H107	H	0.418199	1.173874	-0.106910
C108	C	0.781217	0.656137	-0.174909
N109	N	0.890051	0.601629	-0.243900
H110	H	1.219012	0.709884	-0.694084
C111	C	0.758056	0.892027	-0.477340
N112	N	0.660483	0.930578	-0.468385
C113	C	0.606289	1.207367	0.123615
N114	N	0.646082	1.214468	0.172425
C115	C	0.758057	0.892021	-0.275418
N116	N	0.660487	0.930575	-0.186798
H117	H	0.592612	1.036062	-0.106887
H118	H	0.330951	1.327227	-0.000107
H119	H	1.592657	0.414621	-0.694101
H120	H	0.418197	1.342739	0.480295
C121	C	0.303457	1.349011	0.701839
N122	N	0.223784	1.411981	0.781485
C123	C	0.404388	1.366903	0.123565
N124	N	0.364520	1.436940	0.172351
C125	C	0.606324	0.696605	0.275342
N126	N	0.646161	0.658053	0.186723
H127	H	0.592601	1.204892	0.305895
C128	C	0.404366	1.171544	0.724583
N129	N	0.364492	1.164501	0.813216
C130	C	1.404447	0.576640	-0.522782
N131	N	1.364622	0.646653	-0.531771
H132	H	0.592549	1.036105	0.519597
C133	C	1.707324	0.239584	-0.701927
N134	N	1.786985	0.176614	-0.781573
C135	C	1.606313	0.221708	-0.477286
N136	N	1.646122	0.151694	-0.468298
H137	H	1.418133	0.383703	-0.305984
H138	H	1.592572	0.414721	0.106786
C139	C	1.404410	0.576686	0.123600
N140	N	1.364598	0.646707	0.172378
C141	C	1.707307	0.239658	-0.000022
N142	N	1.786969	0.176721	0.000001
H143	H	1.592634	0.245847	-0.106860
H144	H	0.592549	0.878741	0.519580
H145	H	0.418139	0.709904	0.480359
