data_functionalizedCrystal
_audit_creation_method	'MofGen! by Chris Wilmer'
_symmetry_space_group_name_H-M	'P1'
_symmetry_Int_Tables_number	1
_symmetry_cell_setting	triclinic
loop_
_symmetry_equiv_pos_as_xyz
  x,y,z
_cell_length_a	18.101398
_cell_length_b	19.805405
_cell_length_c	19.805398
_cell_angle_alpha	90.030326
_cell_angle_beta	89.982499
_cell_angle_gamma	89.978323
loop_
_atom_site_label
_atom_site_type_symbol
_atom_site_fract_x
_atom_site_fract_y
_atom_site_fract_z
Zn1	Zn	1.132095	0.269557	-0.382791
Zn2	Zn	1.382095	0.519557	-0.132791
Zn3	Zn	1.632095	0.769557	0.117209
Zn4	Zn	1.882095	1.019557	0.367209
Zn5	Zn	1.132016	0.382748	-0.269599
Zn6	Zn	1.382016	0.632748	-0.019599
Zn7	Zn	1.632016	0.882748	0.230401
Zn8	Zn	1.882016	1.132748	0.480401
Zn9	Zn	1.008269	0.269569	-0.269607
Zn10	Zn	1.258269	0.519569	-0.019607
Zn11	Zn	1.508269	0.769569	0.230393
Zn12	Zn	1.758269	1.019569	0.480393
Zn13	Zn	1.008215	0.382701	-0.382737
Zn14	Zn	1.258215	0.632701	-0.132737
Zn15	Zn	1.508215	0.882701	0.117263
Zn16	Zn	1.758215	1.132701	0.367263
O17	O	1.070149	0.326144	-0.326183
O18	O	1.320149	0.576144	-0.076183
O19	O	1.570149	0.826144	0.173817
O20	O	1.820149	1.076144	0.423817
O21	O	1.235718	0.284587	-0.367795
O22	O	1.485718	0.534587	-0.117795
O23	O	1.735718	0.784587	0.132205
O24	O	1.985718	1.034587	0.382205
O25	O	1.115590	0.367759	-0.174883
O26	O	1.365590	0.617759	0.075117
O27	O	1.615590	0.867759	0.325117
O28	O	1.865590	1.117759	0.575117
O29	O	1.024750	0.174851	-0.284646
O30	O	1.274750	0.424851	-0.034646
O31	O	1.524750	0.674851	0.215354
O32	O	1.774750	0.924851	0.465354
O33	O	1.235659	0.367748	-0.284633
O34	O	1.485659	0.617748	-0.034633
O35	O	1.735659	0.867748	0.215367
O36	O	1.985659	1.117748	0.465367
O37	O	1.115725	0.174842	-0.367802
O38	O	1.365725	0.424842	-0.117802
O39	O	1.615725	0.674842	0.132198
O40	O	1.865725	0.924842	0.382198
O41	O	1.024674	0.284607	-0.174889
O42	O	1.274674	0.534607	0.075111
O43	O	1.524674	0.784607	0.325111
O44	O	1.774674	1.034607	0.575111
O45	O	0.904629	0.284561	-0.284594
O46	O	1.154629	0.534561	-0.034594
O47	O	1.404629	0.784561	0.215406
O48	O	1.654629	1.034561	0.465406
O49	O	1.024659	0.367667	-0.477461
O50	O	1.274659	0.617667	-0.227461
O51	O	1.524659	0.867667	0.022539
O52	O	1.774659	1.117667	0.272539
O53	O	0.904589	0.367678	-0.367711
O54	O	1.154589	0.617678	-0.117711
O55	O	1.404589	0.867678	0.132289
O56	O	1.654589	1.117678	0.382289
O57	O	1.115673	0.284542	-0.477500
O58	O	1.365673	0.534542	-0.227500
O59	O	1.615673	0.784542	0.022500
O60	O	1.865673	1.034542	0.272500
O61	O	1.115538	0.477458	-0.284581
O62	O	1.365538	0.727458	-0.034581
O63	O	1.615538	0.977458	0.215419
O64	O	1.865538	1.227458	0.465419
O65	O	1.024582	0.477423	-0.367703
O66	O	1.274582	0.727423	-0.117703
O67	O	1.524582	0.977423	0.132297
O68	O	1.774582	1.227423	0.382297
C69	C	1.070066	0.502000	-0.326151
C70	C	1.320066	0.752000	-0.076151
C71	C	1.570066	1.002000	0.173849
C72	C	1.820066	1.252000	0.423849
C73	C	1.070098	0.577232	-0.326159
C74	C	1.320098	0.827232	-0.076159
C75	C	1.570098	1.077232	0.173841
C76	C	1.820098	1.327232	0.423841
C77	C	0.877738	0.326116	-0.326148
C78	C	1.127738	0.576116	-0.076148
C79	C	1.377738	0.826116	0.173852
C80	C	1.627738	1.076116	0.423852
C81	C	0.795424	0.326121	-0.326149
C82	C	1.045424	0.576121	-0.076149
C83	C	1.295424	0.826121	0.173851
C84	C	1.545424	1.076121	0.423851
C85	C	1.070169	0.326098	-0.502726
C86	C	1.320169	0.576098	-0.252726
C87	C	1.570169	0.826098	-0.002726
C88	C	1.820169	1.076098	0.247274
C89	C	1.070177	0.326078	-0.577958
C90	C	1.320177	0.576078	-0.327958
C91	C	1.570177	0.826078	-0.077958
C92	C	1.820177	1.076078	0.172042
C93	C	0.496333	0.326163	-0.326206
C94	C	0.746333	0.576163	-0.076206
C95	C	0.996333	0.826163	0.173794
C96	C	1.246333	1.076163	0.423794
C97	C	0.527659	0.273606	-0.274166
C98	C	0.777659	0.523606	-0.024166
C99	C	1.027659	0.773606	0.225834
C100	C	1.277659	1.023606	0.475834
C101	C	0.613277	0.273747	-0.273944
C102	C	0.863277	0.523747	-0.023944
C103	C	1.113277	0.773747	0.226056
C104	C	1.363277	1.023747	0.476056
C105	C	0.644716	0.326141	-0.326178
C106	C	0.894716	0.576141	-0.076178
C107	C	1.144716	0.826141	0.173822
C108	C	1.394716	1.076141	0.423822
C109	C	0.613607	0.397441	-0.306685
C110	C	0.863607	0.647441	-0.056685
C111	C	1.113607	0.897441	0.193315
C112	C	1.363607	1.147441	0.443315
C113	C	0.527961	0.397149	-0.306323
C114	C	0.777961	0.647149	-0.056323
C115	C	1.027961	0.897149	0.193677
C116	C	1.277961	1.147149	0.443677
C117	C	0.527937	0.308040	-0.397861
C118	C	0.777937	0.558040	-0.147861
C119	C	1.027937	0.808040	0.102139
C120	C	1.277937	1.058040	0.352139
C121	C	0.613588	0.306452	-0.397470
C122	C	0.863588	0.556452	-0.147470
C123	C	1.113588	0.806452	0.102530
C124	C	1.363588	1.056452	0.352530
C125	C	0.728575	0.326134	-0.326163
C126	C	0.978575	0.576134	-0.076163
C127	C	1.228575	0.826134	0.173837
C128	C	1.478575	1.076134	0.423837
C129	C	0.412474	0.326176	-0.326219
C130	C	0.662474	0.576176	-0.076219
C131	C	0.912474	0.826176	0.173781
C132	C	1.162474	1.076176	0.423781
C133	C	1.263311	0.326172	-0.326219
C134	C	1.513311	0.576172	-0.076219
C135	C	1.763311	0.826172	0.173781
C136	C	2.013311	1.076172	0.423781
C137	C	1.345625	0.326184	-0.326234
C138	C	1.595625	0.576184	-0.076234
C139	C	1.845625	0.826184	0.173766
C140	C	2.095625	1.076184	0.423766
C141	C	1.070253	0.149601	-0.326231
C142	C	1.320253	0.399601	-0.076231
C143	C	1.570253	0.649601	0.173769
C144	C	1.820253	0.899601	0.423769
C145	C	1.070297	0.074369	-0.326251
C146	C	1.320297	0.324369	-0.076251
C147	C	1.570297	0.574369	0.173749
C148	C	1.820297	0.824369	0.423749
C149	C	1.117504	0.612571	-0.282923
C150	C	1.367504	0.862571	-0.032923
C151	C	1.617504	1.112571	0.217077
C152	C	1.867504	1.362571	0.467077
C153	C	1.117536	0.683260	-0.282938
C154	C	1.367536	0.933260	-0.032938
C155	C	1.617536	1.183260	0.217062
C156	C	1.867536	1.433260	0.467062
C157	C	1.070156	0.718607	-0.326186
C158	C	1.320156	0.968607	-0.076186
C159	C	1.570156	1.218607	0.173814
C160	C	1.820156	1.468607	0.423814
C161	C	1.022747	0.683263	-0.369427
C162	C	1.272747	0.933263	-0.119427
C163	C	1.522747	1.183263	0.130573
C164	C	1.772747	1.433263	0.380573
C165	C	1.022720	0.612575	-0.369415
C166	C	1.272720	0.862575	-0.119415
C167	C	1.522720	1.112575	0.130585
C168	C	1.772720	1.362575	0.380585
C169	C	1.022857	0.968336	-0.369477
C170	C	1.272857	1.218336	-0.119477
C171	C	1.522857	1.468336	0.130523
C172	C	1.772857	1.718336	0.380523
C173	C	1.022886	1.039028	-0.369485
C174	C	1.272886	1.289028	-0.119485
C175	C	1.522886	1.539028	0.130515
C176	C	1.772886	1.789028	0.380515
C177	C	1.117672	1.039020	-0.283000
C178	C	1.367672	1.289020	-0.033000
C179	C	1.617672	1.539020	0.217000
C180	C	1.867672	1.789020	0.467000
C181	C	1.117645	0.968333	-0.282988
C182	C	1.367645	1.218333	-0.032988
C183	C	1.617645	1.468333	0.217012
C184	C	1.867645	1.718333	0.467012
C185	C	1.070239	0.932995	-0.326231
C186	C	1.320239	1.182995	-0.076231
C187	C	1.570239	1.432995	0.173769
C188	C	1.820239	1.682995	0.423769
C189	C	1.070207	0.856346	-0.326215
C190	C	1.320207	1.106346	-0.076215
C191	C	1.570207	1.356346	0.173785
C192	C	1.820207	1.606346	0.423785
C193	C	1.070185	0.795254	-0.326199
C194	C	1.320185	1.045254	-0.076199
C195	C	1.570185	1.295254	0.173801
C196	C	1.820185	1.545254	0.423801
C197	C	1.117634	0.369268	-1.039744
C198	C	1.367634	0.619268	-0.789744
C199	C	1.617634	0.869268	-0.539744
C200	C	1.867634	1.119268	-0.289744
C201	C	1.117614	0.369286	-0.969056
C202	C	1.367614	0.619286	-0.719056
C203	C	1.617614	0.869286	-0.469056
C204	C	1.867614	1.119286	-0.219056
C205	C	1.070269	0.326002	-0.933720
C206	C	1.320269	0.576002	-0.683720
C207	C	1.570269	0.826002	-0.433720
C208	C	1.820269	1.076002	-0.183720
C209	C	1.022937	0.282701	-0.969077
C210	C	1.272937	0.532701	-0.719077
C211	C	1.522937	0.782701	-0.469077
C212	C	1.772937	1.032701	-0.219077
C213	C	1.022954	0.282687	-1.039764
C214	C	1.272954	0.532687	-0.789764
C215	C	1.522954	0.782687	-0.539764
C216	C	1.772954	1.032687	-0.289764
C217	C	1.022865	0.282759	-0.684003
C218	C	1.272865	0.532759	-0.434003
C219	C	1.522865	0.782759	-0.184003
C220	C	1.772865	1.032759	0.065997
C221	C	1.022853	0.282776	-0.613311
C222	C	1.272853	0.532776	-0.363311
C223	C	1.522853	0.782776	-0.113311
C224	C	1.772853	1.032776	0.136689
C225	C	1.117525	0.369359	-0.613295
C226	C	1.367525	0.619359	-0.363295
C227	C	1.617525	0.869359	-0.113295
C228	C	1.867525	1.119359	0.136705
C229	C	1.117542	0.369344	-0.683982
C230	C	1.367542	0.619344	-0.433982
C231	C	1.617542	0.869344	-0.183982
C232	C	1.867542	1.119344	0.066018
C233	C	1.070207	0.326047	-0.719333
C234	C	1.320207	0.576047	-0.469333
C235	C	1.570207	0.826047	-0.219333
C236	C	1.820207	1.076047	0.030667
C237	C	1.070229	0.326028	-0.795981
C238	C	1.320229	0.576028	-0.545981
C239	C	1.570229	0.826028	-0.295981
C240	C	1.820229	1.076028	-0.045981
C241	C	1.070250	0.326017	-0.857073
C242	C	1.320250	0.576017	-0.607073
C243	C	1.570250	0.826017	-0.357073
C244	C	1.820250	1.076017	-0.107073
C245	C	1.070172	0.326140	-0.150327
C246	C	1.320172	0.576140	0.099673
C247	C	1.570172	0.826140	0.349673
C248	C	1.820172	1.076140	0.599673
C249	C	1.070307	0.325969	-0.075096
C250	C	1.320307	0.575969	0.174904
C251	C	1.570307	0.825969	0.424904
C252	C	1.820307	1.075969	0.674904
H253	H	0.634311	0.220876	-0.286163
H254	H	0.884311	0.470876	-0.036163
H255	H	1.134311	0.720876	0.213837
H256	H	1.384311	0.970876	0.463837
Cl257	Cl	0.495890	0.191724	-0.292821
Cl258	Cl	0.745890	0.441724	-0.042821
Cl259	Cl	0.995890	0.691724	0.207179
Cl260	Cl	1.245890	0.941724	0.457179
H261	H	0.984297	0.247526	-0.584543
H262	H	1.234297	0.497526	-0.334543
H263	H	1.484297	0.747526	-0.084543
H264	H	1.734297	0.997526	0.165457
H265	H	0.984321	0.247504	-0.712777
H266	H	1.234321	0.497504	-0.462777
H267	H	1.484321	0.747504	-0.212777
H268	H	1.734321	0.997504	0.037223
Cl269	Cl	0.963427	0.228277	-0.924655
Cl270	Cl	1.213427	0.478277	-0.674655
Cl271	Cl	1.463427	0.728277	-0.424655
Cl272	Cl	1.713427	0.978277	-0.174655
H273	H	1.156275	1.067801	-0.247792
H274	H	1.406275	1.317801	0.002208
H275	H	1.656275	1.567801	0.252208
H276	H	1.906275	1.817801	0.502208
Cl277	Cl	0.495963	0.459656	-0.362284
Cl278	Cl	0.745963	0.709656	-0.112284
Cl279	Cl	0.995963	0.959656	0.137716
Cl280	Cl	1.245963	1.209656	0.387716
H281	H	0.635029	0.413077	-0.254867
H282	H	0.885029	0.663077	-0.004867
H283	H	1.135029	0.913077	0.245133
H284	H	1.385029	1.163077	0.495133
Cl285	Cl	0.494625	0.229164	-0.425222
Cl286	Cl	0.744625	0.479164	-0.175222
Cl287	Cl	0.994625	0.729164	0.074778
Cl288	Cl	1.244625	0.979164	0.324778
Cl289	Cl	0.645000	0.225451	-0.420173
Cl290	Cl	0.895000	0.475451	-0.170173
Cl291	Cl	1.145000	0.725451	0.079827
Cl292	Cl	1.395000	0.975451	0.329827
H293	H	0.984256	0.939569	-0.404686
H294	H	1.234256	1.189569	-0.154686
H295	H	1.484256	1.439569	0.095314
H296	H	1.734256	1.689569	0.345314
H297	H	0.633738	0.285728	-0.220849
H298	H	0.883738	0.535728	0.029151
H299	H	1.133738	0.785728	0.279151
H300	H	1.383738	1.035728	0.529151
H301	H	0.506117	0.285452	-0.221380
H302	H	0.756117	0.535452	0.028620
H303	H	1.006117	0.785452	0.278620
H304	H	1.256117	1.035452	0.528620
Cl305	Cl	0.963123	0.568148	-0.423774
Cl306	Cl	1.213123	0.818148	-0.173774
Cl307	Cl	1.463123	1.068148	0.076226
Cl308	Cl	1.713123	1.318148	0.326226
H309	H	0.984305	1.067806	-0.404708
H310	H	1.234305	1.317806	-0.154708
H311	H	1.484305	1.567806	0.095292
H312	H	1.734305	1.817806	0.345292
Cl313	Cl	1.177064	0.423761	-0.728400
Cl314	Cl	1.427064	0.673761	-0.478400
Cl315	Cl	1.677064	0.923761	-0.228400
Cl316	Cl	1.927064	1.173761	0.021600
Cl317	Cl	0.645035	0.459520	-0.363376
Cl318	Cl	0.895035	0.709520	-0.113376
Cl319	Cl	1.145035	0.959520	0.136624
Cl320	Cl	1.395035	1.209520	0.386624
Cl321	Cl	0.963188	0.727699	-0.423801
Cl322	Cl	1.213188	0.977699	-0.173801
Cl323	Cl	1.463188	1.227699	0.076199
Cl324	Cl	1.713188	1.477699	0.326199
Cl325	Cl	0.963458	0.228248	-1.084206
Cl326	Cl	1.213458	0.478248	-0.834206
Cl327	Cl	1.463458	0.728248	-0.584206
Cl328	Cl	1.713458	0.978248	-0.334206
H329	H	1.156191	0.404512	-1.068509
H330	H	1.406191	0.654512	-0.818509
H331	H	1.656191	0.904512	-0.568509
H332	H	1.906191	1.154512	-0.318509
Cl333	Cl	1.177115	0.423720	-0.924616
Cl334	Cl	1.427115	0.673720	-0.674616
Cl335	Cl	1.677115	0.923720	-0.424616
Cl336	Cl	1.927115	1.173720	-0.174616
H337	H	0.507958	0.412518	-0.253939
H338	H	0.757958	0.662518	-0.003939
H339	H	1.007958	0.912518	0.246061
H340	H	1.257958	1.162518	0.496061
Cl341	Cl	1.177138	0.727684	-0.228583
Cl342	Cl	1.427138	0.977684	0.021417
Cl343	Cl	1.677138	1.227684	0.271417
Cl344	Cl	1.927138	1.477684	0.521417
H345	H	1.156065	0.404616	-0.584504
H346	H	1.406065	0.654616	-0.334504
H347	H	1.656065	0.904616	-0.084504
H348	H	1.906065	1.154616	0.165496
H349	H	0.634991	0.341942	-0.438321
H350	H	0.884991	0.591942	-0.188321
H351	H	1.134991	0.841942	0.061679
H352	H	1.384991	1.091942	0.311679
H353	H	0.507679	0.346320	-0.436635
H354	H	0.757679	0.596320	-0.186635
H355	H	1.007679	0.846320	0.063365
H356	H	1.257679	1.096320	0.313365
Cl357	Cl	1.177066	0.568142	-0.228546
Cl358	Cl	1.427066	0.818142	0.021454
Cl359	Cl	1.677066	1.068142	0.271454
Cl360	Cl	1.927066	1.318142	0.521454
H361	H	1.156223	0.939556	-0.247769
H362	H	1.406223	1.189556	0.002231
H363	H	1.656223	1.439556	0.252231
H364	H	1.906223	1.689556	0.502231
