data_functionalizedCrystal
_audit_creation_method	'MofGen! by Chris Wilmer'
_symmetry_space_group_name_H-M	'P1'
_symmetry_Int_Tables_number	1
_symmetry_cell_setting	triclinic
loop_
_symmetry_equiv_pos_as_xyz
  x,y,z
_cell_length_a	10.723023
_cell_length_b	10.723023
_cell_length_c	9.198806
_cell_angle_alpha	89.997827
_cell_angle_beta	89.996191
_cell_angle_gamma	84.467548
loop_
_atom_site_label
_atom_site_type_symbol
_atom_site_fract_x
_atom_site_fract_y
_atom_site_fract_z
O1	O	1.657188	0.175020	-0.120885
O2	O	1.294035	0.191774	-0.120888
O3	O	1.483989	0.001821	-0.120881
O4	O	1.467234	0.364973	-0.120893
O5	O	1.483974	0.001820	0.120904
O6	O	1.294020	0.191774	0.120897
O7	O	1.657173	0.175019	0.120900
Cu8	Cu	1.475595	0.183396	0.142975
Cu9	Cu	1.475613	0.183397	-0.142964
O10	O	1.467219	0.364973	0.120892
C11	C	1.247528	0.190555	0.000004
C12	C	1.108974	0.186908	0.000002
C13	C	1.482762	-0.044679	0.000010
C14	C	1.479115	-0.183233	0.000006
C15	C	1.047210	0.185282	-0.125250
C16	C	0.904007	0.181512	-0.125254
C17	C	1.477497	-0.244999	-0.125248
C18	C	1.473727	-0.388202	-0.125256
C19	C	1.703680	0.176239	0.000005
C20	C	1.842234	0.179886	-0.000003
C21	C	1.468446	0.411473	-0.000002
C22	C	1.472093	0.550027	-0.000007
N23	N	1.475592	0.183395	0.344089
N24	N	1.475626	0.183388	-0.344078
C25	C	1.555347	0.103288	0.416289
C26	C	1.555367	0.103283	0.583702
H27	H	0.850892	0.180111	-0.232487
N28	N	1.038598	0.185043	0.142048
H29	H	1.099491	0.186645	0.225636
H30	H	0.975123	0.260847	0.147708
H31	H	1.623654	0.034704	0.645791
H32	H	1.100348	0.186687	-0.232480
N33	N	0.912572	0.181751	0.142052
H34	H	0.851666	0.180151	0.225636
H35	H	0.976047	0.105949	0.147722
H36	H	1.478897	-0.191860	-0.232477
N37	N	1.471906	-0.458539	-0.267317
H38	H	1.393267	-0.503111	-0.273142
H39	H	1.473570	-0.397549	-0.350803
H40	H	1.473491	-0.396865	0.107233
H41	H	1.477701	-0.236370	0.107234
H42	H	1.623612	0.034702	0.354166
N43	N	1.385166	0.274248	0.573712
H44	H	1.433531	0.329741	0.510547
H45	H	1.329423	0.226086	0.510658
N46	N	1.385157	0.274237	0.426374
H47	H	1.400505	0.362896	0.399959
H48	H	1.296421	0.259217	0.399946
