data_functionalizedCrystal
_audit_creation_method	'MofGen! by Chris Wilmer'
_symmetry_space_group_name_H-M	'P1'
_symmetry_Int_Tables_number	1
_symmetry_cell_setting	triclinic
loop_
_symmetry_equiv_pos_as_xyz
  x,y,z
_cell_length_a	12.759394
_cell_length_b	19.805407
_cell_length_c	19.805399
_cell_angle_alpha	90.016510
_cell_angle_beta	89.974626
_cell_angle_gamma	89.989013
loop_
_atom_site_label
_atom_site_type_symbol
_atom_site_fract_x
_atom_site_fract_y
_atom_site_fract_z
Zn1	Zn	-0.418384	-1.034772	-0.382730
Zn2	Zn	0.081616	-0.534772	0.117270
Zn3	Zn	-0.594082	-1.034715	-0.269549
Zn4	Zn	-0.094082	-0.534715	0.230451
Zn5	Zn	-0.418406	-0.921592	-0.269555
Zn6	Zn	0.081594	-0.421592	0.230445
Zn7	Zn	-0.594010	-0.921573	-0.382696
Zn8	Zn	-0.094010	-0.421573	0.117304
O9	O	-0.506220	-0.978163	-0.326132
O10	O	-0.006220	-0.478163	0.173868
O11	O	-0.441712	-1.129481	-0.367727
O12	O	0.058288	-0.629481	0.132273
O13	O	-0.570817	-1.019693	-0.174833
O14	O	-0.070817	-0.519693	0.325167
O15	O	-0.271382	-0.936637	-0.284585
O16	O	0.228618	-0.436637	0.215415
O17	O	-0.570796	-1.129439	-0.284574
O18	O	-0.070796	-0.629439	0.215426
O19	O	-0.271366	-1.019790	-0.367734
O20	O	0.228634	-0.519790	0.132266
O21	O	-0.441749	-0.936582	-0.174838
O22	O	0.058251	-0.436582	0.325162
O23	O	-0.441679	-0.826873	-0.284552
O24	O	0.058321	-0.326873	0.215448
O25	O	-0.570674	-0.936605	-0.477417
O26	O	-0.070674	-0.436605	0.022583
O27	O	-0.570695	-0.826859	-0.367676
O28	O	-0.070695	-0.326859	0.132324
O29	O	-0.441642	-1.019772	-0.477442
O30	O	0.058358	-0.519772	0.022558
O31	O	-0.741093	-1.019675	-0.284541
O32	O	-0.241093	-0.519675	0.215459
O33	O	-0.741041	-0.936550	-0.367670
O34	O	-0.241041	-0.436550	0.132330
C35	C	-0.506182	-0.802307	-0.326112
C36	C	-0.006182	-0.302307	0.173888
C37	C	-0.506191	-0.727075	-0.326119
C38	C	-0.006191	-0.227075	0.173881
C39	C	-0.439094	-0.691753	-0.369482
C40	C	0.060906	-0.191753	0.130518
C41	C	-0.439098	-0.621065	-0.369483
C42	C	0.060902	-0.121065	0.130517
C43	C	-0.506203	-0.585700	-0.326124
C44	C	-0.006203	-0.085700	0.173876
C45	C	-0.573303	-0.621026	-0.282756
C46	C	-0.073303	-0.121026	0.217244
C47	C	-0.573294	-0.691713	-0.282752
C48	C	-0.073294	-0.191713	0.217248
C49	C	-0.573341	-0.335953	-0.282770
C50	C	-0.073341	0.164047	0.217230
C51	C	-0.573348	-0.265261	-0.282778
C52	C	-0.073348	0.234739	0.217222
C53	C	-0.439145	-0.265305	-0.369501
C54	C	0.060855	0.234695	0.130499
C55	C	-0.439136	-0.335992	-0.369497
C56	C	0.060864	0.164008	0.130503
C57	C	-0.506231	-0.371312	-0.326127
C58	C	-0.006231	0.128688	0.173873
C59	C	-0.506225	-0.447961	-0.326125
C60	C	-0.006225	0.052039	0.173875
C61	C	-0.506215	-0.509052	-0.326128
C62	C	-0.006215	-0.009052	0.173872
C63	C	-0.779188	-0.978123	-0.326116
C64	C	-0.279188	-0.478123	0.173884
C65	C	-0.895965	-0.978167	-0.326132
C66	C	-0.395965	-0.478167	0.173868
C67	C	-0.895966	-1.064790	-0.239634
C68	C	-0.395966	-0.564790	0.260366
C69	C	-0.950828	-1.108119	-0.196394
C70	C	-0.450828	-0.608119	0.303606
C71	C	-1.060550	-1.108159	-0.196412
C72	C	-0.560550	-0.608159	0.303588
C73	C	-1.115412	-1.064866	-0.239677
C74	C	-0.615412	-0.564866	0.260323
C75	C	-1.060550	-1.021537	-0.282918
C76	C	-0.560550	-0.521537	0.217082
C77	C	-0.950826	-1.021501	-0.282893
C78	C	-0.450826	-0.521501	0.217107
C79	C	-1.060549	-0.934919	-0.369418
C80	C	-0.560549	-0.434919	0.130582
C81	C	-0.950827	-0.934874	-0.369397
C82	C	-0.450827	-0.434874	0.130603
C83	C	-1.115411	-0.891626	-0.412683
C84	C	-0.615411	-0.391626	0.087317
C85	C	-1.060549	-0.848292	-0.455921
C86	C	-0.560549	-0.348292	0.044079
C87	C	-0.950821	-0.848254	-0.455901
C88	C	-0.450821	-0.348254	0.044099
C89	C	-0.895965	-0.891545	-0.412638
C90	C	-0.395965	-0.391545	0.087362
C91	C	-0.232187	-0.978222	-0.326164
C92	C	0.267813	-0.478222	0.173836
C93	C	-0.115410	-0.978248	-0.326177
C94	C	0.384590	-0.478248	0.173823
C95	C	-0.506148	-0.978193	-0.502675
C96	C	-0.006148	-0.478193	-0.002675
C97	C	-0.506116	-0.978205	-0.577907
C98	C	-0.006116	-0.478205	-0.077907
C99	C	-0.506252	-0.154706	-0.326148
C100	C	-0.006252	0.345294	0.173852
C101	C	-0.506245	-0.229938	-0.326138
C102	C	-0.006245	0.270062	0.173862
C103	C	-0.438904	-0.934942	-0.613253
C104	C	0.061096	-0.434942	-0.113253
C105	C	-0.438884	-0.934951	-0.683942
C106	C	0.061116	-0.434951	-0.183942
C107	C	-0.506071	-0.978228	-0.719283
C108	C	-0.006071	-0.478228	-0.219283
C109	C	-0.573291	-1.021494	-0.683932
C110	C	-0.073291	-0.521494	-0.183932
C111	C	-0.573316	-1.021480	-0.613245
C112	C	-0.073316	-0.521480	-0.113245
C113	C	-0.573193	-1.021547	-0.969005
C114	C	-0.073193	-0.521547	-0.469005
C115	C	-0.573160	-1.021559	-1.039697
C116	C	-0.073160	-0.521559	-0.539697
C117	C	-0.438760	-0.935018	-1.039703
C118	C	0.061240	-0.435018	-0.539703
C119	C	-0.438785	-0.935005	-0.969015
C120	C	0.061215	-0.435005	-0.469015
C121	C	-0.506009	-0.978268	-0.933670
C122	C	-0.006009	-0.478268	-0.433670
C123	C	-0.506031	-0.978256	-0.857022
C124	C	-0.006031	-0.478256	-0.357022
C125	C	-0.506044	-0.978243	-0.795930
C126	C	-0.006044	-0.478243	-0.295930
C127	C	-0.506217	-0.978173	-0.150277
C128	C	-0.006217	-0.478173	0.349723
C129	C	-0.505952	-0.978291	-0.075045
C130	C	-0.005952	-0.478291	0.424955
H131	H	-0.384495	-0.364783	-0.404807
H132	H	0.115505	0.135217	0.095193
N133	N	-0.645815	-1.068141	-0.575120
N134	N	-0.145815	-0.568141	-0.075120
H135	H	-0.688372	-1.095558	-0.608235
H136	H	-0.188372	-0.595558	-0.108235
H137	H	-0.603071	-1.099469	-0.545798
H138	H	-0.103071	-0.599469	-0.045798
H139	H	-0.627975	-0.364702	-0.247456
H140	H	-0.127975	0.135298	0.252544
H141	H	-1.105218	-1.143444	-0.161205
H142	H	-0.605218	-0.643444	0.338795
N143	N	-0.645720	-0.227110	-0.236008
N144	N	-0.145720	0.272890	0.263992
H145	H	-0.720809	-0.239409	-0.246428
H146	H	-0.220809	0.260591	0.253572
H147	H	-0.629207	-0.239406	-0.187683
H148	H	-0.129207	0.260594	0.312317
H149	H	-0.384157	-0.899719	-0.712718
H150	H	0.115843	-0.399719	-0.212718
H151	H	-0.384071	-0.899767	-0.940244
H152	H	0.115929	-0.399767	-0.440244
H153	H	-1.204752	-0.891664	-0.412698
H154	H	-0.704752	-0.391664	0.087302
N155	N	-1.233754	-1.064915	-0.239706
N156	N	-0.733754	-0.564915	0.260294
H157	H	-1.260183	-1.098935	-0.205752
H158	H	-0.760183	-0.598935	0.294248
H159	H	-1.260172	-1.018477	-0.227251
H160	H	-0.760172	-0.518477	0.272749
N161	N	-0.366758	-0.227207	-0.416267
N162	N	0.133242	0.272793	0.083733
H163	H	-0.324248	-0.260338	-0.443734
H164	H	0.175752	0.239662	0.056266
H165	H	-0.409584	-0.197882	-0.447544
H166	H	0.090416	0.302118	0.052456
H167	H	-0.627941	-1.056767	-0.940236
H168	H	-0.127941	-0.556767	-0.440236
N169	N	-1.119719	-0.801606	-0.502584
N170	N	-0.619719	-0.301606	-0.002584
H171	H	-1.197551	-0.808209	-0.496038
H172	H	-0.697551	-0.308209	0.003962
H173	H	-1.100615	-0.753264	-0.492004
H174	H	-0.600615	-0.253264	0.007996
H175	H	-0.627937	-0.592226	-0.247449
H176	H	-0.127937	-0.092226	0.252551
N177	N	-0.366272	-0.888344	-1.077827
N178	N	0.133728	-0.388344	-0.577827
H179	H	-0.291210	-0.898869	-1.065542
H180	H	0.208790	-0.398869	-0.565542
H181	H	-0.376547	-0.894937	-1.127957
H182	H	0.123453	-0.394937	-0.627957
N183	N	-0.645656	-0.729814	-0.235979
N184	N	-0.145656	-0.229814	0.264021
H185	H	-0.688170	-0.696685	-0.208511
H186	H	-0.188170	-0.196685	0.291489
H187	H	-0.694328	-0.759151	-0.263472
H188	H	-0.194328	-0.259151	0.236528
H189	H	-0.627876	-1.056801	-1.068470
H190	H	-0.127876	-0.556801	-0.568470
H191	H	-0.384186	-0.899705	-0.584484
H192	H	0.115814	-0.399705	-0.084484
N193	N	-0.891651	-0.801523	-0.502543
N194	N	-0.391651	-0.301523	-0.002543
H195	H	-0.943059	-0.774107	-0.529951
H196	H	-0.443059	-0.274107	-0.029951
H197	H	-0.846196	-0.770196	-0.474958
H198	H	-0.346196	-0.270196	0.025042
N199	N	-0.645771	-1.068164	-0.722046
N200	N	-0.145771	-0.568164	-0.222046
H201	H	-0.635558	-1.061609	-0.772190
H202	H	-0.135558	-0.561609	-0.272190
H203	H	-0.629442	-1.116507	-0.709698
H204	H	-0.129442	-0.616507	-0.209698
H205	H	-0.384463	-0.592309	-0.404795
H206	H	0.115537	-0.092309	0.095205
N207	N	-0.366722	-0.729895	-0.416253
N208	N	0.133278	-0.229895	0.083747
H209	H	-0.324217	-0.696790	-0.443722
H210	H	0.175783	-0.196790	0.056278
H211	H	-0.318042	-0.759219	-0.388755
H212	H	0.181958	-0.259219	0.111245
H213	H	-0.806625	-1.064753	-0.239606
H214	H	-0.306625	-0.564753	0.260394
N215	N	-0.891657	-1.154816	-0.149735
N216	N	-0.391657	-0.654816	0.350265
H217	H	-0.813824	-1.148218	-0.156281
H218	H	-0.313824	-0.648218	0.343719
H219	H	-0.910903	-1.144315	-0.101389
H220	H	-0.410903	-0.644315	0.398611
N221	N	-0.777624	-0.891503	-0.412609
N222	N	-0.277624	-0.391503	0.087391
H223	H	-0.751128	-0.937919	-0.425082
H224	H	-0.251128	-0.437919	0.074918
H225	H	-0.751274	-0.857456	-0.446560
H226	H	-0.251274	-0.357456	0.053440
