data_functionalizedCrystal
_audit_creation_method	'MofGen! by Chris Wilmer'
_symmetry_space_group_name_H-M	'P1'
_symmetry_Int_Tables_number	1
_symmetry_cell_setting	triclinic
loop_
_symmetry_equiv_pos_as_xyz
  x,y,z
_cell_length_a	12.759401
_cell_length_b	13.897448
_cell_length_c	12.759393
_cell_angle_alpha	89.966654
_cell_angle_beta	89.981504
_cell_angle_gamma	90.017853
loop_
_atom_site_label
_atom_site_type_symbol
_atom_site_fract_x
_atom_site_fract_y
_atom_site_fract_z
Zn1	Zn	1.606234	-0.383954	-0.593968
Zn2	Zn	1.606119	-0.545283	-0.418283
Zn3	Zn	1.430536	-0.384004	-0.418308
Zn4	Zn	1.430515	-0.545209	-0.593924
O5	O	1.518351	-0.464613	-0.506121
O6	O	1.753239	-0.405365	-0.570671
O7	O	1.582788	-0.523942	-0.271265
O8	O	1.453899	-0.249016	-0.441638
O9	O	1.753155	-0.523893	-0.441596
O10	O	1.582983	-0.248979	-0.570695
O11	O	1.453788	-0.405451	-0.271283
O12	O	1.283512	-0.405379	-0.441596
O13	O	1.453864	-0.523766	-0.740951
O14	O	1.283497	-0.523815	-0.570621
O15	O	1.582964	-0.405293	-0.740984
O16	O	1.582768	-0.680255	-0.441554
O17	O	1.453753	-0.680201	-0.570597
C18	C	1.245383	-0.464595	-0.506107
C19	C	1.128607	-0.464611	-0.506125
C20	C	1.073764	-0.526379	-0.573198
C21	C	0.964040	-0.526391	-0.573209
C22	C	0.964011	-0.402864	-0.439067
C23	C	1.073733	-0.402847	-0.439062
C24	C	1.128638	-0.588142	-0.640261
C25	C	1.073796	-0.649917	-0.707338
C26	C	0.964072	-0.649929	-0.707349
C27	C	0.909190	-0.588167	-0.640284
C28	C	1.518274	-0.715227	-0.506090
C29	C	1.518337	-0.822441	-0.506113
C30	C	1.518448	-1.018736	-0.506178
C31	C	1.518383	-0.909503	-0.506145
C32	C	1.792384	-0.464631	-0.506136
C33	C	1.909161	-0.464639	-0.506142
C34	C	1.518424	-0.464515	-0.780154
C35	C	1.518456	-0.464474	-0.896931
C36	C	1.518456	-0.213020	-0.506174
C37	C	1.518501	-0.105806	-0.506197
C38	C	1.585687	-0.402779	-0.951812
C39	C	1.585712	-0.402744	-1.061536
C40	C	1.451271	-0.526107	-1.061489
C41	C	1.451242	-0.526137	-0.951767
C42	C	1.652901	-0.341116	-0.896976
C43	C	1.720139	-0.279417	-0.951856
C44	C	1.720164	-0.279382	-1.061580
C45	C	1.652951	-0.341046	-1.116424
C46	C	1.518338	-0.464640	-0.233154
C47	C	1.518510	-0.464410	-0.116377
H48	H	0.819845	-0.588173	-0.640308
H49	H	1.396480	-0.576359	-0.907082
O50	O	1.126971	-0.342958	-0.373752
C51	C	1.100101	-0.363918	-0.269002
H52	H	1.069914	-0.440972	-0.263556
H53	H	1.172245	-0.355553	-0.217114
H54	H	1.036419	-0.312177	-0.241634
H55	H	0.919422	-0.700221	-0.761974
H56	H	1.652964	-0.341002	-1.205769
H57	H	1.217981	-0.588141	-0.640258
H58	H	1.774854	-0.229206	-0.907196
O59	O	1.386044	-0.586145	-1.114645
C60	C	1.408975	-0.682291	-1.087822
H61	H	1.449338	-0.684313	-1.008156
H62	H	1.333133	-0.725541	-1.084053
H63	H	1.462997	-0.714767	-1.149565
O64	O	0.910539	-0.342973	-0.373947
C65	C	0.801936	-0.356220	-0.388349
H66	H	0.786955	-0.430697	-0.422624
H67	H	0.760209	-0.349609	-0.309666
H68	H	0.770823	-0.299067	-0.444402
H69	H	1.118488	-0.700195	-0.761947
H70	H	1.652890	-0.341139	-0.807633
H71	H	1.774904	-0.229136	-1.106261
