data_functionalizedCrystal
_audit_creation_method	'MofGen! by Chris Wilmer'
_symmetry_space_group_name_H-M	'P1'
_symmetry_Int_Tables_number	1
_symmetry_cell_setting	triclinic
loop_
_symmetry_equiv_pos_as_xyz
  x,y,z
_cell_length_a	12.827893
_cell_length_b	12.594516
_cell_length_c	12.827885
_cell_angle_alpha	89.970270
_cell_angle_beta	89.980728
_cell_angle_gamma	90.011786
loop_
_atom_site_label
_atom_site_type_symbol
_atom_site_fract_x
_atom_site_fract_y
_atom_site_fract_z
Zn1	Zn	1.597696	-0.423691	-0.590849
Zn2	Zn	1.597601	-0.601707	-0.416110
Zn3	Zn	1.422937	-0.423743	-0.416123
Zn4	Zn	1.422933	-0.601628	-0.590810
O5	O	1.510292	-0.512693	-0.503473
O6	O	1.743919	-0.447317	-0.567681
O7	O	1.574393	-0.578155	-0.269875
O8	O	1.446160	-0.274791	-0.439323
O9	O	1.743849	-0.578105	-0.439300
O10	O	1.574555	-0.274752	-0.567693
O11	O	1.446068	-0.447405	-0.269885
O12	O	1.276700	-0.447329	-0.439284
O13	O	1.446154	-0.577970	-0.737051
O14	O	1.276698	-0.578020	-0.567626
O15	O	1.574551	-0.447240	-0.737080
O16	O	1.574389	-0.750643	-0.439262
O17	O	1.446062	-0.750584	-0.567613
C18	C	1.238782	-0.512672	-0.503453
C19	C	1.122629	-0.512689	-0.503469
C20	C	1.070870	-0.577460	-0.566879
C21	C	0.950820	-0.577479	-0.566897
C22	C	1.510243	-0.789234	-0.503455
C23	C	1.510318	-0.907539	-0.503482
C24	C	1.580196	-0.976785	-0.433746
C25	C	1.605734	-1.047478	-0.529127
C26	C	1.484911	-1.047644	-0.408161
C27	C	1.535905	-0.976674	-0.598913
C28	C	1.415037	-0.976834	-0.477883
C29	C	1.440539	-1.047495	-0.573330
C30	C	1.782862	-0.512714	-0.503493
C31	C	1.899015	-0.512723	-0.503502
C32	C	1.510363	-0.512590	-0.776043
C33	C	1.510393	-0.512547	-0.892196
C34	C	1.510369	-0.235072	-0.503514
C35	C	1.510401	-0.116766	-0.503531
C36	C	1.573935	-0.447845	-0.943995
C37	C	1.573968	-0.447799	-1.064046
C38	C	1.510281	-0.512718	-0.231963
C39	C	1.510453	-0.512461	-0.115810
H40	H	1.078064	-0.457246	-0.449200
O41	O	1.456224	-1.088835	-0.301366
H42	H	1.455714	-1.176955	-0.302460
O43	O	1.658475	-0.935640	-0.355699
H44	H	1.737541	-0.963930	-0.377225
H45	H	1.456010	-0.567899	-0.936726
H46	H	1.686347	-1.078512	-0.550807
H47	H	1.557349	-0.945633	-0.679614
H48	H	1.628307	-0.392482	-0.899466
O49	O	1.308293	-0.935679	-0.449123
H50	H	1.250173	-0.965241	-0.506248
O51	O	0.891915	-0.651025	-0.638763
H52	H	0.912840	-0.632953	-0.720842
O53	O	0.957969	-0.439271	-0.431583
H54	H	0.937044	-0.457424	-0.349522
H55	H	1.628372	-0.392409	-1.108592
H56	H	1.115434	-0.632895	-0.621156
O57	O	1.362303	-1.088372	-0.651553
H58	H	1.383673	-1.059789	-0.730587
H59	H	1.456053	-0.567862	-1.071271
