data_functionalizedCrystal
_audit_creation_method	'MofGen! by Chris Wilmer'
_symmetry_space_group_name_H-M	'P1'
_symmetry_Int_Tables_number	1
_symmetry_cell_setting	triclinic
loop_
_symmetry_equiv_pos_as_xyz
  x,y,z
_cell_length_a	6.394989
_cell_length_b	17.699097
_cell_length_c	16.176319
_cell_angle_alpha	89.988988
_cell_angle_beta	90.003737
_cell_angle_gamma	95.106929
loop_
_atom_site_label
_atom_site_type_symbol
_atom_site_fract_x
_atom_site_fract_y
_atom_site_fract_z
O1	O	-0.264264	1.006769	-0.068810
O2	O	-0.298599	0.786743	-0.068796
O3	O	0.022648	0.899879	-0.068804
O4	O	-0.585511	0.893633	-0.068802
O5	O	0.022669	0.899863	0.068689
O6	O	-0.298579	0.786726	0.068697
O7	O	-0.264243	1.006753	0.068683
Cu8	Cu	-0.281409	0.896738	0.081244
Cu9	Cu	-0.281433	0.896757	-0.081357
O10	O	-0.585491	0.893617	0.068691
C11	C	-0.297354	0.758525	-0.000048
C12	C	-0.293649	0.674470	-0.000043
N13	N	-0.281391	0.896730	0.195610
C14	C	-0.270950	0.158529	-0.075024
C15	C	-0.274417	0.237508	-0.075019
C16	C	-0.276143	0.276983	-0.000069
C17	C	-0.274380	0.237475	0.074883
C18	C	-0.270898	0.158498	0.074878
C19	C	-0.288419	0.555982	0.074905
C20	C	-0.291908	0.634965	0.074904
C21	C	-0.291938	0.634993	-0.074993
C22	C	-0.288456	0.556015	-0.074998
C23	C	-0.286683	0.516515	-0.000046
C24	C	-0.282919	0.430876	-0.000052
C25	C	-0.279921	0.362619	-0.000062
C26	C	0.100474	0.898636	-0.000060
C27	C	0.336690	0.894862	-0.000061
C28	C	-0.265489	1.034971	-0.000067
C29	C	-0.269194	1.119026	-0.000078
N30	N	-0.281435	0.896771	-0.195723
C31	C	-0.139201	0.946843	0.238870
C32	C	-0.139198	0.946847	0.325417
C33	C	-0.281398	0.896741	0.368702
C34	C	-0.423595	0.846623	0.325435
C35	C	-0.423586	0.846616	0.238890
C36	C	-0.423634	0.846649	0.674464
C37	C	-0.423637	0.846661	0.761015
C38	C	-0.139247	0.946880	0.760991
C39	C	-0.139238	0.946873	0.674446
C40	C	-0.281426	0.896753	0.631186
C41	C	-0.281424	0.896748	0.537342
C42	C	-0.281412	0.896749	0.462545
H43	H	-0.269559	0.126393	-0.136057
H44	H	-0.023452	0.987677	0.639206
H45	H	-0.023414	0.987648	0.203633
H46	H	-0.275772	0.269622	0.135910
H47	H	-0.269490	0.126335	0.135907
H48	H	-0.287062	0.523878	-0.136030
H49	H	-0.023415	0.987652	0.360640
H50	H	-0.023462	0.987689	0.796222
H51	H	-0.539437	0.805856	0.796256
H52	H	-0.539413	0.805841	0.639249
H53	H	-0.539370	0.805822	0.360683
H54	H	-0.286944	0.523832	0.135935
H55	H	-0.539369	0.805808	0.203668
H56	H	-0.275834	0.269668	-0.136048
H57	H	-0.293373	0.667164	-0.136022
H58	H	-0.293312	0.667103	0.135942
