data_functionalizedCrystal
_audit_creation_method	'MofGen! by Chris Wilmer'
_symmetry_space_group_name_H-M	'P1'
_symmetry_Int_Tables_number	1
_symmetry_cell_setting	triclinic
loop_
_symmetry_equiv_pos_as_xyz
  x,y,z
_cell_length_a	9.065218
_cell_length_b	7.088929
_cell_length_c	9.065215
_cell_angle_alpha	96.315081
_cell_angle_beta	85.015291
_cell_angle_gamma	83.703834
loop_
_atom_site_label
_atom_site_type_symbol
_atom_site_fract_x
_atom_site_fract_y
_atom_site_fract_z
O1	O	1.945454	0.158989	0.231323
O2	O	2.278788	0.492322	0.564656
O3	O	2.612121	0.825655	0.897990
O4	O	1.516169	0.158991	0.249070
O5	O	1.849502	0.492324	0.582403
O6	O	2.182836	0.825658	0.915737
O7	O	1.739688	0.158982	0.025553
O8	O	2.073021	0.492315	0.358886
O9	O	2.406355	0.825648	0.692220
O10	O	1.721935	0.158998	0.454840
O11	O	2.055269	0.492332	0.788173
O12	O	2.388602	0.825665	1.121507
O13	O	1.769558	-0.158995	-0.004386
O14	O	2.102891	0.174339	0.328947
O15	O	2.436225	0.507672	0.662280
O16	O	1.546039	-0.158985	0.219131
O17	O	1.879373	0.174348	0.552464
O18	O	2.212706	0.507681	0.885797
O19	O	1.975324	-0.158988	0.201384
O20	O	2.308658	0.174346	0.534717
O21	O	2.641991	0.507679	0.868051
Cu22	Cu	1.763409	-0.188020	0.207524
Cu23	Cu	2.096743	0.145313	0.540857
Cu24	Cu	2.430076	0.478646	0.874190
Cu25	Cu	1.728084	0.188024	0.242930
Cu26	Cu	2.061418	0.521357	0.576264
Cu27	Cu	2.394751	0.854690	0.909597
O28	O	1.751806	-0.158978	0.424901
O29	O	2.085139	0.174355	0.758234
O30	O	2.418472	0.507688	1.091567
C31	C	1.476118	0.000003	0.232395
C32	C	1.809451	0.333337	0.565728
C33	C	2.142784	0.666670	0.899061
C34	C	1.312275	0.000004	0.227295
C35	C	1.645608	0.333337	0.560628
C36	C	1.978941	0.666671	0.893962
N37	N	1.788266	-0.452509	0.182620
N38	N	2.121599	-0.119176	0.515953
N39	N	2.454932	0.214157	0.849286
C40	C	2.015376	0.000005	0.218059
C41	C	2.348709	0.333338	0.551393
C42	C	2.682042	0.666671	0.884726
C43	C	2.179217	0.000016	0.223160
C44	C	2.512551	0.333350	0.556494
C45	C	2.845884	0.666683	0.889827
C46	C	1.752918	-0.000004	-0.044403
C47	C	2.086251	0.333329	0.288930
C48	C	2.419585	0.666662	0.622264
C49	C	1.747819	0.000001	-0.208246
C50	C	2.081153	0.333335	0.125088
C51	C	2.414486	0.666668	0.458421
N52	N	1.703240	0.452513	0.267823
N53	N	2.036573	0.785846	0.601156
N54	N	2.369906	1.119179	0.934489
C55	C	1.738575	0.000012	0.494857
C56	C	2.071909	0.333346	0.828191
C57	C	2.405242	0.666679	1.161524
C58	C	1.743673	0.000019	0.658701
C59	C	2.077006	0.333352	0.992034
C60	C	2.410339	0.666686	1.325368
H61	H	1.615120	-0.465837	0.356117
H62	H	1.948453	-0.132504	0.689450
H63	H	2.281786	0.200829	1.022784
H64	H	1.876402	-0.534169	0.094330
H65	H	2.209735	-0.200836	0.427663
H66	H	2.543069	0.132498	0.760997
