data_functionalizedCrystal
_audit_creation_method	'MofGen! by Chris Wilmer'
_symmetry_space_group_name_H-M	'P1'
_symmetry_Int_Tables_number	1
_symmetry_cell_setting	triclinic
loop_
_symmetry_equiv_pos_as_xyz
  x,y,z
_cell_length_a	17.917603
_cell_length_b	12.970454
_cell_length_c	17.917603
_cell_angle_alpha	63.035632
_cell_angle_beta	90.239941
_cell_angle_gamma	57.011542
loop_
_atom_site_label
_atom_site_type_symbol
_atom_site_fract_x
_atom_site_fract_y
_atom_site_fract_z
Zr1	Zr	0.757810	1.025590	-0.060815
O2	O	0.638386	1.240681	-0.180234
O3	O	0.794419	0.810499	-0.024206
O4	O	0.801528	1.005972	-0.173117
O5	O	0.625670	1.060682	0.086141
O6	O	0.930217	0.990497	-0.167504
O7	O	0.631277	1.045208	-0.031322
O8	O	0.917501	0.640831	0.098872
O9	O	0.638386	1.410349	-0.180235
O10	O	0.906072	0.887420	-0.004404
O11	O	0.805848	0.910517	0.079069
O12	O	0.814218	1.140662	-0.096256
O13	O	0.713994	1.163759	-0.012783
Zr14	Zr	0.954111	1.025589	0.135479
Zr15	Zr	0.963054	1.000909	-0.051862
Zr16	Zr	0.748866	1.050270	0.126526
Zr17	Zr	0.757810	1.296190	-0.060816
Zr18	Zr	0.954111	0.754989	0.135480
O19	O	0.917501	1.240680	0.098870
O20	O	0.930217	1.205588	-0.167505
O21	O	0.625670	1.275773	0.086140
O22	O	1.073534	0.810498	0.254898
O23	O	1.086250	0.775406	-0.011476
O24	O	0.781703	0.845591	0.242169
O25	O	1.086251	0.990497	-0.011477
O26	O	0.910392	1.045207	0.247781
O27	O	0.781703	1.060682	0.242168
O28	O	1.080643	1.005971	0.105986
O29	O	0.801528	1.390730	-0.173119
O30	O	0.910392	0.660449	0.247783
O31	O	1.073534	0.640830	0.254899
O32	O	1.080643	0.621213	0.105988
O33	O	0.631278	1.429966	-0.031324
O34	O	0.794419	1.410348	-0.024208
O35	O	0.897702	0.910517	0.170920
O36	O	0.997927	0.887420	0.087447
O37	O	0.906072	1.140662	-0.004405
O38	O	0.805848	1.163759	0.079068
C39	C	0.855960	0.687110	0.037333
C40	C	0.855960	0.572234	0.037334
C41	C	0.599231	1.056462	0.026134
C42	C	0.512099	1.066939	0.022333
C43	C	0.352586	1.086079	0.015392
C44	C	0.359327	0.965107	0.059269
C45	C	0.270569	0.975756	0.055408
C46	C	0.441351	1.075432	0.019253
C47	C	1.112690	0.994717	0.048530
C48	C	1.199821	0.984240	0.052331
C49	C	0.867147	0.994718	-0.197003
C50	C	0.870944	0.984241	-0.276534
C51	C	0.855960	1.364069	0.037331
C52	C	0.855960	1.478945	0.037330
C53	C	0.877899	0.965101	-0.422162
C54	C	0.834024	1.086072	-0.503176
C55	C	0.837894	1.075422	-0.584209
C56	C	0.874030	0.975748	-0.341121
C57	C	0.844773	1.056461	0.271667
C58	C	0.840976	1.066938	0.351198
C59	C	1.112690	0.656238	0.048531
C60	C	1.199821	0.530884	0.052332
C61	C	0.844773	0.717981	0.271668
C62	C	0.840976	0.613582	0.351199
C63	C	1.101503	0.687109	0.282866
C64	C	1.184837	0.572232	0.366198
C65	C	0.610418	1.364070	-0.208202
C66	C	0.527083	1.478947	-0.291534
C67	C	0.599231	1.394941	0.026133
C68	C	0.512099	1.520295	0.022332
C69	C	0.867147	1.333198	-0.197004
C70	C	0.870944	1.437597	-0.276535
C71	C	1.192792	0.472015	0.006164
C72	C	1.274655	0.354245	0.009718
C73	C	1.363545	0.295339	0.059445
C74	C	1.370572	0.354218	0.105615
C75	C	1.288710	0.471993	0.102055
C76	C	0.887140	0.564556	0.436501
C77	C	0.883569	0.466478	0.511236
C78	C	0.833839	0.417420	0.500668
C79	C	0.787669	0.466457	0.415357
C80	C	0.791235	0.564541	0.340624
C81	C	1.276297	0.506227	0.361760
C82	C	1.354607	0.398301	0.440053
C83	C	1.341456	0.356375	0.522782
C84	C	1.249987	0.422391	0.527218
C85	C	1.171679	0.530323	0.448926
C86	C	0.435623	1.544965	-0.287096
C87	C	0.357313	1.652925	-0.365389
C88	C	0.370465	1.694857	-0.448118
C89	C	0.461934	1.628833	-0.452554
C90	C	0.540242	1.520883	-0.374262
C91	C	0.519128	1.579174	0.068492
C92	C	0.437267	1.696971	0.064918
C93	C	0.348377	1.755881	0.015188
C94	C	0.341350	1.696997	-0.030978
C95	C	0.423211	1.579208	-0.027408
C96	C	0.920682	1.486623	-0.265939
C97	C	0.924268	1.584702	-0.340659
C98	C	0.878109	1.633760	-0.425975
C99	C	0.828369	1.584724	-0.436570
C100	C	0.824790	1.486639	-0.361851
H101	H	0.431758	0.853541	0.099734
C102	C	0.934361	0.412544	0.605069
H103	H	0.925111	0.347116	0.648070
H104	H	1.000002	0.363365	0.614495
H105	H	0.909290	0.493890	0.610532
H106	H	0.280161	1.197635	-0.025070
H107	H	1.268915	0.306320	-0.027879
H108	H	0.790789	1.624683	-0.506045
C109	C	0.258336	1.885441	0.011269
H110	H	0.204385	1.912106	-0.024962
H111	H	0.255558	1.857734	0.069572
H112	H	0.259511	1.966425	-0.013234
H113	H	0.443007	1.744896	0.102515
H114	H	0.793552	1.197638	-0.511677
C115	C	0.829929	0.309520	0.582881
H116	H	0.864556	0.287344	0.635195
H117	H	0.766062	0.352566	0.580111
H118	H	0.856781	0.222062	0.584065
H119	H	0.268965	1.744979	-0.071467
C120	C	0.932555	0.814396	-0.410677
H121	H	0.928006	0.826930	-0.467445
H122	H	0.997044	0.756178	-0.376773
H123	H	0.906316	0.767118	-0.380746
H124	H	0.424897	1.510832	-0.219741
H125	H	0.881031	1.713628	-0.486809
H126	H	0.282842	1.706665	-0.361760
H127	H	1.120422	0.519973	-0.034340
H128	H	1.430194	0.199438	0.062337
C129	C	1.468353	0.289400	0.160318
H130	H	1.516092	0.210816	0.155829
H131	H	1.476632	0.363025	0.138049
H132	H	1.472664	0.254334	0.220840
H133	H	1.294446	0.519910	0.139657
C134	C	1.427600	0.237640	0.608895
H135	H	1.483951	0.204330	0.594396
H136	H	1.426005	0.277454	0.642709
H137	H	1.425999	0.157861	0.642699
C138	C	1.235527	0.376266	0.618221
H139	H	1.169842	0.431037	0.609660
H140	H	1.263909	0.274859	0.650573
H141	H	1.263901	0.394471	0.650568
H142	H	0.306693	1.782758	-0.511861
C143	C	1.071078	0.602901	0.453819
H144	H	1.074470	0.562454	0.514305
H145	H	1.038339	0.705311	0.425089
H146	H	1.038365	0.585684	0.425097
H147	H	0.927636	0.604488	0.445123
H148	H	0.747180	0.426499	0.406765
C149	C	0.476388	1.674957	-0.543559
H150	H	0.416646	1.748690	-0.589544
H151	H	0.510718	1.712114	-0.548647
H152	H	0.510704	1.592514	-0.548636
H153	H	0.753646	0.604444	0.271170
H154	H	1.287023	0.540346	0.294405
H155	H	1.429079	0.344559	0.436425
C156	C	0.415466	1.514437	-0.078176
H157	H	0.350800	1.566389	-0.108293
H158	H	0.447382	1.522817	-0.120181
H159	H	0.443423	1.414146	-0.037367
C160	C	0.640843	1.448256	-0.379155
H161	H	0.637451	1.488686	-0.439641
H162	H	0.673583	1.465422	-0.350424
H163	H	0.673553	1.345848	-0.350433
H164	H	0.591499	1.531220	0.108993
C165	C	0.971466	1.432670	-0.172100
H166	H	1.001607	1.475914	-0.176503
H167	H	0.926717	1.459658	-0.142930
H168	H	1.017425	1.329145	-0.138980
H169	H	0.964770	1.624617	-0.332015
H170	H	0.784283	1.446734	-0.370491
