data_functionalizedCrystal
_audit_creation_method	'MofGen! by Chris Wilmer'
_symmetry_space_group_name_H-M	'P1'
_symmetry_Int_Tables_number	1
_symmetry_cell_setting	triclinic
loop_
_symmetry_equiv_pos_as_xyz
  x,y,z
_cell_length_a	19.805407
_cell_length_b	18.050589
_cell_length_c	19.805399
_cell_angle_alpha	89.977706
_cell_angle_beta	89.979591
_cell_angle_gamma	90.030161
loop_
_atom_site_label
_atom_site_type_symbol
_atom_site_fract_x
_atom_site_fract_y
_atom_site_fract_z
Zn1	Zn	1.034727	-0.295638	-0.382760
Zn2	Zn	1.534727	0.204362	0.117240
Zn3	Zn	1.034638	-0.419830	-0.269582
Zn4	Zn	1.534638	0.080170	0.230418
Zn5	Zn	0.921542	-0.295663	-0.269583
Zn6	Zn	1.421542	0.204337	0.230417
Zn7	Zn	0.921502	-0.419795	-0.382727
Zn8	Zn	1.421502	0.080205	0.117273
O9	O	0.978102	-0.357732	-0.326163
O10	O	1.478102	0.142268	0.173837
O11	O	1.129432	-0.312117	-0.367760
O12	O	1.629432	0.187883	0.132240
O13	O	1.019616	-0.403384	-0.174865
O14	O	1.519616	0.096616	0.325135
O15	O	0.936610	-0.191735	-0.284610
O16	O	1.436610	0.308265	0.215390
O17	O	1.129367	-0.403360	-0.284608
O18	O	1.629367	0.096640	0.215392
O19	O	1.019767	-0.191717	-0.367760
O20	O	1.519767	0.308283	0.132240
O21	O	0.936524	-0.312159	-0.174866
O22	O	1.436524	0.187841	0.325134
O23	O	0.826820	-0.312125	-0.284578
O24	O	1.326820	0.187875	0.215422
O25	O	0.936542	-0.403300	-0.477448
O26	O	1.436542	0.096700	0.022552
O27	O	0.826791	-0.403324	-0.367705
O28	O	1.326791	0.096676	0.132295
O29	O	1.019728	-0.312083	-0.477472
O30	O	1.519728	0.187917	0.022528
O31	O	1.019577	-0.523750	-0.284577
O32	O	1.519577	-0.023750	0.215423
O33	O	0.936456	-0.523724	-0.367704
O34	O	1.436456	-0.023724	0.132296
C35	C	0.802246	-0.357724	-0.326138
C36	C	1.302246	0.142276	0.173862
C37	C	0.727014	-0.357739	-0.326144
C38	C	1.227014	0.142261	0.173856
C39	C	0.265261	-0.310310	-0.369552
C40	C	0.765261	0.189690	0.130448
C41	C	0.335949	-0.310311	-0.369547
C42	C	0.835949	0.189689	0.130453
C43	C	0.371253	-0.357743	-0.326185
C44	C	0.871253	0.142257	0.173815
C45	C	0.335864	-0.405182	-0.282829
C46	C	0.835864	0.094818	0.217171
C47	C	0.265177	-0.405183	-0.282838
C48	C	0.765177	0.094817	0.217162
C49	C	0.620937	-0.405176	-0.282793
C50	C	1.120937	0.094824	0.217207
C51	C	0.691629	-0.405169	-0.282786
C52	C	1.191629	0.094831	0.217214
C53	C	0.691710	-0.310304	-0.369503
C54	C	1.191710	0.189696	0.130497
C55	C	0.621022	-0.310306	-0.369511
C56	C	1.121022	0.189694	0.130489
C57	C	0.585640	-0.357747	-0.326158
C58	C	1.085640	0.142253	0.173842
C59	C	0.508992	-0.357746	-0.326165
C60	C	1.008992	0.142254	0.173835
C61	C	0.447900	-0.357741	-0.326174
C62	C	0.947900	0.142259	0.173826
C63	C	0.978021	-0.550684	-0.326151
C64	C	1.478021	-0.050684	0.173849
C65	C	0.978048	-0.633230	-0.326169
C66	C	1.478048	-0.133230	0.173831
C67	C	0.932891	-0.832693	-0.371358
C68	C	1.432891	-0.332693	0.128642
C69	C	0.916392	-0.882132	-0.309595
C70	C	1.416392	-0.382132	0.190405
C71	C	0.978114	-0.784360	-0.326178
C72	C	1.478114	-0.284360	0.173822
C73	C	0.994646	-0.882002	-0.387949
C74	C	1.494646	-0.382002	0.112051
C75	C	0.978177	-0.930345	-0.326192
C76	C	1.478177	-0.430345	0.173808
C77	C	0.961583	-0.832712	-0.264382
C78	C	1.461583	-0.332712	0.235618
C79	C	1.039865	-0.832577	-0.342778
C80	C	1.539865	-0.332577	0.157222
C81	C	1.023390	-0.881995	-0.280972
C82	C	1.523390	-0.381995	0.219028
C83	C	0.978076	-0.700262	-0.326171
C84	C	1.478076	-0.200262	0.173829
C85	C	0.978215	-1.014441	-0.326192
C86	C	1.478215	-0.514441	0.173808
C87	C	1.154645	-0.357740	-0.326188
C88	C	1.654645	0.142260	0.173812
C89	C	1.229877	-0.357743	-0.326198
C90	C	1.729877	0.142257	0.173802
C91	C	0.978140	-0.357685	-0.502706
C92	C	1.478140	0.142315	-0.002706
C93	C	0.978156	-0.357665	-0.577938
C94	C	1.478156	0.142335	-0.077938
C95	C	0.978203	-0.164026	-0.326189
C96	C	1.478203	0.335974	0.173811
C97	C	0.978246	-0.081480	-0.326200
C98	C	1.478246	0.418520	0.173800
C99	C	1.021472	-0.310166	-0.613295
C100	C	1.521472	0.189834	-0.113295
C101	C	1.021479	-0.310144	-0.683984
C102	C	1.521479	0.189856	-0.183984
C103	C	0.978173	-0.357626	-0.719313
C104	C	1.478173	0.142374	-0.219313
C105	C	0.934852	-0.405128	-0.683950
C106	C	1.434852	0.094872	-0.183950
C107	C	0.934843	-0.405145	-0.613263
C108	C	1.434843	0.094855	-0.113263
C109	C	0.934891	-0.405058	-0.969024
C110	C	1.434891	0.094942	-0.469024
C111	C	0.934905	-0.405039	-1.039716
C112	C	1.434905	0.094961	-0.539716
C113	C	1.021528	-0.310058	-1.039744
C114	C	1.521528	0.189942	-0.539744
C115	C	1.021518	-0.310075	-0.969057
C116	C	1.521518	0.189925	-0.469057
C117	C	0.978195	-0.357573	-0.933701
C118	C	1.478195	0.142427	-0.433701
C119	C	0.978187	-0.357595	-0.857052
C120	C	1.478187	0.142405	-0.357052
C121	C	0.978184	-0.357609	-0.795960
C122	C	1.478184	0.142391	-0.295960
C123	C	0.978103	-0.357725	-0.150307
C124	C	1.478103	0.142275	0.349693
C125	C	0.978218	-0.357535	-0.075075
C126	C	1.478218	0.142465	0.424925
H127	H	0.894591	-0.811045	-0.409511
H128	H	1.394591	-0.311045	0.090489
N129	N	0.582780	-0.456337	-0.236032
N130	N	1.082780	0.043663	0.263968
H131	H	0.615872	-0.486379	-0.208559
H132	H	1.115872	0.013621	0.291441
H133	H	0.553451	-0.426061	-0.204760
H134	H	1.053451	0.073939	0.295240
H135	H	1.056801	-0.271379	-1.068540
H136	H	1.556801	0.228621	-0.568540
H137	H	0.236368	-0.443810	-0.247536
H138	H	0.736368	0.056190	0.252464
H139	H	1.092045	-0.810796	-0.356835
H140	H	1.592045	-0.310796	0.143165
H141	H	0.899637	-0.443706	-1.068479
H142	H	1.399637	0.056294	-0.568479
N143	N	0.847257	-0.910959	-0.290989
N144	N	1.347257	-0.410959	0.209011
H145	H	0.813103	-0.893028	-0.325136
H146	H	1.313103	-0.393028	0.174864
H147	H	0.847962	-0.966904	-0.290688
H148	H	1.347962	-0.466904	0.209312
N149	N	0.374111	-0.259130	-0.416290
N150	N	0.874111	0.240870	0.083710
H151	H	0.424248	-0.266322	-0.409704
H152	H	0.924248	0.233678	0.090296
H153	H	0.361778	-0.270740	-0.464618
H154	H	0.861778	0.229260	0.035382
H155	H	1.056753	-0.271467	-0.712769
H156	H	1.556753	0.228533	-0.212769
N157	N	0.943018	-0.804156	-0.195173
N158	N	1.443018	-0.304156	0.304827
H159	H	0.900769	-0.773048	-0.198422
H160	H	1.400769	-0.273048	0.301578
H161	H	0.934689	-0.847391	-0.163872
H162	H	1.434689	-0.347391	0.336128
N163	N	1.068230	-0.258867	-0.930952
N164	N	1.568230	0.241133	-0.430952
H165	H	1.095671	-0.228771	-0.964078
H166	H	1.595671	0.271229	-0.464078
H167	H	1.040691	-0.224505	-0.901622
H168	H	1.540691	0.275495	-0.401622
N169	N	0.888144	-0.456262	-0.930894
N170	N	1.388144	0.043738	-0.430894
H171	H	0.860707	-0.486331	-0.964004
H172	H	1.360707	0.013669	-0.464004
H173	H	0.915647	-0.490649	-0.901552
H174	H	1.415647	0.009351	-0.401552
N175	N	0.888127	-0.456325	-0.722052
N176	N	1.388127	0.043675	-0.222052
H177	H	0.894703	-0.449105	-0.772198
H178	H	1.394703	0.050895	-0.272198
H179	H	0.898620	-0.509372	-0.709696
H180	H	1.398620	-0.009372	-0.209696
N181	N	0.888117	-0.456369	-0.575124
N182	N	1.388117	0.043631	-0.075124
H183	H	0.860683	-0.486446	-0.608230
H184	H	1.360683	0.013554	-0.108230
H185	H	0.915641	-0.490748	-0.545792
H186	H	1.415641	0.009252	-0.045792
H187	H	1.061661	-0.903506	-0.242726
H188	H	1.561661	-0.403506	0.257274
N189	N	0.582945	-0.259138	-0.416271
N190	N	1.082945	0.240862	0.083729
H191	H	0.616087	-0.229087	-0.443735
H192	H	1.116087	0.270913	0.056265
H193	H	0.553614	-0.289408	-0.447553
H194	H	1.053614	0.210592	0.052447
H195	H	1.008603	-0.903653	-0.440182
H196	H	1.508603	-0.403653	0.059818
N197	N	1.068186	-0.258957	-0.575192
N198	N	1.568186	0.241043	-0.075192
H199	H	1.095627	-0.228863	-0.608320
H200	H	1.595627	0.271137	-0.108320
H201	H	1.040650	-0.224594	-0.545862
H202	H	1.540650	0.275406	-0.045862
H203	H	0.720527	-0.271677	-0.404805
H204	H	1.220527	0.228323	0.095195
N205	N	0.227192	-0.259143	-0.416320
N206	N	0.727192	0.240857	0.083680
H207	H	0.239512	-0.270746	-0.464661
H208	H	0.739512	0.229254	0.035339
H209	H	0.177054	-0.266358	-0.409691
H210	H	0.677054	0.233642	0.090309
N211	N	0.729709	-0.456328	-0.236013
N212	N	1.229709	0.043672	0.263987
H213	H	0.696569	-0.486383	-0.208551
H214	H	1.196569	0.013617	0.291449
H215	H	0.759038	-0.490729	-0.263511
H216	H	1.259038	0.009271	0.236489
N217	N	0.373937	-0.456342	-0.236059
N218	N	0.873937	0.043658	0.263941
H219	H	0.424087	-0.449142	-0.242629
H220	H	0.924087	0.050858	0.257371
H221	H	0.361561	-0.444712	-0.187740
H222	H	0.861561	0.055288	0.312260
