data_functionalizedCrystal
_audit_creation_method	'MofGen! by Chris Wilmer'
_symmetry_space_group_name_H-M	'P1'
_symmetry_Int_Tables_number	1
_symmetry_cell_setting	triclinic
loop_
_symmetry_equiv_pos_as_xyz
  x,y,z
_cell_length_a	15.944551
_cell_length_b	10.540539
_cell_length_c	9.016244
_cell_angle_alpha	90.000067
_cell_angle_beta	90.002849
_cell_angle_gamma	84.012115
loop_
_atom_site_label
_atom_site_type_symbol
_atom_site_fract_x
_atom_site_fract_y
_atom_site_fract_z
O1	O	-1.115504	-0.163707	-0.123178
O2	O	-0.871075	-0.183891	-0.123214
O3	O	-0.998866	0.010984	-0.123194
O4	O	-0.987713	-0.358581	-0.123199
O5	O	-0.998847	0.010979	0.123487
O6	O	-0.871056	-0.183895	0.123466
O7	O	-1.115485	-0.163711	0.123502
Cu8	Cu	-0.993269	-0.173804	0.146008
Cu9	Cu	-0.993291	-0.173798	-0.145720
O10	O	-0.987694	-0.358586	0.123482
C11	C	-0.839766	-0.183055	0.000121
C12	C	-0.746505	-0.180543	0.000107
C13	C	-0.998020	0.058273	0.000144
C14	C	-0.995518	0.199187	0.000135
C15	C	-1.146793	-0.164547	0.000163
C16	C	-1.240055	-0.167059	0.000168
C17	C	-0.530893	-0.053746	0.000138
C18	C	-0.470233	-0.112624	-0.121490
C19	C	-0.575752	-0.175998	0.000125
C20	C	-0.470237	-0.112658	0.121718
C21	C	-0.410813	-0.171600	0.000148
C22	C	-0.516321	-0.234910	-0.121603
C23	C	-0.516331	-0.234926	0.121714
C24	C	-0.455689	-0.293893	0.000057
C25	C	-0.670770	-0.178529	0.000110
C26	C	-0.315797	-0.169079	0.000152
C27	C	-0.988540	-0.405875	0.000141
C28	C	-0.991042	-0.546789	0.000139
N29	N	-0.993259	-0.173807	0.351194
C30	C	-0.899630	0.381308	-0.000432
C31	C	-0.902167	0.234725	0.000123
C32	C	-1.040431	0.261454	0.141009
C33	C	-1.037245	0.407955	0.141127
C34	C	-1.039165	0.408504	-0.139395
C35	C	-1.040025	0.261534	-0.141257
N36	N	-0.993307	-0.173785	-0.350907
C37	C	-0.924690	-0.277708	0.586216
C38	C	-0.924841	-0.278092	0.414325
C39	C	-1.081078	-0.202745	0.413545
C40	C	-1.080704	-0.203479	0.585490
C41	C	-0.974882	-0.040618	0.585737
C42	C	-0.972867	-0.041511	0.413782
H43	H	-0.563621	0.047713	-0.000011
F44	F	-1.033868	0.064307	0.357636
H45	H	-1.133386	-0.129069	0.372649
H46	H	-0.449822	-0.060915	-0.224316
H47	H	-1.024912	0.036717	0.626397
F48	F	-0.413137	-0.426642	-0.000030
F49	F	-0.999632	0.205219	0.278024
F50	F	-0.940294	-0.407272	0.360537
F51	F	-0.993835	0.444224	0.278752
F52	F	-0.543039	-0.302459	0.256122
H53	H	-1.096818	-0.300597	0.625581
F54	F	-0.542856	-0.302443	-0.256153
H55	H	-0.449834	-0.060929	0.224541
F56	F	-0.855973	0.178409	-0.131870
F57	F	-1.127296	0.471433	-0.140624
F58	F	-0.851438	0.418033	-0.132479
H59	H	-0.862897	0.411014	0.100014
F60	F	-0.855627	0.179504	0.132320
F61	F	-1.130036	0.233458	0.147873
F62	F	-1.124995	0.471852	0.149509
H63	H	-1.008961	0.439648	-0.246167
F64	F	-0.997408	0.206957	-0.277493
H65	H	-1.108086	0.238239	-0.149754
H66	H	-0.859590	-0.260849	0.372171
H67	H	-0.859234	-0.260746	0.627600
F68	F	-1.149440	-0.108209	0.639858
F69	F	-0.888424	-0.012803	0.360521
F70	F	-1.102614	-0.328240	0.357244
F71	F	-0.939976	-0.406152	0.642648
F72	F	-0.892934	-0.004267	0.642471
