data_functionalizedCrystal
_audit_creation_method	'MofGen! by Chris Wilmer'
_symmetry_space_group_name_H-M	'P1'
_symmetry_Int_Tables_number	1
_symmetry_cell_setting	triclinic
loop_
_symmetry_equiv_pos_as_xyz
  x,y,z
_cell_length_a	6.817900
_cell_length_b	10.992421
_cell_length_c	16.255661
_cell_angle_alpha	93.806276
_cell_angle_beta	103.488922
_cell_angle_gamma	108.764763
loop_
_atom_site_label
_atom_site_type_symbol
_atom_site_fract_x
_atom_site_fract_y
_atom_site_fract_z
V1	V	-4.053775	-0.178799	-0.263859
O2	O	-4.013052	0.007524	-0.258849
O3	O	-4.031770	-0.353500	-0.262043
O4	O	-4.004992	-0.176517	-0.378943
O5	O	-4.040015	-0.170685	-0.141140
V6	V	-4.534033	-0.156457	-0.249182
O7	O	-4.322197	-0.227807	-0.296054
O8	O	-4.715808	-0.107448	-0.216988
O9	O	-4.332831	0.018245	-0.250999
O10	O	-4.692153	-0.342779	-0.254193
O11	O	-4.665190	-0.164571	-0.371902
O12	O	-4.359610	-0.158738	-0.134099
C13	C	-3.883205	-0.396074	-0.257877
C14	C	-3.946497	-0.538898	-0.257160
C15	C	-3.815488	-0.734162	-0.251372
C16	C	-3.749312	-0.585520	-0.251783
C17	C	-4.035194	-0.577223	-0.178237
C18	C	-4.099622	-0.725763	-0.177401
C19	C	-4.194048	-0.764981	-0.339188
C20	C	-4.124601	-0.616474	-0.340901
C21	C	-3.849045	-0.170313	-0.406994
C22	C	-3.890617	-0.169603	-0.501075
C23	C	-3.799891	-0.161127	-0.723894
C24	C	-3.972865	-0.270520	-0.793363
C25	C	-3.966800	-0.168273	-0.673324
C26	C	-3.867927	-0.057628	-0.771492
C27	C	-4.040373	-0.166982	-0.839707
C28	C	-4.139271	-0.277763	-0.741562
C29	C	-4.034257	-0.064775	-0.719676
C30	C	-4.207372	-0.174198	-0.789126
C31	C	-3.924412	-0.169017	-0.577474
C32	C	-4.082780	-0.166247	-0.935556
C33	C	-4.144740	0.060812	-0.255162
C34	C	-4.060686	0.203635	-0.255885
C35	C	-4.178899	-0.164947	-0.106044
C36	C	-4.116564	-0.165650	-0.011962
H37	H	-4.062219	-0.592808	-0.399291
H38	H	-3.947358	-0.357505	-0.825443
H39	H	-4.059685	0.022215	-0.687573
H40	H	-4.003182	-0.743031	-0.114738
N41	N	-3.716529	0.065615	-0.789486
H42	H	-3.746871	0.065598	-0.853343
H43	H	-3.563136	0.070360	-0.765595
N44	N	-3.656512	-0.551671	-0.326477
H45	H	-3.658322	-0.633398	-0.359432
H46	H	-3.503563	-0.489117	-0.304554
N47	N	-4.320338	-0.576515	-0.352585
H48	H	-4.296231	-0.507253	-0.303539
H49	H	-4.449989	-0.654576	-0.353756
H50	H	-4.253584	-0.370896	-0.728089
H51	H	-3.776821	-0.780803	-0.307416
N52	N	-3.680321	-0.761060	-0.171793
H53	H	-3.719067	-0.858064	-0.173187
H54	H	-3.708361	-0.722292	-0.119531
N55	N	-3.570584	-0.515753	-0.172148
H56	H	-3.622354	-0.537954	-0.119814
H57	H	-3.526834	-0.418813	-0.172155
N58	N	-4.333066	-0.779930	-0.177237
H59	H	-4.393700	-0.707298	-0.177703
H60	H	-4.344860	-0.821427	-0.124159
H61	H	-4.174023	-0.814732	-0.398907
H62	H	-4.380085	-0.179754	-0.817472
H63	H	-3.627322	-0.155743	-0.695414
N64	N	-4.227817	-0.537180	-0.179425
H65	H	-4.345375	-0.582064	-0.233605
H66	H	-4.184793	-0.439868	-0.177314
N67	N	-3.867810	-0.505060	-0.096112
H68	H	-3.734452	-0.447513	-0.109845
H69	H	-3.830352	-0.569633	-0.059767
H70	H	-4.372949	-0.806114	-0.343325
