data_functionalizedCrystal
_audit_creation_method	'MofGen! by Chris Wilmer'
_symmetry_space_group_name_H-M	'P1'
_symmetry_Int_Tables_number	1
_symmetry_cell_setting	triclinic
loop_
_symmetry_equiv_pos_as_xyz
  x,y,z
_cell_length_a	10.654554
_cell_length_b	23.532357
_cell_length_c	9.730223
_cell_angle_alpha	89.993164
_cell_angle_beta	89.999646
_cell_angle_gamma	83.657518
loop_
_atom_site_label
_atom_site_type_symbol
_atom_site_fract_x
_atom_site_fract_y
_atom_site_fract_z
O1	O	1.665265	0.079996	-0.114313
O2	O	1.299542	0.087614	-0.114317
O3	O	1.493465	0.000944	-0.114287
O4	O	1.471343	0.166667	-0.114343
O5	O	1.493462	0.000946	0.114293
O6	O	1.299540	0.087616	0.114263
O7	O	1.665262	0.079998	0.114267
Zn8	Zn	1.482401	0.083808	0.150557
Zn9	Zn	1.482404	0.083805	-0.150607
O10	O	1.471340	0.166669	0.114236
C11	C	1.252761	0.087055	-0.000027
C12	C	1.113372	0.085380	-0.000027
C13	C	0.901277	0.134839	-0.000047
C14	C	1.032248	0.136413	-0.000048
C15	C	1.063520	0.032770	-0.000020
C16	C	0.932551	0.031196	-0.000029
C17	C	0.883224	0.194676	-0.000057
C18	C	1.014195	0.196250	-0.000058
C19	C	1.492910	-0.020275	0.000007
C20	C	1.491246	-0.083505	0.000020
C21	C	1.480803	-0.475585	-0.124653
C22	C	1.479222	-0.534995	-0.124661
O23	O	1.478363	-0.565718	-0.230627
N24	N	1.478437	-0.564710	-0.000064
C25	C	1.479220	-0.535012	0.124550
O26	O	1.478405	-0.565742	0.230529
C27	C	1.480792	-0.475603	0.124556
C28	C	1.481590	-0.445891	-0.000049
C29	C	1.481600	-0.445874	-0.249248
C30	C	1.483184	-0.386468	-0.249240
C31	C	1.483971	-0.356774	-0.124636
C32	C	1.483174	-0.386486	-0.000041
C33	C	1.481566	-0.445905	0.249168
C34	C	1.483138	-0.386492	0.249164
C35	C	1.483936	-0.356780	0.124558
C36	C	1.485545	-0.297386	0.124571
N37	N	1.486330	-0.267671	-0.000026
C38	C	1.485543	-0.297365	-0.124630
C39	C	1.475915	-0.659775	0.124527
C40	C	1.474352	-0.719184	0.124522
C41	C	1.474352	-0.719163	-0.124689
C42	C	1.475924	-0.659754	-0.124683
C43	C	1.476701	-0.630060	-0.000071
C44	C	1.488870	-0.172609	-0.124603
C45	C	1.490460	-0.113199	-0.124583
C46	C	1.490453	-0.113225	0.124627
C47	C	1.488870	-0.172630	0.124608
C48	C	1.488075	-0.202321	-0.000018
O49	O	1.486400	-0.266625	0.230484
O50	O	1.486341	-0.266627	-0.230591
C51	C	1.712043	0.080557	-0.000026
C52	C	1.851433	0.082232	-0.000035
C53	C	1.471895	0.187888	-0.000061
C54	C	1.473558	0.251118	-0.000083
N55	N	1.482408	0.083809	0.356093
N56	N	1.482407	0.083799	-0.356144
C57	C	1.568298	0.045445	0.428033
C58	C	1.568295	0.045438	0.571915
C59	C	1.396507	0.122165	0.571907
C60	C	1.396506	0.122169	0.428027
C61	C	1.667482	0.001149	0.428039
C62	C	1.667479	0.001142	0.571922
H63	H	1.491112	-0.089011	-0.226056
H64	H	1.488217	-0.196776	-0.226085
H65	H	1.326556	0.153403	0.369455
Cl66	Cl	1.473373	-0.756529	0.281175
H67	H	1.480919	-0.470086	0.350635
H68	H	1.647444	-0.042624	0.388999
H69	H	1.049218	0.215306	-0.098761
H70	H	1.763678	0.010900	0.610969
H71	H	1.488232	-0.196823	0.226072
Cl72	Cl	1.491442	-0.075884	0.281263
H73	H	1.483752	-0.362317	0.350640
H74	H	1.326567	0.153396	0.630491
Cl75	Cl	0.817648	0.229487	-0.147752
Cl76	Cl	1.165505	-0.031386	-0.000009
Cl77	Cl	0.811835	0.222591	0.152300
H78	H	1.758221	0.015019	0.383408
Cl79	Cl	1.622408	-0.062717	0.640838
H80	H	1.476572	-0.635566	-0.226148
Cl81	Cl	1.473352	-0.756503	-0.281335
H82	H	1.483829	-0.362282	-0.350706
Cl83	Cl	1.476904	-0.622453	0.281199
Cl84	Cl	0.869894	-0.034940	-0.000066
H85	H	1.480955	-0.470044	-0.350721
Cl86	Cl	1.058374	0.232377	0.147620
