data_functionalizedCrystal
_audit_creation_method	'MofGen! by Chris Wilmer'
_symmetry_space_group_name_H-M	'P1'
_symmetry_Int_Tables_number	1
_symmetry_cell_setting	triclinic
loop_
_symmetry_equiv_pos_as_xyz
  x,y,z
_cell_length_a	16.625548
_cell_length_b	16.625545
_cell_length_c	13.033454
_cell_angle_alpha	82.781280
_cell_angle_beta	97.160702
_cell_angle_gamma	90.026626
loop_
_atom_site_label
_atom_site_type_symbol
_atom_site_fract_x
_atom_site_fract_y
_atom_site_fract_z
Zn1	Zn	1.174785	-0.263021	-0.590887
Zn2	Zn	1.508118	0.070313	-0.257553
Zn3	Zn	1.841451	0.403646	0.075780
Zn4	Zn	1.191798	-0.415004	-0.416136
Zn5	Zn	1.525131	-0.081671	-0.082803
Zn6	Zn	1.858464	0.251663	0.250531
Zn7	Zn	1.057062	-0.280190	-0.416153
Zn8	Zn	1.390395	0.053143	-0.082819
Zn9	Zn	1.723729	0.386477	0.250514
Zn10	Zn	1.039915	-0.397823	-0.590831
Zn11	Zn	1.373248	-0.064490	-0.257498
Zn12	Zn	1.706582	0.268844	0.075835
O13	O	1.115890	-0.339009	-0.503502
O14	O	1.449223	-0.005676	-0.170168
O15	O	1.782557	0.327657	0.163165
O16	O	1.289872	-0.283187	-0.567722
O17	O	1.623206	0.050147	-0.234388
O18	O	1.956539	0.383480	0.098945
O19	O	1.188221	-0.411496	-0.269901
O20	O	1.521554	-0.078163	0.063433
O21	O	1.854888	0.255170	0.396766
O22	O	1.072734	-0.165077	-0.439361
O23	O	1.406068	0.168256	-0.106028
O24	O	1.739401	0.501590	0.227305
O25	O	1.302372	-0.394848	-0.439333
O26	O	1.635705	-0.061515	-0.106000
O27	O	1.969038	0.271819	0.227334
O28	O	1.159225	-0.152463	-0.567738
O29	O	1.492558	0.180870	-0.234404
O30	O	1.825891	0.514204	0.098929
O31	O	1.089231	-0.312449	-0.269913
O32	O	1.422564	0.020884	0.063420
O33	O	1.755898	0.354218	0.396754
O34	O	0.941957	-0.295789	-0.439308
O35	O	1.275290	0.037544	-0.105975
O36	O	1.608623	0.370877	0.227359
O37	O	1.043510	-0.365565	-0.737076
O38	O	1.376843	-0.032232	-0.403743
O39	O	1.710176	0.301101	-0.070410
O40	O	0.929359	-0.382214	-0.567644
O41	O	1.262692	-0.048880	-0.234311
O42	O	1.596026	0.284453	0.099023
O43	O	1.142598	-0.266527	-0.737117
O44	O	1.475931	0.066807	-0.403783
O45	O	1.809265	0.400140	-0.070450
O46	O	1.171594	-0.525560	-0.439280
O47	O	1.504928	-0.192227	-0.105946
O48	O	1.838261	0.141106	0.227387
O49	O	1.060007	-0.512937	-0.567628
O50	O	1.393340	-0.179604	-0.234294
O51	O	1.726673	0.153729	0.099039
C52	C	0.906402	-0.339001	-0.503472
C53	C	1.239735	-0.005667	-0.170139
C54	C	1.573069	0.327666	0.163194
C55	C	0.816780	-0.339014	-0.503485
C56	C	1.150113	-0.005681	-0.170151
C57	C	1.483446	0.327653	0.163182
C58	C	0.488600	-0.339015	-0.503529
C59	C	0.821933	-0.005682	-0.170196
C60	C	1.155266	0.327652	0.163137
C61	C	0.579910	-0.339013	-0.503514
C62	C	0.913243	-0.005679	-0.170180
C63	C	1.246576	0.327654	0.163153
C64	C	0.652687	-0.339015	-0.503506
C65	C	0.986020	-0.005682	-0.170173
C66	C	1.319353	0.327652	0.163160
C67	C	0.744002	-0.339012	-0.503492
C68	C	1.077336	-0.005679	-0.170159
C69	C	1.410669	0.327655	0.163175
C70	C	1.115806	-0.548504	-0.503469
C71	C	1.449139	-0.215170	-0.170135
C72	C	1.782472	0.118163	0.163198
C73	C	1.115840	-0.638123	-0.503490
C74	C	1.449173	-0.304789	-0.170156
C75	C	1.782506	0.028544	0.163177
C76	C	1.115869	-0.710903	-0.503510
C77	C	1.449202	-0.377570	-0.170177
C78	C	1.782536	-0.044236	0.163156
C79	C	1.115914	-0.802209	-0.503533
C80	C	1.449247	-0.468876	-0.170200
C81	C	1.782580	-0.135542	0.163133
C82	C	1.115954	-0.874984	-0.503547
C83	C	1.449288	-0.541651	-0.170213
C84	C	1.782621	-0.208318	0.163120
C85	C	1.115998	-0.966296	-0.503568
C86	C	1.449332	-0.632963	-0.170235
C87	C	1.782665	-0.299630	0.163099
C88	C	1.326196	-0.339019	-0.503532
C89	C	1.659529	-0.005685	-0.170198
C90	C	1.992863	0.327648	0.163135
C91	C	1.415816	-0.339023	-0.503544
C92	C	1.749149	-0.005689	-0.170211
C93	C	2.082482	0.327644	0.163122
C94	C	1.089243	-0.312214	-0.776074
C95	C	1.422577	0.021119	-0.442741
C96	C	1.755910	0.354452	-0.109408
C97	C	1.077888	-0.300796	-0.892229
C98	C	1.411222	0.032537	-0.558895
C99	C	1.744555	0.365871	-0.225562
C100	C	1.115994	-0.128695	-0.503558
C101	C	1.449328	0.204638	-0.170224
C102	C	1.782661	0.537972	0.163109
C103	C	1.116039	-0.039072	-0.503581
C104	C	1.449372	0.294262	-0.170248
C105	C	1.782706	0.627595	0.163085
C106	C	1.121804	-0.344712	-0.944008
C107	C	1.455137	-0.011378	-0.610674
C108	C	1.788471	0.321955	-0.277341
C109	C	1.110069	-0.332911	-1.064059
C110	C	1.443402	0.000422	-0.730726
C111	C	1.776735	0.333755	-0.397393
C112	C	1.142479	-0.365642	-0.231989
C113	C	1.475813	-0.032309	0.101344
C114	C	1.809146	0.301025	0.434677
C115	C	1.153991	-0.376833	-0.115836
C116	C	1.487324	-0.043500	0.217498
C117	C	1.820657	0.289833	0.550831
H118	H	1.168092	-0.391043	-0.899460
H119	H	1.501426	-0.057710	-0.566127
H120	H	1.834759	0.275624	-0.232794
H121	H	1.200283	-0.423168	-1.071294
H122	H	1.533616	-0.089834	-0.737960
H123	H	1.866950	0.243499	-0.404627
H124	H	1.063783	-0.286570	-1.108603
H125	H	1.397117	0.046763	-0.775269
H126	H	1.730450	0.380096	-0.441936
O127	O	1.022575	-0.245630	-0.945408
O128	O	1.355908	0.087703	-0.612075
O129	O	1.689242	0.421037	-0.278741
C130	C	0.964361	-0.285372	-1.008544
C131	C	1.297694	0.047961	-0.675211
C132	C	1.631027	0.381294	-0.341877
H133	H	0.962551	-0.352096	-0.975569
H134	H	1.295885	-0.018762	-0.642235
H135	H	1.629218	0.314571	-0.308902
H136	H	0.981263	-0.280079	-1.091228
H137	H	1.314597	0.053254	-0.757894
H138	H	1.647930	0.386588	-0.424561
C139	C	0.882604	-0.163852	-1.050863
C140	C	1.215937	0.169481	-0.717530
C141	C	1.549270	0.502815	-0.384197
C142	C	0.880377	-0.245801	-1.010357
C143	C	1.213710	0.087532	-0.677024
C144	C	1.547043	0.420865	-0.343691
H145	H	0.830799	-0.139441	-1.051987
H146	H	1.164132	0.193892	-0.718654
H147	H	1.497465	0.527225	-0.385320
H148	H	0.921825	-0.137075	-1.008331
H149	H	1.255158	0.196258	-0.674998
H150	H	1.588491	0.529591	-0.341664
H151	H	0.896693	-0.159452	-1.119763
H152	H	1.230026	0.173881	-0.786430
H153	H	1.563359	0.507215	-0.453096
H154	H	0.866298	-0.250200	-0.941455
H155	H	1.199631	0.083133	-0.608122
H156	H	1.532965	0.416467	-0.274788
H157	H	0.841151	-0.272578	-1.052879
H158	H	1.174484	0.060756	-0.719545
H159	H	1.507818	0.394089	-0.386212
