data_functionalizedCrystal
_audit_creation_method	'MofGen! by Chris Wilmer'
_symmetry_space_group_name_H-M	'P1'
_symmetry_Int_Tables_number	1
_symmetry_cell_setting	triclinic
loop_
_symmetry_equiv_pos_as_xyz
  x,y,z
_cell_length_a	23.532361
_cell_length_b	23.532357
_cell_length_c	14.185569
_cell_angle_alpha	76.926768
_cell_angle_beta	103.071806
_cell_angle_gamma	82.828980
loop_
_atom_site_label
_atom_site_type_symbol
_atom_site_fract_x
_atom_site_fract_y
_atom_site_fract_z
O1	O	0.742283	0.081985	-0.083334
O2	O	0.576410	0.092020	-0.083359
O3	O	0.664366	0.004065	-0.083325
O4	O	0.654326	0.169941	-0.083368
O5	O	0.690349	-0.021915	0.083520
O6	O	0.602393	0.066040	0.083485
O7	O	0.768266	0.056005	0.083511
Cu8	Cu	0.687702	0.058650	0.098732
Cu9	Cu	0.656974	0.089375	-0.098581
O10	O	0.680310	0.143961	0.083477
C11	C	0.568184	0.078780	0.000060
C12	C	0.504965	0.078026	0.000051
C13	C	0.217559	0.088883	-0.090889
C14	C	0.276959	0.089598	-0.090892
O15	O	0.295639	0.101992	-0.168237
N16	N	0.320828	0.075798	0.000056
C17	C	0.305296	0.061275	0.091011
O18	O	0.348064	0.049601	0.168369
C19	C	0.245898	0.060556	0.091013
C20	C	0.202031	0.074363	0.000060
C21	C	0.173693	0.102688	-0.181835
C22	C	0.114298	0.101974	-0.181832
C23	C	0.098769	0.087454	-0.090883
C24	C	0.142635	0.073649	0.000063
C25	C	0.230368	0.046029	0.181968
C26	C	0.170965	0.045310	0.181962
C27	C	0.127098	0.059118	0.091008
C28	C	0.067711	0.058414	0.091015
N29	N	0.023842	0.072215	0.000067
C30	C	0.039371	0.086735	-0.090881
C31	C	0.430034	0.062785	0.091001
C32	C	0.489431	0.063509	0.091001
C33	C	0.461089	0.091831	-0.090903
C34	C	0.401691	0.091112	-0.090901
C35	C	0.386165	0.076586	0.000054
C36	C	-0.085362	0.085234	-0.090868
C37	C	-0.144762	0.084521	-0.090857
C38	C	-0.116415	0.056196	0.091046
C39	C	-0.057021	0.056912	0.091035
C40	C	-0.041497	0.071430	0.000070
O41	O	0.048987	0.046024	0.168321
O42	O	-0.003401	0.098399	-0.168226
C43	C	0.677107	-0.030142	0.000100
C44	C	0.676354	-0.093362	0.000110
C45	C	0.657446	-0.471202	-0.090892
C46	C	0.656727	-0.530601	-0.090898
O47	O	0.644292	-0.549273	-0.168245
N48	N	0.670535	-0.574473	0.000048
C49	C	0.685056	-0.558945	0.091005
O50	O	0.696734	-0.601716	0.168361
C51	C	0.685770	-0.499547	0.091010
C52	C	0.671967	-0.455677	0.000058
C53	C	0.643643	-0.427334	-0.181837
C54	C	0.644363	-0.367940	-0.181830
C55	C	0.658884	-0.352414	-0.090880
C56	C	0.672686	-0.396283	0.000064
C57	C	0.700286	-0.484018	0.181966
C58	C	0.700998	-0.424615	0.181963
C59	C	0.687196	-0.380745	0.091012
C60	C	0.687927	-0.321363	0.091021
N61	N	0.674119	-0.277491	0.000075
C62	C	0.659598	-0.293016	-0.090875
C63	C	0.683554	-0.683683	0.090988
C64	C	0.682845	-0.743081	0.090984
C65	C	0.654515	-0.714733	-0.090919
C66	C	0.655229	-0.655335	-0.090914
C67	C	0.669747	-0.639811	0.000042
C68	C	0.661110	-0.168285	-0.090855
C69	C	0.661833	-0.108888	-0.090841
C70	C	0.690159	-0.137240	0.091062
C71	C	0.689439	-0.196634	0.091048
C72	C	0.674912	-0.212153	0.000082
O73	O	0.700354	-0.302647	0.168329
O74	O	0.647915	-0.250239	-0.168218
C75	C	0.776491	0.069246	0.000089
C76	C	0.839710	0.070001	0.000092
C77	C	0.667568	0.178168	0.000049
C78	C	0.668320	0.241389	0.000033
N79	N	0.709318	0.037040	0.237512
N80	N	0.635362	0.110981	-0.237360
C81	C	0.571852	0.174447	0.605108
C82	C	0.588231	0.158081	0.710136
C83	C	0.666132	0.080225	0.710128
C84	C	0.649758	0.096583	0.605097
C85	C	0.602619	0.143694	0.552596
C86	C	0.680524	0.065830	0.552585
C87	C	0.664154	0.082188	0.447564
C88	C	0.617017	0.129299	0.395056
C89	C	0.586248	0.160052	0.447575
C90	C	0.727666	0.018721	0.605089
C91	C	0.758432	-0.012032	0.552576
C92	C	0.742059	0.004324	0.447554
C93	C	0.694923	0.051435	0.395045
C94	C	0.772828	-0.026430	0.395034
C95	C	0.756458	-0.010071	0.290013
C96	C	0.678552	0.067793	0.290024
H97	H	0.158328	0.033487	0.256030
Cl98	Cl	0.795138	-0.048732	0.223996
Cl99	Cl	0.748247	-0.001839	0.737117
Cl100	Cl	0.625386	-0.446838	-0.296190
H101	H	0.711527	-0.519728	0.256029
H102	H	0.603691	0.142619	0.309541
Cl103	Cl	0.701813	-0.664176	0.205346
Cl104	Cl	0.346549	0.108468	-0.205247
H105	H	0.533463	0.212806	0.562360
H106	H	0.796815	-0.050389	0.595335
H107	H	-0.021303	0.045680	0.165097
H108	H	0.640163	0.106152	0.247275
H109	H	-0.129070	0.044376	0.165094
H110	H	0.650594	-0.073169	-0.164908
Cl111	Cl	0.719251	-0.405104	0.296317
H112	H	0.642689	-0.727383	-0.164976
H113	H	0.694093	-0.778797	0.165046
Cl114	Cl	0.642847	-0.187786	-0.205215
H115	H	0.701985	-0.124589	0.165112
H116	H	0.700684	-0.232355	0.165109
Cl117	Cl	0.637875	-0.600190	-0.205258
Cl118	Cl	0.480622	0.110086	-0.205240
H119	H	0.547858	0.198411	0.404827
H120	H	0.525143	0.052274	0.165064
H121	H	0.563173	0.183129	0.752886
H122	H	0.704515	0.041868	0.752886
H123	H	-0.180478	0.095767	-0.164925
Cl124	Cl	-0.065856	0.103488	-0.205226
H125	H	0.811214	-0.064785	0.437794
H126	H	0.078585	0.113215	-0.255896
H127	H	0.186328	0.114511	-0.255901
H128	H	0.417398	0.050964	0.165072
H129	H	0.266077	0.034784	0.256032
H130	H	0.633121	-0.332224	-0.255893
