data_functionalizedCrystal
_audit_creation_method	'MofGen! by Chris Wilmer'
_symmetry_space_group_name_H-M	'P1'
_symmetry_Int_Tables_number	1
_symmetry_cell_setting	triclinic
loop_
_symmetry_equiv_pos_as_xyz
  x,y,z
_cell_length_a	14.519709
_cell_length_b	27.732025
_cell_length_c	12.996460
_cell_angle_alpha	90.008388
_cell_angle_beta	90.000034
_cell_angle_gamma	83.156806
loop_
_atom_site_label
_atom_site_type_symbol
_atom_site_fract_x
_atom_site_fract_y
_atom_site_fract_z
O1	O	1.222757	0.063363	-0.085399
O2	O	0.954149	0.070825	-0.085426
O3	O	1.096806	-0.003264	-0.085443
O4	O	1.080099	0.137451	-0.085382
O5	O	1.096791	-0.003268	0.085691
O6	O	0.954134	0.070820	0.085708
O7	O	1.222742	0.063359	0.085735
Cu8	Cu	1.088437	0.067089	0.101347
Cu9	Cu	1.088454	0.067094	-0.101038
O10	O	1.080085	0.137447	0.085752
C11	C	0.919788	0.070475	0.000137
C12	C	0.817425	0.069433	0.000124
C13	C	0.442596	0.065596	0.000169
C14	C	0.546886	0.066662	0.000157
C15	C	0.630007	0.067514	0.000146
C16	C	0.734303	0.068580	0.000135
C17	C	1.096451	-0.021275	0.000114
C18	C	1.095405	-0.074935	0.000083
C19	C	1.087979	-0.458134	-0.093143
C20	C	1.091894	-0.256456	-0.093175
O21	O	1.092444	-0.230384	-0.172513
N22	N	1.092376	-0.231235	0.000107
C23	C	1.091885	-0.256436	0.093404
O24	O	1.092393	-0.230357	0.172746
C25	C	1.087975	-0.458114	0.093436
C26	C	1.087484	-0.483332	0.000147
C27	C	1.087489	-0.483352	-0.186423
C28	C	1.086505	-0.533768	-0.186414
C29	C	1.086011	-0.558966	-0.093124
C30	C	1.086501	-0.533748	0.000156
C31	C	1.087491	-0.483315	0.186732
C32	C	1.086516	-0.533738	0.186731
C33	C	1.086025	-0.558956	0.093443
C34	C	1.085022	-0.609362	0.093456
N35	N	1.084541	-0.634584	0.000173
C36	C	1.085035	-0.609386	-0.093117
C37	C	1.093935	-0.150552	0.093381
C38	C	1.094911	-0.100133	0.093373
C39	C	1.094922	-0.100156	-0.093207
C40	C	1.093940	-0.150576	-0.093198
C41	C	1.093454	-0.175774	0.000099
C42	C	1.082968	-0.715263	-0.093091
C43	C	1.081980	-0.765683	-0.093073
C44	C	1.081973	-0.765656	0.093506
C45	C	1.082956	-0.715240	0.093489
C46	C	1.083457	-0.690045	0.000183
O47	O	1.084482	-0.635466	0.172752
O48	O	1.084547	-0.635475	-0.172446
C49	C	1.088963	-0.407718	-0.093152
C50	C	1.089452	-0.382500	0.000129
C51	C	1.088958	-0.407698	0.093419
C52	C	1.090428	-0.332080	0.000121
C53	C	1.090922	-0.306882	-0.093169
C54	C	1.090441	-0.332104	-0.186451
C55	C	1.089457	-0.382520	-0.186442
C56	C	1.089440	-0.382476	0.186701
C57	C	1.090423	-0.332060	0.186685
C58	C	1.090917	-0.306862	0.093395
C59	C	1.257103	0.063709	0.000170
C60	C	1.359466	0.064751	0.000176
C61	C	1.080440	0.155458	0.000193
C62	C	1.081486	0.209119	0.000217
N63	N	1.088431	0.067086	0.243694
N64	N	1.088467	0.067094	-0.243385
C65	C	1.088453	0.067095	0.663509
C66	C	1.088444	0.067094	0.546704
C67	C	1.088442	0.067090	0.453605
C68	C	1.088433	0.067089	0.336793
H69	H	1.083376	-0.694755	-0.169070
H70	H	1.086112	-0.554297	-0.262379
H71	H	1.087894	-0.462841	-0.262396
N72	N	1.083470	-0.689480	0.188781
N73	N	1.149056	-0.665749	0.209596
H74	H	1.149429	-0.647560	0.276899
N75	N	1.093436	-0.176326	-0.188498
N76	N	1.093872	-0.153815	-0.271781
H77	H	1.093517	-0.171998	-0.339092
H78	H	1.095318	-0.079631	-0.169167
H79	H	1.087900	-0.462792	0.262697
N80	N	1.090958	-0.306352	-0.281736
N81	N	1.156540	-0.282618	-0.302533
H82	H	1.156910	-0.264428	-0.369823
N83	N	1.081494	-0.791434	-0.188381
N84	N	1.146639	-0.790203	-0.250837
H85	H	1.146299	-0.808387	-0.318148
N86	N	1.086004	-0.559482	0.282026
N87	N	1.085124	-0.604498	0.282029
H88	H	1.084759	-0.622680	0.349330
H89	H	1.089057	-0.403048	-0.262407
H90	H	1.090814	-0.311531	0.262657
H91	H	1.093539	-0.171064	0.169358
N92	N	1.088942	-0.408204	0.282009
N93	N	1.089377	-0.385674	0.365283
H94	H	1.089023	-0.403842	0.432602
H95	H	1.095293	-0.079604	0.169338
N96	N	1.081462	-0.791408	0.188786
N97	N	1.080587	-0.836424	0.188769
H98	H	1.080231	-0.854614	0.256061
