data_functionalizedCrystal
_audit_creation_method	'MofGen! by Chris Wilmer'
_symmetry_space_group_name_H-M	'P1'
_symmetry_Int_Tables_number	1
_symmetry_cell_setting	triclinic
loop_
_symmetry_equiv_pos_as_xyz
  x,y,z
_cell_length_a	16.109301
_cell_length_b	9.730223
_cell_length_c	10.654559
_cell_angle_alpha	90.001240
_cell_angle_beta	96.024918
_cell_angle_gamma	89.997484
loop_
_atom_site_label
_atom_site_type_symbol
_atom_site_fract_x
_atom_site_fract_y
_atom_site_fract_z
O1	O	1.104090	0.114195	-0.161414
O2	O	1.604090	0.614195	0.338586
O3	O	0.862148	0.114216	-0.181503
O4	O	1.362148	0.614216	0.318497
O5	O	0.988678	0.114205	0.011355
O6	O	1.488678	0.614205	0.511355
O7	O	0.977561	0.114206	-0.354272
O8	O	1.477561	0.614206	0.145728
O9	O	0.988677	-0.114375	0.011351
O10	O	1.488677	0.385625	0.511351
O11	O	0.862147	-0.114364	-0.181508
O12	O	1.362147	0.385636	0.318492
O13	O	1.104089	-0.114385	-0.161419
O14	O	1.604089	0.385615	0.338581
Zn15	Zn	0.983118	-0.150667	-0.171464
Zn16	Zn	1.483118	0.349333	0.328536
Zn17	Zn	0.983120	0.150497	-0.171458
Zn18	Zn	1.483120	0.650497	0.328542
O19	O	0.977559	-0.114374	-0.354277
O20	O	1.477559	0.385626	0.145723
C21	C	0.831168	-0.000071	-0.180691
C22	C	1.331168	0.499929	0.319309
C23	C	0.738858	-0.000063	-0.178252
C24	C	1.238858	0.499937	0.321748
N25	N	0.983122	-0.356203	-0.171468
N26	N	1.483122	0.143797	0.328532
C27	C	0.517235	-0.000079	-0.287017
C28	C	1.017235	0.499921	0.212983
C29	C	0.430500	-0.000088	-0.284715
C30	C	0.930500	0.499912	0.215285
C31	C	0.449009	-0.000083	-0.055896
C32	C	0.949009	0.499917	0.444104
C33	C	0.535742	-0.000084	-0.058199
C34	C	1.035742	0.499916	0.441801
C35	C	0.569852	-0.000075	-0.173764
C36	C	1.069852	0.499925	0.326236
C37	C	0.396385	-0.000082	-0.169158
C38	C	0.896385	0.499918	0.330842
C39	C	0.302344	-0.000092	-0.166661
C40	C	0.802344	0.499908	0.333339
C41	C	0.663899	-0.000068	-0.176261
C42	C	1.163899	0.499932	0.323739
C43	C	1.039164	-0.428134	-0.086099
C44	C	1.539164	0.071866	0.413901
C45	C	1.039162	-0.572017	-0.086084
C46	C	1.539162	-0.072017	0.413916
C47	C	0.927073	-0.572025	-0.256817
C48	C	1.427073	-0.072025	0.243183
C49	C	0.927072	-0.428145	-0.256825
C50	C	1.427072	0.071855	0.243175
C51	C	1.095214	-0.356192	-0.000741
C52	C	1.595214	0.143808	0.499259
C53	C	1.151262	-0.428123	0.084634
C54	C	1.651262	0.071877	0.584634
C55	C	1.151259	-0.572006	0.084649
C56	C	1.651259	-0.072006	0.584649
C57	C	1.095210	-0.643958	-0.000711
C58	C	1.595210	-0.143958	0.499289
C59	C	1.135069	-0.000095	-0.162230
C60	C	1.635069	0.499905	0.337770
C61	C	1.227379	-0.000094	-0.164670
C62	C	1.727379	0.499906	0.335330
C63	C	0.987859	-0.000082	0.058140
C64	C	1.487859	0.499918	0.558140
C65	C	0.985412	-0.000073	0.197549
C66	C	1.485412	0.499927	0.697549
N67	N	0.983121	0.356034	-0.171444
N68	N	1.483121	0.856034	0.328556
C69	C	0.978378	-0.000084	-0.401062
C70	C	1.478378	0.499916	0.098938
C71	C	0.980825	-0.000084	-0.540471
C72	C	1.480825	0.499916	-0.040471
C73	C	0.908614	-0.000063	0.248047
C74	C	1.408614	0.499937	0.748047
C75	C	0.906319	-0.000073	0.379038
C76	C	1.406319	0.499927	0.879038
C77	C	1.057630	-0.000098	0.409023
C78	C	1.557630	0.499902	0.909023
C79	C	1.059923	-0.000098	0.278034
C80	C	1.559923	0.499902	0.778034
C81	C	0.834103	-0.000039	0.167562
C82	C	1.334103	0.499961	0.667562
C83	C	0.757298	-0.000027	0.218059
C84	C	1.257298	0.499973	0.718059
C85	C	0.755004	-0.000037	0.349050
C86	C	1.255004	0.499963	0.849050
C87	C	0.829515	-0.000059	0.429544
C88	C	1.329515	0.499941	0.929544
H89	H	0.545004	-0.000082	-0.381117
H90	H	1.045004	0.499918	0.118883
Cl91	Cl	0.856619	-0.662479	-0.364123
Cl92	Cl	1.356619	-0.162479	0.135877
H93	H	0.881437	-0.369578	-0.326339
H94	H	1.381437	0.130422	0.173661
H95	H	1.118292	-0.000113	0.474571
H96	H	1.618292	0.499887	0.974571
Cl97	Cl	1.221710	-0.662432	0.191984
Cl98	Cl	1.721710	-0.162432	0.691984
Cl99	Cl	0.364356	-0.000094	-0.427098
Cl100	Cl	0.864356	0.499906	0.072902
Cl101	Cl	0.663633	-0.000016	0.116870
Cl102	Cl	1.163633	0.499984	0.616870
Cl103	Cl	0.836982	-0.000017	0.002887
Cl104	Cl	1.336982	0.499983	0.502887
H105	H	0.827640	-0.000066	0.536205
H106	H	1.327640	0.499934	1.036205
Cl107	Cl	1.156472	-0.000136	0.214545
Cl108	Cl	1.656472	0.499864	0.714545
Cl109	Cl	0.601894	-0.000090	0.084189
Cl110	Cl	1.101894	0.499910	0.584189
Cl111	Cl	1.095204	-0.824841	-0.000675
Cl112	Cl	1.595204	-0.324841	0.499325
H113	H	0.421226	-0.000098	0.038193
H114	H	0.921226	0.499902	0.538193
Cl115	Cl	1.095223	-0.175311	-0.000760
Cl116	Cl	1.595223	0.324689	0.499240
H117	H	0.692466	-0.000043	0.390160
H118	H	1.192466	0.499957	0.890160
Cl119	Cl	1.221712	-0.337673	0.191948
Cl120	Cl	1.721712	0.162327	0.691948
