data_functionalizedCrystal
_audit_creation_method	'MofGen! by Chris Wilmer'
_symmetry_space_group_name_H-M	'P1'
_symmetry_Int_Tables_number	1
_symmetry_cell_setting	triclinic
loop_
_symmetry_equiv_pos_as_xyz
  x,y,z
_cell_length_a	13.185408
_cell_length_b	13.262508
_cell_length_c	9.130307
_cell_angle_alpha	105.915023
_cell_angle_beta	90.000869
_cell_angle_gamma	68.866655
loop_
_atom_site_label
_atom_site_type_symbol
_atom_site_fract_x
_atom_site_fract_y
_atom_site_fract_z
O1	O	1.445725	-0.273082	-0.230478
O2	O	1.128709	-0.166830	-0.188176
O3	O	1.295193	-0.374997	-0.271084
O4	O	1.279241	-0.064914	-0.147569
O5	O	1.295188	-0.374997	-0.027485
O6	O	1.128704	-0.166830	0.055423
O7	O	1.445719	-0.273082	0.013121
Cu8	Cu	1.287211	-0.219956	0.056515
Cu9	Cu	1.287218	-0.219956	-0.231569
O10	O	1.279236	-0.064914	0.096030
C11	C	1.088127	-0.156058	-0.062088
C12	C	0.967212	-0.123974	-0.049317
C13	C	1.294296	-0.413848	-0.164763
C14	C	1.291620	-0.529608	-0.210883
C15	C	0.897860	-0.009739	-0.003817
C16	C	0.784254	0.020408	0.008205
C17	C	0.739989	-0.063675	-0.025283
C18	C	0.809341	-0.177912	-0.070795
C19	C	0.922958	-0.208063	-0.082806
C20	C	0.765087	-0.261999	-0.104272
C21	C	0.834440	-0.376236	-0.149784
C22	C	0.948045	-0.406382	-0.161794
C23	C	0.992310	-0.322298	-0.128306
C24	C	0.651470	-0.231848	-0.092261
C25	C	0.676568	-0.430172	-0.171250
C26	C	0.790174	-0.460320	-0.183272
C27	C	1.284059	-0.855925	0.190273
C28	C	1.286565	-0.747160	0.233608
C29	C	1.287829	-0.692767	0.122489
C30	C	1.286587	-0.747149	-0.031973
C31	C	1.284072	-0.855921	-0.075310
C32	C	1.287842	-0.692763	-0.143094
C33	C	1.286599	-0.747145	-0.297556
C34	C	1.284086	-0.855907	-0.340886
C35	C	1.282821	-0.910300	-0.229767
C36	C	1.290357	-0.583991	-0.099757
C37	C	1.290370	-0.583986	-0.365340
C38	C	1.287864	-0.692752	-0.408675
C39	C	1.486302	-0.283854	-0.112969
C40	C	1.607217	-0.315938	-0.125750
C41	C	1.280132	-0.026063	-0.010294
C42	C	1.282808	0.089696	0.035816
N43	N	1.287215	-0.219959	0.259137
N44	N	1.287223	-0.219964	-0.434195
C45	C	1.434696	-0.404267	0.185721
C46	C	1.508444	-0.496421	0.225680
C47	C	1.508455	-0.496425	0.379012
C48	C	1.434708	-0.404267	0.492392
C49	C	1.360960	-0.312113	0.452432
C50	C	1.360959	-0.312118	0.299094
C51	C	1.213475	-0.127810	0.525846
C52	C	1.213467	-0.127801	0.372516
C53	C	1.139727	-0.035652	0.639225
C54	C	1.065983	0.056507	0.599268
C55	C	1.065976	0.056507	0.445926
C56	C	1.139719	-0.035647	0.332557
H57	H	0.595014	-0.138836	-0.055203
H58	H	0.640529	-0.498641	-0.198586
H59	H	1.287588	-0.702895	0.359368
C60	C	0.707976	0.146065	0.058286
N61	N	0.650521	0.240717	0.096017
H62	H	1.004510	-0.499401	-0.198834
H63	H	1.139735	-0.035662	0.764074
H64	H	1.286851	-0.737045	-0.534439
C65	C	1.139717	-0.035657	0.163882
N66	N	1.139715	-0.035670	0.036832
C67	C	1.291764	-0.524160	-0.487580
N68	N	1.292813	-0.479091	-0.579643
H69	H	1.568503	-0.571466	0.411543
C70	C	1.434698	-0.404267	0.017050
N71	N	1.434700	-0.404270	-0.109996
C72	C	1.280061	-1.029948	-0.277428
N73	N	1.277980	-1.120067	-0.313321
H74	H	1.291359	-0.539719	0.026008
C75	C	1.282654	-0.915759	0.312487
N76	N	1.281593	-0.960826	0.404547
H77	H	0.933912	0.058709	0.023455
C78	C	1.117284	-0.355455	-0.141513
N79	N	1.211415	-0.380426	-0.151453
C80	C	1.290597	-0.573126	0.170162
N81	N	1.292688	-0.483011	0.206075
H82	H	1.283064	-0.900178	-0.466657
C83	C	0.984862	0.157863	0.723988
N84	N	0.923759	0.234207	0.817934
H85	H	0.647485	-0.039122	-0.015491
H86	H	0.846657	-0.553334	-0.220327
H87	H	1.568487	-0.571457	0.133353
H88	H	1.434712	-0.404282	0.617238
C89	C	0.984863	0.157898	0.401991
N90	N	0.923775	0.234272	0.368909
