data_functionalizedCrystal
_audit_creation_method	'MofGen! by Chris Wilmer'
_symmetry_space_group_name_H-M	'P1'
_symmetry_Int_Tables_number	1
_symmetry_cell_setting	triclinic
loop_
_symmetry_equiv_pos_as_xyz
  x,y,z
_cell_length_a	14.971482
_cell_length_b	6.394989
_cell_length_c	13.448316
_cell_angle_alpha	90.003556
_cell_angle_beta	89.993798
_cell_angle_gamma	94.944840
loop_
_atom_site_label
_atom_site_type_symbol
_atom_site_fract_x
_atom_site_fract_y
_atom_site_fract_z
O1	O	1.189893	-0.272176	-0.082672
O2	O	0.929845	-0.304782	-0.082676
O3	O	1.063560	0.015577	-0.082675
O4	O	1.056178	-0.592534	-0.082674
O5	O	1.063543	0.015596	0.082709
O6	O	0.929827	-0.304762	0.082707
O7	O	1.189875	-0.272156	0.082711
Cu8	Cu	1.059850	-0.288457	0.097810
Cu9	Cu	1.059871	-0.288480	-0.097775
O10	O	1.056160	-0.592514	0.082710
C11	C	0.896496	-0.303315	0.000015
C12	C	0.797151	-0.298949	0.000013
C13	C	0.750475	-0.296882	0.090165
C14	C	0.657132	-0.292747	0.090166
C15	C	0.610466	-0.290694	0.000014
C16	C	0.657149	-0.292754	-0.090145
C17	C	0.750491	-0.296875	-0.090145
C18	C	0.462594	-0.284172	-0.090138
C19	C	0.369246	-0.280055	-0.090139
C20	C	0.369235	-0.280044	0.090172
C21	C	0.462577	-0.284164	0.090172
C22	C	0.509253	-0.286229	0.000013
C23	C	1.223225	-0.273622	0.000018
C24	C	1.322569	-0.277988	0.000013
C25	C	1.062092	0.093412	0.000013
C26	C	1.057631	0.329657	0.000012
N27	N	1.059842	-0.288439	0.235375
N28	N	1.059885	-0.288482	-0.235340
C29	C	1.119070	-0.146643	0.287415
C30	C	1.119076	-0.146641	0.391519
C31	C	1.059857	-0.288447	0.443579
C32	C	1.000622	-0.430250	0.391531
C33	C	1.000612	-0.430240	0.287429
C34	C	1.000647	-0.430265	0.608511
C35	C	1.000657	-0.430278	0.712619
C36	C	1.119110	-0.146665	0.712600
C37	C	1.119101	-0.146655	0.608499
C38	C	1.059867	-0.288462	0.556458
H39	H	0.788463	-0.298572	0.163577
C40	C	1.183405	0.007557	0.231077
C41	C	1.235258	0.131774	0.298940
C42	C	1.294524	0.273873	0.247081
H43	H	1.221564	-0.067476	0.190450
H44	H	1.150268	0.094754	0.190502
H45	H	1.268392	0.044589	0.339498
H46	H	1.197123	0.206852	0.339569
H47	H	1.261387	0.361069	0.206505
H48	H	1.332676	0.198822	0.206456
H49	H	1.329707	0.358184	0.293118
H50	H	0.952400	-0.545705	0.433924
H51	H	0.952381	-0.545703	0.245059
H52	H	0.619133	-0.291029	0.163577
H53	H	0.500569	-0.285849	0.163582
C54	C	0.936248	-0.584295	0.768965
C55	C	0.884344	-0.708421	0.701112
C56	C	0.824988	-0.850294	0.752981
H57	H	0.969290	-0.671591	0.809571
H58	H	0.898135	-0.509025	0.809562
H59	H	0.922452	-0.783685	0.660532
H60	H	0.851283	-0.621182	0.660503
H61	H	0.786876	-0.775024	0.793578
H62	H	0.858038	-0.937576	0.793585
H63	H	0.789759	-0.934517	0.706950
H64	H	0.331253	-0.278385	-0.163548
H65	H	0.500595	-0.285853	-0.163555
C66	C	0.318719	-0.277905	0.188166
C67	C	0.379562	-0.280655	0.267116
C68	C	0.333054	-0.278726	0.357397
H69	H	0.287756	-0.154613	0.192060
H70	H	0.276868	-0.398059	0.191964
H71	H	0.421397	-0.160513	0.263319
H72	H	0.410527	-0.403938	0.263254
H73	H	0.291204	-0.398881	0.361196
H74	H	0.302093	-0.155432	0.361281
H75	H	0.374328	-0.280611	0.410975
H76	H	0.619147	-0.291068	-0.163548
H77	H	0.788494	-0.298562	-0.163556
C78	C	1.183243	0.007547	0.448067
C79	C	1.134174	0.135658	0.507828
C80	C	1.193258	0.277747	0.559920
H81	H	1.221345	-0.067496	0.488746
H82	H	1.218497	0.092107	0.402178
H83	H	1.098935	0.051108	0.553711
H84	H	1.096075	0.210747	0.467173
H85	H	1.228512	0.362307	0.514032
H86	H	1.231357	0.202686	0.600594
H87	H	1.159973	0.364700	0.600467
H88	H	1.167326	-0.031197	0.566111
C89	C	1.183377	0.007636	0.768966
C90	C	1.166586	0.212962	0.743634
C91	C	1.225782	0.355143	0.795530
H92	H	1.174965	-0.012370	0.838436
H93	H	1.243340	-0.015171	0.751866
H94	H	1.106638	0.235761	0.760741
H95	H	1.175004	0.233036	0.674172
H96	H	1.285745	0.332335	0.778430
H97	H	1.217365	0.335117	0.864999
H98	H	1.214403	0.494471	0.778343
H99	H	0.952409	-0.545732	0.566143
