data_functionalizedCrystal
_audit_creation_method	'MofGen! by Chris Wilmer'
_symmetry_space_group_name_H-M	'P1'
_symmetry_Int_Tables_number	1
_symmetry_cell_setting	triclinic
loop_
_symmetry_equiv_pos_as_xyz
  x,y,z
_cell_length_a	18.215407
_cell_length_b	10.686285
_cell_length_c	18.215399
_cell_angle_alpha	85.609148
_cell_angle_beta	89.980167
_cell_angle_gamma	85.632014
loop_
_atom_site_label
_atom_site_type_symbol
_atom_site_fract_x
_atom_site_fract_y
_atom_site_fract_z
Zn1	Zn	1.147639	-0.502344	-0.393704
Zn2	Zn	1.647639	-0.002344	0.106296
Zn3	Zn	1.157027	-0.713359	-0.261223
Zn4	Zn	1.657027	-0.213359	0.238777
Zn5	Zn	1.024574	-0.502385	-0.270649
Zn6	Zn	1.524574	-0.002385	0.229351
Zn7	Zn	1.034014	-0.713289	-0.384251
Zn8	Zn	1.534014	-0.213289	0.115749
O9	O	1.090813	-0.607844	-0.327457
O10	O	1.590813	-0.107844	0.172543
O11	O	1.251869	-0.530347	-0.376141
O12	O	1.751869	-0.030347	0.123859
O13	O	1.139435	-0.685420	-0.159487
O14	O	1.639435	-0.185420	0.340513
O15	O	1.033019	-0.325804	-0.294874
O16	O	1.533019	0.174196	0.205126
O17	O	1.258767	-0.685380	-0.278808
O18	O	1.758767	-0.185380	0.221192
O19	O	1.123434	-0.325774	-0.385281
O20	O	1.623434	0.174226	0.114719
O21	O	1.042122	-0.530418	-0.166413
O22	O	1.542122	-0.030418	0.333587
O23	O	0.922841	-0.530350	-0.285708
O24	O	1.422841	-0.030350	0.214292
O25	O	1.049109	-0.685260	-0.488492
O26	O	1.549109	-0.185260	0.011508
O27	O	0.929777	-0.685300	-0.369171
O28	O	1.429777	-0.185300	0.130829
O29	O	1.132588	-0.530279	-0.495436
O30	O	1.632588	-0.030279	0.004564
O31	O	1.148589	-0.889925	-0.269642
O32	O	1.648589	-0.389925	0.230358
O33	O	1.058212	-0.889873	-0.360030
O34	O	1.558212	-0.389873	0.139970
C35	C	0.899606	-0.607823	-0.327437
C36	C	1.399606	-0.107823	0.172563
C37	C	0.817808	-0.607844	-0.327444
C38	C	1.317808	-0.107844	0.172556
C39	C	0.633251	-0.688653	-0.370839
C40	C	1.133251	-0.188653	0.129161
C41	C	0.556392	-0.688657	-0.370848
C42	C	1.056392	-0.188657	0.129152
C43	C	0.549129	-0.527058	-0.284090
C44	C	1.049129	-0.027058	0.215910
C45	C	0.625986	-0.527049	-0.284086
C46	C	1.125986	-0.027049	0.215914
C47	C	0.668045	-0.607853	-0.327459
C48	C	1.168045	-0.107853	0.172541
C49	C	0.514330	-0.607867	-0.327472
C50	C	1.014330	-0.107867	0.172528
C51	C	0.430996	-0.607870	-0.327482
C52	C	0.930996	-0.107870	0.172518
C53	C	0.751384	-0.607848	-0.327450
C54	C	1.251384	-0.107848	0.172550
C55	C	1.105463	-0.935683	-0.312804
C56	C	1.605463	-0.435683	0.187196
C57	C	1.111798	-1.075934	-0.306560
C58	C	1.611798	-0.575934	0.193440
C59	C	1.282767	-0.607867	-0.327478
C60	C	1.782767	-0.107867	0.172522
C61	C	1.364567	-0.607876	-0.327486
C62	C	1.864567	-0.107876	0.172514
C63	C	1.090854	-0.607757	-0.519414
C64	C	1.590854	-0.107757	-0.019414
C65	C	1.090872	-0.607720	-0.601214
C66	C	1.590872	-0.107720	-0.101214
C67	C	1.076126	-0.278725	-0.342183
C68	C	1.576126	0.221275	0.157817
C69	C	1.069867	-0.138474	-0.348459
C70	C	1.569867	0.361526	0.151541
C71	C	1.134353	-0.526946	-0.793029
C72	C	1.634353	-0.026946	-0.293029
C73	C	1.134360	-0.526909	-0.869890
C74	C	1.634360	-0.026909	-0.369890
C75	C	1.047434	-0.688299	-0.862646
C76	C	1.547434	-0.188299	-0.362646
C77	C	1.047423	-0.688328	-0.785788
C78	C	1.547423	-0.188328	-0.285788
C79	C	1.090887	-0.607654	-0.750981
C80	C	1.590887	-0.107654	-0.250981
C81	C	1.090905	-0.607588	-0.904700
C82	C	1.590905	-0.107588	-0.404700
C83	C	1.090912	-0.607548	-0.988036
C84	C	1.590912	-0.107548	-0.488036
C85	C	1.090879	-0.607691	-0.667640
C86	C	1.590879	-0.107691	-0.167640
C87	C	1.090811	-0.607840	-0.136251
C88	C	1.590811	-0.107840	0.363749
C89	C	1.090920	-0.607521	-0.054467
C90	C	1.590920	-0.107521	0.445533
H91	H	0.528066	-0.754451	-0.406173
H92	H	1.028066	-0.254451	0.093827
H93	H	1.169742	-0.461252	-0.764692
H94	H	1.669742	0.038748	-0.264692
H95	H	0.514875	-0.461271	-0.248777
H96	H	1.014875	0.038729	0.251223
H97	H	0.667493	-0.754447	-0.406158
H98	H	1.167493	-0.254447	0.093842
H99	H	1.029123	-1.084722	-0.389109
H100	H	1.529123	-0.584722	0.110891
H101	H	1.169754	-0.461187	-0.904122
H102	H	1.669754	0.038813	-0.404122
H103	H	1.152540	-1.129693	-0.265903
H104	H	1.652540	-0.629693	0.234097
H105	H	1.012022	-0.754049	-0.751551
H106	H	1.512022	-0.254049	-0.251551
H107	H	0.654316	-0.461244	-0.248761
H108	H	1.154316	0.038756	0.251239
H109	H	1.012048	-0.753984	-0.890995
H110	H	1.512048	-0.253984	-0.390995
