data_functionalizedCrystal
_audit_creation_method	'MofGen! by Chris Wilmer'
_symmetry_space_group_name_H-M	'P1'
_symmetry_Int_Tables_number	1
_symmetry_cell_setting	triclinic
loop_
_symmetry_equiv_pos_as_xyz
  x,y,z
_cell_length_a	18.050591
_cell_length_b	18.050589
_cell_length_c	18.050583
_cell_angle_alpha	89.968090
_cell_angle_beta	89.979141
_cell_angle_gamma	90.024669
loop_
_atom_site_label
_atom_site_type_symbol
_atom_site_fract_x
_atom_site_fract_y
_atom_site_fract_z
Zn1	Zn	1.135301	-0.295677	-0.420031
Zn2	Zn	1.635301	0.204323	0.079969
Zn3	Zn	1.135209	-0.419890	-0.295850
Zn4	Zn	1.635209	0.080110	0.204150
Zn5	Zn	1.011117	-0.295710	-0.295845
Zn6	Zn	1.511117	0.204290	0.204155
Zn7	Zn	1.011068	-0.419822	-0.419988
Zn8	Zn	1.511068	0.080178	0.080012
O9	O	1.073174	-0.357774	-0.357929
O10	O	1.573174	0.142226	0.142071
O11	O	1.239213	-0.312168	-0.403578
O12	O	1.739213	0.187832	0.096422
O13	O	1.118730	-0.403459	-0.191925
O14	O	1.618730	0.096541	0.308075
O15	O	1.027650	-0.191781	-0.312334
O16	O	1.527650	0.308219	0.187666
O17	O	1.239146	-0.403427	-0.312343
O18	O	1.739146	0.096573	0.187657
O19	O	1.118887	-0.191756	-0.403573
O20	O	1.618887	0.308244	0.096427
O21	O	1.027561	-0.312225	-0.191921
O22	O	1.527561	0.187775	0.308079
O23	O	0.907186	-0.312159	-0.312292
O24	O	1.407186	0.187841	0.187708
O25	O	1.027565	-0.403311	-0.523919
O26	O	1.527565	0.096689	-0.023919
O27	O	0.907150	-0.403344	-0.403500
O28	O	1.407150	0.096656	0.096500
O29	O	1.118838	-0.312102	-0.523950
O30	O	1.618838	0.187898	-0.023950
O31	O	1.118682	-0.523805	-0.312302
O32	O	1.618682	-0.023805	0.187698
O33	O	1.027476	-0.523755	-0.403506
O34	O	1.527476	-0.023755	0.096494
C35	C	0.880222	-0.357748	-0.357891
C36	C	1.380222	0.142252	0.142109
C37	C	0.797676	-0.357755	-0.357893
C38	C	1.297676	0.142245	0.142107
C39	C	0.548848	-0.308118	-0.308412
C40	C	1.048848	0.191882	0.191588
C41	C	0.598282	-0.290020	-0.376186
C42	C	1.098282	0.209980	0.123814
C43	C	0.500555	-0.357793	-0.357954
C44	C	1.000555	0.142207	0.142046
C45	C	0.598204	-0.375836	-0.290153
C46	C	1.098204	0.124164	0.209847
C47	C	0.646540	-0.357772	-0.357920
C48	C	1.146540	0.142228	0.142080
C49	C	0.548901	-0.339661	-0.425765
C50	C	1.048901	0.160339	0.074235
C51	C	0.548819	-0.425508	-0.339686
C52	C	1.048819	0.074492	0.160314
C53	C	0.598230	-0.407437	-0.407507
C54	C	1.098230	0.092563	0.092493
C55	C	0.416457	-0.357803	-0.357972
C56	C	0.916457	0.142197	0.142028
C57	C	0.730637	-0.357763	-0.357910
C58	C	1.230637	0.142237	0.142090
C59	C	1.073084	-0.550727	-0.357916
C60	C	1.573084	-0.050727	0.142084
C61	C	1.073114	-0.633272	-0.357936
C62	C	1.573114	-0.133272	0.142064
C63	C	1.023565	-0.832723	-0.407515
C64	C	1.523565	-0.332723	0.092485
C65	C	1.005465	-0.882172	-0.339746
C66	C	1.505465	-0.382172	0.160254
C67	C	1.073187	-0.784403	-0.357945
C68	C	1.573187	-0.284403	0.142055
C69	C	1.091322	-0.882035	-0.425722
C70	C	1.591322	-0.382035	0.074278
C71	C	1.073256	-0.930388	-0.357961
C72	C	1.573256	-0.430388	0.142039
C73	C	1.055052	-0.832765	-0.290141
C74	C	1.555052	-0.332765	0.209859
C75	C	1.140940	-0.832624	-0.376162
C76	C	1.640940	-0.332624	0.123838
C77	C	1.122867	-0.882050	-0.308347
C78	C	1.622867	-0.382050	0.191653
C79	C	1.073145	-0.700304	-0.357938
C80	C	1.573145	-0.200304	0.142062
C81	C	1.073297	-1.014484	-0.357961
C82	C	1.573297	-0.514484	0.142039
C83	C	1.266879	-0.357801	-0.357966
C84	C	1.766879	0.142199	0.142034
C85	C	1.349425	-0.357813	-0.357982
C86	C	1.849425	0.142187	0.142018
C87	C	1.073207	-0.357695	-0.551634
C88	C	1.573207	0.142305	-0.051634
C89	C	1.073221	-0.357661	-0.634180
C90	C	1.573221	0.142339	-0.134180
C91	C	1.073284	-0.164069	-0.357957
C92	C	1.573284	0.335931	0.142043
C93	C	1.073331	-0.081523	-0.357969
C94	C	1.573331	0.418477	0.142031
C95	C	1.122905	-0.308038	-0.833648
C96	C	1.622905	0.191962	-0.333648
C97	C	1.055171	-0.289858	-0.883036
C98	C	1.555171	0.210142	-0.383036
C99	C	1.073250	-0.357649	-0.785311
C100	C	1.573250	0.142351	-0.285311
C101	C	1.141011	-0.375782	-0.883005
C102	C	1.641011	0.124218	-0.383005
C103	C	1.073285	-0.357635	-0.931296
C104	C	1.573285	0.142365	-0.431296
C105	C	1.005481	-0.339433	-0.833611
C106	C	1.505481	0.160567	-0.333611
C107	C	1.091367	-0.425389	-0.833576
C108	C	1.591367	0.074611	-0.333576
C109	C	1.023586	-0.407234	-0.882941
C110	C	1.523586	0.092766	-0.382941
C111	C	1.073231	-0.357655	-0.701212
C112	C	1.573231	0.142345	-0.201212
C113	C	1.073296	-0.357629	-1.015392
C114	C	1.573296	0.142371	-0.515392
C115	C	1.073184	-0.357800	-0.164976
C116	C	1.573184	0.142200	0.335024
C117	C	1.073314	-0.357624	-0.082431
C118	C	1.573314	0.142376	0.417569
H119	H	0.619775	-0.449437	-0.449438
H120	H	1.119775	0.050563	0.050562
H121	H	0.981562	-0.449183	-0.904449
H122	H	1.481562	0.050817	-0.404449
H123	H	1.106634	-0.903678	-0.483034
H124	H	1.606634	-0.403678	0.016966
H125	H	1.039674	-0.811211	-0.232813
H126	H	1.539674	-0.311211	0.267187
Br127	Br	0.634306	-0.401287	-0.194611
Br128	Br	1.134306	0.098713	0.305389
Br129	Br	0.512707	-0.238067	-0.238691
Br130	Br	1.012707	0.261933	0.261309
Br131	Br	0.910016	-0.918443	-0.314064
Br132	Br	1.410016	-0.418443	0.185936
H133	H	1.164860	-0.903573	-0.266386
H134	H	1.664860	-0.403573	0.233614
Br135	Br	1.236365	-0.796322	-0.401873
Br136	Br	1.736365	-0.296322	0.098127
H137	H	0.619995	-0.232744	-0.391637
H138	H	1.119995	0.267256	0.108363
H139	H	0.527334	-0.324324	-0.483105
H140	H	1.027334	0.175676	0.016895
Br141	Br	1.192782	-0.238073	-0.797569
Br142	Br	1.692782	0.261927	-0.297569
H143	H	1.039859	-0.232565	-0.904761
H144	H	1.539859	0.267435	-0.404761
H145	H	0.981539	-0.811063	-0.449375
H146	H	1.481539	-0.311063	0.050625
Br147	Br	0.512576	-0.520942	-0.313915
Br148	Br	1.012576	-0.020942	0.186085
H149	H	0.948174	-0.324024	-0.812005
H150	H	1.448174	0.175976	-0.312005
Br151	Br	1.116922	-0.520855	-0.797336
Br152	Br	1.616922	-0.020855	-0.297336
Br153	Br	1.236497	-0.401357	-0.919169
Br154	Br	1.736497	0.098643	-0.419169
