data_functionalizedCrystal
_audit_creation_method	'MofGen! by Chris Wilmer'
_symmetry_space_group_name_H-M	'P1'
_symmetry_Int_Tables_number	1
_symmetry_cell_setting	triclinic
loop_
_symmetry_equiv_pos_as_xyz
  x,y,z
_cell_length_a	6.817900
_cell_length_b	19.551823
_cell_length_c	17.078539
_cell_angle_alpha	96.649401
_cell_angle_beta	99.306943
_cell_angle_gamma	101.663376
loop_
_atom_site_label
_atom_site_type_symbol
_atom_site_fract_x
_atom_site_fract_y
_atom_site_fract_z
V1	V	-3.970595	-0.096492	-0.247728
O2	O	-3.968491	0.004825	-0.242631
O3	O	-3.913539	-0.191508	-0.246401
O4	O	-3.901785	-0.094925	-0.355603
O5	O	-3.980326	-0.092426	-0.132672
V6	V	-4.457989	-0.084383	-0.233922
O7	O	-4.223361	-0.123053	-0.278013
O8	O	-4.655420	-0.057821	-0.203637
O9	O	-4.291839	0.010633	-0.235249
O10	O	-4.577490	-0.185699	-0.239019
O11	O	-4.565655	-0.088448	-0.348978
O12	O	-4.303593	-0.085950	-0.126047
C13	C	-3.757094	-0.214673	-0.242588
C14	C	-3.791595	-0.292350	-0.242222
C15	C	-3.988818	-0.332392	-0.246017
C16	C	-4.021239	-0.405379	-0.245681
C17	C	-3.856418	-0.438317	-0.241534
C18	C	-3.659169	-0.398266	-0.237742
C19	C	-3.626757	-0.325282	-0.238086
C20	C	-3.752708	-0.544842	-0.191227
C21	C	-3.785125	-0.617824	-0.190878
C22	C	-3.956381	-0.663424	-0.240476
C23	C	-4.095246	-0.636032	-0.290414
C24	C	-4.062834	-0.563048	-0.290758
C25	C	-3.891543	-0.517456	-0.241161
C26	C	-4.188771	-0.782607	-0.243909
C27	C	-4.221186	-0.855596	-0.243578
C28	C	-3.859107	-0.848480	-0.235631
C29	C	-3.826701	-0.775494	-0.235970
C30	C	-3.991539	-0.742562	-0.240105
C31	C	-3.742100	-0.091471	-0.381885
C32	C	-3.767066	-0.090819	-0.470076
C33	C	-3.888148	-0.086867	-0.966079
C34	C	-3.864695	-0.087460	-0.883211
C35	C	-4.033992	-0.091246	-0.845835
C36	C	-4.226752	-0.094432	-0.891331
C37	C	-4.250200	-0.093834	-0.974196
C38	C	-3.983274	-0.093406	-0.598437
C39	C	-3.959811	-0.094006	-0.515566
C40	C	-3.597755	-0.087033	-0.507452
C41	C	-3.621222	-0.086439	-0.590320
C42	C	-3.813976	-0.089621	-0.635808
N43	N	-4.010025	-0.091855	-0.761131
N44	N	-3.837938	-0.089007	-0.720509
C45	C	-4.111626	0.033795	-0.239060
C46	C	-4.056362	0.111471	-0.239431
C47	C	-4.126620	-0.089405	-0.099761
C48	C	-4.080893	-0.090054	-0.011569
H49	H	-4.181847	-0.437988	-0.248771
H50	H	-4.234497	-0.673169	-0.330911
Cl51	Cl	-3.675303	-0.082111	-1.013058
Cl52	Cl	-4.492515	-0.097835	-1.031383
H53	H	-3.666100	-0.742890	-0.232874
Cl54	Cl	-3.622383	-0.083466	-0.826030
H55	H	-4.322991	-0.755792	-0.247274
Cl56	Cl	-4.439587	-0.099195	-0.844344
Cl57	Cl	-4.225599	-0.097422	-0.655614
H58	H	-3.724908	-0.875298	-0.232259
H59	H	-4.123048	-0.305585	-0.249390
H60	H	-4.175902	-0.540749	-0.331419
H61	H	-3.672060	-0.640120	-0.150211
Cl62	Cl	-4.469148	-0.905937	-0.248355
Cl63	Cl	-4.172661	-0.098767	-0.468580
H64	H	-3.613236	-0.507720	-0.150840
H65	H	-3.466152	-0.292679	-0.234996
Cl66	Cl	-3.451967	-0.439673	-0.232533
Cl67	Cl	-3.408380	-0.081683	-0.637302
Cl68	Cl	-3.355446	-0.083030	-0.450263
