data_functionalizedCrystal
_audit_creation_method	'MofGen! by Chris Wilmer'
_symmetry_space_group_name_H-M	'P1'
_symmetry_Int_Tables_number	1
_symmetry_cell_setting	triclinic
loop_
_symmetry_equiv_pos_as_xyz
  x,y,z
_cell_length_a	10.489716
_cell_length_b	9.565339
_cell_length_c	14.971486
_cell_angle_alpha	90.000022
_cell_angle_beta	95.928368
_cell_angle_gamma	90.003220
loop_
_atom_site_label
_atom_site_type_symbol
_atom_site_fract_x
_atom_site_fract_y
_atom_site_fract_z
O1	O	1.692612	0.116250	-0.126085
O2	O	1.321275	0.116255	-0.137953
O3	O	1.516896	0.116242	-0.001875
O4	O	1.496990	0.116262	-0.262163
O5	O	1.516881	-0.116278	-0.001883
O6	O	1.321259	-0.116265	-0.137962
O7	O	1.692596	-0.116271	-0.126093
Zn8	Zn	1.506925	-0.153185	-0.132029
Zn9	Zn	1.506946	0.153170	-0.132018
O10	O	1.496975	-0.116258	-0.262172
C11	C	1.273745	-0.000005	-0.137066
C12	C	1.132145	-0.000003	-0.134398
C13	C	1.033505	0.000007	-0.217845
C14	C	0.956662	-0.114647	-0.173754
C15	C	0.956684	0.114599	-0.173726
C16	C	1.057167	-0.114752	-0.090342
C17	C	1.057194	0.114598	-0.090326
C18	C	0.980401	-0.000084	-0.046173
N19	N	1.506921	-0.362265	-0.132036
C20	C	1.416425	-0.453462	-0.194946
C21	C	1.531714	-0.546641	-0.213038
C22	C	1.391682	-0.546641	-0.113952
C23	C	1.622268	-0.453392	-0.150168
C24	C	1.482160	-0.453384	-0.051046
C25	C	1.597532	-0.546521	-0.069104
C26	C	1.740126	-0.000008	-0.126981
C27	C	1.881726	-0.000001	-0.129649
C28	C	1.515998	-0.000018	0.031451
C29	C	1.513330	-0.000016	0.130763
N30	N	1.506960	0.362249	-0.132004
C31	C	1.497873	0.000005	-0.295497
C32	C	1.500541	0.000013	-0.394809
C33	C	1.628253	-0.000019	0.187341
C34	C	1.625738	-0.000005	0.280655
C35	C	1.508301	0.000002	0.317388
C36	C	1.393370	0.000009	0.260802
C37	C	1.395885	0.000005	0.167491
C38	C	1.388135	0.000014	0.455294
C39	C	1.385618	0.000015	0.548613
C40	C	1.617988	0.000004	0.568458
C41	C	1.620503	0.000000	0.475147
C42	C	1.505572	0.000005	0.418567
H43	H	1.057334	-0.000094	-0.290432
C44	C	1.314297	-0.399155	-0.265885
C45	C	1.194020	-0.448453	-0.247606
C46	C	1.099920	-0.398467	-0.312943
H47	H	1.314309	-0.299857	-0.265100
H48	H	1.332034	-0.431130	-0.323396
H49	H	1.176287	-0.416471	-0.190111
H50	H	1.193966	-0.547745	-0.248400
H51	H	1.117657	-0.430442	-0.370453
H52	H	1.099944	-0.299170	-0.312152
H53	H	1.018303	-0.431919	-0.300554
H54	H	1.461153	-0.412389	0.017409
H55	H	1.723884	-0.000033	0.157440
C56	C	1.261774	-0.601173	-0.093379
C57	C	1.235251	-0.551923	-0.009194
C58	C	1.115598	-0.602139	0.009786
H59	H	1.197442	-0.569343	-0.138057
H60	H	1.262943	-0.700486	-0.092917
H61	H	1.234072	-0.452631	-0.009662
H62	H	1.299551	-0.583749	0.035502
H63	H	1.116767	-0.701452	0.010247
H64	H	1.051276	-0.570306	-0.034897
H65	H	1.097591	-0.568741	0.066910
C66	C	0.898159	-0.243763	-0.220895
C67	C	0.924508	-0.243213	-0.310687
C68	C	0.870626	-0.362117	-0.354149
H69	H	0.933855	-0.325278	-0.191965
H70	H	0.808025	-0.243264	-0.218412
H71	H	1.014625	-0.243726	-0.313165
H72	H	0.888811	-0.161726	-0.339641
H73	H	0.780491	-0.361617	-0.351665
H74	H	0.906327	-0.443622	-0.325211
H75	H	0.888486	-0.361753	-0.415078
C76	C	0.898029	0.243886	-0.220558
C77	C	0.835953	0.323183	-0.159419
C78	C	0.781894	0.442273	-0.202538
H79	H	0.963649	0.298389	-0.242675
H80	H	0.837822	0.216371	-0.269158
H81	H	0.896154	0.350699	-0.110835
H82	H	0.770315	0.268722	-0.137298
H83	H	0.721688	0.414758	-0.251138
H84	H	0.847522	0.496764	-0.224653
H85	H	0.739760	0.496083	-0.161064
H86	H	1.674162	-0.587125	-0.015886
H87	H	1.711569	0.000005	0.614530
H88	H	1.719320	-0.000010	0.326718
C89	C	0.949204	-0.000255	0.050742
C90	C	1.063264	-0.001485	0.108259
C91	C	1.034579	-0.001673	0.197542
H92	H	0.901400	0.081173	0.061732
H93	H	0.900193	-0.081001	0.061304
H94	H	1.112255	0.079253	0.097701
H95	H	1.111084	-0.082908	0.097298
H96	H	0.985568	-0.082418	0.208104
H97	H	0.986773	0.079757	0.208522
H98	H	1.111963	-0.002520	0.236578
H99	H	1.716131	-0.000015	0.445242
C100	C	1.115208	-0.244190	-0.043335
C101	C	1.017796	-0.324510	-0.011600
C102	C	1.071218	-0.443748	0.031713
H103	H	1.157972	-0.297932	-0.084492
H104	H	1.174753	-0.216841	0.005692
H105	H	0.958274	-0.351861	-0.060621
H106	H	0.975025	-0.270810	0.029568
H107	H	1.130762	-0.416399	0.080740
H108	H	1.113981	-0.497478	-0.009450
H109	H	1.005134	-0.498253	0.053257
H110	H	1.101104	0.211527	-0.055122
H111	H	1.294545	0.000021	0.409229
H112	H	1.552684	-0.587603	-0.281515
H113	H	1.302303	0.000007	0.121425
C114	C	1.752352	-0.399055	-0.170497
C115	C	1.846939	-0.447236	-0.104890
C116	C	1.966770	-0.397171	-0.123591
H117	H	1.770279	-0.431716	-0.227799
H118	H	1.751555	-0.299736	-0.170367
H119	H	1.847738	-0.546534	-0.105029
H120	H	1.829054	-0.414578	-0.047582
H121	H	1.965973	-0.297852	-0.123461
H122	H	1.984683	-0.429836	-0.180894
H123	H	2.030959	-0.429843	-0.079076
H124	H	1.289990	-0.000002	0.578518
H125	H	1.297750	0.000023	0.290718
