data_functionalizedCrystal
_audit_creation_method	'MofGen! by Chris Wilmer'
_symmetry_space_group_name_H-M	'P1'
_symmetry_Int_Tables_number	1
_symmetry_cell_setting	triclinic
loop_
_symmetry_equiv_pos_as_xyz
  x,y,z
_cell_length_a	10.654562
_cell_length_b	10.654550
_cell_length_c	13.448316
_cell_angle_alpha	89.994587
_cell_angle_beta	89.990446
_cell_angle_gamma	84.487503
loop_
_atom_site_label
_atom_site_type_symbol
_atom_site_fract_x
_atom_site_fract_y
_atom_site_fract_z
O1	O	1.667836	0.176478	-0.082755
O2	O	1.302359	0.193267	-0.082742
O3	O	1.493501	0.002134	-0.082745
O4	O	1.476694	0.367611	-0.082752
O5	O	1.493476	0.002121	0.082639
O6	O	1.302335	0.193255	0.082642
O7	O	1.667811	0.176466	0.082629
Cu8	Cu	1.485071	0.184859	0.097736
Cu9	Cu	1.485100	0.184874	-0.097849
O10	O	1.476670	0.367599	0.082632
C11	C	1.255549	0.192025	-0.000048
C12	C	1.116107	0.188327	-0.000044
C13	C	1.050563	0.186595	0.090099
C14	C	0.919541	0.183130	0.090083
C15	C	0.919617	0.183134	-0.090228
C16	C	1.050638	0.186590	-0.090210
C17	C	1.116032	0.188332	0.180266
C18	C	1.050487	0.186602	0.270416
C19	C	0.919465	0.183137	0.270400
C20	C	0.853987	0.181402	0.180233
C21	C	1.492254	-0.044671	-0.000054
C22	C	1.488563	-0.184114	-0.000057
C23	C	1.601103	-0.263595	-0.000058
C24	C	1.597627	-0.394615	-0.000065
C25	C	1.369059	-0.366662	-0.000066
C26	C	1.372537	-0.235644	-0.000066
C27	C	1.717129	-0.212064	-0.000049
C28	C	1.829680	-0.291546	-0.000049
C29	C	1.826203	-0.422567	-0.000056
C30	C	1.710176	-0.474106	-0.000063
C31	C	1.714621	0.177708	-0.000066
C32	C	1.854064	0.181406	-0.000078
C33	C	1.477916	0.414403	-0.000061
C34	C	1.481608	0.553847	-0.000064
N35	N	1.485060	0.184849	0.235301
N36	N	1.485121	0.184874	-0.235413
C37	C	1.569724	0.100250	0.287340
C38	C	1.569732	0.100249	0.391443
C39	C	1.485081	0.184854	0.443505
C40	C	1.400407	0.269456	0.391459
C41	C	1.400395	0.269450	0.287358
C42	C	1.400442	0.269465	0.608439
C43	C	1.400457	0.269473	0.712548
C44	C	1.569780	0.100264	0.712524
C45	C	1.569767	0.100258	0.608423
C46	C	1.485095	0.184862	0.556384
H47	H	0.866294	0.181725	-0.163637
H48	H	1.104005	0.188006	-0.163612
H49	H	1.924144	-0.249574	-0.000068
H50	H	0.747300	0.178578	0.180227
C51	C	1.037253	0.186234	0.448643
C52	C	1.122455	0.188497	0.369525
H53	H	1.081685	0.187394	0.509828
H54	H	0.977224	0.257989	0.444886
H55	H	0.995081	0.111771	0.444878
H56	H	1.164620	0.262965	0.373285
H57	H	1.182506	0.116735	0.373283
H58	H	0.866104	0.181718	0.343804
C59	C	1.641683	-0.116477	0.744564
C60	C	1.662858	0.007260	0.769715
H61	H	1.699155	-0.173885	0.779869
H62	H	1.557767	-0.130904	0.761653
H63	H	1.653788	-0.128565	0.675111
H64	H	1.650744	0.019351	0.839167
H65	H	1.746794	0.021692	0.752633
H66	H	1.707355	-0.580794	-0.000079
C67	C	1.595125	-0.070690	0.491657
C68	C	1.662655	0.006953	0.551329
H69	H	1.652424	-0.128380	0.456448
H70	H	1.542307	-0.116037	0.532382
H71	H	1.544862	-0.020305	0.445663
H72	H	1.712911	-0.043431	0.597329
H73	H	1.715495	0.052304	0.510601
H74	H	1.719973	-0.105382	-0.000041
C75	C	1.232570	-0.497794	-0.085077
C76	C	1.241531	-0.423316	-0.000064
H77	H	1.153841	-0.532774	-0.085068
H78	H	1.238676	-0.447257	-0.142740
H79	H	1.299107	-0.563876	-0.085067
H80	H	1.174998	-0.357229	-0.000077
H81	H	1.235412	-0.473856	0.057615
H82	H	1.280896	-0.170928	-0.000064
H83	H	1.917847	-0.487279	-0.000066
H84	H	1.638662	0.031360	0.244958
H85	H	1.638671	0.031362	0.433813
C86	C	1.374652	0.440124	0.491349
C87	C	1.307374	0.362463	0.551231
H88	H	1.317198	0.497531	0.456027
H89	H	1.427311	0.485789	0.531945
H90	H	1.425060	0.389718	0.445453
H91	H	1.256972	0.412868	0.597133
H92	H	1.254693	0.316794	0.510632
C93	C	1.316901	0.085503	0.131219
C94	C	1.260054	0.192126	0.180288
H95	H	1.405813	0.087850	0.131229
H96	H	1.296172	0.011630	0.164522
H97	H	1.287283	0.084732	0.064621
H98	H	1.289665	0.192892	0.246889
H99	H	1.280793	0.266018	0.146987
C100	C	1.233043	0.436688	0.702120
C101	C	1.307384	0.362447	0.769777
H102	H	1.175575	0.494076	0.737453
H103	H	1.285687	0.482375	0.661507
H104	H	1.187434	0.383960	0.661525
H105	H	1.353000	0.415175	0.810367
H106	H	1.254733	0.316757	0.810406
C107	C	1.328530	0.486185	0.255287
C108	C	1.307336	0.362448	0.230150
H109	H	1.271079	0.543594	0.219964
H110	H	1.316418	0.498291	0.324728
H111	H	1.412464	0.500591	0.238201
H112	H	1.223404	0.348039	0.247243
H113	H	1.319437	0.350337	0.160694
H114	H	1.331476	0.338339	0.433854
