data_functionalizedCrystal
_audit_creation_method	'MofGen! by Chris Wilmer'
_symmetry_space_group_name_H-M	'P1'
_symmetry_Int_Tables_number	1
_symmetry_cell_setting	triclinic
loop_
_symmetry_equiv_pos_as_xyz
  x,y,z
_cell_length_a	10.723024
_cell_length_b	13.339070
_cell_length_c	9.198806
_cell_angle_alpha	89.999439
_cell_angle_beta	89.996352
_cell_angle_gamma	100.048582
loop_
_atom_site_label
_atom_site_type_symbol
_atom_site_fract_x
_atom_site_fract_y
_atom_site_fract_z
O1	O	1.704931	0.142225	-0.120877
O2	O	1.346349	0.155839	-0.120882
O3	O	1.484486	0.001483	-0.120876
O4	O	1.566793	0.296581	-0.120883
O5	O	1.484471	0.001483	0.120909
O6	O	1.346333	0.155839	0.120903
O7	O	1.704916	0.142225	0.120908
Cu8	Cu	1.525623	0.149032	0.142982
Cu9	Cu	1.525641	0.149032	-0.142957
O10	O	1.566778	0.296581	0.120902
C11	C	1.299509	0.154848	0.000010
C12	C	1.159959	0.151884	0.000008
C13	C	1.113970	0.238253	0.000005
C14	C	0.969739	0.235192	0.000003
C15	C	1.470575	-0.036303	0.000015
C16	C	1.429133	-0.148892	0.000008
C17	C	1.751368	-0.511449	0.000013
C18	C	1.790309	-0.405666	0.000027
C19	C	1.700018	-0.341468	0.000022
C20	C	1.570779	-0.383062	0.000003
C21	C	1.531834	-0.488855	0.000001
C22	C	1.480485	-0.318874	0.000010
C23	C	1.351246	-0.360469	-0.000009
C24	C	1.312308	-0.466252	-0.000013
C25	C	1.402598	-0.530450	-0.000007
C26	C	1.519430	-0.213081	0.000012
C27	C	1.299897	-0.190487	0.000000
C28	C	1.260956	-0.296270	-0.000014
C29	C	1.751755	0.143216	0.000013
C30	C	1.891305	0.146180	0.000005
C31	C	1.580689	0.334367	0.000008
C32	C	1.622132	0.446956	0.000005
N33	N	1.525619	0.149031	0.344096
N34	N	1.525652	0.149025	-0.344070
C35	C	1.583523	0.083935	0.416296
C36	C	1.583541	0.083932	0.583708
H37	H	1.092554	0.075673	-0.000027
H38	H	1.731732	-0.255335	0.000034
H39	H	0.930127	0.309131	-0.000005
N40	N	1.203245	0.339208	-0.000010
H41	H	1.152738	0.396426	-0.000014
H42	H	1.258381	0.344328	0.089623
N43	N	1.459977	0.222847	0.573696
H44	H	1.367139	0.210729	0.600128
H45	H	1.499612	0.294859	0.600132
H46	H	1.633079	0.028203	0.354172
N47	N	1.658814	-0.168228	0.000035
H48	H	1.700034	-0.191575	-0.089592
H49	H	1.669683	-0.091479	0.000095
N50	N	1.929690	-0.360804	0.000054
H51	H	1.980980	-0.417523	0.000055
H52	H	1.950642	-0.317399	-0.089573
H53	H	1.824868	-0.563728	0.000029
N54	N	0.943743	0.048224	0.000008
H55	H	0.997405	0.045319	-0.089621
H56	H	0.997332	0.045379	0.089698
N57	N	1.172918	-0.511118	0.000009
H58	H	1.121627	-0.454401	0.000011
H59	H	1.151975	-0.554521	-0.089618
N60	N	1.360590	-0.644548	-0.000020
H61	H	1.394313	-0.674460	-0.089651
H62	H	1.394304	-0.674386	0.089668
N63	N	1.121564	-0.341131	-0.000024
H64	H	1.100525	-0.384517	-0.089655
H65	H	1.100600	-0.384470	0.089664
H66	H	1.476053	0.204755	0.406222
N67	N	1.202499	-0.121258	0.000012
H68	H	1.246779	-0.047931	0.000015
H69	H	1.147761	-0.134809	-0.089618
H70	H	1.633121	0.028204	0.645797
