data_functionalizedCrystal
_audit_creation_method	'MofGen! by Chris Wilmer'
_symmetry_space_group_name_H-M	'P1'
_symmetry_Int_Tables_number	1
_symmetry_cell_setting	triclinic
loop_
_symmetry_equiv_pos_as_xyz
  x,y,z
_cell_length_a	14.560438
_cell_length_b	20.875641
_cell_length_c	20.875641
_cell_angle_alpha	89.846015
_cell_angle_beta	57.589020
_cell_angle_gamma	57.591306
loop_
_atom_site_label
_atom_site_type_symbol
_atom_site_fract_x
_atom_site_fract_y
_atom_site_fract_z
Zr1	Zr	0.944750	-0.063042	0.639072
O2	O	1.159581	-0.173572	0.528536
O3	O	0.746028	-0.029160	0.672957
O4	O	0.952805	-0.168277	0.667655
O5	O	0.940833	0.075285	0.538020
O6	O	0.940834	-0.164099	0.777395
O7	O	0.952804	-0.034454	0.533838
O8	O	0.570948	0.084757	0.786879
O9	O	1.310720	-0.173570	0.528535
O10	O	0.812866	-0.011590	0.769306
O11	O	0.812865	0.067190	0.690530
O12	O	1.056319	-0.096603	0.684287
O13	O	1.056318	-0.017824	0.605511
Zr14	Zr	0.906567	0.118644	0.820764
Zr15	Zr	0.925659	-0.056378	0.814094
Zr16	Zr	0.925658	0.111980	0.645742
Zr17	Zr	1.185799	-0.063039	0.639071
Zr18	Zr	0.665518	0.118642	0.820764
O19	O	1.105289	0.084762	0.786878
O20	O	1.132436	-0.164097	0.777395
O21	O	1.132435	0.075287	0.538020
O22	O	0.691736	0.229174	0.931300
O23	O	0.718882	-0.019685	0.921816
O24	O	0.718881	0.219699	0.682441
O25	O	0.910484	-0.019683	0.921816
O26	O	0.898512	0.223879	0.792181
O27	O	0.910483	0.219701	0.682441
O28	O	0.898513	0.090057	0.925998
O29	O	1.295545	-0.168273	0.667655
O30	O	0.555772	0.223876	0.792181
O31	O	0.540597	0.229172	0.931300
O32	O	0.555773	0.090053	0.925999
O33	O	1.295544	-0.034451	0.533837
O34	O	1.280369	-0.029154	0.672956
O35	O	0.794998	0.152205	0.775548
O36	O	0.794999	0.073426	0.854325
O37	O	1.038452	-0.011587	0.769306
O38	O	1.038451	0.067192	0.690529
C39	C	0.624144	0.027798	0.729918
C40	C	0.521812	0.027797	0.729918
C41	C	0.949539	0.019466	0.510992
C42	C	0.957644	0.016637	0.436690
C43	C	0.901777	0.246727	0.738261
C44	C	0.893672	0.321028	0.741093
C45	C	0.473738	-0.013326	0.771036
C46	C	0.377580	-0.013320	0.771038
C47	C	0.377582	0.068934	0.688799
C48	C	0.473731	0.068932	0.688802
C49	C	0.521820	-0.054462	0.812152
C50	C	0.473747	-0.095589	0.853272
C51	C	0.377588	-0.095583	0.853275
C52	C	0.329503	-0.054449	0.812157
C53	C	1.227173	0.027804	0.729917
C54	C	1.329505	0.027805	0.729917
C55	C	0.949540	-0.191125	0.721575
C56	C	0.957645	-0.265426	0.718743
C57	C	1.016941	0.311561	0.698046
C58	C	1.009318	0.381378	0.700703
C59	C	0.878424	0.460661	0.746412
C60	C	0.755146	0.470126	0.789461
C61	C	0.762771	0.400310	0.786798
C62	C	0.841992	0.674223	0.759129
C63	C	0.834376	0.744041	0.761790
C64	C	1.088549	0.655288	0.673031
C65	C	1.096162	0.585474	0.670376
C66	C	0.972885	0.594945	0.713421
N67	N	0.870628	0.532026	0.749131
N68	N	0.980682	0.523581	0.710697
C69	C	0.834375	0.059680	0.446160
C70	C	0.841999	0.057020	0.376343
C71	C	0.972893	0.011312	0.297057
C72	C	1.096171	-0.031732	0.287589
C73	C	1.088545	-0.029067	0.357405
C74	C	1.009325	-0.001413	0.083494
C75	C	1.016942	-0.004077	0.013676
C76	C	0.762769	0.084676	0.102435
C77	C	0.755155	0.087333	0.172248
C78	C	0.878432	0.044293	0.162775
N79	N	0.980689	0.008590	0.225692
N80	N	0.870635	0.047020	0.234139
C81	C	0.901778	0.036137	0.948844
C82	C	0.893673	0.038965	1.023145
C83	C	0.600263	0.036133	0.948844
C84	C	0.489827	0.038961	1.023146
C85	C	0.600262	0.246724	0.738262
C86	C	0.489826	0.321024	0.741093
C87	C	0.576382	0.255059	0.957187
C88	C	0.457840	0.332188	1.034321
C89	C	1.274935	-0.199457	0.502648
C90	C	1.393477	-0.276586	0.425515
C91	C	1.251054	0.019469	0.510991
C92	C	1.361490	0.016641	0.436690
C93	C	1.251055	-0.191121	0.721574
C94	C	1.361491	-0.265422	0.718742
C95	C	0.447292	-0.004095	1.013660
C96	C	0.343541	-0.001455	1.083467
C97	C	0.282320	0.044247	1.162759
C98	C	0.324864	0.087305	1.172244
C99	C	0.428620	0.084660	1.102438
C100	C	0.428636	0.400301	0.786802
C101	C	0.324883	0.470121	0.789460
C102	C	0.282313	0.460662	0.746413
C103	C	0.343514	0.381377	0.700699
C104	C	0.447272	0.311559	0.698037
C105	C	0.402171	0.327287	1.111671
C106	C	0.290803	0.399752	1.184152
C107	C	0.235098	0.477117	1.179282
C108	C	0.290778	0.482016	1.101923
C109	C	0.402151	0.409552	1.029443
C110	C	1.449157	-0.271685	0.348165
C111	C	1.560556	-0.344150	0.275683
C112	C	1.616265	-0.421515	0.280554
C113	C	1.560580	-0.426414	0.357913
C114	C	1.449190	-0.353950	0.430392
C115	C	1.404036	0.059690	0.446176
C116	C	1.507815	0.057031	0.376368
C117	C	1.569040	0.011326	0.297075
C118	C	1.526491	-0.031729	0.287591
C119	C	1.422720	-0.029073	0.357397
C120	C	1.404026	-0.255936	0.761799
C121	C	1.507778	-0.325742	0.759154
C122	C	1.569000	-0.405033	0.713448
C123	C	1.526455	-0.414516	0.670391
C124	C	1.422698	-0.344711	0.673041
H125	H	0.512894	-0.129073	0.886755
C126	C	0.223727	-0.054440	0.812162
H127	H	0.201984	-0.084825	0.842537
H128	H	0.140273	0.000898	0.837124
H129	H	0.263690	-0.079406	0.756819
H130	H	0.275003	0.124515	1.236813
H131	H	0.144411	0.536115	1.238305
C132	C	0.475381	0.132036	1.112883
H133	H	0.424042	0.159638	1.170106
H134	H	0.572957	0.094184	1.086024
H135	H	0.457958	0.171532	1.088977
H136	H	1.653535	0.009171	0.240241
H137	H	1.576317	-0.479084	0.633178
C138	C	0.463435	0.242194	1.117041
H139	H	0.537734	0.199731	1.062801
H140	H	0.498454	0.237176	1.145811
H141	H	0.391907	0.237175	1.145820
H142	H	0.338426	0.102422	0.655321
H143	H	1.542440	0.092094	0.384107
C144	C	0.475461	0.410721	0.834146
H145	H	0.424163	0.467939	0.861735
H146	H	0.458071	0.386811	0.873636
H147	H	0.573046	0.383856	0.796261
C148	C	1.375938	-0.355156	0.625664
H149	H	1.427276	-0.412377	0.598060
H150	H	1.278361	-0.328300	0.663519
H151	H	1.393360	-0.331248	0.586169
H152	H	1.542406	-0.318004	0.794216
H153	H	0.662403	0.119718	0.110139
C154	C	0.526623	0.114162	0.643569
H155	H	0.484235	0.138650	0.619071
H156	H	0.502428	0.156018	0.682012
H157	H	0.625843	0.075715	0.601706
C158	C	0.257568	0.557324	0.839756
H159	H	0.297770	0.552951	0.865021
H160	H	0.274192	0.584938	0.803971
H161	H	0.159208	0.587875	0.881319
H162	H	0.447463	0.413554	0.966464
H163	H	0.197825	0.517519	0.748588
H164	H	1.123529	0.247009	0.660827
H165	H	0.245407	0.545016	1.097969
H166	H	0.308838	0.373687	0.665652
H167	H	0.497080	0.247010	0.660818
H168	H	1.576356	-0.068941	0.223021
C169	C	1.375914	-0.076419	0.346953
H170	H	1.427235	-0.104009	0.289730
H171	H	1.393295	-0.115909	0.370864
H172	H	1.278334	-0.038542	0.373808
C173	C	1.683139	-0.481811	0.710533
H174	H	1.699706	-0.464799	0.742717
H175	H	1.652588	-0.512530	0.732217
H176	H	1.767557	-0.515464	0.654861
H177	H	1.403856	-0.357950	0.493372
H178	H	1.123537	-0.041302	-0.050885
H179	H	0.741620	0.092071	0.384061
C180	C	1.621779	-0.338746	0.190600
H181	H	1.572624	-0.282290	0.198086
H182	H	1.718492	-0.365292	0.160614
H183	H	1.611960	-0.365310	0.160616
C184	C	0.627585	-0.054467	0.812155
H185	H	0.649329	-0.084849	0.842535
H186	H	0.711039	-0.079423	0.756817
H187	H	0.587621	0.000873	0.837130
H188	H	1.605953	-0.489413	0.361869
C189	C	0.611172	0.137612	0.259459
H190	H	0.538846	0.162871	0.255100
H191	H	0.607138	0.101818	0.287065
H192	H	0.598693	0.179178	0.290012
H193	H	1.188923	-0.064107	0.349690
H194	H	0.245480	0.395748	1.247134
H195	H	0.727786	0.096904	0.510715
H196	H	1.403806	-0.208698	0.344183
C197	C	0.627180	0.410719	0.834149
H198	H	0.650467	0.357785	0.826010
H199	H	0.569488	0.441867	0.891498
H200	H	0.577941	0.438918	0.814134
C201	C	1.144914	0.370962	0.653352
H202	H	1.223959	0.313745	0.625756
H203	H	1.151448	0.394875	0.613865
H204	H	1.142999	0.397828	0.691227
H205	H	1.202747	-0.068944	0.223028
H206	H	0.338438	-0.129063	0.886763
C207	C	1.144926	-0.048765	0.073066
H208	H	1.223970	-0.076376	0.015846
H209	H	1.143027	-0.010898	0.099925
H210	H	1.151452	-0.088252	0.096983
C211	C	1.240146	0.498268	0.620093
H212	H	1.312471	0.502628	0.594830
H213	H	1.244183	0.470661	0.655887
H214	H	1.252621	0.467715	0.578528
H215	H	0.497139	-0.041321	0.949101
H216	H	1.706966	-0.480513	0.221530
H217	H	1.354193	0.096914	0.510734
H218	H	1.354194	-0.191380	0.799017
H219	H	0.197835	0.046396	1.219593
H220	H	0.727781	0.808599	0.799011
C221	C	1.224142	0.644875	0.625677
H222	H	1.200860	0.697808	0.633802
H223	H	1.273395	0.616672	0.645679
H224	H	1.281819	0.613728	0.568325
C225	C	0.296745	-0.048811	1.073024
H226	H	0.226195	-0.040703	1.125950
H227	H	0.260093	-0.028795	1.044824
H228	H	0.375085	-0.106160	1.041862
H229	H	0.741611	0.681946	0.794182
H230	H	0.648570	0.534685	0.826674
