data_functionalizedCrystal
_audit_creation_method	'MofGen! by Chris Wilmer'
_symmetry_space_group_name_H-M	'P1'
_symmetry_Int_Tables_number	1
_symmetry_cell_setting	triclinic
loop_
_symmetry_equiv_pos_as_xyz
  x,y,z
_cell_length_a	17.640112
_cell_length_b	12.594516
_cell_length_c	17.640968
_cell_angle_alpha	78.772174
_cell_angle_beta	92.139080
_cell_angle_gamma	101.240082
loop_
_atom_site_label
_atom_site_type_symbol
_atom_site_fract_x
_atom_site_fract_y
_atom_site_fract_z
Zn1	Zn	1.247781	-0.030581	-0.195081
Zn2	Zn	1.747781	0.469419	0.304919
Zn3	Zn	1.222032	-0.250168	-0.068109
Zn4	Zn	1.722032	0.249832	0.431891
Zn5	Zn	1.095120	-0.099815	-0.093731
Zn6	Zn	1.595120	0.400185	0.406269
Zn7	Zn	1.120772	-0.236158	-0.220690
Zn8	Zn	1.620772	0.263842	0.279310
O9	O	1.171426	-0.154181	-0.144403
O10	O	1.671426	0.345819	0.355597
O11	O	1.350633	-0.036598	-0.156798
O12	O	1.850633	0.463402	0.343202
O13	O	1.183686	-0.265062	0.034764
O14	O	1.683686	0.234938	0.534764
O15	O	1.115411	0.058327	-0.107180
O16	O	1.615411	0.558327	0.392820
O17	O	1.331715	-0.197928	-0.063512
O18	O	1.831715	0.302072	0.436488
O19	O	1.227571	0.109193	-0.181642
O20	O	1.727571	0.609193	0.318358
O21	O	1.090444	-0.154598	0.015940
O22	O	1.590444	0.345402	0.515940
O23	O	0.992255	-0.141013	-0.132012
O24	O	1.492255	0.358987	0.367988
O25	O	1.159131	-0.174050	-0.323565
O26	O	1.659131	0.325950	0.176435
O27	O	1.011102	-0.241184	-0.225289
O28	O	1.511102	0.258816	0.274711
O29	O	1.252445	-0.023013	-0.304750
O30	O	1.752445	0.476987	0.195250
O31	O	1.208559	-0.397268	-0.088344
O32	O	1.708559	0.102732	0.411656
O33	O	1.134164	-0.386975	-0.200445
O34	O	1.634164	0.113025	0.299555
C35	C	0.974125	-0.197091	-0.184210
C36	C	1.474125	0.302909	0.315790
C37	C	0.889722	-0.215468	-0.201258
C38	C	1.389722	0.284532	0.298742
C39	C	0.563040	-0.014551	-0.014899
C40	C	1.063040	0.485449	0.485101
C41	C	0.483733	-0.031838	-0.030928
C42	C	0.983733	0.468162	0.469072
C43	C	0.503379	-0.136388	-0.127890
C44	C	1.003379	0.363612	0.372110
C45	C	0.582690	-0.119106	-0.111871
C46	C	1.082690	0.380894	0.388129
C47	C	0.612514	-0.058188	-0.055374
C48	C	1.112514	0.441812	0.444626
C49	C	0.632163	-0.162742	-0.152347
C50	C	1.132163	0.337258	0.347653
C51	C	0.711466	-0.145466	-0.136326
C52	C	1.211466	0.354534	0.363674
C53	C	0.741296	-0.084554	-0.079830
C54	C	1.241296	0.415446	0.420170
C55	C	0.691817	-0.040912	-0.039354
C56	C	1.191817	0.459088	0.460646
C57	C	0.602336	-0.223666	-0.208839
C58	C	1.102336	0.276334	0.291161
C59	C	0.651810	-0.267303	-0.249315
C60	C	1.151810	0.232697	0.250685
C61	C	0.731115	-0.250020	-0.233299
C62	C	1.231115	0.249980	0.266701
C63	C	0.760946	-0.189108	-0.176803
C64	C	1.260946	0.310892	0.323197
C65	C	0.780595	-0.293662	-0.273775
C66	C	1.280595	0.206338	0.226225
C67	C	0.859898	-0.276386	-0.257755
C68	C	1.359898	0.223614	0.242245
C69	C	0.840249	-0.171832	-0.160783
C70	C	1.340249	0.328168	0.339217
C71	C	1.171375	-0.430735	-0.144405
C72	C	1.671375	0.069265	0.355595
C73	C	1.171428	-0.549023	-0.144418
C74	C	1.671428	-0.049023	0.355582
C75	C	1.130952	-0.612729	-0.205355
C76	C	1.630952	-0.112729	0.294645
C77	C	1.098441	-0.710300	-0.139790
C78	C	1.598441	-0.210300	0.360210
C79	C	1.204011	-0.662232	-0.209981
C80	C	1.704011	-0.162232	0.290019
C81	C	1.138872	-0.645055	-0.078824
C82	C	1.638872	-0.145055	0.421176
C83	C	1.244484	-0.596959	-0.149055
C84	C	1.744484	-0.096959	0.350945
C85	C	1.211989	-0.694508	-0.083437
C86	C	1.711989	-0.194508	0.416563
C87	C	1.369498	-0.111103	-0.104440
C88	C	1.869498	0.388897	0.395560
C89	C	1.453905	-0.092746	-0.087411
C90	C	1.953905	0.407254	0.412589
C91	C	1.211522	-0.089246	-0.342483
C92	C	1.711522	0.410754	0.157517
C93	C	1.228608	-0.061575	-0.426893
C94	C	1.728608	0.438425	0.073107
C95	C	1.171502	0.123463	-0.144413
C96	C	1.671502	0.623463	0.355587
C97	C	1.171534	0.241779	-0.144417
C98	C	1.671534	0.741779	0.355583
C99	C	1.041915	-0.363754	-0.753480
C100	C	1.541915	0.136246	-0.253480
C101	C	1.057987	-0.337736	-0.832792
C102	C	1.557987	0.162264	-0.332792
C103	C	1.155145	-0.180474	-0.813192
C104	C	1.655145	0.319526	-0.313192
C105	C	1.139080	-0.206477	-0.733876
C106	C	1.639080	0.293523	-0.233876
C107	C	1.082465	-0.298118	-0.704027
C108	C	1.582465	0.201882	-0.204027
C109	C	1.179629	-0.140841	-0.684423
C110	C	1.679629	0.359159	-0.184423
C111	C	1.163567	-0.166845	-0.605114
C112	C	1.663567	0.333155	-0.105114
C113	C	1.106956	-0.258484	-0.575258
C114	C	1.606956	0.241516	-0.075258
C115	C	1.066403	-0.324122	-0.624718
C116	C	1.566403	0.175878	-0.124718
C117	C	1.236247	-0.049204	-0.714274
C118	C	1.736247	0.450796	-0.214274
C119	C	1.276797	0.016432	-0.664821
C120	C	1.776797	0.516432	-0.164821
C121	C	1.260731	-0.009567	-0.585511
C122	C	1.760731	0.490433	-0.085511
C123	C	1.204120	-0.101207	-0.555655
C124	C	1.704120	0.398793	-0.055655
C125	C	1.301285	0.056071	-0.536051
C126	C	1.801285	0.556071	-0.036051
C127	C	1.285223	0.030067	-0.456742
C128	C	1.785223	0.530067	0.043258
C129	C	1.188059	-0.127210	-0.476346
C130	C	1.688059	0.372790	0.023654
C131	C	1.131531	-0.218777	0.052915
C132	C	1.631531	0.281223	0.552915
C133	C	1.114592	-0.246116	0.137354
C134	C	1.614592	0.253884	0.637354
H135	H	0.587327	0.035074	0.031095
H136	H	1.087327	0.535074	0.531095
H137	H	0.627515	-0.316906	-0.295312
H138	H	1.127515	0.183094	0.204688
H139	H	0.479084	-0.185991	-0.173887
H140	H	0.979084	0.314009	0.326113
H141	H	0.716104	0.008713	0.006640
H142	H	1.216104	0.508713	0.506640
N143	N	1.326245	-0.531896	-0.154293
N144	N	1.826245	-0.031896	0.345707
H145	H	1.325614	-0.452034	-0.153741
H146	H	1.825614	0.047966	0.346259
H147	H	1.357076	-0.562788	-0.108781
H148	H	1.857076	-0.062788	0.391219
H149	H	1.111287	-0.636769	-0.023376
H150	H	1.611287	-0.136769	0.476624
H151	H	0.864535	-0.122207	-0.114788
H152	H	1.364535	0.377793	0.385212
H153	H	1.246254	-0.730048	-0.031854
H154	H	1.746254	-0.230048	0.468146
N155	N	1.240465	-0.673406	-0.283418
N156	N	1.740465	-0.173406	0.216582
H157	H	1.240693	-0.753737	-0.282657
H158	H	1.740693	-0.253737	0.217343
H159	H	1.209781	-0.643475	-0.329372
H160	H	1.709781	-0.143475	0.170628
H161	H	0.995796	-0.438357	-0.729178
H162	H	1.495796	0.061643	-0.229178
H163	H	0.900181	-0.311918	-0.290715
H164	H	1.400181	0.188082	0.209285
N165	N	0.430370	0.015226	0.012733
N166	N	0.930370	0.515226	0.512733
H167	H	0.461300	0.056436	0.050954
H168	H	0.961300	0.556436	0.550954
H169	H	0.403744	0.067404	-0.024881
H170	H	0.903744	0.567404	0.475119
N171	N	0.826831	-0.065921	-0.062552
N172	N	1.326831	0.434079	0.437448
H173	H	0.848782	0.015832	-0.072736
H174	H	1.348782	0.515832	0.427264
H175	H	0.835305	-0.098364	-0.006578
H176	H	1.335305	0.401636	0.493422
H177	H	0.537762	-0.237731	-0.221881
H178	H	1.037762	0.262269	0.278119
H179	H	0.756298	-0.343271	-0.319769
H180	H	1.256298	0.156729	0.180231
N181	N	1.085502	-0.565437	-0.273556
N182	N	1.585502	-0.065437	0.226444
H183	H	1.030348	-0.607288	-0.269947
H184	H	1.530348	-0.107288	0.230053
H185	H	1.086253	-0.485115	-0.273311
H186	H	1.586253	0.014885	0.226689
N187	N	1.328958	0.100839	-0.403389
N188	N	1.828958	0.600839	0.096611
H189	H	1.319985	0.178859	-0.419558
H190	H	1.819985	0.678859	0.080442
H191	H	1.310166	0.070349	-0.348640
H192	H	1.810166	0.570349	0.151360
H193	H	1.141939	-0.201813	-0.452045
H194	H	1.641939	0.298187	0.047955
H195	H	1.036709	-0.759408	-0.135873
H196	H	1.536709	-0.259408	0.364127
H197	H	1.020283	-0.398725	-0.600417
H198	H	1.520283	0.101275	-0.100417
N199	N	1.089614	-0.286552	-0.489721
N200	N	1.589614	0.213448	0.010279
H201	H	1.137825	-0.301060	-0.460091
H202	H	1.637825	0.198940	0.039909
H203	H	1.071779	-0.222808	-0.473502
H204	H	1.571779	0.277192	0.026498
H205	H	1.249325	-0.028037	-0.778852
H206	H	1.749325	0.471963	-0.278852
H207	H	1.024962	-0.391191	-0.873056
H208	H	1.524962	0.108809	-0.373056
H209	H	1.201243	-0.105862	-0.837506
H210	H	1.701243	0.394138	-0.337506
H211	H	1.322895	0.091044	-0.689135
H212	H	1.822895	0.591044	-0.189135
H213	H	1.347386	0.130679	-0.560366
H214	H	1.847386	0.630679	-0.060366
