data_functionalizedCrystal
_audit_creation_method	'MofGen! by Chris Wilmer'
_symmetry_space_group_name_H-M	'P1'
_symmetry_Int_Tables_number	1
_symmetry_cell_setting	triclinic
loop_
_symmetry_equiv_pos_as_xyz
  x,y,z
_cell_length_a	23.532355
_cell_length_b	23.532357
_cell_length_c	11.804365
_cell_angle_alpha	101.747256
_cell_angle_beta	78.235620
_cell_angle_gamma	82.827896
loop_
_atom_site_label
_atom_site_type_symbol
_atom_site_fract_x
_atom_site_fract_y
_atom_site_fract_z
O1	O	0.766822	0.057447	-0.098874
O2	O	0.600957	0.067477	-0.098914
O3	O	0.688903	-0.020470	-0.098868
O4	O	0.678876	0.145393	-0.098920
O5	O	0.665750	0.002660	0.099175
O6	O	0.577804	0.090606	0.099130
O7	O	0.743669	0.080577	0.099170
Cu8	Cu	0.658623	0.087703	0.117233
Cu9	Cu	0.686003	0.060350	-0.116977
O10	O	0.655723	0.168523	0.099124
C11	C	0.568165	0.078790	0.000103
C12	C	0.504948	0.078034	0.000089
C13	C	0.100308	0.085910	0.108094
C14	C	0.040908	0.085193	0.108099
O15	O	-0.000543	0.095525	0.199908
N16	N	0.023820	0.072229	0.000146
C17	C	0.066137	0.059976	-0.107819
O18	O	0.046148	0.048883	-0.199642
C19	C	0.125536	0.060689	-0.107823
C20	C	0.142619	0.073659	0.000137
C21	C	0.117393	0.098879	0.216046
C22	C	0.176788	0.099597	0.216040
C23	C	0.219100	0.087346	0.108084
C24	C	0.202015	0.074377	0.000132
C25	C	0.167852	0.048432	-0.215787
C26	C	0.227254	0.049145	-0.215781
C27	C	0.244338	0.062116	-0.107821
C28	C	0.303722	0.062844	-0.107830
N29	N	0.320810	0.075808	0.000123
C30	C	0.278499	0.088059	0.108080
C31	C	-0.058606	0.058479	-0.107804
C32	C	-0.118005	0.057770	-0.107801
C33	C	-0.143229	0.082986	0.108117
C34	C	-0.083830	0.083699	0.108114
C35	C	-0.041518	0.071442	0.000150
C36	C	0.403235	0.089566	0.108061
C37	C	0.462636	0.090285	0.108046
C38	C	0.487856	0.065066	-0.107872
C39	C	0.428459	0.064350	-0.107858
C40	C	0.386149	0.076599	0.000118
O41	O	0.345206	0.052516	-0.199593
O42	O	0.298498	0.099143	0.199887
C43	C	0.677075	-0.030121	0.000157
C44	C	0.676319	-0.093338	0.000168
C45	C	0.684211	-0.497964	-0.107851
C46	C	0.683494	-0.557365	-0.107858
O47	O	0.693837	-0.598803	-0.199668
N48	N	0.670518	-0.574468	0.000094
C49	C	0.658252	-0.532166	0.108060
O50	O	0.647149	-0.552168	0.199882
C51	C	0.658964	-0.472767	0.108066
C52	C	0.671947	-0.455668	0.000107
C53	C	0.697192	-0.480865	-0.215801
C54	C	0.697909	-0.421469	-0.215794
C55	C	0.685645	-0.379173	-0.107836
C56	C	0.672665	-0.396272	0.000114
C57	C	0.646694	-0.430466	0.216031
C58	C	0.647408	-0.371063	0.216028
C59	C	0.660390	-0.353965	0.108068
C60	C	0.661118	-0.294580	0.108080
N61	N	0.674094	-0.277477	0.000127
C62	C	0.686358	-0.319773	-0.107830
C63	C	0.656756	-0.656910	0.108040
C64	C	0.656047	-0.716309	0.108036
C65	C	0.681288	-0.741503	-0.107883
C66	C	0.682001	-0.682103	-0.107877
C67	C	0.669732	-0.639807	0.000088
C68	C	0.687864	-0.195036	-0.107807
C69	C	0.688583	-0.135634	-0.107790
C70	C	0.663339	-0.110445	0.108128
C71	C	0.662623	-0.169842	0.108112
C72	C	0.674885	-0.212137	0.000135
O73	O	0.650779	-0.253109	0.199843
O74	O	0.697452	-0.299761	-0.199636
C75	C	0.776462	0.069263	0.000150
C76	C	0.839679	0.070018	0.000156
C77	C	0.667551	0.178174	0.000096
C78	C	0.668308	0.241390	0.000077
N79	N	0.639369	0.106942	0.281963
N80	N	0.705262	0.041107	-0.281708
C81	C	0.751498	-0.005104	0.655970
C82	C	0.766063	-0.019660	0.531316
C83	C	0.734390	0.011989	0.468972
C84	C	0.688151	0.058197	0.531294
C85	C	0.673587	0.072758	0.655960
C86	C	0.656480	0.089851	0.468962
C87	C	0.610240	0.136059	0.531284
C88	C	0.595679	0.150618	0.655938
C89	C	0.627351	0.118969	0.718282
C90	C	0.671043	0.075290	0.344295
C91	C	0.593133	0.153152	0.344285
C92	C	0.578568	0.167709	0.468940
H93	H	0.522316	0.055094	-0.195768
H94	H	0.803711	-0.057282	0.480578
O95	O	0.632685	-0.448894	0.332480
H96	H	0.670576	-0.480653	0.337682
H97	H	0.558032	0.188247	0.706681
O98	O	0.071710	0.112129	0.332432
H99	H	0.082306	0.079520	0.384315
H100	H	0.476541	0.100849	0.195964
O101	O	0.702581	-0.117197	-0.224242
H102	H	0.742337	-0.096050	-0.229410
O103	O	0.195215	0.113582	0.332479
H104	H	0.216363	0.153337	0.337632
O105	O	0.694497	-0.787133	-0.224320
H106	H	0.661858	-0.776462	-0.276078
H107	H	0.540919	0.205333	0.519698
H108	H	0.653357	-0.075998	0.196025
O109	O	-0.065405	0.097691	0.224554
H110	H	-0.104811	0.106089	0.299617
H111	H	0.777284	-0.030865	0.706739
O112	O	-0.188887	0.096323	0.224564
H113	H	-0.233064	0.093688	0.206419
O114	O	0.643537	-0.611291	0.224495
H115	H	0.634403	-0.633170	0.299551
H116	H	-0.131909	0.047217	-0.195714
O117	O	-0.012971	0.045270	-0.224257
H118	H	-0.034839	0.036142	-0.299314
H119	H	0.153955	0.037869	-0.303700
H120	H	0.261703	0.039165	-0.303701
H121	H	0.615491	0.130819	0.819786
H122	H	0.707177	-0.515298	-0.303719
H123	H	0.645484	-0.730225	0.195947
O124	O	0.410027	0.050363	-0.224296
H125	H	0.449431	0.041962	-0.299365
O126	O	0.701084	-0.240650	-0.224264
H127	H	0.710232	-0.218772	-0.299317
H128	H	0.567343	0.178925	0.293526
H129	H	0.708479	-0.407553	-0.303706
O130	O	0.357603	0.102784	0.224516
H131	H	0.379470	0.111928	0.299571
O132	O	0.695993	-0.663660	-0.224316
H133	H	0.704396	-0.703055	-0.299381
O134	O	0.634182	-0.325445	0.332481
H135	H	0.589172	-0.325502	0.384241
O136	O	0.648623	-0.188291	0.224549
H137	H	0.640213	-0.148898	0.299619
H138	H	0.708692	0.037668	0.293564
O139	O	0.750089	-0.003715	0.334523
H140	H	0.787557	-0.041168	0.301660
