data_functionalizedCrystal
_audit_creation_method	'MofGen! by Chris Wilmer'
_symmetry_space_group_name_H-M	'P1'
_symmetry_Int_Tables_number	1
_symmetry_cell_setting	triclinic
loop_
_symmetry_equiv_pos_as_xyz
  x,y,z
_cell_length_a	12.759401
_cell_length_b	17.637651
_cell_length_c	12.759393
_cell_angle_alpha	101.248903
_cell_angle_beta	90.019676
_cell_angle_gamma	101.219778
loop_
_atom_site_label
_atom_site_type_symbol
_atom_site_fract_x
_atom_site_fract_y
_atom_site_fract_z
Zn1	Zn	1.521699	-0.314722	0.509313
Zn2	Zn	1.486058	-0.446957	0.298057
Zn3	Zn	1.345987	-0.314761	0.333641
Zn4	Zn	1.310473	-0.446900	0.473713
O5	O	1.416054	-0.380835	0.403681
O6	O	1.663990	-0.332271	0.481295
O7	O	1.467424	-0.429462	0.155745
O8	O	1.399075	-0.204114	0.386735
O9	O	1.637805	-0.429424	0.326086
O10	O	1.528169	-0.204085	0.515800
O11	O	1.364515	-0.332338	0.181889
O12	O	1.194257	-0.332282	0.352216
O13	O	1.338546	-0.429325	0.625468
O14	O	1.168165	-0.429363	0.455126
O15	O	1.493733	-0.332214	0.651623
O16	O	1.432987	-0.557591	0.291567
O17	O	1.303986	-0.557549	0.420621
C18	C	1.143091	-0.380821	0.403670
C19	C	1.026310	-0.380834	0.403685
C20	C	0.985059	-0.330338	0.484581
C21	C	0.875333	-0.330346	0.484586
C22	C	0.848117	-0.431354	0.322793
C23	C	0.957842	-0.431341	0.322785
C24	C	0.750455	-0.237152	0.547427
C25	C	0.709199	-0.186663	0.628338
C26	C	0.748095	-0.174612	0.734119
C27	C	0.828244	-0.213062	0.759006
C28	C	0.869493	-0.263558	0.678099
C29	C	0.830602	-0.275593	0.572308
C30	C	1.082722	-0.524537	0.259954
C31	C	1.123972	-0.575036	0.179051
C32	C	1.085075	-0.587095	0.073266
C33	C	1.004920	-0.548658	0.048379
C34	C	0.963670	-0.498159	0.129283
C35	C	1.002574	-0.486099	0.235066
C36	C	1.360794	-0.586258	0.348392
C37	C	1.337249	-0.674139	0.324775
C38	C	1.595603	-0.962798	0.583432
C39	C	1.573446	-1.045376	0.561221
C40	C	1.439109	-1.045513	0.426696
C41	C	1.461258	-0.962934	0.448891
C42	C	1.539506	-0.921583	0.527261
C43	C	1.405161	-0.921719	0.392721
C44	C	1.427305	-0.839147	0.414919
C45	C	1.505547	-0.797790	0.493288
C46	C	1.561650	-0.839011	0.549459
C47	C	1.326909	-0.963072	0.314357
C48	C	1.270812	-0.921856	0.258186
C49	C	1.292961	-0.839283	0.280379
C50	C	1.371202	-0.797926	0.358747
C51	C	1.236858	-0.798062	0.224207
C52	C	1.259002	-0.715490	0.246405
C53	C	1.393346	-0.715354	0.380945
C54	C	1.690084	-0.380849	0.403693
C55	C	1.806859	-0.380855	0.403698
C56	C	1.416153	-0.380759	0.677735
C57	C	1.416195	-0.380727	0.794520
C58	C	1.471559	-0.174609	0.459208
C59	C	1.495212	-0.086729	0.482871
C60	C	1.416031	-0.380853	0.130709
C61	C	1.416253	-0.380663	0.013984
C62	C	1.497009	-0.330153	0.863005
C63	C	1.497035	-0.330119	0.972738
C64	C	1.335432	-0.431239	0.945491
C65	C	1.335401	-0.431268	0.835761
C66	C	1.559713	-0.236835	1.147812
C67	C	1.640541	-0.186269	1.216299
C68	C	1.746311	-0.174146	1.183967
C69	C	1.771271	-0.212602	1.083147
C70	C	1.690448	-0.263174	1.014664
C71	C	1.584667	-0.275282	1.046999
C72	C	1.272734	-0.524553	0.660684
C73	C	1.191914	-0.575130	0.592199
C74	C	1.086140	-0.587261	0.624526
C75	C	1.061179	-0.548819	0.725346
C76	C	1.142000	-0.498242	0.793832
C77	C	1.247773	-0.486110	0.761497
H78	H	1.118644	-0.628238	0.007400
H79	H	1.269654	-0.472390	0.979082
H80	H	0.973244	-0.558481	-0.037758
H81	H	1.114407	-0.514716	0.346091
O82	O	0.781533	-0.480502	0.244345
C83	C	0.704333	-0.531617	0.290300
H84	H	0.736107	-0.536571	0.371698
H85	H	0.627747	-0.507184	0.300559
C86	C	0.641513	-0.607680	0.116709
C87	C	0.680542	-0.613770	0.216679
H88	H	0.626833	-0.658355	0.071295
H89	H	0.693521	-0.573242	0.085747
H90	H	0.577696	-0.587317	0.125273
H91	H	0.744365	-0.634123	0.208115
H92	H	0.628544	-0.648214	0.247638
H93	H	1.040804	-0.289210	0.550452
O94	O	1.714835	-0.300564	0.916814
C95	C	1.788651	-0.348468	0.929239
H96	H	1.833528	-0.325426	1.009960
H97	H	1.744128	-0.411677	0.925267
C98	C	1.813687	-0.374836	0.739993
C99	C	1.868812	-0.346531	0.839132
H100	H	1.863132	-0.373645	0.684408
H101	H	1.763953	-0.342564	0.731621
H102	H	1.776587	-0.427508	0.736698
H103	H	1.905900	-0.293857	0.842430
H104	H	1.918555	-0.378794	0.847502
O105	O	1.375445	-0.512900	0.629142
C106	C	1.380144	-0.557676	0.525473
H107	H	1.308594	-0.608949	0.509396
H108	H	1.378405	-0.518723	0.464178
C109	C	1.572157	-0.526970	0.536489
C110	C	1.484283	-0.589949	0.516747
H111	H	1.636397	-0.546875	0.531104
H112	H	1.568992	-0.496801	0.606332
H113	H	1.570694	-0.494515	0.485408
H114	H	1.485740	-0.622397	0.567836
H115	H	1.487451	-0.620124	0.446913
H116	H	1.857403	-0.202733	1.056834
O117	O	1.671490	-0.922655	0.659702
C118	C	1.643089	-0.942802	0.758977
H119	H	1.553058	-0.965549	0.758093
H120	H	1.686571	-0.990681	0.773624
C121	C	1.785521	-0.841464	0.849918
C122	C	1.674942	-0.869397	0.848834
H123	H	1.805174	-0.796187	0.905347
H124	H	1.804659	-0.827892	0.783034
H125	H	1.821743	-0.881370	0.862119
H126	H	1.638723	-0.829495	0.836620
H127	H	1.655799	-0.882961	0.915719
O128	O	1.305380	-1.043282	0.292986
C129	C	1.270934	-1.070826	0.386245
H130	H	1.301639	-1.023204	0.459578
H131	H	1.179818	-1.085507	0.384456
C132	C	1.277199	-1.203903	0.301406
C133	C	1.314919	-1.145415	0.391475
H134	H	1.304326	-1.249915	0.304631
H135	H	1.300402	-1.185347	0.238574
H136	H	1.201270	-1.216127	0.299925
H137	H	1.390845	-1.133184	0.392948
H138	H	1.291730	-1.163970	0.454308
O139	O	1.160781	-0.838113	0.148086
C140	C	1.116035	-0.784028	0.103247
H141	H	1.128171	-0.725144	0.162099
H142	H	1.156897	-0.775276	0.025839
C143	C	0.980659	-0.888636	0.007049
C144	C	0.995557	-0.816316	0.079337
H145	H	0.906344	-0.908553	-0.007705
H146	H	1.010807	-0.925075	0.037255
H147	H	1.014718	-0.881333	-0.057449
H148	H	0.961509	-0.823622	0.143838
H149	H	0.965400	-0.779878	0.049141
H150	H	0.898402	-0.466862	0.109011
H151	H	1.212247	-0.606439	0.510111
H152	H	1.619118	-1.078930	0.606983
O153	O	1.363179	-1.085597	0.350447
C154	C	1.391617	-1.065478	0.251164
H155	H	1.448092	-1.005508	0.265146
H156	H	1.433191	-1.111944	0.203337
C157	C	1.220872	-1.135401	0.171256
C158	C	1.290228	-1.061741	0.188430
H159	H	1.158331	-1.133099	0.132556
H160	H	1.201713	-1.148958	0.238143
H161	H	1.255529	-1.174115	0.131405
H162	H	1.255575	-1.023031	0.228292
H163	H	1.309379	-1.048177	0.121548
H164	H	1.189252	-0.606323	0.199320
O165	O	1.637537	-0.798868	0.625729
C166	C	1.609136	-0.819015	0.725005
H167	H	1.519105	-0.841762	0.724120
H168	H	1.652618	-0.866894	0.739651
C169	C	1.751568	-0.717677	0.815946
C170	C	1.640989	-0.745610	0.814862
H171	H	1.771221	-0.672399	0.871375
H172	H	1.770706	-0.704105	0.749062
H173	H	1.787790	-0.757583	0.828147
H174	H	1.604770	-0.705708	0.802647
H175	H	1.621846	-0.759173	0.881746
H176	H	1.207100	-0.955536	0.194380
O177	O	1.824695	-0.124985	1.250612
C178	C	1.779993	-0.093671	1.346543
H179	H	1.691169	-0.096249	1.331542
H180	H	1.790585	-0.129674	1.409525
C181	C	1.945935	-0.004182	1.404945
C182	C	1.836842	-0.007342	1.386518
H183	H	1.981004	0.049069	1.429607
H184	H	1.976054	-0.025280	1.340316
H185	H	1.954747	-0.034188	1.457426
H186	H	1.828030	0.022656	1.334028
H187	H	1.806723	0.013764	1.451139
H188	H	1.457071	-0.681685	0.444754
H189	H	0.934753	-0.294859	0.698361
H190	H	1.213320	-0.681932	0.200666
O191	O	1.117863	-0.460770	0.891737
C192	C	1.146336	-0.378499	0.899128
H193	H	1.210416	-0.364934	0.839517
H194	H	1.072891	-0.354925	0.880244
C195	C	1.111387	-0.355460	1.086454
C196	C	1.190098	-0.338799	1.013244
H197	H	1.138377	-0.330969	1.156847
H198	H	1.092200	-0.410887	1.081474
H199	H	1.050189	-0.335814	1.070703
H200	H	1.251288	-0.358453	1.028988
H201	H	1.209296	-0.283373	1.018229
O202	O	0.958368	-0.560661	0.756573
C203	C	0.892391	-0.613558	0.674518
H204	H	0.932288	-0.612677	0.594718
H205	H	0.879644	-0.675668	0.691764
C206	C	0.734645	-0.589709	0.767399
C207	C	0.783643	-0.588623	0.669385
H208	H	0.667562	-0.574331	0.764234
H209	H	0.779094	-0.554074	0.822683
H210	H	0.724032	-0.641470	0.781759
H211	H	0.794267	-0.536861	0.655033
H212	H	0.739193	-0.624249	0.614099
H213	H	1.562794	-0.288997	0.829432
H214	H	1.620208	-0.154958	1.298387
H215	H	0.859899	-0.203253	0.845147
O216	O	1.007743	-0.636495	0.557964
C217	C	1.030916	-0.712844	0.534792
H218	H	1.120439	-0.708797	0.547449
H219	H	0.985297	-0.750066	0.590079
C220	C	0.886971	-0.756401	0.402154
C221	C	0.996926	-0.751430	0.417691
H222	H	0.866000	-0.780205	0.329923
H223	H	0.871355	-0.704964	0.417768
H224	H	0.848968	-0.787418	0.448234
H225	H	1.034927	-0.720406	0.371622
H226	H	1.012547	-0.802863	0.402066
O227	O	0.707838	-0.125628	0.812645
C228	C	0.597113	-0.153806	0.818050
H229	H	0.564697	-0.192627	0.738010
H230	H	0.582394	-0.189792	0.883649
C231	C	0.579649	-0.035851	0.941770
C232	C	0.539833	-0.083526	0.843460
H233	H	0.544315	0.007500	0.957448
H234	H	0.654247	-0.016868	0.938132
H235	H	0.567380	-0.065849	0.996424
H236	H	0.552114	-0.053531	0.788807
H237	H	0.465235	-0.102502	0.847090
H238	H	0.643942	-0.155356	0.608065
H239	H	1.473588	-0.246695	1.174144
H240	H	1.523575	-0.730555	0.511359
H241	H	0.718788	-0.246950	0.461292
