data_functionalizedCrystal
_audit_creation_method	'MofGen! by Chris Wilmer'
_symmetry_space_group_name_H-M	'P1'
_symmetry_Int_Tables_number	1
_symmetry_cell_setting	triclinic
loop_
_symmetry_equiv_pos_as_xyz
  x,y,z
_cell_length_a	16.625548
_cell_length_b	16.625546
_cell_length_c	16.625525
_cell_angle_alpha	89.905447
_cell_angle_beta	89.938871
_cell_angle_gamma	90.023536
loop_
_atom_site_label
_atom_site_type_symbol
_atom_site_fract_x
_atom_site_fract_y
_atom_site_fract_z
Zn1	Zn	1.233003	-0.320467	-0.455899
Zn2	Zn	1.566337	0.012867	-0.122565
Zn3	Zn	1.899670	0.346200	0.210768
Zn4	Zn	1.232811	-0.455461	-0.321061
Zn5	Zn	1.566144	-0.122127	0.012273
Zn6	Zn	1.899478	0.211206	0.345606
Zn7	Zn	1.098070	-0.320648	-0.321079
Zn8	Zn	1.431403	0.012685	0.012254
Zn9	Zn	1.764736	0.346018	0.345588
Zn10	Zn	1.098136	-0.455263	-0.455851
Zn11	Zn	1.431469	-0.121930	-0.122518
Zn12	Zn	1.764802	0.211403	0.210816
O13	O	1.165505	-0.387960	-0.388472
O14	O	1.498838	-0.054626	-0.055139
O15	O	1.832172	0.278707	0.278194
O16	O	1.345810	-0.338380	-0.438025
O17	O	1.679144	-0.005047	-0.104691
O18	O	2.012477	0.328286	0.228642
O19	O	1.214829	-0.437736	-0.208230
O20	O	1.548163	-0.104403	0.125103
O21	O	1.881496	0.228930	0.458436
O22	O	1.116022	-0.207792	-0.338991
O23	O	1.449355	0.125542	-0.005657
O24	O	1.782689	0.458875	0.327676
O25	O	1.345669	-0.437560	-0.338960
O26	O	1.679002	-0.104227	-0.005626
O27	O	2.012336	0.229107	0.327707
O28	O	1.215157	-0.207658	-0.438042
O29	O	1.548490	0.125675	-0.104709
O30	O	1.881824	0.459008	0.228624
O31	O	1.115835	-0.338690	-0.208244
O32	O	1.449169	-0.005357	0.125089
O33	O	1.782502	0.327977	0.458423
O34	O	0.985246	-0.338499	-0.338944
O35	O	1.318579	-0.005165	-0.005611
O36	O	1.651913	0.328168	0.327722
O37	O	1.116134	-0.437224	-0.568690
O38	O	1.449467	-0.103890	-0.235357
O39	O	1.782801	0.229443	0.097977
O40	O	0.985294	-0.437400	-0.437961
O41	O	1.318628	-0.104067	-0.104627
O42	O	1.651961	0.229267	0.228706
O43	O	1.215221	-0.338189	-0.568725
O44	O	1.548554	-0.004856	-0.235392
O45	O	1.881888	0.328478	0.097941
O46	O	1.214893	-0.568267	-0.338913
O47	O	1.548227	-0.234934	-0.005580
O48	O	1.881560	0.098400	0.327753
O49	O	1.115948	-0.568122	-0.437943
O50	O	1.449281	-0.234789	-0.104610
O51	O	1.782614	0.098545	0.228724
C52	C	0.956014	-0.387948	-0.388450
C53	C	1.289347	-0.054615	-0.055117
C54	C	1.622681	0.278718	0.278217
C55	C	0.866393	-0.387963	-0.388459
C56	C	1.199726	-0.054629	-0.055126
C57	C	1.533060	0.278704	0.278207
C58	C	0.538217	-0.387968	-0.388494
C59	C	0.871551	-0.054635	-0.055160
C60	C	1.204884	0.278699	0.278173
C61	C	0.629526	-0.387964	-0.388482
C62	C	0.962859	-0.054631	-0.055148
C63	C	1.296192	0.278702	0.278185
C64	C	0.702302	-0.387966	-0.388476
C65	C	1.035636	-0.054632	-0.055143
C66	C	1.368969	0.278701	0.278191
C67	C	0.793617	-0.387961	-0.388465
C68	C	1.126950	-0.054628	-0.055132
C69	C	1.460283	0.278705	0.278202
C70	C	1.165429	-0.597451	-0.388439
C71	C	1.498762	-0.264117	-0.055105
C72	C	1.832095	0.069216	0.278228
C73	C	1.165470	-0.687072	-0.388451
C74	C	1.498803	-0.353738	-0.055118
C75	C	1.832136	-0.020405	0.278216
C76	C	1.165610	-1.015247	-0.388535
C77	C	1.498944	-0.681914	-0.055202
C78	C	1.832277	-0.348581	0.278132
C79	C	1.165569	-0.923939	-0.388514
C80	C	1.498902	-0.590605	-0.055181
C81	C	1.832235	-0.257272	0.278153
C82	C	1.165539	-0.851162	-0.388493
C83	C	1.498873	-0.517829	-0.055159
C84	C	1.832206	-0.184496	0.278174
C85	C	1.165499	-0.759848	-0.388472
C86	C	1.498832	-0.426515	-0.055139
C87	C	1.832166	-0.093182	0.278194
C88	C	1.375814	-0.387972	-0.388495
C89	C	1.709147	-0.054639	-0.055162
C90	C	2.042481	0.278695	0.278171
C91	C	1.465435	-0.387977	-0.388505
C92	C	1.798768	-0.054644	-0.055172
C93	C	2.132102	0.278690	0.278161
C94	C	1.165706	-0.387664	-0.598782
C95	C	1.499040	-0.054331	-0.265449
C96	C	1.832373	0.279003	0.067885
C97	C	1.165792	-0.387538	-0.688403
C98	C	1.499126	-0.054205	-0.355070
C99	C	1.832459	0.279128	-0.021737
C100	C	1.165604	-0.177651	-0.388524
C101	C	1.498937	0.155683	-0.055191
C102	C	1.832270	0.489016	0.278143
C103	C	1.165646	-0.088030	-0.388546
C104	C	1.498979	0.245304	-0.055213
C105	C	1.832312	0.578637	0.278121
C106	C	1.165351	-0.388196	-0.178981
C107	C	1.498684	-0.054863	0.154352
C108	C	1.832017	0.278471	0.487686
C109	C	1.165421	-0.388095	-0.089360
C110	C	1.498754	-0.054762	0.243973
C111	C	1.832088	0.278572	0.577307
C112	C	1.165492	-0.388000	-0.016578
C113	C	1.498825	-0.054667	0.316755
C114	C	1.832158	0.278666	0.650089
C115	C	1.165578	-0.387874	0.074730
C116	C	1.498911	-0.054541	0.408064
C117	C	1.832245	0.278793	0.741397
C118	C	1.165643	-0.387769	0.147506
C119	C	1.498976	-0.054435	0.480840
C120	C	1.832309	0.278898	0.814173
C121	C	1.165728	-0.387643	0.238820
C122	C	1.499061	-0.054310	0.572154
C123	C	1.832394	0.279023	0.905487
