data_functionalizedCrystal
_audit_creation_method	'MofGen! by Chris Wilmer'
_symmetry_space_group_name_H-M	'P1'
_symmetry_Int_Tables_number	1
_symmetry_cell_setting	triclinic
loop_
_symmetry_equiv_pos_as_xyz
  x,y,z
_cell_length_a	16.625546
_cell_length_b	16.625548
_cell_length_c	16.625539
_cell_angle_alpha	89.979432
_cell_angle_beta	90.030397
_cell_angle_gamma	89.976464
loop_
_atom_site_label
_atom_site_type_symbol
_atom_site_fract_x
_atom_site_fract_y
_atom_site_fract_z
Zn1	Zn	-0.320977	-1.232680	0.455898
Zn2	Zn	-0.455820	-1.232584	0.321060
Zn3	Zn	-0.321008	-1.097842	0.321078
Zn4	Zn	-0.455774	-1.097813	0.455850
O5	O	-0.388395	-1.165230	0.388471
O6	O	-0.338871	-1.345500	0.438024
O7	O	-0.437969	-1.214682	0.208230
O8	O	-0.208171	-1.115782	0.338990
O9	O	-0.437940	-1.345429	0.338959
O10	O	-0.208149	-1.214847	0.438041
O11	O	-0.338923	-1.115688	0.208243
O12	O	-0.338878	-0.985006	0.338944
O13	O	-0.437861	-1.115731	0.568689
O14	O	-0.437890	-0.984984	0.437960
O15	O	-0.338826	-1.214818	0.568724
O16	O	-0.568647	-1.214653	0.338912
O17	O	-0.568613	-1.115637	0.437942
C18	C	-0.388383	-0.955739	0.388449
C19	C	-0.388398	-0.866118	0.388458
C20	C	-0.597886	-1.165153	0.388438
C21	C	-0.687507	-1.165195	0.388450
C22	C	-0.388335	-1.165282	0.598780
C23	C	-0.388309	-1.165305	0.688402
C24	C	-1.015682	-1.165335	0.388534
C25	C	-0.924374	-1.165294	0.388513
C26	C	-0.851598	-1.165264	0.388492
C27	C	-0.760283	-1.165224	0.388471
C28	C	-0.178086	-1.165328	0.388523
C29	C	-0.088465	-1.165370	0.388545
C30	C	-0.388407	-1.375539	0.388494
C31	C	-0.388412	-1.465160	0.388504
C32	C	-0.388403	-0.537942	0.388493
C33	C	-0.388399	-0.629251	0.388481
C34	C	-0.388401	-0.702027	0.388475
C35	C	-0.388396	-0.793341	0.388464
C36	C	-0.388397	-1.165224	0.178981
C37	C	-0.388195	-1.165358	0.089360
C38	C	-0.388219	-1.165342	1.016577
C39	C	-0.388247	-1.165329	0.925269
C40	C	-0.388265	-1.165324	0.852492
C41	C	-0.388291	-1.165310	0.761178
