data_functionalizedCrystal
_audit_creation_method	'MofGen! by Chris Wilmer'
_symmetry_space_group_name_H-M	'P1'
_symmetry_Int_Tables_number	1
_symmetry_cell_setting	triclinic
loop_
_symmetry_equiv_pos_as_xyz
  x,y,z
_cell_length_a	10.654550
_cell_length_b	10.654550
_cell_length_c	9.130313
_cell_angle_alpha	89.998681
_cell_angle_beta	90.006312
_cell_angle_gamma	95.515069
loop_
_atom_site_label
_atom_site_type_symbol
_atom_site_fract_x
_atom_site_fract_y
_atom_site_fract_z
O1	O	0.176402	-1.667841	0.121690
O2	O	0.193208	-1.302363	0.121716
O3	O	0.002066	-1.493505	0.121693
O4	O	0.367544	-1.476699	0.121713
O5	O	0.002054	-1.493488	-0.121906
O6	O	0.193196	-1.302346	-0.121882
O7	O	0.176390	-1.667825	-0.121909
Cu8	Cu	0.184792	-1.485084	-0.144138
Cu9	Cu	0.184806	-1.485103	0.143946
O10	O	0.367532	-1.476682	-0.121886
C11	C	0.191968	-1.255556	-0.000080
C12	C	0.188276	-1.116113	-0.000070
C13	C	-0.044738	-1.492263	-0.000105
C14	C	-0.184181	-1.488571	-0.000103
C15	C	0.177630	-1.714631	-0.000110
C16	C	0.181322	-1.854074	-0.000110
C17	C	-0.263667	-1.601112	-0.000111
C18	C	-0.394688	-1.597636	-0.000092
C19	C	-0.366725	-1.369066	-0.000065
C20	C	-0.235706	-1.372544	-0.000073
C21	C	0.414336	-1.477925	-0.000084
C22	C	0.553779	-1.481616	-0.000077
N23	N	0.184781	-1.485080	-0.346761
C24	C	0.300818	-1.036628	-0.000068
C25	C	0.297341	-0.905607	-0.000093
C26	C	0.068772	-0.933570	-0.000117
C27	C	0.072250	-1.064588	-0.000101
C28	C	0.107920	-1.408281	-0.576806
C29	C	0.107903	-1.408265	-0.423469
C30	C	0.261671	-1.561925	-0.423398
C31	C	0.261680	-1.561947	-0.576732
N32	N	0.184808	-1.485118	0.346568
H33	H	-0.221720	-1.695588	-0.000132
Br34	Br	0.003556	-1.303978	-0.319481
H35	H	0.388984	-0.840894	-0.000095
H36	H	-0.408693	-1.274601	-0.000043
Br37	Br	0.458281	-1.106551	-0.000029
Br38	Br	0.365996	-1.666184	-0.319296
Br39	Br	-0.502558	-1.750378	-0.000094
H40	H	0.324292	-1.624523	-0.639123
H41	H	-0.170985	-1.280893	-0.000062
Br42	Br	0.003590	-1.304017	-0.680894
H43	H	-0.025693	-0.891602	-0.000151
H44	H	-0.019401	-1.129309	-0.000107
