data_functionalizedCrystal
_audit_creation_method	'MofGen! by Chris Wilmer'
_symmetry_space_group_name_H-M	'P1'
_symmetry_Int_Tables_number	1
_symmetry_cell_setting	triclinic
loop_
_symmetry_equiv_pos_as_xyz
  x,y,z
_cell_length_a	13.032721
_cell_length_b	13.897449
_cell_length_c	13.032268
_cell_angle_alpha	97.163294
_cell_angle_beta	103.289627
_cell_angle_gamma	97.205670
loop_
_atom_site_label
_atom_site_type_symbol
_atom_site_fract_x
_atom_site_fract_y
_atom_site_fract_z
Zn1	Zn	-0.499048	1.339434	-0.654185
Zn2	Zn	0.000952	1.839434	-0.154185
Zn3	Zn	-0.654133	1.339329	-0.499133
Zn4	Zn	-0.154133	1.839329	0.000867
Zn5	Zn	-0.476547	1.201593	-0.476607
Zn6	Zn	0.023453	1.701593	0.023393
Zn7	Zn	-0.676611	1.154642	-0.676677
Zn8	Zn	-0.176611	1.654642	-0.176677
O9	O	-0.576585	1.258750	-0.576651
O10	O	-0.076585	1.758750	-0.076651
O11	O	-0.519630	1.474399	-0.633632
O12	O	-0.019630	1.974399	-0.133632
O13	O	-0.611751	1.340663	-0.347525
O14	O	-0.111751	1.840663	0.152475
O15	O	-0.330901	1.239572	-0.481323
O16	O	0.169099	1.739572	0.018677
O17	O	-0.633570	1.474321	-0.519716
O18	O	-0.133570	1.974321	-0.019716
O19	O	-0.347432	1.340843	-0.611789
O20	O	0.152568	1.840843	-0.111789
O21	O	-0.481279	1.239470	-0.330975
O22	O	0.018721	1.739470	0.169025
O23	O	-0.503076	1.060386	-0.503132
O24	O	-0.003076	1.560386	-0.003132
O25	O	-0.671881	1.159550	-0.822314
O26	O	-0.171881	1.659550	-0.322314
O27	O	-0.650062	1.025891	-0.650123
O28	O	-0.150062	1.525891	-0.150123
O29	O	-0.541427	1.295316	-0.805789
O30	O	-0.041427	1.795316	-0.305789
O31	O	-0.805745	1.295136	-0.541525
O32	O	-0.305745	1.795136	-0.041525
O33	O	-0.822260	1.159448	-0.671966
O34	O	-0.322260	1.659448	-0.171966
C35	C	-0.576567	1.008140	-0.576625
C36	C	-0.076567	1.508140	-0.076625
C37	C	-0.576589	0.900922	-0.576642
C38	C	-0.076589	1.400922	-0.076642
C39	C	-0.852544	1.222209	-0.611654
C40	C	-0.352544	1.722209	-0.111654
C41	C	-0.970605	1.206660	-0.626664
C42	C	-0.470605	1.706660	-0.126664
C43	C	-1.015041	1.266909	-0.568865
C44	C	-0.515041	1.766909	-0.068865
C45	C	-1.137063	1.250841	-0.584377
C46	C	-0.637063	1.750841	-0.084377
C47	C	-0.576596	0.704623	-0.576670
C48	C	-0.076596	1.204623	-0.076670
C49	C	-0.576588	0.813858	-0.576651
C50	C	-0.076588	1.313858	-0.076651
C51	C	-0.299551	1.295456	-0.541534
C52	C	0.200449	1.795456	-0.041534
C53	C	-0.181495	1.311098	-0.526569
C54	C	0.318505	1.811098	-0.026569
C55	C	-0.611671	1.222207	-0.853665
C56	C	-0.111671	1.722207	-0.353665
C57	C	-0.626623	1.206635	-0.971711
C58	C	-0.126623	1.706635	-0.471711
C59	C	-0.576603	1.510337	-0.576677
C60	C	-0.076603	2.010337	-0.076677
C61	C	-0.576611	1.617549	-0.576689
C62	C	-0.076611	2.117549	-0.076689
C63	C	-0.568743	1.266867	-1.016164
C64	C	-0.068743	1.766867	-0.516164
C65	C	-0.584195	1.250774	-1.138171
C66	C	-0.084195	1.750774	-0.638171
C67	C	-0.541558	1.295215	-0.300705
C68	C	-0.041558	1.795215	0.199295
C69	C	-0.526307	1.311014	-0.182621
C70	C	-0.026307	1.811014	0.317379
H71	H	-0.962750	1.330391	-0.507900
H72	H	-0.462750	1.830391	-0.007900
N73	N	-0.707424	1.122543	-1.040925
N74	N	-0.207424	1.622543	-0.540925
H75	H	-0.688500	1.058334	-1.019575
H76	H	-0.188500	1.558334	-0.519575
H77	H	-0.706980	1.123049	-1.118249
H78	H	-0.206980	1.623049	-0.618249
N79	N	-1.039855	1.122566	-0.707421
N80	N	-0.539855	1.622566	-0.207421
H81	H	-1.030177	1.129999	-0.780885
H82	H	-0.530177	1.629999	-0.280885
H83	H	-1.117177	1.123048	-0.706964
H84	H	-0.617177	1.623048	-0.206964
H85	H	-0.645185	1.187283	-1.190435
H86	H	-0.145185	1.687283	-0.690435
H87	H	-1.189354	1.187362	-0.645353
H88	H	-0.689354	1.687362	-0.145353
H89	H	-0.507746	1.330345	-0.963896
H90	H	-0.007746	1.830345	-0.463896
N91	N	-0.445499	1.395104	-1.113404
N92	N	0.054501	1.895104	-0.613404
H93	H	-0.445910	1.394682	-1.036057
H94	H	0.054090	1.894682	-0.536057
H95	H	-0.464465	1.459271	-1.134836
H96	H	0.035535	1.959271	-0.634836
H97	H	-1.129207	1.374584	-0.465601
H98	H	-0.629207	1.874584	0.034399
