data_functionalizedCrystal
_audit_creation_method	'MofGen! by Chris Wilmer'
_symmetry_space_group_name_H-M	'P1'
_symmetry_Int_Tables_number	1
_symmetry_cell_setting	triclinic
loop_
_symmetry_equiv_pos_as_xyz
  x,y,z
_cell_length_a	19.288864
_cell_length_b	14.971486
_cell_length_c	13.448316
_cell_angle_alpha	90.006811
_cell_angle_beta	90.020610
_cell_angle_gamma	83.375187
loop_
_atom_site_label
_atom_site_type_symbol
_atom_site_fract_x
_atom_site_fract_y
_atom_site_fract_z
O1	O	-0.921714	-0.111582	-0.083011
O2	O	-0.421714	0.388418	0.416989
O3	O	-0.719503	-0.126634	-0.082943
O4	O	-0.219503	0.373366	0.417057
O5	O	-0.826028	0.011122	-0.082972
O6	O	-0.326028	0.511122	0.417028
O7	O	-0.815189	-0.249337	-0.082983
O8	O	-0.315189	0.250663	0.417017
O9	O	-0.826015	0.011130	0.082412
O10	O	-0.326015	0.511130	0.582412
O11	O	-0.719489	-0.126625	0.082440
O12	O	-0.219489	0.373375	0.582440
O13	O	-0.921701	-0.111573	0.082372
O14	O	-0.421701	0.388427	0.582372
Cu15	Cu	-0.820594	-0.119098	0.097507
Cu16	Cu	-0.320594	0.380902	0.597507
Cu17	Cu	-0.820610	-0.119108	-0.098078
Cu18	Cu	-0.320610	0.380892	0.401922
O19	O	-0.815175	-0.249329	0.082401
O20	O	-0.315175	0.250671	0.582401
C21	C	-0.693618	-0.126145	-0.000243
C22	C	-0.193618	0.373855	0.499757
C23	C	-0.616510	-0.124691	-0.000217
C24	C	-0.116510	0.375309	0.499783
C25	C	-0.825537	0.044448	-0.000280
C26	C	-0.325537	0.544448	0.499720
C27	C	-0.824084	0.143737	-0.000281
C28	C	-0.324084	0.643737	0.499719
C29	C	-0.947586	-0.112062	-0.000330
C30	C	-0.447586	0.387938	0.499670
C31	C	-1.024694	-0.113516	-0.000363
C32	C	-0.524694	0.386484	0.499637
C33	C	-0.572077	-0.205520	-0.000236
C34	C	-0.072077	0.294480	0.499764
C35	C	-0.499625	-0.204154	-0.000246
C36	C	0.000375	0.295846	0.499754
C37	C	-0.471610	-0.121955	-0.000258
C38	C	0.028390	0.378045	0.499742
C39	C	-0.516052	-0.041116	-0.000234
C40	C	-0.016052	0.458884	0.499766
C41	C	-0.588502	-0.042484	-0.000213
C42	C	-0.088502	0.457516	0.499787
C43	C	-0.363142	-0.057340	-0.058231
C44	C	0.136858	0.442660	0.441769
C45	C	-0.290693	-0.055975	-0.058258
C46	C	0.209307	0.444025	0.441742
C47	C	-0.248150	-0.117732	-0.000318
C48	C	0.251850	0.382268	0.499682
C49	C	-0.278064	-0.180868	0.057635
C50	C	0.221936	0.319132	0.557635
C51	C	-0.350514	-0.182236	0.057656
C52	C	0.149486	0.317764	0.557656
C53	C	-0.393051	-0.120462	-0.000281
C54	C	0.106949	0.379538	0.499719
C55	C	-0.125157	-0.197085	-0.000348
C56	C	0.374843	0.302915	0.499652
C57	C	-0.052704	-0.195715	-0.000353
C58	C	0.447296	0.304285	0.499647
C59	C	-0.069133	-0.032675	-0.000350
C60	C	0.430867	0.467325	0.499650
C61	C	-0.141584	-0.034046	-0.000335
C62	C	0.358416	0.465954	0.499665
C63	C	-0.169591	-0.116254	-0.000339
C64	C	0.330409	0.383746	0.499661
C65	C	-0.815667	-0.282655	-0.000293
C66	C	-0.315667	0.217345	0.499707
C67	C	-0.817119	-0.381944	-0.000299
C68	C	-0.317119	0.118056	0.499701
N69	N	-0.820588	-0.119091	0.235072
N70	N	-0.320588	0.380909	0.735072
C71	C	-0.886665	0.201301	-0.000301
C72	C	-0.386665	0.701301	0.499699
C73	C	-0.885296	0.294593	-0.000311
C74	C	-0.385296	0.794593	0.499689
C75	C	-0.821345	0.330320	-0.000293
C76	C	-0.321345	0.830320	0.499707
C77	C	-0.758759	0.272749	-0.000275
C78	C	-0.258759	0.772749	0.499725
C79	C	-0.760129	0.179458	-0.000273
C80	C	-0.260129	0.679458	0.499727
C81	C	-0.755909	0.467196	-0.000278
C82	C	-0.255909	0.967196	0.499722
C83	C	-0.754538	0.560492	-0.000279
C84	C	-0.254538	1.060492	0.499721
C85	C	-0.881075	0.582330	-0.000316
C86	C	-0.381075	1.082330	0.499684
C87	C	-0.882445	0.489040	-0.000313
C88	C	-0.382445	0.989040	0.499687
C89	C	-0.819859	0.431475	-0.000294
C90	C	-0.319859	0.931475	0.499706
N91	N	-0.820621	-0.119109	-0.235643
N92	N	-0.320621	0.380891	0.264357
C93	C	-0.867772	-0.058118	0.287099
C94	C	-0.367772	0.441882	0.787099
C95	C	-0.867776	-0.058117	0.391203
C96	C	-0.367776	0.441883	0.891203
C97	C	-0.820599	-0.119094	0.443276
C98	C	-0.320599	0.380906	0.943276
C99	C	-0.773410	-0.180070	0.391241
C100	C	-0.273410	0.319930	0.891241
C101	C	-0.773403	-0.180066	0.287140
C102	C	-0.273403	0.319934	0.787140
C103	C	-0.773429	-0.180076	0.608221
C104	C	-0.273429	0.319924	1.108221
C105	C	-0.773437	-0.180082	0.712330
C106	C	-0.273437	0.319918	1.212330
C107	C	-0.867803	-0.058127	0.712284
C108	C	-0.367803	0.441873	1.212284
C109	C	-0.867796	-0.058123	0.608183
C110	C	-0.367796	0.441877	1.108183
C111	C	-0.820607	-0.119100	0.556155
C112	C	-0.320607	0.380900	1.056155
H113	H	-0.594875	-0.272460	-0.000240
H114	H	-0.094875	0.227540	0.499760
H115	H	-0.706689	0.301844	-0.000267
H116	H	-0.206689	0.801844	0.499733
H117	H	-0.463441	-0.269976	-0.000259
H118	H	0.036559	0.230024	0.499741
F119	F	-0.917994	0.006778	0.446574
F120	F	-0.417994	0.506778	0.946574
H121	H	-0.704944	0.420328	-0.000265
H122	H	-0.204944	0.920328	0.499735
H123	H	-0.934519	0.459955	-0.000321
H124	H	-0.434519	0.959955	0.499679
H125	H	-0.374867	-0.233641	0.104847
H126	H	0.125133	0.266359	0.604847
F127	F	-0.258862	0.011212	-0.119945
F128	F	0.241138	0.511212	0.380055
F129	F	-0.232793	-0.246599	0.119302
F130	F	0.267207	0.253401	0.619302
H131	H	-0.735020	-0.229735	0.754723
H132	H	-0.235020	0.270265	1.254723
H133	H	-0.936256	0.341458	-0.000325
H134	H	-0.436256	0.841458	0.499675
H135	H	-0.906225	-0.008477	0.754651
H136	H	-0.406225	0.491523	1.254651
F137	F	-0.723203	-0.244974	0.552854
F138	F	-0.223203	0.255026	1.052854
F139	F	-0.693522	0.118195	-0.000254
F140	F	-0.193522	0.618195	0.499746
H141	H	-0.932035	0.629204	-0.000334
H142	H	-0.432035	1.129204	0.499666
F143	F	-0.723196	-0.244964	0.446663
F144	F	-0.223196	0.255036	0.946663
H145	H	-0.702464	0.589577	-0.000248
H146	H	-0.202464	1.089577	0.499752
F147	F	-0.723181	-0.244960	0.231770
F148	F	-0.223181	0.255040	0.731770
F149	F	-0.635793	0.043549	-0.000193
F150	F	-0.135793	0.543549	0.499807
F151	F	-0.917989	0.006780	0.231688
F152	F	-0.417989	0.506780	0.731688
H153	H	-0.147961	-0.264023	-0.000336
H154	H	0.352039	0.235977	0.499664
F155	F	-0.918010	0.006770	0.552761
F156	F	-0.418010	0.506770	1.052761
F157	F	-0.039322	0.054808	-0.000353
F158	F	0.460678	0.554808	0.499647
H159	H	-0.016527	-0.261539	-0.000362
H160	H	0.483473	0.238461	0.499638
H161	H	-0.177762	0.031773	-0.000325
H162	H	0.322238	0.531773	0.499675
H163	H	-0.397775	-0.007049	-0.105418
H164	H	0.102225	0.492951	0.394582
F165	F	-0.954731	0.163287	-0.000310
F166	F	-0.454731	0.663287	0.499690
F167	F	-0.486235	0.046366	-0.000242
F168	F	0.013765	0.546366	0.499758
