data_functionalizedCrystal
_audit_creation_method	'MofGen! by Chris Wilmer'
_symmetry_space_group_name_H-M	'P1'
_symmetry_Int_Tables_number	1
_symmetry_cell_setting	triclinic
loop_
_symmetry_equiv_pos_as_xyz
  x,y,z
_cell_length_a	19.288840
_cell_length_b	15.625429
_cell_length_c	18.366186
_cell_angle_alpha	71.916618
_cell_angle_beta	89.983729
_cell_angle_gamma	83.704569
loop_
_atom_site_label
_atom_site_type_symbol
_atom_site_fract_x
_atom_site_fract_y
_atom_site_fract_z
O1	O	0.921744	0.112356	-0.090332
O2	O	0.719533	0.127551	-0.094318
O3	O	0.826038	-0.011307	-0.057670
O4	O	0.815239	0.251214	-0.126981
O5	O	0.826020	-0.011314	0.063432
O6	O	0.719515	0.127544	0.026783
O7	O	0.921726	0.112349	0.030769
Zn8	Zn	0.820618	0.119946	0.048003
Zn9	Zn	0.820642	0.119954	-0.111553
O10	O	0.815221	0.251207	-0.005880
C11	C	0.693645	0.127062	-0.033637
C12	C	0.616536	0.125606	-0.033242
C13	C	0.580340	0.124910	-0.099072
C14	C	0.507888	0.123531	-0.098717
C15	C	0.471637	0.122831	-0.032524
C16	C	0.507842	0.123532	0.033313
C17	C	0.580291	0.124920	0.032954
C18	C	0.362116	0.067825	0.032560
C19	C	0.289668	0.066432	0.032918
C20	C	0.248179	0.118555	-0.031414
C21	C	0.279148	0.172061	-0.096114
C22	C	0.351597	0.173448	-0.096473
C23	C	0.393078	0.121327	-0.032127
C24	C	0.133423	0.116366	-0.096863
C25	C	0.060969	0.114993	-0.096507
C26	C	0.060925	0.114985	0.035527
C27	C	0.133376	0.116367	0.035166
C28	C	0.169621	0.117053	-0.031030
C29	C	0.825539	-0.044896	0.011747
C30	C	0.824071	-0.144971	0.038165
C31	C	0.819273	-0.474086	-0.204983
C32	C	0.817891	-0.568121	-0.180137
C33	C	0.817871	-0.568115	-0.048121
C34	C	0.819257	-0.474078	-0.072956
C35	C	0.819957	-0.427071	-0.151388
C36	C	0.819941	-0.427064	-0.019361
C37	C	0.821323	-0.333035	-0.044195
C38	C	0.822021	-0.286021	-0.122623
C39	C	0.821339	-0.333043	-0.176222
C40	C	0.819236	-0.474072	0.059071
C41	C	0.819920	-0.427057	0.112666
C42	C	0.821307	-0.333028	0.087833
C43	C	0.822005	-0.286014	0.009404
C44	C	0.821989	-0.286006	0.141431
C45	C	0.823371	-0.191978	0.116597
C46	C	0.823387	-0.191985	-0.015430
C47	C	0.947614	0.112838	-0.029915
C48	C	1.024723	0.114294	-0.030314
C49	C	0.815720	0.284796	-0.075298
C50	C	0.817188	0.384871	-0.101721
N51	N	0.820606	0.119939	0.156896
N52	N	0.820658	0.119954	-0.220444
C53	C	0.867783	0.058483	0.211217
C54	C	0.867787	0.058479	0.287445
C55	C	0.820622	0.119946	0.309347
C56	C	0.773437	0.181407	0.255016
C57	C	0.773429	0.181403	0.178790
C58	C	0.811602	0.202090	0.408420
C59	C	0.811614	0.202095	0.484644
C60	C	0.820642	0.119958	0.544451
C61	C	0.829671	0.037811	0.528027
C62	C	0.829663	0.037808	0.451802
C63	C	0.820625	0.119957	0.391999
C64	C	0.867825	0.058492	0.681429
C65	C	0.867825	0.058487	0.757660
C66	C	0.773478	0.181423	0.725227
C67	C	0.773475	0.181420	0.649000
C68	C	0.820652	0.119956	0.627105
H69	H	0.162848	0.116927	0.088773
H70	H	0.376808	0.217016	-0.149152
H71	H	0.245368	0.214508	-0.148498
O72	O	0.722628	0.247747	0.748835
H73	H	0.689827	0.290492	0.698249
H74	H	0.819347	-0.465343	0.176525
O75	O	0.722541	0.247684	0.120194
H76	H	0.751813	0.291397	0.073902
H77	H	0.906239	0.008437	0.801892
H78	H	0.906195	0.008433	0.193394
O79	O	0.619433	0.125662	-0.170468
H80	H	0.582086	0.124955	-0.216187
H81	H	0.837022	-0.029073	0.576723
O82	O	0.824116	-0.141260	0.174398
H83	H	0.823406	-0.189744	0.233109
O84	O	0.817131	-0.618818	0.036472
H85	H	0.816064	-0.692102	0.044739
H86	H	0.162934	0.116934	-0.150767
H87	H	0.735062	0.231467	0.604767
O88	O	0.468858	0.122886	0.104753
H89	H	0.476722	0.184632	0.119993
O90	O	0.918677	-0.007807	0.346043
H91	H	0.910753	0.002521	0.402726
O92	O	0.918697	-0.007808	0.657807
H93	H	0.951495	-0.050556	0.708394
H94	H	0.031410	0.114420	0.089421
H95	H	0.837013	-0.029078	0.438433
O96	O	0.817752	-0.575491	0.085857
H97	H	0.770095	-0.592056	0.061732
H98	H	0.478412	0.122966	-0.152325
O99	O	0.021927	0.114211	-0.167503
H100	H	0.059307	0.114901	-0.213585
O101	O	0.820033	-0.423379	-0.289579
H102	H	0.773360	-0.372302	-0.306216
H103	H	0.821412	-0.324292	0.205290
O104	O	0.801890	0.290690	0.502359
H105	H	0.795602	0.347804	0.447967
O106	O	0.801870	0.290687	0.343913
H107	H	0.795606	0.347806	0.368138
H108	H	0.264460	0.022860	0.085598
H109	H	0.821916	-0.294768	-0.240089
H110	H	0.817327	-0.606396	-0.223787
O111	O	0.824147	-0.141278	-0.100026
H112	H	0.777475	-0.090201	-0.116663
H113	H	0.395891	0.025377	0.084952
H114	H	0.609761	0.125487	0.086561
O115	O	0.722567	0.247712	0.278629
H116	H	0.730504	0.237398	0.340758
O117	O	0.823646	-0.184627	-0.149326
H118	H	0.871364	-0.168187	-0.182149
