data_functionalizedCrystal
_audit_creation_method	'MofGen! by Chris Wilmer'
_symmetry_space_group_name_H-M	'P1'
_symmetry_Int_Tables_number	1
_symmetry_cell_setting	triclinic
loop_
_symmetry_equiv_pos_as_xyz
  x,y,z
_cell_length_a	22.010155
_cell_length_b	15.944551
_cell_length_c	15.944551
_cell_angle_alpha	83.498738
_cell_angle_beta	90.003301
_cell_angle_gamma	89.996027
loop_
_atom_site_label
_atom_site_type_symbol
_atom_site_fract_x
_atom_site_fract_y
_atom_site_fract_z
O1	O	0.050463	-1.114530	-0.108320
O2	O	0.050478	-0.869981	-0.121677
O3	O	0.050465	-0.998934	0.007276
O4	O	0.050477	-0.985577	-0.237273
O5	O	-0.050585	-0.998910	0.007257
O6	O	-0.050572	-0.869957	-0.121696
O7	O	-0.050587	-1.114507	-0.108340
Cu8	Cu	-0.059806	-0.992230	-0.115020
Cu9	Cu	0.059697	-0.992258	-0.114997
O10	O	-0.050574	-0.985554	-0.237293
C11	C	-0.000045	-0.838675	-0.121132
C12	C	-0.000039	-0.745429	-0.119470
C13	C	-0.000060	-0.998367	0.038561
C14	C	-0.000061	-0.996705	0.131807
N15	N	-0.143859	-0.992217	-0.115035
C16	C	-0.563644	-1.049361	-0.057905
C17	C	-0.627252	-1.049365	-0.057899
O18	O	-0.660148	-1.097918	-0.009335
N19	N	-0.659066	-0.992257	-0.114979
C20	C	-0.627269	-0.935136	-0.172063
O21	O	-0.660170	-0.886561	-0.220614
C22	C	-0.563663	-0.935128	-0.172064
C23	C	-0.531852	-0.992246	-0.114986
C24	C	-0.531833	-1.106474	-0.000830
C25	C	-0.468230	-1.106471	-0.000837
C26	C	-0.436438	-1.049355	-0.057919
C27	C	-0.468249	-0.992243	-0.114993
C28	C	-0.531867	-0.878004	-0.229144
C29	C	-0.468256	-0.878001	-0.229140
C30	C	-0.436445	-0.935118	-0.172061
C31	C	-0.372853	-0.935125	-0.172082
N32	N	-0.341039	-0.992233	-0.115001
C33	C	-0.372831	-1.049348	-0.057920
C34	C	-0.760847	-0.935154	-0.172056
C35	C	-0.824452	-0.935165	-0.172059
C36	C	-0.824430	-1.049394	-0.057893
C37	C	-0.760824	-1.049386	-0.057895
C38	C	-0.729033	-0.992262	-0.114975
C39	C	-0.239260	-1.049338	-0.057939
C40	C	-0.175651	-1.049332	-0.057954
C41	C	-0.175678	-0.935101	-0.172116
C42	C	-0.239282	-0.935109	-0.172105
C43	C	-0.271071	-0.992231	-0.115010
O44	O	-0.339916	-0.886594	-0.220618
O45	O	-0.339922	-1.097907	-0.009370
N46	N	0.143750	-0.992278	-0.114975
C47	C	-0.000063	-1.145813	-0.108885
C48	C	-0.000064	-1.239059	-0.110547
C49	C	-0.000055	-0.530572	-0.035565
C50	C	0.049770	-0.469564	-0.074518
C51	C	-0.000047	-0.574703	-0.116462
C52	C	-0.049858	-0.469563	-0.074556
C53	C	-0.000056	-0.409790	-0.113551
C54	C	0.049820	-0.514923	-0.155437
C55	C	-0.049853	-0.514928	-0.155464
C56	C	-0.000016	-0.453937	-0.194476
C57	C	-0.000040	-0.669705	-0.118137
C58	C	-0.000058	-0.314789	-0.111883
C59	C	-0.000047	-0.986120	-0.268577
C60	C	-0.000043	-0.987782	-0.361823
C61	C	-0.000047	-0.912801	0.346663
C62	C	-0.049873	-0.951752	0.407671
C63	C	-0.000056	-0.993698	0.302533
C64	C	0.049754	-0.951794	0.407674
C65	C	-0.000048	-0.990787	0.467445
C66	C	-0.049923	-1.032671	0.362312
C67	C	0.049749	-1.032702	0.362308
C68	C	-0.000089	-1.071711	0.423298
C69	C	-0.000061	-0.995372	0.207530
C70	C	-0.000048	-0.989119	0.562446
H71	H	-0.149753	-1.095847	-0.011474
O72	O	-0.100055	-0.539083	-0.196270
C73	C	-0.156016	-0.654550	-0.244103
C74	C	-0.099123	-0.627305	-0.197900
H75	H	-0.155288	-0.725881	-0.245422
H76	H	-0.156452	-0.621855	-0.311497
H77	H	-0.198454	-0.636083	-0.209540
H78	H	-0.056654	-0.645767	-0.232393
H79	H	-0.098740	-0.659994	-0.130504
O80	O	-0.000081	-1.151836	0.462986
C81	C	0.000374	-1.240282	0.595952
C82	C	0.000372	-1.149498	0.551119
H83	H	0.000727	-1.238422	0.667214
H84	H	0.042461	-1.275028	0.576536
H85	H	-0.042115	-1.274610	0.577285
H86	H	0.042832	-1.115099	0.569763
H87	H	-0.041744	-1.114817	0.570536
H88	H	0.091871	-1.066898	0.342186
H89	H	-0.442375	-0.831481	-0.275621
H90	H	0.091882	-0.917577	0.427759
O91	O	-0.100092	-0.445700	-0.033620
C92	C	-0.156828	-0.457912	0.096437
C93	C	-0.099926	-0.485017	0.050165
H94	H	-0.156706	-0.489673	0.164191
H95	H	-0.199309	-0.477491	0.062666
H96	H	-0.156574	-0.386446	0.096721
H97	H	-0.100121	-0.556479	0.049868
H98	H	-0.057470	-0.465376	0.083951
H99	H	0.091989	-0.534920	-0.189620
H100	H	-0.091993	-0.917526	0.427771
O101	O	-0.000205	-0.832682	0.306959
C102	C	-0.052892	-0.699525	0.284939
C103	C	-0.052793	-0.790240	0.329942
H104	H	-0.095399	-0.665179	0.303518
H105	H	-0.052497	-0.701486	0.213689
H106	H	-0.010825	-0.664733	0.304340
H107	H	-0.094854	-0.825084	0.310611
H108	H	-0.053157	-0.788218	0.401183
O109	O	-0.270040	-1.104905	-0.002445
C110	C	-0.263288	-1.218169	0.110823
C111	C	-0.228355	-1.155297	0.048013
H112	H	-0.229601	-1.258915	0.151647
H113	H	-0.293051	-1.260193	0.074584
H114	H	-0.293081	-1.181896	0.152779
H115	H	-0.198529	-1.191501	0.006041
H116	H	-0.198631	-1.113273	0.084305
H117	H	-0.442333	-1.152978	0.045643
H118	H	-0.557759	-0.831493	-0.275622
H119	H	-0.557713	-1.152984	0.045656
H120	H	-0.734927	-1.095896	-0.011416
O121	O	-0.855253	-1.104838	-0.002323
C122	C	-0.874739	-1.154011	0.143704
C123	C	-0.839783	-1.091191	0.080868
H124	H	-0.862254	-1.142987	0.210977
H125	H	-0.862220	-1.221304	0.132790
H126	H	-0.925660	-1.144210	0.133855
H127	H	-0.788854	-1.100915	0.090680
H128	H	-0.852352	-1.023920	0.091798
H129	H	-0.092094	-1.066849	0.342314
H130	H	-0.265183	-0.888607	-0.218592
O131	O	-0.855255	-0.879606	-0.227543
C132	C	-0.848546	-0.766340	-0.340812
C133	C	-0.813589	-0.829208	-0.278012
H134	H	-0.814874	-0.725589	-0.381644
H135	H	-0.878307	-0.724320	-0.304563
H136	H	-0.878343	-0.802616	-0.382760
H137	H	-0.783760	-0.793000	-0.236047
H138	H	-0.783866	-0.871227	-0.314312
H139	H	-0.734966	-0.888639	-0.218545
H140	H	0.000003	-0.563905	0.031573
O141	O	-0.144815	-0.879704	-0.227677
C142	C	-0.125379	-0.830437	-0.373694
C143	C	-0.160361	-0.893239	-0.310872
H144	H	-0.137944	-0.841347	-0.440971
H145	H	-0.074448	-0.840249	-0.363957
H146	H	-0.137880	-0.763173	-0.362655
H147	H	-0.147911	-0.960528	-0.321873
H148	H	-0.211283	-0.883353	-0.320623
H149	H	0.000015	-0.420779	-0.261683
O150	O	0.099973	-0.445633	-0.033557
C151	C	0.156754	-0.457908	0.096474
C152	C	0.099870	-0.485058	0.050188
H153	H	0.156696	-0.489785	0.164185
H154	H	0.156499	-0.386454	0.096870
H155	H	0.199206	-0.477430	0.062607
H156	H	0.057388	-0.465594	0.084019
H157	H	0.100180	-0.556510	0.049784
