data_functionalizedCrystal
_audit_creation_method	'MofGen! by Chris Wilmer'
_symmetry_space_group_name_H-M	'P1'
_symmetry_Int_Tables_number	1
_symmetry_cell_setting	triclinic
loop_
_symmetry_equiv_pos_as_xyz
  x,y,z
_cell_length_a	12.759401
_cell_length_b	18.101397
_cell_length_c	12.759393
_cell_angle_alpha	89.962348
_cell_angle_beta	89.981504
_cell_angle_gamma	90.020627
loop_
_atom_site_label
_atom_site_type_symbol
_atom_site_fract_x
_atom_site_fract_y
_atom_site_fract_z
Zn1	Zn	1.606213	-0.294783	-0.593937
Zn2	Zn	1.606090	-0.418644	-0.418238
Zn3	Zn	1.430515	-0.294822	-0.418276
Zn4	Zn	1.430486	-0.418587	-0.593880
O5	O	1.518326	-0.356709	-0.506083
O6	O	1.753218	-0.311221	-0.570638
O7	O	1.582760	-0.402259	-0.271222
O8	O	1.453886	-0.191183	-0.441618
O9	O	1.753127	-0.402221	-0.441553
O10	O	1.582970	-0.191155	-0.570675
O11	O	1.453766	-0.311287	-0.271250
O12	O	1.283490	-0.311232	-0.441562
O13	O	1.453836	-0.402124	-0.740909
O14	O	1.283469	-0.402162	-0.570578
O15	O	1.582942	-0.311166	-0.740950
O16	O	1.582732	-0.522270	-0.441498
O17	O	1.453717	-0.522228	-0.570541
C18	C	1.245359	-0.356695	-0.506069
C19	C	1.128582	-0.356707	-0.506087
C20	C	1.518236	-0.549120	-0.506032
C21	C	1.518294	-0.631434	-0.506045
C22	C	1.073737	-0.404130	-0.573154
C23	C	0.964012	-0.404140	-0.573166
C24	C	0.963989	-0.309301	-0.439034
C25	C	1.073711	-0.309288	-0.439029
C26	C	1.073749	-0.458887	-0.650591
C27	C	0.964025	-0.458897	-0.650603
C28	C	1.518428	-0.930525	-0.506141
C29	C	1.599375	-0.899195	-0.424733
C30	C	1.599655	-0.813576	-0.424944
C31	C	1.518362	-0.782142	-0.506093
C32	C	1.548380	-0.813140	-0.616833
C33	C	1.549006	-0.898785	-0.616390
C34	C	1.407247	-0.899036	-0.477767
C35	C	1.407796	-0.813387	-0.475295
C36	C	1.518322	-0.698283	-0.506072
C37	C	1.518470	-1.014384	-0.506169
C38	C	1.792359	-0.356723	-0.506098
C39	C	1.909136	-0.356729	-0.506104
C40	C	1.518400	-0.356634	-0.780116
C41	C	1.518431	-0.356602	-0.896893
C42	C	1.518445	-0.163547	-0.506157
C43	C	1.518496	-0.081233	-0.506189
C44	C	1.585666	-0.309236	-0.951779
C45	C	1.585691	-0.309209	-1.061503
C46	C	1.451243	-0.403922	-1.061446
C47	C	1.451214	-0.403944	-0.951724
C48	C	1.663291	-0.254556	-0.951812
C49	C	1.663316	-0.254529	-1.061536
C50	C	1.518313	-0.356730	-0.233115
C51	C	1.518486	-0.356553	-0.116339
H52	H	1.118363	-0.270667	-0.384423
N53	N	0.907922	-0.260867	-0.370550
N54	N	0.809957	-0.260880	-0.370569
H55	H	0.770359	-0.226673	-0.322201
N56	N	1.382534	-0.452318	-0.895643
N57	N	1.382510	-0.452329	-0.797678
H58	H	1.333999	-0.486492	-0.758068
H59	H	0.934221	-0.516239	-0.628662
H60	H	1.103559	-0.443592	-0.732000
N61	N	1.576064	-0.787299	-0.321936
N62	N	1.490911	-0.803937	-0.279581
H63	H	1.474245	-0.785388	-0.206824
H64	H	1.396515	-0.442465	-1.106103
H65	H	1.107755	-0.513341	-0.621299
H66	H	1.744685	-0.269890	-1.091312
H67	H	0.930030	-0.438424	-0.727958
N68	N	1.576100	-0.925111	-0.321419
N69	N	1.499586	-0.966977	-0.306576
H70	H	1.483146	-0.985286	-0.233608
N71	N	1.702121	-0.926128	-0.448018
N72	N	1.715990	-0.968296	-0.524308
H73	H	1.788555	-0.987320	-0.540757
N74	N	1.702974	-0.787808	-0.448493
N75	N	1.775098	-0.833077	-0.464831
H76	H	1.848072	-0.814879	-0.481465
H77	H	1.630275	-0.918701	-0.640426
H78	H	1.492631	-0.919506	-0.679135
H79	H	1.491225	-0.792775	-0.679120
H80	H	1.740560	-0.275116	-0.917773
N81	N	1.649187	-0.786150	-0.647491
N82	N	1.699095	-0.744096	-0.587973
H83	H	1.770292	-0.725033	-0.609620
N84	N	1.373008	-0.926209	-0.378210
N85	N	1.425674	-0.913077	-0.297759
H86	H	1.401504	-0.932268	-0.227442
N87	N	1.379407	-0.787967	-0.373065
N88	N	1.371725	-0.720263	-0.355457
H89	H	1.351680	-0.702305	-0.283256
N90	N	1.328072	-0.786548	-0.544234
N91	N	1.351550	-0.743769	-0.617519
H92	H	1.295247	-0.724815	-0.666218
H93	H	1.634210	-0.200035	-1.095592
N94	N	1.331596	-0.924456	-0.552153
N95	N	1.359298	-0.965583	-0.625774
H96	H	1.305878	-0.983539	-0.678314
N97	N	1.635972	-0.182611	-0.914502
N98	N	1.616741	-0.131905	-0.978194
H99	H	1.597439	-0.081096	-0.951845
