data_functionalizedCrystal
_audit_creation_method	'MofGen! by Chris Wilmer'
_symmetry_space_group_name_H-M	'P1'
_symmetry_Int_Tables_number	1
_symmetry_cell_setting	triclinic
loop_
_symmetry_equiv_pos_as_xyz
  x,y,z
_cell_length_a	15.297327
_cell_length_b	12.759401
_cell_length_c	12.759401
_cell_angle_alpha	89.996200
_cell_angle_beta	80.340282
_cell_angle_gamma	80.297308
loop_
_atom_site_label
_atom_site_type_symbol
_atom_site_fract_x
_atom_site_fract_y
_atom_site_fract_z
Zn1	Zn	-0.359409	-1.533547	0.666401
Zn2	Zn	0.140591	-1.033547	1.166401
Zn3	Zn	-0.510249	-1.503048	0.521096
Zn4	Zn	-0.010249	-1.003048	1.021096
Zn5	Zn	-0.359390	-1.357903	0.490732
Zn6	Zn	0.140610	-0.857903	0.990732
Zn7	Zn	-0.510224	-1.327399	0.696728
Zn8	Zn	-0.010224	-0.827399	1.196728
O9	O	-0.434818	-1.430474	0.593739
O10	O	0.065182	-0.930474	1.093739
O11	O	-0.379437	-1.676519	0.647142
O12	O	0.120563	-1.176519	1.147142
O13	O	-0.490239	-1.483796	0.370048
O14	O	0.009761	-0.983796	0.870048
O15	O	-0.233141	-1.406733	0.488635
O16	O	0.266859	-0.906733	0.988635
O17	O	-0.490258	-1.654111	0.540387
O18	O	0.009742	-1.154111	1.040387
O19	O	-0.233155	-1.535778	0.617699
O20	O	0.266845	-1.035778	1.117699
O21	O	-0.379404	-1.377159	0.347739
O22	O	0.120596	-0.877159	0.847739
O23	O	-0.379380	-1.206839	0.518042
O24	O	0.120620	-0.706839	1.018042
O25	O	-0.490216	-1.354743	0.839725
O26	O	0.009784	-0.854743	1.339725
O27	O	-0.490197	-1.184428	0.669386
O28	O	0.009803	-0.684428	1.169386
O29	O	-0.379413	-1.506199	0.817445
O30	O	0.120587	-1.006199	1.317445
O31	O	-0.636497	-1.454218	0.569794
O32	O	-0.136497	-0.954218	1.069794
O33	O	-0.636479	-1.325169	0.698829
O34	O	-0.136479	-0.825169	1.198829
C35	C	-0.434784	-1.157514	0.593710
C36	C	0.065216	-0.657514	1.093710
C37	C	-0.434792	-1.040736	0.593727
C38	C	0.065208	-0.540736	1.093727
C39	C	-0.377193	-0.997513	0.649439
C40	C	0.122807	-0.497513	1.149439
C41	C	-0.377206	-0.887786	0.649445
C42	C	0.122794	-0.387786	1.149445
C43	C	-0.492422	-0.864514	0.538027
C44	C	0.007578	-0.364514	1.038027
C45	C	-0.492404	-0.974239	0.538015
C46	C	0.007596	-0.474239	1.038015
C47	C	-0.310677	-1.010948	0.713769
C48	C	0.189323	-0.510948	1.213769
C49	C	-0.310689	-0.901221	0.713775
C50	C	0.189311	-0.401221	1.213775
C51	C	-0.669223	-1.383102	0.640920
C52	C	-0.169223	-0.883102	1.140920
C53	C	-0.769503	-1.362932	0.661139
C54	C	-0.269503	-0.862932	1.161139
C55	C	-1.052087	-1.575064	0.449588
C56	C	-0.552087	-1.075064	0.949588
C57	C	-0.957870	-1.594014	0.430585
C58	C	-0.457870	-1.094014	0.930585
C59	C	-0.910773	-1.536246	0.488222
C60	C	-0.410773	-1.036246	0.988222
C61	C	-0.957904	-1.459523	0.564865
C62	C	-0.457904	-0.959523	1.064865
C63	C	-1.052131	-1.440566	0.583863
C64	C	-0.552131	-0.940566	1.083863
C65	C	-0.910817	-1.401747	0.622498
C66	C	-0.410817	-0.901747	1.122498
C67	C	-0.957947	-1.325025	0.699140
C68	C	-0.457947	-0.825025	1.199140
C69	C	-1.052165	-1.306071	0.718135
C70	C	-0.552165	-0.806071	1.218135
C71	C	-1.099261	-1.363839	0.660498
C72	C	-0.599261	-0.863839	1.160498
C73	C	-0.816590	-1.420705	0.603499
C74	C	-0.316590	-0.920705	1.103499
C75	C	-0.816633	-1.286206	0.737775
C76	C	-0.316633	-0.786206	1.237775
C77	C	-0.910851	-1.267256	0.756777
C78	C	-0.410851	-0.767256	1.256777
C79	C	-0.199497	-1.478060	0.546397
C80	C	0.300503	-0.978060	1.046397
C81	C	-0.099218	-1.498338	0.526223
C82	C	0.400782	-0.998338	1.026223
C83	C	-0.434814	-1.430471	0.867772
C84	C	0.065186	-0.930471	1.367772
C85	C	-0.434812	-1.430469	0.984548
C86	C	0.065188	-0.930469	1.484548
C87	C	-0.434841	-0.704503	0.593760
C88	C	0.065159	-0.204503	1.093760
C89	C	-0.434821	-0.821284	0.593745
C90	C	0.065179	-0.321284	1.093745
C91	C	-0.377129	-1.509324	1.027812
C92	C	0.122871	-1.009324	1.527812
C93	C	-0.377131	-1.509317	1.137537
C94	C	0.122869	-1.009317	1.637537
C95	C	-0.492507	-1.351597	1.160724
C96	C	0.007493	-0.851597	1.660724
C97	C	-0.492499	-1.351600	1.051001
C98	C	0.007501	-0.851600	1.551001
C99	C	-0.310520	-1.600385	1.014427
C100	C	0.189480	-1.100385	1.514427
C101	C	-0.310522	-1.600378	1.124151
C102	C	0.189478	-1.100378	1.624151
C103	C	-0.434837	-1.430464	1.320776
C104	C	0.065163	-0.930464	1.820776
C105	C	-0.434821	-1.430459	1.203996
C106	C	0.065179	-0.930459	1.703996
H107	H	-0.778225	-1.483173	0.541096
H108	H	-0.278225	-0.983173	1.041096
H109	H	-0.244143	-1.584652	1.144832
H110	H	0.255857	-1.084652	1.644832
Cl111	Cl	-1.111298	-1.647675	0.377137
Cl112	Cl	-0.611298	-1.147675	0.877137
Cl113	Cl	-0.202633	-1.588563	0.946751
Cl114	Cl	0.297367	-1.088563	1.446751
H115	H	-0.244275	-0.880592	0.671401
H116	H	0.255725	-0.380592	1.171401
H117	H	-1.090536	-1.243586	0.780530
H118	H	-0.590536	-0.743586	1.280530
Cl119	Cl	-0.202746	-1.078707	0.658608
Cl120	Cl	0.297254	-0.578707	1.158608
H121	H	-0.919499	-1.656480	0.368183
H122	H	-0.419499	-1.156480	0.868183
Cl123	Cl	-1.217710	-1.339594	0.683957
Cl124	Cl	-0.717710	-0.839594	1.183957
H125	H	-0.539298	-1.009428	0.492638
H126	H	-0.039298	-0.509428	0.992638
H127	H	-0.778288	-1.239164	0.784706
H128	H	-0.278288	-0.739164	1.284706
H129	H	-0.335806	-1.039919	0.796068
H130	H	0.164194	-0.539919	1.296068
Cl131	Cl	-0.565025	-1.252453	1.244271
Cl132	Cl	-0.065025	-0.752453	1.744271
H133	H	-0.539328	-0.810359	0.492668
H134	H	-0.039328	-0.310359	0.992668
H135	H	-0.329515	-0.867653	0.798901
H136	H	0.170485	-0.367653	1.298901
Cl137	Cl	-0.970112	-1.170808	0.853123
Cl138	Cl	-0.470112	-0.670808	1.353123
Cl139	Cl	-0.792327	-1.560358	0.464620
Cl140	Cl	-0.292327	-1.060358	0.964620
H141	H	-0.335562	-1.672612	0.985436
H142	H	0.164438	-1.172612	1.485436
Cl143	Cl	-0.565004	-1.252451	0.996612
Cl144	Cl	-0.065004	-0.752451	1.496612
H145	H	-0.329250	-1.677960	1.157703
H146	H	0.170750	-1.177960	1.657703
