data_functionalizedCrystal
_audit_creation_method	'MofGen! by Chris Wilmer'
_symmetry_space_group_name_H-M	'P1'
_symmetry_Int_Tables_number	1
_symmetry_cell_setting	triclinic
loop_
_symmetry_equiv_pos_as_xyz
  x,y,z
_cell_length_a	14.519731
_cell_length_b	9.065218
_cell_length_c	12.996460
_cell_angle_alpha	90.006701
_cell_angle_beta	90.005861
_cell_angle_gamma	95.647631
loop_
_atom_site_label
_atom_site_type_symbol
_atom_site_fract_x
_atom_site_fract_y
_atom_site_fract_z
O1	O	0.135227	-1.957859	0.085572
O2	O	0.468560	-1.624526	0.418906
O3	O	0.801894	-1.291193	0.752239
O4	O	0.146319	-1.528368	0.085574
O5	O	0.479652	-1.195035	0.418907
O6	O	0.812985	-0.861701	0.752241
O7	O	0.006619	-1.754485	0.085564
O8	O	0.339952	-1.421151	0.418897
O9	O	0.673286	-1.087818	0.752230
O10	O	0.274927	-1.731743	0.085582
O11	O	0.608260	-1.398409	0.418916
O12	O	0.941593	-1.065076	0.752249
O13	O	0.006611	-1.754514	-0.085570
O14	O	0.339945	-1.421181	0.247763
O15	O	0.673278	-1.087847	0.581097
O16	O	0.146311	-1.528397	-0.085560
O17	O	0.479644	-1.195064	0.247773
O18	O	0.812978	-0.861731	0.581107
O19	O	0.135219	-1.957889	-0.085562
O20	O	0.468553	-1.624555	0.247772
O21	O	0.801886	-1.291222	0.581105
Cu22	Cu	0.140764	-1.743146	-0.101187
Cu23	Cu	0.474098	-1.409812	0.232147
Cu24	Cu	0.807431	-1.076479	0.565480
Cu25	Cu	0.140774	-1.743111	0.101199
Cu26	Cu	0.474107	-1.409778	0.434532
Cu27	Cu	0.807440	-1.076444	0.767866
O28	O	0.274919	-1.731772	-0.085551
O29	O	0.608252	-1.398439	0.247782
O30	O	0.941586	-1.065105	0.581115
C31	C	0.145249	-1.473416	0.000007
C32	C	0.478582	-1.140083	0.333340
C33	C	0.811916	-0.806749	0.666674
C34	C	0.142062	-1.309632	0.000007
C35	C	0.475395	-0.976299	0.333341
C36	C	0.808728	-0.642966	0.666674
N37	N	0.140757	-1.743181	-0.243534
N38	N	0.474091	-1.409847	0.089800
N39	N	0.807424	-1.076514	0.423133
C40	C	-0.027752	-1.753434	-0.000003
C41	C	0.305581	-1.420100	0.333330
C42	C	0.638915	-1.086767	0.666663
C43	C	-0.130156	-1.750241	-0.000004
C44	C	0.203178	-1.416907	0.333329
C45	C	0.536511	-1.083574	0.666663
C46	C	-0.213319	-1.747646	-0.000002
C47	C	0.120014	-1.414313	0.333332
C48	C	0.453348	-1.080979	0.666665
C49	C	-0.317651	-1.744404	0.000006
C50	C	0.015682	-1.411071	0.333340
C51	C	0.349015	-1.077737	0.666673
C52	C	-0.400809	-1.741831	0.000013
C53	C	-0.067476	-1.408498	0.333346
C54	C	0.265857	-1.075164	0.666680
C55	C	-0.505148	-1.738589	0.000019
C56	C	-0.171815	-1.405256	0.333352
C57	C	0.161518	-1.071923	0.666685
C58	C	0.309290	-1.732823	0.000018
C59	C	0.642623	-1.399490	0.333351
C60	C	0.975957	-1.066156	0.666685
C61	C	0.411694	-1.736016	0.000025
C62	C	0.745027	-1.402683	0.333359
C63	C	1.078360	-1.069349	0.666692
C64	C	0.136289	-2.012841	0.000007
C65	C	0.469622	-1.679507	0.333341
C66	C	0.802956	-1.346174	0.666674
C67	C	0.139476	-2.176624	0.000014
C68	C	0.472810	-1.843291	0.333347
C69	C	0.806143	-1.509958	0.666681
N70	N	0.140773	-1.743088	0.243546
N71	N	0.474107	-1.409754	0.576879
N72	N	0.807440	-1.076421	0.910213
C73	C	0.140775	-1.743092	0.336652
C74	C	0.474108	-1.409759	0.669985
C75	C	0.807441	-1.076426	1.003319
C76	C	0.140773	-1.743113	0.453457
C77	C	0.474106	-1.409779	0.786790
C78	C	0.807439	-1.076446	1.120124
C79	C	0.140767	-1.743137	0.546555
C80	C	0.474100	-1.409804	0.879889
C81	C	0.807433	-1.076471	1.213222
C82	C	0.140763	-1.743156	0.663368
C83	C	0.474097	-1.409823	0.996701
C84	C	0.807430	-1.076489	1.330035
