data_functionalizedCrystal
_audit_creation_method	'MofGen! by Chris Wilmer'
_symmetry_space_group_name_H-M	'P1'
_symmetry_Int_Tables_number	1
_symmetry_cell_setting	triclinic
loop_
_symmetry_equiv_pos_as_xyz
  x,y,z
_cell_length_a	15.944551
_cell_length_b	10.654550
_cell_length_c	9.130313
_cell_angle_alpha	90.004369
_cell_angle_beta	89.999033
_cell_angle_gamma	83.991834
loop_
_atom_site_label
_atom_site_type_symbol
_atom_site_fract_x
_atom_site_fract_y
_atom_site_fract_z
O1	O	-1.115460	-0.161966	-0.121646
O2	O	-0.871026	-0.181935	-0.121682
O3	O	-0.998863	0.010862	-0.121654
O4	O	-0.987623	-0.354762	-0.121674
O5	O	-0.998855	0.010867	0.121945
O6	O	-0.871018	-0.181929	0.121916
O7	O	-1.115452	-0.161961	0.121953
Cu8	Cu	-0.993234	-0.171944	0.144177
Cu9	Cu	-0.993244	-0.171951	-0.143907
O10	O	-0.987615	-0.354757	0.121925
C11	C	-0.839723	-0.181103	0.000112
C12	C	-0.746463	-0.178618	0.000099
C13	C	-0.998034	0.057652	0.000144
C14	C	-0.995565	0.197063	0.000142
C15	C	-1.146755	-0.162792	0.000155
C16	C	-1.240015	-0.165278	0.000159
C17	C	-0.530880	-0.053173	0.000134
C18	C	-0.470201	-0.111428	-0.119976
C19	C	-0.575711	-0.174122	0.000116
C20	C	-0.470215	-0.111451	0.120193
C21	C	-0.410773	-0.169770	0.000140
C22	C	-0.516261	-0.232410	-0.120093
C23	C	-0.516281	-0.232416	0.120184
C24	C	-0.455620	-0.290759	0.000044
C25	C	-0.670728	-0.176625	0.000102
C26	C	-0.315757	-0.167276	0.000144
C27	C	-0.988444	-0.401547	0.000123
C28	C	-0.990913	-0.540958	0.000116
N29	N	-0.993233	-0.171939	0.346800
C30	C	-1.070833	0.277522	0.000152
C31	C	-1.068508	0.408513	0.000134
C32	C	-0.915639	0.378572	0.000101
C33	C	-0.917965	0.247584	0.000108
N34	N	-0.993252	-0.171946	-0.346529
C35	C	-1.049858	-0.086604	0.423464
C36	C	-1.049866	-0.086605	0.576801
C37	C	-0.936620	-0.257285	0.576796
C38	C	-0.936609	-0.257278	0.423461
H39	H	-0.563632	0.047204	-0.000009
C40	C	-1.156194	0.221954	0.000173
N41	N	-1.220491	0.180105	0.000181
H42	H	-0.852460	0.419723	0.000077
H43	H	-0.890520	-0.326768	0.639229
H44	H	-0.423043	-0.391240	-0.000028
C45	C	-0.835160	0.159072	0.000090
N46	N	-0.772793	0.092406	0.000070
H47	H	-1.129799	0.474019	0.000140
H48	H	-0.449829	-0.060270	0.221733
H49	H	-1.095963	-0.017115	0.361050
H50	H	-0.890494	-0.326768	0.361037
H51	H	-0.536548	-0.283530	-0.221748
C52	C	-0.442631	-0.042320	-0.257145
N53	N	-0.421867	0.009741	-0.360454
C54	C	-0.543881	-0.301460	0.257367
N55	N	-0.564673	-0.353454	0.360705
H56	H	-1.095975	-0.017116	0.639217
