data_functionalizedCrystal
_audit_creation_method	'MofGen! by Chris Wilmer'
_symmetry_space_group_name_H-M	'P1'
_symmetry_Int_Tables_number	1
_symmetry_cell_setting	triclinic
loop_
_symmetry_equiv_pos_as_xyz
  x,y,z
_cell_length_a	15.297475
_cell_length_b	18.101395
_cell_length_c	15.296720
_cell_angle_alpha	80.356295
_cell_angle_beta	88.382886
_cell_angle_gamma	80.333681
loop_
_atom_site_label
_atom_site_type_symbol
_atom_site_fract_x
_atom_site_fract_y
_atom_site_fract_z
Zn1	Zn	1.253296	-0.576346	0.726580
Zn2	Zn	1.278539	-0.682980	0.580092
Zn3	Zn	1.132181	-0.534744	0.554822
Zn4	Zn	1.106767	-0.675701	0.701220
O5	O	1.192696	-0.617443	0.640678
O6	O	1.379219	-0.610949	0.728336
O7	O	1.280325	-0.648952	0.454165
O8	O	1.148319	-0.436645	0.577643
O9	O	1.397765	-0.689292	0.620712
O10	O	1.237301	-0.467210	0.703833
O11	O	1.172796	-0.540044	0.435600
O12	O	1.006236	-0.532985	0.553053
O13	O	1.105004	-0.676885	0.827159
O14	O	0.987564	-0.636545	0.660612
O15	O	1.212658	-0.603890	0.845790
O16	O	1.255681	-0.785632	0.596122
O17	O	1.129481	-0.780284	0.685115
C18	C	0.965117	-0.579462	0.601339
C19	C	0.867755	-0.563233	0.584530
C20	C	0.554578	-0.733434	0.760815
C21	C	0.646055	-0.748686	0.776605
C22	C	0.701484	-0.702324	0.728588
C23	C	0.665428	-0.640708	0.664778
C24	C	0.573942	-0.625457	0.648981
C25	C	0.720849	-0.594348	0.616754
C26	C	0.684792	-0.532731	0.552944
C27	C	0.593315	-0.517483	0.537151
C28	C	0.537886	-0.563845	0.585167
C29	C	0.812334	-0.609598	0.632551
C30	C	0.831699	-0.501621	0.520717
C31	C	0.740221	-0.486369	0.504927
C32	C	1.192583	-0.809831	0.640632
C33	C	1.192610	-0.892152	0.640656
C34	C	1.192794	-1.191281	0.640736
C35	C	1.113520	-1.156667	0.696923
C36	C	1.113236	-1.070971	0.696656
C37	C	1.192702	-1.042879	0.640697
C38	C	1.183698	-1.059025	0.544069
C39	C	1.183193	-1.144646	0.544399
C40	C	1.281361	-1.177858	0.680391
C41	C	1.280465	-1.092353	0.682321
C42	C	1.192653	-0.959009	0.640670
C43	C	1.192842	-1.275150	0.640757
C44	C	1.421163	-0.655573	0.680172
C45	C	1.518521	-0.671822	0.697001
C46	C	1.153180	-0.644216	0.869145
C47	C	1.136341	-0.655626	0.966504
C48	C	1.192829	-0.424310	0.640748
C49	C	1.192886	-0.342008	0.640777
C50	C	1.232108	-0.590728	0.413109
C51	C	1.249117	-0.579139	0.315780
C52	C	1.313081	-0.535774	1.279745
C53	C	1.328908	-0.525057	1.188272
C54	C	1.280767	-0.557698	1.132826
C55	C	1.216797	-0.601059	1.168860
C56	C	1.200974	-0.611782	1.260343
C57	C	1.168660	-0.633706	1.113424
C58	C	1.104691	-0.677067	1.149458
C59	C	1.088870	-0.687788	1.240932
C60	C	1.137010	-0.655147	1.296378
C61	C	1.184484	-0.622982	1.021941
C62	C	1.072377	-0.698990	1.002539
C63	C	1.056550	-0.709707	1.094012
H64	H	0.675406	-0.798856	0.828558
H65	H	1.033178	-0.725571	0.957395
H66	H	1.292687	-1.210974	0.750493
O67	O	1.390936	-0.482812	1.153305
C68	C	1.438395	-0.360683	1.132800
C69	C	1.368072	-0.408442	1.172419
H70	H	1.419944	-0.300550	1.148254
H71	H	1.441447	-0.358548	1.057883
H72	H	1.505898	-0.387616	1.162986
H73	H	1.300532	-0.381546	1.142302
H74	H	1.365097	-0.410578	1.247336
O75	O	1.246711	-0.580974	0.986916
C76	C	1.382809	-0.578619	0.904032
C77	C	1.312412	-0.626292	0.943672
H78	H	1.435936	-0.615234	0.869043
H79	H	1.414566	-0.557148	0.959343
H80	H	1.349998	-0.528157	0.854307
H81	H	1.345156	-0.676787	0.993386
H82	H	1.280660	-0.647705	0.888313
H83	H	1.352275	-0.509208	1.324897
H84	H	0.509441	-0.771179	0.799898
H85	H	1.293657	-0.548969	1.058345
H86	H	1.047932	-1.165050	0.669664
H87	H	1.117108	-1.187859	0.768267
H88	H	0.841682	-0.659767	0.684506
H89	H	1.124127	-0.663871	1.370864
O90	O	0.885515	-0.456637	0.473937
C91	C	0.939217	-0.407669	0.329845
C92	C	0.878242	-0.458645	0.382713
H93	H	0.933343	-0.409263	0.256079
H94	H	1.010817	-0.429146	0.352023
H95	H	0.918584	-0.346810	0.342297
H96	H	0.898795	-0.519516	0.370286
H97	H	0.806656	-0.437105	0.360525
H98	H	0.563962	-0.467317	0.485183
O99	O	1.026676	-0.729906	1.275789
C100	C	0.917188	-0.804200	1.246894
C101	C	0.987581	-0.756505	1.207302
H102	H	0.885573	-0.825733	1.191545
H103	H	0.863951	-0.767603	1.281784
H104	H	0.949978	-0.854623	1.296684
H105	H	0.954870	-0.706078	1.157477
H106	H	1.040812	-0.793156	1.172468
H107	H	0.710851	-0.436200	0.452971
O108	O	0.994476	-0.751930	1.128933
C109	C	0.947054	-0.874079	1.149581
C110	C	1.017404	-0.826344	1.109970
H111	H	0.965575	-0.934256	1.134280
H112	H	0.879532	-0.847236	1.119373
H113	H	0.944003	-0.876091	1.224478
H114	H	1.020534	-0.824314	1.035075
H115	H	1.084890	-0.853204	1.140247
H116	H	0.775969	-0.714747	0.741449
H117	H	1.287546	-1.083109	0.753513
H118	H	1.341370	-1.074398	0.645654
H119	H	1.117017	-1.060550	0.767804
H120	H	0.463396	-0.551428	0.572316
H121	H	1.047265	-1.037251	0.669127
O122	O	1.106461	-1.152146	0.506560
C123	C	0.968298	-1.088364	0.437763
C124	C	1.055153	-1.079769	0.480614
H125	H	0.926799	-1.029856	0.416757
H126	H	0.929449	-1.124439	0.487650
H127	H	0.984379	-1.117168	0.377098
H128	H	1.039151	-1.050946	0.541271
H129	H	1.093977	-1.043722	0.430670
O130	O	1.250128	-1.171275	0.491658
C131	C	1.371850	-1.142106	0.395953
C132	C	1.296075	-1.111851	0.455645
H133	H	1.409031	-1.094080	0.366835
H134	H	1.343196	-1.164990	0.339914
H135	H	1.419461	-1.189667	0.436975
H136	H	1.248437	-1.064266	0.414698
H137	H	1.324791	-1.089016	0.511687
O138	O	1.251151	-1.036895	0.491798
C139	C	1.292748	-0.956209	0.360922
C140	C	1.216265	-0.981197	0.420030
H141	H	1.264572	-0.911162	0.302894
H142	H	1.331683	-1.007353	0.334626
H143	H	1.338622	-0.931576	0.401531
H144	H	1.170329	-1.005816	0.379480
H145	H	1.177398	-0.930028	0.446331
O146	O	1.351672	-1.205171	0.631950
C147	C	1.488833	-1.292912	0.631850
C148	C	1.409273	-1.262034	0.686819
H149	H	1.535415	-1.338902	0.676184
H150	H	1.525874	-1.244694	0.603101
H151	H	1.464070	-1.318036	0.575544
H152	H	1.433961	-1.236919	0.743166
H153	H	1.372247	-1.310278	0.715502
H154	H	1.120211	-1.024067	0.512101
