data_functionalizedCrystal
_audit_creation_method	'MofGen! by Chris Wilmer'
_symmetry_space_group_name_H-M	'P1'
_symmetry_Int_Tables_number	1
_symmetry_cell_setting	triclinic
loop_
_symmetry_equiv_pos_as_xyz
  x,y,z
_cell_length_a	17.699077
_cell_length_b	15.995292
_cell_length_c	16.776229
_cell_angle_alpha	90.009293
_cell_angle_beta	89.996981
_cell_angle_gamma	83.374596
loop_
_atom_site_label
_atom_site_type_symbol
_atom_site_fract_x
_atom_site_fract_y
_atom_site_fract_z
O1	O	1.004235	0.105849	-0.066272
O2	O	0.783876	0.119631	-0.066275
O3	O	0.900102	-0.009164	-0.066275
O4	O	0.888009	0.234643	-0.066272
O5	O	0.900092	-0.009141	0.066302
O6	O	0.783866	0.119653	0.066301
O7	O	1.004224	0.105872	0.066305
Zn8	Zn	0.894043	0.112766	0.087352
Zn9	Zn	0.894057	0.112736	-0.087323
O10	O	0.887998	0.234666	0.066304
C11	C	0.755673	0.119149	0.000013
C12	C	0.671653	0.117670	0.000011
C13	C	0.632178	0.116985	0.072279
C14	C	0.553234	0.115582	0.072280
C15	C	0.513764	0.114870	0.000012
C16	C	0.553244	0.115552	-0.072262
C17	C	0.632188	0.116949	-0.072262
C18	C	0.234873	0.109917	-0.072264
C19	C	0.155923	0.108523	-0.072258
C20	C	0.155918	0.108551	0.072279
C21	C	0.234862	0.109948	0.072279
C22	C	0.274336	0.110625	0.000005
C23	C	0.359937	0.112145	0.000005
C24	C	0.428164	0.113356	0.000011
C25	C	0.899605	-0.040347	0.000012
C26	C	0.898129	-0.133297	0.000006
C27	C	0.892704	-0.471024	0.000013
C28	C	0.976593	-0.447884	0.000310
C29	C	0.978188	-0.351212	0.000008
C30	C	0.895396	-0.303474	0.000010
C31	C	0.853462	-0.332501	-0.075696
C32	C	0.852452	-0.429290	-0.075757
C33	C	0.850727	-0.429118	0.075008
C34	C	0.853835	-0.332631	0.076005
C35	C	0.896913	-0.208781	0.000005
C36	C	0.891185	-0.565717	0.000012
C37	C	1.032427	0.106353	0.000015
C38	C	1.116448	0.107832	0.000011
C39	C	0.888496	0.265849	0.000016
C40	C	0.889972	0.358799	0.000017
N41	N	0.894039	0.112786	0.206564
N42	N	0.894068	0.112710	-0.206534
C43	C	0.848175	0.061997	0.751734
C44	C	0.848173	0.062004	0.668282
C45	C	0.894060	0.112729	0.626563
C46	C	0.939958	0.163444	0.668300
C47	C	0.939964	0.163432	0.751751
C48	C	0.939939	0.163493	0.331753
C49	C	0.939928	0.163504	0.248297
C50	C	0.848148	0.062066	0.248284
C51	C	0.848153	0.062053	0.331735
C52	C	0.894054	0.112765	0.373465
C53	C	0.894057	0.112755	0.463953
C54	C	0.894055	0.112744	0.536076
H55	H	0.521099	0.115011	0.131128
H56	H	1.011030	-0.332245	0.054276
Cl57	Cl	0.997663	0.227184	0.804214
H58	H	0.123789	0.107942	-0.131111
H59	H	0.884370	-0.314119	0.132012
H60	H	1.008923	-0.475939	0.054602
H61	H	0.267003	0.110467	-0.131113
H62	H	0.788978	-0.442981	0.075518
Cl63	Cl	0.503629	0.114626	-0.163114
H64	H	0.977298	0.204812	0.214331
Cl65	Cl	1.029203	-0.322909	-0.083926
Cl66	Cl	0.681789	0.117886	0.163137
Cl67	Cl	0.106290	0.107694	0.163138
H68	H	1.008753	-0.476977	-0.053676
H69	H	0.877140	-0.457251	0.132392
Cl70	Cl	0.284476	0.110848	0.163134
H71	H	0.664327	0.117508	-0.131110
H72	H	0.881503	-0.456175	-0.132349
H73	H	0.790944	-0.443714	-0.079186
H74	H	0.792539	-0.300509	-0.078510
Cl75	Cl	0.790446	-0.001690	0.195818
H76	H	0.882591	-0.312510	-0.132037
H77	H	0.977324	0.204741	0.634326
Cl78	Cl	0.997637	0.227252	0.384203
H79	H	0.793406	-0.299537	0.080578
H80	H	0.810804	0.020695	0.785696
Cl81	Cl	0.790453	-0.001726	0.615823
H82	H	0.810784	0.020751	0.365698
