data_functionalizedCrystal
_audit_creation_method	'MofGen! by Chris Wilmer'
_symmetry_space_group_name_H-M	'P1'
_symmetry_Int_Tables_number	1
_symmetry_cell_setting	triclinic
loop_
_symmetry_equiv_pos_as_xyz
  x,y,z
_cell_length_a	14.519731
_cell_length_b	19.288840
_cell_length_c	17.766277
_cell_angle_alpha	89.983415
_cell_angle_beta	90.007338
_cell_angle_gamma	96.592566
loop_
_atom_site_label
_atom_site_type_symbol
_atom_site_fract_x
_atom_site_fract_y
_atom_site_fract_z
O1	O	0.114934	-0.921784	0.062722
O2	O	0.448267	-0.588451	0.396055
O3	O	0.781600	-0.255118	0.729388
O4	O	0.130477	-0.719578	0.062696
O5	O	0.463810	-0.386245	0.396029
O6	O	0.797144	-0.052911	0.729362
O7	O	-0.011566	-0.826035	0.062703
O8	O	0.321767	-0.492701	0.396036
O9	O	0.655100	-0.159368	0.729369
O10	O	0.256977	-0.815328	0.062715
O11	O	0.590311	-0.481994	0.396048
O12	O	0.923644	-0.148661	0.729382
O13	O	-0.011573	-0.826016	-0.062486
O14	O	0.321760	-0.492683	0.270847
O15	O	0.655093	-0.159349	0.604181
O16	O	0.130470	-0.719559	-0.062493
O17	O	0.463803	-0.386226	0.270841
O18	O	0.797137	-0.052893	0.604174
O19	O	0.114927	-0.921766	-0.062467
O20	O	0.448260	-0.588432	0.270866
O21	O	0.781593	-0.255099	0.604200
Cu22	Cu	0.122698	-0.820661	-0.073911
Cu23	Cu	0.456031	-0.487327	0.259423
Cu24	Cu	0.789364	-0.153994	0.592756
Cu25	Cu	0.122706	-0.820683	0.074139
Cu26	Cu	0.456039	-0.487350	0.407473
Cu27	Cu	0.789373	-0.154016	0.740806
O28	O	0.256970	-0.815309	-0.062474
O29	O	0.590303	-0.481976	0.270860
O30	O	0.923637	-0.148642	0.604193
C31	C	0.129977	-0.693690	0.000098
C32	C	0.463311	-0.360357	0.333431
C33	C	0.796644	-0.027023	0.666765
C34	C	0.128487	-0.616580	0.000088
C35	C	0.461821	-0.283247	0.333421
C36	C	0.795154	0.050086	0.666755
C37	C	-0.045926	-0.825524	0.000108
C38	C	0.287407	-0.492190	0.333441
C39	C	0.620741	-0.158857	0.666775
C40	C	-0.148297	-0.824020	0.000107
C41	C	0.185037	-0.490687	0.333441
C42	C	0.518370	-0.157354	0.666774
C43	C	0.115426	-0.947654	0.000132
C44	C	0.448760	-0.614320	0.333466
C45	C	0.782093	-0.280987	0.666799
C46	C	0.116916	-1.024764	0.000147
C47	C	0.450250	-0.691430	0.333481
C48	C	0.783583	-0.358097	0.666814
C49	C	-0.231433	-0.822799	0.000109
C50	C	0.101900	-0.489465	0.333442
C51	C	0.435234	-0.156132	0.666776
C52	C	-0.335732	-0.821272	0.000115
C53	C	-0.002398	-0.487939	0.333448
C54	C	0.330935	-0.154606	0.666781
C55	C	-0.418863	-0.820061	0.000119
C56	C	-0.085530	-0.486728	0.333453
C57	C	0.247804	-0.153394	0.666786
C58	C	-0.523168	-0.818535	0.000123
C59	C	-0.189835	-0.485201	0.333457
C60	C	0.143498	-0.151868	0.666790
C61	C	0.291330	-0.815820	0.000122
C62	C	0.624663	-0.482487	0.333456
C63	C	0.957996	-0.149153	0.666789
C64	C	0.393700	-0.817323	0.000128
C65	C	0.727034	-0.483990	0.333461
C66	C	1.060367	-0.150657	0.666795
C67	C	0.127776	-0.580384	0.068330
C68	C	0.461109	-0.247051	0.401664
C69	C	0.794442	0.086282	0.734997
C70	C	0.126366	-0.507932	0.068339
C71	C	0.459699	-0.174599	0.401673
C72	C	0.793032	0.158734	0.735006
C73	C	0.125649	-0.471681	0.000102
C74	C	0.458982	-0.138347	0.333436
C75	C	0.792315	0.194986	0.666769
C76	C	0.126366	-0.507885	-0.068149
C77	C	0.459699	-0.174551	0.265185
C78	C	0.793033	0.158782	0.598518
C79	C	0.127785	-0.580335	-0.068156
C80	C	0.461119	-0.247001	0.265177
C81	C	0.794452	0.086332	0.598511
C82	C	0.069381	-0.362139	-0.052169
C83	C	0.402714	-0.028806	0.281165
C84	C	0.736047	0.304527	0.614498
C85	C	0.067956	-0.289692	-0.052159
C86	C	0.401289	0.043642	0.281175
C87	C	0.734622	0.376975	0.614508
C88	C	0.121275	-0.248221	0.000122
C89	C	0.454609	0.085112	0.333455
C90	C	0.787942	0.418446	0.666789
C91	C	0.176008	-0.279208	0.052405
C92	C	0.509341	0.054125	0.385738
C93	C	0.842675	0.387458	0.719072
C94	C	0.177427	-0.351658	0.052398
C95	C	0.510761	-0.018325	0.385731
C96	C	0.844094	0.315008	0.719064
C97	C	0.124110	-0.393121	0.000103
C98	C	0.457444	-0.059788	0.333436
C99	C	0.790777	0.273546	0.666769
C100	C	0.119036	-0.133464	0.068379
C101	C	0.452369	0.199869	0.401712
C102	C	0.785703	0.533202	0.735045
C103	C	0.117631	-0.061010	0.068385
C104	C	0.450965	0.272323	0.401718
C105	C	0.784298	0.605656	0.735052
C106	C	0.117622	-0.060965	-0.068105
C107	C	0.450956	0.272368	0.265228
C108	C	0.784289	0.605702	0.598562
C109	C	0.119036	-0.133417	-0.068109
C110	C	0.452369	0.199917	0.265224
C111	C	0.785703	0.533250	0.598557
C112	C	0.119738	-0.169662	0.000135
C113	C	0.453072	0.163671	0.333468
C114	C	0.786405	0.497004	0.666801
N115	N	0.122691	-0.820650	-0.178041
N116	N	0.456024	-0.487317	0.155292
N117	N	0.789358	-0.153984	0.488626
C118	C	0.059825	-0.867805	-0.217425
C119	C	0.393158	-0.534471	0.115909
C120	C	0.726492	-0.201138	0.449242
C121	C	0.059821	-0.867809	-0.296227
C122	C	0.393154	-0.534475	0.037107
C123	C	0.726487	-0.201142	0.370440
C124	C	0.122698	-0.820665	-0.335641
C125	C	0.456032	-0.487332	-0.002308
C126	C	0.789365	-0.153998	0.331025
C127	C	0.185569	-0.773502	-0.296248
C128	C	0.518903	-0.440168	0.037085
C129	C	0.852236	-0.106835	0.370419
C130	C	0.185566	-0.773494	-0.217448
C131	C	0.518899	-0.440161	0.115886
C132	C	0.852232	-0.106828	0.449219
C133	C	0.206727	-0.811673	-0.460476
C134	C	0.540060	-0.478340	-0.127143
C135	C	0.873393	-0.145007	0.206190
C136	C	0.206732	-0.811685	-0.539275
C137	C	0.540065	-0.478352	-0.205942
C138	C	0.873398	-0.145019	0.127392
C139	C	0.122709	-0.820683	-0.578688
C140	C	0.456043	-0.487350	-0.245354
C141	C	0.789376	-0.154017	0.087979
C142	C	0.038679	-0.829684	-0.539292
C143	C	0.372012	-0.496351	-0.205959
C144	C	0.705345	-0.163017	0.127375
C145	C	0.038675	-0.829677	-0.460492
C146	C	0.372008	-0.496343	-0.127158
C147	C	0.705342	-0.163010	0.206175
C148	C	0.122709	-0.820667	-0.421087
C149	C	0.456042	-0.487334	-0.087754
C150	C	0.789376	-0.154001	0.245580
C151	C	0.059834	-0.867845	-0.703518
C152	C	0.393167	-0.534511	-0.370184
C153	C	0.726500	-0.201178	-0.036851
C154	C	0.059828	-0.867844	-0.782321
C155	C	0.393161	-0.534511	-0.448988
C156	C	0.726495	-0.201177	-0.115654
C157	C	0.185585	-0.773540	-0.782341
C158	C	0.518918	-0.440207	-0.449007
C159	C	0.852251	-0.106874	-0.115674
C160	C	0.185582	-0.773538	-0.703539
C161	C	0.518915	-0.440205	-0.370206
C162	C	0.852249	-0.106871	-0.036872
C163	C	0.122708	-0.820694	-0.664132
C164	C	0.456041	-0.487360	-0.330799
C165	C	0.789374	-0.154027	0.002535
N166	N	0.122705	-0.820699	0.178270
N167	N	0.456039	-0.487366	0.511603
N168	N	0.789372	-0.154032	0.844936
H169	H	0.128348	-0.609891	0.123900
H170	H	0.461681	-0.276558	0.457233
H171	H	0.795014	0.056776	0.790566
C172	C	0.237753	-0.385734	0.109816
C173	C	0.571086	-0.052400	0.443149
C174	C	0.904419	0.280933	0.776482
H175	H	0.230991	-0.434817	0.102299
H176	H	0.564324	-0.101484	0.435633
H177	H	0.897657	0.231849	0.768966
H178	H	0.300877	-0.367648	0.103152
H179	H	0.634210	-0.034314	0.436485
H180	H	0.967544	0.299019	0.769818
H181	H	0.218629	-0.375763	0.159399
H182	H	0.551963	-0.042430	0.492732
H183	H	0.885296	0.290903	0.826065
C184	C	0.299157	-0.801780	-0.417130
C185	C	0.632490	-0.468447	-0.083796
C186	C	0.965824	-0.135113	0.249537
H187	H	0.349201	-0.796433	-0.451876
H188	H	0.682534	-0.463099	-0.118543
H189	H	1.015868	-0.129766	0.214790
H190	H	0.301170	-0.761338	-0.386404
H191	H	0.634504	-0.428005	-0.053071
H192	H	0.967837	-0.094672	0.280263
H193	H	0.304127	-0.841477	-0.386376
H194	H	0.637460	-0.508144	-0.053042
H195	H	0.970794	-0.174811	0.280291
H196	H	0.236760	-0.735095	-0.185381
H197	H	0.570093	-0.401761	0.147953
H198	H	0.903426	-0.068428	0.481286
H199	H	0.236764	-0.735115	-0.328343
H200	H	0.570097	-0.401782	0.004990
H201	H	0.903431	-0.068449	0.338323
H202	H	0.125787	-0.478456	0.123912
H203	H	0.459121	-0.145122	0.457245
H204	H	0.792454	0.188211	0.790579
C205	C	0.234666	-0.233600	0.109914
C206	C	0.568000	0.099733	0.443248
C207	C	0.901333	0.433066	0.776581
H208	H	0.225994	-0.186013	0.102427
H209	H	0.559327	0.147320	0.435760
H210	H	0.892660	0.480653	0.769094
H211	H	0.215912	-0.247337	0.159454
H212	H	0.549245	0.085996	0.492788
H213	H	0.882579	0.419330	0.826121
H214	H	0.298288	-0.239304	0.103329
H215	H	0.631621	0.094029	0.436662
H216	H	0.964954	0.427362	0.769996
H217	H	0.119617	-0.162976	0.123947
H218	H	0.452951	0.170357	0.457280
H219	H	0.786284	0.503691	0.790614
C220	C	0.007755	-0.255611	-0.109668
C221	C	0.341088	0.077722	0.223666
C222	C	0.674422	0.411055	0.556999
H223	H	-0.023783	-0.290683	-0.140814
H224	H	0.309551	0.042650	0.192519
H225	H	0.642884	0.375984	0.525852
H226	H	-0.036237	-0.231587	-0.083785
H227	H	0.297096	0.101747	0.249548
H228	H	0.630430	0.435080	0.582882
H229	H	0.046154	-0.223547	-0.139896
H230	H	0.379487	0.109787	0.193438
H231	H	0.712821	0.443120	0.526771
C232	C	0.125578	-0.468015	-0.143209
C233	C	0.458911	-0.134681	0.190124
C234	C	0.792244	0.198652	0.523458
H235	H	0.126212	-0.499950	-0.183855
H236	H	0.459545	-0.166617	0.149479
H237	H	0.792879	0.166716	0.482812
H238	H	0.071257	-0.444986	-0.146048
H239	H	0.404590	-0.111652	0.187285
H240	H	0.737923	0.221681	0.520619
H241	H	0.178798	-0.434516	-0.146038
H242	H	0.512131	-0.101183	0.187295
H243	H	0.845464	0.232151	0.520628
C244	C	-0.053748	-0.839566	-0.417156
C245	C	0.279585	-0.506233	-0.083823
C246	C	0.612918	-0.172899	0.249510
H247	H	-0.103790	-0.845021	-0.451908
H248	H	0.229543	-0.511688	-0.118574
H249	H	0.562876	-0.178355	0.214759
H250	H	-0.055702	-0.879945	-0.386314
H251	H	0.277631	-0.546612	-0.052981
H252	H	0.610965	-0.213278	0.280353
H253	H	-0.058778	-0.799819	-0.386520
H254	H	0.274556	-0.466485	-0.053186
H255	H	0.607889	-0.133152	0.280147
C256	C	0.116844	-0.021195	0.143455
C257	C	0.450177	0.312138	0.476789
C258	C	0.783510	0.645472	0.810122
H259	H	0.117455	-0.053162	0.184094
H260	H	0.450789	0.280172	0.517428
H261	H	0.784122	0.613505	0.850761
H262	H	0.170057	0.012301	0.146306
H263	H	0.503390	0.345635	0.479639
H264	H	0.836723	0.678968	0.812972
H265	H	0.062516	0.001831	0.146285
H266	H	0.395849	0.335164	0.479618
H267	H	0.729182	0.668497	0.812951
C268	C	0.117139	-0.021068	-0.143164
C269	C	0.450472	0.312266	0.190169
C270	C	0.783806	0.645599	0.523503
H271	H	0.116280	0.027274	-0.133387
H272	H	0.449613	0.360607	0.199946
H273	H	0.782946	0.693941	0.533280
H274	H	0.171230	-0.027774	-0.171044
H275	H	0.504563	0.305559	0.162289
H276	H	0.837896	0.638893	0.495623
H277	H	0.063686	-0.038072	-0.171364
H278	H	0.397020	0.295261	0.161969
H279	H	0.730353	0.628594	0.495302
C280	C	0.119807	-0.173239	-0.143175
C281	C	0.453141	0.160095	0.190159
C282	C	0.786474	0.493428	0.523492
H283	H	0.120762	-0.221578	-0.133406
H284	H	0.454095	0.111755	0.199927
H285	H	0.787429	0.445089	0.533260
H286	H	0.065807	-0.166590	-0.171216
H287	H	0.399140	0.166743	0.162117
H288	H	0.732474	0.500077	0.495450
H289	H	0.173348	-0.156121	-0.171209
H290	H	0.506681	0.177213	0.162124
H291	H	0.840014	0.510546	0.495457
H292	H	0.275154	-0.804361	-0.571345
H293	H	0.608487	-0.471028	-0.238012
H294	H	0.941821	-0.137694	0.095321
H295	H	0.025959	-0.395900	-0.094745
H296	H	0.359292	-0.062566	0.238588
H297	H	0.692626	0.270767	0.571921
H298	H	0.236777	-0.735143	-0.671470
H299	H	0.570111	-0.401810	-0.338137
H300	H	0.903444	-0.068476	-0.004804
H301	H	-0.029740	-0.837011	-0.571380
H302	H	0.303593	-0.503678	-0.238047
H303	H	0.636927	-0.170344	0.095287
C304	C	0.128553	-0.620153	-0.143225
C305	C	0.461887	-0.286820	0.190108
C306	C	0.795220	0.046513	0.523441
H307	H	0.127918	-0.588190	-0.183866
H308	H	0.461252	-0.254856	0.149468
H309	H	0.794585	0.078477	0.482801
H310	H	0.182868	-0.643186	-0.146067
H311	H	0.516202	-0.309853	0.187267
H312	H	0.849535	0.023480	0.520600
H313	H	0.075327	-0.653645	-0.146062
H314	H	0.408660	-0.320311	0.187272
H315	H	0.741994	0.013022	0.520605
H316	H	0.008627	-0.906200	-0.185342
H317	H	0.341960	-0.572867	0.147991
H318	H	0.675293	-0.239533	0.481325
H319	H	0.008630	-0.906241	-0.814388
H320	H	0.341963	-0.572907	-0.481054
H321	H	0.675297	-0.239574	-0.147721
H322	H	0.008626	-0.906209	-0.328299
H323	H	0.341959	-0.572875	0.005034
H324	H	0.675292	-0.239542	0.338368
C325	C	0.254751	-0.721682	-0.825684
C326	C	0.588084	-0.388348	-0.492351
C327	C	0.921418	-0.055015	-0.159017
H328	H	0.292191	-0.693595	-0.790939
H329	H	0.625524	-0.360262	-0.457605
H330	H	0.958858	-0.026928	-0.124272
H331	H	0.293054	-0.746716	-0.856410
H332	H	0.626387	-0.413383	-0.523076
H333	H	0.959720	-0.080050	-0.189743
H334	H	0.221672	-0.692727	-0.856438
H335	H	0.555005	-0.359394	-0.523105
H336	H	0.888339	-0.026060	-0.189772
C337	C	-0.009333	-0.919706	-0.660167
C338	C	0.324000	-0.586372	-0.326834
C339	C	0.657333	-0.253039	0.006500
H340	H	-0.046786	-0.947783	-0.694912
H341	H	0.286547	-0.614450	-0.361579
H342	H	0.619881	-0.281117	-0.028245
H343	H	0.023737	-0.948659	-0.629411
H344	H	0.357070	-0.615326	-0.296077
H345	H	0.690404	-0.281992	0.037256
H346	H	-0.047638	-0.894664	-0.629443
H347	H	0.285696	-0.561331	-0.296109
H348	H	0.619029	-0.227997	0.037224
