data_functionalizedCrystal
_audit_creation_method	'MofGen! by Chris Wilmer'
_symmetry_space_group_name_H-M	'P1'
_symmetry_Int_Tables_number	1
_symmetry_cell_setting	triclinic
loop_
_symmetry_equiv_pos_as_xyz
  x,y,z
_cell_length_a	15.698487
_cell_length_b	23.196402
_cell_length_c	23.196402
_cell_angle_alpha	90.005244
_cell_angle_beta	60.004720
_cell_angle_gamma	59.999019
loop_
_atom_site_label
_atom_site_type_symbol
_atom_site_fract_x
_atom_site_fract_y
_atom_site_fract_z
Zr1	Zr	0.932383	0.555363	-0.075635
O2	O	1.110094	0.463304	-0.167683
O3	O	0.754673	0.583585	-0.047419
O4	O	0.932381	0.583574	-0.167685
O5	O	0.932388	0.463322	0.047452
O6	O	0.932379	0.678446	-0.167684
O7	O	0.932386	0.463314	-0.047417
O8	O	0.614491	0.678464	0.047449
O9	O	1.250275	0.463304	-0.167681
O10	O	0.827766	0.666422	-0.035383
O11	O	0.827769	0.595626	0.035417
O12	O	1.036998	0.595614	-0.106180
O13	O	1.037001	0.524819	-0.035381
Zr14	Zr	0.932383	0.706685	0.075672
Zr15	Zr	0.932380	0.706672	-0.075634
Zr16	Zr	0.932387	0.555376	0.075671
Zr17	Zr	1.155956	0.555363	-0.075632
Zr18	Zr	0.708810	0.706685	0.075669
O19	O	1.110094	0.678464	0.047457
O20	O	1.110089	0.678445	-0.167682
O21	O	1.110099	0.463322	0.047455
O22	O	0.754673	0.798745	0.167721
O23	O	0.754668	0.798726	-0.047418
O24	O	0.754678	0.583603	0.167719
O25	O	0.932379	0.798726	-0.047415
O26	O	0.932386	0.678474	0.167723
O27	O	0.932388	0.583603	0.167722
O28	O	0.932381	0.798734	0.047455
O29	O	1.250273	0.583574	-0.167680
O30	O	0.614494	0.678474	0.167718
O31	O	0.614491	0.798745	0.167718
O32	O	0.614489	0.798734	0.047450
O33	O	1.250278	0.463314	-0.047413
O34	O	1.250275	0.583584	-0.047412
O35	O	0.827769	0.666434	0.106218
O36	O	0.827766	0.737229	0.035418
O37	O	1.036998	0.666422	-0.035380
O38	O	1.037001	0.595626	0.035420
C39	C	0.652728	0.631024	0.000014
C40	C	0.557815	0.631024	0.000013
C41	C	0.932388	0.631040	0.189280
C42	C	0.932389	0.631046	0.253514
C43	C	0.932379	0.820288	0.000020
C44	C	0.932378	0.884523	0.000020
C45	C	0.384032	0.631023	0.000025
C46	C	0.480737	0.631022	0.000020
C47	C	1.212039	0.631024	0.000023
C48	C	1.306952	0.631024	0.000024
C49	C	0.932388	0.441760	0.000017
C50	C	0.932389	0.377525	0.000017
C51	C	0.823164	0.951657	0.036980
C52	C	0.823163	1.012012	0.036976
C53	C	0.932381	1.005229	0.000023
C54	C	1.041608	0.938083	-0.036944
C55	C	1.041607	0.877730	-0.036946
C56	C	1.016057	1.072531	0.005303
C57	C	1.016054	1.132885	0.005310
C58	C	0.932390	1.191377	0.000023
C59	C	0.848708	1.189515	-0.005256
C60	C	0.848707	1.129162	-0.005258
C61	C	0.932394	1.070668	0.000020
C62	C	0.823167	1.323958	0.036980
C63	C	0.823170	1.384313	0.036972
C64	C	1.041619	1.310381	-0.036944
C65	C	1.041613	1.250029	-0.036941
C66	C	0.932384	1.256822	0.000026
C67	C	0.932379	0.631008	-0.189243
C68	C	0.932378	0.631003	-0.253476
C69	C	1.041603	0.594088	0.246733
C70	C	1.041604	0.594077	0.307088
C71	C	0.932386	0.631039	0.374222
C72	C	0.823158	0.667998	0.381000
C73	C	0.823160	0.668001	0.320646
C74	C	0.848709	0.692941	0.498158
C75	C	0.848712	0.692940	0.558510
C76	C	0.932377	0.631027	0.560376
C77	C	1.016059	0.569116	0.501876
C78	C	1.016060	0.569119	0.441522
C79	C	0.932372	0.631039	0.439670
C80	C	1.041600	0.594054	0.619036
C81	C	1.041597	0.594042	0.679393
C82	C	0.823148	0.667969	0.753305
C83	C	0.823154	0.667975	0.692949
C84	C	0.932383	0.631019	0.625816
C85	C	0.652723	0.820289	0.000016
C86	C	0.557809	0.884523	0.000015
C87	C	0.652732	0.631040	0.189276
C88	C	0.557821	0.631046	0.253508
C89	C	0.652728	0.820305	0.189277
C90	C	0.557815	0.884545	0.253510
C91	C	1.212039	0.441743	-0.189240
C92	C	1.306952	0.377503	-0.253472
C93	C	1.212043	0.441759	0.000022
C94	C	1.306958	0.377525	0.000023
C95	C	1.212035	0.631008	-0.189238
C96	C	1.306946	0.631002	-0.253471
C97	C	0.513237	0.877728	-0.036949
C98	C	0.424067	0.938077	-0.036965
C99	C	0.379466	1.005222	-0.000011
C100	C	0.424047	1.012016	0.036954
C101	C	0.513221	0.951667	0.036965
C102	C	0.513250	0.668009	0.320636
C103	C	0.424083	0.668012	0.380994
C104	C	0.379483	0.631055	0.374224
C105	C	0.424063	0.594087	0.307089
C106	C	0.513234	0.594080	0.246732
C107	C	0.513242	0.951674	0.246717
C108	C	0.424073	1.012040	0.307065
C109	C	0.379475	1.005276	0.374204
C110	C	0.424057	0.938140	0.380995
C111	C	0.513230	0.877775	0.320648
C112	C	1.351536	0.310375	-0.246680
C113	C	1.440732	0.250008	-0.307027
C114	C	1.485335	0.256772	-0.374167
C115	C	1.440747	0.323908	-0.380958
C116	C	1.351559	0.384273	-0.320611
C117	C	1.351540	0.384320	0.036981
C118	C	1.440734	0.323971	0.036979
C119	C	1.485338	0.256826	0.000023
C120	C	1.440752	0.250032	-0.036939
C121	C	1.351566	0.310381	-0.036941
C122	C	1.351517	0.667967	-0.246677
C123	C	1.440685	0.667975	-0.307025
C124	C	1.485285	0.631015	-0.374164
C125	C	1.440705	0.594050	-0.380956
C126	C	1.351533	0.594045	-0.320610
H127	H	0.734221	0.957194	0.067079
Cl128	Cl	0.267357	1.081083	-0.000030
Cl129	Cl	0.368035	0.929520	-0.083435
Cl130	Cl	0.367959	1.096431	0.083411
Cl131	Cl	1.295490	0.468723	0.083441
H132	H	1.476973	0.698076	-0.301481
Cl133	Cl	1.121254	0.998998	0.011944
H134	H	1.130544	0.823065	-0.067044
H135	H	1.315270	0.304838	-0.067035
H136	H	1.557959	0.207692	0.000031
H137	H	1.315253	0.563942	-0.326151
H138	H	1.557895	0.631024	-0.423296
H139	H	1.557958	0.207614	-0.423299
H140	H	0.387783	1.066699	0.301523
H141	H	1.130546	0.563994	0.192075
Cl142	Cl	0.685856	0.714460	0.465397
H143	H	0.734232	1.438978	0.067064
H144	H	0.549550	0.823061	-0.067050
H145	H	0.387737	0.563997	0.301587
Cl146	Cl	1.178911	0.929555	-0.083400
Cl147	Cl	1.295512	0.468661	-0.329163
H148	H	1.477020	0.329516	0.067081
H149	H	1.315225	0.304854	-0.192017
Cl150	Cl	0.569296	0.714477	0.329166
Cl151	Cl	0.685855	1.096421	0.083443
H152	H	0.780580	0.743352	0.606135
H153	H	1.477083	0.195355	-0.067027
H154	H	0.549510	0.823118	0.326189
Cl155	Cl	0.569236	0.960222	0.083445
Cl156	Cl	1.121249	0.491277	0.504211
H157	H	1.315218	0.698064	-0.192014
Cl158	Cl	0.267379	0.631071	0.450110
Cl159	Cl	1.496798	0.547581	-0.465366
Cl160	Cl	0.267368	1.081171	0.450063
H161	H	0.780572	1.127649	-0.009558
Cl162	Cl	0.367975	0.929649	0.465405
Cl163	Cl	1.178907	0.547559	0.670865
H164	H	0.780568	0.743360	0.496651
H165	H	0.780578	1.237142	-0.009559
Cl166	Cl	0.368054	0.714492	0.465384
Cl167	Cl	0.569298	0.960196	0.162321
Cl168	Cl	0.685854	1.332493	0.083443
Cl169	Cl	0.569249	0.547612	0.162345
H170	H	1.130546	1.304857	-0.067036
Cl171	Cl	1.496762	0.165618	-0.298474
H172	H	1.130546	1.195364	-0.067033
Cl173	Cl	1.496829	0.332400	-0.465367
H174	H	1.084209	1.134389	0.009594
H175	H	1.084195	0.518709	0.393894
Cl176	Cl	1.178913	0.547593	0.534640
Cl177	Cl	1.178912	0.547625	0.298568
H178	H	0.734220	0.698074	0.698473
Cl179	Cl	0.685843	0.714429	0.837698
Cl180	Cl	0.685851	0.714467	0.329172
