data_functionalizedCrystal
_audit_creation_method	'MofGen! by Chris Wilmer'
_symmetry_space_group_name_H-M	'P1'
_symmetry_Int_Tables_number	1
_symmetry_cell_setting	triclinic
loop_
_symmetry_equiv_pos_as_xyz
  x,y,z
_cell_length_a	12.645330
_cell_length_b	18.101398
_cell_length_c	12.645323
_cell_angle_alpha	90.027810
_cell_angle_beta	90.024870
_cell_angle_gamma	90.012959
loop_
_atom_site_label
_atom_site_type_symbol
_atom_site_fract_x
_atom_site_fract_y
_atom_site_fract_z
Zn1	Zn	-0.422165	1.132216	0.599591
Zn2	Zn	0.077835	1.632216	1.099591
Zn3	Zn	-0.599453	1.132133	0.422332
Zn4	Zn	-0.099453	1.632133	0.922332
Zn5	Zn	-0.422189	1.008367	0.422320
Zn6	Zn	0.077811	1.508367	0.922320
Zn7	Zn	-0.599372	1.008354	0.599531
Zn8	Zn	-0.099372	1.508354	1.099531
O9	O	-0.510795	1.070267	0.510943
O10	O	-0.010795	1.570267	1.010943
O11	O	-0.445706	1.235837	0.576108
O12	O	0.054294	1.735837	1.076108
O13	O	-0.575982	1.115686	0.273983
O14	O	-0.075982	1.615686	0.773983
O15	O	-0.273839	1.024836	0.445856
O16	O	0.226161	1.524836	0.945856
O17	O	-0.575959	1.235777	0.445876
O18	O	-0.075959	1.735777	0.945876
O19	O	-0.273821	1.115827	0.576096
O20	O	0.226179	1.615827	1.076096
O21	O	-0.445748	1.024755	0.273974
O22	O	0.054252	1.524755	0.773974
O23	O	-0.445669	0.904732	0.445797
O24	O	0.054331	1.404732	0.945797
O25	O	-0.575821	1.024814	0.747886
O26	O	-0.075821	1.524814	1.247886
O27	O	-0.575845	0.904723	0.575993
O28	O	-0.075845	1.404723	1.075993
O29	O	-0.445628	1.115814	0.747931
O30	O	0.054372	1.615814	1.247931
O31	O	-0.747789	1.115673	0.445817
O32	O	-0.247789	1.615673	0.945817
O33	O	-0.747730	1.024734	0.576005
O34	O	-0.247730	1.524734	1.076005
C35	C	-0.510752	0.877857	0.510888
C36	C	-0.010752	1.377857	1.010888
C37	C	-0.510759	0.795543	0.510890
C38	C	-0.010759	1.295543	1.010890
C39	C	-0.510825	0.496452	0.510979
C40	C	-0.010825	0.996452	1.010979
C41	C	-0.428513	0.527758	0.429462
C42	C	0.071487	1.027758	0.929462
C43	C	-0.428733	0.613376	0.429115
C44	C	0.071267	1.113376	0.929115
C45	C	-0.510791	0.644834	0.510934
C46	C	-0.010791	1.144834	1.010934
C47	C	-0.622463	0.613733	0.480419
C48	C	-0.122463	1.113733	0.980419
C49	C	-0.622006	0.528088	0.479852
C50	C	-0.122006	1.028088	0.979852
C51	C	-0.482436	0.528067	0.623203
C52	C	0.017564	1.028067	1.123203
C53	C	-0.479949	0.613717	0.622590
C54	C	0.020051	1.113717	1.122590
C55	C	-0.510779	0.728694	0.510911
C56	C	-0.010779	1.228694	1.010911
C57	C	-0.510845	0.412592	0.510999
C58	C	-0.010845	0.912592	1.010999
C59	C	-0.786224	1.070213	0.510929
C60	C	-0.286224	1.570213	1.010929
C61	C	-0.904054	1.070258	0.510958
C62	C	-0.404054	1.570258	1.010958
C63	C	-1.071625	1.013284	0.593111
C64	C	-0.571625	1.513284	1.093111
C65	C	-0.949066	1.012992	0.592847
C66	C	-0.449066	1.512992	1.092847
C67	C	-0.948646	1.049129	0.399233
C68	C	-0.448646	1.549129	0.899233
C69	C	-1.071244	1.048781	0.399732
C70	C	-0.571244	1.548781	0.899732
C71	C	-1.071153	1.148710	0.539623
C72	C	-0.571153	1.648710	1.039623
C73	C	-0.948546	1.148229	0.542066
C74	C	-0.448546	1.648229	1.042066
C75	C	-0.234289	1.070342	0.510982
C76	C	0.265711	1.570342	1.010982
C77	C	-0.116459	1.070374	0.510998
C78	C	0.383541	1.570374	1.010998
C79	C	-0.510713	1.070322	0.787449
C80	C	-0.010713	1.570322	1.287449
C81	C	-0.510678	1.070345	0.905279
C82	C	-0.010678	1.570345	1.405279
C83	C	-0.510839	1.263429	0.511000
C84	C	-0.010839	1.763429	1.011000
C85	C	-0.510857	1.345743	0.511024
C86	C	-0.010857	1.845743	1.011024
C87	C	-0.510800	1.070256	0.235514
C88	C	-0.010800	1.570256	0.735514
C89	C	-0.510536	1.070376	0.117684
C90	C	-0.010536	1.570376	0.617684
C91	C	-0.592196	1.012920	1.072815
C92	C	-0.092196	1.512920	1.572815
C93	C	-0.592600	1.013071	0.950255
C94	C	-0.092600	1.513071	1.450255
C95	C	-0.541005	1.148377	0.949809
C96	C	-0.041005	1.648377	1.449809
C97	C	-0.541517	1.148062	1.072407
C98	C	-0.041517	1.648062	1.572407
C99	C	-0.398376	1.050477	1.072474
C100	C	0.101624	1.550477	1.572474
C101	C	-0.399048	1.048736	0.949868
C102	C	0.100952	1.548736	1.449868
H103	H	-0.685435	0.634110	0.537934
H104	H	-0.185435	1.134110	1.037934
F105	F	-0.909651	1.030269	0.701129
F106	F	-0.409651	1.530269	1.201129
H107	H	-0.535532	0.635134	0.686580
H108	H	-0.035532	1.135134	1.186580
H109	H	-0.542389	0.507822	0.683940
H110	H	-0.042389	1.007822	1.183940
F111	F	-0.648686	1.170107	1.109810
F112	F	-0.148686	1.670107	1.609810
F113	F	-0.453259	0.640113	0.320421
F114	F	0.046741	1.140113	0.820421
F115	F	-0.315318	1.099443	0.909863
F116	F	0.184682	1.599443	1.409863
H117	H	-0.917901	1.193004	0.486614
H118	H	-0.417901	1.693004	0.986614
F119	F	-0.701271	1.030276	0.911937
F120	F	-0.201271	1.530276	1.411937
F121	F	-1.109065	1.204307	0.461465
F122	F	-0.609065	1.704307	0.961465
F123	F	-0.654479	0.641722	0.374343
F124	F	-0.154479	1.141722	0.874343
H125	H	-0.484622	1.192322	1.102091
H126	H	0.015378	1.692322	1.602091
H127	H	-0.919492	1.089392	0.336380
H128	H	-0.419492	1.589392	0.836380
F129	F	-0.362245	0.977397	1.112855
F130	F	0.137755	1.477397	1.612855
H131	H	-0.345450	0.507175	0.448378
H132	H	0.154550	1.007175	0.948378
H133	H	-0.573621	0.955208	0.920146
H134	H	-0.073621	1.455208	1.420146
H135	H	-0.447068	0.506208	0.346789
H136	H	0.052932	1.006208	0.846789
H137	H	-1.100906	1.088559	0.336464
H138	H	-0.600906	1.588559	0.836464
H139	H	-1.101039	1.026382	0.676226
H140	H	-0.601039	1.526382	1.176226
H141	H	-0.376177	0.991311	0.920761
H142	H	0.123823	1.491311	1.420761
H143	H	-0.918028	0.992462	0.374547
H144	H	-0.418028	1.492462	0.874547
H145	H	-0.573400	0.954886	1.102281
H146	H	-0.073400	1.454886	1.602281
F147	F	-0.372543	0.640301	0.652677
F148	F	0.127457	1.140301	1.152677
H149	H	-1.102519	0.955572	0.574389
H150	H	-0.602519	1.455572	1.074389
F151	F	-0.465725	1.205833	0.911738
F152	F	0.034275	1.705833	1.411738
F153	F	-0.700188	1.029888	1.113161
F154	F	-0.200188	1.529888	1.613161
F155	F	-0.653471	0.501929	0.372619
F156	F	-0.153471	1.001929	0.872619
H157	H	-0.622138	1.165533	0.919122
H158	H	-0.122138	1.665533	1.419122
F159	F	-1.108740	0.973933	0.368038
F160	F	-0.608740	1.473933	0.868038
F161	F	-0.910840	0.937084	0.568063
F162	F	-0.410840	1.437084	1.068063
H163	H	-1.101999	1.167983	0.619708
H164	H	-0.601999	1.667983	1.119708
H165	H	-0.345924	0.634404	0.448241
H166	H	0.154076	1.134404	0.948241
F167	F	-0.910448	1.169058	0.649538
F168	F	-0.410448	1.669058	1.149538
F169	F	-0.318853	1.105174	1.110402
F170	F	0.181147	1.605174	1.610402
H171	H	-0.402422	0.506483	0.650949
H172	H	0.097578	1.006483	1.150949
H173	H	-0.685412	0.507379	0.536636
H174	H	-0.185412	1.007379	1.036636
