data_functionalizedCrystal
_audit_creation_method	'MofGen! by Chris Wilmer'
_symmetry_space_group_name_H-M	'P1'
_symmetry_Int_Tables_number	1
_symmetry_cell_setting	triclinic
loop_
_symmetry_equiv_pos_as_xyz
  x,y,z
_cell_length_a	14.519709
_cell_length_b	15.995350
_cell_length_c	12.996460
_cell_angle_alpha	89.996086
_cell_angle_beta	90.000034
_cell_angle_gamma	83.586260
loop_
_atom_site_label
_atom_site_type_symbol
_atom_site_fract_x
_atom_site_fract_y
_atom_site_fract_z
O1	O	1.223669	0.109760	-0.085428
O2	O	1.723669	0.609760	0.414572
O3	O	0.955169	0.122686	-0.085458
O4	O	1.455169	0.622686	0.414542
O5	O	1.096759	-0.005654	-0.085441
O6	O	1.596759	0.494346	0.414559
O7	O	1.082080	0.238099	-0.085445
O8	O	1.582080	0.738099	0.414555
O9	O	1.096744	-0.005661	0.085693
O10	O	1.596744	0.494339	0.585693
O11	O	0.955154	0.122678	0.085675
O12	O	1.455154	0.622678	0.585675
O13	O	1.223655	0.109753	0.085706
O14	O	1.723655	0.609753	0.585706
Cu15	Cu	1.089403	0.116215	0.101317
Cu16	Cu	1.589403	0.616215	0.601317
Cu17	Cu	1.089421	0.116224	-0.101069
Cu18	Cu	1.589421	0.616224	0.398931
O19	O	1.082065	0.238092	0.085689
O20	O	1.582065	0.738092	0.585689
C21	C	0.920803	0.122080	0.000104
C22	C	1.420803	0.622080	0.500104
C23	C	0.818425	0.120275	0.000092
C24	C	1.318425	0.620275	0.500092
C25	C	0.443541	0.113629	0.000139
C26	C	0.943541	0.613629	0.500139
C27	C	0.547846	0.115475	0.000126
C28	C	1.047846	0.615475	0.500126
C29	C	0.630980	0.116952	0.000115
C30	C	1.130980	0.616952	0.500115
C31	C	0.735291	0.118797	0.000104
C32	C	1.235291	0.618797	0.500104
C33	C	1.096145	-0.036853	0.000124
C34	C	1.596145	0.463147	0.500124
C35	C	1.094325	-0.129806	0.000118
C36	C	1.594325	0.370194	0.500118
C37	C	1.087791	-0.467563	0.000120
C38	C	1.587791	0.032437	0.500120
C39	C	0.986954	-0.420280	-0.000275
C40	C	1.486954	0.079720	0.499725
C41	C	0.988773	-0.323587	0.000111
C42	C	1.488773	0.176413	0.500111
C43	C	1.091032	-0.299998	0.000118
C44	C	1.591032	0.200002	0.500118
C45	C	1.140761	-0.341005	0.097848
C46	C	1.640761	0.158995	0.597848
C47	C	1.138227	-0.437645	0.097930
C48	C	1.638227	0.062355	0.597930
C49	C	1.140327	-0.437992	-0.096681
C50	C	1.640327	0.062008	0.403319
C51	C	1.140303	-0.341046	-0.097973
C52	C	1.640303	0.158954	0.402027
C53	C	1.092869	-0.205298	0.000121
C54	C	1.592869	0.294702	0.500121
C55	C	1.085957	-0.562264	0.000125
C56	C	1.585957	-0.062264	0.500125
C57	C	1.258021	0.110359	0.000141
C58	C	1.758021	0.610359	0.500141
C59	C	1.360399	0.112164	0.000146
C60	C	1.860399	0.612164	0.500146
C61	C	1.082679	0.269292	0.000122
C62	C	1.582679	0.769292	0.500122
C63	C	1.084498	0.362245	0.000121
C64	C	1.584498	0.862245	0.500121
N65	N	1.089398	0.116209	0.243664
N66	N	1.589398	0.616209	0.743664
N67	N	1.089433	0.116223	-0.243416
N68	N	1.589433	0.616223	0.256584
C69	C	1.089419	0.116224	0.663478
C70	C	1.589419	0.616224	1.163478
C71	C	1.089411	0.116223	0.546673
C72	C	1.589411	0.616223	1.046673
C73	C	1.089409	0.116217	0.453575
C74	C	1.589409	0.616217	0.953575
C75	C	1.089399	0.116214	0.336762
C76	C	1.589399	0.616214	0.836762
H77	H	0.949683	-0.295221	-0.069946
H78	H	1.449683	0.204779	0.430054
H79	H	0.946656	-0.438869	-0.070359
H80	H	1.446656	0.061131	0.429641
C81	C	1.240764	-0.480753	-0.097566
C82	C	1.740764	0.019247	0.402434
N83	N	1.316410	-0.512967	-0.098226
N84	N	1.816410	-0.012967	0.401774
C85	C	1.242248	-0.321754	0.102782
C86	C	1.742248	0.178246	0.602782
N87	N	1.318686	-0.307247	0.106501
N88	N	1.818686	0.192753	0.606501
H89	H	1.106210	-0.312678	0.170570
H90	H	1.606210	0.187322	0.670570
H91	H	1.107365	-0.458578	-0.170754
H92	H	1.607365	0.041422	0.329246
C93	C	1.091232	-0.304256	-0.195648
C94	C	1.591232	0.195744	0.304352
N95	N	1.054263	-0.276548	-0.269215
N96	N	1.554263	0.223452	0.230785
H97	H	0.946823	-0.439937	0.069410
H98	H	1.446823	0.060063	0.569410
C99	C	0.935596	-0.286024	0.094907
C100	C	1.435596	0.213976	0.594907
N101	N	0.895542	-0.257731	0.166313
N102	N	1.395542	0.242269	0.666313
C103	C	1.241051	-0.320149	-0.105934
C104	C	1.741051	0.179851	0.394066
N105	N	1.316940	-0.304412	-0.111921
N106	N	1.816940	0.195588	0.388079
H107	H	1.101953	-0.456003	0.170979
H108	H	1.601953	0.043997	0.670979
H109	H	1.212261	-0.469782	0.102369
H110	H	1.712261	0.030218	0.602369
