data_functionalizedCrystal
_audit_creation_method	'MofGen! by Chris Wilmer'
_symmetry_space_group_name_H-M	'P1'
_symmetry_Int_Tables_number	1
_symmetry_cell_setting	triclinic
loop_
_symmetry_equiv_pos_as_xyz
  x,y,z
_cell_length_a	9.065215
_cell_length_b	15.021413
_cell_length_c	9.065218
_cell_angle_alpha	89.994080
_cell_angle_beta	85.015291
_cell_angle_gamma	90.006891
loop_
_atom_site_label
_atom_site_type_symbol
_atom_site_fract_x
_atom_site_fract_y
_atom_site_fract_z
O1	O	1.960412	0.074018	0.216317
O2	O	1.531127	0.074021	0.234068
O3	O	1.754642	0.074018	0.010550
O4	O	1.736896	0.074021	0.439835
O5	O	1.754607	-0.074047	0.010582
O6	O	1.531091	-0.074043	0.234100
O7	O	1.960376	-0.074046	0.216349
Zn8	Zn	1.745728	-0.097553	0.225229
Zn9	Zn	1.745775	0.097528	0.225187
O10	O	1.736860	-0.074043	0.439867
C11	C	1.476122	-0.000010	0.232379
C12	C	1.312279	-0.000009	0.227281
N13	N	1.745707	-0.230691	0.225257
C14	C	1.642336	-0.470372	0.328562
C15	C	1.776051	-0.529708	0.358982
C16	C	1.745744	-0.412298	0.225221
C17	C	1.612066	-0.529704	0.194835
C18	C	1.745768	-0.587722	0.225189
C19	C	1.879527	-0.470326	0.255707
C20	C	1.715453	-0.470318	0.091502
C21	C	1.849264	-0.529626	0.121865
C22	C	1.745728	-0.311240	0.225243
C23	C	1.745799	-0.688777	0.225166
C24	C	2.015381	-0.000013	0.218038
C25	C	2.179224	-0.000009	0.223136
C26	C	1.752919	-0.000013	-0.044421
C27	C	1.747819	-0.000009	-0.208264
N28	N	1.745808	0.230666	0.225148
C29	C	1.738584	-0.000010	0.494837
C30	C	1.743683	-0.000009	0.658680
H31	H	1.801692	-0.555794	0.472051
H32	H	1.992612	-0.444354	0.281529
C33	C	1.384731	-0.466503	0.416182
C34	C	1.524410	-0.435239	0.446630
H35	H	1.311939	-0.444815	0.489079
H36	H	1.362976	-0.446163	0.321259
H37	H	1.384547	-0.529737	0.417583
H38	H	1.524597	-0.372005	0.445217
H39	H	1.546170	-0.455574	0.541577
H40	H	1.936819	-0.555480	0.034455
H41	H	1.689771	-0.444210	-0.021532
C42	C	1.426704	-0.533645	0.021169
C43	C	1.459447	-0.564914	0.160137
H44	H	1.332486	-0.555386	-0.000244
H45	H	1.425337	-0.470420	0.021840
H46	H	1.500073	-0.553937	-0.052339
H47	H	1.386084	-0.544616	0.233648
H48	H	1.460802	-0.628152	0.159477
