data_functionalizedCrystal
_audit_creation_method	'MofGen! by Chris Wilmer'
_symmetry_space_group_name_H-M	'P1'
_symmetry_Int_Tables_number	1
_symmetry_cell_setting	triclinic
loop_
_symmetry_equiv_pos_as_xyz
  x,y,z
_cell_length_a	15.995343
_cell_length_b	15.995350
_cell_length_c	14.048226
_cell_angle_alpha	89.995798
_cell_angle_beta	89.997860
_cell_angle_gamma	83.490779
loop_
_atom_site_label
_atom_site_type_symbol
_atom_site_fract_x
_atom_site_fract_y
_atom_site_fract_z
O1	O	1.110992	0.107897	-0.079060
O2	O	1.444325	0.441231	0.254273
O3	O	1.777658	0.774564	0.587606
O4	O	0.867216	0.121232	-0.079083
O5	O	1.200549	0.454565	0.254251
O6	O	1.533882	0.787898	0.587584
O7	O	0.995767	-0.007323	-0.079070
O8	O	1.329101	0.326010	0.254263
O9	O	1.662434	0.659343	0.587597
O10	O	0.982440	0.236452	-0.079073
O11	O	1.315773	0.569786	0.254260
O12	O	1.649107	0.903119	0.587594
O13	O	0.995752	-0.007331	0.079251
O14	O	1.329085	0.326002	0.412585
O15	O	1.662419	0.659336	0.745918
O16	O	0.867200	0.121224	0.079239
O17	O	1.200534	0.454557	0.412572
O18	O	1.533867	0.787891	0.745905
O19	O	1.110976	0.107890	0.079261
O20	O	1.444310	0.441223	0.412594
O21	O	1.777643	0.774556	0.745928
Zn22	Zn	0.989086	0.114556	0.104387
Zn23	Zn	1.322419	0.447889	0.437720
Zn24	Zn	1.655752	0.781222	0.771053
Zn25	Zn	0.989106	0.114566	-0.104208
Zn26	Zn	1.322439	0.447899	0.229125
Zn27	Zn	1.655773	0.781232	0.562458
O28	O	0.982424	0.236445	0.079248
O29	O	1.315758	0.569778	0.412582
O30	O	1.649091	0.903111	0.745915
C31	C	0.836013	0.120678	0.000075
C32	C	1.169346	0.454011	0.333408
C33	C	1.502680	0.787344	0.666742
C34	C	0.743062	0.119028	0.000067
C35	C	1.076396	0.452362	0.333400
C36	C	1.409729	0.785695	0.666733
C37	C	0.995209	-0.038522	0.000089
C38	C	1.328542	0.294811	0.333422
C39	C	1.661875	0.628145	0.666756
C40	C	0.993557	-0.131472	0.000083
C41	C	1.326890	0.201861	0.333417
C42	C	1.660224	0.535194	0.666750
C43	C	0.987625	-0.469220	0.000086
C44	C	1.320958	-0.135886	0.333419
C45	C	1.654291	0.197447	0.666753
C46	C	0.896072	-0.421783	-0.000277
C47	C	1.229406	-0.088450	0.333056
C48	C	1.562739	0.244884	0.666389
C49	C	0.897725	-0.325093	0.000080
C50	C	1.231058	0.008241	0.333413
C51	C	1.564391	0.341574	0.666746
C52	C	0.990567	-0.301659	0.000084
C53	C	1.323901	0.031674	0.333417
C54	C	1.657234	0.365008	0.666751
C55	C	1.035715	-0.342742	0.090496
C56	C	1.369049	-0.009409	0.423829
C57	C	1.702382	0.323924	0.757162
C58	C	1.033415	-0.439378	0.090571
C59	C	1.366749	-0.106045	0.423905
C60	C	1.700082	0.227289	0.757238
C61	C	1.035324	-0.439727	-0.089470
C62	C	1.368658	-0.106394	0.243864
C63	C	1.701991	0.226939	0.577197
C64	C	1.035303	-0.342782	-0.090664
C65	C	1.368636	-0.009449	0.242669
C66	C	1.701969	0.323885	0.576002
C67	C	0.992235	-0.206962	0.000086
C68	C	1.325568	0.126372	0.333420
C69	C	1.658902	0.459705	0.666753
C70	C	0.985960	-0.563917	0.000090
C71	C	1.319293	-0.230584	0.333424
C72	C	1.652626	0.102749	0.666757
C73	C	0.572876	0.116035	0.000079
C74	C	0.906209	0.449368	0.333413
C75	C	1.239543	0.782702	0.666746
C76	C	0.549530	0.023238	0.000080
C77	C	0.882864	0.356571	0.333414
C78	C	1.216197	0.689905	0.666747
C79	C	0.452852	0.021492	0.000445
C80	C	0.786186	0.354825	0.333778
C81	C	1.119519	0.688159	0.667112
C82	C	0.405316	0.113086	0.000091
C83	C	0.738649	0.446420	0.333424
C84	C	1.071983	0.779753	0.666757
C85	C	0.434399	0.159742	0.090320
C86	C	0.767732	0.493075	0.423653
C87	C	1.101065	0.826409	0.756986
C88	C	0.531191	0.160842	0.090390
C89	C	0.864525	0.494176	0.423723
C90	C	1.197858	0.827509	0.757056
C91	C	0.531119	0.162210	-0.089657
C92	C	0.864453	0.495543	0.243676
C93	C	1.197786	0.828876	0.577009
C94	C	0.434624	0.158784	-0.090838
C95	C	0.767958	0.492117	0.242496
C96	C	1.101291	0.825451	0.575829
C97	C	0.310618	0.111425	0.000100
C98	C	0.643951	0.444758	0.333434
C99	C	0.977284	0.778092	0.666767
C100	C	0.667574	0.117699	0.000076
C101	C	1.000907	0.451032	0.333409
C102	C	1.334240	0.784366	0.666743
C103	C	1.142179	0.108444	0.000101
C104	C	1.475512	0.441777	0.333434
C105	C	1.808846	0.775110	0.666768
C106	C	1.235130	0.110093	0.000104
C107	C	1.568463	0.443426	0.333437
C108	C	1.901796	0.776759	0.666770
C109	C	0.982983	0.267643	0.000087
C110	C	1.316317	0.600977	0.333421
C111	C	1.649650	0.934310	0.666754
C112	C	0.984635	0.360594	0.000087
C113	C	1.317968	0.693927	0.333420
C114	C	1.651302	1.027260	0.666753
N115	N	0.989078	0.114548	0.246747
N116	N	1.322411	0.447882	0.580081
N117	N	1.655745	0.781215	0.913414
N118	N	0.989121	0.114566	-0.246569
N119	N	1.322454	0.447900	0.086764
N120	N	1.655787	0.781233	0.420098
C121	C	1.046019	0.057648	0.296571
C122	C	1.379352	0.390981	0.629904
C123	C	1.712685	0.724314	0.963238
C124	C	1.046024	0.057647	0.396229
C125	C	1.379358	0.390981	0.729562
C126	C	1.712691	0.724314	1.062895
C127	C	0.989093	0.114552	0.446061
C128	C	1.322426	0.447885	0.779394
C129	C	1.655759	0.781219	1.112728
C130	C	0.932146	0.171455	0.396230
C131	C	1.265479	0.504789	0.729564
C132	C	1.598813	0.838122	1.062897
C133	C	0.932137	0.171451	0.296575
C134	C	1.265470	0.504785	0.629908
C135	C	1.598804	0.838118	0.963241
C136	C	0.932170	0.171461	0.603945
C137	C	1.265503	0.504795	0.937278
C138	C	1.598837	0.838128	1.270611
C139	C	0.932180	0.171467	0.703607
C140	C	1.265513	0.504800	1.036941
C141	C	1.598847	0.838134	1.370274
C142	C	1.046057	0.057657	0.703599
C143	C	1.379391	0.390991	1.036932
C144	C	1.712724	0.724324	1.370266
C145	C	1.046048	0.057653	0.603943
C146	C	1.379382	0.390987	0.937276
C147	C	1.712715	0.724320	1.270610
C148	C	0.989103	0.114558	0.554119
C149	C	1.322436	0.447891	0.887453
C150	C	1.655769	0.781225	1.220786
H151	H	0.862235	-0.296667	-0.064731
H152	H	1.195568	0.036667	0.268602
H153	H	1.528901	0.370000	0.601935
H154	H	0.433839	-0.015030	-0.064221
H155	H	0.767173	0.318303	0.269112
H156	H	1.100506	0.651637	0.602445
H157	H	1.092389	0.011314	0.436795
H158	H	1.425722	0.344647	0.770128
H159	H	1.759056	0.677981	1.103461
Cl160	Cl	1.117625	-0.013879	0.541295
Cl161	Cl	1.450958	0.319454	0.874628
Cl162	Cl	1.784291	0.652787	1.207962
Cl163	Cl	1.117598	-0.013891	0.233935
Cl164	Cl	1.450932	0.319443	0.567269
Cl165	Cl	1.784265	0.652776	0.900602
H166	H	1.100631	-0.471628	0.094677
H167	H	1.433965	-0.138295	0.428010
H168	H	1.767298	0.195039	0.761343
Cl169	Cl	1.117646	-0.013877	0.766238
Cl170	Cl	1.450980	0.319456	1.099571
Cl171	Cl	1.784313	0.652790	1.432904
H172	H	0.885796	0.217797	0.563381
H173	H	1.219129	0.551130	0.896715
H174	H	1.552463	0.884463	1.230048
Cl175	Cl	0.860603	0.243006	0.766246
Cl176	Cl	1.193937	0.576339	1.099579
Cl177	Cl	1.527270	0.909673	1.432913
H178	H	0.885787	0.217786	0.436809
H179	H	1.219120	0.551119	0.770143
H180	H	1.552454	0.884452	1.103476
H181	H	0.416073	0.124808	-0.157590
H182	H	0.749407	0.458141	0.175743
H183	H	1.082740	0.791474	0.509076
H184	H	0.885769	0.217784	0.256009
H185	H	1.219102	0.551118	0.589342
H186	H	1.552436	0.884451	0.922676
Cl187	Cl	0.383752	0.261975	-0.099679
Cl188	Cl	0.717085	0.595309	0.233654
Cl189	Cl	1.050419	0.928642	0.566987
Cl190	Cl	0.553696	0.265904	0.096336
Cl191	Cl	0.887029	0.599237	0.429670
Cl192	Cl	1.220362	0.932571	0.763003
H193	H	0.414300	0.127724	0.157724
H194	H	0.747634	0.461057	0.491057
H195	H	1.080967	0.794391	0.824390
Cl196	Cl	0.839581	-0.450386	-0.100381
Cl197	Cl	1.172914	-0.117052	0.232953
Cl198	Cl	1.506247	0.216281	0.566286
Cl199	Cl	0.842540	-0.282068	0.100302
Cl200	Cl	1.175874	0.051265	0.433635
Cl201	Cl	1.509207	0.384598	0.766968
Cl202	Cl	0.574773	0.117011	-0.195281
Cl203	Cl	0.908106	0.450344	0.138052
Cl204	Cl	1.241440	0.783678	0.471385
H205	H	0.545133	0.230514	-0.090528
H206	H	0.878466	0.563847	0.242805
H207	H	1.211799	0.897181	0.576139
Cl208	Cl	1.141025	-0.320939	0.095698
Cl209	Cl	1.474358	0.012395	0.429031
Cl210	Cl	1.807692	0.345728	0.762365
H211	H	0.859636	-0.441379	0.064191
H212	H	1.192969	-0.108046	0.397524
H213	H	1.526303	0.225288	0.730858
H214	H	1.000480	-0.457682	0.158152
H215	H	1.333814	-0.124348	0.491485
H216	H	1.667147	0.208985	0.824819
H217	H	1.004345	-0.314363	0.157774
H218	H	1.337678	0.018970	0.491107
H219	H	1.671012	0.352304	0.824440
Cl220	Cl	0.989112	-0.471419	-0.195270
Cl221	Cl	1.322445	-0.138086	0.138063
Cl222	Cl	1.655779	0.195247	0.471397
H223	H	1.103008	-0.327422	-0.096120
H224	H	1.436341	0.005912	0.237214
H225	H	1.769674	0.339245	0.570547
Cl226	Cl	0.984758	-0.300216	-0.193946
Cl227	Cl	1.318091	0.033117	0.139388
Cl228	Cl	1.651425	0.366450	0.472721
Cl229	Cl	1.139539	-0.488768	-0.090406
Cl230	Cl	1.472872	-0.155434	0.242928
Cl231	Cl	1.806206	0.177899	0.576261
Cl232	Cl	0.572540	0.111530	0.194920
Cl233	Cl	0.905873	0.444864	0.528253
Cl234	Cl	1.239207	0.778197	0.861586
H235	H	0.402552	0.227152	0.093421
H236	H	0.735886	0.560486	0.426754
H237	H	1.069219	0.893819	0.760088
H238	H	0.577544	-0.012728	-0.064614
H239	H	0.910877	0.320606	0.268720
H240	H	1.244211	0.653939	0.602053
H241	H	0.578508	-0.012148	0.064689
H242	H	0.911842	0.321185	0.398022
H243	H	1.245175	0.654518	0.731355
H244	H	0.434409	-0.014865	0.065504
H245	H	0.767742	0.318468	0.398837
H246	H	1.101076	0.651802	0.732171
