data_functionalizedCrystal
_audit_creation_method	'MofGen! by Chris Wilmer'
_symmetry_space_group_name_H-M	'P1'
_symmetry_Int_Tables_number	1
_symmetry_cell_setting	triclinic
loop_
_symmetry_equiv_pos_as_xyz
  x,y,z
_cell_length_a	15.297475
_cell_length_b	13.897448
_cell_length_c	15.296720
_cell_angle_alpha	80.353909
_cell_angle_beta	88.382886
_cell_angle_gamma	80.320483
loop_
_atom_site_label
_atom_site_type_symbol
_atom_site_fract_x
_atom_site_fract_y
_atom_site_fract_z
Zn1	Zn	1.253455	-0.750725	0.726608
Zn2	Zn	1.278728	-0.889621	0.580126
Zn3	Zn	1.132329	-0.696535	0.554848
Zn4	Zn	1.106953	-0.880140	0.701254
O5	O	1.192866	-0.804255	0.640709
O6	O	1.379388	-0.795796	0.728367
O7	O	1.280504	-0.845298	0.454198
O8	O	1.148440	-0.568756	0.577665
O9	O	1.397955	-0.897843	0.620747
O10	O	1.237431	-0.608569	0.703856
O11	O	1.172946	-0.703438	0.435627
O12	O	1.006383	-0.694244	0.553080
O13	O	1.105191	-0.881683	0.827192
O14	O	0.987740	-0.829138	0.660644
O15	O	1.212825	-0.786602	0.845820
O16	O	1.255899	-1.023331	0.596162
O17	O	1.129697	-1.016365	0.685154
C18	C	0.965278	-0.754783	0.601368
C19	C	0.867911	-0.733644	0.584559
C20	C	1.192807	-1.054852	0.640673
C21	C	1.192856	-1.162080	0.640700
C22	C	0.554781	-0.955341	0.760852
C23	C	0.646262	-0.975208	0.776642
C24	C	0.701679	-0.914818	0.728623
C25	C	0.665605	-0.834559	0.664810
C26	C	0.574115	-0.814694	0.649012
C27	C	0.721013	-0.774172	0.616784
C28	C	0.684939	-0.693913	0.552970
C29	C	0.593458	-0.674051	0.537176
C30	C	0.538042	-0.734441	0.585196
C31	C	0.812503	-0.794037	0.632581
C32	C	0.831837	-0.653391	0.520742
C33	C	0.740356	-0.633523	0.504951
C34	C	1.192939	-1.358403	0.640771
C35	C	1.192890	-1.249155	0.640734
C36	C	1.421344	-0.853922	0.680204
C37	C	1.518707	-0.875087	0.697035
C38	C	1.153358	-0.839129	0.869177
C39	C	1.136522	-0.853991	0.966536
C40	C	1.192947	-0.552688	0.640769
C41	C	1.192981	-0.445485	0.640795
C42	C	1.232271	-0.769458	0.413139
C43	C	1.249277	-0.754362	0.315809
C44	C	1.313229	-0.697877	1.279771
C45	C	1.329053	-0.683917	1.188298
C46	C	1.280921	-0.726434	1.132853
C47	C	1.216964	-0.782914	1.168890
C48	C	1.201143	-0.796882	1.260373
C49	C	1.168836	-0.825439	1.113455
C50	C	1.104878	-0.881919	1.149492
C51	C	1.089060	-0.895883	1.240966
C52	C	1.137191	-0.853367	1.296411
C53	C	1.184656	-0.811471	1.021973
C54	C	1.072570	-0.910475	1.002574
C55	C	1.056746	-0.924435	1.094047
H56	H	0.841865	-0.859385	0.684539
C57	C	0.822197	-1.019844	0.812140
C58	C	0.802236	-0.936649	0.745986
H59	H	0.884278	-1.033315	0.822865
H60	H	0.804131	-1.075230	0.793309
H61	H	0.791727	-1.007398	0.865115
H62	H	0.832701	-0.949098	0.693008
H63	H	0.820311	-0.881250	0.764813
H64	H	0.710971	-0.568175	0.452993
H65	H	1.352416	-0.663273	1.324923
H66	H	1.236730	-0.765483	0.992640
H67	H	0.463549	-0.718267	0.572344
C68	C	1.364603	-0.652524	1.012380
C69	C	1.298306	-0.711080	1.032303
H70	H	1.375330	-0.643036	0.950300
H71	H	1.417539	-0.684658	1.042833
H72	H	1.345894	-0.590156	1.030482
H73	H	1.317019	-0.773451	1.014207
H74	H	1.245360	-0.678947	1.001839
H75	H	0.675627	-1.040557	0.828598
C76	C	0.955070	-0.644133	0.420705
C77	C	0.892744	-0.587004	0.467955
H78	H	0.992678	-0.603153	0.388123
H79	H	0.925173	-0.673215	0.380969
H80	H	0.989639	-0.694768	0.460984
H81	H	0.858170	-0.536373	0.427676
H82	H	0.922644	-0.557906	0.507696
C83	C	0.405952	-0.987328	0.786283
C84	C	0.493867	-1.021714	0.813628
H85	H	0.368348	-1.028306	0.818872
H86	H	0.401136	-0.989100	0.724823
H87	H	0.388747	-0.921260	0.796624
H88	H	0.511075	-1.087780	0.803281
H89	H	0.498688	-1.019952	0.875102
C90	C	0.621760	-0.537018	0.428219
C91	C	0.553805	-0.585833	0.467029
H92	H	0.597277	-0.482553	0.384918
H93	H	0.663232	-0.581604	0.400804
H94	H	0.650846	-0.513778	0.472616
H95	H	0.524722	-0.609080	0.422633
H96	H	0.512317	-0.541239	0.494444
C97	C	1.438248	-0.587457	1.216667
C98	C	1.399346	-0.621831	1.148688
H99	H	1.481642	-0.549120	1.192210
H100	H	1.465569	-0.642210	1.258126
H101	H	1.393915	-0.547715	1.245759
H102	H	1.443679	-0.661580	1.119600
H103	H	1.372025	-0.567071	1.107214
H104	H	1.004671	-0.970421	1.123402
H105	H	1.124311	-0.864730	1.370897
C106	C	0.979851	-0.992336	1.212601
C107	C	1.018760	-0.957970	1.280580
H108	H	0.936447	-1.030660	1.237057
H109	H	1.024171	-1.032079	1.183511
H110	H	0.952532	-0.937571	1.171139
H111	H	1.046085	-1.012735	1.322039
H112	H	0.974432	-0.918225	1.309684
C113	C	1.047043	-0.933018	0.853734
C114	C	1.019655	-0.957211	0.941637
H115	H	1.014374	-0.961866	0.816112
H116	H	1.108478	-0.957642	0.848916
H117	H	1.036834	-0.863137	0.836555
H118	H	1.029870	-1.027092	0.958818
H119	H	0.958206	-0.932593	0.946458
