data_functionalizedCrystal
_audit_creation_method	'MofGen! by Chris Wilmer'
_symmetry_space_group_name_H-M	'P1'
_symmetry_Int_Tables_number	1
_symmetry_cell_setting	triclinic
loop_
_symmetry_equiv_pos_as_xyz
  x,y,z
_cell_length_a	18.215399
_cell_length_b	12.759401
_cell_length_c	12.759399
_cell_angle_alpha	90.016641
_cell_angle_beta	90.024962
_cell_angle_gamma	90.017882
loop_
_atom_site_label
_atom_site_type_symbol
_atom_site_fract_x
_atom_site_fract_y
_atom_site_fract_z
Zn1	Zn	-0.416093	-1.606232	0.418234
Zn2	Zn	-0.293033	-1.606131	0.593932
Zn3	Zn	-0.293044	-1.430540	0.418272
Zn4	Zn	-0.416062	-1.430521	0.593877
O5	O	-0.354558	-1.518356	0.506079
O6	O	-0.399777	-1.753239	0.441548
O7	O	-0.190050	-1.582804	0.570669
O8	O	-0.309385	-1.453896	0.271246
O9	O	-0.309365	-1.753165	0.570632
O10	O	-0.399788	-1.582976	0.271218
O11	O	-0.190059	-1.453798	0.441613
O12	O	-0.309355	-1.283516	0.441559
O13	O	-0.519050	-1.453864	0.570538
O14	O	-0.399735	-1.283502	0.570575
O15	O	-0.519073	-1.582958	0.441495
O16	O	-0.309335	-1.582786	0.740945
O17	O	-0.399724	-1.453766	0.740905
C18	C	-0.354543	-1.245388	0.506066
C19	C	-0.354555	-1.128612	0.506086
C20	C	-0.354541	-1.518291	0.779046
C21	C	-0.354559	-1.518360	0.895823
C22	C	-0.546511	-1.518420	0.506006
C23	C	-0.628310	-1.518447	0.505975
C24	C	-0.816517	-1.585690	0.438720
C25	C	-0.893376	-1.585703	0.438689
C26	C	-0.893341	-1.451278	0.573069
C27	C	-0.816484	-1.451261	0.573093
C28	C	-0.778074	-1.518473	0.505920
C29	C	-0.931790	-1.518503	0.505865
C30	C	-1.015123	-1.518516	0.505832
C31	C	-0.694735	-1.518459	0.505951
C32	C	-0.163352	-1.518352	0.506075
C33	C	-0.081553	-1.518529	0.505810
C34	C	-0.354573	-1.792389	0.506092
C35	C	-0.354580	-1.909166	0.506098
C36	C	-0.401542	-1.073770	0.573366
C37	C	-0.401556	-0.964046	0.573370
C38	C	-0.307590	-0.964015	0.438810
C39	C	-0.307580	-1.073737	0.438801
C40	C	-0.354591	-1.518449	0.232045
C41	C	-0.354605	-1.518489	0.115269
C42	C	-0.307547	-1.585617	0.950671
C43	C	-0.307571	-1.585685	1.060395
C44	C	-0.401622	-1.451229	1.060413
C45	C	-0.401601	-1.451167	0.950691
H46	H	-0.924673	-1.640436	0.383966
C47	C	-0.453315	-1.377179	0.890354
H48	H	-0.481328	-1.337160	0.938744
H49	H	-0.485395	-1.417320	0.847484
H50	H	-0.425122	-1.331398	0.847620
C51	C	-0.255915	-0.903650	0.364815
H52	H	-0.262644	-0.830448	0.374464
H53	H	-0.266765	-0.921649	0.294242
H54	H	-0.206446	-0.921601	0.380109
H55	H	-0.269318	-1.118390	0.384007
H56	H	-0.439921	-1.396521	1.105100
H57	H	-0.439819	-0.919399	0.628156
H58	H	-0.785246	-1.640416	0.384020
H59	H	-0.924624	-1.396559	0.627761
H60	H	-0.269243	-1.640331	0.906000
H61	H	-0.439793	-1.118446	0.628151
H62	H	-0.785182	-1.396517	0.627815
H63	H	-0.269291	-1.640454	1.105047
