data_functionalizedCrystal
_audit_creation_method	'MofGen! by Chris Wilmer'
_symmetry_space_group_name_H-M	'P1'
_symmetry_Int_Tables_number	1
_symmetry_cell_setting	triclinic
loop_
_symmetry_equiv_pos_as_xyz
  x,y,z
_cell_length_a	19.805407
_cell_length_b	16.625545
_cell_length_c	19.805399
_cell_angle_alpha	90.025578
_cell_angle_beta	90.019573
_cell_angle_gamma	90.025558
loop_
_atom_site_label
_atom_site_type_symbol
_atom_site_fract_x
_atom_site_fract_y
_atom_site_fract_z
Zn1	Zn	1.034740	-0.321020	0.382729
Zn2	Zn	1.368073	0.012313	0.716062
Zn3	Zn	1.701406	0.345646	1.049396
Zn4	Zn	1.034656	-0.455857	0.269545
Zn5	Zn	1.367990	-0.122524	0.602878
Zn6	Zn	1.701323	0.210809	0.936211
Zn7	Zn	0.921554	-0.321043	0.269554
Zn8	Zn	1.254888	0.012291	0.602887
Zn9	Zn	1.588221	0.345624	0.936220
Zn10	Zn	0.921520	-0.455815	0.382692
Zn11	Zn	1.254853	-0.122481	0.716025
Zn12	Zn	1.588186	0.210852	1.049358
O13	O	0.978117	-0.388434	0.326130
O14	O	1.311451	-0.055100	0.659463
O15	O	1.644784	0.278233	0.992796
O16	O	1.129445	-0.338915	0.367727
O17	O	1.462779	-0.005582	0.701060
O18	O	1.796112	0.327751	1.034394
O19	O	1.019633	-0.438001	0.174829
O20	O	1.352966	-0.104668	0.508163
O21	O	1.686299	0.228665	0.841496
O22	O	0.936618	-0.208207	0.284586
O23	O	1.269951	0.125126	0.617919
O24	O	1.603285	0.458459	0.951253
O25	O	1.129384	-0.437980	0.284571
O26	O	1.462717	-0.104646	0.617904
O27	O	1.796051	0.228687	0.951238
O28	O	1.019775	-0.208191	0.367736
O29	O	1.353108	0.125142	0.701069
O30	O	1.686442	0.458476	1.034402
O31	O	0.936537	-0.338953	0.174836
O32	O	1.269870	-0.005620	0.508169
O33	O	1.603204	0.327713	0.841503
O34	O	0.826833	-0.338912	0.284550
O35	O	1.160166	-0.005578	0.617883
O36	O	1.493500	0.327755	0.951216
O37	O	0.936559	-0.437907	0.477413
O38	O	1.269892	-0.104573	0.810746
O39	O	1.603225	0.228760	1.144080
O40	O	0.826808	-0.437928	0.367672
O41	O	1.160141	-0.104595	0.701005
O42	O	1.493474	0.228738	1.034338
O43	O	1.019741	-0.338874	0.477441
O44	O	1.353074	-0.005540	0.810774
O45	O	1.686408	0.327793	1.144107
O46	O	1.019599	-0.568684	0.284535
O47	O	1.352932	-0.235351	0.617868
O48	O	1.686266	0.097982	0.951201
O49	O	0.936478	-0.568653	0.367663
O50	O	1.269811	-0.235319	0.700996
O51	O	1.603145	0.098014	1.034330
C52	C	0.802261	-0.388418	0.326108
C53	C	1.135595	-0.055085	0.659441
C54	C	1.468928	0.278248	0.992775
C55	C	0.727029	-0.388431	0.326115
C56	C	1.060363	-0.055098	0.659448
C57	C	1.393696	0.278236	0.992781
C58	C	0.978044	-0.597925	0.326108
C59	C	1.311377	-0.264591	0.659442
C60	C	1.644711	0.068742	0.992775
C61	C	0.978074	-0.687546	0.326122
C62	C	1.311408	-0.354212	0.659455
C63	C	1.644741	-0.020879	0.992789
C64	C	0.691690	-0.440067	0.369326
C65	C	1.025023	-0.106733	0.702659
C66	C	1.358356	0.226600	1.035993
C67	C	0.621001	-0.440068	0.369336
C68	C	0.954335	-0.106735	0.702669
C69	C	1.287668	0.226599	1.036002
C70	C	0.585654	-0.388437	0.326130
C71	C	0.918987	-0.055104	0.659463
C72	C	1.252321	0.278229	0.992796
C73	C	0.620999	-0.336796	0.282916
C74	C	0.954332	-0.003463	0.616250
C75	C	1.287665	0.329870	0.949583
C76	C	0.691686	-0.336791	0.282911
C77	C	1.025019	-0.003458	0.616244
C78	C	1.358352	0.329875	0.949577
C79	C	0.335925	-0.336814	0.282939
C80	C	0.669259	-0.003481	0.616272
C81	C	1.002592	0.329853	0.949605
C82	C	0.265233	-0.336825	0.282946
C83	C	0.598567	-0.003491	0.616280
C84	C	0.931900	0.329842	0.949613
C85	C	0.265241	-0.440091	0.369364
C86	C	0.598574	-0.106757	0.702697
C87	C	0.931907	0.226576	1.036030
C88	C	0.335928	-0.440086	0.369358
C89	C	0.669261	-0.106753	0.702691
C90	C	1.002595	0.226581	1.036025
C91	C	0.371266	-0.388442	0.326147
C92	C	0.704600	-0.055109	0.659481
C93	C	1.037933	0.278225	0.992814
C94	C	0.447915	-0.388440	0.326138
C95	C	0.781248	-0.055107	0.659472
C96	C	1.114582	0.278227	0.992805
C97	C	0.509007	-0.388443	0.326135
C98	C	0.842340	-0.055110	0.659468
C99	C	1.175673	0.278224	0.992801
C100	C	0.978101	-0.760328	0.326135
C101	C	1.311434	-0.426995	0.659469
C102	C	1.644767	-0.093661	0.992802
C103	C	0.978140	-0.851637	0.326150
C104	C	1.311473	-0.518303	0.659484
C105	C	1.644807	-0.184970	0.992817
C106	C	0.978175	-0.924413	0.326159
C107	C	1.311509	-0.591080	0.659492
C108	C	1.644842	-0.257746	0.992826
C109	C	0.978214	-1.015727	0.326173
C110	C	1.311547	-0.682394	0.659506
C111	C	1.644881	-0.349061	0.992839
C112	C	1.154660	-0.388450	0.326152
C113	C	1.487993	-0.055116	0.659485
C114	C	1.821327	0.278217	0.992819
C115	C	1.229892	-0.388457	0.326162
C116	C	1.563225	-0.055123	0.659495
C117	C	1.896559	0.278210	0.992828
C118	C	0.978155	-0.388383	0.502673
C119	C	1.311489	-0.055050	0.836006
C120	C	1.644822	0.278284	1.169339
C121	C	0.978172	-0.388361	0.577905
C122	C	1.311505	-0.055028	0.911238
C123	C	1.644838	0.278305	1.244571
C124	C	0.978210	-0.178125	0.326166
C125	C	1.311543	0.155209	0.659499
C126	C	1.644876	0.488542	0.992833
C127	C	0.978249	-0.088504	0.326181
C128	C	1.311582	0.244830	0.659515
C129	C	1.644916	0.578163	0.992848
C130	C	0.978119	-0.388426	0.150274
C131	C	1.311452	-0.055093	0.483607
C132	C	1.644785	0.278241	0.816940
C133	C	0.978234	-0.388221	0.075042
C134	C	1.311567	-0.054887	0.408375
C135	C	1.644900	0.278446	0.741709
C136	C	1.021486	-0.336792	0.613264
C137	C	1.354819	-0.003459	0.946598
C138	C	1.688152	0.329874	1.279931
C139	C	1.021493	-0.336769	0.683953
C140	C	1.354826	-0.003436	1.017286
C141	C	1.688159	0.329898	1.350619
C142	C	0.978188	-0.388319	0.719280
C143	C	1.311522	-0.054986	1.052614
C144	C	1.644855	0.278347	1.385947
C145	C	0.934870	-0.439890	0.683916
C146	C	1.268203	-0.106557	1.017249
C147	C	1.601536	0.226776	1.350582
C148	C	0.934860	-0.439909	0.613228
C149	C	1.268193	-0.106576	0.946562
C150	C	1.601526	0.226758	1.279895
C151	C	0.934908	-0.439815	0.968989
C152	C	1.268241	-0.106482	1.302322
C153	C	1.601574	0.226851	1.635656
C154	C	0.934922	-0.439794	1.039681
C155	C	1.268256	-0.106461	1.373015
C156	C	1.601589	0.226872	1.706348
C157	C	1.021541	-0.336675	1.039713
C158	C	1.354874	-0.003342	1.373047
C159	C	1.688207	0.329992	1.706380
C160	C	1.021531	-0.336694	0.969026
C161	C	1.354864	-0.003360	1.302359
C162	C	1.688197	0.329973	1.635693
C163	C	0.978210	-0.388262	0.933668
C164	C	1.311543	-0.054928	1.267001
C165	C	1.644876	0.278405	1.600334
C166	C	0.978202	-0.388285	0.857019
C167	C	1.311535	-0.054952	1.190353
C168	C	1.644868	0.278381	1.523686
C169	C	0.978199	-0.388300	0.795927
C170	C	1.311533	-0.054967	1.129261
C171	C	1.644866	0.278366	1.462594
H172	H	0.720464	-0.482113	0.404507
H173	H	1.053798	-0.148780	0.737841
H174	H	1.387131	0.184554	1.071174
Br175	Br	0.383876	-0.266722	0.224299
Br176	Br	0.717209	0.066612	0.557633
Br177	Br	1.050543	0.399945	0.890966
Br178	Br	0.876114	-0.509799	0.921012
Br179	Br	1.209447	-0.176465	1.254345
Br180	Br	1.542780	0.156868	1.587678
Br181	Br	0.876095	-0.509848	0.731859
Br182	Br	1.209428	-0.176514	1.065193
Br183	Br	1.542761	0.156819	1.398526
Br184	Br	1.080334	-0.266687	1.087703
Br185	Br	1.413667	0.066646	1.421037
Br186	Br	1.747001	0.399979	1.754370
Br187	Br	1.080264	-0.266834	0.565326
Br188	Br	1.413597	0.066500	0.898660
Br189	Br	1.746931	0.399833	1.231993
H190	H	0.236455	-0.294776	0.247763
H191	H	0.569789	0.038558	0.581096
H192	H	0.903122	0.371891	0.914429
H193	H	0.592231	-0.482116	0.404522
H194	H	0.925564	-0.148782	0.737855
H195	H	1.258897	0.184551	1.071189
Br196	Br	1.080310	-0.266817	0.731938
Br197	Br	1.413643	0.066516	1.065272
Br198	Br	1.746977	0.399850	1.398605
Br199	Br	0.876070	-0.509893	0.565239
Br200	Br	1.209403	-0.176560	0.898573
Br201	Br	1.542737	0.156773	1.231906
Br202	Br	0.573028	-0.266717	0.224285
Br203	Br	0.906361	0.066616	0.557619
Br204	Br	1.239695	0.399949	0.890952
Br205	Br	0.739648	-0.266707	0.224268
Br206	Br	1.072981	0.066626	0.557601
Br207	Br	1.406315	0.399959	0.890935
H208	H	0.364704	-0.482132	0.404538
H209	H	0.698038	-0.148798	0.737872
H210	H	1.031371	0.184535	1.071205
Br211	Br	1.080306	-0.266735	0.921085
Br212	Br	1.413640	0.066598	1.254418
Br213	Br	1.746973	0.399932	1.587752
H214	H	0.236460	-0.482139	0.404550
H215	H	0.569793	-0.148805	0.737884
H216	H	0.903126	0.184528	1.071217
Br217	Br	0.876149	-0.509761	1.087626
Br218	Br	1.209483	-0.176428	1.420959
Br219	Br	1.542816	0.156905	1.754293
