data_functionalizedCrystal
_audit_creation_method	'MofGen! by Chris Wilmer'
_symmetry_space_group_name_H-M	'P1'
_symmetry_Int_Tables_number	1
_symmetry_cell_setting	triclinic
loop_
_symmetry_equiv_pos_as_xyz
  x,y,z
_cell_length_a	18.215407
_cell_length_b	21.295417
_cell_length_c	21.295411
_cell_angle_alpha	89.978356
_cell_angle_beta	89.977780
_cell_angle_gamma	90.027950
loop_
_atom_site_label
_atom_site_type_symbol
_atom_site_fract_x
_atom_site_fract_y
_atom_site_fract_z
Zn1	Zn	1.125078	-0.250724	-0.355872
Zn2	Zn	1.375078	-0.000724	-0.105872
Zn3	Zn	1.625078	0.249276	0.144128
Zn4	Zn	1.875078	0.499276	0.394128
Zn5	Zn	1.124964	-0.355976	-0.250597
Zn6	Zn	1.374964	-0.105976	-0.000597
Zn7	Zn	1.624964	0.144024	0.249403
Zn8	Zn	1.874964	0.394024	0.499403
Zn9	Zn	1.002001	-0.250720	-0.250621
Zn10	Zn	1.252001	-0.000720	-0.000621
Zn11	Zn	1.502001	0.249280	0.249379
Zn12	Zn	1.752001	0.499280	0.499379
Zn13	Zn	1.001965	-0.355954	-0.355833
Zn14	Zn	1.251965	-0.105954	-0.105833
Zn15	Zn	1.501965	0.144046	0.144167
Zn16	Zn	1.751965	0.394046	0.394167
O17	O	1.063502	-0.303343	-0.303231
O18	O	1.313502	-0.053343	-0.053231
O19	O	1.563502	0.196657	0.196769
O20	O	1.813502	0.446657	0.446769
O21	O	1.228047	-0.264696	-0.341913
O22	O	1.478047	-0.014696	-0.091913
O23	O	1.728047	0.235304	0.158087
O24	O	1.978047	0.485304	0.408087
O25	O	1.108620	-0.342020	-0.162511
O26	O	1.358620	-0.092020	0.087489
O27	O	1.608620	0.157980	0.337489
O28	O	1.858620	0.407980	0.587489
O29	O	1.018390	-0.162631	-0.264609
O30	O	1.268390	0.087369	-0.014609
O31	O	1.518390	0.337369	0.235391
O32	O	1.768390	0.587369	0.485391
O33	O	1.227964	-0.342025	-0.264569
O34	O	1.477964	-0.092025	-0.014569
O35	O	1.727964	0.157975	0.235431
O36	O	1.977964	0.407975	0.485431
O37	O	1.108815	-0.162634	-0.341937
O38	O	1.358815	0.087366	-0.091937
O39	O	1.608815	0.337366	0.158063
O40	O	1.858815	0.587366	0.408063
O41	O	1.018279	-0.264689	-0.162529
O42	O	1.268279	-0.014689	0.087471
O43	O	1.518279	0.235311	0.337471
O44	O	1.768279	0.485311	0.587471
O45	O	0.899012	-0.264669	-0.264572
O46	O	1.149012	-0.014669	-0.014572
O47	O	1.399012	0.235331	0.235428
O48	O	1.649012	0.485331	0.485428
O49	O	1.018329	-0.341988	-0.443928
O50	O	1.268329	-0.091988	-0.193928
O51	O	1.518329	0.158012	0.056072
O52	O	1.768329	0.408012	0.306072
O53	O	0.898985	-0.341984	-0.341871
O54	O	1.148985	-0.091984	-0.091871
O55	O	1.398985	0.158016	0.158129
O56	O	1.648985	0.408016	0.408129
O57	O	1.108780	-0.264676	-0.443956
O58	O	1.358780	-0.014676	-0.193956
O59	O	1.608780	0.235324	0.056044
O60	O	1.858780	0.485324	0.306044
O61	O	1.108585	-0.444062	-0.264531
O62	O	1.358585	-0.194062	-0.014531
O63	O	1.608585	0.055938	0.235469
O64	O	1.858585	0.305938	0.485469
O65	O	1.018218	-0.444047	-0.341848
O66	O	1.268218	-0.194047	-0.091848
O67	O	1.518218	0.055953	0.158152
O68	O	1.768218	0.305953	0.408152
C69	C	0.872296	-0.303324	-0.303220
C70	C	1.122296	-0.053324	-0.053220
C71	C	1.372296	0.196676	0.196780
C72	C	1.622296	0.446676	0.446780
C73	C	0.790497	-0.303331	-0.303230
C74	C	1.040497	-0.053331	-0.053230
C75	C	1.290497	0.196669	0.196770
C76	C	1.540497	0.446669	0.446770
C77	C	0.602346	-0.263149	-0.343567
C78	C	0.852346	-0.013149	-0.093567
C79	C	1.102346	0.236851	0.156433
C80	C	1.352346	0.486851	0.406433
C81	C	0.525487	-0.263155	-0.343569
C82	C	0.775487	-0.013155	-0.093569
C83	C	1.025487	0.236845	0.156431
C84	C	1.275487	0.486845	0.406431
C85	C	0.525410	-0.343555	-0.262906
C86	C	0.775410	-0.093555	-0.012906
C87	C	1.025410	0.156445	0.237094
C88	C	1.275410	0.406445	0.487094
C89	C	0.602268	-0.343546	-0.262901
C90	C	0.852268	-0.093546	-0.012901
C91	C	1.102268	0.156454	0.237099
C92	C	1.352268	0.406454	0.487099
C93	C	0.640733	-0.303344	-0.303235
C94	C	0.890733	-0.053344	-0.053235
C95	C	1.140733	0.196656	0.196765
C96	C	1.390733	0.446656	0.446765
C97	C	0.487017	-0.303359	-0.303242
C98	C	0.737017	-0.053359	-0.053242
C99	C	0.987017	0.196641	0.196758
C100	C	1.237017	0.446641	0.446758
C101	C	0.403684	-0.303365	-0.303244
C102	C	0.653684	-0.053365	-0.053244
C103	C	0.903684	0.196635	0.196756
C104	C	1.153684	0.446635	0.446756
C105	C	0.724072	-0.303337	-0.303233
C106	C	0.974072	-0.053337	-0.053233
C107	C	1.224072	0.196663	0.196767
C108	C	1.474072	0.446663	0.446767
C109	C	1.063405	-0.466895	-0.303196
C110	C	1.313405	-0.216895	-0.053196
C111	C	1.563405	0.033105	0.196804
C112	C	1.813405	0.283105	0.446804
C113	C	1.063432	-0.536863	-0.303202
C114	C	1.313432	-0.286863	-0.053202
C115	C	1.563432	-0.036863	0.196798
C116	C	1.813432	0.213137	0.446798
C117	C	1.110528	-0.569717	-0.262985
C118	C	1.360528	-0.319717	-0.012985
C119	C	1.610528	-0.069717	0.237015
C120	C	1.860528	0.180283	0.487015
C121	C	1.110562	-0.635460	-0.262999
C122	C	1.360562	-0.385460	-0.012999
C123	C	1.610562	-0.135460	0.237001
C124	C	1.860562	0.114540	0.487001
C125	C	1.063487	-0.668346	-0.303224
C126	C	1.313487	-0.418346	-0.053224
C127	C	1.563487	-0.168346	0.196776
C128	C	1.813487	0.081654	0.446776
C129	C	1.016388	-0.635484	-0.343449
C130	C	1.266388	-0.385484	-0.093449
C131	C	1.516388	-0.135484	0.156551
C132	C	1.766388	0.114516	0.406551
C133	C	1.016360	-0.569743	-0.343439
C134	C	1.266360	-0.319743	-0.093439
C135	C	1.516360	-0.069743	0.156561
C136	C	1.766360	0.180257	0.406561
N137	N	0.999109	-0.771610	-0.308019
N138	N	1.249109	-0.521610	-0.058019
N139	N	1.499109	-0.271610	0.191981
N140	N	1.749109	-0.021610	0.441981
N141	N	0.999138	-0.834061	-0.308026
N142	N	1.249138	-0.584061	-0.058026
N143	N	1.499138	-0.334061	0.191974
N144	N	1.749138	-0.084061	0.441974
C145	C	1.063570	-0.866420	-0.303260
C146	C	1.313570	-0.616420	-0.053260
C147	C	1.563570	-0.366420	0.196740
C148	C	1.813570	-0.116420	0.446740
N149	N	1.127974	-0.833969	-0.298475
N150	N	1.377974	-0.583969	-0.048475
N151	N	1.627974	-0.333969	0.201525
N152	N	1.877974	-0.083969	0.451525
N153	N	1.127944	-0.771512	-0.298465
N154	N	1.377944	-0.521512	-0.048465
N155	N	1.627944	-0.271512	0.201535
N156	N	1.877944	-0.021512	0.451535
C157	C	1.063513	-0.739631	-0.303241
C158	C	1.313513	-0.489631	-0.053241
C159	C	1.563513	-0.239631	0.196759
C160	C	1.813513	0.010369	0.446759
C161	C	1.110707	-0.970560	-0.263056
C162	C	1.360707	-0.720560	-0.013056
C163	C	1.610707	-0.470560	0.236944
C164	C	1.860707	-0.220560	0.486944
C165	C	1.110743	-1.036303	-0.263075
C166	C	1.360743	-0.786303	-0.013075
C167	C	1.610743	-0.536303	0.236925
C168	C	1.860743	-0.286303	0.486925
C169	C	1.016562	-1.036326	-0.343521
C170	C	1.266562	-0.786326	-0.093521
C171	C	1.516562	-0.536326	0.156479
C172	C	1.766562	-0.286326	0.406479
C173	C	1.016533	-0.970584	-0.343506
C174	C	1.266533	-0.720584	-0.093506
C175	C	1.516533	-0.470584	0.156494
C176	C	1.766533	-0.220584	0.406494
C177	C	1.063605	-0.937705	-0.303270
C178	C	1.313605	-0.687705	-0.053270
C179	C	1.563605	-0.437705	0.196730
C180	C	1.813605	-0.187705	0.446730
C181	C	1.255455	-0.303363	-0.303243
C182	C	1.505455	-0.053363	-0.053243
C183	C	1.755455	0.196637	0.196757
C184	C	2.005455	0.446637	0.446757
C185	C	1.337254	-0.303372	-0.303247
C186	C	1.587254	-0.053372	-0.053247
C187	C	1.837254	0.196628	0.196753
C188	C	2.087254	0.446628	0.446753
C189	C	1.063563	-0.303330	-0.467421
C190	C	1.313563	-0.053330	-0.217421
C191	C	1.563563	0.196670	0.032579
C192	C	1.813563	0.446670	0.282579
C193	C	1.063589	-0.303324	-0.537390
C194	C	1.313589	-0.053324	-0.287390
C195	C	1.563589	0.196676	-0.037390
C196	C	1.813589	0.446676	0.212610
C197	C	1.063619	-0.139153	-0.303280
C198	C	1.313619	0.110847	-0.053280
C199	C	1.563619	0.360847	0.196720
C200	C	1.813619	0.610847	0.446720
C201	C	1.063669	-0.069185	-0.303301
C202	C	1.313669	0.180815	-0.053301
C203	C	1.563669	0.430815	0.196699
C204	C	1.813669	0.680815	0.446699
C205	C	1.110685	-0.263066	-0.570272
C206	C	1.360685	-0.013066	-0.320272
C207	C	1.610685	0.236934	-0.070272
C208	C	1.860685	0.486934	0.179728
C209	C	1.110684	-0.263039	-0.636015
C210	C	1.360684	-0.013039	-0.386015
C211	C	1.610684	0.236961	-0.136015
C212	C	1.860684	0.486961	0.113985
C213	C	1.063595	-0.303281	-0.668872
C214	C	1.313595	-0.053281	-0.418872
C215	C	1.563595	0.196719	-0.168872
C216	C	1.813595	0.446719	0.081128
C217	C	1.016490	-0.343542	-0.635982
C218	C	1.266490	-0.093542	-0.385982
C219	C	1.516490	0.156458	-0.135982
C220	C	1.766490	0.406458	0.114018
C221	C	1.016487	-0.343564	-0.570241
C222	C	1.266487	-0.093564	-0.320241
C223	C	1.516487	0.156436	-0.070241
C224	C	1.766487	0.406436	0.179759
N225	N	1.057917	-0.358349	-0.772088
N226	N	1.307917	-0.108349	-0.522088
N227	N	1.557917	0.141651	-0.272088
N228	N	1.807917	0.391651	-0.022088
N229	N	1.057924	-0.358326	-0.834539
N230	N	1.307924	-0.108326	-0.584539
N231	N	1.557924	0.141674	-0.334539
N232	N	1.807924	0.391674	-0.084539
C233	C	1.063599	-0.303217	-0.866947
C234	C	1.313599	-0.053217	-0.616947
C235	C	1.563599	0.196783	-0.366947
C236	C	1.813599	0.446783	-0.116947
N237	N	1.069282	-0.248130	-0.834544
N238	N	1.319282	0.001870	-0.584544
N239	N	1.569282	0.251870	-0.334544
N240	N	1.819282	0.501870	-0.084544
N241	N	1.069279	-0.248153	-0.772087
N242	N	1.319279	0.001847	-0.522087
N243	N	1.569279	0.251847	-0.272087
N244	N	1.819279	0.501847	-0.022087
C245	C	1.063592	-0.303262	-0.740158
C246	C	1.313592	-0.053262	-0.490158
C247	C	1.563592	0.196738	-0.240158
C248	C	1.813592	0.446738	0.009842
C249	C	1.110697	-0.262926	-0.971115
C250	C	1.360697	-0.012926	-0.721115
C251	C	1.610697	0.237074	-0.471115
C252	C	1.860697	0.487074	-0.221115
C253	C	1.110691	-0.262898	-1.036859
C254	C	1.360691	-0.012898	-0.786859
C255	C	1.610691	0.237102	-0.536859
C256	C	1.860691	0.487102	-0.286859
C257	C	1.016500	-0.343407	-1.036825
C258	C	1.266500	-0.093407	-0.786825
C259	C	1.516500	0.156593	-0.536825
C260	C	1.766500	0.406593	-0.286825
C261	C	1.016503	-0.343429	-0.971082
C262	C	1.266503	-0.093429	-0.721082
C263	C	1.516503	0.156571	-0.471082
C264	C	1.766503	0.406571	-0.221082
C265	C	1.063605	-0.303190	-0.938231
C266	C	1.313605	-0.053190	-0.688231
C267	C	1.563605	0.196810	-0.438231
C268	C	1.813605	0.446810	-0.188231
C269	C	1.063483	-0.303311	-0.139680
C270	C	1.313483	-0.053311	0.110320
C271	C	1.563483	0.196689	0.360320
C272	C	1.813483	0.446689	0.610320
C273	C	1.063600	-0.303140	-0.069712
C274	C	1.313600	-0.053140	0.180288
C275	C	1.563600	0.196860	0.430288
C276	C	1.813600	0.446860	0.680288
H277	H	1.148858	-0.542949	-0.230224
H278	H	1.398858	-0.292949	0.019776
H279	H	1.648858	-0.042949	0.269776
H280	H	1.898858	0.207051	0.519776
F281	F	0.643281	-0.220361	-0.386493
F282	F	0.893281	0.029639	-0.136493
F283	F	1.143281	0.279639	0.113507
F284	F	1.393281	0.529639	0.363507
F285	F	1.160690	-0.670432	-0.220192
F286	F	1.410690	-0.420432	0.029808
F287	F	1.660690	-0.170432	0.279808
F288	F	1.910690	0.079568	0.529808
F289	F	0.643125	-0.386324	-0.219967
F290	F	0.893125	-0.136324	0.030033
F291	F	1.143125	0.113676	0.280033
F292	F	1.393125	0.363676	0.530033
H293	H	0.978061	-0.662264	-0.376202
H294	H	1.228061	-0.412264	-0.126202
H295	H	1.478061	-0.162264	0.123798
H296	H	1.728061	0.087736	0.373798
H297	H	0.978008	-0.542992	-0.376189
H298	H	1.228008	-0.292992	-0.126189
H299	H	1.478008	-0.042992	0.123811
H300	H	1.728008	0.207008	0.373811
H301	H	1.149038	-0.943788	-0.230295
H302	H	1.399038	-0.693788	0.019705
H303	H	1.649038	-0.443788	0.269705
H304	H	1.899038	-0.193788	0.519705
H305	H	1.149099	-1.063052	-0.230326
H306	H	1.399099	-0.813052	0.019674
H307	H	1.649099	-0.563052	0.269674
H308	H	1.899099	-0.313052	0.519674
F309	F	1.160800	-0.220178	-0.671018
F310	F	1.410800	0.029822	-0.421018
F311	F	1.660800	0.279822	-0.171018
F312	F	1.910800	0.529822	0.078982
H313	H	0.978236	-1.063102	-0.376276
H314	H	1.228236	-0.813102	-0.126276
H315	H	1.478236	-0.563102	0.123724
H316	H	1.728236	-0.313102	0.373724
F317	F	1.160812	-0.220237	-0.535313
F318	F	1.410812	0.029763	-0.285313
F319	F	1.660812	0.279763	-0.035313
F320	F	1.910812	0.529763	0.214687
F321	F	0.966404	-0.935617	-0.386309
F322	F	1.216404	-0.685617	-0.136309
F323	F	1.466404	-0.435617	0.113691
F324	F	1.716404	-0.185617	0.363691
H325	H	0.494082	-0.376287	-0.230068
H326	H	0.744082	-0.126287	0.019932
H327	H	0.994082	0.123713	0.269932
H328	H	1.244082	0.373713	0.519932
H329	H	1.149040	-0.230111	-1.063631
H330	H	1.399040	0.019889	-0.813631
H331	H	1.649040	0.269889	-0.563631
H332	H	1.899040	0.519889	-0.313631
H333	H	0.978156	-0.376216	-0.944309
H334	H	1.228156	-0.126216	-0.694309
H335	H	1.478156	0.123784	-0.444309
H336	H	1.728156	0.373784	-0.194309
F337	F	0.966372	-0.386369	-0.670952
F338	F	1.216372	-0.136369	-0.420952
F339	F	1.466372	0.113631	-0.170952
F340	F	1.716372	0.363631	0.079048
H341	H	0.978132	-0.376346	-0.543468
H342	H	1.228132	-0.126346	-0.293468
H343	H	1.478132	0.123654	-0.043468
H344	H	1.728132	0.373654	0.206532
F345	F	1.160823	-0.220098	-0.936150
F346	F	1.410823	0.029902	-0.686150
F347	F	1.660823	0.279902	-0.436150
F348	F	1.910823	0.529902	-0.186150
F349	F	0.966379	-0.386231	-1.071790
F350	F	1.216379	-0.136231	-0.821790
F351	F	1.466379	0.113769	-0.571790
F352	F	1.716379	0.363769	-0.321790
H353	H	0.494235	-0.230423	-0.376411
H354	H	0.744235	0.019577	-0.126411
H355	H	0.994235	0.269577	0.123589
H356	H	1.244235	0.519577	0.373589
