data_functionalizedCrystal
_audit_creation_method	'MofGen! by Chris Wilmer'
_symmetry_space_group_name_H-M	'P1'
_symmetry_Int_Tables_number	1
_symmetry_cell_setting	triclinic
loop_
_symmetry_equiv_pos_as_xyz
  x,y,z
_cell_length_a	23.532355
_cell_length_b	15.995300
_cell_length_c	15.072220
_cell_angle_alpha	90.003415
_cell_angle_beta	89.993350
_cell_angle_gamma	83.149652
loop_
_atom_site_label
_atom_site_type_symbol
_atom_site_fract_x
_atom_site_fract_y
_atom_site_fract_z
O1	O	0.755664	0.101431	-0.073653
O2	O	0.589851	0.116184	-0.073680
O3	O	0.677305	-0.013122	-0.073671
O4	O	0.668210	0.230737	-0.073663
O5	O	0.677283	-0.013115	0.073894
O6	O	0.589829	0.116191	0.073885
O7	O	0.755642	0.101439	0.073912
Zn8	Zn	0.672732	0.108816	0.097327
Zn9	Zn	0.672761	0.108806	-0.097096
O10	O	0.668188	0.230744	0.073902
C11	C	0.568622	0.115819	0.000099
C12	C	0.505399	0.114710	0.000088
C13	C	0.676923	-0.044311	0.000109
C14	C	0.675811	-0.137254	0.000100
C15	C	0.673757	-0.307419	0.000108
C16	C	0.736026	-0.355420	0.000116
C17	C	0.734890	-0.452098	0.000455
C18	C	0.671736	-0.474959	0.000115
C19	C	0.640830	-0.433554	0.084211
C20	C	0.642405	-0.336935	0.084278
C21	C	0.641508	-0.336659	-0.083537
C22	C	0.641514	-0.433604	-0.084639
C23	C	0.670590	-0.569644	0.000122
C24	C	0.674901	-0.212733	0.000107
C25	C	0.113348	0.107748	0.080562
C26	C	0.053945	0.106693	0.080566
O27	O	0.023214	0.106122	0.148974
N28	N	0.024246	0.106166	0.000128
C29	C	0.053954	0.106685	-0.080318
O30	O	0.023239	0.106139	-0.148736
C31	C	0.113357	0.107734	-0.080320
C32	C	0.143052	0.108270	0.000123
C33	C	0.143043	0.108282	0.160999
C34	C	0.202442	0.109339	0.160995
C35	C	0.232146	0.109860	0.080555
C36	C	0.202451	0.109326	0.000119
C37	C	0.143065	0.108247	-0.160765
C38	C	0.202472	0.109295	-0.160761
C39	C	0.232167	0.109831	-0.080318
C40	C	0.291554	0.110904	-0.080325
N41	N	0.321253	0.111431	0.000113
C42	C	0.291549	0.110909	0.080553
C43	C	-0.070795	0.104481	-0.080306
C44	C	-0.130198	0.103439	-0.080305
C45	C	-0.130203	0.103445	0.080579
C46	C	-0.070800	0.104494	0.080577
C47	C	-0.041097	0.105008	0.000131
C48	C	0.416291	0.113128	0.080539
C49	C	0.475695	0.114188	0.080528
C50	C	0.475696	0.114177	-0.080356
C51	C	0.416297	0.113122	-0.080345
C52	C	0.386596	0.112595	0.000109
O53	O	0.322323	0.111472	-0.148698
O54	O	0.322273	0.111444	0.148959
C55	C	0.776871	0.101804	0.000131
C56	C	0.840094	0.102912	0.000136
C57	C	0.668570	0.261933	0.000120
C58	C	0.669682	0.354876	0.000124
N59	N	0.672717	0.108822	0.230016
N60	N	0.672780	0.108794	-0.229785
C61	C	0.672760	0.108803	0.589218
C62	C	0.625808	0.177763	0.551605
C63	C	0.625915	0.178012	0.448780
C64	C	0.672738	0.108812	0.411014
C65	C	0.732159	0.127384	0.448315
C66	C	0.731896	0.127874	0.551173
C67	C	0.660820	0.021064	0.551313
C68	C	0.659456	0.021662	0.448449
C69	C	0.672729	0.108816	0.310300
C70	C	0.672772	0.108801	0.689931
H71	H	0.759175	-0.480774	-0.059814
H72	H	0.633326	0.242517	0.577447
H73	H	0.581495	0.166961	0.576359
H74	H	0.615745	0.007556	0.424069
N75	N	-0.162249	0.102881	0.167341
H76	H	-0.204482	0.103299	0.155132
H77	H	-0.147785	0.050568	0.201932
N78	N	0.668895	-0.471348	0.167433
H79	H	0.683968	-0.425645	0.203651
H80	H	0.639875	-0.498446	0.203483
H81	H	0.595472	-0.448553	-0.089977
N82	N	0.766894	-0.489265	0.080779
H83	H	0.781793	-0.442837	0.116109
H84	H	0.740222	-0.518851	0.118969
N85	N	0.671879	-0.312920	0.167879
H86	H	0.712165	-0.342830	0.169530
H87	H	0.673155	-0.250035	0.168719
N88	N	0.604662	-0.002746	0.585702
H89	H	0.572514	0.041248	0.566995
H90	H	0.597900	-0.059243	0.560547
H91	H	0.596680	-0.304268	0.087860
H92	H	0.691433	-0.032020	0.422744
H93	H	-0.046627	0.104930	0.146080
H94	H	0.594425	-0.447255	0.087095
N95	N	0.580698	-0.294032	-0.084625
H96	H	0.573991	-0.259512	-0.140570
H97	H	0.553355	-0.338106	-0.082766
N98	N	0.668672	-0.309747	-0.168000
H99	H	0.702161	-0.278323	-0.152894
H100	H	0.682469	-0.361148	-0.204485
H101	H	0.664083	-0.461142	-0.146854
H102	H	0.760686	-0.335961	0.060295
N103	N	0.507738	0.114736	-0.167115
H104	H	0.527760	0.167082	-0.170704
H105	H	0.536980	0.063222	-0.170638
H106	H	0.742934	0.190624	0.422550
N107	N	0.706171	-0.046908	0.583526
H108	H	0.734319	-0.021042	0.622481
H109	H	0.687534	-0.089982	0.618691
N110	N	0.635903	0.264348	0.416273
H111	H	0.674009	0.278484	0.438909
H112	H	0.635957	0.264921	0.349268
H113	H	0.767932	0.078472	0.423851
H114	H	-0.154371	0.103016	-0.145809
H115	H	0.742419	0.191845	0.575159
H116	H	0.581746	0.167022	0.423561
H117	H	0.761056	-0.337160	-0.060188
N118	N	0.779548	0.063830	0.584161
H119	H	0.773361	0.006094	0.561762
H120	H	0.817449	0.078902	0.561647
N121	N	0.507723	0.114772	0.167294
H122	H	0.479888	0.114279	0.218251
H123	H	0.536998	0.063298	0.170801
N124	N	0.384264	0.112558	0.167313
H125	H	0.412147	0.112486	0.218258
H126	H	0.355254	0.164325	0.171087
N127	N	0.234466	0.109916	0.247758
H128	H	0.206627	0.109424	0.298710
H129	H	0.263739	0.058438	0.251266
N130	N	0.111011	0.107717	0.247766
H131	H	0.138895	0.107643	0.298712
H132	H	0.082004	0.159486	0.251539
N133	N	-0.038760	0.105040	-0.167078
H134	H	-0.066592	0.104547	-0.218028
H135	H	-0.018739	0.157389	-0.170588
H136	H	0.118898	0.107810	-0.226271
H137	H	0.226654	0.109715	-0.226271
H138	H	0.392117	0.112700	-0.145848
