data_functionalizedCrystal
_audit_creation_method	'MofGen! by Chris Wilmer'
_symmetry_space_group_name_H-M	'P1'
_symmetry_Int_Tables_number	1
_symmetry_cell_setting	triclinic
loop_
_symmetry_equiv_pos_as_xyz
  x,y,z
_cell_length_a	21.395362
_cell_length_b	19.805405
_cell_length_c	19.805399
_cell_angle_alpha	89.970699
_cell_angle_beta	89.961981
_cell_angle_gamma	90.042288
loop_
_atom_site_label
_atom_site_type_symbol
_atom_site_fract_x
_atom_site_fract_y
_atom_site_fract_z
Zn1	Zn	0.957842	-0.269192	-0.383045
Zn2	Zn	1.291175	0.064141	-0.049711
Zn3	Zn	1.624508	0.397475	0.283622
Zn4	Zn	0.957763	-0.382380	-0.269853
Zn5	Zn	1.291096	-0.049047	0.063480
Zn6	Zn	1.624429	0.284286	0.396814
Zn7	Zn	0.853067	-0.269242	-0.269833
Zn8	Zn	1.186401	0.064091	0.063500
Zn9	Zn	1.519734	0.397425	0.396834
Zn10	Zn	0.853034	-0.382376	-0.382963
Zn11	Zn	1.186367	-0.049042	-0.049630
Zn12	Zn	1.519700	0.284291	0.283703
O13	O	0.905426	-0.325798	-0.326424
O14	O	1.238760	0.007536	0.006910
O15	O	1.572093	0.340869	0.340243
O16	O	1.045509	-0.284188	-0.368072
O17	O	1.378842	0.049146	-0.034739
O18	O	1.712176	0.382479	0.298594
O19	O	0.943856	-0.367395	-0.175134
O20	O	1.277189	-0.034062	0.158199
O21	O	1.610522	0.299271	0.491533
O22	O	0.867013	-0.174519	-0.284876
O23	O	1.200346	0.158815	0.048457
O24	O	1.533680	0.492148	0.381790
O25	O	1.045451	-0.367347	-0.284911
O26	O	1.378784	-0.034013	0.048423
O27	O	1.712118	0.299320	0.381756
O28	O	0.943990	-0.174482	-0.368053
O29	O	1.277324	0.158851	-0.034719
O30	O	1.610657	0.492185	0.298614
O31	O	0.866937	-0.284273	-0.175119
O32	O	1.200270	0.049060	0.158214
O33	O	1.533603	0.382394	0.491548
O34	O	0.765385	-0.284268	-0.284797
O35	O	1.098718	0.049065	0.048536
O36	O	1.432052	0.382398	0.381869
O37	O	0.866955	-0.367339	-0.477691
O38	O	1.200289	-0.034005	-0.144358
O39	O	1.533622	0.299328	0.188976
O40	O	0.765360	-0.367387	-0.367914
O41	O	1.098693	-0.034054	-0.034581
O42	O	1.432027	0.299279	0.298753
O43	O	0.943957	-0.284183	-0.477751
O44	O	1.277291	0.049150	-0.144417
O45	O	1.610624	0.382484	0.188916
O46	O	0.943823	-0.477096	-0.284832
O47	O	1.277156	-0.143763	0.048501
O48	O	1.610490	0.189570	0.381835
O49	O	0.866879	-0.477093	-0.367934
O50	O	1.200212	-0.143760	-0.034600
O51	O	1.533546	0.189574	0.298733
C52	C	0.742639	-0.325833	-0.326345
C53	C	1.075972	0.007500	0.006988
C54	C	1.409305	0.340833	0.340322
C55	C	0.672997	-0.325865	-0.326328
C56	C	1.006331	0.007468	0.007006
C57	C	1.339664	0.340802	0.340339
C58	C	0.905356	-0.501654	-0.326391
C59	C	1.238689	-0.168320	0.006943
C60	C	1.572022	0.165013	0.340276
C61	C	0.905383	-0.576886	-0.326399
C62	C	1.238716	-0.243552	0.006934
C63	C	1.572050	0.089781	0.340267
C64	C	0.640288	-0.369202	-0.369541
C65	C	0.973621	-0.035869	-0.036208
C66	C	1.306954	0.297464	0.297125
C67	C	0.574852	-0.369186	-0.369572
C68	C	0.908186	-0.035852	-0.036238
C69	C	1.241519	0.297481	0.297095
C70	C	0.542129	-0.325839	-0.326376
C71	C	0.875462	0.007494	0.006958
C72	C	1.208796	0.340828	0.340291
C73	C	0.574847	-0.282493	-0.283159
C74	C	0.908180	0.050840	0.050175
C75	C	1.241513	0.384174	0.383508
C76	C	0.640281	-0.282506	-0.283135
C77	C	0.973614	0.050827	0.050199
C78	C	1.306947	0.384161	0.383532
C79	C	0.438410	-0.320396	-0.265443
C80	C	0.771743	0.012937	0.067891
C81	C	1.105076	0.346270	0.401224
C82	C	0.372977	-0.320388	-0.265465
C83	C	0.706310	0.012945	0.067868
C84	C	1.039644	0.346279	0.401201
C85	C	0.340308	-0.325795	-0.326450
C86	C	0.673642	0.007539	0.006883
C87	C	1.006975	0.340872	0.340216
C88	C	0.373081	-0.331224	-0.387414
C89	C	0.706414	0.002109	-0.054081
C90	C	1.039748	0.335443	0.279252
C91	C	0.438515	-0.331237	-0.387390
C92	C	0.771848	0.002096	-0.054057
C93	C	1.105182	0.335430	0.279276
C94	C	0.471177	-0.325820	-0.326397
C95	C	0.804510	0.007514	0.006936
C96	C	1.137843	0.340847	0.340269
C97	C	0.236646	-0.369116	-0.369701
C98	C	0.569980	-0.035783	-0.036367
C99	C	0.903313	0.297550	0.296966
C100	C	0.171210	-0.369095	-0.369732
C101	C	0.504543	-0.035762	-0.036399
C102	C	0.837876	0.297572	0.296935
C103	C	0.171205	-0.282406	-0.283313
C104	C	0.504539	0.050927	0.050020
C105	C	0.837872	0.384261	0.383353
C106	C	0.236641	-0.282424	-0.283288
C107	C	0.569974	0.050910	0.050045
C108	C	0.903307	0.384243	0.383379
C109	C	0.269357	-0.325783	-0.326481
C110	C	0.602690	0.007551	0.006853
C111	C	0.936024	0.340884	0.340186
C112	C	0.945487	-0.612209	-0.283174
C113	C	1.278820	-0.278876	0.050160
C114	C	1.612153	0.054458	0.383493
C115	C	0.945513	-0.682897	-0.283189
C116	C	1.278847	-0.349564	0.050145
C117	C	1.612180	-0.016231	0.383478
C118	C	0.905433	-0.718261	-0.326426
C119	C	1.238766	-0.384928	0.006907
C120	C	1.572099	-0.051594	0.340240
C121	C	0.865327	-0.682933	-0.369657
C122	C	1.198660	-0.349599	-0.036324
C123	C	1.531994	-0.016266	0.297010
C124	C	0.865304	-0.612246	-0.369645
C125	C	1.198637	-0.278912	-0.036312
C126	C	1.531971	0.054421	0.297022
C127	C	0.865420	-0.968006	-0.369707
C128	C	1.198753	-0.634673	-0.036374
C129	C	1.532086	-0.301339	0.296960
C130	C	0.865444	-1.038698	-0.369714
C131	C	1.198778	-0.705365	-0.036381
C132	C	1.532111	-0.372031	0.296952
C133	C	0.945629	-1.038658	-0.283251
C134	C	1.278962	-0.705324	0.050082
C135	C	1.612295	-0.371991	0.383416
C136	C	0.945606	-0.967971	-0.283239
C137	C	1.278939	-0.634637	0.050094
C138	C	1.612272	-0.301304	0.383428
C139	C	0.905503	-0.932648	-0.326472
C140	C	1.238836	-0.599315	0.006862
C141	C	1.572170	-0.265982	0.340195
C142	C	0.905475	-0.856000	-0.326456
C143	C	1.238809	-0.522667	0.006878
C144	C	1.572142	-0.189333	0.340211
C145	C	0.905456	-0.794908	-0.326439
C146	C	1.238790	-0.461575	0.006894
C147	C	1.572123	-0.128242	0.340227
C148	C	1.068850	-0.325762	-0.326503
C149	C	1.402183	0.007571	0.006831
C150	C	1.735516	0.340905	0.340164
C151	C	1.138491	-0.325747	-0.326537
C152	C	1.471824	0.007586	0.006797
C153	C	1.805158	0.340920	0.340130
C154	C	0.905461	-0.325755	-0.502966
C155	C	1.238795	0.007578	-0.169633
C156	C	1.572128	0.340912	0.163700
C157	C	0.905476	-0.325737	-0.578198
C158	C	1.238810	0.007597	-0.244865
C159	C	1.572143	0.340930	0.088468
C160	C	0.905514	-0.149255	-0.326471
C161	C	1.238847	0.184079	0.006862
C162	C	1.572181	0.517412	0.340195
C163	C	0.905552	-0.074023	-0.326492
C164	C	1.238885	0.259311	0.006842
C165	C	1.572218	0.592644	0.340175
C166	C	0.945572	-0.282435	-0.613575
C167	C	1.278906	0.050898	-0.280241
C168	C	1.612239	0.384231	0.053092
C169	C	0.945579	-0.282416	-0.684263
C170	C	1.278912	0.050918	-0.350930
C171	C	1.612245	0.384251	-0.017597
C172	C	0.905492	-0.325701	-0.719574
C173	C	1.238825	0.007632	-0.386241
C174	C	1.572159	0.340965	-0.052907
C175	C	0.865392	-0.369005	-0.684193
C176	C	1.198725	-0.035671	-0.350859
C177	C	1.532058	0.297662	-0.017526
C178	C	0.865383	-0.369020	-0.613506
C179	C	1.198716	-0.035687	-0.280172
C180	C	1.532049	0.297646	0.053161
C181	C	0.865427	-0.368941	-0.969266
C182	C	1.198760	-0.035608	-0.635933
C183	C	1.532094	0.297725	-0.302600
C184	C	0.865441	-0.368924	-1.039958
C185	C	1.198774	-0.035590	-0.706625
C186	C	1.532107	0.297743	-0.373292
C187	C	0.945623	-0.282337	-1.040024
C188	C	1.278957	0.050996	-0.706691
C189	C	1.612290	0.384330	-0.373357
C190	C	0.945614	-0.282353	-0.969337
C191	C	1.278947	0.050981	-0.636003
C192	C	1.612281	0.384314	-0.302670
C193	C	0.905512	-0.325653	-0.933962
C194	C	1.238845	0.007680	-0.600628
C195	C	1.572178	0.341014	-0.267295
C196	C	0.905504	-0.325673	-0.857313
C197	C	1.238838	0.007660	-0.523980
C198	C	1.572171	0.340994	-0.190646
C199	C	0.905502	-0.325685	-0.796221
C200	C	1.238835	0.007648	-0.462888
C201	C	1.572169	0.340981	-0.129555
C202	C	0.905427	-0.325791	-0.150568
C203	C	1.238761	0.007542	0.182766
C204	C	1.572094	0.340876	0.516099
C205	C	0.905534	-0.325619	-0.075336
C206	C	1.238867	0.007715	0.257997
C207	C	1.572200	0.341048	0.591331
H208	H	0.666922	-0.404508	-0.404713
H209	H	1.000255	-0.071174	-0.071380
H210	H	1.333588	0.262159	0.261953
H211	H	0.346484	-0.335626	-0.437074
H212	H	0.679817	-0.002292	-0.103741
H213	H	1.013150	0.331041	0.229592
H214	H	0.263286	-0.404418	-0.404874
H215	H	0.596619	-0.071085	-0.071541
H216	H	0.929952	0.262248	0.261792
O217	O	0.822209	-1.076839	-0.416352
O218	O	1.155543	-0.743506	-0.083019
O219	O	1.488876	-0.410172	0.250315
H220	H	0.828958	-1.131926	-0.409088
H221	H	1.162291	-0.798593	-0.075755
H222	H	1.495624	-0.465260	0.257579
H223	H	0.978259	-0.247107	-0.940590
H224	H	1.311592	0.086226	-0.607257
H225	H	1.644926	0.419559	-0.273924
O226	O	0.539553	-0.235740	-0.236571
O227	O	0.872886	0.097593	0.096763
O228	O	1.206220	0.430927	0.430096
H229	H	0.573294	-0.205601	-0.206520
H230	H	0.906628	0.127732	0.126814
H231	H	1.239961	0.461065	0.460147
O232	O	0.988861	-0.235612	-1.078177
O233	O	1.322195	0.097721	-0.744844
O234	O	1.655528	0.431055	-0.411510
H235	H	0.982126	-0.242859	-1.133263
H236	H	1.315460	0.090474	-0.799929
H237	H	1.648793	0.423807	-0.466596
H238	H	0.978285	-1.067426	-0.248051
H239	H	1.311618	-0.734092	0.085282
H240	H	1.644951	-0.400759	0.418615
O241	O	0.988719	-0.574067	-0.236541
O242	O	1.322053	-0.240734	0.096792
O243	O	1.655386	0.092600	0.430125
H244	H	1.016615	-0.610509	-0.206492
H245	H	1.349949	-0.277175	0.126841
H246	H	1.683282	0.056158	0.460174
H247	H	0.978169	-0.711655	-0.247990
H248	H	1.311503	-0.378321	0.085344
H249	H	1.644836	-0.044988	0.418677
O250	O	0.822088	-0.721070	-0.416286
O251	O	1.155421	-0.387737	-0.082953
O252	O	1.488755	-0.054403	0.250380
H253	H	0.828833	-0.776158	-0.409026
H254	H	1.162167	-0.442825	-0.075693
H255	H	1.495500	-0.109491	0.257641
O256	O	0.822154	-0.929925	-0.416331
O257	O	1.155488	-0.596592	-0.082997
O258	O	1.488821	-0.263259	0.250336
H259	H	0.850158	-0.897669	-0.450813
H260	H	1.183492	-0.564335	-0.117479
H261	H	1.516825	-0.231002	0.215854
H262	H	0.978230	-0.247157	-0.713064
H263	H	1.311564	0.086176	-0.379730
H264	H	1.644897	0.419510	-0.046397
O265	O	0.473641	-0.314561	-0.199661
O266	O	0.806975	0.018773	0.133673
O267	O	1.140308	0.352106	0.467006
H268	H	0.503412	-0.359896	-0.192663
H269	H	0.836745	-0.026563	0.140670
H270	H	1.170079	0.306770	0.474004
H271	H	0.832648	-0.583486	-0.404844
H272	H	1.165982	-0.250153	-0.071511
H273	H	1.499315	0.083181	0.261822
H274	H	0.978241	-0.939180	-0.248028
H275	H	1.311574	-0.605846	0.085305
H276	H	1.644908	-0.272513	0.418638
H277	H	0.978218	-0.247189	-0.584830
H278	H	1.311551	0.086144	-0.251496
H279	H	1.644884	0.419477	0.081837
H280	H	0.263273	-0.247137	-0.248095
H281	H	0.596606	0.086196	0.085238
H282	H	0.929940	0.419530	0.418572
O283	O	0.822196	-0.415605	-1.078048
O284	O	1.155529	-0.082271	-0.744715
O285	O	1.488862	0.251062	-0.411381
H286	H	0.794302	-0.445711	-1.041575
H287	H	1.127636	-0.112378	-0.708241
H288	H	1.460969	0.220956	-0.374908
O289	O	0.822144	-0.415607	-0.931115
O290	O	1.155478	-0.082274	-0.597781
O291	O	1.488811	0.251060	-0.264448
H292	H	0.794265	-0.445693	-0.967546
H293	H	1.127598	-0.112360	-0.634213
H294	H	1.460932	0.220973	-0.300880
O295	O	0.822149	-0.415689	-0.722273
O296	O	1.155483	-0.082356	-0.388940
O297	O	1.488816	0.250977	-0.055606
H298	H	0.828894	-0.408408	-0.777370
H299	H	1.162228	-0.075075	-0.444037
H300	H	1.495561	0.258258	-0.110703
O301	O	0.822126	-0.415716	-0.575350
O302	O	1.155460	-0.082383	-0.242016
O303	O	1.488793	0.250950	0.091317
H304	H	0.832841	-0.468837	-0.588899
H305	H	1.166175	-0.135503	-0.255565
H306	H	1.499508	0.197830	0.077768
O307	O	0.539560	-0.415956	-0.416156
O308	O	0.872893	-0.082622	-0.082823
O309	O	1.206227	0.250711	0.250511
H310	H	0.573303	-0.446118	-0.446175
H311	H	0.906636	-0.112785	-0.112841
H312	H	1.239970	0.220548	0.220492
H313	H	0.465196	-0.335656	-0.437029
H314	H	0.798529	-0.002323	-0.103696
H315	H	1.131862	0.331011	0.229637
H316	H	0.144563	-0.247109	-0.248145
H317	H	0.477896	0.086224	0.085188
H318	H	0.811229	0.419558	0.418521
O319	O	0.135925	-0.415929	-0.416254
O320	O	0.469258	-0.082595	-0.082920
O321	O	0.802591	0.250738	0.250413
H322	H	0.169670	-0.446116	-0.446244
H323	H	0.503004	-0.112783	-0.112911
H324	H	0.836337	0.220551	0.220422
H325	H	0.346298	-0.315971	-0.215825
H326	H	0.679632	0.017362	0.117508
H327	H	1.012965	0.350695	0.450842
H328	H	0.666913	-0.247214	-0.247945
H329	H	1.000246	0.086120	0.085389
H330	H	1.333579	0.419453	0.418722
