data_functionalizedCrystal
_audit_creation_method	'MofGen! by Chris Wilmer'
_symmetry_space_group_name_H-M	'P1'
_symmetry_Int_Tables_number	1
_symmetry_cell_setting	triclinic
loop_
_symmetry_equiv_pos_as_xyz
  x,y,z
_cell_length_a	12.827893
_cell_length_b	13.032721
_cell_length_c	12.827885
_cell_angle_alpha	82.850965
_cell_angle_beta	90.019272
_cell_angle_gamma	97.204267
loop_
_atom_site_label
_atom_site_type_symbol
_atom_site_fract_x
_atom_site_fract_y
_atom_site_fract_z
Zn1	Zn	1.544798	-0.415987	0.643644
Zn2	Zn	1.522478	-0.590766	0.491086
Zn3	Zn	1.370033	-0.416038	0.468924
Zn4	Zn	1.347821	-0.590688	0.665776
O5	O	1.446282	-0.503370	0.567357
O6	O	1.688072	-0.439183	0.623419
O7	O	1.502211	-0.567642	0.341917
O8	O	1.411853	-0.269794	0.473563
O9	O	1.671673	-0.567593	0.511336
O10	O	1.540252	-0.269756	0.601929
O11	O	1.390210	-0.439270	0.325634
O12	O	1.220852	-0.439194	0.495024
O13	O	1.373995	-0.567460	0.809070
O14	O	1.204532	-0.567509	0.639651
O15	O	1.518714	-0.439108	0.792809
O16	O	1.480672	-0.736993	0.532797
O17	O	1.352352	-0.736936	0.661141
C18	C	1.174775	-0.503350	0.567335
C19	C	1.058620	-0.503366	0.567353
C20	C	0.998775	-0.566960	0.638834
C21	C	0.878722	-0.566978	0.638854
C22	C	1.411708	-0.774882	0.601798
C23	C	1.397013	-0.891037	0.616567
C24	C	1.454008	-0.942815	0.559696
C25	C	1.438821	-1.062867	0.574959
C26	C	1.718850	-0.503391	0.567381
C27	C	1.835002	-0.503400	0.567391
C28	C	1.446366	-0.503270	0.839915
C29	C	1.446402	-0.503227	0.956063
C30	C	1.481020	-0.230797	0.532805
C31	C	1.495823	-0.114643	0.518081
C32	C	1.446269	-0.503394	0.295851
C33	C	1.446473	-0.503143	0.179666
C34	C	1.518022	-0.439702	0.999800
C35	C	1.518061	-0.439656	1.119844
H36	H	0.827287	-0.621426	0.700049
H37	H	1.020978	-0.448931	0.506175
C38	C	1.550294	-0.299300	0.859117
C39	C	1.600765	-0.366329	0.930381
H40	H	1.601380	-0.254008	0.816258
H41	H	1.509931	-0.259266	0.896619
H42	H	1.505354	-0.339173	0.816130
H43	H	1.645699	-0.326456	0.973372
H44	H	1.641146	-0.406367	0.892875
H45	H	1.036418	-0.621387	0.700019
C46	C	1.584854	-0.953521	0.429041
C47	C	1.535059	-0.882690	0.478708
H48	H	1.634896	-0.916402	0.379045
H49	H	1.533988	-0.996160	0.394415
H50	H	1.619464	-0.996027	0.479982
H51	H	1.500442	-0.840189	0.427768
H52	H	1.585933	-0.840033	0.513335
C53	C	0.959656	-0.488809	0.425090
C54	C	0.904425	-0.429896	0.484769
H55	H	1.002525	-0.443428	0.374088
H56	H	0.911274	-0.534248	0.390777
H57	H	1.002642	-0.528691	0.469934
H58	H	0.861433	-0.390018	0.439926
H59	H	0.952813	-0.384438	0.519084
H60	H	1.378782	-1.107411	0.634956
C61	C	1.316602	-1.058453	0.696995
C62	C	1.315959	-0.951164	0.697551
H63	H	1.266556	-1.095568	0.746989
H64	H	1.384569	-1.076209	0.714596
H65	H	1.299099	-1.076344	0.629023
H66	H	1.333469	-0.933271	0.765522
H67	H	1.247977	-0.933400	0.679957
H68	H	1.555870	-1.070100	0.458092
C69	C	1.297427	-0.635350	0.962083
C70	C	1.363658	-0.576604	1.025477
H71	H	1.246340	-0.680646	1.004936
H72	H	1.337806	-0.675381	0.924593
H73	H	1.263204	-0.589860	0.913737
H74	H	1.397887	-0.622094	1.073817
H75	H	1.323274	-0.536571	1.062984
H76	H	1.579380	-0.385273	1.157488
H77	H	1.385157	-0.557536	1.142030
