data_functionalizedCrystal
_audit_creation_method	'MofGen! by Chris Wilmer'
_symmetry_space_group_name_H-M	'P1'
_symmetry_Int_Tables_number	1
_symmetry_cell_setting	triclinic
loop_
_symmetry_equiv_pos_as_xyz
  x,y,z
_cell_length_a	11.026607
_cell_length_b	15.944551
_cell_length_c	10.065875
_cell_angle_alpha	98.788968
_cell_angle_beta	79.302338
_cell_angle_gamma	96.042377
loop_
_atom_site_label
_atom_site_type_symbol
_atom_site_fract_x
_atom_site_fract_y
_atom_site_fract_z
O1	O	1.627949	0.342077	-0.113512
O2	O	1.274640	0.302024	-0.113511
O3	O	1.460941	0.201235	-0.113499
O4	O	1.441648	0.442866	-0.113524
O5	O	1.425416	0.220553	0.113487
O6	O	1.239115	0.321342	0.113475
O7	O	1.592424	0.361394	0.113475
Zn8	Zn	1.410129	0.344435	0.149514
Zn9	Zn	1.456935	0.318983	-0.149550
O10	O	1.406123	0.462183	0.113463
C11	C	1.211666	0.304294	-0.000018
C12	C	1.076950	0.282267	-0.000017
C13	C	1.003150	0.343086	-0.000024
C14	C	0.863914	0.320322	-0.000024
C15	C	1.442377	0.179479	-0.000006
C16	C	1.439975	0.085870	-0.000005
C17	C	1.318759	-0.147313	-0.000024
C18	C	1.357533	-0.190296	0.111894
C19	C	1.435632	-0.085514	-0.000015
C20	C	1.392586	-0.209321	-0.111896
C21	C	1.431429	-0.251063	-0.000031
C22	C	1.474424	-0.127256	0.111995
C23	C	1.509476	-0.146286	-0.111896
C24	C	1.548331	-0.189236	0.000049
C25	C	1.438050	0.009855	-0.000005
C26	C	1.429019	-0.346429	-0.000032
C27	C	1.655399	0.359124	-0.000022
C28	C	1.790116	0.381150	-0.000031
C29	C	1.424687	0.483939	-0.000034
C30	C	1.427090	0.577548	-0.000043
N31	N	1.378194	0.361806	0.353617
N32	N	1.488879	0.301607	-0.353654
C33	C	1.445816	0.325021	0.421401
C34	C	1.421248	0.338398	0.578566
H35	H	0.830005	0.450078	-0.000029
N36	N	1.589661	0.246764	0.569107
H37	H	1.652756	0.281894	0.509804
H38	H	1.631317	0.224061	0.636020
H39	H	1.521895	0.283620	0.363081
H40	H	0.824027	0.251392	-0.000052
H41	H	1.043047	0.412009	-0.000024
N42	N	1.272432	-0.216167	0.237218
H43	H	1.272062	-0.279582	0.236741
H44	H	1.302526	-0.185074	0.321680
H45	H	1.345156	0.379794	0.636882
N46	N	1.676931	-0.213716	0.000119
H47	H	1.707670	-0.183398	0.084688
H48	H	1.674649	-0.277282	-0.000736
H49	H	1.302107	0.403200	0.411939
H50	H	1.221730	-0.128661	0.000088
N51	N	1.024115	0.190970	0.000008
H52	H	0.932137	0.187649	0.000011
H53	H	1.065661	0.154932	-0.084133
H54	H	1.508991	-0.091738	0.206717
N55	N	1.594526	-0.120394	-0.237227
H56	H	1.563524	-0.150574	-0.321726
H57	H	1.596098	-0.056809	-0.235691
H58	H	1.357946	-0.244926	-0.206521
