data_functionalizedCrystal
_audit_creation_method	'MofGen! by Chris Wilmer'
_symmetry_space_group_name_H-M	'P1'
_symmetry_Int_Tables_number	1
_symmetry_cell_setting	triclinic
loop_
_symmetry_equiv_pos_as_xyz
  x,y,z
_cell_length_a	12.645331
_cell_length_b	25.639239
_cell_length_c	12.645324
_cell_angle_alpha	89.961230
_cell_angle_beta	89.977038
_cell_angle_gamma	90.037665
loop_
_atom_site_label
_atom_site_type_symbol
_atom_site_fract_x
_atom_site_fract_y
_atom_site_fract_z
Zn1	Zn	1.620580	-0.208125	-0.599395
Zn2	Zn	1.620395	-0.295575	-0.422113
Zn3	Zn	1.443293	-0.208154	-0.422139
Zn4	Zn	1.443211	-0.295530	-0.599328
O5	O	1.531870	-0.251846	-0.510744
O6	O	1.768902	-0.219733	-0.575895
O7	O	1.596860	-0.284009	-0.273769
O8	O	1.466922	-0.134985	-0.445691
O9	O	1.768767	-0.283981	-0.445647
O10	O	1.597174	-0.134964	-0.575920
O11	O	1.466744	-0.219781	-0.273788
O12	O	1.294935	-0.219737	-0.445627
O13	O	1.466782	-0.283905	-0.747685
O14	O	1.294875	-0.283932	-0.575807
O15	O	1.597094	-0.219689	-0.747733
O16	O	1.596780	-0.368734	-0.445582
O17	O	1.466603	-0.368701	-0.575782
C18	C	1.256440	-0.251833	-0.510713
C19	C	1.138610	-0.251841	-0.510725
C20	C	1.531692	-0.387688	-0.510695
C21	C	1.531712	-0.445803	-0.510710
C22	C	0.971049	-0.211270	-0.429281
C23	C	1.093608	-0.211375	-0.428922
C24	C	1.094049	-0.306920	-0.480197
C25	C	0.971450	-0.306699	-0.479641
C26	C	0.971472	-0.237856	-0.623013
C27	C	1.094078	-0.236626	-0.622389
C28	C	1.599830	-0.806170	-0.443064
C29	C	1.599871	-0.860774	-0.443079
O30	O	1.657602	-0.889015	-0.385511
N31	N	1.532056	-0.888085	-0.510814
C32	C	1.464204	-0.860788	-0.578547
O33	O	1.406526	-0.889032	-0.636163
C34	C	1.464169	-0.806185	-0.578538
C35	C	1.531980	-0.778877	-0.510790
C36	C	1.667636	-0.778862	-0.375323
C37	C	1.667594	-0.724262	-0.375308
C38	C	1.599744	-0.696969	-0.443034
C39	C	1.531937	-0.724277	-0.510775
C40	C	1.396322	-0.778889	-0.646275
C41	C	1.396294	-0.724282	-0.646261
C42	C	1.464105	-0.696975	-0.578513
C43	C	1.464045	-0.642383	-0.578485
N44	N	1.531860	-0.615073	-0.510750
C45	C	1.599709	-0.642366	-0.443024
C46	C	1.464284	-0.975459	-0.578564
C47	C	1.464312	-1.030061	-0.578569
C48	C	1.599981	-1.030043	-0.443101
C49	C	1.599946	-0.975440	-0.443092
C50	C	1.532098	-0.948148	-0.510828
C51	C	1.599614	-0.527701	-0.442997
C52	C	1.599562	-0.473095	-0.442984
C53	C	1.463897	-0.473118	-0.578455
C54	C	1.463945	-0.527718	-0.578464
C55	C	1.531812	-0.555008	-0.510731
O56	O	1.406347	-0.614108	-0.636027
O57	O	1.657387	-0.614115	-0.385428
C58	C	1.808375	-0.251859	-0.510775
C59	C	1.926205	-0.251864	-0.510789
C60	C	1.531949	-0.251789	-0.787249
C61	C	1.531983	-0.251765	-0.905079
C62	C	1.532078	-0.115473	-0.510816
C63	C	1.532166	-0.057359	-0.510846
C64	C	1.614281	-0.211484	-1.072674
C65	C	1.614018	-0.211338	-0.950114
C66	C	1.420312	-0.236791	-0.949561
C67	C	1.420812	-0.236485	-1.072160
C68	C	1.560450	-0.307078	-1.072264
C69	C	1.562893	-0.306800	-0.949658
C70	C	1.531852	-0.251865	-0.235314
C71	C	1.532023	-0.251742	-0.117485
H72	H	1.123740	-0.170531	-0.448058
H73	H	1.595200	-0.170346	-0.920811
H74	H	0.942795	-0.318577	-0.397599
H75	H	1.500541	-0.337075	-1.101249
H76	H	1.696825	-0.220716	-0.920041
H77	H	1.357439	-0.264532	-1.101800
H78	H	0.941615	-0.170303	-0.448212
H79	H	1.122879	-0.220634	-0.345759
H80	H	1.722815	-0.702031	-0.320146
H81	H	1.341045	-0.702064	-0.701423
H82	H	1.396711	-0.196035	-1.100779
H83	H	1.341098	-0.801114	-0.701438
H84	H	1.123213	-0.196093	-0.645409
H85	H	1.357357	-0.265212	-0.920387
H86	H	1.124716	-0.264036	-0.686368
H87	H	1.697363	-0.220743	-1.102165
H88	H	1.722893	-0.801078	-0.320173
H89	H	1.595705	-0.170718	-1.103508
H90	H	0.942471	-0.267423	-0.683743
H91	H	1.654782	-0.450863	-0.387812
H92	H	0.940194	-0.220426	-0.346607
H93	H	0.941783	-0.337969	-0.536418
H94	H	1.123195	-0.337975	-0.537699
H95	H	1.654880	-0.549914	-0.387844
H96	H	1.655165	-0.953209	-0.387927
H97	H	1.655232	-1.052275	-0.387959
H98	H	1.409083	-1.052291	-0.633725
H99	H	1.124695	-0.319003	-0.399035
H100	H	1.395769	-0.196792	-0.918876
H101	H	1.408731	-0.549954	-0.633633
H102	H	0.940604	-0.198393	-0.650774
H103	H	1.640455	-0.320710	-1.103246
H104	H	1.645073	-0.318091	-0.920584
H105	H	1.507332	-0.338410	-0.918998
H106	H	1.409025	-0.953241	-0.633720
H107	H	1.408652	-0.450888	-0.633594
