data_functionalizedCrystal
_audit_creation_method	'MofGen! by Chris Wilmer'
_symmetry_space_group_name_H-M	'P1'
_symmetry_Int_Tables_number	1
_symmetry_cell_setting	triclinic
loop_
_symmetry_equiv_pos_as_xyz
  x,y,z
_cell_length_a	12.759401
_cell_length_b	17.637651
_cell_length_c	12.759393
_cell_angle_alpha	101.250165
_cell_angle_beta	90.018496
_cell_angle_gamma	101.219542
loop_
_atom_site_label
_atom_site_type_symbol
_atom_site_fract_x
_atom_site_fract_y
_atom_site_fract_z
Zn1	Zn	1.521690	-0.314720	0.509310
Zn2	Zn	2.021690	0.185280	1.009310
Zn3	Zn	1.486052	-0.446958	0.298053
Zn4	Zn	1.986052	0.053042	0.798053
Zn5	Zn	1.345981	-0.314761	0.333638
Zn6	Zn	1.845981	0.185239	0.833638
Zn7	Zn	1.310465	-0.446897	0.473711
Zn8	Zn	1.810465	0.053103	0.973711
O9	O	1.416047	-0.380834	0.403678
O10	O	1.916047	0.119166	0.903678
O11	O	1.663982	-0.332270	0.481292
O12	O	2.163982	0.167730	0.981292
O13	O	1.467420	-0.429465	0.155741
O14	O	1.967420	0.070535	0.655741
O15	O	1.399068	-0.204114	0.386732
O16	O	1.899068	0.295886	0.886732
O17	O	1.637798	-0.429425	0.326083
O18	O	2.137798	0.070575	0.826083
O19	O	1.528160	-0.204083	0.515798
O20	O	2.028160	0.295917	1.015798
O21	O	1.364511	-0.332340	0.181885
O22	O	1.864511	0.167660	0.681885
O23	O	1.194251	-0.332281	0.352213
O24	O	1.694251	0.167719	0.852213
O25	O	1.338535	-0.429321	0.625466
O26	O	1.838535	0.070679	1.125466
O27	O	1.168157	-0.429361	0.455124
O28	O	1.668157	0.070639	0.955124
O29	O	1.493722	-0.332211	0.651620
O30	O	1.993722	0.167789	1.151620
O31	O	1.432982	-0.557592	0.291564
O32	O	1.932982	-0.057592	0.791564
O33	O	1.303978	-0.557547	0.420619
O34	O	1.803978	-0.057547	0.920619
C35	C	1.143084	-0.380820	0.403668
C36	C	1.643084	0.119180	0.903668
C37	C	1.026304	-0.380832	0.403683
C38	C	1.526304	0.119168	0.903683
C39	C	0.957860	-0.431463	0.457136
C40	C	1.457860	0.068537	0.957136
C41	C	0.848133	-0.431473	0.457145
C42	C	1.348133	0.068527	0.957145
C43	C	0.875304	-0.330220	0.350239
C44	C	1.375304	0.169780	0.850239
C45	C	0.985029	-0.330206	0.350238
C46	C	1.485029	0.169794	0.850238
C47	C	0.942172	-0.489923	0.518853
C48	C	1.442172	0.010077	1.018853
C49	C	0.832445	-0.489933	0.518862
C50	C	1.332445	0.010067	1.018862
C51	C	1.360787	-0.586258	0.348390
C52	C	1.860787	-0.086258	0.848390
C53	C	1.337243	-0.674139	0.324772
C54	C	1.837243	-0.174139	0.824772
C55	C	1.595593	-0.962796	0.583429
C56	C	2.095593	-0.462796	1.083429
C57	C	1.573436	-1.045373	0.561218
C58	C	2.073436	-0.545373	1.061218
C59	C	1.439101	-1.045512	0.426693
C60	C	1.939101	-0.545512	0.926693
C61	C	1.461250	-0.962933	0.448889
C62	C	1.961250	-0.462933	0.948889
C63	C	1.539496	-0.921581	0.527259
C64	C	2.039496	-0.421581	1.027259
C65	C	1.405154	-0.921718	0.392718
C66	C	1.905154	-0.421718	0.892718
C67	C	1.427298	-0.839146	0.414916
C68	C	1.927298	-0.339146	0.914916
C69	C	1.505538	-0.797788	0.493285
C70	C	2.005538	-0.297788	0.993285
C71	C	1.561640	-0.839009	0.549457
C72	C	2.061640	-0.339009	1.049457
C73	C	1.326903	-0.963072	0.314354
C74	C	1.826903	-0.463072	0.814354
C75	C	1.270807	-0.921857	0.258183
C76	C	1.770807	-0.421857	0.758183
C77	C	1.292955	-0.839283	0.280376
C78	C	1.792955	-0.339283	0.780376
C79	C	1.371196	-0.797926	0.358744
C80	C	1.871196	-0.297926	0.858744
C81	C	1.236853	-0.798063	0.224204
C82	C	1.736853	-0.298063	0.724204
C83	C	1.258997	-0.715491	0.246402
C84	C	1.758997	-0.215491	0.746402
C85	C	1.393339	-0.715354	0.380942
C86	C	1.893339	-0.215354	0.880942
C87	C	1.690076	-0.380849	0.403689
C88	C	2.190076	0.119151	0.903689
C89	C	1.806851	-0.380856	0.403694
C90	C	2.306851	0.119144	0.903694
C91	C	1.416142	-0.380754	0.677733
C92	C	1.916142	0.119246	1.177733
C93	C	1.416183	-0.380720	0.794519
C94	C	1.916183	0.119280	1.294519
C95	C	1.471551	-0.174608	0.459206
C96	C	1.971551	0.325392	0.959206
C97	C	1.495204	-0.086727	0.482868
C98	C	1.995204	0.413273	0.982868
C99	C	1.416028	-0.380857	0.130705
C100	C	1.916028	0.119143	0.630705
C101	C	1.416251	-0.380668	0.013979
C102	C	1.916251	0.119332	0.513979
C103	C	1.496999	-0.330150	0.863003
C104	C	1.996999	0.169850	1.363003
C105	C	1.497031	-0.330122	0.972734
C106	C	1.997031	0.169878	1.472734
C107	C	1.335427	-0.431240	0.945487
C108	C	1.835427	0.068760	1.445487
C109	C	1.335391	-0.431264	0.835759
C110	C	1.835391	0.068736	1.335759
C111	C	1.590302	-0.271772	0.878734
C112	C	2.090302	0.228228	1.378734
C113	C	1.590335	-0.271744	0.988466
C114	C	2.090335	0.228256	1.488466
H115	H	0.841684	-0.289001	0.306727
H116	H	1.341684	0.210999	0.806727
O117	O	1.303028	-1.052133	0.290413
O118	O	1.803028	-0.552133	0.790413
H119	H	1.217932	-1.073937	0.305730
H120	H	1.717932	-0.573937	0.805730
O121	O	1.679999	-0.918190	0.667949
O122	O	2.179999	-0.418190	1.167949
H123	H	1.685974	-0.853848	0.673938
H124	H	2.185974	-0.353848	1.173938
O125	O	1.572502	-0.194675	1.054308
O126	O	2.072502	0.305325	1.554308
H127	H	1.494027	-0.183691	1.030350
H128	H	1.994027	0.316309	1.530350
O129	O	1.058862	-0.275594	0.292598
O130	O	1.558862	0.224406	0.792598
H131	H	1.099340	-0.310928	0.229562
H132	H	1.599340	0.189072	0.729562
H133	H	0.804321	-0.468076	0.602094
H134	H	1.304321	0.031924	1.102094
H135	H	1.625364	-0.805338	0.613266
H136	H	2.125364	-0.305338	1.113266
O137	O	1.633950	-1.089830	0.621799
O138	O	2.133950	-0.589830	1.121799
H139	H	1.692083	-1.047200	0.680015
H140	H	2.192083	-0.547200	1.180015
H141	H	1.661676	-0.293723	0.838792
H142	H	2.161676	0.206277	1.338792
O143	O	0.987488	-0.468283	0.632497
O144	O	1.487488	0.031717	1.132497
H145	H	0.922655	-0.457690	0.688137
H146	H	1.422655	0.042310	1.188137
O147	O	1.248219	-0.485788	0.761878
O148	O	1.748219	0.014212	1.261878
H149	H	1.204300	-0.450381	0.721439
H150	H	1.704300	0.049619	1.221439
H151	H	1.173138	-0.831744	0.160403
H152	H	1.673138	-0.331744	0.660403
O153	O	0.966553	-0.566929	0.459352
O154	O	1.466553	-0.066929	0.959352
H155	H	0.890741	-0.607767	0.427813
H156	H	1.390741	-0.107767	0.927813
H157	H	1.667299	-0.288144	1.013832
H158	H	2.167299	0.211856	1.513832
O159	O	0.771179	-0.571018	0.467976
O160	O	1.271179	-0.071018	0.967976
H161	H	0.788501	-0.614678	0.514144
H162	H	1.288501	-0.114678	1.014144
H163	H	1.457063	-0.681683	0.444752
H164	H	1.957063	-0.181683	0.944752
O165	O	1.354727	-1.090122	0.342155
O166	O	1.854727	-0.590122	0.842155
H167	H	1.291157	-1.127752	0.379003
H168	H	1.791157	-0.627752	0.879003
O169	O	1.529436	-0.708727	0.517224
O170	O	2.029436	-0.208727	1.017224
H171	H	1.456015	-0.686976	0.544226
H172	H	1.956015	-0.186976	1.044226
O173	O	1.198506	-0.671029	0.185816
O174	O	1.698506	-0.171029	0.685816
H175	H	1.140386	-0.713655	0.127582
H176	H	1.640386	-0.213655	0.627582
H177	H	1.207096	-0.955537	0.194377
H178	H	1.707096	-0.455537	0.694377
H179	H	1.584987	-0.210541	0.865451
H180	H	2.084987	0.289459	1.365451
O181	O	1.248289	-0.485755	0.989966
O182	O	1.748289	0.014245	1.489966
H183	H	1.261891	-0.477244	1.077772
H184	H	1.761891	0.022756	1.577772
