data_functionalizedCrystal
_audit_creation_method	'MofGen! by Chris Wilmer'
_symmetry_space_group_name_H-M	'P1'
_symmetry_Int_Tables_number	1
_symmetry_cell_setting	triclinic
loop_
_symmetry_equiv_pos_as_xyz
  x,y,z
_cell_length_a	10.654547
_cell_length_b	10.654541
_cell_length_c	16.053802
_cell_angle_alpha	92.590712
_cell_angle_beta	87.393121
_cell_angle_gamma	84.484992
loop_
_atom_site_label
_atom_site_type_symbol
_atom_site_fract_x
_atom_site_fract_y
_atom_site_fract_z
O1	O	1.673092	0.171173	-0.069443
O2	O	1.307613	0.187976	-0.069442
O3	O	1.498757	-0.003165	-0.069438
O4	O	1.481948	0.362313	-0.069448
O5	O	1.488236	0.007312	0.069421
O6	O	1.297092	0.198453	0.069417
O7	O	1.662571	0.181650	0.069415
Zn8	Zn	1.478161	0.191715	0.091463
Zn9	Zn	1.492023	0.177911	-0.091489
O10	O	1.471427	0.372791	0.069411
C11	C	1.255555	0.191980	-0.000012
C12	C	1.116112	0.188287	-0.000012
C13	C	0.865564	0.169901	-0.151410
C14	C	0.936817	0.165927	-0.227102
C15	C	1.067834	0.169407	-0.227100
C16	C	1.127601	0.176858	-0.151398
C17	C	1.056348	0.180832	-0.075706
C18	C	0.925328	0.177355	-0.075716
C19	C	1.044858	0.192261	0.075681
C20	C	0.913840	0.188790	0.075680
C21	C	1.104625	0.199712	0.151383
C22	C	1.033371	0.203695	0.227077
C23	C	0.902345	0.200216	0.227071
C24	C	0.842586	0.192764	0.151372
C25	C	1.492263	-0.044724	-0.000009
C26	C	1.488572	-0.184168	-0.000010
C27	C	1.717136	-0.212136	-0.000000
C28	C	1.829678	-0.291628	0.000006
C29	C	1.826203	-0.422647	0.000004
C30	C	1.710173	-0.474174	-0.000008
C31	C	1.597630	-0.394681	-0.000015
C32	C	1.601118	-0.263661	-0.000009
C33	C	1.369070	-0.366714	-0.000030
C34	C	1.372542	-0.235695	-0.000022
C35	C	1.253040	-0.418241	-0.000042
C36	C	1.140494	-0.338748	-0.000042
C37	C	1.143974	-0.207722	-0.000039
C38	C	1.259999	-0.156202	-0.000028
C39	C	1.714629	0.177646	-0.000016
C40	C	1.854073	0.181339	-0.000022
C41	C	1.477921	0.414350	-0.000020
C42	C	1.481612	0.553793	-0.000024
N43	N	1.468709	0.201135	0.216323
N44	N	1.501485	0.168481	-0.216349
C45	C	1.550071	0.119834	0.260019
C46	C	1.543472	0.126436	0.347425
C47	C	1.455515	0.214345	0.391135
C48	C	1.374144	0.295650	0.347433
C49	C	1.380739	0.289041	0.260028
C50	C	1.426709	0.243177	0.652544
C51	C	1.420123	0.249782	0.739955
C52	C	1.589449	0.080565	0.739941
C53	C	1.596041	0.073970	0.652535
C54	C	1.514666	0.155270	0.608840
N55	N	1.448770	0.221098	0.480478
N56	N	1.521406	0.148510	0.519498
H57	H	1.082045	0.209754	0.288707
H58	H	0.735905	0.189938	0.151361
H59	H	1.719976	-0.105454	0.000013
C60	C	1.632947	0.036967	0.395487
N61	N	1.700332	-0.030437	0.431686
H62	H	1.250219	-0.524925	-0.000049
H63	H	1.211308	0.202537	0.151379
C64	C	1.277379	0.392340	0.395516
N65	N	1.204493	0.465169	0.431732
C66	C	1.291244	0.378489	0.211963
N67	N	1.223834	0.445865	0.175762
H68	H	1.125849	0.166169	-0.288735
H69	H	1.667662	0.002387	0.616948
C70	C	1.020165	-0.120289	-0.000048
N71	N	0.926910	-0.054439	-0.000054
C72	C	0.721440	0.166083	-0.151420
N73	N	0.612885	0.163204	-0.151429
C74	C	1.263839	-0.012081	-0.000025
N75	N	1.266736	0.096473	-0.000026
C76	C	1.323356	0.346490	0.788033
N77	N	1.250475	0.419327	0.824246
H78	H	1.924147	-0.249660	0.000023
C79	C	1.337357	0.332775	0.604491
N80	N	1.270112	0.400323	0.568295
C81	C	1.646831	0.023125	0.211947
N82	N	1.719709	-0.049723	0.175741
H83	H	1.655700	0.014373	0.775525
H84	H	0.888141	0.159855	-0.288738
H85	H	1.234285	0.179676	-0.151403
C86	C	0.823976	0.204592	0.310341
N87	N	0.764953	0.207891	0.373061
H88	H	1.917846	-0.487371	0.000002
H89	H	1.707354	-0.580858	-0.000020
H90	H	1.046032	-0.380713	-0.000057
