data_functionalizedCrystal
_audit_creation_method	'MofGen! by Chris Wilmer'
_symmetry_space_group_name_H-M	'P1'
_symmetry_Int_Tables_number	1
_symmetry_cell_setting	triclinic
loop_
_symmetry_equiv_pos_as_xyz
  x,y,z
_cell_length_a	6.817900
_cell_length_b	9.514088
_cell_length_c	11.102289
_cell_angle_alpha	88.634869
_cell_angle_beta	108.605707
_cell_angle_gamma	118.843545
loop_
_atom_site_label
_atom_site_type_symbol
_atom_site_fract_x
_atom_site_fract_y
_atom_site_fract_z
V1	V	-4.243923	-0.500743	-0.178092
O2	O	-4.200435	-0.491211	0.006240
O3	O	-4.219794	-0.497318	-0.350897
O4	O	-4.278445	-0.719134	-0.176370
O5	O	-4.141379	-0.267859	-0.169496
V6	V	-4.713661	-0.472888	-0.155924
O7	O	-4.535420	-0.561844	-0.226720
O8	O	-4.872362	-0.411786	-0.107296
O9	O	-4.514583	-0.476313	0.016881
O10	O	-4.874545	-0.482420	-0.340255
O11	O	-4.933602	-0.705772	-0.164520
O12	O	-4.455932	-0.254497	-0.157646
C13	C	-4.068017	-0.489418	-0.392991
C14	C	-4.130128	-0.488074	-0.534268
C15	C	-4.345434	-0.495454	-0.607149
C16	C	-4.403792	-0.494204	-0.739895
C17	C	-4.031512	-0.478188	-0.726865
C18	C	-3.973165	-0.479449	-0.594123
C19	C	-4.560363	-0.504693	-0.614672
C20	C	-4.618720	-0.503444	-0.747418
C21	C	-4.142830	-0.772365	-0.170363
C22	C	-4.252499	-0.950901	-0.170099
C23	C	-4.329702	-0.484208	0.058969
C24	C	-4.246833	-0.485563	0.200244
C25	C	-4.254888	-0.201257	-0.163657
C26	C	-4.124455	-0.022720	-0.163915
H27	H	-3.930937	-0.947624	-0.158835
H28	H	-4.703110	-0.621495	-0.595977
H29	H	-4.641022	-0.393738	-0.771894
C30	C	-4.839309	-0.664165	-0.826319
C31	C	-4.836274	-0.824665	-0.813200
C32	C	-5.056864	-0.985381	-0.892098
C33	C	-5.280489	-0.985597	-0.984113
C34	C	-5.283532	-0.825090	-0.997235
C35	C	-5.062942	-0.664374	-0.918338
H36	H	-4.670727	-0.824511	-0.745082
H37	H	-5.054610	-1.104199	-0.882383
H38	H	-5.443782	-1.104569	-1.042518
H39	H	-5.449080	-0.825244	-1.065354
H40	H	-5.065197	-0.545557	-0.928052
H41	H	-3.797860	-0.473458	-0.534790
H42	H	-3.903728	-0.471167	-0.775616
H43	H	-4.530492	-0.391457	-0.560936
H44	H	-4.446040	-1.026008	-0.175193
