data_functionalizedCrystal
_audit_creation_method	'MofGen! by Chris Wilmer'
_symmetry_space_group_name_H-M	'P1'
_symmetry_Int_Tables_number	1
_symmetry_cell_setting	triclinic
loop_
_symmetry_equiv_pos_as_xyz
  x,y,z
_cell_length_a	18.426585
_cell_length_b	23.196402
_cell_length_c	23.196402
_cell_angle_alpha	59.996656
_cell_angle_beta	89.999794
_cell_angle_gamma	60.000987
loop_
_atom_site_label
_atom_site_type_symbol
_atom_site_fract_x
_atom_site_fract_y
_atom_site_fract_z
Zr1	Zr	-0.095238	0.631009	0.555356
O2	O	-0.211113	0.751285	0.463297
O3	O	-0.059718	0.510737	0.583579
O4	O	-0.211120	0.631012	0.583571
O5	O	0.059720	0.631006	0.463311
O6	O	-0.211122	0.631010	0.678442
O7	O	-0.059711	0.631010	0.463306
O8	O	0.059708	0.415860	0.678458
O9	O	-0.211111	0.846155	0.463295
O10	O	-0.044568	0.560203	0.666416
O11	O	0.044564	0.560202	0.595618
O12	O	-0.133693	0.701810	0.595607
O13	O	-0.044561	0.701809	0.524809
Zr14	Zr	0.095237	0.630999	0.706674
Zr15	Zr	-0.095242	0.631005	0.706666
Zr16	Zr	0.095241	0.631002	0.555364
Zr17	Zr	-0.095234	0.782317	0.555353
Zr18	Zr	0.095233	0.479691	0.706677
O19	O	0.059717	0.751270	0.678451
O20	O	-0.211119	0.751279	0.678440
O21	O	0.059723	0.751275	0.463308
O22	O	0.211112	0.510723	0.798733
O23	O	-0.059724	0.510732	0.798722
O24	O	0.211118	0.510728	0.583590
O25	O	-0.059720	0.631001	0.798720
O26	O	0.211119	0.630995	0.678460
O27	O	0.211121	0.630998	0.583588
O28	O	0.059710	0.630997	0.798725
O29	O	-0.211114	0.846152	0.583566
O30	O	0.211113	0.415855	0.678464
O31	O	0.211110	0.415852	0.798735
O32	O	0.059705	0.415857	0.798729
O33	O	-0.059706	0.846150	0.463301
O34	O	-0.059709	0.846147	0.583572
O35	O	0.133692	0.560197	0.666423
O36	O	0.044560	0.560199	0.737221
O37	O	-0.044565	0.701805	0.666413
O38	O	0.044567	0.701804	0.595615
C39	C	-0.000005	0.441741	0.631019
C40	C	-0.000007	0.377507	0.631020
C41	C	-0.046511	-0.085336	0.667972
C42	C	-0.046519	-0.024977	0.667971
C43	C	0.000007	0.005205	0.631016
C44	C	0.046526	-0.024963	0.594045
C45	C	0.046526	-0.085315	0.594042
C46	C	0.077938	0.067229	0.636299
C47	C	0.077941	0.127576	0.636308
C48	C	0.000008	0.191353	0.631021
C49	C	-0.077928	0.194767	0.625741
C50	C	-0.077928	0.134415	0.625738
C51	C	0.000013	0.070646	0.631015
C52	C	-0.046522	0.286965	0.667983
C53	C	-0.046533	0.347329	0.667977
C54	C	0.046521	0.347335	0.594056
C55	C	0.046523	0.286979	0.594058
C56	C	0.000004	0.256794	0.631026
C57	C	-0.238260	0.631012	0.631005
C58	C	-0.319123	0.631014	0.631002
C59	C	-0.615207	0.630990	0.631029
C60	C	-0.532825	0.630993	0.631023
C61	C	-0.467168	0.631002	0.631015
C62	C	-0.384781	0.631006	0.631010
C63	C	0.238259	0.630996	0.631025
C64	C	0.319122	0.630993	0.631028
C65	C	0.000005	0.631009	0.441750
C66	C	0.000006	0.631010	0.377515
C67	C	0.000004	0.820267	0.631011
C68	C	0.000006	0.884501	0.631010
C69	C	-0.065793	0.631018	0.347340
C70	C	-0.065793	0.631011	0.286989
C71	C	0.000000	0.631012	0.256807
C72	C	0.065811	0.630999	0.286991
C73	C	0.065815	0.630998	0.347345
C74	C	0.020503	0.678519	0.137432
C75	C	0.020494	0.678524	0.077076
C76	C	-0.000005	0.631011	0.070656
C77	C	-0.020513	0.583502	0.124594
C78	C	-0.020510	0.583501	0.184948
C79	C	0.000004	0.631012	0.191363
C80	C	-0.065808	0.631010	-0.024958
C81	C	-0.065802	0.630998	-0.085307
C82	C	0.065799	0.630994	-0.085308
C83	C	0.065796	0.630998	-0.024955
C84	C	-0.000012	0.631010	0.005214
C85	C	-0.000006	0.630999	0.820280
C86	C	-0.000007	0.630997	0.884515
C87	C	-0.000011	0.441736	0.820284
C88	C	-0.000014	0.377500	0.884521
C89	C	0.238254	0.441733	0.631029
C90	C	0.319116	0.377496	0.631033
C91	C	0.238249	0.441728	0.820294
C92	C	0.319109	0.377489	0.884534
C93	C	-0.238250	0.820279	0.441736
C94	C	-0.319110	0.884518	0.377497
C95	C	0.000010	0.820271	0.441746
C96	C	0.000013	0.884507	0.377510
C97	C	-0.238255	0.820275	0.631001
C98	C	-0.319117	0.884511	0.630997
C99	C	-0.046547	0.347337	0.877727
C100	C	-0.046568	0.286989	0.938078
C101	C	-0.000050	0.256801	1.005222
C102	C	0.046485	0.286971	1.012014
C103	C	0.046500	0.347322	0.951664
C104	C	0.403621	0.347327	0.667995
C105	C	0.479606	0.286978	0.667997
C106	C	0.471084	0.256795	0.631041
C107	C	0.386570	0.286970	0.594074
C108	C	0.310587	0.347322	0.594069
C109	C	0.310555	0.347323	0.951664
C110	C	0.386524	0.286973	1.012029
C111	C	0.471046	0.256786	1.005264
C112	C	0.479598	0.286958	0.938127
C113	C	0.403629	0.347311	0.877763
C114	C	-0.310556	0.914692	0.310367
C115	C	-0.386525	0.975061	0.250001
C116	C	-0.471047	1.005251	0.256767
C117	C	-0.479599	0.975075	0.323904
C118	C	-0.403630	0.914711	0.384268
C119	C	0.046539	0.914677	0.384303
C120	C	0.046539	0.975041	0.323952
C121	C	0.000018	1.005231	0.256808
C122	C	-0.046514	0.975059	0.250016
C123	C	-0.046518	0.914700	0.310366
C124	C	-0.310566	0.914675	0.667961
C125	C	-0.386537	0.975025	0.667970
C126	C	-0.471057	1.005213	0.631011
C127	C	-0.479606	0.975043	0.594046
C128	C	-0.403636	0.914691	0.594041
H129	H	-0.084418	0.371892	0.698073
H130	H	0.532962	0.207653	0.631051
H131	H	-0.000069	0.207659	1.054357
H132	H	0.410606	0.371865	0.823105
H133	H	0.084433	0.999597	0.329497
H134	H	0.532897	0.207642	1.054422
H135	H	-0.084463	0.262433	0.932534
H136	H	-0.379559	0.999583	0.698070
H137	H	0.241741	0.371892	0.957186
H138	H	-0.084439	0.371915	0.823060
H139	H	-0.532909	1.054356	0.631021
H140	H	-0.084390	0.999649	0.195339
H141	H	0.141403	0.124786	0.640614
H142	H	-0.084403	0.890137	0.304825
H143	H	-0.548432	0.999632	0.563955
H144	H	0.084427	0.890101	0.438970
H145	H	0.084407	0.262416	0.563962
H146	H	-0.410610	0.890138	0.563938
H147	H	-0.084392	-0.109908	0.698072
H148	H	0.084358	0.262383	1.066691
H149	H	-0.548425	0.999664	0.329404
H150	H	-0.084400	-0.000413	0.698071
H151	H	-0.141386	0.137199	0.621437
H152	H	0.084398	0.371873	0.957205
H153	H	-0.037206	0.544816	0.228864
H154	H	-0.241752	0.890105	0.698057
H155	H	0.241781	0.371877	0.563972
H156	H	0.379546	0.262412	1.066690
H157	H	0.548425	0.262371	0.932628
H158	H	0.410577	0.371896	0.698090
H159	H	-0.532898	1.054403	0.207609
H160	H	0.000029	1.054380	0.207673
H161	H	0.379644	0.262386	0.563985
H162	H	-0.141389	0.246697	0.621434
H163	H	-0.241742	0.890114	0.304844
H164	H	-0.379545	0.999620	0.195341
H165	H	-0.410605	0.890144	0.438926
H166	H	-0.119376	0.631025	0.371904
H167	H	0.548414	0.262417	0.698102
H168	H	-0.119382	0.630999	-0.109874
H169	H	0.084399	0.371912	0.563963
H170	H	-0.084404	0.262390	0.698082
H171	H	0.141404	0.015303	0.640601
H172	H	0.084406	-0.000384	0.563955
H173	H	0.084406	-0.109874	0.563942
H174	H	-0.119377	0.631018	0.262416
H175	H	-0.037210	0.544815	0.119369
H176	H	-0.119391	0.631016	-0.000391
H177	H	0.119372	0.630990	-0.109879
H178	H	0.119374	0.630996	-0.000387
H179	H	0.037188	0.717212	0.033161
H180	H	0.037270	0.717160	0.142676
H181	H	0.119383	0.630998	0.262415
H182	H	0.119398	0.630991	0.371915
