data_functionalizedCrystal
_audit_creation_method	'MofGen! by Chris Wilmer'
_symmetry_space_group_name_H-M	'P1'
_symmetry_Int_Tables_number	1
_symmetry_cell_setting	triclinic
loop_
_symmetry_equiv_pos_as_xyz
  x,y,z
_cell_length_a	12.759401
_cell_length_b	29.839131
_cell_length_c	12.759393
_cell_angle_alpha	89.963184
_cell_angle_beta	89.980324
_cell_angle_gamma	90.041847
loop_
_atom_site_label
_atom_site_type_symbol
_atom_site_fract_x
_atom_site_fract_y
_atom_site_fract_z
Zn1	Zn	1.606071	-0.178827	-0.593939
Zn2	Zn	1.605880	-0.253964	-0.418239
Zn3	Zn	1.430370	-0.178849	-0.418278
Zn4	Zn	1.430280	-0.253931	-0.593880
O5	O	1.518150	-0.216392	-0.506084
O6	O	1.753067	-0.188798	-0.570640
O7	O	1.582556	-0.244023	-0.271223
O8	O	1.453795	-0.115979	-0.441620
O9	O	1.752927	-0.244001	-0.441554
O10	O	1.582882	-0.115962	-0.570677
O11	O	1.453610	-0.188836	-0.271251
O12	O	1.283337	-0.188804	-0.441563
O13	O	1.453641	-0.243945	-0.740909
O14	O	1.283271	-0.243967	-0.570578
O15	O	1.582794	-0.188766	-0.740952
O16	O	1.582469	-0.316826	-0.441498
O17	O	1.453456	-0.316802	-0.570541
C18	C	1.245183	-0.216385	-0.506069
C19	C	1.128406	-0.216392	-0.506088
C20	C	1.517961	-0.333115	-0.506032
C21	C	1.517976	-0.383049	-0.506045
C22	C	1.073618	-0.187700	-0.573406
C23	C	0.963894	-0.187705	-0.573413
C24	C	0.963756	-0.245097	-0.438780
C25	C	1.073478	-0.245090	-0.438769
C26	C	1.585450	-0.692693	-0.438990
C27	C	1.585579	-0.880366	-0.439030
O28	O	1.642798	-0.904630	-0.381978
N29	N	1.518368	-0.903834	-0.506163
C30	C	1.451125	-0.880382	-0.573295
O31	O	1.393968	-0.904650	-0.630405
C32	C	1.451001	-0.692710	-0.573259
C33	C	1.518209	-0.669244	-0.506114
C34	C	1.652653	-0.669226	-0.371851
C35	C	1.652616	-0.622311	-0.371838
C36	C	1.585375	-0.598862	-0.438962
C37	C	1.518172	-0.622328	-0.506101
C38	C	1.383764	-0.669258	-0.640396
C39	C	1.383741	-0.622337	-0.640383
C40	C	1.450949	-0.598871	-0.573238
C41	C	1.450895	-0.551964	-0.573212
N42	N	1.518106	-0.528495	-0.506079
C43	C	1.585346	-0.551944	-0.438954
C44	C	1.451193	-0.978913	-0.573308
C45	C	1.451223	-1.025830	-0.573316
C46	C	1.585679	-1.025811	-0.439052
C47	C	1.585643	-0.978892	-0.439040
C48	C	1.518404	-0.955444	-0.506175
C49	C	1.585262	-0.453418	-0.438930
C50	C	1.585216	-0.406499	-0.438920
C51	C	1.450764	-0.406522	-0.573187
C52	C	1.450806	-0.453438	-0.573194
C53	C	1.518064	-0.476885	-0.506063
O54	O	1.393715	-0.527670	-0.630243
O55	O	1.642510	-0.527668	-0.381870
C56	C	1.585487	-0.739608	-0.439003
C57	C	1.518283	-0.763075	-0.506142
C58	C	1.451043	-0.739625	-0.573266
C59	C	1.518313	-0.809992	-0.506149
C60	C	1.585553	-0.833441	-0.439025
C61	C	1.652764	-0.809973	-0.371892
C62	C	1.652727	-0.763057	-0.371878
C63	C	1.383832	-0.763094	-0.640399
C64	C	1.383874	-0.810010	-0.640407
C65	C	1.451114	-0.833459	-0.573282
C66	C	1.792184	-0.216401	-0.506099
C67	C	1.908960	-0.216404	-0.506106
C68	C	1.518229	-0.216349	-0.780117
C69	C	1.518263	-0.216331	-0.896894
C70	C	1.518370	-0.099214	-0.506159
C71	C	1.518463	-0.049280	-0.506191
C72	C	1.585518	-0.187595	-0.951780
C73	C	1.585535	-0.187575	-1.061504
C74	C	1.451040	-0.245032	-1.061447
C75	C	1.451018	-0.245049	-0.951725
C76	C	1.518133	-0.216403	-0.233117
C77	C	1.518303	-0.216295	-0.116340
H78	H	1.118337	-0.164331	-0.628218
H79	H	1.640300	-0.164175	-1.106187
H80	H	1.118088	-0.268455	-0.383944
H81	H	1.396243	-0.268449	-0.907035
C82	C	1.659153	-0.380687	-0.365059
C83	C	1.650650	-0.387184	-0.245618
C84	C	1.724586	-0.361375	-0.171761
C85	C	1.807023	-0.329067	-0.217346
C86	C	1.815529	-0.322569	-0.336793
C87	C	1.741593	-0.348378	-0.410649
H88	H	1.589622	-0.411101	-0.211868
H89	H	1.718289	-0.366186	-0.083339
H90	H	1.861755	-0.309962	-0.162672
H91	H	1.876557	-0.298652	-0.370542
H92	H	1.747890	-0.343567	-0.499072
H93	H	1.640270	-0.164209	-0.907140
C94	C	1.659580	-0.953082	-0.365187
C95	C	1.742027	-0.920780	-0.410775
C96	C	1.815970	-0.894973	-0.336922
C97	C	1.807465	-0.901467	-0.217480
C98	C	1.725014	-0.933770	-0.171886
C99	C	1.651072	-0.959577	-0.245739
H100	H	1.748326	-0.915972	-0.499199
H101	H	1.877005	-0.871060	-0.370674
H102	H	1.862202	-0.882362	-0.162809
H103	H	1.718715	-0.938578	-0.083462
H104	H	1.590036	-0.983490	-0.211987
H105	H	0.919290	-0.164340	-0.628229
C106	C	1.659238	-0.479205	-0.365080
C107	C	1.650708	-0.472791	-0.245637
C108	C	1.724676	-0.498578	-0.171781
C109	C	1.807174	-0.530780	-0.217367
C110	C	1.815707	-0.537196	-0.336816
C111	C	1.741739	-0.511409	-0.410672
H112	H	1.589635	-0.448952	-0.211886
H113	H	1.718358	-0.493828	-0.083357
H114	H	1.861929	-0.549869	-0.162694
H115	H	1.876780	-0.561035	-0.370567
H116	H	1.748057	-0.516158	-0.499096
H117	H	0.919021	-0.268463	-0.383973
C118	C	1.377082	-0.276624	-1.121763
C119	C	1.377107	-0.276610	-1.242453
C120	C	1.303150	-0.308204	-1.302767
C121	C	1.229168	-0.339813	-1.242390
C122	C	1.229140	-0.339829	-1.121694
C123	C	1.303097	-0.308234	-1.061380
H124	H	1.431875	-0.253210	-1.287154
H125	H	1.303171	-0.308192	-1.392115
H126	H	1.174420	-0.363201	-1.287038
H127	H	1.174372	-0.363228	-1.076993
H128	H	1.303077	-0.308246	-0.972032
H129	H	1.707345	-0.603207	-0.317166
H130	H	1.640429	-1.044911	-0.384397
H131	H	1.707414	-0.688314	-0.317190
H132	H	1.396083	-0.472545	-0.627872
H133	H	1.396485	-1.044933	-0.627982
H134	H	1.396436	-0.959824	-0.627980
H135	H	1.329031	-0.688357	-0.695068
H136	H	1.328988	-0.603248	-0.695056
C137	C	1.376807	-0.380721	-0.647024
C138	C	1.294331	-0.348513	-0.601421
C139	C	1.220380	-0.322710	-0.675263
C140	C	1.228904	-0.329115	-0.794709
C141	C	1.311383	-0.361324	-0.840318
C142	C	1.385334	-0.387127	-0.766476
H143	H	1.288018	-0.343771	-0.512994
H144	H	1.159324	-0.298866	-0.641500
H145	H	1.174161	-0.310014	-0.849372
H146	H	1.317697	-0.366067	-0.928745
H147	H	1.446391	-0.410971	-0.800239
H148	H	1.707454	-0.743954	-0.317203
C149	C	1.309936	-0.835819	-0.714271
C150	C	1.227490	-0.868125	-0.668702
C151	C	1.153562	-0.893932	-0.742571
C152	C	1.162080	-0.887432	-0.862010
C153	C	1.244529	-0.855124	-0.907586
C154	C	1.318458	-0.829317	-0.833717
H155	H	1.221182	-0.872939	-0.580280
H156	H	1.092527	-0.917849	-0.708833
H157	H	1.107354	-0.906536	-0.916693
H158	H	1.250838	-0.850311	-0.996007
H159	H	1.379492	-0.805400	-0.867455
C160	C	1.309859	-0.737306	-0.714241
C161	C	1.190435	-0.743820	-0.705557
C162	C	1.116452	-0.718035	-0.779402
C163	C	1.161893	-0.685735	-0.861930
C164	C	1.281323	-0.679219	-0.870618
C165	C	1.355306	-0.705004	-0.796773
H166	H	1.156791	-0.767732	-0.644462
H167	H	1.028042	-0.722859	-0.772970
H168	H	1.107126	-0.666647	-0.916595
H169	H	1.314967	-0.655307	-0.931714
H170	H	1.443716	-0.700180	-0.803205
H171	H	1.707511	-0.829073	-0.317233
