data_functionalizedCrystal
_audit_creation_method	'MofGen! by Chris Wilmer'
_symmetry_space_group_name_H-M	'P1'
_symmetry_Int_Tables_number	1
_symmetry_cell_setting	triclinic
loop_
_symmetry_equiv_pos_as_xyz
  x,y,z
_cell_length_a	19.077105
_cell_length_b	18.050590
_cell_length_c	19.076919
_cell_angle_alpha	87.729485
_cell_angle_beta	89.923776
_cell_angle_gamma	87.714864
loop_
_atom_site_label
_atom_site_type_symbol
_atom_site_fract_x
_atom_site_fract_y
_atom_site_fract_z
Zn1	Zn	1.058306	-0.359282	0.440410
Zn2	Zn	1.558306	0.140718	0.940410
Zn3	Zn	1.062957	-0.478691	0.322901
Zn4	Zn	1.562957	0.021309	0.822901
Zn5	Zn	0.945523	-0.349334	0.318204
Zn6	Zn	1.445523	0.150666	0.818204
Zn7	Zn	0.940779	-0.478243	0.435654
Zn8	Zn	1.440779	0.021757	0.935654
O9	O	1.001891	-0.416388	0.379292
O10	O	1.501891	0.083612	0.879292
O11	O	1.157255	-0.379473	0.428779
O12	O	1.657255	0.120527	0.928779
O13	O	1.051311	-0.457555	0.223947
O14	O	1.551311	0.042445	0.723947
O15	O	0.960522	-0.246732	0.334440
O16	O	1.460522	0.253268	0.834440
O17	O	1.160673	-0.467202	0.342445
O18	O	1.660673	0.032798	0.842445
O19	O	1.043383	-0.254041	0.424224
O20	O	1.543383	0.245959	0.924224
O21	O	0.965032	-0.362517	0.220496
O22	O	1.465032	0.137483	0.720496
O23	O	0.846561	-0.362083	0.329827
O24	O	1.346561	0.137917	0.829827
O25	O	0.952437	-0.466439	0.534616
O26	O	1.452437	0.033561	1.034616
O27	O	0.843076	-0.456792	0.416117
O28	O	1.343076	0.043208	0.916117
O29	O	1.038784	-0.379039	0.538111
O30	O	1.538784	0.120961	1.038111
O31	O	1.046712	-0.582553	0.337833
O32	O	1.546712	-0.082553	0.837833
O33	O	0.956948	-0.582224	0.420672
O34	O	1.456948	-0.082224	0.920672
C35	C	0.819322	-0.408310	0.371947
C36	C	1.319322	0.091690	0.871947
C37	C	0.741218	-0.404873	0.368821
C38	C	1.241218	0.095127	0.868821
C39	C	1.001838	-0.609336	0.379262
C40	C	1.501838	-0.109336	0.879262
C41	C	1.001879	-0.691884	0.379275
C42	C	1.501879	-0.191884	0.879275
C43	C	0.702731	-0.452637	0.412209
C44	C	1.202731	0.047363	0.912209
C45	C	0.629343	-0.449397	0.409275
C46	C	1.129343	0.050603	0.909275
C47	C	0.594444	-0.398397	0.362950
C48	C	1.094444	0.101603	0.862950
C49	C	0.632936	-0.350628	0.319561
C50	C	1.132936	0.149372	0.819561
C51	C	0.706322	-0.353864	0.322498
C52	C	1.206322	0.146136	0.822498
C53	C	0.375155	-0.383420	0.349358
C54	C	0.875155	0.116580	0.849358
C55	C	0.301764	-0.380189	0.346422
C56	C	0.801764	0.119811	0.846422
C57	C	0.298176	-0.478958	0.436137
C58	C	0.798176	0.021042	0.936137
C59	C	0.371564	-0.482193	0.439068
C60	C	0.871564	0.017807	0.939068
C61	C	0.410049	-0.434421	0.395681
C62	C	0.910049	0.065579	0.895681
N63	N	0.519430	-0.395087	0.359949
N64	N	1.019430	0.104913	0.859949
N65	N	0.485062	-0.437728	0.398687
N66	N	0.985062	0.062272	0.898687
C67	C	1.050788	-0.891494	0.334297
C68	C	1.550788	-0.391494	0.834297
C69	C	1.065373	-0.944195	0.399117
C70	C	1.565373	-0.444195	0.899117
C71	C	1.001918	-0.843017	0.379305
C72	C	1.501918	-0.343017	0.879305
C73	C	0.987403	-0.937403	0.314516
C74	C	1.487403	-0.437403	0.814516
C75	C	1.001957	-0.989005	0.379328
C76	C	1.501957	-0.489005	0.879328
C77	C	1.016535	-0.894634	0.444160
C78	C	1.516535	-0.394634	0.944160
C79	C	0.938536	-0.887835	0.359515
C80	C	1.438536	-0.387835	0.859515
C81	C	0.953096	-0.940514	0.424378
C82	C	1.453096	-0.440514	0.924378
C83	C	1.001897	-0.758918	0.379291
C84	C	1.501897	-0.258918	0.879291
C85	C	1.001977	-1.073103	0.379349
C86	C	1.501977	-0.573103	0.879349
C87	C	1.185173	-0.424497	0.386667
C88	C	1.685173	0.075503	0.886667
C89	C	1.263277	-0.427953	0.389809
C90	C	1.763277	0.072047	0.889809
C91	C	0.994562	-0.423799	0.562572
C92	C	1.494562	0.076201	1.062572
C93	C	0.991439	-0.426957	0.640675
C94	C	1.491439	0.073043	1.140675
C95	C	1.001963	-0.222687	0.379339
C96	C	1.501963	0.277313	0.879339
C97	C	1.001993	-0.140143	0.379358
C98	C	1.501993	0.359857	0.879358
C99	C	1.009232	-0.408953	0.196727
C100	C	1.509232	0.091047	0.696727
C101	C	1.012491	-0.405592	0.118630
C102	C	1.512491	0.094408	0.618630
C103	C	1.034926	-0.382938	0.679189
C104	C	1.534926	0.117062	1.179189
C105	C	1.031983	-0.385902	0.752575
C106	C	1.531983	0.114098	1.252575
C107	C	0.985556	-0.432890	0.787446
C108	C	1.485556	0.067110	1.287446
C109	C	0.942065	-0.476910	0.748927
C110	C	1.442065	0.023090	1.248927
C111	C	0.945005	-0.473941	0.675542
C112	C	1.445005	0.026059	1.175542
C113	C	0.971940	-0.446644	1.006726
C114	C	1.471940	0.053356	1.506726
C115	C	0.969005	-0.449611	1.080116
C116	C	1.469005	0.050389	1.580116
C117	C	1.058922	-0.358602	1.083759
C118	C	1.558922	0.141398	1.583759
C119	C	1.061860	-0.355641	1.010373
C120	C	1.561860	0.144359	1.510373
C121	C	1.018367	-0.399658	0.971860
C122	C	1.518367	0.100342	1.471860
N123	N	0.982549	-0.435922	0.862458
N124	N	1.482549	0.064078	1.362458
N125	N	1.021371	-0.396621	0.896850
N126	N	1.521371	0.103379	1.396850
H127	H	0.731140	-0.494169	0.449929
H128	H	1.231140	0.005831	0.949929
H129	H	0.399974	-0.523724	0.476789
H130	H	0.899974	-0.023724	0.976789
H131	H	0.598010	-0.488293	0.444605
H132	H	1.098010	0.011707	0.944605
O133	O	0.260683	-0.525280	0.478258
O134	O	0.760683	-0.025280	0.978258
C135	C	0.188427	-0.511504	0.465722
C136	C	0.688427	-0.011504	0.965722
H137	H	0.179328	-0.452786	0.442403
H138	H	0.679328	0.047214	0.942403
H139	H	0.169082	-0.553060	0.427396
H140	H	0.669082	-0.053060	0.927396
C141	C	0.159098	-0.591756	0.563943
C142	C	0.659098	-0.091756	1.063943
C143	C	0.147922	-0.519635	0.535307
C144	C	0.647922	-0.019635	1.035307
H145	H	0.134112	-0.596775	0.606865
H146	H	0.634112	-0.096775	1.106865
H147	H	0.207778	-0.601040	0.572387
H148	H	0.707778	-0.101040	1.072387
H149	H	0.142977	-0.626378	0.531997
H150	H	0.642977	-0.126378	1.031997
H151	H	0.164051	-0.485016	0.567249
H152	H	0.664051	0.014984	1.067249
H153	H	0.099244	-0.510346	0.526870
H154	H	0.599244	-0.010346	1.026870
O155	O	0.412428	-0.336985	0.307143
O156	O	0.912428	0.163015	0.807143
C157	C	0.365885	-0.291267	0.265640
C158	C	0.865885	0.208733	0.765640
H159	H	0.313668	-0.319281	0.261058
H160	H	0.813668	0.180719	0.761058
H161	H	0.357059	-0.235612	0.291162
H162	H	0.857059	0.264388	0.791162
C163	C	0.461637	-0.244261	0.197648
C164	C	0.961637	0.255739	0.697648
C165	C	0.397504	-0.278671	0.192015
C166	C	0.897504	0.221329	0.692015
H167	H	0.481141	-0.236487	0.152233
H168	H	0.981141	0.263513	0.652233
H169	H	0.492994	-0.275060	0.225611
H170	H	0.992994	0.224940	0.725611
H171	H	0.454273	-0.197885	0.218918
H172	H	0.954273	0.302115	0.718918
H173	H	0.404870	-0.325050	0.170753
H174	H	0.904870	0.174950	0.670753
H175	H	0.366149	-0.247879	0.164047
H176	H	0.866149	0.252121	0.664047
O177	O	0.923858	-0.495150	1.114063
O178	O	1.423858	0.004850	1.614063
C179	C	0.876784	-0.452567	1.154679
C180	C	1.376784	0.047433	1.654679
H181	H	0.901157	-0.397835	1.166687
H182	H	1.401157	0.102165	1.666687
H183	H	0.825848	-0.440949	1.124300
H184	H	1.325848	0.059051	1.624300
C185	C	0.831310	-0.562904	1.209115
C186	C	1.331310	-0.062904	1.709115
C187	C	0.861248	-0.495683	1.223868
C188	C	1.361248	0.004317	1.723868
H189	H	0.821723	-0.589501	1.251793
H190	H	1.321723	-0.089501	1.751793
H191	H	0.863022	-0.591593	1.181749
H192	H	1.363022	-0.091593	1.681749
H193	H	0.788866	-0.553213	1.183797
H194	H	1.288866	-0.053213	1.683797
H195	H	0.903694	-0.505376	1.249178
H196	H	1.403694	-0.005376	1.749178
H197	H	0.829542	-0.466997	1.251240
H198	H	1.329542	0.033003	1.751240
H199	H	1.067396	-0.350060	0.783929
H200	H	1.567396	0.149940	1.283929
H201	H	1.072733	-0.344678	0.650802
H202	H	1.572733	0.155322	1.150802
H203	H	0.604515	-0.309100	0.281845
H204	H	1.104515	0.190900	0.781845
H205	H	0.911783	-0.961907	0.462496
H206	H	1.411783	-0.461907	0.962496
O207	O	0.929791	-0.489444	0.969255
O208	O	1.429791	0.010556	1.469255
C209	C	0.971469	-0.537482	0.928417
C210	C	1.471469	-0.037482	1.428417
H211	H	1.025170	-0.513206	0.919560
H212	H	1.525170	-0.013206	1.419560
H213	H	0.978040	-0.593999	0.957002
H214	H	1.478040	-0.093999	1.457002
C215	C	0.869620	-0.576223	0.868035
C216	C	1.369620	-0.076223	1.368035
C217	C	0.935575	-0.546403	0.857152
C218	C	1.435575	-0.046403	1.357152
H219	H	0.847479	-0.581729	0.824077
H220	H	1.347479	-0.081729	1.324077
H221	H	0.841540	-0.543861	0.895550
H222	H	1.341540	-0.043861	1.395550
H223	H	0.875105	-0.623317	0.891857
H224	H	1.375105	-0.123317	1.391857
H225	H	0.930088	-0.499306	0.833338
H226	H	1.430088	0.000694	1.333338
H227	H	0.963653	-0.578758	0.829631
H228	H	1.463653	-0.078758	1.329631
O229	O	0.267823	-0.330735	0.301361
O230	O	0.767823	0.169265	0.801361
C231	C	0.227148	-0.369215	0.254213
C232	C	0.727148	0.130785	0.754213
H233	H	0.249432	-0.428488	0.250627
H234	H	0.749432	0.071512	0.750627
H235	H	0.170672	-0.370253	0.273726
H236	H	0.670672	0.129747	0.773726
C237	C	0.201534	-0.256979	0.185598
C238	C	0.701534	0.243021	0.685598
C239	C	0.228908	-0.329777	0.181190
C240	C	0.728908	0.170223	0.681190
H241	H	0.202617	-0.232650	0.140555
H242	H	0.702617	0.267350	0.640555
H243	H	0.228936	-0.231053	0.217364
H244	H	0.728936	0.268947	0.717364
H245	H	0.154473	-0.257853	0.201862
H246	H	0.654473	0.242147	0.701862
H247	H	0.275970	-0.328901	0.164935
H248	H	0.775970	0.171099	0.664935
H249	H	0.201514	-0.355702	0.149419
H250	H	0.701514	0.144298	0.649419
H251	H	0.884936	-0.863176	0.342744
H252	H	1.384936	-0.363176	0.842744
O253	O	1.100047	-0.865682	0.288943
O254	O	1.600047	-0.365682	0.788943
C255	C	1.098952	-0.787540	0.289094
C256	C	1.598952	-0.287540	0.789094
H257	H	1.045467	-0.765896	0.307817
H258	H	1.545467	-0.265896	0.807817
H259	H	1.141442	-0.769224	0.325864
H260	H	1.641442	-0.269224	0.825864
C261	C	1.178295	-0.782746	0.191301
C262	C	1.678295	-0.282746	0.691301
C263	C	1.112603	-0.756162	0.214292
C264	C	1.612603	-0.256162	0.714292
H265	H	1.186719	-0.763390	0.145161
H266	H	1.686719	-0.263390	0.645161
H267	H	1.179035	-0.835392	0.191201
H268	H	1.679035	-0.335392	0.691201
H269	H	1.213697	-0.767481	0.221949
H270	H	1.713697	-0.267481	0.721949
H271	H	1.077202	-0.771436	0.183649
H272	H	1.577202	-0.271436	0.683649
H273	H	1.111857	-0.703519	0.214385
H274	H	1.611857	-0.203519	0.714385
H275	H	1.118990	-0.968837	0.415870
H276	H	1.618990	-0.468837	0.915870
H277	H	1.028773	-0.875827	0.499005
H278	H	1.528773	-0.375827	0.999005
O279	O	0.743605	-0.307440	0.280277
O280	O	1.243605	0.192560	0.780277
C281	C	0.697067	-0.261721	0.238769
C282	C	1.197067	0.238279	0.738769
H283	H	0.644845	-0.289727	0.234192
H284	H	1.144845	0.210273	0.734192
H285	H	0.688250	-0.206060	0.264283
H286	H	1.188250	0.293940	0.764283
C287	C	0.792824	-0.214739	0.170769
C288	C	1.292824	0.285261	0.670769
C289	C	0.728686	-0.249140	0.165142
C290	C	1.228686	0.250860	0.665142
H291	H	0.812329	-0.206975	0.125353
H292	H	1.312329	0.293025	0.625353
H293	H	0.824178	-0.245539	0.198735
H294	H	1.324178	0.254461	0.698735
H295	H	0.785468	-0.168359	0.192033
H296	H	1.285468	0.331641	0.692033
H297	H	0.736045	-0.295523	0.143886
H298	H	1.236045	0.204477	0.643886
H299	H	0.697334	-0.218348	0.137171
H300	H	1.197334	0.281652	0.637171
H301	H	1.099668	-0.317381	0.981986
H302	H	1.599668	0.182619	1.481986
O303	O	0.972815	-0.959861	0.249092
O304	O	1.472815	-0.459861	0.749092
C305	C	1.024463	-0.934920	0.201809
C306	C	1.524463	-0.434920	0.701809
H307	H	1.050364	-0.884915	0.223718
H308	H	1.550364	-0.384915	0.723718
H309	H	1.065773	-0.981323	0.194307
H310	H	1.565773	-0.481323	0.694307
C311	C	0.958274	-0.973955	0.103788
C312	C	1.458274	-0.473955	0.603788
C313	C	0.990083	-0.912535	0.130695
C314	C	1.490083	-0.412535	0.630695
H315	H	0.937068	-0.960150	0.059920
H316	H	1.437068	-0.460150	0.559920
H317	H	0.923479	-0.990761	0.135643
H318	H	1.423479	-0.490761	0.635643
H319	H	0.992704	-1.012619	0.097542
H320	H	1.492704	-0.512619	0.597542
H321	H	0.955651	-0.873876	0.136948
H322	H	1.455651	-0.373876	0.636948
H323	H	1.024871	-0.895722	0.098839
H324	H	1.524871	-0.395722	0.598839
H325	H	0.904261	-0.515165	0.777324
H326	H	1.404261	-0.015165	1.277324
O327	O	0.902745	-0.516785	0.638236
O328	O	1.402745	-0.016785	1.138236
C329	C	0.861129	-0.558885	0.684748
C330	C	1.361129	-0.058885	1.184748
H331	H	0.887811	-0.564838	0.738220
H332	H	1.387811	-0.064838	1.238220
H333	H	0.807454	-0.529653	0.690402
H334	H	1.307454	-0.029653	1.190402
C335	C	0.819363	-0.629010	0.590007
C336	C	1.319363	-0.129010	1.090007
C337	C	0.852137	-0.636327	0.655682
C338	C	1.352137	-0.136327	1.155682
H339	H	0.813813	-0.676779	0.572077
H340	H	1.313813	-0.176779	1.072077
H341	H	0.847398	-0.600645	0.558670
H342	H	1.347398	-0.100645	1.058670
H343	H	0.774637	-0.604647	0.594728
H344	H	1.274637	-0.104647	1.094728
H345	H	0.896865	-0.660681	0.650958
H346	H	1.396865	-0.160681	1.150958
H347	H	0.824109	-0.664698	0.687017
H348	H	1.324109	-0.164698	1.187017
H349	H	1.094331	-0.322764	1.115124
H350	H	1.594331	0.177236	1.615124
