data_functionalizedCrystal
_audit_creation_method	'MofGen! by Chris Wilmer'
_symmetry_space_group_name_H-M	'P1'
_symmetry_Int_Tables_number	1
_symmetry_cell_setting	triclinic
loop_
_symmetry_equiv_pos_as_xyz
  x,y,z
_cell_length_a	12.594516
_cell_length_b	19.121385
_cell_length_c	12.594509
_cell_angle_alpha	87.589297
_cell_angle_beta	89.972125
_cell_angle_gamma	87.545430
loop_
_atom_site_label
_atom_site_type_symbol
_atom_site_fract_x
_atom_site_fract_y
_atom_site_fract_z
Zn1	Zn	-0.354261	-1.073774	-0.532719
Zn2	Zn	-0.532275	-1.073710	-0.354746
Zn3	Zn	-0.361903	-0.956323	-0.362311
Zn4	Zn	-0.539794	-0.956320	-0.540235
O5	O	-0.447058	-1.015032	-0.447503
O6	O	-0.371529	-1.172047	-0.502799
O7	O	-0.509726	-1.058114	-0.206805
O8	O	-0.211942	-0.971931	-0.384937
O9	O	-0.502316	-1.172001	-0.372043
O10	O	-0.206327	-1.058221	-0.510135
O11	O	-0.384555	-0.971869	-0.212363
O12	O	-0.391846	-0.858041	-0.392225
O13	O	-0.515131	-0.971926	-0.688182
O14	O	-0.522542	-0.858038	-0.522944
O15	O	-0.378820	-1.058219	-0.682660
O16	O	-0.682220	-1.058111	-0.379331
O17	O	-0.687744	-0.971864	-0.515609
C18	C	-0.458840	-0.832556	-0.459222
C19	C	-0.463906	-0.754492	-0.464260
C20	C	-0.495941	-0.312979	-0.496250
C21	C	-0.491190	-0.386328	-0.491496
C22	C	-0.420658	-0.422981	-0.421173
C23	C	-0.354882	-0.386281	-0.355593
C24	C	-0.359639	-0.312933	-0.360342
C25	C	-0.402888	-0.644444	-0.403429
C26	C	-0.398132	-0.717797	-0.398687
C27	C	-0.534442	-0.717839	-0.534590
C28	C	-0.539189	-0.644490	-0.539337
C29	C	-0.473417	-0.607796	-0.473753
C30	C	-0.415797	-0.497956	-0.416315
C31	C	-0.478284	-0.532823	-0.478607
C32	C	-0.723601	-1.014999	-0.447486
C33	C	-0.841904	-1.015050	-0.447511
C34	C	-0.908110	-1.062013	-0.373461
C35	C	-0.977696	-1.079177	-0.469506
C36	C	-0.983110	-0.997974	-0.351523
C37	C	-0.909930	-1.032245	-0.543604
C38	C	-0.915339	-0.951013	-0.425557
C39	C	-0.984895	-0.968152	-0.521670
C40	C	-0.169434	-1.015084	-0.447541
C41	C	-0.051127	-1.015106	-0.447558
C42	C	-0.446962	-1.015079	-0.725121
C43	C	-0.446921	-1.015099	-0.843425
C44	C	-0.435225	-0.198220	-0.435727
C45	C	-0.430168	-0.276284	-0.430677
C46	C	-0.521019	-0.968179	-0.915681
C47	C	-0.542880	-1.032265	-0.982345
C48	C	-0.424992	-0.951063	-0.987557
C49	C	-0.468831	-1.079219	-0.908529
C50	C	-0.350901	-0.997973	-0.913738
C51	C	-0.372722	-1.062103	-0.980367
C52	C	-0.447075	-1.015025	-0.170962
C53	C	-0.446807	-1.015141	-0.052650
H54	H	-0.349335	-0.614576	-0.350021
O55	O	-1.024955	-0.920808	-0.596397
C56	C	-1.136885	-0.920967	-0.595039
H57	H	-1.164707	-0.941893	-0.514093
H58	H	-1.171000	-0.865279	-0.610443
H59	H	-1.165460	-0.955855	-0.659482
O60	O	-0.297773	-1.109470	-1.014005
C61	C	-0.196949	-1.091848	-0.977474
H62	H	-0.206836	-1.058698	-0.904692
H63	H	-0.147798	-1.141769	-0.955283
H64	H	-0.154686	-1.060830	-1.042904
H65	H	-0.487424	-1.133407	-0.874080
O66	O	-0.598224	-0.753453	-0.598443
C67	C	-0.576278	-0.735560	-0.705724
H68	H	-0.492561	-0.715405	-0.712554
H69	H	-0.582387	-0.783816	-0.755169
H70	H	-0.636139	-0.692991	-0.736199
H71	H	-0.887785	-0.896851	-0.406931
H72	H	-1.015216	-0.983509	-0.270328
H73	H	-0.874490	-1.101736	-0.310894
O74	O	-1.010497	-1.143851	-0.491515
C75	C	-0.971263	-1.193182	-0.413248
H76	H	-0.953286	-1.165275	-0.337499
H77	H	-1.033385	-1.233747	-0.395786
H78	H	-0.895396	-1.220414	-0.443170
O79	O	-0.871969	-1.049564	-0.640569
C80	C	-0.957658	-1.061720	-0.708413
H81	H	-1.032667	-1.033312	-0.678780
H82	H	-0.938975	-1.041327	-0.792415
H83	H	-0.970623	-1.120347	-0.708907
H84	H	-0.297458	-0.416130	-0.298329
O85	O	-0.596017	-0.920958	-0.881711
C86	C	-0.697068	-0.939295	-0.916639
H87	H	-0.695305	-0.997555	-0.932746
H88	H	-0.758581	-0.927555	-0.852659
H89	H	-0.719031	-0.907603	-0.992752
O90	O	-0.564364	-0.277269	-0.564536
C91	C	-0.554481	-0.204661	-0.554653
H92	H	-0.472945	-0.194632	-0.520590
H93	H	-0.563611	-0.176817	-0.636170
H94	H	-0.618893	-0.183820	-0.499209
O95	O	-0.254158	-0.980521	-0.877762
C96	C	-0.231397	-0.912919	-0.918133
H97	H	-0.308768	-0.882610	-0.939970
H98	H	-0.187589	-0.884107	-0.855188
H99	H	-0.179430	-0.917376	-0.991884
O100	O	-0.555122	-0.421865	-0.555303
C101	C	-0.618409	-0.373786	-0.618375
H102	H	-0.578204	-0.321507	-0.625523
H103	H	-0.628492	-0.395013	-0.700842
H104	H	-0.699705	-0.365962	-0.579765
O105	O	-0.639688	-1.049475	-1.018482
C106	C	-0.682645	-0.994297	-1.085150
H107	H	-0.615632	-0.961628	-1.118283
H108	H	-0.727531	-1.016848	-1.153521
H109	H	-0.739506	-0.959798	-1.037558
H110	H	-0.596626	-0.614652	-0.596599
H111	H	-0.406492	-0.896890	-1.022135
O112	O	-0.329743	-0.753376	-0.330211
C113	C	-0.354036	-0.735402	-0.225254
H114	H	-0.440365	-0.715223	-0.221051
H115	H	-0.341695	-0.783623	-0.169570
H116	H	-0.299693	-0.692826	-0.200269
O117	O	-0.295638	-0.277394	-0.296605
C118	C	-0.232382	-0.325471	-0.233499
H119	H	-0.225356	-0.377773	-0.273716
H120	H	-0.149882	-0.304277	-0.223661
H121	H	-0.270755	-0.333238	-0.152091
H122	H	-0.358368	-0.527807	-0.359059
O123	O	-0.546644	-0.497189	-0.547033
C124	C	-0.488870	-0.454778	-0.618600
H125	H	-0.403617	-0.476896	-0.623885
H126	H	-0.527513	-0.453967	-0.700501
H127	H	-0.488761	-0.399179	-0.589287
