data_functionalizedCrystal
_audit_creation_method	'MofGen! by Chris Wilmer'
_symmetry_space_group_name_H-M	'P1'
_symmetry_Int_Tables_number	1
_symmetry_cell_setting	triclinic
loop_
_symmetry_equiv_pos_as_xyz
  x,y,z
_cell_length_a	10.654550
_cell_length_b	8.559649
_cell_length_c	9.130313
_cell_angle_alpha	90.003054
_cell_angle_beta	89.997243
_cell_angle_gamma	77.131797
loop_
_atom_site_label
_atom_site_type_symbol
_atom_site_fract_x
_atom_site_fract_y
_atom_site_fract_z
O1	O	1.644676	0.224187	0.121684
O2	O	1.276991	0.245546	0.121710
O3	O	1.493227	0.002624	0.121693
O4	O	1.428440	0.467110	0.121701
O5	O	1.493226	0.002612	-0.121906
O6	O	1.276990	0.245534	-0.121889
O7	O	1.644675	0.224175	-0.121915
Cu8	Cu	1.460833	0.234854	-0.144144
Cu9	Cu	1.460833	0.234868	0.143939
O10	O	1.428439	0.467098	-0.121898
C11	C	1.230355	0.243972	-0.000086
C12	C	1.091396	0.239280	-0.000076
C13	C	1.498136	-0.056858	-0.000104
C14	C	1.512750	-0.234076	-0.000097
C15	C	0.997136	0.382309	-0.000078
C16	C	0.866571	0.377890	-0.000103
C17	C	0.924541	0.087402	-0.000119
C18	C	1.055103	0.091822	-0.000104
C19	C	1.691311	0.225750	-0.000116
C20	C	1.830270	0.230442	-0.000116
C21	C	1.423530	0.526579	-0.000098
C22	C	1.408915	0.703797	-0.000095
N23	N	1.460836	0.234866	0.346562
N24	N	1.460841	0.234843	-0.346767
C25	C	1.556723	0.127513	0.423206
C26	C	1.556729	0.127505	0.576543
C27	C	1.364949	0.342207	0.576578
C28	C	1.364949	0.342222	0.423244
H29	H	1.026680	0.502378	-0.000066
H30	H	1.634811	0.040091	0.638943
O31	O	1.645331	-0.343199	-0.000116
H32	H	1.636397	-0.469939	-0.000117
O33	O	1.261499	0.457951	0.659282
H34	H	1.277590	0.439884	0.778782
O35	O	1.156786	-0.062451	-0.000105
H36	H	1.109617	-0.165730	-0.000107
O37	O	1.660154	0.011753	0.340492
H38	H	1.726841	-0.062881	0.419555
O39	O	1.276343	-0.187083	-0.000095
H40	H	1.223251	-0.210441	0.099185
H41	H	1.286864	0.429649	0.360836
H42	H	0.894975	-0.032654	-0.000151
O43	O	0.764900	0.532155	-0.000101
H44	H	0.812078	0.635427	-0.000070
