data_functionalizedCrystal
_audit_creation_method	'MofGen! by Chris Wilmer'
_symmetry_space_group_name_H-M	'P1'
_symmetry_Int_Tables_number	1
_symmetry_cell_setting	triclinic
loop_
_symmetry_equiv_pos_as_xyz
  x,y,z
_cell_length_a	19.805407
_cell_length_b	19.805405
_cell_length_c	19.805399
_cell_angle_alpha	89.973385
_cell_angle_beta	89.982197
_cell_angle_gamma	90.024042
loop_
_atom_site_label
_atom_site_type_symbol
_atom_site_fract_x
_atom_site_fract_y
_atom_site_fract_z
Zn1	Zn	1.034734	-0.269527	-0.382692
Zn2	Zn	1.034648	-0.382716	-0.269506
Zn3	Zn	0.921549	-0.269541	-0.269520
Zn4	Zn	0.921512	-0.382674	-0.382656
O5	O	0.978111	-0.326115	-0.326094
O6	O	1.129439	-0.284554	-0.367687
O7	O	1.019625	-0.367726	-0.174791
O8	O	0.936615	-0.174822	-0.284554
O9	O	1.129376	-0.367713	-0.284529
O10	O	1.019771	-0.174813	-0.367701
O11	O	0.936531	-0.284576	-0.174802
O12	O	0.826827	-0.284536	-0.284519
O13	O	0.936551	-0.367642	-0.477378
O14	O	0.826800	-0.367655	-0.367639
O15	O	1.019735	-0.284514	-0.477404
O16	O	1.019589	-0.477427	-0.284494
O17	O	0.936468	-0.477396	-0.367625
C18	C	0.802255	-0.326093	-0.326077
C19	C	0.727023	-0.326101	-0.326086
C20	C	0.691712	-0.282876	-0.369452
C21	C	0.621024	-0.282880	-0.369455
C22	C	0.585647	-0.326112	-0.326094
C23	C	0.620963	-0.369338	-0.282724
C24	C	0.691650	-0.369330	-0.282718
C25	C	0.335890	-0.369368	-0.282744
C26	C	0.265197	-0.369374	-0.282755
C27	C	0.265263	-0.282918	-0.369481
C28	C	0.335950	-0.282910	-0.369476
C29	C	0.371260	-0.326134	-0.326103
C30	C	0.447908	-0.326128	-0.326099
C31	C	0.509000	-0.326121	-0.326100
C32	C	0.978034	-0.501971	-0.326069
C33	C	0.978063	-0.577203	-0.326081
C34	C	1.021337	-0.612483	-0.369410
C35	C	1.021361	-0.683172	-0.369422
C36	C	0.978114	-0.718578	-0.326103
C37	C	0.934835	-0.683292	-0.282772
C38	C	0.934808	-0.612605	-0.282763
C39	C	0.934944	-0.968366	-0.282807
C40	C	0.934976	-1.039058	-0.282817
C41	C	1.021497	-1.038932	-0.369466
C42	C	1.021470	-0.968245	-0.369457
C43	C	0.978189	-0.932965	-0.326129
C44	C	0.978162	-0.856317	-0.326117
C45	C	0.978144	-0.795225	-0.326111
C46	C	1.154653	-0.326136	-0.326111
C47	C	1.229885	-0.326146	-0.326118
C48	C	0.978149	-0.326072	-0.502636
C49	C	0.978165	-0.326054	-0.577868
C50	C	0.978207	-0.149572	-0.326133
C51	C	0.978247	-0.074340	-0.326150
C52	C	1.021480	-0.282766	-0.613227
C53	C	1.021487	-0.282747	-0.683916
C54	C	0.978182	-0.326018	-0.719244
C55	C	0.934862	-0.369308	-0.683880
C56	C	0.934852	-0.369323	-0.613193
C57	C	0.934900	-0.369244	-0.968954
C58	C	0.934915	-0.369227	-1.039646
C59	C	1.021535	-0.282668	-1.039677
C60	C	1.021525	-0.282684	-0.968989
C61	C	0.978203	-0.325970	-0.933632
C62	C	0.978195	-0.325990	-0.856983
C63	C	0.978193	-0.326002	-0.795891
C64	C	0.978112	-0.326108	-0.150238
C65	C	0.978227	-0.325936	-0.075006
H66	H	0.364630	-0.404564	-0.247428
H67	H	0.899635	-0.404501	-0.940174
C68	C	0.415481	-0.273617	-0.460534
C69	C	0.374834	-0.235389	-0.417140
H70	H	0.439481	-0.244277	-0.489962
H71	H	0.446626	-0.299353	-0.434707
H72	H	0.387899	-0.303141	-0.486373
H73	H	0.402417	-0.205868	-0.391297
H74	H	0.343686	-0.209642	-0.442970
H75	H	0.899600	-0.404538	-0.712650
C76	C	0.849249	-0.454902	-0.620258
C77	C	0.887251	-0.416918	-0.574323
H78	H	0.819865	-0.484290	-0.596260
H79	H	0.823371	-0.425406	-0.647825
H80	H	0.878739	-0.480781	-0.647833
H81	H	0.857761	-0.391035	-0.546752
H82	H	0.913130	-0.446418	-0.546745
C83	C	0.896472	-0.860069	-0.244319
C84	C	0.887373	-0.929591	-0.235180
H85	H	0.867099	-0.836131	-0.214917
H86	H	0.941944	-0.848454	-0.234451
H87	H	0.886534	-0.848474	-0.289788
H88	H	0.897317	-0.941188	-0.189712
H89	H	0.841891	-0.941211	-0.245043
C90	C	1.054504	-0.168163	-0.591498
C91	C	1.069081	-0.235198	-0.574398
H92	H	1.083889	-0.138796	-0.567525
H93	H	1.060710	-0.161965	-0.638652
H94	H	1.009029	-0.158265	-0.579904
H95	H	1.114555	-0.245098	-0.585997
H96	H	1.062881	-0.241399	-0.527234
C97	C	0.684669	-0.197414	-0.455178
C98	C	0.730594	-0.235354	-0.417117
H99	H	0.708674	-0.168072	-0.484601
H100	H	0.657101	-0.226941	-0.481016
H101	H	0.657095	-0.171489	-0.425728
H102	H	0.758166	-0.261283	-0.446567
H103	H	0.758175	-0.205823	-0.391277
H104	H	0.592277	-0.247684	-0.404769
C105	C	0.771117	-0.460351	-0.273147
C106	C	0.730469	-0.416844	-0.235052
H107	H	0.795085	-0.489680	-0.243716
H108	H	0.743545	-0.486283	-0.302586
H109	H	0.802297	-0.434594	-0.298968
H110	H	0.699286	-0.442602	-0.209235
H111	H	0.758044	-0.390910	-0.205602
C112	C	0.849274	-0.454784	-1.032519
C113	C	0.887305	-0.416789	-1.078480
H114	H	0.819882	-0.484142	-1.056495
H115	H	0.878740	-0.480688	-1.004948
H116	H	0.823399	-0.425287	-1.004950
H117	H	0.913184	-0.446286	-1.106045
H118	H	0.857835	-0.390883	-1.106063
H119	H	0.592154	-0.404535	-0.247416
C120	C	1.059958	-1.147235	-0.407968
C121	C	1.069067	-1.077714	-0.417101
H122	H	1.089323	-1.171174	-0.437378
H123	H	1.069896	-1.158838	-0.362508
H124	H	1.014478	-1.158843	-0.417838
H125	H	1.114546	-1.066105	-0.407227
H126	H	1.059134	-1.066107	-0.462572
C127	C	0.843831	-0.762872	-0.273294
C128	C	0.887299	-0.722212	-0.235153
H129	H	0.814488	-0.786901	-0.243893
H130	H	0.817912	-0.735301	-0.302750
H131	H	0.869616	-0.793999	-0.299098
H132	H	0.861514	-0.691082	-0.209353
H133	H	0.913221	-0.749785	-0.205686
H134	H	1.056807	-0.247420	-1.068473
C135	C	0.156933	-0.244526	-0.408000
C136	C	0.226449	-0.235398	-0.417152
H137	H	0.132974	-0.215187	-0.437428
H138	H	0.145340	-0.290011	-0.417826
H139	H	0.145342	-0.234558	-0.362540
H140	H	0.238041	-0.245370	-0.462611
H141	H	0.238047	-0.189902	-0.407331
C142	C	1.106856	-0.619467	-0.455070
C143	C	1.068872	-0.573568	-0.417033
H144	H	1.136197	-0.595442	-0.484476
H145	H	1.132776	-0.647030	-0.425608
H146	H	1.077351	-0.647049	-0.480931
H147	H	1.098376	-0.545989	-0.391168
H148	H	1.042949	-0.545993	-0.446499
C149	C	0.849287	-0.619825	-0.197112
C150	C	0.887240	-0.573822	-0.235135
H151	H	0.819920	-0.595881	-0.167708
H152	H	0.823394	-0.647399	-0.226583
H153	H	0.878809	-0.647386	-0.171250
H154	H	0.857717	-0.546264	-0.261002
H155	H	0.913134	-0.546236	-0.205661
C156	C	0.849431	-1.032085	-0.197173
C157	C	0.887430	-1.077978	-0.235202
H158	H	0.820078	-1.056115	-0.167783
H159	H	0.878920	-1.004507	-0.171302
H160	H	0.823516	-1.004518	-0.226646
H161	H	0.913349	-1.105543	-0.205730
H162	H	0.857937	-1.105568	-0.261075
C163	C	1.030946	-0.191671	-0.763413
C164	C	1.069097	-0.235155	-0.722776
H165	H	1.060339	-0.162283	-0.787397
H166	H	1.005167	-0.217436	-0.794571
H167	H	1.001465	-0.165795	-0.735826
H168	H	1.098574	-0.261035	-0.750364
H169	H	1.094887	-0.209387	-0.691614
C170	C	1.030950	-0.191652	-0.889528
C171	C	1.069119	-0.235108	-0.930161
H172	H	1.060331	-0.162279	-0.865557
H173	H	1.001479	-0.165765	-0.917110
H174	H	1.005160	-0.217444	-0.858351
H175	H	1.094906	-0.209316	-0.961342
H176	H	1.098602	-0.260998	-0.902577
C177	C	0.272229	-0.454827	-0.197010
C178	C	0.226310	-0.416893	-0.235084
H179	H	0.248220	-0.484159	-0.167580
H180	H	0.299802	-0.480757	-0.226446
H181	H	0.299799	-0.425291	-0.171172
H182	H	0.198743	-0.446429	-0.260926
H183	H	0.198725	-0.390961	-0.205644
C184	C	1.059819	-0.791475	-0.407916
C185	C	1.068930	-0.721953	-0.417050
H186	H	1.089184	-0.815415	-0.437325
H187	H	1.069756	-0.803076	-0.362455
H188	H	1.014339	-0.803081	-0.417786
H189	H	1.114409	-0.710346	-0.407175
H190	H	1.058998	-0.710347	-0.462521
C191	C	1.106992	-0.975223	-0.455115
C192	C	1.069006	-0.929327	-0.417078
H193	H	1.136334	-0.951196	-0.484519
H194	H	1.132913	-1.002787	-0.425654
H195	H	1.077490	-1.002805	-0.480979
H196	H	1.098508	-0.901749	-0.391210
H197	H	1.043083	-0.901752	-0.446543
