data_functionalizedCrystal
_audit_creation_method	'MofGen! by Chris Wilmer'
_symmetry_space_group_name_H-M	'P1'
_symmetry_Int_Tables_number	1
_symmetry_cell_setting	triclinic
loop_
_symmetry_equiv_pos_as_xyz
  x,y,z
_cell_length_a	17.639929
_cell_length_b	12.759401
_cell_length_c	12.759393
_cell_angle_alpha	90.023851
_cell_angle_beta	78.761161
_cell_angle_gamma	101.198585
loop_
_atom_site_label
_atom_site_type_symbol
_atom_site_fract_x
_atom_site_fract_y
_atom_site_fract_z
Zn1	Zn	-0.314651	-1.690804	-0.509616
Zn2	Zn	-0.446853	-1.726223	-0.298426
Zn3	Zn	-0.314691	-1.515117	-0.333928
Zn4	Zn	-0.446790	-1.550602	-0.474068
O5	O	-0.380746	-1.620687	-0.404010
O6	O	-0.332198	-1.842526	-0.481621
O7	O	-0.429365	-1.698191	-0.156103
O8	O	-0.204074	-1.508749	-0.386969
O9	O	-0.429326	-1.868548	-0.326460
O10	O	-0.204045	-1.637826	-0.516046
O11	O	-0.332265	-1.543093	-0.182186
O12	O	-0.332204	-1.372801	-0.352499
O13	O	-0.429219	-1.569228	-0.625816
O14	O	-0.429257	-1.398871	-0.455459
O15	O	-0.332137	-1.672234	-0.651933
O16	O	-0.557456	-1.732600	-0.291991
O17	O	-0.557410	-1.603572	-0.421034
C18	C	-0.380729	-1.347715	-0.403974
C19	C	-0.380740	-1.230941	-0.403979
C20	C	-0.431234	-1.189603	-0.323120
C21	C	-0.431246	-1.079882	-0.323139
C22	C	-0.330264	-1.052845	-0.484881
C23	C	-0.330256	-1.162565	-0.484865
C24	C	-0.524443	-0.954934	-0.260377
C25	C	-0.574929	-0.913590	-0.179503
C26	C	-0.586971	-0.952375	-0.073720
C27	C	-0.548515	-1.032499	-0.048794
C28	C	-0.498023	-1.073836	-0.129664
C29	C	-0.485996	-1.035057	-0.235457
C30	C	-0.237058	-1.287515	-0.547617
C31	C	-0.186561	-1.328852	-0.628483
C32	C	-0.174511	-1.290067	-0.734270
C33	C	-0.212953	-1.209936	-0.759196
C34	C	-0.263450	-1.168598	-0.678329
C35	C	-0.275501	-1.207392	-0.572544
C36	C	-0.586114	-1.675808	-0.348825
C37	C	-0.673970	-1.699486	-0.325252
C38	C	-0.797799	-1.800078	-0.224911
C39	C	-0.715244	-1.777821	-0.247069
C40	C	-0.715243	-1.643379	-0.381313
C41	C	-0.797799	-1.665628	-0.359170
C42	C	-0.839071	-1.743978	-0.280967
C43	C	-0.839071	-1.609528	-0.415227
C44	C	-0.921621	-1.631772	-0.393082
C45	C	-0.962898	-1.710115	-0.314880
C46	C	-0.921620	-1.766221	-0.258822
C47	C	-0.797798	-1.531174	-0.493425
C48	C	-0.839071	-1.475074	-0.549481
C49	C	-0.921621	-1.497322	-0.527341
C50	C	-0.962899	-1.575666	-0.449139
C51	C	-0.962899	-1.441216	-0.583399
C52	C	-1.045449	-1.463460	-0.561254
C53	C	-1.045448	-1.597909	-0.426994
C54	C	-0.174577	-1.565379	-0.459433
C55	C	-0.086720	-1.541809	-0.483050
C56	C	-0.380666	-1.620739	-0.678065
C57	C	-0.380632	-1.620761	-0.794851
C58	C	-0.380761	-0.894724	-0.404034
C59	C	-0.380760	-1.011500	-0.404013
C60	C	-0.330063	-1.540023	-0.863296
C61	C	-0.330039	-1.540040	-0.973027
C62	C	-0.431155	-1.701544	-0.945856
C63	C	-0.431183	-1.701521	-0.836126
C64	C	-0.301749	-1.408588	-1.130567
C65	C	-0.251168	-1.327856	-1.199019
C66	C	-0.174049	-1.291029	-1.184143
C67	C	-0.147496	-1.334946	-1.100820
C68	C	-0.198073	-1.415685	-1.032374
C69	C	-0.275203	-1.452494	-1.047246
C70	C	-0.459464	-1.832973	-0.678587
C71	C	-0.510038	-1.913717	-0.610140
C72	C	-0.587158	-1.950554	-0.625014
C73	C	-0.613709	-1.906656	-0.708341
C74	C	-0.563135	-1.825912	-0.776788
C75	C	-0.486016	-1.789072	-0.761906
C76	C	-0.380769	-1.620680	-0.131036
C77	C	-0.380580	-1.620802	-0.014311
H78	H	-0.628082	-0.918709	-0.007873
H79	H	-0.606239	-0.848352	-0.199807
O80	O	-1.085477	-1.674130	-0.351100
C81	C	-1.065273	-1.773402	-0.379574
H82	H	-1.005304	-1.759441	-0.436031
H83	H	-1.111680	-1.821246	-0.421184
C84	C	-1.135178	-1.853221	-0.208866
C85	C	-1.061519	-1.836073	-0.278200
H86	H	-1.132866	-1.891882	-0.146334
H87	H	-1.148793	-1.786341	-0.189682
H88	H	-1.173843	-1.893087	-0.243553
H89	H	-1.022858	-1.796197	-0.243517
H90	H	-1.047898	-1.902948	-0.297375
O91	O	-0.125456	-1.330370	-0.812703
C92	C	-0.094083	-1.409385	-0.768021
H93	H	-0.134804	-1.442742	-0.689609
H94	H	-0.033292	-1.372613	-0.752198
C95	C	-0.036911	-1.459341	-0.942814
C96	C	-0.086928	-1.500316	-0.846511
H97	H	-0.032494	-1.515430	-0.991231
H98	H	-0.058045	-1.406104	-0.972918
H99	H	0.013743	-1.428698	-0.929614
H100	H	-0.137583	-1.530946	-0.859710
H101	H	-0.065803	-1.553560	-0.816411
O102	O	-0.675110	-1.567419	-0.457401
C103	C	-0.627267	-1.614316	-0.538122
H104	H	-0.652092	-1.703749	-0.538022
H105	H	-0.564723	-1.601099	-0.522416
C106	C	-0.595469	-1.452750	-0.647773
C107	C	-0.625963	-1.562590	-0.647656
H108	H	-0.594660	-1.420840	-0.715338
H109	H	-0.627699	-1.421152	-0.593389
H110	H	-0.543351	-1.441750	-0.634680
H111	H	-0.678082	-1.573589	-0.660735
H112	H	-0.593741	-1.594189	-0.702045
O113	O	-0.717610	-1.509558	-0.514750
C114	C	-0.690102	-1.475198	-0.421420
H115	H	-0.737695	-1.506011	-0.348149
H116	H	-0.675513	-1.384093	-0.423020
C117	C	-0.557019	-1.481265	-0.506277
C118	C	-0.615471	-1.519117	-0.416285
H119	H	-0.510981	-1.508351	-0.503111
H120	H	-0.575550	-1.504410	-0.569158
H121	H	-0.544870	-1.405345	-0.507601
H122	H	-0.627625	-1.595034	-0.414970
H123	H	-0.596940	-1.495986	-0.353404
O124	O	-1.043087	-1.731635	-0.293197
C125	C	-1.070746	-1.712186	-0.185054
H126	H	-1.023230	-1.653599	-0.154324
H127	H	-1.085372	-1.790533	-0.135683
C128	C	-1.203744	-1.736207	-0.212869
C129	C	-1.145387	-1.664242	-0.175128
H130	H	-1.249789	-1.706638	-0.206744
H131	H	-1.185111	-1.749314	-0.285726
H132	H	-1.215924	-1.801491	-0.171722
H133	H	-1.133202	-1.598965	-0.216283
H134	H	-1.164020	-1.651123	-0.102277
H135	H	-0.472310	-1.767297	-0.979477
H136	H	-0.628332	-2.016311	-0.569281
O137	O	-0.589062	-1.783348	-0.857652
C138	C	-0.667969	-1.833195	-0.856128
H139	H	-0.696636	-1.868498	-0.772468
H140	H	-0.669493	-1.899704	-0.915827
C141	C	-0.678170	-1.706751	-0.989580
C142	C	-0.713381	-1.750103	-0.886825
H143	H	-0.706182	-1.655499	-1.008520
H144	H	-0.625007	-1.673170	-0.990610
H145	H	-0.679442	-1.762185	-1.039316
H146	H	-0.712100	-1.694671	-0.837089
H147	H	-0.766545	-1.783673	-0.885787
H148	H	-0.805458	-1.411278	-0.613152
H149	H	-0.488410	-1.949470	-0.542300
O150	O	-0.125026	-1.212569	-1.250705
C151	C	-0.164990	-1.181731	-1.327454
H152	H	-0.231296	-1.202960	-1.295336
H153	H	-0.149717	-1.225501	-1.404249
C154	C	-0.058267	-1.034166	-1.390389
C155	C	-0.139706	-1.060232	-1.350936
H156	H	-0.042669	-0.959222	-1.404878
H157	H	-0.031341	-1.054944	-1.338684
H158	H	-0.045550	-1.070651	-1.454380
H159	H	-0.152421	-1.023759	-1.286940
H160	H	-0.166634	-1.039445	-1.402631
H161	H	-0.466711	-1.139069	-0.109369
H162	H	-0.929285	-1.377417	-0.647065
O163	O	-0.281332	-0.986335	-0.563465
C164	C	-0.326398	-0.935023	-0.619139
H165	H	-0.386269	-0.934641	-0.565869
H166	H	-0.335148	-0.979701	-0.694622
C167	C	-0.209397	-0.819608	-0.715377
C168	C	-0.282929	-0.819130	-0.649946
H169	H	-0.182583	-0.748121	-0.734385
H170	H	-0.179035	-0.854180	-0.677871
H171	H	-0.216700	-0.856844	-0.778272
H172	H	-0.275625	-0.781906	-0.587047
H173	H	-0.313290	-0.784549	-0.687442
H174	H	-1.079053	-1.417788	-0.606911
H175	H	-0.294743	-1.103341	-0.698630
O176	O	-0.560076	-1.070070	0.053982
C177	C	-0.487454	-1.052058	0.088189
H178	H	-0.444781	-0.983691	0.037653
H179	H	-0.461724	-1.127662	0.078788
C180	C	-0.552938	-1.106575	0.268587
C181	C	-0.500528	-1.022600	0.206524
H182	H	-0.561003	-1.088409	0.341583
H183	H	-0.601866	-1.118715	0.245541
H184	H	-0.531490	-1.169571	0.260741
H185	H	-0.521982	-0.959610	0.214361
H186	H	-0.451605	-1.010449	0.229574
H187	H	-0.955226	-1.830031	-0.195151
O188	O	-0.072564	-1.299022	-1.086498
C189	C	-0.033611	-1.218362	-1.164793
H190	H	-0.079061	-1.181004	-1.195859
H191	H	0.002980	-1.254628	-1.233776
C192	C	0.076725	-1.177614	-1.077012
C193	C	0.020903	-1.131724	-1.115161
H194	H	0.110355	-1.124174	-1.046400
H195	H	0.050484	-1.231959	-1.024265
H196	H	0.107210	-1.207835	-1.134505
H197	H	-0.009587	-1.101517	-1.057666
H198	H	0.047141	-1.077372	-1.167898
O199	O	-0.837966	-1.876041	-0.148835
C200	C	-0.885753	-1.829098	-0.068086
H201	H	-0.898157	-1.752821	-0.101772
H202	H	-0.853965	-1.808990	0.001229
C203	C	-0.948902	-2.001707	0.013366
C204	C	-0.964143	-1.908027	-0.028011
H205	H	-0.997256	-2.050394	0.038091
H206	H	-0.916706	-2.033334	-0.041033
H207	H	-0.922410	-1.984935	0.071123
H208	H	-0.990625	-1.924797	-0.085775
H209	H	-0.996346	-1.876404	0.026380
O210	O	-0.376718	-1.444261	-1.144854
C211	C	-0.430433	-1.427065	-1.052181
H212	H	-0.400702	-1.360216	-1.005801
H213	H	-0.450010	-1.503605	-0.999774
C214	C	-0.539337	-1.477292	-1.141358
C215	C	-0.502824	-1.395181	-1.084399
H216	H	-0.583993	-1.457630	-1.161230
H217	H	-0.503150	-1.488882	-1.203793
H218	H	-0.555645	-1.541069	-1.097678
H219	H	-0.486508	-1.331410	-1.128084
H220	H	-0.539010	-1.383580	-1.021972
H221	H	-0.396675	-1.802955	-0.666446
H222	H	-0.472342	-1.245272	-0.257259
H223	H	-0.676505	-1.936656	-0.720455
H224	H	-0.514651	-0.923357	-0.346513
H225	H	-0.288902	-1.474262	-0.829693
H226	H	-0.203135	-1.178348	-0.845334
H227	H	-0.155255	-1.394094	-0.608178
H228	H	-0.246874	-1.319112	-0.461479
H229	H	-0.176452	-1.451445	-0.964538
H230	H	-0.681644	-1.823510	-0.201413
H231	H	-0.272795	-1.292101	-1.266860
