data_functionalizedCrystal
_audit_creation_method	'MofGen! by Chris Wilmer'
_symmetry_space_group_name_H-M	'P1'
_symmetry_Int_Tables_number	1
_symmetry_cell_setting	triclinic
loop_
_symmetry_equiv_pos_as_xyz
  x,y,z
_cell_length_a	16.109301
_cell_length_b	16.109301
_cell_length_c	15.186229
_cell_angle_alpha	89.994299
_cell_angle_beta	89.998755
_cell_angle_gamma	83.461481
loop_
_atom_site_label
_atom_site_type_symbol
_atom_site_fract_x
_atom_site_fract_y
_atom_site_fract_z
O1	O	-1.103131	-0.106867	0.073176
O2	O	-0.861069	-0.120166	0.073190
O3	O	-0.988750	0.007515	0.073174
O4	O	-0.975451	-0.234547	0.073192
O5	O	-0.988740	0.007518	-0.073284
O6	O	-0.861059	-0.120163	-0.073267
O7	O	-1.103121	-0.106864	-0.073282
Zn8	Zn	-0.982089	-0.113513	-0.096528
Zn9	Zn	-0.982102	-0.113517	0.096436
O10	O	-0.975441	-0.234544	-0.073265
C11	C	-0.830090	-0.119626	-0.000037
C12	C	-0.737794	-0.118011	-0.000032
C13	C	-0.988206	0.038491	-0.000056
C14	C	-0.986591	0.130786	-0.000057
C15	C	-1.134101	-0.107404	-0.000053
C16	C	-1.226397	-0.109019	-0.000052
C17	C	-0.515522	-0.190018	-0.000036
C18	C	-0.428801	-0.188494	-0.000042
C19	C	-0.448676	-0.037006	-0.000050
C20	C	-0.535394	-0.038530	-0.000051
C21	C	-0.568815	-0.115039	-0.000039
C22	C	-0.395376	-0.111990	-0.000045
C23	C	-0.301350	-0.110337	-0.000051
C24	C	-0.662847	-0.116693	-0.000035
C25	C	-0.975984	-0.265521	-0.000034
C26	C	-0.977600	-0.357816	-0.000027
N27	N	-0.982086	-0.113510	-0.228220
C28	C	-1.058599	0.353059	-0.000047
C29	C	-1.057075	0.439779	-0.000040
C30	C	-0.905586	0.419905	-0.000034
C31	C	-0.907111	0.333186	-0.000035
C32	C	-0.983620	0.299766	-0.000046
C33	C	-0.980571	0.473205	-0.000038
C34	C	-0.978918	0.567231	-0.000030
C35	C	-0.985273	0.205734	-0.000052
C36	C	-1.038646	-0.056992	-0.546146
C37	C	-1.038644	-0.056992	-0.453956
C38	C	-0.925549	-0.170038	-0.453952
C39	C	-0.925556	-0.170041	-0.546140
C40	C	-0.982103	-0.113513	-0.592235
C41	C	-0.982094	-0.113510	-0.407857
C42	C	-0.982091	-0.113511	-0.307901
C43	C	-0.982107	-0.113513	-0.692197
N44	N	-0.982111	-0.113513	0.228129
H45	H	-0.542730	-0.252317	-0.000034
H46	H	-0.385413	-0.249550	-0.000041
F47	F	-0.413100	0.044416	-0.000058
H48	H	-0.843295	0.447127	-0.000027
H49	H	-1.120897	0.325851	-0.000054
H50	H	-0.578788	0.022530	-0.000056
H51	H	-0.846050	0.289792	-0.000032
F52	F	-1.098831	0.003168	-0.595200
F53	F	-1.098826	0.003164	-0.404909
F54	F	-0.865367	-0.230194	-0.404889
H55	H	-0.879511	-0.216071	-0.583668
H56	H	-1.118130	0.483168	-0.000039
