data_functionalizedCrystal
_audit_creation_method	'MofGen! by Chris Wilmer'
_symmetry_space_group_name_H-M	'P1'
_symmetry_Int_Tables_number	1
_symmetry_cell_setting	triclinic
loop_
_symmetry_equiv_pos_as_xyz
  x,y,z
_cell_length_a	10.540539
_cell_length_b	17.699092
_cell_length_c	16.776229
_cell_angle_alpha	90.001732
_cell_angle_beta	90.003709
_cell_angle_gamma	83.905930
loop_
_atom_site_label
_atom_site_type_symbol
_atom_site_fract_x
_atom_site_fract_y
_atom_site_fract_z
O1	O	1.683944	0.106658	0.066247
O2	O	2.017278	0.439991	0.399581
O3	O	2.350611	0.773324	0.732914
O4	O	1.314348	0.116707	0.066257
O5	O	1.647681	0.450040	0.399590
O6	O	1.981015	0.783374	0.732924
O7	O	1.509583	0.001562	0.066250
O8	O	1.842916	0.334895	0.399583
O9	O	2.176250	0.668228	0.732917
O10	O	1.488710	0.221803	0.066254
O11	O	1.822043	0.555137	0.399588
O12	O	2.155376	0.888470	0.732921
O13	O	1.509561	0.001561	-0.066326
O14	O	1.842894	0.334894	0.267007
O15	O	2.176227	0.668228	0.600340
O16	O	1.314326	0.116707	-0.066320
O17	O	1.647659	0.450040	0.267014
O18	O	1.980993	0.783373	0.600347
O19	O	1.683922	0.106657	-0.066329
O20	O	2.017256	0.439991	0.267004
O21	O	2.350589	0.773324	0.600338
Zn22	Zn	1.499121	0.111682	-0.087374
Zn23	Zn	1.832454	0.445015	0.245960
Zn24	Zn	2.165787	0.778349	0.579293
Zn25	Zn	1.499150	0.111683	0.087302
Zn26	Zn	1.832483	0.445016	0.420635
Zn27	Zn	2.165816	0.778349	0.753968
O28	O	1.488688	0.221803	-0.066322
O29	O	1.822021	0.555136	0.267011
O30	O	2.155354	0.888470	0.600344
C31	C	1.267048	0.115953	-0.000030
C32	C	1.600381	0.449287	0.333303
C33	C	1.933714	0.782620	0.666637
C34	C	1.126141	0.113699	-0.000026
C35	C	1.459474	0.447032	0.333307
C36	C	1.792808	0.780365	0.666640
C37	C	0.944290	0.027300	-0.000338
C38	C	1.277623	0.360633	0.332996
C39	C	1.610957	0.693966	0.666329
C40	C	1.090866	0.029585	-0.000030
C41	C	1.424200	0.362919	0.333303
C42	C	1.757533	0.696252	0.666636
C43	C	1.063743	0.154177	0.075679
C44	C	1.397076	0.487511	0.409012
C45	C	1.730409	0.820844	0.742346
C46	C	0.917250	0.151307	0.075734
C47	C	1.250584	0.484640	0.409068
C48	C	1.583917	0.817973	0.742401
C49	C	0.916706	0.153018	-0.075030
C50	C	1.250039	0.486351	0.258303
C51	C	1.583372	0.819684	0.591637
C52	C	1.063673	0.153792	-0.076022
C53	C	1.397007	0.487126	0.257311
C54	C	1.730340	0.820459	0.590644
C55	C	1.508822	-0.026640	-0.000037
C56	C	1.842155	0.306693	0.333296
C57	C	2.175489	0.640026	0.666630
C58	C	1.506573	-0.110673	-0.000033
C59	C	1.839906	0.222661	0.333300
C60	C	2.173240	0.555994	0.666633
C61	C	1.505531	-0.150147	0.072235
C62	C	1.838865	0.183186	0.405568
C63	C	2.172198	0.516520	0.738902
C64	C	1.503410	-0.229104	0.072236
C65	C	1.836743	0.104230	0.405569
C66	C	2.170077	0.437563	0.738903
C67	C	1.502339	-0.268586	-0.000032
C68	C	1.835673	0.064748	0.333301
C69	C	2.169006	0.398081	0.666635
C70	C	1.503377	-0.229106	-0.072306
C71	C	1.836711	0.104228	0.261027
C72	C	2.170044	0.437561	0.594361
C73	C	1.505490	-0.150150	-0.072306
C74	C	1.838823	0.183184	0.261027
C75	C	2.172156	0.516517	0.594360
C76	C	1.494857	-0.547526	-0.072307
C77	C	1.828190	-0.214193	0.261026
C78	C	2.161524	0.119141	0.594360
C79	C	1.492748	-0.626488	-0.072301
C80	C	1.826082	-0.293155	0.261032
C81	C	2.159415	0.040179	0.594365
C82	C	1.492777	-0.626480	0.072235
C83	C	1.826111	-0.293147	0.405569
C84	C	2.159444	0.040187	0.738902
C85	C	1.494890	-0.547524	0.072235
C86	C	1.828223	-0.214191	0.405569
C87	C	2.161556	0.119143	0.738902
C88	C	1.495921	-0.508051	-0.000038
C89	C	1.829254	-0.174717	0.333295
C90	C	2.162587	0.158616	0.666628
C91	C	1.498219	-0.422437	-0.000038
C92	C	1.831552	-0.089103	0.333295
C93	C	2.164885	0.244230	0.666628
C94	C	1.500051	-0.354199	-0.000033
C95	C	1.833384	-0.020865	0.333301
C96	C	2.166717	0.312468	0.666634
C97	C	1.731223	0.107411	-0.000040
C98	C	2.064556	0.440745	0.333293
C99	C	2.397889	0.774078	0.666626
C100	C	1.872130	0.109666	-0.000039
C101	C	2.205463	0.442999	0.333295
C102	C	2.538796	0.776333	0.666628
C103	C	1.489448	0.250005	-0.000034
C104	C	1.822782	0.583338	0.333300
C105	C	2.156115	0.916672	0.666633
C106	C	1.491697	0.334037	-0.000032
C107	C	1.825031	0.667371	0.333301
C108	C	2.158364	1.000704	0.666635
N109	N	1.499110	0.111681	-0.206585
N110	N	1.832443	0.445014	0.126748
N111	N	2.165777	0.778348	0.460082
C112	C	1.575949	0.158029	-0.248300
C113	C	1.909282	0.491363	0.085034
C114	C	2.242615	0.824696	0.418367
C115	C	1.575963	0.158026	-0.331752
C116	C	1.909296	0.491360	0.001581
C117	C	2.242630	0.824693	0.334915
C118	C	1.499131	0.111679	-0.373488
C119	C	1.832464	0.445012	-0.040155
C120	C	2.165797	0.778346	0.293179
C121	C	1.422289	0.065326	-0.331767
C122	C	1.755622	0.398659	0.001566
C123	C	2.088956	0.731992	0.334899
C124	C	1.422282	0.065325	-0.248317
C125	C	1.755616	0.398658	0.085017
C126	C	2.088949	0.731992	0.418350
C127	C	1.422315	0.065327	-0.668314
C128	C	1.755648	0.398660	-0.334981
C129	C	2.088981	0.731993	-0.001648
C130	C	1.422324	0.065333	-0.751771
C131	C	1.755657	0.398666	-0.418438
C132	C	2.088991	0.731999	-0.085104
C133	C	1.575995	0.158028	-0.751750
C134	C	1.909328	0.491362	-0.418416
C135	C	2.242662	0.824695	-0.085083
C136	C	1.575989	0.158028	-0.668299
C137	C	1.909322	0.491361	-0.334966
C138	C	2.242655	0.824694	-0.001632
C139	C	1.499152	0.111672	-0.626586
C140	C	1.832486	0.445005	-0.293252
C141	C	2.165819	0.778338	0.040081
C142	C	1.499140	0.111674	-0.536097
C143	C	1.832473	0.445007	-0.202764
C144	C	2.165806	0.778341	0.130569
C145	C	1.499136	0.111680	-0.463975
C146	C	1.832469	0.445013	-0.130641
C147	C	2.165802	0.778347	0.202692
N148	N	1.499170	0.111677	0.206513
N149	N	1.832504	0.445011	0.539846
N150	N	2.165837	0.778344	0.873179
H151	H	1.134052	-0.002265	-0.054300
H152	H	1.467386	0.331068	0.279034
H153	H	1.800719	0.664402	0.612367
H154	H	1.106853	0.126059	0.132020
H155	H	1.440187	0.459392	0.465353
H156	H	1.773520	0.792725	0.798686
H157	H	1.638548	0.195771	-0.634322
H158	H	1.971882	0.529105	-0.300989
H159	H	2.305215	0.862438	0.032345
H160	H	1.133206	-0.002489	0.054331
H161	H	1.466539	0.330844	0.387665
H162	H	1.799873	0.664177	0.720998
H163	H	1.495767	-0.515382	0.131083
H164	H	1.829101	-0.182049	0.464417
H165	H	2.162434	0.151284	0.797750
H166	H	1.359712	0.027584	-0.214353
H167	H	1.693045	0.360917	0.118980
H168	H	2.026379	0.694250	0.452313
H169	H	1.638507	0.195775	-0.214324
H170	H	1.971840	0.529109	0.119009
H171	H	2.305174	0.862442	0.452342
H172	H	1.506410	-0.118007	0.131084
H173	H	1.839743	0.215326	0.464418
H174	H	2.173077	0.548660	0.797751
H175	H	1.084969	0.215948	0.078497
H176	H	1.418302	0.549281	0.411830
H177	H	1.751636	0.882615	0.745164
H178	H	1.502567	-0.261240	0.131084
H179	H	1.835900	0.072093	0.464418
H180	H	2.169234	0.405426	0.797751
H181	H	0.868370	0.213772	-0.075540
H182	H	1.201704	0.547105	0.257793
H183	H	1.535037	0.880438	0.591126
H184	H	0.885646	0.125796	-0.132414
H185	H	1.218980	0.459130	0.200919
H186	H	1.552313	0.792463	0.534252
H187	H	1.105166	0.124221	-0.132029
H188	H	1.438499	0.457554	0.201304
H189	H	1.771832	0.790888	0.534638
H190	H	1.491873	-0.658632	-0.131154
H191	H	1.825207	-0.325298	0.202179
H192	H	2.158540	0.008035	0.535512
H193	H	1.491931	-0.658628	0.131084
H194	H	1.825265	-0.325295	0.464417
H195	H	2.158598	0.008038	0.797751
H196	H	1.086780	0.215116	-0.080592
H197	H	1.420114	0.548449	0.252741
H198	H	1.753447	0.881783	0.586074
H199	H	1.502498	-0.261258	-0.131148
H200	H	1.835831	0.072076	0.202185
H201	H	2.169164	0.405409	0.535519
H202	H	1.638535	0.195766	-0.365712
H203	H	1.971868	0.529100	-0.032379
H204	H	2.305202	0.862433	0.300954
H205	H	1.495722	-0.515398	-0.131156
H206	H	1.829055	-0.182065	0.202177
H207	H	2.162389	0.151268	0.535510
H208	H	1.638562	0.195772	-0.785723
H209	H	1.971895	0.529105	-0.452390
H210	H	2.305229	0.862438	-0.119056
H211	H	0.914695	-0.005789	0.053652
H212	H	1.248029	0.327544	0.386985
H213	H	1.581362	0.660878	0.720318
H214	H	1.506320	-0.118010	-0.131155
H215	H	1.839653	0.215324	0.202179
H216	H	2.172987	0.548657	0.535512
H217	H	1.359755	0.027588	-0.785750
H218	H	1.693088	0.360922	-0.452417
H219	H	2.026422	0.694255	-0.119083
H220	H	0.889595	0.121390	0.132324
H221	H	1.222929	0.454723	0.465657
H222	H	1.556262	0.788056	0.798990
H223	H	1.359737	0.027585	-0.365755
H224	H	1.693071	0.360918	-0.032422
H225	H	2.026404	0.694252	0.300911
H226	H	0.916302	-0.005930	-0.054630
H227	H	1.249635	0.327404	0.278703
H228	H	1.582968	0.660737	0.612036
H229	H	0.868178	0.211800	0.079172
H230	H	1.201512	0.545133	0.412505
H231	H	1.534845	0.878466	0.745838
H232	H	1.359750	0.027581	-0.634361
H233	H	1.693084	0.360914	-0.301028
H234	H	2.026417	0.694247	0.032305
