data_functionalizedCrystal
_audit_creation_method	'MofGen! by Chris Wilmer'
_symmetry_space_group_name_H-M	'P1'
_symmetry_Int_Tables_number	1
_symmetry_cell_setting	triclinic
loop_
_symmetry_equiv_pos_as_xyz
  x,y,z
_cell_length_a	15.944499
_cell_length_b	15.944493
_cell_length_c	9.130307
_cell_angle_alpha	90.002582
_cell_angle_beta	89.995890
_cell_angle_gamma	83.476327
loop_
_atom_site_label
_atom_site_type_symbol
_atom_site_fract_x
_atom_site_fract_y
_atom_site_fract_z
O1	O	1.114525	0.108127	-0.121868
O2	O	0.869967	0.121529	-0.121849
O3	O	0.998950	-0.007452	-0.121871
O4	O	0.985542	0.237107	-0.121846
O5	O	0.998946	-0.007453	0.121728
O6	O	0.869963	0.121528	0.121750
O7	O	1.114521	0.108126	0.121731
Cu8	Cu	0.992241	0.114826	0.143983
Cu9	Cu	0.992246	0.114828	-0.144101
O10	O	0.985538	0.237106	0.121753
C11	C	0.838670	0.120979	-0.000048
C12	C	0.745422	0.119334	-0.000041
C13	C	0.453871	0.194269	-0.000055
C14	C	0.514910	0.155317	-0.120169
C15	C	0.409787	0.113358	-0.000076
C16	C	0.514892	0.155294	0.120000
C17	C	0.574695	0.116299	-0.000057
C18	C	0.469598	0.074384	-0.120289
C19	C	0.469574	0.074372	0.119989
C20	C	0.530595	0.035361	-0.000154
C21	C	0.314787	0.111666	-0.000088
C22	C	0.669694	0.117984	-0.000055
C23	C	0.998400	-0.038747	-0.000078
C24	C	0.996757	-0.131995	-0.000096
C25	C	1.072679	-0.367769	-0.000074
C26	C	1.031739	-0.418329	-0.120178
C27	C	0.993713	-0.302716	-0.000078
C28	C	1.031717	-0.418306	0.119992
C29	C	0.990778	-0.467625	-0.000054
C30	C	0.952794	-0.352047	-0.120281
C31	C	0.952783	-0.352021	0.119997
C32	C	0.911785	-0.402548	-0.000135
C33	C	0.995405	-0.207716	-0.000093
C34	C	0.989079	-0.562622	-0.000050
C35	C	1.145818	0.108675	-0.000074
C36	C	1.239066	0.110320	-0.000089
C37	C	0.986088	0.268401	-0.000043
C38	C	0.987731	0.361650	-0.000034
N39	N	0.992244	0.114825	0.346606
N40	N	0.992250	0.114823	-0.346724
C41	C	1.106505	0.000646	0.346576
C42	C	1.163641	-0.056442	0.423228
C43	C	1.163649	-0.056442	0.576562
C44	C	1.106514	0.000649	0.653247
C45	C	1.049378	0.057736	0.576595
C46	C	1.049377	0.057732	0.423258
C47	C	0.935115	0.171910	0.576624
C48	C	0.935109	0.171916	0.423291
C49	C	0.877979	0.229001	0.653309
C50	C	0.820846	0.286094	0.576657
C51	C	0.820841	0.286093	0.423315
C52	C	0.877973	0.229003	0.346639
H53	H	0.449462	0.040178	0.221532
H54	H	0.919461	-0.323055	0.221545
H55	H	0.535003	0.189542	-0.221703
H56	H	1.065080	-0.447244	0.221523
H57	H	0.774327	0.332570	0.639104
H58	H	1.106511	0.000647	0.221724
H59	H	0.420527	0.261416	-0.000165
H60	H	1.210158	-0.102926	0.360778
H61	H	1.140699	-0.352153	-0.000200
O62	O	0.830565	-0.420950	-0.000459
C63	C	0.789247	-0.386871	-0.127236
H64	H	0.838025	-0.377663	-0.215352
H65	H	0.752209	-0.323416	-0.099725
C66	C	0.668347	-0.459109	-0.075627
C67	C	0.728256	-0.447807	-0.183858
H68	H	0.630721	-0.496695	-0.110552
H69	H	0.696181	-0.482067	0.009788
H70	H	0.637490	-0.406225	-0.052711
H71	H	0.759118	-0.500688	-0.206759
H72	H	0.700425	-0.424859	-0.269279
H73	H	0.563787	-0.031847	-0.000225
O74	O	1.219226	-0.111932	0.650802
C75	C	1.269634	-0.162341	0.550248
H76	H	1.270578	-0.127905	0.440946
H77	H	1.242372	-0.224755	0.533944
C78	C	1.359087	-0.221909	0.744331
C79	C	1.360252	-0.179611	0.610088
H80	H	1.414984	-0.232566	0.781244
H81	H	1.325124	-0.187950	0.812078
H82	H	1.336365	-0.273915	0.730726
H83	H	1.382964	-0.127601	0.623698
H84	H	1.394221	-0.213562	0.542345
O85	O	1.106654	0.000556	0.802194
C86	C	1.169315	-0.062091	0.853405
H87	H	1.219354	-0.076715	0.765033
H88	H	1.139351	-0.121801	0.880606
C89	C	1.149187	-0.012149	1.100515
C90	C	1.210649	-0.030105	0.991980
H91	H	1.174681	0.007578	1.185998
H92	H	1.106968	0.030056	1.066015
H93	H	1.124222	-0.061912	1.123165
H94	H	1.235605	0.019659	0.969318
H95	H	1.252872	-0.072301	1.026479
O96	O	1.071584	-0.452741	-0.241362
C97	C	1.101738	-0.388434	-0.325733
H98	H	1.109612	-0.331858	-0.252721
H99	H	1.054713	-0.368473	-0.416732
C100	C	1.177895	-0.491065	-0.483269
C101	C	1.187572	-0.421580	-0.393592
H102	H	1.230839	-0.511511	-0.525134
H103	H	1.157577	-0.534390	-0.426431
H104	H	1.138704	-0.474422	-0.559090
H105	H	1.226754	-0.438227	-0.317763
H106	H	1.207898	-0.378259	-0.450419
O107	O	0.913110	-0.317534	-0.241518
C108	C	0.915181	-0.229370	-0.240083
H109	H	0.969916	-0.213395	-0.168893
H110	H	0.853304	-0.197306	-0.193661
C111	C	0.859866	-0.217575	-0.484825
C112	C	0.927097	-0.197956	-0.397398
H113	H	0.867212	-0.198196	-0.581864
H114	H	0.858467	-0.276973	-0.485791
H115	H	0.808309	-0.190854	-0.446123
H116	H	0.978652	-0.224686	-0.436090
H117	H	0.928505	-0.138562	-0.396442
O118	O	0.877847	0.229089	0.802256
C119	C	0.815183	0.291733	0.853498
H120	H	0.765141	0.306352	0.765146
H121	H	0.845143	0.351446	0.880697
C122	C	0.835324	0.241793	1.100595
C123	C	0.773857	0.259743	0.992083
H124	H	0.809834	0.222063	1.186084
H125	H	0.877544	0.199590	1.066074
H126	H	0.860285	0.291558	1.123243
H127	H	0.748904	0.209977	0.969424
H128	H	0.731632	0.301937	1.026604
H129	H	0.774310	0.332577	0.360913
H130	H	0.449628	0.040194	-0.221950
O131	O	0.538718	0.196243	0.241102
C132	C	0.499276	0.279995	0.240632
H133	H	0.439876	0.284012	0.170318
H134	H	0.544502	0.323570	0.193759
C135	C	0.548296	0.302258	0.484779
C136	C	0.475335	0.307190	0.398428
H137	H	0.533531	0.319036	0.582115
H138	H	0.574871	0.245834	0.485095
H139	H	0.585977	0.338571	0.445701
H140	H	0.437660	0.270870	0.437496
H141	H	0.448753	0.363609	0.398123
H142	H	0.877977	0.229000	0.221787
