data_functionalizedCrystal
_audit_creation_method	'MofGen! by Chris Wilmer'
_symmetry_space_group_name_H-M	'P1'
_symmetry_Int_Tables_number	1
_symmetry_cell_setting	triclinic
loop_
_symmetry_equiv_pos_as_xyz
  x,y,z
_cell_length_a	13.897449
_cell_length_b	16.625545
_cell_length_c	13.897441
_cell_angle_alpha	90.031284
_cell_angle_beta	89.976606
_cell_angle_gamma	89.975137
loop_
_atom_site_label
_atom_site_type_symbol
_atom_site_fract_x
_atom_site_fract_y
_atom_site_fract_z
Zn1	Zn	1.474660	0.320958	-0.545445
Zn2	Zn	1.474536	0.455808	-0.384145
Zn3	Zn	1.313349	0.320995	-0.384156
Zn4	Zn	1.313313	0.455754	-0.545390
O5	O	1.393965	0.388379	-0.464784
O6	O	1.609625	0.338853	-0.524067
O7	O	1.453118	0.437963	-0.249164
O8	O	1.334814	0.208158	-0.405579
O9	O	1.609534	0.437927	-0.405560
O10	O	1.453329	0.208131	-0.524078
O11	O	1.334694	0.338917	-0.249173
O12	O	1.178363	0.338864	-0.405526
O13	O	1.334753	0.437835	-0.680379
O14	O	1.178336	0.437871	-0.523983
O15	O	1.453294	0.338801	-0.680419
O16	O	1.453083	0.568634	-0.405506
O17	O	1.334633	0.568594	-0.523972
C18	C	1.143350	0.388367	-0.464750
C19	C	1.036136	0.388381	-0.464759
C20	C	0.949067	0.388383	-0.464775
C21	C	0.839834	0.388389	-0.464804
C22	C	1.393867	0.597870	-0.464753
C23	C	1.393913	0.687491	-0.464772
C24	C	1.394070	1.015667	-0.464887
C25	C	1.394023	0.924358	-0.464858
C26	C	1.393991	0.851582	-0.464829
C27	C	1.393945	0.760267	-0.464801
C28	C	1.645558	0.388392	-0.464818
C29	C	1.752772	0.388398	-0.464833
C30	C	1.394033	0.388308	-0.716377
C31	C	1.394062	0.388277	-0.823591
C32	C	1.394081	1.178070	-0.464847
C33	C	1.394110	1.088449	-0.464903
C34	C	1.394088	0.388223	-1.019886
C35	C	1.394071	0.388255	-0.910654
C36	C	1.393952	0.388392	-0.214169
C37	C	1.394110	0.388195	-0.106956
