data_functionalizedCrystal
_audit_creation_method	'MofGen! by Chris Wilmer'
_symmetry_space_group_name_H-M	'P1'
_symmetry_Int_Tables_number	1
_symmetry_cell_setting	triclinic
loop_
_symmetry_equiv_pos_as_xyz
  x,y,z
_cell_length_a	16.959455
_cell_length_b	12.645330
_cell_length_c	16.959447
_cell_angle_alpha	90.026070
_cell_angle_beta	90.020374
_cell_angle_gamma	90.014712
loop_
_atom_site_label
_atom_site_type_symbol
_atom_site_fract_x
_atom_site_fract_y
_atom_site_fract_z
Zn1	Zn	1.208397	-0.422103	0.447060
Zn2	Zn	1.208325	-0.599394	0.314891
Zn3	Zn	1.076225	-0.422136	0.314883
Zn4	Zn	1.076196	-0.599315	0.447016
O5	O	1.142286	-0.510737	0.380962
O6	O	1.318998	-0.445640	0.429549
O7	O	1.190784	-0.575928	0.204279
O8	O	1.093801	-0.273784	0.332432
O9	O	1.318945	-0.575895	0.332445
O10	O	1.190907	-0.273760	0.429541
O11	O	1.093731	-0.445697	0.204273
O12	O	0.965611	-0.445620	0.332389
O13	O	1.093750	-0.575761	0.557632
O14	O	0.965589	-0.575793	0.429466
O15	O	1.190878	-0.445563	0.557665
O16	O	1.190755	-0.747731	0.332402
O17	O	1.093680	-0.747673	0.429474
C18	C	0.936919	-0.510703	0.380923
C19	C	0.849063	-0.510713	0.380924
C20	C	0.477549	-0.578494	0.330375
C21	C	0.477625	-0.443068	0.431646
C22	C	0.560171	-0.443051	0.431627
C23	C	0.601410	-0.510757	0.380982
C24	C	0.560103	-0.578481	0.330355
C25	C	0.601485	-0.375336	0.482258
C26	C	0.684036	-0.375317	0.482241
C27	C	0.725276	-0.443018	0.431591
C28	C	0.683963	-0.510744	0.380963
C29	C	0.725202	-0.578450	0.330317
C30	C	0.683891	-0.646171	0.279684
C31	C	0.601343	-0.646183	0.279705
C32	C	0.807824	-0.443007	0.431570
C33	C	0.807756	-0.578437	0.330298
C34	C	1.142228	-0.786167	0.380951
C35	C	1.142276	-0.903997	0.380973
C36	C	1.081458	-1.071568	0.442229
C37	C	1.081147	-0.949009	0.442032
C38	C	1.119734	-0.948592	0.297669
C39	C	1.119363	-1.071190	0.298041
C40	C	1.226007	-1.071091	0.402346
C41	C	1.225494	-0.948484	0.404167
C42	C	1.348454	-0.510773	0.381003
C43	C	1.436310	-0.510788	0.381020
C44	C	1.142319	-0.510649	0.587131
C45	C	1.142333	-0.510612	0.674987
C46	C	1.142365	-0.234232	0.380991
C47	C	1.142399	-0.116402	0.381003
C48	C	1.142298	-0.510748	0.175596
C49	C	1.142438	-0.510487	0.087740
C50	C	1.091857	-0.578288	1.046449
C51	C	1.192997	-0.442712	1.046478
C52	C	1.192976	-0.442735	0.963932
C53	C	1.142396	-0.510536	0.922640
C54	C	1.091836	-0.578315	0.963895
C55	C	1.243540	-0.374965	0.922671
C56	C	1.243522	-0.374986	0.840120
C57	C	1.192937	-0.442782	0.798827
C58	C	1.142375	-0.510563	0.840087
C59	C	1.091794	-0.578364	0.798796
C60	C	1.041227	-0.646140	0.840054
C61	C	1.041251	-0.646111	0.922602
C62	C	1.192913	-0.442811	0.716279
C63	C	1.091773	-0.578391	0.716242
H64	H	0.717478	-0.701303	0.238452
C65	C	1.036799	-1.109951	0.273625
H66	H	1.003799	-1.050770	0.263577
H67	H	1.040854	-1.151827	0.227289
H68	H	1.014799	-1.151151	0.314961
H69	H	1.284696	-0.319798	0.806534
H70	H	1.271410	-1.100084	0.357752
H71	H	0.444044	-0.387951	0.472884
C72	C	1.038026	-0.907254	0.272806
H73	H	1.017540	-0.862831	0.313074
H74	H	1.042749	-0.868129	0.225238
H75	H	1.003371	-0.965309	0.264784
H76	H	0.567902	-0.320220	0.523496
H77	H	1.162714	-0.919438	0.250804
H78	H	0.717664	-0.320173	0.523470
H79	H	1.000085	-0.701294	0.956202
H80	H	1.234086	-0.387632	0.682690
H81	H	0.841456	-0.387872	0.472796
H82	H	0.841326	-0.633569	0.289053
H83	H	0.567700	-0.701317	0.238482
H84	H	1.095249	-0.918854	0.503801
C85	C	1.100256	-1.111429	0.525931
H86	H	1.145443	-1.155762	0.524293
H87	H	1.110307	-1.052807	0.559509
H88	H	1.056593	-1.150374	0.545620
C89	C	1.248469	-0.909092	0.486981
H90	H	1.207525	-0.865708	0.507341
H91	H	1.256188	-0.967969	0.520880
H92	H	1.295867	-0.869267	0.483806
H93	H	0.443910	-0.633628	0.289148
C94	C	0.998244	-1.113293	0.423370
H95	H	1.000480	-1.157914	0.378344
H96	H	0.978829	-1.152288	0.467114
H97	H	0.964088	-1.055409	0.413000
C98	C	1.290061	-0.907107	0.348305
H99	H	1.267007	-0.861962	0.309931
H100	H	1.328172	-0.868743	0.377779
H101	H	1.314826	-0.965103	0.322720
C102	C	0.985609	-0.720743	0.794632
H103	H	0.955505	-0.761116	0.831022
H104	H	0.951173	-0.680217	0.762418
H105	H	1.015850	-0.766945	0.762440
H106	H	1.019163	-0.919770	0.427892
H107	H	1.161824	-1.100852	0.250866
H108	H	1.050685	-0.633466	1.080045
C109	C	1.253788	-1.112749	0.483014
H110	H	1.214650	-1.158168	0.504434
H111	H	1.301615	-1.150879	0.476621
H112	H	1.262217	-1.054892	0.517763
H113	H	1.050577	-0.633594	0.682629
C114	C	1.248635	-0.368140	1.091892
H115	H	1.278747	-0.327783	1.055498
H116	H	1.218423	-0.321938	1.124103
H117	H	1.283076	-0.408698	1.124086
C118	C	1.299178	-0.300394	0.968087
H119	H	1.329295	-0.260043	0.931694
H120	H	1.268965	-0.254187	1.000293
H121	H	1.333613	-0.340954	1.000286
