data_functionalizedCrystal
_audit_creation_method	'MofGen! by Chris Wilmer'
_symmetry_space_group_name_H-M	'P1'
_symmetry_Int_Tables_number	1
_symmetry_cell_setting	triclinic
loop_
_symmetry_equiv_pos_as_xyz
  x,y,z
_cell_length_a	9.730223
_cell_length_b	10.654534
_cell_length_c	10.654550
_cell_angle_alpha	95.518333
_cell_angle_beta	89.995747
_cell_angle_gamma	90.004077
loop_
_atom_site_label
_atom_site_type_symbol
_atom_site_fract_x
_atom_site_fract_y
_atom_site_fract_z
O1	O	-0.114315	-1.667851	0.176303
O2	O	-0.114313	-1.302370	0.193130
O3	O	-0.114305	-1.493513	0.001977
O4	O	-0.114323	-1.476707	0.367456
O5	O	0.114274	-1.493501	0.001972
O6	O	0.114267	-1.302357	0.193125
O7	O	0.114264	-1.667838	0.176298
Zn8	Zn	0.150558	-1.485096	0.184711
Zn9	Zn	-0.150606	-1.485112	0.184718
O10	O	0.114257	-1.476695	0.367451
C11	C	-0.000022	-1.255565	0.191896
C12	C	-0.000021	-1.116121	0.188212
C13	C	-0.000016	-1.492273	-0.044824
C14	C	-0.000018	-1.488581	-0.184267
N15	N	0.356094	-1.485094	0.184705
N16	N	-0.356142	-1.485124	0.184713
C17	C	0.428023	-1.569761	0.100099
C18	C	0.571906	-1.569774	0.100099
C19	C	0.571918	-1.400447	0.269324
C20	C	0.428038	-1.400430	0.269316
C21	C	0.124581	-1.050609	0.186475
C22	C	0.124584	-0.919589	0.182993
C23	C	-0.124627	-0.919603	0.182990
C24	C	-0.124628	-1.050622	0.186464
C25	C	-0.000023	-0.714642	0.177542
C26	C	-0.000016	-0.854082	0.181257
C27	C	-0.000020	-1.601123	-0.263759
C28	C	-0.000036	-1.597647	-0.394779
C29	C	-0.000045	-1.369076	-0.366803
C30	C	-0.000038	-1.372554	-0.235785
C31	C	-0.000035	-1.477935	0.414252
C32	C	-0.000042	-1.481627	0.553695
H33	H	0.369450	-1.638698	0.031201
H34	H	-0.226100	-1.103964	0.187875
O35	O	0.641565	-1.652143	0.017868
C36	C	0.547206	-1.726837	-0.056831
H37	H	0.444637	-1.728687	-0.005325
H38	H	0.531922	-1.685256	-0.150510
C39	C	0.729310	-1.859828	-0.144717
C40	C	0.603336	-1.862108	-0.081453
H41	H	0.763934	-1.943268	-0.159911
H42	H	0.792882	-1.809503	-0.094395
H43	H	0.716556	-1.825170	-0.222777
H44	H	0.616095	-1.896750	-0.003389
H45	H	0.539767	-1.912442	-0.131762
O46	O	-0.000079	-1.713935	-0.213920
C47	C	-0.000054	-1.812521	-0.312184
H48	H	-0.043329	-1.776536	-0.401472
H49	H	0.109605	-1.847290	-0.330430
C50	C	-0.036549	-1.966050	-0.164595
C51	C	-0.089712	-1.921855	-0.274258
H52	H	-0.091848	-2.033495	-0.141200
H53	H	-0.036560	-1.899632	-0.098391
H54	H	0.054832	-1.995015	-0.179814
H55	H	-0.181084	-1.892877	-0.259032
H56	H	-0.089717	-1.988271	-0.340458
H57	H	-0.000041	-1.689291	-0.459497
O58	O	0.642020	-1.318338	0.351472
C59	C	0.784438	-1.336488	0.333321
H60	H	0.804073	-1.435931	0.287304
H61	H	0.825299	-1.264865	0.269675
C62	C	0.834173	-1.196597	0.518148
C63	C	0.858289	-1.318739	0.461639
H64	H	0.879730	-1.185643	0.597298
H65	H	0.738224	-1.184365	0.530375
H66	H	0.868223	-1.136925	0.465097
H67	H	0.824223	-1.378407	0.514682
H68	H	0.954235	-1.330981	0.449423
H69	H	0.369470	-1.331477	0.338214
O70	O	-0.245626	-0.855887	0.181526
C71	C	-0.253068	-0.766797	0.288083
H72	H	-0.182364	-0.796997	0.365017
H73	H	-0.219585	-0.670502	0.260906
C74	C	-0.488774	-0.721673	0.242777
C75	C	-0.401944	-0.758770	0.337272
H76	H	-0.580608	-0.716716	0.273117
H77	H	-0.483761	-0.781691	0.170984
H78	H	-0.460856	-0.641430	0.220137
H79	H	-0.429852	-0.839018	0.359899
H80	H	-0.406966	-0.698766	0.409070
O81	O	0.245742	-1.114051	0.188099
C82	C	0.355717	-1.028123	0.185847
H83	H	0.319187	-0.939586	0.143684
H84	H	0.394029	-1.001880	0.286055
C85	C	0.518308	-1.198049	0.156765
C86	C	0.473444	-1.089311	0.104969
H87	H	0.590930	-1.235793	0.106880
H88	H	0.444216	-1.255941	0.158287
H89	H	0.550225	-1.176165	0.240270
H90	H	0.441512	-1.111199	0.021471
H91	H	0.547533	-1.031424	0.103431
H92	H	-0.000058	-1.274610	-0.408766
O93	O	-0.000280	-1.263257	-0.158506
C94	C	-0.118645	-1.258460	-0.081853
H95	H	-0.201385	-1.322272	-0.129271
H96	H	-0.091876	-1.291802	0.013681
C97	C	-0.070709	-1.043609	-0.004878
C98	C	-0.172337	-1.121975	-0.063123
H99	H	-0.103827	-0.959418	0.006681
H100	H	0.009039	-1.046841	-0.056517
H101	H	-0.048411	-1.071408	0.074727
H102	H	-0.194620	-1.094185	-0.142733
H103	H	-0.252090	-1.118736	-0.011497
H104	H	0.226047	-0.866255	0.181579
