data_functionalizedCrystal
_audit_creation_method	'MofGen! by Chris Wilmer'
_symmetry_space_group_name_H-M	'P1'
_symmetry_Int_Tables_number	1
_symmetry_cell_setting	triclinic
loop_
_symmetry_equiv_pos_as_xyz
  x,y,z
_cell_length_a	12.759401
_cell_length_b	16.625545
_cell_length_c	12.759393
_cell_angle_alpha	90.032830
_cell_angle_beta	90.019676
_cell_angle_gamma	90.025984
loop_
_atom_site_label
_atom_site_type_symbol
_atom_site_fract_x
_atom_site_fract_y
_atom_site_fract_z
Zn1	Zn	1.606187	-0.320953	0.593968
Zn2	Zn	2.106187	0.179047	1.093968
Zn3	Zn	1.606045	-0.455808	0.418281
Zn4	Zn	2.106045	0.044192	0.918281
Zn5	Zn	1.430486	-0.320994	0.418307
Zn6	Zn	1.930486	0.179006	0.918307
Zn7	Zn	1.430444	-0.455749	0.593922
Zn8	Zn	1.930444	0.044251	1.093922
O9	O	1.518291	-0.388376	0.506119
O10	O	2.018291	0.111624	1.006119
O11	O	1.753189	-0.338850	0.570671
O12	O	2.253189	0.161150	1.070671
O13	O	1.582714	-0.437966	0.271263
O14	O	2.082714	0.062034	0.771263
O15	O	1.453870	-0.208156	0.441639
O16	O	1.953870	0.291844	0.941639
O17	O	1.753085	-0.437927	0.441594
O18	O	2.253085	0.062073	0.941594
O19	O	1.582957	-0.208126	0.570696
O20	O	2.082957	0.291874	1.070696
O21	O	1.453732	-0.338919	0.271282
O22	O	1.953732	0.161081	0.771282
O23	O	1.283459	-0.338862	0.441594
O24	O	1.783459	0.161138	0.941594
O25	O	1.453799	-0.437826	0.740949
O26	O	1.953799	0.062174	1.240949
O27	O	1.283429	-0.437865	0.570618
O28	O	1.783429	0.062135	1.070618
O29	O	1.582917	-0.338793	0.740983
O30	O	2.082917	0.161207	1.240983
O31	O	1.582674	-0.568632	0.441550
O32	O	2.082674	-0.068632	0.941550
O33	O	1.453661	-0.568589	0.570592
O34	O	1.953661	-0.068589	1.070592
C35	C	1.245323	-0.388362	0.506104
C36	C	1.745323	0.111638	1.006104
C37	C	1.128547	-0.388376	0.506123
C38	C	1.628547	0.111624	1.006123
C39	C	1.073740	-0.336879	0.573437
C40	C	1.573740	0.163121	1.073437
C41	C	0.964016	-0.336888	0.573444
C42	C	1.464016	0.163112	1.073444
C43	C	0.963915	-0.439895	0.438820
C44	C	1.463915	0.060105	0.938820
C45	C	1.073637	-0.439882	0.438809
C46	C	1.573637	0.060118	0.938809
C47	C	1.518176	-0.597867	0.506086
C48	C	2.018176	-0.097867	1.006086
C49	C	1.518224	-0.687488	0.506107
C50	C	2.018224	-0.187488	1.006107
C51	C	1.518264	-0.760270	0.506128
C52	C	2.018264	-0.260270	1.006128
C53	C	1.518326	-0.851579	0.506151
C54	C	2.018326	-0.351579	1.006151
C55	C	1.518380	-0.924355	0.506164
C56	C	2.018380	-0.424355	1.006164
C57	C	1.518440	-1.015669	0.506186
C58	C	2.018440	-0.515669	1.006186
C59	C	1.792324	-0.388390	0.506135
C60	C	2.292324	0.111610	1.006135
C61	C	1.909100	-0.388397	0.506141
C62	C	2.409100	0.111603	1.006141
C63	C	1.518369	-0.388299	0.780153
C64	C	2.018369	0.111701	1.280153
C65	C	1.518403	-0.388266	0.896929
C66	C	2.018403	0.111734	1.396929
C67	C	1.518434	-0.178067	0.506175
C68	C	2.018434	0.321933	1.006175
C69	C	1.518495	-0.088446	0.506199
C70	C	2.018495	0.411554	1.006199
C71	C	1.518273	-0.388395	0.233152
C72	C	2.018273	0.111605	0.733152
C73	C	1.518443	-0.388201	0.116376
C74	C	2.018443	0.111799	0.616376
C75	C	1.585639	-0.336691	0.951811
C76	C	2.085639	0.163309	1.451811
C77	C	1.585657	-0.336656	1.061535
C78	C	2.085657	0.163344	1.561535
C79	C	1.451199	-0.439778	1.061487
C80	C	1.951199	0.060222	1.561487
C81	C	1.451177	-0.439808	0.951765
C82	C	1.951177	0.060192	1.451765
H83	H	1.640376	-0.294719	0.907167
H84	H	2.140376	0.205281	1.407167
H85	H	1.118262	-0.481817	0.383988
H86	H	1.618262	0.018183	0.883988
H87	H	1.640406	-0.294657	1.106214
H88	H	2.140406	0.205343	1.606214
H89	H	1.118444	-0.294937	0.628245
H90	H	1.618444	0.205063	1.128245
C91	C	1.377220	-0.496549	0.891391
C92	C	1.877220	0.003451	1.391391
H93	H	1.337198	-0.527250	0.939762
H94	H	1.837198	-0.027250	1.439762
H95	H	1.331457	-0.465716	0.848587
H96	H	1.831457	0.034284	1.348587
H97	H	1.417389	-0.531695	0.848588
H98	H	1.917389	-0.031695	1.348588
C99	C	0.903732	-0.280246	0.647494
C100	C	1.403732	0.219754	1.147494
H101	H	0.952152	-0.249576	0.687585
H102	H	1.452152	0.250424	1.187585
H103	H	0.860926	-0.245079	0.607396
H104	H	1.360926	0.254921	1.107396
H105	H	0.860939	-0.311144	0.693205
H106	H	1.360939	0.188856	1.193205
C107	C	0.903511	-0.496555	0.364790
C108	C	1.403511	0.003445	0.864790
H109	H	0.830315	-0.489194	0.374445
H110	H	1.330315	0.010806	0.874445
H111	H	0.921463	-0.484690	0.294224
H112	H	1.421463	0.015310	0.794224
H113	H	0.921482	-0.550744	0.380049
H114	H	1.421482	-0.050744	0.880049
H115	H	1.396468	-0.481744	1.106147
H116	H	1.896468	0.018256	1.606147
