data_functionalizedCrystal
_audit_creation_method	'MofGen! by Chris Wilmer'
_symmetry_space_group_name_H-M	'P1'
_symmetry_Int_Tables_number	1
_symmetry_cell_setting	triclinic
loop_
_symmetry_equiv_pos_as_xyz
  x,y,z
_cell_length_a	12.759395
_cell_length_b	16.625545
_cell_length_c	12.759395
_cell_angle_alpha	90.011600
_cell_angle_beta	90.005123
_cell_angle_gamma	90.027095
loop_
_atom_site_label
_atom_site_type_symbol
_atom_site_fract_x
_atom_site_fract_y
_atom_site_fract_z
Zn1	Zn	1.606030	-0.321099	0.593987
Zn2	Zn	1.605934	-0.455903	0.418300
Zn3	Zn	1.430375	-0.321091	0.418324
Zn4	Zn	1.430287	-0.455896	0.593938
O5	O	1.518157	-0.388497	0.506137
O6	O	1.753038	-0.338986	0.570691
O7	O	1.582643	-0.438020	0.271282
O8	O	1.453753	-0.208260	0.441656
O9	O	1.752968	-0.438026	0.441615
O10	O	1.582806	-0.208265	0.570715
O11	O	1.453660	-0.338974	0.271299
O12	O	1.283342	-0.338968	0.441609
O13	O	1.453603	-0.438016	0.740966
O14	O	1.283278	-0.438009	0.570633
O15	O	1.582720	-0.338980	0.741001
O16	O	1.582558	-0.568734	0.441568
O17	O	1.453510	-0.568730	0.570609
C18	C	1.245189	-0.388488	0.506119
C19	C	1.128412	-0.388503	0.506136
C20	C	1.128384	-0.491800	0.640271
C21	C	1.073508	-0.543456	0.707341
C22	C	0.963787	-0.543465	0.707354
C23	C	0.908938	-0.491813	0.640292
C24	C	0.963813	-0.440158	0.573221
C25	C	1.073537	-0.440155	0.573213
C26	C	0.963842	-0.336857	0.439093
C27	C	1.073564	-0.336850	0.439074
C28	C	0.908993	-0.285204	0.372031
C29	C	0.963868	-0.233552	0.304953
C30	C	1.073596	-0.233545	0.304943
C31	C	1.128439	-0.285195	0.372003
C32	C	1.518042	-0.597988	0.506104
C33	C	1.518090	-0.687609	0.506125
C34	C	1.518131	-0.760392	0.506146
C35	C	1.518192	-0.851700	0.506169
C36	C	1.518246	-0.924477	0.506182
C37	C	1.518306	-1.015791	0.506204
C38	C	1.792190	-0.388508	0.506156
C39	C	1.908967	-0.388512	0.506164
C40	C	1.518162	-0.388498	0.780170
C41	C	1.518165	-0.388498	0.896947
C42	C	1.518300	-0.178188	0.506193
C43	C	1.518361	-0.088567	0.506217
C44	C	1.652624	-0.285379	0.897004
C45	C	1.719853	-0.233824	0.951893
C46	C	1.719849	-0.233826	1.061614
C47	C	1.652607	-0.285388	1.116449
C48	C	1.585377	-0.336944	1.061560
C49	C	1.585391	-0.336937	0.951836
C50	C	1.450914	-0.440057	1.061504
C51	C	1.450922	-0.440060	0.951782
C52	C	1.383672	-0.491619	1.116339
C53	C	1.316446	-0.543180	1.061450
C54	C	1.316453	-0.543176	0.951722
C55	C	1.383692	-0.491616	0.896893
C56	C	1.518144	-0.388512	1.233170
C57	C	1.518144	-0.388502	1.116393
H58	H	0.919202	-0.191497	0.250362
Cl59	Cl	1.266375	-0.285194	0.371991
H60	H	0.919108	-0.585524	0.761974
H61	H	0.819597	-0.491818	0.640317
Cl62	Cl	1.652649	-0.285384	0.759067
Cl63	Cl	0.771056	-0.285212	0.372053
H64	H	1.261697	-0.585153	1.106105
H65	H	1.774599	-0.191842	0.907234
H66	H	1.118269	-0.191475	0.250333
Cl67	Cl	1.804350	-0.169001	1.130621
Cl68	Cl	1.266320	-0.491804	0.640245
H69	H	1.118178	-0.585509	0.761944
H70	H	1.652600	-0.285379	1.205790
Cl71	Cl	1.383666	-0.491622	1.254276
Cl72	Cl	1.231925	-0.607988	0.882728
H73	H	1.383710	-0.491611	0.807552
