data_functionalizedCrystal
_audit_creation_method	'MofGen! by Chris Wilmer'
_symmetry_space_group_name_H-M	'P1'
_symmetry_Int_Tables_number	1
_symmetry_cell_setting	triclinic
loop_
_symmetry_equiv_pos_as_xyz
  x,y,z
_cell_length_a	15.944551
_cell_length_b	10.540539
_cell_length_c	9.616153
_cell_angle_alpha	89.999301
_cell_angle_beta	90.000943
_cell_angle_gamma	95.987885
loop_
_atom_site_label
_atom_site_type_symbol
_atom_site_fract_x
_atom_site_fract_y
_atom_site_fract_z
O1	O	-0.118375	1.684272	-0.115563
O2	O	-0.129528	1.314707	-0.115579
O3	O	-0.001736	1.509582	-0.115579
O4	O	-0.246166	1.489398	-0.115564
O5	O	-0.001729	1.509572	0.115713
O6	O	-0.129520	1.314697	0.115712
O7	O	-0.118367	1.684262	0.115728
Zn8	Zn	-0.123943	1.499478	0.152443
Zn9	Zn	-0.123952	1.499491	-0.152294
O10	O	-0.246158	1.489388	0.115728
C11	C	-0.128688	1.267411	0.000064
C12	C	-0.126185	1.126497	0.000058
C13	C	-0.030298	0.944375	0.000592
C14	C	-0.032835	1.090959	0.000056
C15	C	-0.171113	1.064218	-0.132013
C16	C	-0.167928	0.917717	-0.132109
C17	C	-0.169819	0.917191	0.130912
C18	C	-0.170678	1.064162	0.132644
C19	C	-0.277461	1.490231	0.000084
C20	C	-0.370722	1.492743	0.000090
C21	C	-0.586335	1.619539	0.000074
C22	C	-0.646996	1.560654	0.114112
C23	C	-0.541475	1.497287	0.000078
C24	C	-0.646989	1.560635	-0.113923
C25	C	-0.706414	1.501686	0.000060
C26	C	-0.600908	1.438369	0.114210
C27	C	-0.600895	1.438367	-0.113928
C28	C	-0.661538	1.379393	0.000137
C29	C	-0.446458	1.494757	0.000089
C30	C	-0.801430	1.504207	0.000059
C31	C	0.029566	1.508739	0.000062
C32	C	0.122827	1.506227	0.000047
C33	C	-0.119207	1.731559	0.000081
C34	C	-0.121710	1.872473	0.000079
N35	N	-0.123936	1.499478	0.360417
C36	C	-0.055584	1.603781	0.419416
C37	C	-0.055774	1.604165	0.580583
C38	C	-0.211872	1.527883	0.581204
C39	C	-0.211463	1.528618	0.419986
C40	C	-0.105156	1.366484	0.419844
C41	C	-0.103180	1.367389	0.581073
N42	N	-0.123952	1.499502	0.639732
H43	H	-0.139605	0.886052	0.231021
H44	H	-0.667390	1.612370	-0.210328
H45	H	-0.694091	1.277829	0.000197
H46	H	0.009951	1.587256	0.380626
H47	H	0.002516	1.134050	0.094730
H48	H	-0.239668	1.085638	-0.136923
H49	H	-0.235064	0.868834	-0.138100
H50	H	-0.137856	1.105566	0.230349
H51	H	-0.134728	0.889963	-0.230838
H52	H	0.006584	0.916288	0.095307
H53	H	0.006422	0.914672	-0.093601
H54	H	-0.139909	1.107236	-0.230307
H55	H	-0.580606	1.386697	0.210724
H56	H	-0.238737	1.087461	0.140622
H57	H	-0.580461	1.386707	-0.210347
H58	H	-0.067525	1.701927	0.378879
H59	H	-0.067894	1.702873	0.619147
H60	H	-0.237245	0.869046	0.131809
H61	H	0.009545	1.587345	0.620156
H62	H	-0.553634	1.721016	0.000191
H63	H	-0.667408	1.612358	0.210527
H64	H	-0.038496	1.345841	0.619326
H65	H	-0.264012	1.453916	0.619515
H66	H	-0.228623	1.623752	0.621576
H67	H	-0.227839	1.625594	0.382378
H68	H	-0.263787	1.455302	0.380955
H69	H	-0.042350	1.339073	0.379192
H70	H	0.002760	1.133193	-0.094786
H71	H	-0.149656	1.286180	0.621330
H72	H	-0.154989	1.288872	0.381689
