data_functionalizedCrystal
_audit_creation_method	'MofGen! by Chris Wilmer'
_symmetry_space_group_name_H-M	'P1'
_symmetry_Int_Tables_number	1
_symmetry_cell_setting	triclinic
loop_
_symmetry_equiv_pos_as_xyz
  x,y,z
_cell_length_a	27.732048
_cell_length_b	14.971486
_cell_length_c	14.048226
_cell_angle_alpha	90.006640
_cell_angle_beta	89.999028
_cell_angle_gamma	96.871608
loop_
_atom_site_label
_atom_site_type_symbol
_atom_site_fract_x
_atom_site_fract_y
_atom_site_fract_z
O1	O	0.641420	-0.106429	-0.079039
O2	O	0.500701	-0.122612	-0.079068
O3	O	0.574832	0.015739	-0.079046
O4	O	0.567289	-0.244780	-0.079061
O5	O	0.574823	0.015747	0.079276
O6	O	0.500692	-0.122604	0.079254
O7	O	0.641411	-0.106421	0.079283
Zn8	Zn	0.571050	-0.114511	0.104405
Zn9	Zn	0.571062	-0.114522	-0.104190
O10	O	0.567280	-0.244772	0.079261
C11	C	0.482688	-0.122268	0.000090
C12	C	0.429028	-0.121245	0.000079
C13	C	0.574490	0.049063	0.000115
C14	C	0.573479	0.148344	0.000114
N15	N	0.571045	-0.114504	0.246766
C16	C	0.090561	-0.196562	0.000116
C17	C	-0.111116	-0.192767	0.000124
O18	O	-0.142054	-0.261639	0.000162
N19	N	-0.130619	-0.110731	0.000127
C20	C	-0.099698	-0.029637	0.000134
O21	O	-0.120914	0.040227	0.000147
C22	C	0.101978	-0.033433	0.000133
C23	C	0.121477	-0.115475	0.000120
C24	C	0.110061	-0.278597	0.000104
C25	C	0.160477	-0.279545	0.000097
C26	C	0.191393	-0.198458	0.000101
C27	C	0.171893	-0.116423	0.000112
C28	C	0.132897	0.047659	0.000147
C29	C	0.183319	0.046703	0.000148
C30	C	0.202818	-0.035339	0.000136
C31	C	0.253226	-0.036284	0.000109
N32	N	0.272729	-0.118320	0.000106
C33	C	0.241812	-0.199407	0.000102
C34	C	-0.205582	-0.027650	0.000134
C35	C	-0.256000	-0.026701	0.000132
C36	C	-0.267415	-0.189831	0.000124
C37	C	-0.216995	-0.190779	0.000118
C38	C	-0.186079	-0.109686	0.000131
C39	C	0.347690	-0.201392	0.000086
C40	C	0.398112	-0.202332	0.000074
C41	C	0.409522	-0.039203	0.000088
C42	C	0.359105	-0.038261	0.000094
C43	C	0.328190	-0.119363	0.000096
O44	O	0.284193	0.032551	0.000083
O45	O	0.263037	-0.269261	0.000111
C46	C	0.040144	-0.195614	0.000123
C47	C	0.020645	-0.113579	0.000135
C48	C	0.051561	-0.032492	0.000139
C49	C	-0.029774	-0.112630	0.000133
C50	C	-0.060691	-0.193717	0.000129
C51	C	-0.041188	-0.275753	0.000126
C52	C	0.009228	-0.276701	0.000119
C53	C	0.032059	0.049544	0.000142
C54	C	-0.018358	0.050486	0.000148
C55	C	-0.049275	-0.030602	0.000144
C56	C	0.659424	-0.106765	0.000124
C57	C	0.713083	-0.107788	0.000128
C58	C	0.567621	-0.278096	0.000098
C59	C	0.568632	-0.377377	0.000093
C60	C	0.617029	0.206257	0.000123
C61	C	0.616076	0.299542	0.000114
C62	C	0.571573	0.334911	0.000101
C63	C	0.528020	0.276990	0.000089
C64	C	0.528973	0.183707	0.000091
C65	C	0.526036	0.471421	0.000085
C66	C	0.525082	0.564710	0.000083
C67	C	0.613139	0.587255	0.000107
C68	C	0.614092	0.493973	0.000110
C69	C	0.570539	0.436058	0.000099
N70	N	0.571070	-0.114522	-0.246551
C71	C	0.603881	-0.053267	0.296594
C72	C	0.603884	-0.053266	0.396251
C73	C	0.571054	-0.114507	0.446079
C74	C	0.538215	-0.175747	0.396245
C75	C	0.538210	-0.175743	0.296589
C76	C	0.538229	-0.175753	0.603959
C77	C	0.538234	-0.175759	0.703622
C78	C	0.603903	-0.053277	0.703621
C79	C	0.603898	-0.053272	0.603966
C80	C	0.571059	-0.114514	0.554138
H81	H	0.322525	-0.267432	0.000091
C82	C	-0.171577	0.061559	0.000139
C83	C	-0.135345	0.083339	-0.082072
C84	C	-0.101342	0.172547	-0.082072
C85	C	-0.103571	0.239975	0.000139
C86	C	-0.139804	0.218196	0.082356
C87	C	-0.173807	0.128988	0.082356
H88	H	-0.133694	0.033424	-0.142935
H89	H	-0.074520	0.188669	-0.142935
H90	H	-0.078400	0.306012	0.000139
H91	H	-0.141455	0.268112	0.143219
H92	H	-0.200629	0.112866	0.143219
H93	H	0.490570	0.424269	0.000073
H94	H	0.630641	-0.003412	0.744197
C95	C	0.639996	0.014101	0.241788
C96	C	0.676112	0.081464	0.296603
C97	C	0.712226	0.148837	0.241801
C98	C	0.712225	0.148846	0.132183
C99	C	0.676107	0.081481	0.077362
C100	C	0.639993	0.014109	0.132164
H101	H	0.676114	0.081459	0.377754
H102	H	0.738963	0.198705	0.282384
H103	H	0.738959	0.198719	0.091616
H104	H	0.676105	0.081486	-0.003789
H105	H	0.613256	-0.035760	0.091581
C106	C	0.111459	0.137910	0.000164
C107	C	0.123111	0.205060	0.082389
C108	C	0.101675	0.295318	0.082407
C109	C	0.068588	0.318426	0.000202
C110	C	0.056934	0.251274	-0.082029
C111	C	0.078370	0.161016	-0.082047
H112	H	0.147605	0.187956	0.143248
H113	H	0.110302	0.345028	0.143280
H114	H	0.052720	0.385241	0.000216
H115	H	0.032440	0.268379	-0.142888
H116	H	0.069743	0.111306	-0.142920
H117	H	0.651539	0.346692	0.000123
H118	H	0.493510	0.136554	0.000083
C119	C	0.479066	0.315896	0.000069
C120	C	0.466295	0.376934	0.082275
C121	C	0.417340	0.415839	0.082255
C122	C	0.381157	0.393707	0.000029
C123	C	0.393927	0.332665	-0.082183
C124	C	0.442882	0.293760	-0.082163
H125	H	0.493081	0.393321	0.143148
H126	H	0.407887	0.461026	0.143115
H127	H	0.344918	0.422507	0.000015
H128	H	0.367141	0.316279	-0.143057
H129	H	0.452335	0.248573	-0.143023
C130	C	0.663046	0.455067	0.000121
C131	C	0.699235	0.477201	0.082337
C132	C	0.748190	0.438296	0.082344
C133	C	0.760956	0.377257	0.000135
C134	C	0.724766	0.355119	-0.082087
C135	C	0.675811	0.394024	-0.082094
H136	H	0.689786	0.522389	0.143199
H137	H	0.774980	0.454685	0.143211
H138	H	0.797195	0.348457	0.000140
H139	H	0.734215	0.309931	-0.142949
H140	H	0.649021	0.377636	-0.142961
H141	H	0.434703	0.026816	0.000088
H142	H	-0.271872	0.040106	0.000128
C143	C	0.640011	0.014090	0.549149
C144	C	0.639146	0.115938	0.562861
C145	C	0.675258	0.183302	0.508043
C146	C	0.712235	0.148820	0.439514
C147	C	0.713101	0.046968	0.425800
C148	C	0.676989	-0.020397	0.480618
H149	H	0.611772	0.141468	0.613592
H150	H	0.674616	0.258700	0.518195
H151	H	0.738967	0.198687	0.398935
H152	H	0.740475	0.021437	0.375069
H153	H	0.677631	-0.095795	0.470465
C154	C	0.502117	-0.243120	0.758430
C155	C	0.465993	-0.310472	0.703618
C156	C	0.429874	-0.377834	0.758424
C157	C	0.429880	-0.377845	0.868042
C158	C	0.466005	-0.310491	0.922859
C159	C	0.502124	-0.243129	0.868053
H160	H	0.465988	-0.310466	0.622467
H161	H	0.403132	-0.427694	0.717844
H162	H	0.403143	-0.427710	0.908612
H163	H	0.466010	-0.310497	1.004010
H164	H	0.528866	-0.193269	0.908634
H165	H	0.413985	-0.269143	0.000064
C166	C	0.217326	0.135909	0.000158
C167	C	0.215102	0.203329	0.082378
C168	C	0.249109	0.292533	0.082385
C169	C	0.285339	0.314317	0.000173
C170	C	0.287564	0.246895	-0.082053
C171	C	0.253558	0.157691	-0.082060
H172	H	0.188281	0.187204	0.143242
H173	H	0.247461	0.342443	0.143254
H174	H	0.310513	0.380351	0.000178
H175	H	0.314386	0.263019	-0.142917
H176	H	0.255206	0.107781	-0.142930
H177	H	0.343228	0.028543	0.000091
H178	H	0.511486	-0.225620	0.563392
H179	H	0.511481	-0.225608	0.436820
C180	C	0.076058	-0.367803	0.000095
C181	C	0.078292	-0.435216	-0.082128
C182	C	0.044293	-0.524430	-0.082145
C183	C	0.008061	-0.546230	0.000060
C184	C	0.005825	-0.478815	0.082289
C185	C	0.039824	-0.389602	0.082307
H186	H	0.105115	-0.419080	-0.142987
H187	H	0.045949	-0.574335	-0.143017
H188	H	-0.017107	-0.612271	0.000047
H189	H	-0.020997	-0.494952	0.143148
H190	H	0.038169	-0.339697	0.143179
C191	C	-0.075203	-0.364950	0.000124
C192	C	-0.111440	-0.386728	-0.082082
C193	C	-0.145457	-0.475920	-0.082078
C194	C	-0.143237	-0.543333	0.000132
C195	C	-0.106999	-0.521557	0.082344
C196	C	-0.072982	-0.432366	0.082340
H197	H	-0.113085	-0.336823	-0.142944
H198	H	-0.172283	-0.492039	-0.142937
H199	H	-0.168419	-0.609358	0.000135
H200	H	-0.105354	-0.571463	0.143206
H201	H	-0.046156	-0.416246	0.143199
C202	C	0.181918	-0.369796	0.000100
C203	C	0.170266	-0.436936	0.082317
C204	C	0.191702	-0.527194	0.082327
C205	C	0.224790	-0.550312	0.000119
C206	C	0.236444	-0.483171	-0.082105
C207	C	0.215008	-0.392913	-0.082115
H208	H	0.145771	-0.419824	0.143178
H209	H	0.183075	-0.576896	0.143194
H210	H	0.240658	-0.617126	0.000126
H211	H	0.260939	-0.500283	-0.142966
H212	H	0.223635	-0.343210	-0.142982
H213	H	-0.201123	-0.257585	0.000113
H214	H	-0.292596	-0.255855	0.000121
H215	H	0.025099	-0.343508	0.000110
H216	H	-0.034229	0.117299	0.000151
H217	H	0.057227	0.115577	0.000148
H218	H	0.653269	0.177468	0.000139
H219	H	0.511471	-0.225607	0.256020
H220	H	0.630621	-0.003402	0.436821
H221	H	0.648602	0.634414	0.000112
H222	H	0.488844	0.593504	0.000089
