data_functionalizedCrystal
_audit_creation_method	'MofGen! by Chris Wilmer'
_symmetry_space_group_name_H-M	'P1'
_symmetry_Int_Tables_number	1
_symmetry_cell_setting	triclinic
loop_
_symmetry_equiv_pos_as_xyz
  x,y,z
_cell_length_a	10.654541
_cell_length_b	13.101039
_cell_length_c	10.654545
_cell_angle_alpha	93.397171
_cell_angle_beta	95.515322
_cell_angle_gamma	93.388878
loop_
_atom_site_label
_atom_site_type_symbol
_atom_site_fract_x
_atom_site_fract_y
_atom_site_fract_z
O1	O	1.674690	0.085177	-0.169516
O2	O	1.309212	0.085186	-0.186324
O3	O	1.500353	0.085181	0.004819
O4	O	1.483549	0.085183	-0.360659
O5	O	1.486639	-0.085249	-0.008918
O6	O	1.295498	-0.085244	-0.200062
O7	O	1.660976	-0.085252	-0.183253
Zn8	Zn	1.476060	-0.112307	-0.193838
Zn9	Zn	1.494129	0.112241	-0.175739
O10	O	1.469835	-0.085247	-0.374396
C11	C	1.255557	-0.000028	-0.191959
C12	C	1.116114	-0.000024	-0.188268
N13	N	1.463738	-0.265555	-0.206190
C14	C	1.088145	-0.000010	-0.416832
C15	C	1.008652	0.000001	-0.529374
C16	C	0.877634	0.000002	-0.525898
C17	C	0.826107	-0.000012	-0.409868
C18	C	0.905600	-0.000023	-0.297326
C19	C	1.036620	-0.000021	-0.300814
C20	C	0.933568	-0.000044	-0.068766
C21	C	1.064587	-0.000038	-0.072238
C22	C	0.882041	-0.000057	0.047264
C23	C	0.961535	-0.000061	0.159809
C24	C	1.092561	-0.000061	0.156329
C25	C	1.144080	-0.000049	0.040304
C26	C	1.446973	-0.474597	-0.223006
C27	C	1.523221	-0.525475	-0.146565
C28	C	1.513893	-0.641793	-0.155922
C29	C	1.456299	-0.358269	-0.213651
C30	C	1.714631	-0.000036	-0.177618
C31	C	1.854075	-0.000033	-0.181308
C32	C	1.492262	-0.000032	0.044749
C33	C	1.488570	-0.000026	0.184192
N34	N	1.506461	0.265489	-0.163377
C35	C	1.477926	-0.000032	-0.414326
C36	C	1.481619	-0.000031	-0.553769
C37	C	1.503537	0.185782	0.199178
C38	C	1.509290	0.278685	0.272180
C39	C	1.505821	0.278686	0.403199
C40	C	1.496594	0.185774	0.461217
C41	C	1.490841	0.092871	0.388215
C42	C	1.494315	0.092880	0.257194
C43	C	1.475866	-0.092934	0.373229
C44	C	1.479343	-0.092938	0.242211
C45	C	1.466639	-0.185847	0.431247
C46	C	1.460895	-0.278752	0.358245
C47	C	1.464365	-0.278750	0.227219
C48	C	1.473590	-0.185841	0.169208
H49	H	1.194827	0.000011	-0.419671
H50	H	1.510494	0.354336	0.462637
H51	H	1.374694	-0.518393	-0.295473
Br52	Br	1.521845	0.404774	0.193441
Br53	Br	0.704229	-0.000065	0.051983
H54	H	1.050620	0.000009	-0.623844
Br55	Br	0.891599	-0.000091	0.317261
Br56	Br	1.508276	0.185786	0.021369
Br57	Br	1.491853	0.185777	0.639026
Br58	Br	1.461913	-0.185847	0.609057
Br59	Br	1.448353	-0.404833	0.436987
H60	H	1.476423	-0.185830	0.062527
Br61	Br	0.769744	0.000003	-0.678635
H62	H	1.250761	-0.000037	0.037460
H63	H	1.459661	-0.354403	0.167785
Br64	Br	0.648294	-0.000033	-0.405155
Br65	Br	1.200433	-0.000088	0.309074
H66	H	1.595507	-0.481675	-0.074096
