data_functionalizedCrystal
_audit_creation_method	'MofGen! by Chris Wilmer'
_symmetry_space_group_name_H-M	'P1'
_symmetry_Int_Tables_number	1
_symmetry_cell_setting	triclinic
loop_
_symmetry_equiv_pos_as_xyz
  x,y,z
_cell_length_a	27.731994
_cell_length_b	26.809956
_cell_length_c	27.732064
_cell_angle_alpha	89.991600
_cell_angle_beta	82.634978
_cell_angle_gamma	90.002666
loop_
_atom_site_label
_atom_site_type_symbol
_atom_site_fract_x
_atom_site_fract_y
_atom_site_fract_z
O1	O	0.640952	0.041404	0.057385
O2	O	0.974285	0.374738	0.390718
O3	O	1.307618	0.708071	0.724052
O4	O	0.500155	0.041420	0.066158
O5	O	0.833488	0.374754	0.399491
O6	O	1.166822	0.708087	0.732824
O7	O	0.574922	0.041414	-0.008626
O8	O	0.908255	0.374747	0.324708
O9	O	1.241589	0.708080	0.658041
O10	O	0.566185	0.041411	0.132168
O11	O	0.899518	0.374744	0.465502
O12	O	1.232851	0.708078	0.798835
O13	O	0.574908	-0.041545	-0.008614
O14	O	0.908241	0.291788	0.324719
O15	O	1.241575	0.625121	0.658052
O16	O	0.500141	-0.041539	0.066169
O17	O	0.833474	0.291794	0.399502
O18	O	1.166807	0.625128	0.732836
O19	O	0.640938	-0.041555	0.057396
O20	O	0.974271	0.291778	0.390730
O21	O	1.307604	0.625112	0.724063
Zn22	Zn	0.570537	-0.054718	0.061785
Zn23	Zn	0.903870	0.278615	0.395118
Zn24	Zn	1.237204	0.611948	0.728451
Zn25	Zn	0.570556	0.054584	0.061770
Zn26	Zn	0.903889	0.387917	0.395103
Zn27	Zn	1.237222	0.721251	0.728436
O28	O	0.566171	-0.041548	0.132180
O29	O	0.899504	0.291785	0.465513
O30	O	1.232837	0.625118	0.798846
C31	C	0.482140	-0.000057	0.065983
C32	C	0.815474	0.333276	0.399317
C33	C	1.148807	0.666609	0.732650
C34	C	0.428484	-0.000051	0.065441
C35	C	0.761817	0.333282	0.398774
C36	C	1.095151	0.666616	0.732108
C37	C	0.095758	-0.045291	0.062032
C38	C	0.429091	0.288042	0.395365
C39	C	0.762424	0.621376	0.728698
C40	C	-0.105900	-0.045297	0.059970
C41	C	0.227433	0.288037	0.393303
C42	C	0.560766	0.621370	0.726637
O43	O	-0.131980	-0.083755	0.059688
O44	O	0.201354	0.249578	0.393021
O45	O	0.534687	0.582911	0.726355
N46	N	-0.131108	-0.000076	0.059708
N47	N	0.202226	0.333258	0.393041
N48	N	0.535559	0.666591	0.726374
C49	C	-0.105897	0.045150	0.059958
C50	C	0.227437	0.378483	0.393291
C51	C	0.560770	0.711817	0.726624
O52	O	-0.131963	0.083613	0.059682
O53	O	0.201370	0.416946	0.393016
O54	O	0.534703	0.750280	0.726349
C55	C	0.095761	0.045155	0.062016
C56	C	0.429094	0.378488	0.395349
C57	C	0.762428	0.711822	0.728682
C58	C	0.120965	-0.000069	0.062283
C59	C	0.454298	0.333264	0.395616
C60	C	0.787632	0.666598	0.728950
C61	C	0.120962	-0.090511	0.062298
C62	C	0.454295	0.242822	0.395631
C63	C	0.787628	0.576155	0.728965
C64	C	0.171373	-0.090510	0.062816
C65	C	0.504706	0.242824	0.396150
C66	C	0.838040	0.576157	0.729483
C67	C	0.196580	-0.045287	0.063068
C68	C	0.529913	0.288046	0.396401
C69	C	0.863247	0.621379	0.729734
C70	C	0.171376	-0.000067	0.062801
C71	C	0.504709	0.333266	0.396134
C72	C	0.838043	0.666600	0.729468
C73	C	0.120972	0.090380	0.062262
C74	C	0.454305	0.423714	0.395596
C75	C	0.787638	0.757047	0.728929
C76	C	0.171389	0.090377	0.062776
C77	C	0.504723	0.423711	0.396109
C78	C	0.838056	0.757044	0.729442
C79	C	0.196593	0.045153	0.063043
C80	C	0.529927	0.378487	0.396376
C81	C	0.863260	0.711820	0.729709
C82	C	0.246995	0.045157	0.063570
C83	C	0.580328	0.378490	0.396904
C84	C	0.913661	0.711824	0.730237
N85	N	0.272202	-0.000064	0.063833
N86	N	0.605535	0.333269	0.397166
N87	N	0.938868	0.666603	0.730499
C88	C	0.246994	-0.045286	0.063581
C89	C	0.580328	0.288047	0.396915
C90	C	0.913661	0.621380	0.730248
C91	C	-0.211770	0.045144	0.058878
C92	C	0.121563	0.378477	0.392211
C93	C	0.454897	0.711811	0.725545
C94	C	-0.262184	0.045143	0.058364
C95	C	0.071149	0.378476	0.391698
C96	C	0.404482	0.711810	0.725031
C97	C	-0.262185	-0.045304	0.058376
C98	C	0.071149	0.288029	0.391709
C99	C	0.404482	0.621363	0.725042
C100	C	-0.211770	-0.045302	0.058893
C101	C	0.121563	0.288031	0.392226
C102	C	0.454897	0.621364	0.725560
C103	C	-0.186563	-0.000077	0.059140
C104	C	0.146770	0.333256	0.392474
C105	C	0.480104	0.666590	0.725807
C106	C	0.352862	-0.045279	0.064670
C107	C	0.686195	0.288054	0.398003
C108	C	1.019528	0.621388	0.731336
C109	C	0.403277	-0.045273	0.065190
C110	C	0.736610	0.288060	0.398523
C111	C	1.069944	0.621394	0.731856
C112	C	0.403273	0.045174	0.065176
C113	C	0.736606	0.378507	0.398509
C114	C	1.069940	0.711840	0.731842
C115	C	0.352862	0.045168	0.064658
C116	C	0.686195	0.378501	0.397992
C117	C	1.019528	0.711835	0.731325
C118	C	0.327657	-0.000062	0.064403
C119	C	0.660991	0.333271	0.397737
C120	C	0.994324	0.666604	0.731070
O121	O	0.273105	0.083595	0.063847
O122	O	0.606439	0.416929	0.397181
O123	O	0.939772	0.750262	0.730514
O124	O	0.273071	-0.083744	0.063846
O125	O	0.606405	0.249590	0.397179
O126	O	0.939738	0.582923	0.730513
C127	C	0.045347	-0.045293	0.061514
C128	C	0.378680	0.288040	0.394847
C129	C	0.712013	0.621374	0.728180
C130	C	0.020143	-0.000073	0.061247
C131	C	0.353476	0.333261	0.394580
C132	C	0.686809	0.666594	0.727914
C133	C	0.045350	0.045150	0.061498
C134	C	0.378683	0.378483	0.394832
C135	C	0.712016	0.711816	0.728165
C136	C	-0.030272	-0.000074	0.060733
C137	C	0.303062	0.333260	0.394067
C138	C	0.636395	0.666593	0.727400
C139	C	-0.055479	-0.045296	0.060482
C140	C	0.277854	0.288037	0.393815
C141	C	0.611188	0.621371	0.727149
C142	C	-0.030272	-0.090517	0.060744
C143	C	0.303062	0.242816	0.394077
C144	C	0.636395	0.576150	0.727411
C145	C	0.020139	-0.090515	0.061262
C146	C	0.353473	0.242818	0.394595
C147	C	0.686806	0.576151	0.727929
C148	C	0.020143	0.090371	0.061236
C149	C	0.353476	0.423704	0.394569
C150	C	0.686809	0.757037	0.727903
C151	C	-0.030269	0.090365	0.060719
C152	C	0.303065	0.423698	0.394052
C153	C	0.636398	0.757032	0.727385
C154	C	-0.055476	0.045143	0.060467
C155	C	0.277857	0.378476	0.393801
C156	C	0.611191	0.711809	0.727134
N157	N	0.570528	-0.129314	0.061795
N158	N	0.903861	0.204019	0.395128
N159	N	1.237194	0.537352	0.728461
C160	C	0.603658	-0.473943	0.028664
C161	C	0.936991	-0.140610	0.361997
C162	C	1.270325	0.192723	0.695330
C163	C	0.603670	-0.682821	0.028656
C164	C	0.937003	-0.349488	0.361989
C165	C	1.270336	-0.016154	0.695323
O166	O	0.631818	-0.709827	0.000490
O167	O	0.965152	-0.376494	0.333823
O168	O	1.298485	-0.043161	0.667157
N169	N	0.570558	-0.708942	0.061759
N170	N	0.903892	-0.375608	0.395092
N171	N	1.237225	-0.042275	0.728426
C172	C	0.537439	-0.682839	0.094864
C173	C	0.870773	-0.349506	0.428197
C174	C	1.204106	-0.016173	0.761530
O175	O	0.509273	-0.709849	0.123016
O176	O	0.842607	-0.376516	0.456349
O177	O	1.175940	-0.043183	0.789683
C178	C	0.537426	-0.473963	0.094868
C179	C	0.870759	-0.140629	0.428202
C180	C	1.204093	0.192704	0.761535
C181	C	0.570543	-0.447845	0.061767
C182	C	0.903876	-0.114512	0.395100
C183	C	1.237210	0.218822	0.728433
C184	C	0.636772	-0.447826	-0.004436
C185	C	0.970105	-0.114492	0.328898
C186	C	1.303438	0.218841	0.662231
C187	C	0.636770	-0.395609	-0.004432
C188	C	0.970104	-0.062276	0.328902
C189	C	1.303437	0.271057	0.662235
C190	C	0.603655	-0.369511	0.028671
C191	C	0.936988	-0.036177	0.362005
C192	C	1.270322	0.297156	0.695338
C193	C	0.570541	-0.395629	0.061771
C194	C	0.903875	-0.062295	0.395104
C195	C	1.237208	0.271038	0.728437
C196	C	0.504305	-0.447861	0.127971
C197	C	0.837639	-0.114528	0.461304
C198	C	1.170972	0.218805	0.794637
C199	C	0.504304	-0.395639	0.127968
C200	C	0.837638	-0.062306	0.461301
C201	C	1.170971	0.271028	0.794635
C202	C	0.537421	-0.369521	0.094866
C203	C	0.870754	-0.036188	0.428200
C204	C	1.204088	0.297146	0.761533
C205	C	0.537425	-0.317314	0.094878
C206	C	0.870758	0.016020	0.428211
C207	C	1.204091	0.349353	0.761545
N208	N	0.570536	-0.291193	0.061775
N209	N	0.903869	0.042140	0.395109
N210	N	1.237203	0.375473	0.728442
C211	C	0.603651	-0.317292	0.028672
C212	C	0.936985	0.016042	0.362005
C213	C	1.270318	0.349375	0.695339
C214	C	0.537449	-0.792503	0.094859
C215	C	0.870783	-0.459169	0.428193
C216	C	1.204116	-0.125836	0.761526
C217	C	0.537453	-0.844722	0.094859
C218	C	0.870787	-0.511388	0.428192
C219	C	1.204120	-0.178055	0.761526
C220	C	0.603683	-0.844700	0.028651
C221	C	0.937016	-0.511366	0.361984
C222	C	1.270350	-0.178033	0.695317
C223	C	0.603681	-0.792480	0.028654
C224	C	0.937014	-0.459146	0.361987
C225	C	1.270348	-0.125813	0.695321
C226	C	0.570561	-0.766382	0.061757
C227	C	0.903894	-0.433049	0.395090
C228	C	1.237228	-0.099716	0.728423
C229	C	0.603646	-0.207634	0.028683
C230	C	0.936979	0.125700	0.362016
C231	C	1.270313	0.459033	0.695350
C232	C	0.603643	-0.155413	0.028691
C233	C	0.936976	0.177920	0.362025
C234	C	1.270310	0.511254	0.695358
C235	C	0.537412	-0.155439	0.094898
C236	C	0.870745	0.177894	0.428231
C237	C	1.204079	0.511227	0.761564
C238	C	0.537416	-0.207656	0.094891
C239	C	0.870750	0.125678	0.428225
C240	C	1.204083	0.459011	0.761558
C241	C	0.570535	-0.233752	0.061780
C242	C	0.903869	0.099582	0.395113
C243	C	1.237202	0.432915	0.728447
O244	O	0.509287	-0.290275	0.123026
O245	O	0.842620	0.043058	0.456359
O246	O	1.175954	0.376391	0.789692
O247	O	0.631806	-0.290273	0.000517
O248	O	0.965140	0.043060	0.333850
O249	O	1.298473	0.376394	0.667183
C250	C	0.603660	-0.526160	0.028660
C251	C	0.936993	-0.192826	0.361993
C252	C	1.270326	0.140507	0.695326
C253	C	0.570546	-0.552277	0.061759
C254	C	0.903879	-0.218944	0.395092
C255	C	1.237212	0.114389	0.728426
C256	C	0.537431	-0.526179	0.094862
C257	C	0.870764	-0.192846	0.428195
C258	C	1.204097	0.140488	0.761529
C259	C	0.570550	-0.604496	0.061758
C260	C	0.903883	-0.271163	0.395092
C261	C	1.237216	0.062170	0.728425
C262	C	0.603665	-0.630595	0.028655
C263	C	0.936998	-0.297262	0.361989
C264	C	1.270331	0.036072	0.695322
C265	C	0.636776	-0.604474	-0.004448
C266	C	0.970110	-0.271141	0.328886
C267	C	1.303443	0.062192	0.662219
C268	C	0.636775	-0.552258	-0.004444
C269	C	0.970108	-0.218925	0.328890
C270	C	1.303441	0.114409	0.662223
C271	C	0.504319	-0.552299	0.127965
C272	C	0.837653	-0.218966	0.461298
C273	C	1.170986	0.114367	0.794632
C274	C	0.504324	-0.604516	0.127959
C275	C	0.837657	-0.271182	0.461292
C276	C	1.170990	0.062151	0.794625
C277	C	0.537439	-0.630614	0.094855
C278	C	0.870772	-0.297281	0.428189
C279	C	1.204106	0.036052	0.761522
C280	C	0.658952	-0.000076	0.057571
C281	C	0.992285	0.333257	0.390904
C282	C	1.325619	0.666590	0.724237
C283	C	0.712608	-0.000079	0.058113
C284	C	1.045942	0.333254	0.391446
C285	C	1.379275	0.666587	0.724780
C286	C	0.574730	-0.000064	-0.026627
C287	C	0.908064	0.333269	0.306707
C288	C	1.241397	0.666602	0.640040
C289	C	0.574174	-0.000060	-0.080281
C290	C	0.907508	0.333274	0.253052
C291	C	1.240841	0.666607	0.586386
N292	N	0.570569	0.129180	0.061756
N293	N	0.903902	0.462513	0.395089
N294	N	1.237235	0.795847	0.728422
C295	C	0.526206	-0.000052	-0.457344
C296	C	0.859539	0.333281	-0.124011
C297	C	1.192872	0.666615	0.209322
C298	C	0.528252	-0.000052	-0.255685
C299	C	0.861585	0.333282	0.077649
C300	C	1.194919	0.666615	0.410982
O301	O	0.491030	-0.000028	-0.224425
O302	O	0.824363	0.333306	0.108909
O303	O	1.157697	0.666639	0.442242
N304	N	0.572588	-0.000057	-0.236566
N305	N	0.905921	0.333277	0.096768
N306	N	1.239254	0.666610	0.430101
C307	C	0.616415	-0.000058	-0.267865
C308	C	0.949748	0.333275	0.065468
C309	C	1.283081	0.666608	0.398801
O310	O	0.654172	-0.000058	-0.246976
O311	O	0.987505	0.333276	0.086357
O312	O	1.320838	0.666609	0.419690
C313	C	0.614368	-0.000055	-0.469524
C314	C	0.947701	0.333278	-0.136191
C315	C	1.281034	0.666611	0.197142
C316	C	0.570029	-0.000055	-0.488640
C317	C	0.903363	0.333278	-0.155307
C318	C	1.236696	0.666611	0.178027
C319	C	0.481871	-0.000052	-0.476461
C320	C	0.815204	0.333282	-0.143127
C321	C	1.148538	0.666615	0.190206
C322	C	0.481360	-0.000054	-0.526873
C323	C	0.814693	0.333279	-0.193540
C324	C	1.148027	0.666612	0.139794
C325	C	0.525184	-0.000058	-0.558168
C326	C	0.858517	0.333276	-0.224835
C327	C	1.191850	0.666609	0.108498
C328	C	0.569518	-0.000058	-0.539052
C329	C	0.902852	0.333275	-0.205719
C330	C	1.236185	0.666608	0.127615
C331	C	0.658194	-0.000054	-0.500823
C332	C	0.991528	0.333280	-0.167490
C333	C	1.324861	0.666613	0.165844
C334	C	0.657679	-0.000051	-0.551240
C335	C	0.991012	0.333282	-0.217907
C336	C	1.324345	0.666615	0.115426
C337	C	0.613340	-0.000052	-0.570356
C338	C	0.946674	0.333282	-0.237023
C339	C	1.280007	0.666615	0.096311
C340	C	0.612831	-0.000064	-0.620760
C341	C	0.946164	0.333269	-0.287426
C342	C	1.279498	0.666602	0.045907
N343	N	0.568495	-0.000059	-0.639879
N344	N	0.901829	0.333274	-0.306545
N345	N	1.235162	0.666607	0.026788
C346	C	0.524672	-0.000056	-0.608583
C347	C	0.858005	0.333277	-0.275250
C348	C	1.191338	0.666611	0.058084
C349	C	0.617486	-0.000061	-0.161991
C350	C	0.950819	0.333272	0.171342
C351	C	1.284153	0.666606	0.504676
C352	C	0.617998	-0.000063	-0.111577
C353	C	0.951331	0.333271	0.221757
C354	C	1.284665	0.666604	0.555090
C355	C	0.529835	-0.000055	-0.099399
C356	C	0.863169	0.333278	0.233934
C357	C	1.196502	0.666612	0.567267
C358	C	0.529324	-0.000057	-0.149815
C359	C	0.862657	0.333276	0.183519
C360	C	1.195991	0.666610	0.516852
C361	C	0.573151	-0.000056	-0.181110
C362	C	0.906484	0.333277	0.152223
C363	C	1.239817	0.666611	0.485557
C364	C	0.523602	-0.000062	-0.714452
C365	C	0.856935	0.333271	-0.381119
C366	C	1.190268	0.666604	-0.047786
C367	C	0.523095	-0.000067	-0.764869
C368	C	0.856428	0.333266	-0.431536
C369	C	1.189761	0.666599	-0.098203
C370	C	0.611257	-0.000072	-0.777042
C371	C	0.944590	0.333261	-0.443709
C372	C	1.277924	0.666594	-0.110375
C373	C	0.611764	-0.000070	-0.726630
C374	C	0.945098	0.333263	-0.393296
C375	C	1.278431	0.666597	-0.059963
C376	C	0.567933	-0.000063	-0.695335
C377	C	0.901266	0.333270	-0.362002
C378	C	1.234600	0.666603	-0.028669
O379	O	0.650033	-0.000083	-0.652048
O380	O	0.983366	0.333251	-0.318715
O381	O	1.316700	0.666584	0.014619
O382	O	0.486920	-0.000046	-0.629481
O383	O	0.820254	0.333287	-0.296148
O384	O	1.153587	0.666621	0.037185
C385	C	0.526717	-0.000049	-0.406932
C386	C	0.860050	0.333284	-0.073599
C387	C	1.193384	0.666617	0.259734
C388	C	0.571052	-0.000050	-0.387816
C389	C	0.904385	0.333284	-0.054483
C390	C	1.237718	0.666617	0.278851
C391	C	0.614875	-0.000053	-0.419112
C392	C	0.948209	0.333280	-0.085778
C393	C	1.281542	0.666614	0.247555
C394	C	0.571563	-0.000051	-0.337402
C395	C	0.904897	0.333282	-0.004068
C396	C	1.238230	0.666615	0.329265
C397	C	0.527740	-0.000048	-0.306106
C398	C	0.861073	0.333285	0.027227
C399	C	1.194406	0.666619	0.360561
C400	C	0.483404	-0.000043	-0.325225
C401	C	0.816738	0.333290	0.008109
C402	C	1.150071	0.666623	0.341442
C403	C	0.482893	-0.000046	-0.375637
C404	C	0.816227	0.333287	-0.042303
C405	C	1.149560	0.666621	0.291030
C406	C	0.659211	-0.000058	-0.399993
C407	C	0.992544	0.333275	-0.066660
C408	C	1.325877	0.666609	0.266674
C409	C	0.659718	-0.000056	-0.349580
C410	C	0.993052	0.333278	-0.016247
C411	C	1.326385	0.666611	0.317086
C412	C	0.615895	-0.000052	-0.318285
C413	C	0.949228	0.333281	0.015049
C414	C	1.282561	0.666614	0.348382
C415	C	0.566362	-0.000069	0.150181
C416	C	0.899696	0.333264	0.483514
C417	C	1.233029	0.666597	0.816847
C418	C	0.566918	-0.000071	0.203835
C419	C	0.900252	0.333263	0.537168
C420	C	1.233585	0.666596	0.870502
H421	H	-0.282717	-0.082126	0.058172
H422	H	0.050616	0.251208	0.391506
H423	H	0.383950	0.584541	0.724839
H424	H	0.654103	-0.000071	-0.096017
H425	H	0.987436	0.333263	0.237316
H426	H	1.320769	0.666596	0.570649
H427	H	0.630612	-0.134149	0.001736
H428	H	0.963946	0.199184	0.335069
H429	H	1.297279	0.532517	0.668403
F430	F	0.469072	-0.524529	0.163199
F431	F	0.802405	-0.191196	0.496533
F432	F	1.135739	0.142137	0.829866
H433	H	0.100444	-0.127339	0.062092
H434	H	0.433777	0.205994	0.395426
H435	H	0.767110	0.539328	0.728759
H436	H	0.423806	0.081992	0.065382
H437	H	0.757139	0.415326	0.398716
H438	H	1.090472	0.748659	0.732049
F439	F	0.430098	-0.093409	0.065476
F440	F	0.763431	0.239925	0.398809
F441	F	1.096764	0.573258	0.732142
F442	F	0.046957	-0.138649	0.061546
F443	F	0.380290	0.194684	0.394880
F444	F	0.713624	0.528017	0.728213
H445	H	0.100459	0.127207	0.062044
H446	H	0.433793	0.460540	0.395378
H447	H	0.767126	0.793873	0.728711
F448	F	-0.057108	-0.138646	0.060479
F449	F	0.276225	0.194687	0.393812
F450	F	0.609558	0.528021	0.727146
H451	H	0.695827	-0.000060	-0.334022
H452	H	1.029160	0.333274	-0.000688
H453	H	1.362493	0.666607	0.332645
F454	F	-0.184950	-0.093435	0.059176
F455	F	0.148383	0.239898	0.392510
F456	F	0.481716	0.573231	0.725843
H457	H	0.477339	-0.469119	0.154925
H458	H	0.810672	-0.135786	0.488258
H459	H	1.144005	0.197547	0.821591
H460	H	0.510454	-0.228921	0.121850
H461	H	0.843788	0.104412	0.455184
H462	H	1.177121	0.437745	0.788517
H463	H	0.630647	-0.771218	0.001700
H464	H	0.963981	-0.437884	0.335033
H465	H	1.297314	-0.104551	0.668366
F466	F	0.638927	-0.872485	-0.006580
F467	F	0.972260	-0.539152	0.326753
F468	F	1.305593	-0.205818	0.660086
H469	H	0.332346	-0.082110	0.064467
H470	H	0.665679	0.251224	0.397800
H471	H	0.999012	0.584557	0.731133
F472	F	0.502197	-0.764733	0.130095
F473	F	0.835531	-0.431399	0.463428
F474	F	1.168864	-0.098066	0.796762
H475	H	0.332339	0.081993	0.064449
H476	H	0.665672	0.415326	0.397782
H477	H	0.999005	0.748660	0.731115
H478	H	-0.282702	0.081969	0.058155
H479	H	0.050631	0.415302	0.391488
H480	H	0.383964	0.748636	0.724821
H481	H	-0.050786	0.127195	0.060505
H482	H	0.282547	0.460528	0.393838
H483	H	0.615881	0.793861	0.727172
F484	F	0.482134	-0.000056	-0.170154
F485	F	0.815467	0.333277	0.163179
F486	F	1.148800	0.666610	0.496512
F487	F	0.198214	0.138514	0.063038
F488	F	0.531547	0.471847	0.396371
F489	F	0.864880	0.805181	0.729704
H490	H	0.486987	-0.000070	-0.780430
H491	H	0.820321	0.333264	-0.447097
H492	H	1.153654	0.666597	-0.113764
H493	H	0.663741	-0.530997	-0.031398
H494	H	0.997075	-0.197663	0.301935
H495	H	1.330408	0.135670	0.635269
H496	H	-0.191251	0.081974	0.059079
H497	H	0.142082	0.415307	0.392413
H498	H	0.475415	0.748641	0.725746
H499	H	0.191890	-0.127336	0.063031
H500	H	0.525223	0.205998	0.396364
H501	H	0.858557	0.539331	0.729697
H502	H	0.040661	0.127197	0.061439
H503	H	0.373995	0.460530	0.394773
H504	H	0.707328	0.793863	0.728106
F505	F	0.638895	-0.235399	-0.006558
F506	F	0.972228	0.097934	0.326775
F507	F	1.305562	0.431267	0.660109
H508	H	0.445255	-0.000050	-0.542432
H509	H	0.778588	0.333283	-0.209099
H510	H	1.111922	0.666616	0.124235
H511	H	0.663738	-0.469070	-0.031395
H512	H	0.997072	-0.135737	0.301939
H513	H	1.330405	0.197596	0.635272
H514	H	0.477332	-0.374393	0.154924
H515	H	0.810666	-0.041059	0.488257
H516	H	1.143999	0.292274	0.821591
H517	H	0.663736	-0.374347	-0.031387
H518	H	0.997069	-0.041014	0.301946
H519	H	1.330402	0.292319	0.635279
H520	H	0.510492	-0.865983	0.121818
H521	H	0.843825	-0.532650	0.455152
H522	H	1.177158	-0.199316	0.788485
H523	H	0.647868	-0.000077	-0.711065
H524	H	0.981202	0.333256	-0.377732
H525	H	1.314535	0.666589	-0.044398
F526	F	0.502171	-0.127656	0.130128
F527	F	0.835504	0.205678	0.463461
F528	F	1.168837	0.539011	0.796795
F529	F	0.672021	-0.632259	-0.039677
F530	F	1.005355	-0.298926	0.293656
F531	F	1.338688	0.034407	0.626990
F532	F	0.469076	-0.632307	0.163195
F533	F	0.802410	-0.298974	0.496528
F534	F	1.135743	0.034359	0.829861
H535	H	0.694299	-0.000053	-0.485268
H536	H	1.027633	0.333280	-0.151935
H537	H	1.360966	0.666614	0.181399
H538	H	0.694898	-0.000060	-0.425469
H539	H	1.028231	0.333273	-0.092136
H540	H	1.361565	0.666607	0.241197
H541	H	0.487910	-0.000057	-0.688978
H542	H	0.821243	0.333276	-0.355645
H543	H	1.154577	0.666610	-0.022311
H544	H	0.653177	-0.000061	-0.187468
H545	H	0.986511	0.333272	0.145865
H546	H	1.319844	0.666605	0.479199
F547	F	0.435702	-0.000045	-0.395975
F548	F	0.769035	0.333288	-0.062641
F549	F	1.102369	0.666621	0.270692
F550	F	0.435224	-0.000046	-0.443160
F551	F	0.768557	0.333287	-0.109827
F552	F	1.101890	0.666620	0.223506
H553	H	0.494152	-0.000055	-0.073910
H554	H	0.827486	0.333279	0.259424
H555	H	1.160819	0.666612	0.592757
F556	F	0.704327	-0.000049	-0.584545
F557	F	1.037660	0.333285	-0.251211
F558	F	1.370993	0.666618	0.082122
H559	H	0.447722	-0.000044	-0.299735
H560	H	0.781055	0.333290	0.033598
H561	H	1.114388	0.666623	0.366932
F562	F	0.657895	-0.000080	-0.810358
F563	F	0.991228	0.333254	-0.477024
F564	F	1.324561	0.666587	-0.143691
