data_functionalizedCrystal
_audit_creation_method	'MofGen! by Chris Wilmer'
_symmetry_space_group_name_H-M	'P1'
_symmetry_Int_Tables_number	1
_symmetry_cell_setting	triclinic
loop_
_symmetry_equiv_pos_as_xyz
  x,y,z
_cell_length_a	13.101039
_cell_length_b	14.044220
_cell_length_c	14.044220
_cell_angle_alpha	93.188878
_cell_angle_beta	93.673600
_cell_angle_gamma	86.328313
loop_
_atom_site_label
_atom_site_type_symbol
_atom_site_fract_x
_atom_site_fract_y
_atom_site_fract_z
O1	O	-0.085111	-1.272352	-0.234979
O2	O	0.164889	-1.022352	0.015021
O3	O	0.414889	-0.772352	0.265021
O4	O	0.664889	-0.522352	0.515021
O5	O	-0.085137	-0.995679	-0.226675
O6	O	0.164863	-0.745679	0.023325
O7	O	0.414863	-0.495679	0.273325
O8	O	0.664863	-0.245679	0.523325
O9	O	-0.085114	-1.129863	-0.092490
O10	O	0.164886	-0.879863	0.157510
O11	O	0.414886	-0.629863	0.407510
O12	O	0.664886	-0.379863	0.657510
O13	O	-0.085133	-1.138168	-0.369163
O14	O	0.164867	-0.888168	-0.119163
O15	O	0.414867	-0.638168	0.130837
O16	O	0.664867	-0.388168	0.380837
O17	O	0.085318	-1.139494	-0.082850
O18	O	0.335318	-0.889494	0.167150
O19	O	0.585318	-0.639494	0.417150
O20	O	0.835318	-0.389494	0.667150
O21	O	0.085295	-1.005310	-0.217035
O22	O	0.335295	-0.755310	0.032965
O23	O	0.585295	-0.505310	0.282965
O24	O	0.835295	-0.255310	0.532965
O25	O	0.085321	-1.281983	-0.225339
O26	O	0.335321	-1.031983	0.024661
O27	O	0.585321	-0.781983	0.274661
O28	O	0.835321	-0.531983	0.524661
Zn29	Zn	0.112367	-1.145176	-0.219656
Zn30	Zn	0.362367	-0.895176	0.030344
Zn31	Zn	0.612367	-0.645176	0.280344
Zn32	Zn	0.862367	-0.395176	0.530344
Zn33	Zn	-0.112183	-1.132486	-0.232357
Zn34	Zn	0.137817	-0.882486	0.017643
Zn35	Zn	0.387817	-0.632486	0.267643
Zn36	Zn	0.637817	-0.382486	0.517643
O37	O	0.085298	-1.147799	-0.359523
O38	O	0.335298	-0.897799	-0.109523
O39	O	0.585298	-0.647799	0.140477
O40	O	0.835298	-0.397799	0.390477
C41	C	0.000076	-0.964872	-0.218219
C42	C	0.250076	-0.714872	0.031781
C43	C	0.500076	-0.464872	0.281781
C44	C	0.750076	-0.214872	0.531781
C45	C	0.000066	-0.858729	-0.207375
C46	C	0.250066	-0.608729	0.042625
C47	C	0.500066	-0.358729	0.292625
C48	C	0.750066	-0.108729	0.542625
N49	N	-0.265433	-1.123826	-0.241019
N50	N	-0.015433	-0.873826	0.008981
N51	N	0.234567	-0.623826	0.258981
N52	N	0.484567	-0.373826	0.508981
C53	C	0.000106	-1.312789	-0.233794
C54	C	0.250106	-1.062789	0.016206
C55	C	0.500106	-0.812789	0.266206
C56	C	0.750106	-0.562789	0.516206
C57	C	0.000109	-1.418932	-0.244639
C58	C	0.250109	-1.168932	0.005361
C59	C	0.500109	-0.918932	0.255361
C60	C	0.750109	-0.668932	0.505361
C61	C	-0.474478	-1.112035	-0.252802
C62	C	-0.224478	-0.862035	-0.002802
C63	C	0.025522	-0.612035	0.247198
C64	C	0.275522	-0.362035	0.497198
C65	C	-0.525345	-1.165631	-0.199207
C66	C	-0.275345	-0.915631	0.050793
C67	C	-0.025345	-0.665631	0.300793
C68	C	0.224655	-0.415631	0.550793
C69	C	-0.641664	-1.159070	-0.205764
C70	C	-0.391664	-0.909070	0.044236
C71	C	-0.141664	-0.659070	0.294236
C72	C	0.108336	-0.409070	0.544236
C73	C	-0.358148	-1.118595	-0.246247
C74	C	-0.108148	-0.868595	0.003753
C75	C	0.141852	-0.618595	0.253753
C76	C	0.391852	-0.368595	0.503753
N77	N	0.265617	-1.153843	-0.210988
N78	N	0.515617	-0.903843	0.039012
N79	N	0.765617	-0.653843	0.289012
N80	N	1.015617	-0.403843	0.539012
C81	C	0.000102	-1.131043	-0.052049
C82	C	0.250102	-0.881043	0.197951
C83	C	0.500102	-0.631043	0.447951
C84	C	0.750102	-0.381043	0.697951
C85	C	0.000102	-1.120198	0.054094
C86	C	0.250102	-0.870198	0.304094
C87	C	0.500102	-0.620198	0.554094
C88	C	0.750102	-0.370198	0.804094
C89	C	0.000088	-0.664393	-0.187548
C90	C	0.250088	-0.414393	0.062452
C91	C	0.500088	-0.164393	0.312452
C92	C	0.750088	0.085607	0.562452
C93	C	0.000087	-0.613263	-0.264462
C94	C	0.250087	-0.363263	-0.014462
C95	C	0.500087	-0.113263	0.235538
C96	C	0.750087	0.136737	0.485538
C97	C	0.000099	-0.505127	-0.253430
C98	C	0.250099	-0.255127	-0.003430
C99	C	0.500099	-0.005127	0.246570
C100	C	0.750099	0.244873	0.496570
C101	C	0.000076	-0.772538	-0.198578
C102	C	0.250076	-0.522538	0.051422
C103	C	0.500076	-0.272538	0.301422
C104	C	0.750076	-0.022538	0.551422
C105	C	0.000080	-1.146619	-0.399965
C106	C	0.250080	-0.896619	-0.149965
C107	C	0.500080	-0.646619	0.100035
C108	C	0.750080	-0.396619	0.350035
C109	C	0.000073	-1.157463	-0.506108
C110	C	0.250073	-0.907463	-0.256108
C111	C	0.500073	-0.657463	-0.006108
C112	C	0.750073	-0.407463	0.243892
C113	C	0.000086	-1.100371	0.248431
C114	C	0.250086	-0.850371	0.498431
C115	C	0.500086	-0.600371	0.748431
C116	C	0.750086	-0.350371	0.998431
C117	C	0.000090	-1.177286	0.299561
C118	C	0.250090	-0.927286	0.549561
C119	C	0.500090	-0.677286	0.799561
C120	C	0.750090	-0.427286	1.049561
C121	C	0.000080	-1.166254	0.407697
C122	C	0.250080	-0.916254	0.657697
C123	C	0.500080	-0.666254	0.907697
C124	C	0.750080	-0.416254	1.157697
C125	C	0.000095	-1.111402	0.140285
C126	C	0.250095	-0.861402	0.390285
C127	C	0.500095	-0.611402	0.640285
C128	C	0.750095	-0.361402	0.890285
H129	H	-0.481534	-1.216442	-0.148399
H130	H	-0.231534	-0.966442	0.101601
H131	H	0.018466	-0.716442	0.351601
H132	H	0.268466	-0.466442	0.601601
N133	N	-0.532498	-1.044728	-0.320097
N134	N	-0.282498	-0.794728	-0.070097
N135	N	-0.032498	-0.544728	0.179903
N136	N	0.217502	-0.294728	0.429903
H137	H	-0.608572	-1.049523	-0.315295
H138	H	-0.358572	-0.799523	-0.065295
H139	H	-0.108572	-0.549523	0.184705
H140	H	0.141428	-0.299523	0.434705
H141	H	-0.513815	-0.977104	-0.302278
H142	H	-0.263815	-0.727104	-0.052278
H143	H	-0.013815	-0.477104	0.197722
H144	H	0.236185	-0.227104	0.447722
N145	N	0.000121	-1.275491	0.249985
N146	N	0.250121	-1.025491	0.499985
N147	N	0.500121	-0.775491	0.749985
N148	N	0.750121	-0.525491	0.999985
H149	H	-0.063051	-1.307793	0.265460
H150	H	0.186949	-1.057793	0.515460
H151	H	0.436949	-0.807793	0.765460
H152	H	0.686949	-0.557793	1.015460
H153	H	0.000169	-1.269483	0.178660
H154	H	0.250169	-1.019483	0.428660
H155	H	0.500169	-0.769483	0.678660
H156	H	0.750169	-0.519483	0.928660
H157	H	0.000099	-0.626956	-0.113419
H158	H	0.250099	-0.376956	0.136581
H159	H	0.500099	-0.126956	0.386581
H160	H	0.750099	0.123044	0.636581
N161	N	0.000075	-1.002176	0.298012
N162	N	0.250075	-0.752176	0.548012
N163	N	0.500075	-0.502176	0.798012
N164	N	0.750075	-0.252176	1.048012
H165	H	0.000073	-1.008117	0.369352
H166	H	0.250073	-0.758117	0.619352
H167	H	0.500073	-0.508117	0.869352
H168	H	0.750073	-0.258117	1.119352
H169	H	0.063258	-0.969940	0.282462
H170	H	0.313258	-0.719940	0.532462
H171	H	0.563258	-0.469940	0.782462
H172	H	0.813258	-0.219940	1.032462
H173	H	0.000077	-0.650701	-0.338596
H174	H	0.250077	-0.400701	-0.088596
H175	H	0.500077	-0.150701	0.161404
H176	H	0.750077	0.099299	0.411404
