data_functionalizedCrystal
_audit_creation_method	'MofGen! by Chris Wilmer'
_symmetry_space_group_name_H-M	'P1'
_symmetry_Int_Tables_number	1
_symmetry_cell_setting	triclinic
loop_
_symmetry_equiv_pos_as_xyz
  x,y,z
_cell_length_a	16.109302
_cell_length_b	16.109301
_cell_length_c	14.586319
_cell_angle_alpha	90.005214
_cell_angle_beta	89.994552
_cell_angle_gamma	96.538369
loop_
_atom_site_label
_atom_site_type_symbol
_atom_site_fract_x
_atom_site_fract_y
_atom_site_fract_z
O1	O	1.103130	-0.106869	-0.076284
O2	O	1.436464	0.226464	0.257049
O3	O	1.769797	0.559798	0.590382
O4	O	0.861069	-0.120168	-0.076278
O5	O	1.194402	0.213166	0.257056
O6	O	1.527735	0.546499	0.590389
O7	O	0.988749	0.007513	-0.076272
O8	O	1.322082	0.340846	0.257061
O9	O	1.655416	0.674179	0.590395
O10	O	0.975450	-0.234549	-0.076290
O11	O	1.308783	0.098784	0.257043
O12	O	1.642116	0.432117	0.590376
O13	O	0.988740	0.007515	0.076209
O14	O	1.322074	0.340848	0.409542
O15	O	1.655407	0.674181	0.742876
O16	O	0.861060	-0.120166	0.076203
O17	O	1.194393	0.213168	0.409537
O18	O	1.527726	0.546501	0.742870
O19	O	1.103122	-0.106867	0.076196
O20	O	1.436455	0.226466	0.409530
O21	O	1.769788	0.559800	0.742863
Cu22	Cu	0.982090	-0.113516	0.090122
Cu23	Cu	1.315423	0.219817	0.423456
Cu24	Cu	1.648756	0.553150	0.756789
Cu25	Cu	0.982100	-0.113519	-0.090204
Cu26	Cu	1.315434	0.219815	0.243130
Cu27	Cu	1.648767	0.553148	0.576463
O28	O	0.975441	-0.234547	0.076191
O29	O	1.308774	0.098786	0.409524
O30	O	1.642108	0.432119	0.742857
C31	C	0.830089	-0.119628	-0.000036
C32	C	1.163423	0.213705	0.333297
C33	C	1.496756	0.547039	0.666630
C34	C	0.737794	-0.118013	-0.000033
C35	C	1.071127	0.215321	0.333300
C36	C	1.404461	0.548654	0.666633
C37	C	0.525448	-0.114276	0.083075
C38	C	0.858782	0.219057	0.416409
C39	C	1.192115	0.552390	0.749742
C40	C	0.438728	-0.112750	0.083072
C41	C	0.772061	0.220584	0.416405
C42	C	1.105395	0.553917	0.749739
C43	C	0.438748	-0.112756	-0.083171
C44	C	0.772082	0.220577	0.250162
C45	C	1.105415	0.553911	0.583496
C46	C	0.525468	-0.114277	-0.083167
C47	C	0.858801	0.219057	0.250167
C48	C	1.192134	0.552390	0.583500
C49	C	0.568815	-0.115041	-0.000041
C50	C	0.902148	0.218292	0.333292
C51	C	1.235481	0.551626	0.666626
C52	C	0.395375	-0.111994	-0.000048
C53	C	0.728709	0.221340	0.333285
C54	C	1.062042	0.554673	0.666618
C55	C	0.301350	-0.110338	-0.000052
C56	C	0.634683	0.222995	0.333281
C57	C	0.968016	0.556328	0.666615
C58	C	0.662847	-0.116695	-0.000037
C59	C	0.996180	0.216638	0.333297
C60	C	1.329513	0.549972	0.666630
C61	C	1.134101	-0.107407	-0.000047
C62	C	1.467434	0.225926	0.333286
C63	C	1.800768	0.559260	0.666620
C64	C	1.226396	-0.109022	-0.000056
C65	C	1.559729	0.224311	0.333277
C66	C	1.893063	0.557644	0.666611
C67	C	0.988206	0.038488	-0.000031
C68	C	1.321539	0.371822	0.333302
C69	C	1.654873	0.705155	0.666636
C70	C	0.986591	0.130784	-0.000030
C71	C	1.319924	0.464117	0.333304
C72	C	1.653258	0.797450	0.666637
C73	C	0.975984	-0.265523	-0.000052
C74	C	1.309317	0.067810	0.333281
C75	C	1.642651	0.401143	0.666614
C76	C	0.977599	-0.357819	-0.000060
C77	C	1.310933	-0.024485	0.333274
C78	C	1.644266	0.308848	0.666607
N79	N	0.982088	-0.113514	0.216954
N80	N	1.315422	0.219819	0.550288
N81	N	1.648755	0.553152	0.883621
C82	C	1.058599	0.353056	-0.000046
C83	C	1.391932	0.686389	0.333287
C84	C	1.725265	1.019723	0.666620
C85	C	1.057074	0.439776	-0.000054
C86	C	1.390408	0.773110	0.333280
C87	C	1.723741	1.106443	0.666613
C88	C	0.905586	0.419902	-0.000046
C89	C	1.238919	0.753236	0.333288
C90	C	1.572252	1.086569	0.666621
C91	C	0.907111	0.333184	-0.000045
C92	C	1.240444	0.666517	0.333288
C93	C	1.573777	0.999850	0.666622
C94	C	0.983620	0.299763	-0.000040
C95	C	1.316953	0.633096	0.333293
C96	C	1.650286	0.966430	0.666626
C97	C	0.980571	0.473202	-0.000049
C98	C	1.313904	0.806535	0.333284
C99	C	1.647237	1.139869	0.666618
C100	C	0.978918	0.567228	-0.000057
C101	C	1.312251	0.900562	0.333276
C102	C	1.645584	1.233895	0.666610
C103	C	0.985273	0.205731	-0.000034
C104	C	1.318606	0.539064	0.333299
C105	C	1.651940	0.872398	0.666633
N106	N	0.982108	-0.113514	-0.217035
N107	N	1.315442	0.219819	0.116298
N108	N	1.648775	0.553153	0.449631
C109	C	1.038644	-0.056996	0.451963
C110	C	1.371977	0.276337	0.785297
C111	C	1.705311	0.609670	1.118630
C112	C	1.038647	-0.056994	0.547944
C113	C	1.371980	0.276339	0.881278
C114	C	1.705313	0.609672	1.214611
C115	C	0.925546	-0.170035	0.547949
C116	C	1.258880	0.163299	0.881282
C117	C	1.592213	0.496632	1.214616
C118	C	0.925541	-0.170032	0.451969
C119	C	1.258874	0.163301	0.785303
C120	C	1.592207	0.496635	1.118636
C121	C	0.982094	-0.113514	0.403979
C122	C	1.315428	0.219820	0.737312
C123	C	1.648761	0.553153	1.070646
C124	C	0.982102	-0.113514	0.595940
C125	C	1.315436	0.219819	0.929273
C126	C	1.648769	0.553152	1.262606
C127	C	0.982105	-0.113513	0.700007
C128	C	1.315438	0.219821	1.033340
C129	C	1.648771	0.553154	1.366674
C130	C	0.982091	-0.113514	0.299905
C131	C	1.315425	0.219819	0.633239
C132	C	1.648758	0.553152	0.966572
H133	H	0.560739	-0.114899	0.150762
H134	H	0.894072	0.218435	0.484095
H135	H	1.227406	0.551768	0.817428
F136	F	0.827303	0.276461	-0.000045
F137	F	1.160637	0.609795	0.333288
F138	F	1.493970	0.943128	0.666621
H139	H	0.879487	-0.216056	0.412898
H140	H	1.212820	0.117278	0.746231
H141	H	1.546154	0.450611	1.079565
H142	H	1.120897	0.325848	-0.000044
H143	H	1.454230	0.659181	0.333289
H144	H	1.787564	0.992515	0.666622
F145	F	1.098833	0.003161	0.599010
F146	F	1.432166	0.336494	0.932343
F147	F	1.765499	0.669827	1.265676
F148	F	0.865363	-0.230185	0.599030
F149	F	1.198696	0.103149	0.932363
F150	F	1.532030	0.436482	1.265696
F151	F	1.136878	0.496492	-0.000062
F152	F	1.470211	0.829825	0.333272
F153	F	1.803544	1.163158	0.666605
H154	H	0.843295	0.447124	-0.000048
H155	H	1.176628	0.780458	0.333286
H156	H	1.509962	1.113791	0.666619
H157	H	0.403423	-0.112127	0.150754
H158	H	0.736756	0.221206	0.484087
H159	H	1.070090	0.554540	0.817420
F160	F	1.098831	0.003158	0.400892
F161	F	1.432165	0.336491	0.734225
F162	F	1.765498	0.669824	1.067559
H163	H	0.560778	-0.114897	-0.150854
H164	H	0.894111	0.218436	0.182479
H165	H	1.227444	0.551769	0.515812
F166	F	0.392610	-0.111926	-0.171634
F167	F	0.725943	0.221407	0.161699
F168	F	1.059277	0.554741	0.495033
