data_functionalizedCrystal
_audit_creation_method	'MofGen! by Chris Wilmer'
_symmetry_space_group_name_H-M	'P1'
_symmetry_Int_Tables_number	1
_symmetry_cell_setting	triclinic
loop_
_symmetry_equiv_pos_as_xyz
  x,y,z
_cell_length_a	19.188933
_cell_length_b	19.188924
_cell_length_c	14.421503
_cell_angle_alpha	90.002214
_cell_angle_beta	89.993814
_cell_angle_gamma	83.143767
loop_
_atom_site_label
_atom_site_type_symbol
_atom_site_fract_x
_atom_site_fract_y
_atom_site_fract_z
O1	O	0.926146	0.087165	-0.077085
O2	O	1.426146	0.587165	0.422915
O3	O	0.722835	0.098898	-0.077094
O4	O	1.222835	0.598898	0.422906
O5	O	0.830360	-0.008625	-0.077078
O6	O	1.330360	0.491375	0.422922
O7	O	0.818621	0.194687	-0.077101
O8	O	1.318621	0.694687	0.422899
O9	O	0.830342	-0.008609	0.077145
O10	O	1.330342	0.491391	0.577145
O11	O	0.722817	0.098914	0.077129
O12	O	1.222817	0.598914	0.577129
O13	O	0.926128	0.087181	0.077138
O14	O	1.426128	0.587181	0.577138
Cu15	Cu	0.824471	0.093049	0.091216
Cu16	Cu	1.324471	0.593049	0.591216
Cu17	Cu	0.824492	0.093030	-0.091171
Cu18	Cu	1.324492	0.593030	0.408829
O19	O	0.818603	0.194703	0.077123
O20	O	1.318603	0.694703	0.577123
C21	C	0.696815	0.098525	0.000017
C22	C	1.196815	0.598525	0.500017
C23	C	0.619310	0.097384	0.000013
C24	C	1.119310	0.597384	0.500013
C25	C	0.066065	0.089230	-0.084043
C26	C	0.566065	0.589230	0.415957
C27	C	0.138889	0.090298	-0.084047
C28	C	0.638889	0.590298	0.415953
C29	C	0.175296	0.090844	0.000020
C30	C	0.675296	0.590844	0.500020
C31	C	0.138876	0.090304	0.084097
C32	C	0.638876	0.590304	0.584097
C33	C	0.066054	0.089229	0.084098
C34	C	0.566054	0.589229	0.584098
N35	N	0.284308	0.132269	0.062590
N36	N	0.784308	0.632269	0.562590
N37	N	0.353486	0.133292	0.062584
N38	N	0.853486	0.633292	0.562584
C39	C	0.394705	0.094082	0.000021
C40	C	0.894705	0.594082	0.500021
N41	N	0.364132	0.053819	-0.062548
N42	N	0.864132	0.553819	0.437452
N43	N	0.294948	0.052800	-0.062543
N44	N	0.794948	0.552800	0.437457
C45	C	0.254260	0.092010	0.000028
C46	C	0.754260	0.592010	0.500028
C47	C	0.510082	0.095775	-0.084054
C48	C	1.010082	0.595775	0.415946
C49	C	0.582908	0.096839	-0.084054
C50	C	1.082908	0.596839	0.415946
C51	C	0.582892	0.096852	0.084092
C52	C	1.082892	0.596852	0.584092
C53	C	0.510068	0.095781	0.084090
C54	C	1.010068	0.595781	0.584090
C55	C	0.473667	0.095246	0.000014
C56	C	0.973667	0.595246	0.500014
C57	C	0.829972	-0.034628	0.000034
C58	C	1.329972	0.465372	0.500034
C59	C	0.828833	-0.112133	0.000037
C60	C	1.328833	0.387867	0.500037
C61	C	0.828311	-0.148540	-0.084031
C62	C	1.328311	0.351460	0.415969
C63	C	0.827231	-0.221363	-0.084038
C64	C	1.327231	0.278637	0.415962
C65	C	0.826687	-0.257777	0.000027
C66	C	1.326687	0.242223	0.500027
C67	C	0.827205	-0.221360	0.084106
C68	C	1.327205	0.278640	0.584106
C69	C	0.828278	-0.148538	0.084110
C70	C	1.328278	0.351462	0.584110
N71	N	0.864728	-0.377434	0.062597
N72	N	1.364728	0.122566	0.562597
N73	N	0.863710	-0.446612	0.062586
N74	N	1.363710	0.053388	0.562586
C75	C	0.823453	-0.477186	0.000018
C76	C	1.323453	0.022814	0.500018
N77	N	0.784261	-0.435970	-0.062554
N78	N	1.284261	0.064030	0.437446
N79	N	0.785282	-0.366786	-0.062546
N80	N	1.285282	0.133214	0.437454
C81	C	0.825523	-0.336741	0.000031
C82	C	1.325523	0.163259	0.500031
C83	C	0.821759	-0.592557	-0.084063
C84	C	1.321759	-0.092557	0.415937
C85	C	0.820675	-0.665380	-0.084066
C86	C	1.320675	-0.165380	0.415934
C87	C	0.820656	-0.665377	0.084080
C88	C	1.320656	-0.165377	0.584080
C89	C	0.821733	-0.592554	0.084081
C90	C	1.321733	-0.092554	0.584081
C91	C	0.822288	-0.556149	0.000007
C92	C	1.322288	-0.056149	0.500007
C93	C	0.952148	0.087553	0.000026
C94	C	1.452148	0.587553	0.500026
C95	C	1.029653	0.088694	0.000023
C96	C	1.529653	0.588694	0.500023
C97	C	0.818991	0.220706	0.000008
C98	C	1.318991	0.720706	0.500008
C99	C	0.820130	0.298211	-0.000000
C100	C	1.320130	0.798211	0.500000
N101	N	0.824461	0.093061	0.219497
N102	N	1.324461	0.593061	0.719497
N103	N	0.824507	0.093011	-0.219453
N104	N	1.324507	0.593011	0.280547
C105	C	0.774733	0.142758	0.469143
C106	C	1.274733	0.642758	0.969143
C107	C	0.837781	0.156117	0.530947
C108	C	1.337781	0.656117	1.030947
C109	C	0.824478	0.093045	0.408658
C110	C	1.324478	0.593045	0.908658
C111	C	0.761447	0.079702	0.530948
C112	C	1.261447	0.579702	1.030948
C113	C	0.824489	0.093030	0.591380
C114	C	1.324489	0.593030	1.091380
C115	C	0.887558	0.106435	0.469101
C116	C	1.387558	0.606435	0.969101
C117	C	0.811182	0.029993	0.469097
C118	C	1.311182	0.529993	0.969097
C119	C	0.874276	0.043325	0.530873
C120	C	1.374276	0.543325	1.030873
C121	C	0.824471	0.093055	0.303397
C122	C	1.324471	0.593055	0.803397
C123	C	0.824503	0.093019	0.696639
C124	C	1.324503	0.593019	1.196639
H125	H	0.612554	0.097270	-0.152513
H126	H	1.112554	0.597270	0.347487
F127	F	0.177624	0.090883	0.173567
F128	F	0.677624	0.590883	0.673567
F129	F	0.177650	0.090870	-0.173524
F130	F	0.677650	0.590870	0.326476
F131	F	0.719803	0.197749	0.433712
F132	F	1.219803	0.697749	0.933712
H133	H	0.826760	-0.251013	0.152552
H134	H	1.326760	0.248987	0.652552
F135	F	0.820073	-0.704126	0.173549
F136	F	1.320073	-0.204126	0.673549
H137	H	0.036407	0.088795	0.152557
H138	H	0.536407	0.588795	0.652557
H139	H	0.916394	0.001276	0.557807
H140	H	1.416394	0.501276	1.057807
H141	H	0.480443	0.095338	-0.152513
H142	H	0.980443	0.595338	0.347487
F143	F	0.796445	-0.039672	0.433557
F144	F	1.296445	0.460328	0.933557
H145	H	0.708138	0.068423	0.558118
H146	H	1.208138	0.568423	1.058118
H147	H	0.480421	0.095347	0.152545
H148	H	0.980421	0.595347	0.652545
H149	H	0.612535	0.097294	0.152541
H150	H	1.112535	0.597294	0.652541
F151	F	0.828898	-0.109799	-0.173510
F152	F	1.328898	0.390201	0.326490
H153	H	0.036432	0.088792	-0.152504
H154	H	0.536432	0.588792	0.347496
H155	H	0.826802	-0.251011	-0.152498
H156	H	1.326802	0.248989	0.347502
H157	H	0.828700	-0.118895	0.152570
H158	H	1.328700	0.381105	0.652570
H159	H	0.820247	-0.695021	-0.152527
H160	H	1.320247	-0.195021	0.347473
F161	F	0.822346	-0.553808	-0.173540
F162	F	1.322346	-0.053808	0.326460
H163	H	0.822164	-0.562911	0.152538
H164	H	1.322164	-0.062911	0.652538
F165	F	0.852494	0.225803	0.566458
F166	F	1.352494	0.725803	1.066458
H167	H	0.940878	0.117779	0.442049
H168	H	1.440878	0.617779	0.942049
