data_functionalizedCrystal
_audit_creation_method	'MofGen! by Chris Wilmer'
_symmetry_space_group_name_H-M	'P1'
_symmetry_Int_Tables_number	1
_symmetry_cell_setting	triclinic
loop_
_symmetry_equiv_pos_as_xyz
  x,y,z
_cell_length_a	19.077068
_cell_length_b	19.077142
_cell_length_c	19.076919
_cell_angle_alpha	90.074357
_cell_angle_beta	85.529249
_cell_angle_gamma	89.885450
loop_
_atom_site_label
_atom_site_type_symbol
_atom_site_fract_x
_atom_site_fract_y
_atom_site_fract_z
Zn1	Zn	-0.340467	-1.044046	0.453535
Zn2	Zn	0.159533	-0.544046	0.953535
Zn3	Zn	-0.453617	-1.043960	0.340376
Zn4	Zn	0.046383	-0.543960	0.840376
Zn5	Zn	-0.331038	-0.931658	0.330962
Zn6	Zn	0.168962	-0.431658	0.830962
Zn7	Zn	-0.453191	-0.921799	0.453108
Zn8	Zn	0.046809	-0.421799	0.953108
O9	O	-0.394578	-0.985366	0.394495
O10	O	0.105422	-0.485366	0.894495
O11	O	-0.359601	-1.142194	0.442642
O12	O	0.140399	-0.642194	0.942642
O13	O	-0.433589	-1.033152	0.240651
O14	O	0.066411	-0.533152	0.740651
O15	O	-0.233814	-0.950729	0.343461
O16	O	0.266186	-0.450729	0.843461
O17	O	-0.442732	-1.142130	0.359505
O18	O	0.057268	-0.642130	0.859505
O19	O	-0.240742	-1.033300	0.433514
O20	O	0.259258	-0.533300	0.933514
O21	O	-0.343531	-0.950645	0.233735
O22	O	0.156469	-0.450645	0.733735
O23	O	-0.343117	-0.832191	0.343047
O24	O	0.156883	-0.332191	0.843047
O25	O	-0.442005	-0.933926	0.551640
O26	O	0.057995	-0.433926	1.051640
O27	O	-0.432862	-0.824948	0.432787
O28	O	0.067138	-0.324948	0.932787
O29	O	-0.359188	-1.023740	0.551954
O30	O	0.140812	-0.523740	1.051954
O31	O	-0.552035	-1.023592	0.359091
O32	O	-0.052035	-0.523592	0.859091
O33	O	-0.551722	-0.933842	0.441915
O34	O	-0.051722	-0.433842	0.941915
C35	C	-0.386921	-0.803118	0.386849
C36	C	0.113079	-0.303118	0.886849
C37	C	-0.383663	-0.725150	0.383596
C38	C	0.116337	-0.225150	0.883596
C39	C	-0.428922	-0.684768	0.428722
C40	C	0.071078	-0.184768	0.928722
C41	C	-0.425852	-0.611509	0.425668
C42	C	0.074148	-0.111509	0.925668
C43	C	-0.377525	-0.578633	0.377484
C44	C	0.122475	-0.078633	0.877484
C45	C	-0.332260	-0.619021	0.332356
C46	C	0.167740	-0.119021	0.832356
C47	C	-0.335328	-0.692278	0.335414
C48	C	0.164672	-0.192278	0.835414
C49	C	-0.363329	-0.359939	0.363338
C50	C	0.136671	0.140061	0.863338
C51	C	-0.360266	-0.286676	0.360282
C52	C	0.139734	0.213324	0.860282
C53	C	-0.453858	-0.279169	0.453596
C54	C	0.046142	0.220831	0.953596
C55	C	-0.456924	-0.352428	0.456647
C56	C	0.043076	0.147572	0.956647
C57	C	-0.411657	-0.392810	0.411521
C58	C	0.088343	0.107190	0.911521
N59	N	-0.374386	-0.503751	0.374359
N60	N	0.125614	-0.003751	0.874359
N61	N	-0.414792	-0.467691	0.414650
N62	N	0.085208	0.032309	0.914650
C63	C	-0.577413	-0.977656	0.401494
C64	C	-0.077413	-0.477656	0.901494
C65	C	-0.655634	-0.974421	0.404515
C66	C	-0.155634	-0.474421	0.904515
C67	C	-0.692526	-1.019663	0.362850
C68	C	-0.192526	-0.519663	0.862850
C69	C	-0.766023	-1.016624	0.365696
C70	C	-0.266023	-0.516624	0.865696
C71	C	-0.802628	-0.968340	0.410202
C72	C	-0.302628	-0.468340	0.910202
C73	C	-0.765732	-0.923096	0.451871
C74	C	-0.265732	-0.423096	0.951871
C75	C	-0.692236	-0.926139	0.449029
C76	C	-0.192236	-0.426139	0.949029
C77	C	-1.022422	-0.954229	0.423325
C78	C	-0.522422	-0.454229	0.923325
C79	C	-1.095922	-0.951188	0.426162
C80	C	-0.595922	-0.451188	0.926162
C81	C	-1.096209	-1.044718	0.339988
C82	C	-0.596209	-0.544718	0.839988
C83	C	-1.022711	-1.047753	0.337147
C84	C	-0.522711	-0.547753	0.837147
C85	C	-0.985822	-1.002512	0.378818
C86	C	-0.485822	-0.502512	0.878818
N87	N	-0.877754	-0.965231	0.413109
N88	N	-0.377754	-0.465231	0.913109
N89	N	-0.910697	-1.005625	0.375914
N90	N	-0.410697	-0.505625	0.875914
C91	C	-0.211031	-0.993124	0.387485
C92	C	0.288969	-0.493124	0.887485
C93	C	-0.132814	-0.996430	0.384498
C94	C	0.367186	-0.496430	0.884498
C95	C	-0.401601	-0.977743	0.578045
C96	C	0.098399	-0.477743	1.078045
C97	C	-0.404593	-0.974495	0.656263
C98	C	0.095407	-0.474495	1.156263
C99	C	-0.402262	-0.168326	0.402163
C100	C	0.097738	0.331674	0.902163
C101	C	-0.405526	-0.246294	0.405409
C102	C	0.094474	0.253706	0.905409
C103	C	-0.387534	-0.993001	0.211659
C104	C	0.112466	-0.493001	0.711659
C105	C	-0.384349	-0.996394	0.133440
C106	C	0.115651	-0.496394	0.633440
C107	C	-0.362883	-1.019728	0.693174
C108	C	0.137117	-0.519728	1.193174
C109	C	-0.365691	-1.016667	0.766668
C110	C	0.134309	-0.516667	1.266668
C111	C	-0.410215	-0.968376	0.803249
C112	C	0.089785	-0.468376	1.303249
C113	C	-0.451927	-0.923138	0.766332
C114	C	0.048073	-0.423138	1.266332
C115	C	-0.449114	-0.926196	0.692840
C116	C	0.050886	-0.426196	1.192840
C117	C	-0.423248	-0.954214	1.023031
C118	C	0.076752	-0.454214	1.523031
C119	C	-0.426060	-0.951161	1.096528
C120	C	0.073940	-0.451161	1.596528
C121	C	-0.339822	-1.044689	1.096859
C122	C	0.160178	-0.544689	1.596859
C123	C	-0.337016	-1.047745	1.023365
C124	C	0.162984	-0.547745	1.523365
C125	C	-0.378726	-1.002505	0.986454
C126	C	0.121274	-0.502505	1.486454
N127	N	-0.413089	-0.965248	0.878372
N128	N	0.086911	-0.465248	1.378372
N129	N	-0.375848	-1.005630	0.911333
N130	N	0.124152	-0.505630	1.411333
H131	H	-0.292908	-0.592248	0.293126
H132	H	0.207092	-0.092248	0.793126
H133	H	-0.298469	-0.725157	0.298671
H134	H	0.201531	-0.225157	0.798671
C135	C	-0.652267	-1.072779	0.313888
C136	C	-0.152267	-0.572779	0.813888
N137	N	-0.621946	-1.112788	0.277010
N138	N	-0.121946	-0.612788	0.777010
H139	H	-0.462318	-0.911834	1.126311
H140	H	0.037682	-0.411834	1.626311
C141	C	-0.313902	-1.072851	0.652942
C142	C	0.186098	-0.572851	1.152942
N143	N	-0.277006	-1.112863	0.622640
N144	N	0.222994	-0.612863	1.122640
C145	C	-0.288029	-1.100862	0.983131
C146	C	0.211971	-0.600862	1.483131
N147	N	-0.251131	-1.140870	0.952826
N148	N	0.248869	-0.640870	1.452826
H149	H	-0.796056	-1.053465	0.331768
H150	H	-0.296056	-0.553465	0.831768
H151	H	-0.305864	-1.081520	1.126919
H152	H	0.194136	-0.581520	1.626919
H153	H	-0.331728	-1.053502	0.796718
H154	H	0.168272	-0.553502	1.296718
H155	H	-0.320904	-0.259912	0.321049
H156	H	0.179096	0.240088	0.821049
C157	C	-0.982450	-1.100853	0.288167
C158	C	-0.482450	-0.600853	0.788167
N159	N	-0.952125	-1.140840	0.251267
N160	N	-0.452125	-0.640840	0.751267
H161	H	-0.457222	-0.917386	0.992988
H162	H	0.042778	-0.417386	1.492988
C163	C	-0.981856	-0.904496	0.469202
C164	C	-0.481856	-0.404496	0.969202
N165	N	-0.951300	-0.867047	0.503774
N166	N	-0.451300	-0.367047	1.003774
H167	H	-0.488177	-0.883816	0.796123
H168	H	0.011823	-0.383816	1.296123
C169	C	-0.313538	-0.404349	0.313694
C170	C	0.186462	0.095651	0.813694
N171	N	-0.276034	-0.437801	0.276299
N172	N	0.223966	0.062199	0.776299
H173	H	-0.496279	-0.379190	0.495882
H174	H	0.003721	0.120810	0.995882
H175	H	-0.483072	-0.889356	0.662787
H176	H	0.016928	-0.389356	1.162787
H177	H	-0.795541	-0.883785	0.488112
H178	H	-0.295541	-0.383785	0.988112
C179	C	-0.482087	-0.720923	0.481728
C180	C	0.017913	-0.220923	0.981728
N181	N	-0.522130	-0.748154	0.521657
N182	N	-0.022130	-0.248154	1.021657
H183	H	-1.125725	-0.911877	0.462417
H184	H	-0.625725	-0.411877	0.962417
C185	C	-0.475655	-0.567091	0.475298
C186	C	0.024345	-0.067091	0.975298
N187	N	-0.513172	-0.533636	0.512677
N188	N	-0.013172	-0.033636	1.012677
H189	H	-0.490710	-0.246283	0.490335
H190	H	0.009290	0.253717	0.990335
C191	C	-1.136793	-1.094482	0.294154
C192	C	-0.636793	-0.594482	0.794154
N193	N	-1.167362	-1.131967	0.259632
N194	N	-0.667362	-0.631967	0.759632
C195	C	-0.651656	-0.876369	0.494863
C196	C	-0.151656	-0.376369	0.994863
N197	N	-0.621092	-0.838883	0.529389
N198	N	-0.121092	-0.338883	1.029389
