data_functionalizedCrystal
_audit_creation_method	'MofGen! by Chris Wilmer'
_symmetry_space_group_name_H-M	'P1'
_symmetry_Int_Tables_number	1
_symmetry_cell_setting	triclinic
loop_
_symmetry_equiv_pos_as_xyz
  x,y,z
_cell_length_a	18.215407
_cell_length_b	16.625545
_cell_length_c	16.625539
_cell_angle_alpha	89.973630
_cell_angle_beta	90.017219
_cell_angle_gamma	89.975515
loop_
_atom_site_label
_atom_site_type_symbol
_atom_site_fract_x
_atom_site_fract_y
_atom_site_fract_z
Zn1	Zn	1.125057	0.321005	0.455913
Zn2	Zn	1.375057	0.571005	0.705913
Zn3	Zn	1.625057	0.821005	0.955913
Zn4	Zn	1.875057	1.071005	1.205913
Zn5	Zn	1.124973	0.455844	0.321081
Zn6	Zn	1.374973	0.705844	0.571081
Zn7	Zn	1.624973	0.955844	0.821081
Zn8	Zn	1.874973	1.205844	1.071081
Zn9	Zn	1.001995	0.321030	0.321093
Zn10	Zn	1.251995	0.571030	0.571093
Zn11	Zn	1.501995	0.821030	0.821093
Zn12	Zn	1.751995	1.071030	1.071093
Zn13	Zn	1.001958	0.455801	0.455870
Zn14	Zn	1.251958	0.705801	0.705870
Zn15	Zn	1.501958	0.955801	0.955870
Zn16	Zn	1.751958	1.205801	1.205870
O17	O	1.063496	0.388420	0.388489
O18	O	1.313496	0.638420	0.638489
O19	O	1.563496	0.888420	0.888489
O20	O	1.813496	1.138420	1.138489
O21	O	1.228030	0.338900	0.438040
O22	O	1.478030	0.588900	0.688040
O23	O	1.728030	0.838900	0.938040
O24	O	1.978030	1.088900	1.188040
O25	O	1.108641	0.437989	0.208250
O26	O	1.358641	0.687989	0.458250
O27	O	1.608641	0.937989	0.708250
O28	O	1.858641	1.187989	0.958250
O29	O	1.018371	0.208195	0.339001
O30	O	1.268371	0.458195	0.589001
O31	O	1.518371	0.708195	0.839001
O32	O	1.768371	0.958195	1.089001
O33	O	1.227969	0.437965	0.338979
O34	O	1.477969	0.687965	0.588979
O35	O	1.727969	0.937965	0.838979
O36	O	1.977969	1.187965	1.088979
O37	O	1.108784	0.208176	0.438052
O38	O	1.358784	0.458176	0.688052
O39	O	1.608784	0.708176	0.938052
O40	O	1.858784	0.958176	1.188052
O41	O	1.018289	0.338942	0.208259
O42	O	1.268289	0.588942	0.458259
O43	O	1.518289	0.838942	0.708259
O44	O	1.768289	1.088942	0.958259
O45	O	0.899006	0.338900	0.338959
O46	O	1.149006	0.588900	0.588959
O47	O	1.399006	0.838900	0.838959
O48	O	1.649006	1.088900	1.088959
O49	O	1.018306	0.437891	0.568708
O50	O	1.268306	0.687891	0.818708
O51	O	1.518306	0.937891	1.068708
O52	O	1.768306	1.187891	1.318708
O53	O	0.898978	0.437915	0.437979
O54	O	1.148978	0.687915	0.687979
O55	O	1.398978	0.937915	0.937979
O56	O	1.648978	1.187915	1.187979
O57	O	1.108747	0.338858	0.568740
O58	O	1.358747	0.588858	0.818740
O59	O	1.608747	0.838858	1.068740
O60	O	1.858747	1.088858	1.318740
O61	O	1.108604	0.568671	0.338937
O62	O	1.358604	0.818671	0.588937
O63	O	1.608604	1.068671	0.838937
O64	O	1.858604	1.318671	1.088937
O65	O	1.018225	0.568639	0.437967
O66	O	1.268225	0.818639	0.687967
O67	O	1.518225	1.068639	0.937967
O68	O	1.768225	1.318639	1.187967
C69	C	0.872290	0.388406	0.388466
C70	C	1.122290	0.638406	0.638466
C71	C	1.372290	0.888406	0.888466
C72	C	1.622290	1.138406	1.138466
C73	C	0.790491	0.388420	0.388475
C74	C	1.040491	0.638420	0.638475
C75	C	1.290491	0.888420	0.888475
C76	C	1.540491	1.138420	1.138475
C77	C	0.602302	0.440058	0.439970
C78	C	0.852302	0.690058	0.689970
C79	C	1.102302	0.940058	0.939970
C80	C	1.352302	1.190058	1.189970
C81	C	0.525443	0.440061	0.439980
C82	C	0.775443	0.690061	0.689980
C83	C	1.025443	0.940061	0.939980
C84	C	1.275443	1.190061	1.189980
C85	C	0.525442	0.336797	0.337026
C86	C	0.775442	0.586797	0.587026
C87	C	1.025442	0.836797	0.837026
C88	C	1.275442	1.086797	1.087026
C89	C	0.602300	0.336791	0.337021
C90	C	0.852300	0.586791	0.587021
C91	C	1.102300	0.836791	0.837021
C92	C	1.352300	1.086791	1.087021
C93	C	0.640727	0.388426	0.388492
C94	C	0.890727	0.638426	0.638492
C95	C	1.140727	0.888426	0.888492
C96	C	1.390727	1.138426	1.138492
C97	C	0.487011	0.388435	0.388507
C98	C	0.737011	0.638435	0.638507
C99	C	0.987011	0.888435	0.888507
C100	C	1.237011	1.138435	1.138507
C101	C	0.403677	0.388437	0.388518
C102	C	0.653677	0.638437	0.638518
C103	C	0.903677	0.888437	0.888518
C104	C	1.153677	1.138437	1.138518
C105	C	0.724066	0.388423	0.388482
C106	C	0.974066	0.638423	0.638482
C107	C	1.224066	0.888423	0.888482
C108	C	1.474066	1.138423	1.138482
C109	C	1.063421	0.597911	0.388463
C110	C	1.313421	0.847911	0.638463
C111	C	1.563421	1.097911	0.888463
C112	C	1.813421	1.347911	1.138463
C113	C	1.063456	0.687532	0.388479
C114	C	1.313456	0.937532	0.638479
C115	C	1.563456	1.187532	0.888479
C116	C	1.813456	1.437532	1.138479
C117	C	1.063576	1.015708	0.388576
C118	C	1.313576	1.265708	0.638576
C119	C	1.563576	1.515708	0.888576
C120	C	1.813576	1.765708	1.138576
C121	C	1.063541	0.924399	0.388551
C122	C	1.313541	1.174399	0.638551
C123	C	1.563541	1.424399	0.888551
C124	C	1.813541	1.674399	1.138551
C125	C	1.063516	0.851623	0.388527
C126	C	1.313516	1.101623	0.638527
C127	C	1.563516	1.351623	0.888527
C128	C	1.813516	1.601623	1.138527
C129	C	1.063481	0.760309	0.388503
C130	C	1.313481	1.010309	0.638503
C131	C	1.563481	1.260309	0.888503
C132	C	1.813481	1.510309	1.138503
C133	C	1.255449	0.388435	0.388513
C134	C	1.505449	0.638435	0.638513
C135	C	1.755449	0.888435	0.888513
C136	C	2.005449	1.138435	1.138513
C137	C	1.337248	0.388441	0.388523
C138	C	1.587248	0.638441	0.638523
C139	C	1.837248	0.888441	0.888523
C140	C	2.087248	1.138441	1.138523
C141	C	1.063532	0.388367	0.598798
C142	C	1.313532	0.638367	0.848798
C143	C	1.563532	0.888367	1.098798
C144	C	1.813532	1.138367	1.348798
C145	C	1.063547	0.388344	0.688420
C146	C	1.313547	0.638344	0.938420
C147	C	1.563547	0.888344	1.188420
C148	C	1.813547	1.138344	1.438420
C149	C	1.063585	1.178111	0.388542
C150	C	1.313585	1.428111	0.638542
C151	C	1.563585	1.678111	0.888542
C152	C	1.813585	1.928111	1.138542
C153	C	1.063607	1.088490	0.388589
C154	C	1.313607	1.338490	0.638589
C155	C	1.563607	1.588490	0.888589
C156	C	1.813607	1.838490	1.138589
C157	C	1.063502	0.388415	0.178999
C158	C	1.313502	0.638415	0.428999
C159	C	1.563502	0.888415	0.678999
C160	C	1.813502	1.138415	0.928999
C161	C	1.063630	0.388210	0.089378
C162	C	1.313630	0.638210	0.339378
C163	C	1.563630	0.888210	0.589378
C164	C	1.813630	1.138210	0.839378
C165	C	1.063559	0.388326	0.761202
C166	C	1.313559	0.638326	1.011202
C167	C	1.563559	0.888326	1.261202
C168	C	1.813559	1.138326	1.511202
C169	C	1.063577	0.388296	0.852511
C170	C	1.313577	0.638296	1.102511
C171	C	1.563577	0.888296	1.352511
C172	C	1.813577	1.138296	1.602511
C173	C	1.063594	0.388268	0.925287
C174	C	1.313594	0.638268	1.175287
C175	C	1.563594	0.888268	1.425287
C176	C	1.813594	1.138268	1.675287
C177	C	1.063612	0.388239	1.016601
C178	C	1.313612	0.638239	1.266601
C179	C	1.563612	0.888239	1.516601
C180	C	1.813612	1.138239	1.766601
H181	H	0.494145	0.294758	0.295119
H182	H	0.744145	0.544758	0.545119
H183	H	0.994145	0.794758	0.795119
H184	H	1.244145	1.044758	1.045119
H185	H	0.633587	0.294741	0.295100
H186	H	0.883587	0.544741	0.545100
H187	H	1.133587	0.794741	0.795100
H188	H	1.383587	1.044741	1.045100
H189	H	0.633587	0.482101	0.481883
H190	H	0.883587	0.732101	0.731883
H191	H	1.133587	0.982101	0.981883
H192	H	1.383587	1.232101	1.231883
H193	H	0.494160	0.482104	0.481901
H194	H	0.744160	0.732104	0.731901
H195	H	0.994160	0.982104	0.981901
H196	H	1.244160	1.232104	1.231901
