data_functionalizedCrystal
_audit_creation_method	'MofGen! by Chris Wilmer'
_symmetry_space_group_name_H-M	'P1'
_symmetry_Int_Tables_number	1
_symmetry_cell_setting	triclinic
loop_
_symmetry_equiv_pos_as_xyz
  x,y,z
_cell_length_a	20.875492
_cell_length_b	31.640172
_cell_length_c	20.875625
_cell_angle_alpha	92.975398
_cell_angle_beta	60.168684
_cell_angle_gamma	58.316013
loop_
_atom_site_label
_atom_site_type_symbol
_atom_site_fract_x
_atom_site_fract_y
_atom_site_fract_z
Zr1	Zr	0.740564	0.377649	-0.122672
O2	O	0.881744	0.301573	-0.232463
O3	O	0.599396	0.404493	-0.083916
O4	O	0.740563	0.394834	-0.225092
O5	O	0.740574	0.314843	0.014273
O6	O	0.740549	0.464392	-0.225077
O7	O	0.740577	0.311232	-0.091288
O8	O	0.488027	0.481671	0.027460
O9	O	0.993096	0.297565	-0.238264
O10	O	0.657446	0.463596	-0.073537
O11	O	0.657454	0.414381	0.005231
O12	O	0.823660	0.403008	-0.160984
O13	O	0.823668	0.353793	-0.082216
Zr14	Zr	0.740537	0.494345	0.045710
Zr15	Zr	0.740542	0.488586	-0.122649
Zr16	Zr	0.740560	0.383408	0.045686
Zr17	Zr	0.918158	0.371256	-0.131923
Zr18	Zr	0.562944	0.500738	0.054960
O19	O	0.881706	0.467500	0.006954
O20	O	0.881712	0.459311	-0.232430
O21	O	0.881738	0.309762	0.006920
O22	O	0.599358	0.570421	0.155501
O23	O	0.599364	0.562232	-0.083883
O24	O	0.599390	0.412683	0.155467
O25	O	0.740527	0.557150	-0.091236
O26	O	0.740539	0.477160	0.148129
O27	O	0.740553	0.407602	0.148114
O28	O	0.740525	0.560762	0.014326
O29	O	0.993078	0.385745	-0.238245
O30	O	0.488024	0.486249	0.161282
O31	O	0.488006	0.574429	0.161301
O32	O	0.488009	0.569851	0.027479
O33	O	0.993092	0.302143	-0.104441
O34	O	0.993075	0.390323	-0.104423
O35	O	0.657442	0.468986	0.084022
O36	O	0.657433	0.518201	0.005254
O37	O	0.823647	0.457613	-0.082194
O38	O	0.823656	0.408398	-0.003426
C39	C	0.518408	0.443993	-0.026910
C40	C	0.443015	0.446707	-0.022983
C41	C	0.468971	0.405461	-0.082510
C42	C	0.398144	0.408011	-0.078848
C43	C	0.301362	0.451805	-0.015655
C44	C	0.275407	0.493055	0.043874
C45	C	0.346233	0.490506	0.040209
C46	C	0.082957	0.463988	0.001884
C47	C	0.012131	0.466533	0.005547
C48	C	0.134873	0.381490	-0.117177
C49	C	0.205695	0.378943	-0.120834
C50	C	0.179734	0.420194	-0.061307
N51	N	0.228965	0.454412	-0.011910
N52	N	0.252131	0.417589	-0.065056
C53	C	0.740579	0.297232	-0.038511
C54	C	0.740588	0.250136	-0.038521
C55	C	0.653780	-0.010240	0.007182
C56	C	0.653763	-0.187224	0.007198
O57	O	0.579975	-0.183212	0.046048
N58	N	0.740525	-0.240980	-0.038450
C59	C	0.827296	-0.250490	-0.084100
O60	O	0.901092	-0.300273	-0.122920
C61	C	0.827312	-0.073506	-0.084112
C62	C	0.740545	-0.019750	-0.038467
C63	C	0.567020	0.043513	0.052823
C64	C	0.567025	0.087756	0.052815
C65	C	0.653790	0.078245	0.007166
C66	C	0.740550	0.024493	-0.038476
C67	C	0.914083	-0.083016	-0.129758
C68	C	0.914079	-0.038764	-0.129755
C69	C	0.827312	0.014992	-0.084110
C70	C	0.827320	0.059225	-0.084133
N71	N	0.740558	0.112981	-0.038485
C72	C	0.653793	0.122491	0.007164
C73	C	0.827282	-0.343406	-0.084093
C74	C	0.827278	-0.387652	-0.084091
C75	C	0.653745	-0.324384	0.007209
C76	C	0.653749	-0.280137	0.007202
C77	C	0.740521	-0.289650	-0.038445
C78	C	0.653811	0.215402	0.007143
C79	C	0.653823	0.259646	0.007128
C80	C	0.827356	0.196374	-0.084168
C81	C	0.827344	0.152134	-0.084157
C82	C	0.740563	0.161652	-0.038495
O83	O	0.901070	0.055255	-0.122955
O84	O	0.580009	0.172279	0.045992
C85	C	0.653775	-0.054483	0.007190
C86	C	0.740535	-0.108236	-0.038451
C87	C	0.827300	-0.117746	-0.084101
C88	C	0.740531	-0.152482	-0.038450
C89	C	0.653766	-0.142972	0.007199
C90	C	0.567005	-0.089216	0.052847
C91	C	0.567010	-0.044973	0.052839
C92	C	0.914061	-0.171502	-0.129748
C93	C	0.914049	-0.215743	-0.129737
C94	C	0.827284	-0.206232	-0.084088
C95	C	0.962693	0.428001	-0.050053
C96	C	1.038087	0.425287	-0.053980
C97	C	0.740556	0.428793	-0.249072
C98	C	0.740558	0.426348	-0.320544
C99	C	0.740523	0.574762	-0.038452
C100	C	0.740513	0.621858	-0.038442
C101	C	0.740552	0.463519	-0.354114
C102	C	0.740546	0.461223	-0.421265
C103	C	0.740552	0.421753	-0.454849
C104	C	0.740555	0.384581	-0.421274
C105	C	0.740554	0.386879	-0.354120
C106	C	0.740546	0.410772	-0.655689
C107	C	0.740549	0.408475	-0.722849
C108	C	0.740539	0.485119	-0.722835
C109	C	0.740544	0.487412	-0.655683
C110	C	0.740542	0.450241	-0.622110
N111	N	0.740548	0.419405	-0.523491
N112	N	0.740539	0.452592	-0.553467
C113	C	0.740545	0.443201	0.172109
C114	C	0.740543	0.445646	0.243581
C115	C	0.518380	0.582758	-0.026880
C116	C	0.442977	0.632568	-0.022943
C117	C	0.518403	0.451197	0.183680
C118	C	0.443008	0.456356	0.259080
C119	C	0.518375	0.589963	0.183710
C120	C	0.442970	0.642217	0.259119
C121	C	0.962727	0.282031	-0.260672
C122	C	1.038131	0.229777	-0.336082
C123	C	0.962721	0.289236	-0.050082
C124	C	1.038124	0.239426	-0.054019
C125	C	0.962699	0.420797	-0.260643
C126	C	1.038094	0.415638	-0.336043
C127	C	0.407574	0.627455	-0.062229
C128	C	0.336735	0.674251	-0.058546
C129	C	0.301296	0.726160	-0.015572
C130	C	0.336706	0.731271	0.023715
C131	C	0.407549	0.684475	0.020027
C132	C	0.407595	0.487282	0.335623
C133	C	0.336763	0.492128	0.406475
C134	C	0.301341	0.466049	0.400782
C135	C	0.336760	0.435119	0.324231
C136	C	0.407596	0.430271	0.253380
C137	C	0.407555	0.692451	0.253416
C138	C	0.336714	0.741553	0.324265
C139	C	0.301285	0.740421	0.400816
C140	C	0.336707	0.690181	0.406517
C141	C	0.407552	0.641080	0.335669
C142	C	1.073555	0.179543	-0.330380
C143	C	1.144418	0.130440	-0.401229
C144	C	1.179851	0.131572	-0.477780
C145	C	1.144424	0.181812	-0.483481
C146	C	1.073568	0.230913	-0.412633
C147	C	1.073535	0.244538	-0.014741
C148	C	1.144394	0.197741	-0.018444
C149	C	1.179835	0.145832	-0.061420
C150	C	1.144422	0.140721	-0.100704
C151	C	1.073569	0.187518	-0.097005
C152	C	1.073494	0.441723	-0.330323
C153	C	1.144326	0.436887	-0.401162
C154	C	1.179762	0.405961	-0.477720
C155	C	1.144355	0.379875	-0.483437
C156	C	1.073519	0.384715	-0.412599
H157	H	-0.066677	0.502196	0.057010
H158	H	0.740553	0.495657	-0.326777
H159	H	0.583164	0.303417	0.044300
N160	N	1.037374	0.182302	-0.137108
N161	N	0.974106	0.224084	-0.133800
H162	H	0.948544	0.220398	-0.162124
H163	H	1.173147	0.458129	-0.396491
H164	H	0.307841	0.773541	0.058703
H165	H	0.436365	0.688646	0.052023
H166	H	0.307850	0.689268	0.468854
H167	H	1.173215	0.201914	0.013549
N168	N	0.443754	0.513930	0.341466
N169	N	0.412118	0.541538	0.409821
H170	H	0.437653	0.560358	0.413955
N171	N	0.300562	0.408486	0.318437
N172	N	0.237312	0.412826	0.381709
H173	H	0.211740	0.394020	0.377621
N174	N	0.740538	0.344272	-0.455567
N175	N	0.673444	0.358899	-0.457739
H176	H	0.673432	0.330430	-0.481958
H177	H	1.237441	0.402024	-0.535395
H178	H	0.547773	0.369794	-0.133960
H179	H	0.436377	0.600180	0.340324
H180	H	0.436420	0.405090	0.191058
H181	H	1.044653	0.466905	-0.267993
H182	H	0.984717	-0.179254	-0.166924
N183	N	0.565177	0.225118	0.053781
N184	N	0.545800	0.209034	0.108946
H185	H	0.483204	0.215894	0.141880
H186	H	0.307881	0.782455	0.319609
H187	H	0.243599	0.780406	0.458498
N188	N	0.740484	0.499216	-0.455519
N189	N	0.673354	0.530947	-0.457648
H190	H	0.673289	0.557791	-0.481824
H191	H	0.243610	0.764260	-0.012574
H192	H	0.196600	0.528714	0.095324
N193	N	0.443720	0.693626	0.175234
N194	N	0.412082	0.738488	0.170169
H195	H	0.437621	0.739322	0.114955
H196	H	1.044710	0.178611	-0.268054
N197	N	1.180565	0.348291	-0.561648
N198	N	1.243814	0.343976	-0.624884
H199	H	1.269394	0.321667	-0.680123
N200	N	0.740521	0.527732	-0.621361
N201	N	0.740518	0.529779	-0.561401
H202	H	0.740504	0.558255	-0.537161
N203	N	1.180586	0.079131	-0.395380
N204	N	1.148928	0.078133	-0.327022
H205	H	1.174469	0.041898	-0.322888
N206	N	0.740540	0.523081	-0.757139
N207	N	0.740541	0.521026	-0.817098
H208	H	0.740540	0.547839	-0.841324
N209	N	1.252199	0.098028	-0.065191
N210	N	1.283837	0.051683	-0.103559
H211	H	1.334942	0.017922	-0.106219
N212	N	1.002695	-0.270649	-0.176378
N213	N	1.080153	-0.279126	-0.217130
H214	H	1.142759	-0.317901	-0.250065
H215	H	0.325092	0.524092	0.088682
N216	N	1.180597	0.182974	-0.561672
N217	N	1.148960	0.227827	-0.566763
H218	H	1.174503	0.228648	-0.621986
N219	N	0.161372	0.339360	-0.177971
N220	N	0.098130	0.341638	-0.174692
H221	H	0.116845	0.311882	-0.217631
N222	N	1.252231	0.081408	-0.550138
N223	N	1.283844	0.036562	-0.545026
H224	H	1.334962	0.001131	-0.596126
H225	H	1.044726	0.271815	-0.417285
N226	N	1.037363	0.297553	0.029154
N227	N	1.092721	0.308160	0.008825
H228	H	1.067183	0.345600	0.039824
N229	N	1.180642	0.087691	-0.144600
N230	N	1.243900	0.045918	-0.147887
H231	H	1.269481	0.008464	-0.178885
H232	H	0.307912	0.670079	-0.090538
N233	N	1.037375	0.358063	-0.418462
N234	N	1.069030	0.330454	-0.486826
H235	H	1.043507	0.311629	-0.490974
H236	H	0.307933	0.517316	0.468799
N237	N	0.228986	0.471008	0.473166
N238	N	0.197380	0.498626	0.541501
H239	H	0.146278	0.502131	0.592626
H240	H	0.419287	0.374425	-0.127320
H241	H	0.284497	0.343288	-0.172303
N242	N	0.056431	0.506127	0.062685
N243	N	0.007434	0.554747	0.072385
H244	H	-0.011302	0.584510	0.115330
N245	N	0.478385	0.142659	0.099448
N246	N	0.400929	0.151133	0.140202
H247	H	0.338322	0.189908	0.173142
H248	H	0.496361	0.051266	0.090000
N249	N	0.915932	-0.353139	-0.130726
N250	N	0.993383	-0.401140	-0.171475
H251	H	1.055994	-0.408017	-0.204412
N252	N	0.478376	-0.079506	0.099491
N253	N	0.420284	-0.051849	0.175029
H254	H	0.357694	-0.044994	0.207973
H255	H	0.583097	-0.316647	0.044374
N256	N	0.565111	-0.225233	0.053827
N257	N	0.487653	-0.216757	0.094575
H258	H	0.425048	-0.177982	0.127506
H259	H	0.984738	-0.126779	-0.166925
N260	N	0.915917	-0.442556	-0.130735
N261	N	0.993375	-0.451033	-0.171488
H262	H	1.055981	-0.489809	-0.204430
H263	H	0.984740	-0.046516	-0.166917
N264	N	0.915970	0.097221	-0.130799
N265	N	0.974063	0.079437	-0.206338
H266	H	1.036657	0.040656	-0.239276
N267	N	0.915988	0.186657	-0.130805
N268	N	0.974092	0.158994	-0.206342
H269	H	1.036690	0.152131	-0.239277
H270	H	0.496355	-0.001206	0.090009
H271	H	0.740555	0.376332	-0.750190
H272	H	0.740547	0.380505	-0.628360
H273	H	0.740557	0.356611	-0.326787
H274	H	0.436428	0.585192	-0.097233
