data_functionalizedCrystal
_audit_creation_method	'MofGen! by Chris Wilmer'
_symmetry_space_group_name_H-M	'P1'
_symmetry_Int_Tables_number	1
_symmetry_cell_setting	triclinic
loop_
_symmetry_equiv_pos_as_xyz
  x,y,z
_cell_length_a	11.026607
_cell_length_b	8.559649
_cell_length_c	7.088929
_cell_angle_alpha	84.655815
_cell_angle_beta	97.577146
_cell_angle_gamma	89.182341
loop_
_atom_site_label
_atom_site_type_symbol
_atom_site_fract_x
_atom_site_fract_y
_atom_site_fract_z
O1	O	1.535813	0.664139	-0.158970
O2	O	1.189421	0.589938	-0.158975
O3	O	1.393134	0.403214	-0.158970
O4	O	1.332099	0.850862	-0.158975
O5	O	1.420365	0.378188	0.159005
O6	O	1.216652	0.564912	0.159001
O7	O	1.563043	0.639113	0.159005
Cu8	Cu	1.392334	0.599727	0.188037
Cu9	Cu	1.360130	0.629323	-0.188006
O10	O	1.359330	0.825836	0.159001
C11	C	1.411375	0.332502	0.000014
C12	C	1.425142	0.159083	0.000004
C13	C	1.159102	0.563736	0.000012
C14	C	1.028190	0.522929	0.000010
C15	C	0.943884	0.635604	0.000008
C16	C	0.808580	0.593431	0.000006
C17	C	1.593363	0.665315	0.000014
C18	C	1.724273	0.706123	0.000003
C19	C	1.341089	0.896549	0.000012
C20	C	1.327321	1.069969	0.000010
N21	N	1.414993	0.578912	0.452525
N22	N	1.337482	0.650128	-0.452495
H23	H	1.233039	0.126346	0.000015
H24	H	1.495337	0.505123	0.534183
O25	O	0.977298	0.787940	-0.000326
C26	C	1.032776	0.831195	-0.164977
H27	H	1.001251	0.750595	-0.280087
H28	H	1.005421	0.957816	-0.220252
H29	H	1.136513	0.820151	-0.127738
H30	H	1.519432	0.102696	0.000020
H31	H	0.780590	0.465740	-0.000042
O32	O	0.757665	0.858475	-0.000361
C33	C	0.813129	0.901715	-0.165029
H34	H	0.781615	0.821086	-0.280110
H35	H	0.785752	1.028323	-0.220336
H36	H	0.916869	0.890703	-0.127798
O37	O	0.994720	0.370645	-0.000330
C38	C	0.911044	0.353314	-0.164988
H39	H	0.922853	0.452039	-0.280091
H40	H	0.928936	0.235397	-0.220268
H41	H	0.813684	0.358490	-0.127754
H42	H	1.257151	0.723927	0.465857
