data_functionalizedCrystal
_audit_creation_method	'MofGen! by Chris Wilmer'
_symmetry_space_group_name_H-M	'P1'
_symmetry_Int_Tables_number	1
_symmetry_cell_setting	triclinic
loop_
_symmetry_equiv_pos_as_xyz
  x,y,z
_cell_length_a	10.489741
_cell_length_b	10.489741
_cell_length_c	8.965430
_cell_angle_alpha	89.994167
_cell_angle_beta	90.000707
_cell_angle_gamma	84.539174
loop_
_atom_site_label
_atom_site_type_symbol
_atom_site_fract_x
_atom_site_fract_y
_atom_site_fract_z
O1	O	0.179958	1.694053	-0.124108
O2	O	0.196851	1.322858	-0.124096
O3	O	0.002807	1.516902	-0.124093
O4	O	0.374003	1.500009	-0.124110
O5	O	0.002820	1.516886	0.123986
O6	O	0.196864	1.322841	0.123983
O7	O	0.179971	1.694037	0.123971
Cu8	Cu	0.188419	1.508438	0.146629
Cu9	Cu	0.188404	1.508457	-0.146753
O10	O	0.374016	1.499993	0.123968
C11	C	-0.044718	1.515618	-0.000055
C12	C	-0.186348	1.511801	-0.000057
C13	C	0.195582	1.275318	-0.000055
C14	C	0.191765	1.133688	-0.000050
C15	C	0.181241	1.741577	-0.000073
C16	C	0.185058	1.883206	-0.000088
C17	C	-0.254488	1.388336	-0.000064
C18	C	-0.346604	1.446652	0.122250
C19	C	-0.346591	1.446697	-0.122337
C20	C	-0.276599	1.570167	0.122358
C21	C	-0.276576	1.570195	-0.122339
C22	C	-0.368665	1.628600	0.000005
C23	C	0.421541	1.501277	-0.000073
C24	C	0.563170	1.505094	-0.000081
N25	N	0.188429	1.508433	0.352978
C26	C	0.308523	1.951346	-0.000078
C27	C	0.250193	2.043481	-0.122386
C28	C	0.250176	2.043431	0.122200
C29	C	0.126677	1.973476	-0.122497
C30	C	0.126678	1.973416	0.122199
C31	C	0.068258	2.065524	-0.000139
N32	N	0.188384	1.508471	-0.353102
C33	C	0.278138	1.418666	0.450282
C34	C	0.303949	1.534163	0.549691
C35	C	0.162629	1.392986	0.549697
C36	C	0.214298	1.623988	0.450197
C37	C	0.072927	1.482735	0.450194
C38	C	0.098690	1.598314	0.549558
H39	H	-0.204837	1.286824	0.000063
H40	H	-0.024699	1.460937	0.406456
H41	H	0.074480	1.942654	-0.226023
H42	H	0.401606	1.555925	0.593394
H43	H	0.236216	1.721659	0.406676
C44	C	-0.235218	1.639586	-0.260407
C45	C	-0.270274	1.574521	-0.388138
C46	C	-0.232176	1.638384	-0.515365
H47	H	-0.275863	1.724461	-0.261499
H48	H	-0.144935	1.642147	-0.258986
H49	H	-0.360539	1.571974	-0.389559
H50	H	-0.229633	1.489650	-0.387095
H51	H	-0.141894	1.640945	-0.513944
H52	H	-0.272824	1.723257	-0.516442
H53	H	-0.255945	1.594241	-0.602044
H54	H	-0.377610	1.394404	0.225661
C55	C	0.133725	1.262663	0.607761
C56	C	0.227952	1.169046	0.557425
C57	C	0.201368	1.048974	0.610860
H58	H	0.133171	1.263660	0.713704
H59	H	0.052328	1.243710	0.572183
H60	H	0.309327	1.187994	0.593011
H61	H	0.228521	1.168008	0.451490
H62	H	0.119971	1.030022	0.575282
H63	H	0.200813	1.049985	0.716801
H64	H	0.265289	0.985439	0.576704
H65	H	-0.033348	2.114939	-0.000193
C66	C	-0.002478	1.699546	0.607623
C67	C	-0.002144	1.697771	0.763778
C68	C	-0.095328	1.790997	0.817322
H69	H	0.015925	1.781555	0.573528
H70	H	-0.084328	1.681964	0.572129
H71	H	0.079688	1.715362	0.799258
H72	H	-0.020562	1.615784	0.797913
H73	H	-0.177179	1.773414	0.781828
H74	H	-0.076917	1.872999	0.783217
H75	H	-0.095122	1.789797	0.923278
C76	C	0.443942	1.885301	-0.000015
C77	C	0.508962	1.922318	0.126861
C78	C	0.633712	1.861514	0.126952
H79	H	0.440746	1.795110	0.000942
H80	H	0.487666	1.909157	-0.086973
H81	H	0.465249	1.898453	0.213797
H82	H	0.512193	2.012499	0.125932
H83	H	0.677437	1.885371	0.039993
H84	H	0.630504	1.771326	0.127904
H85	H	0.677848	1.886631	0.213027
C86	C	0.057561	1.931754	0.260317
C87	C	0.140463	1.846445	0.343156
C88	C	0.076968	1.808006	0.470484
H89	H	0.031239	2.004633	0.319520
H90	H	-0.015420	1.890645	0.231288
H91	H	0.213420	1.887556	0.372188
H92	H	0.166789	1.773548	0.283998
H93	H	0.003988	1.766896	0.441455
H94	H	0.050648	1.880892	0.529674
H95	H	0.133203	1.750112	0.526699
H96	H	-0.245761	1.622355	0.225880
C97	C	0.379576	1.317701	0.392221
C98	C	0.500281	1.345243	0.442608
C99	C	0.593759	1.252280	0.389133
H100	H	0.362246	1.235788	0.427715
H101	H	0.378451	1.317889	0.286260
H102	H	0.501404	1.345042	0.548547
H103	H	0.517652	1.427139	0.407119
H104	H	0.592634	1.252468	0.283172
H105	H	0.576417	1.170373	0.424630
H106	H	0.675669	1.270961	0.423301
C107	C	-0.387705	1.376830	-0.260170
C108	C	-0.329339	1.251110	-0.259588
C109	C	-0.367162	1.186708	-0.386539
H110	H	-0.478116	1.375440	-0.259792
H111	H	-0.362519	1.419808	-0.347069
H112	H	-0.354533	1.208144	-0.172712
H113	H	-0.238929	1.252462	-0.259988
H114	H	-0.341976	1.229686	-0.473437
H115	H	-0.457573	1.185328	-0.386149
H116	H	-0.327558	1.101405	-0.386167
H117	H	-0.418089	1.730204	0.000070
H118	H	0.302430	2.074509	-0.225791
H119	H	0.302444	2.074401	0.225606
