data_functionalizedCrystal
_audit_creation_method	'MofGen! by Chris Wilmer'
_symmetry_space_group_name_H-M	'P1'
_symmetry_Int_Tables_number	1
_symmetry_cell_setting	triclinic
loop_
_symmetry_equiv_pos_as_xyz
  x,y,z
_cell_length_a	19.121424
_cell_length_b	19.120786
_cell_length_c	19.120904
_cell_angle_alpha	90.133503
_cell_angle_beta	85.252687
_cell_angle_gamma	95.008527
loop_
_atom_site_label
_atom_site_type_symbol
_atom_site_fract_x
_atom_site_fract_y
_atom_site_fract_z
Zn1	Zn	1.048466	-0.249461	0.341888
Zn2	Zn	1.381799	0.083872	0.675221
Zn3	Zn	1.715133	0.417206	1.008555
Zn4	Zn	1.048812	-0.361690	0.219633
Zn5	Zn	1.382145	-0.028356	0.552967
Zn6	Zn	1.715478	0.304977	0.886300
Zn7	Zn	0.935827	-0.249485	0.229241
Zn8	Zn	1.269160	0.083849	0.562575
Zn9	Zn	1.602493	0.417182	0.895908
Zn10	Zn	0.925753	-0.372120	0.341828
Zn11	Zn	1.259086	-0.038787	0.675161
Zn12	Zn	1.592420	0.294547	1.008494
O13	O	0.989714	-0.308189	0.283148
O14	O	1.323048	0.025145	0.616481
O15	O	1.656381	0.358478	0.949814
O16	O	1.147152	-0.259973	0.321675
O17	O	1.480485	0.073360	0.655008
O18	O	1.813819	0.406693	0.988341
O19	O	1.038184	-0.342450	0.122626
O20	O	1.371518	-0.009117	0.455959
O21	O	1.704851	0.324216	0.789293
O22	O	0.954840	-0.151190	0.248231
O23	O	1.288173	0.182143	0.581564
O24	O	1.621507	0.515477	0.914897
O25	O	1.147406	-0.342427	0.231855
O26	O	1.480739	-0.009094	0.565188
O27	O	1.814073	0.324239	0.898521
O28	O	1.037595	-0.151173	0.330991
O29	O	1.370929	0.182161	0.664325
O30	O	1.704262	0.515494	0.997658
O31	O	0.955175	-0.260014	0.129685
O32	O	1.288508	0.073320	0.463018
O33	O	1.621842	0.406653	0.796352
O34	O	0.835850	-0.270127	0.248172
O35	O	1.169183	0.063206	0.581506
O36	O	1.502517	0.396539	0.914839
O37	O	0.937670	-0.360204	0.440118
O38	O	1.271004	-0.026871	0.773451
O39	O	1.604337	0.306462	1.106784
O40	O	0.828449	-0.360227	0.330889
O41	O	1.161782	-0.026894	0.664222
O42	O	1.495116	0.306440	0.997556
O43	O	1.027827	-0.270087	0.440162
O44	O	1.361161	0.063246	0.773495
O45	O	1.694494	0.396580	1.106828
O46	O	1.028416	-0.461365	0.231796
O47	O	1.361750	-0.128031	0.565130
O48	O	1.695083	0.205302	0.898463
O49	O	0.938006	-0.469028	0.321572
O50	O	1.271339	-0.135694	0.654906
O51	O	1.604672	0.197639	0.988239
C52	C	0.806573	-0.316312	0.290567
C53	C	1.139906	0.017021	0.623900
C54	C	1.473240	0.350355	0.957234
C55	C	0.728223	-0.319805	0.293757
C56	C	1.061556	0.013528	0.627090
C57	C	1.394890	0.346862	0.960424
C58	C	0.284897	-0.341896	0.314012
C59	C	0.618230	-0.008562	0.647346
C60	C	0.951564	0.324771	0.980679
C61	C	0.358516	-0.338619	0.311002
C62	C	0.691849	-0.005285	0.644335
C63	C	1.025182	0.328048	0.977668
C64	C	0.399155	-0.290001	0.266508
C65	C	0.732488	0.043332	0.599841
C66	C	1.065822	0.376666	0.933174
C67	C	0.366172	-0.244663	0.225016
C68	C	0.699506	0.088671	0.558350
C69	C	1.032839	0.422004	0.891683
C70	C	0.292555	-0.247944	0.228024
C71	C	0.625888	0.085390	0.561357
C72	C	0.959222	0.418723	0.894691
C73	C	0.621623	-0.277748	0.255273
C74	C	0.954956	0.055586	0.588607
C75	C	1.288290	0.388919	0.921940
C76	C	0.695245	-0.274468	0.252270
C77	C	1.028579	0.058865	0.585604
C78	C	1.361912	0.392198	0.918937
C79	C	0.687583	-0.368426	0.338255
C80	C	1.020917	-0.035093	0.671588
C81	C	1.354250	0.298241	1.004922
C82	C	0.613965	-0.371700	0.341262
C83	C	0.947298	-0.038366	0.674595
C84	C	1.280632	0.294967	1.007928
C85	C	0.580989	-0.326364	0.299768
C86	C	0.914322	0.006970	0.633101
C87	C	1.247655	0.340303	0.966434
C88	C	0.474405	-0.286649	0.263431
C89	C	0.807738	0.046685	0.596764
C90	C	1.141072	0.380018	0.930098
C91	C	0.505740	-0.329720	0.302841
C92	C	0.839073	0.003613	0.636175
C93	C	1.172407	0.336947	0.969508
C94	C	0.982174	-0.490682	0.275650
C95	C	1.315507	-0.157349	0.608983
C96	C	1.648840	0.175985	0.942316
C97	C	0.979011	-0.568752	0.272463
C98	C	1.312345	-0.235418	0.605796
C99	C	1.645678	0.097915	0.939130
C100	C	1.020577	-0.605362	0.314093
C101	C	1.353910	-0.272029	0.647426
C102	C	1.687243	0.061304	0.980759
C103	C	1.017602	-0.678717	0.311100
C104	C	1.350936	-0.345384	0.644433
C105	C	1.684269	-0.012051	0.977766
C106	C	0.973066	-0.715460	0.266473
C107	C	1.306399	-0.382126	0.599806
C108	C	1.639732	-0.048793	0.933139
C109	C	0.931496	-0.678844	0.224841
C110	C	1.264829	-0.345510	0.558175
C111	C	1.598162	-0.012177	0.891508
C112	C	0.934467	-0.605490	0.227838
C113	C	1.267800	-0.272157	0.561172
C114	C	1.601133	0.061176	0.894505
C115	C	0.961938	-0.936942	0.255269
C116	C	1.295271	-0.603609	0.588602
C117	C	1.628604	-0.270276	0.921936
C118	C	0.958971	-1.010300	0.252273
C119	C	1.292305	-0.676967	0.585607
C120	C	1.625638	-0.343634	0.918940
C121	C	1.045077	-1.010169	0.338533
C122	C	1.378411	-0.676836	0.671867
C123	C	1.711744	-0.343502	1.005200
C124	C	1.048048	-0.936814	0.341523
C125	C	1.381381	-0.603481	0.674857
C126	C	1.714714	-0.270148	1.008190
C127	C	1.006475	-0.900205	0.299895
C128	C	1.339808	-0.566872	0.633228
C129	C	1.673141	-0.233538	0.966561
C130	C	0.970026	-0.790440	0.263411
C131	C	1.303359	-0.457106	0.596744
C132	C	1.636693	-0.123773	0.930077
C133	C	1.009511	-0.825226	0.302961
C134	C	1.342845	-0.491893	0.636294
C135	C	1.676178	-0.158560	0.969627
C136	C	1.173571	-0.300034	0.275700
C137	C	1.506904	0.033299	0.609033
C138	C	1.840237	0.366632	0.942366
C139	C	1.251919	-0.296559	0.272526
C140	C	1.585252	0.036774	0.605859
C141	C	1.918586	0.370107	0.939192
C142	C	0.981587	-0.316307	0.466336
C143	C	1.314920	0.017027	0.799669
C144	C	1.648253	0.350360	1.133002
C145	C	0.978123	-0.319766	0.544399
C146	C	1.311456	0.013568	0.877733
C147	C	1.644790	0.346901	1.211066
C148	C	0.997303	-0.124983	0.290689
C149	C	1.330636	0.208351	0.624023
C150	C	1.663970	0.541684	0.957356
C151	C	1.000537	-0.046911	0.293903
C152	C	1.333870	0.286422	0.627237
C153	C	1.667203	0.619755	0.960570
C154	C	0.997853	-0.300050	0.100673
C155	C	1.331186	0.033283	0.434006
C156	C	1.664520	0.366616	0.767339
C157	C	1.001461	-0.296387	0.022612
C158	C	1.334795	0.036946	0.355945
C159	C	1.668128	0.370280	0.689279
C160	C	1.023433	-0.274474	0.581098
C161	C	1.356767	0.058859	0.914431
C162	C	1.690100	0.392193	1.247765
C163	C	1.020170	-0.277722	0.654448
C164	C	1.353504	0.055611	0.987781
C165	C	1.686837	0.388945	1.321115
C166	C	0.971600	-0.326266	0.691097
C167	C	1.304934	0.007068	1.024431
C168	C	1.638267	0.340401	1.357764
C169	C	0.926285	-0.371560	0.654394
C170	C	1.259619	-0.038226	0.987727
C171	C	1.592952	0.295107	1.321060
C172	C	0.929545	-0.368308	0.581045
C173	C	1.262879	-0.034974	0.914379
C174	C	1.596212	0.298359	1.247712
C175	C	0.959406	-0.338429	0.912560
C176	C	1.292739	-0.005095	1.245893
C177	C	1.626073	0.328238	1.579227
C178	C	0.956151	-0.341679	0.985913
C179	C	1.289484	-0.008345	1.319247
C180	C	1.622818	0.324988	1.652580
C181	C	1.050036	-0.247840	0.985963
C182	C	1.383369	0.085493	1.319296
C183	C	1.716702	0.418827	1.652629
C184	C	1.053294	-0.244595	0.912613
C185	C	1.386627	0.088738	1.245946
C186	C	1.719961	0.422072	1.579279
C187	C	1.007977	-0.289886	0.875916
C188	C	1.341310	0.043447	1.209249
C189	C	1.674643	0.376780	1.542582
C190	C	0.968266	-0.329589	0.766072
C191	C	1.301599	0.003745	1.099406
C192	C	1.634932	0.337078	1.432739
C193	C	1.011309	-0.286560	0.800942
C194	C	1.344642	0.046774	1.134276
C195	C	1.677975	0.380107	1.467609
H196	H	0.472648	-0.369306	0.339066
H197	H	0.805982	-0.035973	0.672399
H198	H	1.139315	0.297360	1.005732
Br199	Br	1.069946	-0.775362	0.363530
Br200	Br	1.403279	-0.442028	0.696863
Br201	Br	1.736613	-0.108695	1.030197
H202	H	0.916597	-0.381211	1.015751
H203	H	1.249930	-0.047877	1.349084
H204	H	1.583264	0.285456	1.682418
H205	H	0.895230	-0.708765	0.188508
H206	H	1.228563	-0.375432	0.521841
H207	H	1.561897	-0.042099	0.855175
Br208	Br	0.897902	-0.399895	0.862766
Br209	Br	1.231235	-0.066561	1.196099
Br210	Br	1.564569	0.266772	1.529433
H211	H	0.900619	-0.575683	0.193940
H212	H	1.233952	-0.242349	0.527273
H213	H	1.567286	0.090984	0.860607
Br214	Br	1.108493	-0.886955	0.402090
Br215	Br	1.441826	-0.553621	0.735423
Br216	Br	1.775160	-0.220288	1.068757
H217	H	0.928723	-0.369116	0.795920
H218	H	1.262056	-0.035783	1.129253
H219	H	1.595389	0.297551	1.462587
Br220	Br	0.732341	-0.429955	0.394559
Br221	Br	1.065674	-0.096622	0.727893
Br222	Br	1.399007	0.236712	1.061226
H223	H	0.892642	-0.405182	0.551167
H224	H	1.225975	-0.071849	0.884500
H225	H	1.559309	0.261484	1.217834
H226	H	0.886736	-0.411083	0.684239
H227	H	1.220069	-0.077749	1.017573
H228	H	1.553403	0.255584	1.350906
Br229	Br	0.750399	-0.208484	0.191880
Br230	Br	1.083732	0.124849	0.525214
Br231	Br	1.417066	0.458182	0.858547
H232	H	0.594783	-0.240834	0.221483
H233	H	0.928116	0.092499	0.554816
H234	H	1.261450	0.425832	0.888150
Br235	Br	0.421325	-0.178685	0.164627
Br236	Br	0.754658	0.154649	0.497960
Br237	Br	1.087991	0.487982	0.831293
Br238	Br	0.529564	-0.220667	0.203050
Br239	Br	0.862897	0.112666	0.536383
Br240	Br	1.196231	0.445999	0.869716
Br241	Br	1.101492	-1.059857	0.395028
Br242	Br	1.434826	-0.726523	0.728361
Br243	Br	1.768159	-0.393190	1.061695
Br244	Br	1.077214	-0.220672	0.751204
Br245	Br	1.410547	0.112661	1.084537
Br246	Br	1.743881	0.445995	1.417870
Br247	Br	1.119215	-0.178714	0.862879
Br248	Br	1.452549	0.154619	1.196212
Br249	Br	1.785882	0.487953	1.529546
H250	H	0.580881	-0.411291	0.377492
H251	H	0.914214	-0.077957	0.710825
H252	H	1.247548	0.255376	1.044158
Br253	Br	0.898530	-1.060165	0.191699
Br254	Br	1.231863	-0.726831	0.525033
Br255	Br	1.565196	-0.393498	0.858366
Br256	Br	0.247798	-0.186419	0.171712
Br257	Br	0.581132	0.146915	0.505046
Br258	Br	0.914465	0.480248	0.838379
H259	H	1.056846	-0.575451	0.350430
H260	H	1.390180	-0.242118	0.683763
H261	H	1.723513	0.091215	1.017096
H262	H	0.251813	-0.381482	0.350248
H263	H	0.585147	-0.048149	0.683582
H264	H	0.918480	0.285185	1.016915
H265	H	1.057069	-0.240842	0.684325
H266	H	1.390402	0.092491	1.017658
H267	H	1.723735	0.425824	1.350991
Br268	Br	0.909578	-0.840311	0.202854
Br269	Br	1.242912	-0.506977	0.536187
Br270	Br	1.576245	-0.173644	0.869520
H271	H	1.051455	-0.708522	0.344994
H272	H	1.384788	-0.375189	0.678327
H273	H	1.718122	-0.041855	1.011660
H274	H	0.928089	-0.907141	0.221372
H275	H	1.261422	-0.573807	0.554705
H276	H	1.594756	-0.240474	0.888039
Br277	Br	1.111533	-0.186376	1.035769
Br278	Br	1.444867	0.146958	1.369103
Br279	Br	1.778200	0.480291	1.702436
Br280	Br	0.403269	-0.400153	0.367304
Br281	Br	0.736602	-0.066820	0.700637
Br282	Br	1.069935	0.266514	1.033971
Br283	Br	1.089358	-0.208595	0.531366
Br284	Br	1.422692	0.124738	0.864700
Br285	Br	1.756025	0.458072	1.198033
