data_functionalizedCrystal
_audit_creation_method	'MofGen! by Chris Wilmer'
_symmetry_space_group_name_H-M	'P1'
_symmetry_Int_Tables_number	1
_symmetry_cell_setting	triclinic
loop_
_symmetry_equiv_pos_as_xyz
  x,y,z
_cell_length_a	13.897449
_cell_length_b	13.897448
_cell_length_c	14.908308
_cell_angle_alpha	86.732812
_cell_angle_beta	86.720912
_cell_angle_gamma	90.018972
loop_
_atom_site_label
_atom_site_type_symbol
_atom_site_fract_x
_atom_site_fract_y
_atom_site_fract_z
Zn1	Zn	1.443197	-0.415437	0.510067
Zn2	Zn	1.452409	-0.567447	0.359213
Zn3	Zn	1.291203	-0.406172	0.359229
Zn4	Zn	1.281871	-0.576693	0.510024
O5	O	1.367170	-0.491437	0.434633
O6	O	1.579400	-0.435610	0.490067
O7	O	1.438786	-0.538306	0.232973
O8	O	1.311416	-0.272421	0.379262
O9	O	1.586168	-0.547290	0.379235
O10	O	1.423085	-0.279228	0.490083
O11	O	1.320348	-0.419818	0.232985
O12	O	1.154984	-0.428784	0.379221
O13	O	1.295510	-0.563049	0.636271
O14	O	1.148128	-0.554065	0.490010
O15	O	1.414036	-0.444575	0.636303
O16	O	1.429736	-0.703653	0.379194
O17	O	1.304442	-0.710447	0.489994
C18	C	1.116557	-0.491423	0.434613
C19	C	1.009342	-0.491442	0.434625
C20	C	1.367101	-0.742050	0.434607
C21	C	1.367158	-0.849265	0.434626
C22	C	0.813046	-0.491446	0.434649
C23	C	0.922279	-0.491441	0.434633
C24	C	1.367256	-1.045564	0.434683
C25	C	1.367199	-0.936329	0.434654
C26	C	1.618761	-0.491452	0.434654
C27	C	1.725975	-0.491459	0.434663
C28	C	1.352704	-0.505877	0.669936
C29	C	1.346540	-0.512030	0.770207
C30	C	1.367264	-0.239847	0.434679
C31	C	1.367304	-0.132634	0.434699
C32	C	1.381635	-0.476984	0.200246
C33	C	1.387986	-0.470559	0.099975
C34	C	1.458375	-0.400204	0.958663
C35	C	1.452586	-0.405982	1.052878
C36	C	1.329169	-0.529360	1.052852
C37	C	1.334958	-0.523582	0.958638
C38	C	1.399564	-0.459002	0.911547
C39	C	1.405357	-0.453230	0.817331
C40	C	1.281936	-0.576602	0.817307
C41	C	1.276147	-0.582380	0.911521
H42	H	1.457964	-0.400647	0.778990
H43	H	1.500473	-0.358100	1.091236
H44	H	1.276569	-0.581936	1.091210
H45	H	1.234050	-0.624482	0.778934
N46	N	1.528064	-0.330573	0.907859
H47	H	1.512114	-0.262653	0.924253
H48	H	1.522770	-0.335930	0.841044
N49	N	1.206449	-0.652010	0.962314
H50	H	1.211697	-0.646743	1.029148
H51	H	1.222438	-0.719895	0.945846
