data_functionalizedCrystal
_audit_creation_method	'MofGen! by Chris Wilmer'
_symmetry_space_group_name_H-M	'P1'
_symmetry_Int_Tables_number	1
_symmetry_cell_setting	triclinic
loop_
_symmetry_equiv_pos_as_xyz
  x,y,z
_cell_length_a	19.121102
_cell_length_b	19.076979
_cell_length_c	19.076806
_cell_angle_alpha	85.231417
_cell_angle_beta	89.778246
_cell_angle_gamma	89.711584
loop_
_atom_site_label
_atom_site_type_symbol
_atom_site_fract_x
_atom_site_fract_y
_atom_site_fract_z
Zn1	Zn	1.044389	-0.430197	-0.307275
Zn2	Zn	1.044236	-0.307551	-0.430015
Zn3	Zn	0.931777	-0.307692	-0.307507
Zn4	Zn	0.922769	-0.420423	-0.420137
O5	O	0.985793	-0.366466	-0.366234
O6	O	1.142332	-0.417959	-0.327594
O7	O	1.033024	-0.209063	-0.417995
O8	O	0.950548	-0.328093	-0.208974
O9	O	1.142220	-0.327851	-0.417770
O10	O	1.033284	-0.418097	-0.208803
O11	O	0.950400	-0.209168	-0.327989
O12	O	0.832619	-0.318615	-0.318411
O13	O	0.935196	-0.520225	-0.400935
O14	O	0.826001	-0.401438	-0.401160
O15	O	1.024550	-0.527407	-0.318016
O16	O	1.024290	-0.318373	-0.527207
O17	O	0.935049	-0.401300	-0.519950
C18	C	0.803909	-0.358982	-0.358739
C19	C	0.726097	-0.355796	-0.355549
C20	C	0.992715	-0.183578	-0.374040
C21	C	0.995802	-0.105350	-0.377208
C22	C	0.978886	-0.550072	-0.358348
C23	C	0.975942	-0.628314	-0.354987
C24	C	0.686114	-0.397347	-0.397204
C25	C	0.613001	-0.394357	-0.394198
C26	C	0.579874	-0.349812	-0.349539
C27	C	0.619862	-0.308260	-0.307879
C28	C	0.692973	-0.311254	-0.310883
C29	C	0.359297	-0.338623	-0.338308
C30	C	0.286181	-0.335631	-0.335309
C31	C	0.279325	-0.421729	-0.421627
C32	C	0.352438	-0.424716	-0.424630
C33	C	0.392420	-0.383166	-0.382967
C34	C	0.505141	-0.346754	-0.346466
C35	C	0.467151	-0.386229	-0.386037
C36	C	1.168387	-0.373980	-0.373758
C37	C	1.246197	-0.377182	-0.376964
C38	C	0.978694	-0.358777	-0.549120
C39	C	0.975720	-0.355514	-0.627361
C40	C	0.953898	-0.068659	-0.332151
C41	C	0.956804	0.004844	-0.335127
C42	C	1.001612	0.041655	-0.383164
C43	C	1.043521	0.004958	-0.428222
C44	C	1.040618	-0.068544	-0.425242
C45	C	1.014948	0.261488	-0.397065
C46	C	1.017847	0.334995	-0.400044
C47	C	0.931130	0.334876	-0.306947
C48	C	0.928228	0.261373	-0.303974
C49	C	0.970139	0.224682	-0.349030
N50	N	1.004583	0.116786	-0.386209
N51	N	0.967172	0.149552	-0.345981
C52	C	0.954341	-0.332133	-1.067789
C53	C	0.957136	-0.335199	-0.994274
C54	C	1.001578	-0.383626	-0.957365
C55	C	1.043222	-0.428995	-0.993975
C56	C	1.040422	-0.425932	-1.067489
C57	C	1.014564	-0.397819	-0.737485
C58	C	1.017362	-0.400878	-0.663966
C59	C	0.931275	-0.307082	-0.664269
C60	C	0.928482	-0.304020	-0.737785
C61	C	0.970123	-0.349392	-0.774389
N62	N	1.004439	-0.386760	-0.882220
N63	N	0.967259	-0.346261	-0.849532
C64	C	0.992938	-0.374201	-0.182634
C65	C	0.995983	-0.377497	-0.104394
H66	H	0.713081	-0.433617	-0.433573
O67	O	1.086487	-0.476008	-0.958209
C68	C	1.205115	-0.516092	-0.939007
C69	C	1.156194	-0.462818	-0.979569
H70	H	1.261485	-0.505438	-0.956251
H71	H	1.190146	-0.571746	-0.950520
H72	H	1.199930	-0.510502	-0.880178
H73	H	1.161354	-0.468344	-1.038410
H74	H	1.171177	-0.407185	-0.967998
O75	O	0.911108	-0.285070	-1.103529
C76	C	0.826044	-0.192337	-1.096064
C77	C	0.874965	-0.245613	-1.055504
H78	H	0.796820	-0.160412	-1.057255
H79	H	0.786844	-0.221651	-1.127583
H80	H	0.858293	-0.155473	-1.133393
H81	H	0.842773	-0.282491	-1.018138
H82	H	0.914167	-0.216253	-1.024032
O83	O	0.890898	-0.262918	-0.628751
C84	C	0.862321	-0.142694	-0.610121
C85	C	0.908111	-0.192628	-0.650380
H86	H	0.876212	-0.085854	-0.627604
H87	H	0.871956	-0.153138	-0.551233
H88	H	0.804854	-0.152128	-0.621758
H89	H	0.965594	-0.183223	-0.638802
H90	H	0.898417	-0.182173	-0.709257
H91	H	1.054351	0.364963	-0.439149
H92	H	1.074742	-0.098417	-0.461931
O93	O	0.884706	0.225512	-0.257384
C94	C	0.841802	0.112226	-0.211537
C95	C	0.891121	0.152751	-0.264333
H96	H	0.846983	0.053391	-0.217127
H97	H	0.785513	0.129626	-0.222596
H98	H	0.856437	0.123663	-0.155759
H99	H	0.876550	0.141334	-0.320130
H100	H	0.947398	0.135345	-0.253213
O101	O	1.080768	-0.470066	-1.103077
C102	C	1.083367	-0.562009	-1.182367
C103	C	1.037596	-0.512073	-1.142089
H104	H	1.048482	-0.595973	-1.213930
H105	H	1.115599	-0.597199	-1.143394
H106	H	1.119914	-0.529780	-1.219636
H107	H	1.001008	-0.544245	-1.104820
H108	H	1.005412	-0.476880	-1.181102
O109	O	0.574267	-0.434735	-0.434740
C110	C	0.575182	-0.520460	-0.520661
C111	C	0.619133	-0.474759	-0.474791
H112	H	0.611438	-0.552842	-0.553043
H113	H	0.540759	-0.485158	-0.557442
H114	H	0.540805	-0.557251	-0.485411
H115	H	0.653551	-0.437962	-0.509986
H116	H	0.653510	-0.510104	-0.438004
H117	H	0.494127	-0.422500	-0.422394
O118	O	0.890494	0.370624	-0.263208
C119	C	0.856503	0.483807	-0.226563
C120	C	0.902573	0.443410	-0.276131
H121	H	0.866243	0.542663	-0.237003
H122	H	0.870027	0.466359	-0.169600
H123	H	0.799089	0.472302	-0.236422
H124	H	0.960001	0.454896	-0.266335
H125	H	0.888990	0.460864	-0.333077
H126	H	0.923228	-0.298261	-0.964470
H127	H	0.917408	-0.098625	-0.293036
H128	H	1.049074	0.231623	-0.433755
O129	O	0.885203	-0.257052	-0.773591
C130	C	0.766578	-0.216926	-0.792723
C131	C	0.815511	-0.270173	-0.752139
H132	H	0.710223	-0.227507	-0.775383
H133	H	0.771664	-0.222523	-0.851560
H134	H	0.781634	-0.161290	-0.781235
H135	H	0.800487	-0.325832	-0.763568
H136	H	0.810418	-0.264515	-0.693313
H137	H	1.080008	0.034935	-0.467332
H138	H	1.053555	-0.440315	-0.633918
H139	H	0.478160	-0.310484	-0.310107
O140	O	0.384504	-0.468049	-0.468026
C141	C	0.369986	-0.553097	-0.553358
C142	C	0.333581	-0.504069	-0.504227
H143	H	0.328831	-0.582221	-0.582651
H144	H	0.404066	-0.592760	-0.520955
H145	H	0.404020	-0.520561	-0.592880
H146	H	0.299512	-0.536547	-0.464696
H147	H	0.299543	-0.464403	-0.536676
H148	H	1.048479	-0.434756	-0.767279
H149	H	0.246764	-0.455558	-0.455545
O150	O	0.587719	-0.265069	-0.264394
C151	C	0.571303	-0.235188	-0.145148
C152	C	0.607734	-0.284164	-0.194314
H153	H	0.587484	-0.250598	-0.088480
H154	H	0.512174	-0.240186	-0.150094
H155	H	0.587320	-0.178483	-0.160486
H156	H	0.591774	-0.340889	-0.179009
H157	H	0.666856	-0.279105	-0.189361
O158	O	0.254069	-0.292271	-0.291963
C159	C	0.237442	-0.173121	-0.261837
C160	C	0.273872	-0.222140	-0.310959
H161	H	0.253426	-0.116408	-0.277186
H162	H	0.253558	-0.188499	-0.205142
H163	H	0.178324	-0.178166	-0.266846
H164	H	0.332995	-0.217120	-0.306012
H165	H	0.257699	-0.206748	-0.367633
O166	O	0.398201	-0.298221	-0.297945
C167	C	0.484632	-0.206943	-0.295792
C168	C	0.440626	-0.252667	-0.341588
H169	H	0.518933	-0.170091	-0.331060
H170	H	0.519122	-0.242227	-0.259061
H171	H	0.448376	-0.174625	-0.263346
H172	H	0.476830	-0.284992	-0.374077
H173	H	0.406129	-0.217344	-0.378274
O174	O	0.731787	-0.270782	-0.270502
C175	C	0.759940	-0.153460	-0.242179
C176	C	0.715955	-0.199208	-0.287970
H177	H	0.747145	-0.095584	-0.256275
H178	H	0.817895	-0.163192	-0.252003
H179	H	0.747308	-0.167746	-0.184316
H180	H	0.728526	-0.184949	-0.345848
H181	H	0.658013	-0.189470	-0.278086
H182	H	0.922680	0.034715	-0.298439
