data_functionalizedCrystal
_audit_creation_method	'MofGen! by Chris Wilmer'
_symmetry_space_group_name_H-M	'P1'
_symmetry_Int_Tables_number	1
_symmetry_cell_setting	triclinic
loop_
_symmetry_equiv_pos_as_xyz
  x,y,z
_cell_length_a	10.489694
_cell_length_b	8.965430
_cell_length_c	10.489741
_cell_angle_alpha	89.999293
_cell_angle_beta	95.470438
_cell_angle_gamma	89.997276
loop_
_atom_site_label
_atom_site_type_symbol
_atom_site_fract_x
_atom_site_fract_y
_atom_site_fract_z
O1	O	-1.694088	0.124000	0.179673
O2	O	-1.322885	0.124012	0.196628
O3	O	-1.516933	0.123997	0.002551
O4	O	-1.500040	0.124015	0.373750
O5	O	-1.516917	-0.124082	0.002564
O6	O	-1.322869	-0.124067	0.196641
O7	O	-1.694072	-0.124078	0.179686
Cu8	Cu	-1.508469	-0.146724	0.188165
Cu9	Cu	-1.508488	0.146658	0.188149
O10	O	-1.500024	-0.124064	0.373763
C11	C	-1.275344	-0.000026	0.195367
C12	C	-1.133712	-0.000022	0.191574
N13	N	-1.508464	-0.353073	0.188175
C14	C	-1.036037	-0.000011	0.310586
C15	C	-0.958682	-0.122336	0.247714
C16	C	-0.958705	0.122250	0.247673
C17	C	-1.058222	-0.122448	0.128751
C18	C	-1.058250	0.122249	0.128728
C19	C	-0.980945	-0.000106	0.065769
C20	C	-1.418695	-0.450373	0.277899
C21	C	-1.534194	-0.549789	0.303690
C22	C	-1.393014	-0.549785	0.162394
C23	C	-1.624022	-0.450300	0.214024
C24	C	-1.482765	-0.450288	0.072678
C25	C	-1.598347	-0.549659	0.098420
C26	C	-0.741610	-0.000033	0.180967
C27	C	-0.883235	-0.000016	0.184821
C28	C	-1.515649	-0.000042	-0.044974
C29	C	-1.511832	-0.000039	-0.186603
N30	N	-1.508502	0.353007	0.188129
C31	C	-1.388365	-0.000024	-0.254722
C32	C	-1.446681	-0.122342	-0.346848
C33	C	-1.446727	0.122245	-0.346835
C34	C	-1.570199	-0.122457	-0.276863
C35	C	-1.570228	0.122239	-0.276841
C36	C	-1.628634	-0.000108	-0.368939
C37	C	-1.501308	-0.000022	0.421288
C38	C	-1.505125	-0.000015	0.562917
H39	H	-1.060706	-0.000121	0.414100
N40	N	-1.261014	-0.000178	-0.192424
N41	N	-1.186490	-0.105041	-0.211091
H42	H	-1.096550	-0.105157	-0.167094
H43	H	-1.394433	-0.225749	-0.377845
H44	H	-1.622389	-0.225983	-0.246034
N45	N	-1.756100	-0.000204	-0.430952
N46	N	-1.830430	-0.105321	-0.412494
H47	H	-1.920453	-0.105395	-0.456290
N48	N	-1.112842	0.252011	0.065805
N49	N	-1.175234	0.342363	0.126033
H50	H	-1.213790	0.434028	0.081615
H51	H	-1.295364	-0.593488	0.140610
H52	H	-1.342851	-0.406778	0.353846
H53	H	-1.460967	-0.406549	-0.024945
H54	H	-1.721694	-0.406785	0.235926
N55	N	-0.950279	-0.000161	-0.064177
N56	N	-0.988124	0.103864	-0.137613
H57	H	-0.966463	0.103823	-0.229386
N58	N	-0.904170	0.251963	0.310732
N59	N	-0.917288	0.273730	0.426455
H60	H	-0.878776	0.365334	0.471000
H61	H	-1.101532	-0.225967	0.078546
H62	H	-1.555957	-0.593493	0.401344
N63	N	-1.693712	-0.603994	0.003207
N64	N	-1.808891	-0.571787	0.009450
H65	H	-1.876247	-0.610162	-0.057791
N66	N	-1.635733	0.251966	-0.237928
N67	N	-1.678732	0.345199	-0.319604
H68	H	-1.724989	0.436831	-0.292123
N69	N	-0.904136	-0.252062	0.310754
N70	N	-0.917245	-0.273853	0.426476
H71	H	-0.878727	-0.365469	0.471007
N72	N	-1.381158	0.251956	-0.385696
N73	N	-1.266892	0.273717	-0.344548
H74	H	-1.220574	0.365319	-0.371990
