data_functionalizedCrystal
_audit_creation_method	'MofGen! by Chris Wilmer'
_symmetry_space_group_name_H-M	'P1'
_symmetry_Int_Tables_number	1
_symmetry_cell_setting	triclinic
loop_
_symmetry_equiv_pos_as_xyz
  x,y,z
_cell_length_a	14.044191
_cell_length_b	16.992695
_cell_length_c	16.053802
_cell_angle_alpha	87.258926
_cell_angle_beta	87.188547
_cell_angle_gamma	88.070000
loop_
_atom_site_label
_atom_site_type_symbol
_atom_site_fract_x
_atom_site_fract_y
_atom_site_fract_z
O1	O	1.275871	-0.187036	-0.069354
O2	O	1.775871	0.312964	0.430646
O3	O	0.999382	-0.180171	-0.069372
O4	O	1.499382	0.319829	0.430628
O5	O	1.136518	-0.069383	-0.069356
O6	O	1.636518	0.430617	0.430644
O7	O	1.138735	-0.297823	-0.069369
O8	O	1.638735	0.202177	0.430631
O9	O	1.128968	-0.075454	0.069502
O10	O	1.628968	0.424546	0.569502
O11	O	0.991832	-0.186242	0.069486
O12	O	1.491832	0.313758	0.569486
O13	O	1.268321	-0.193106	0.069504
O14	O	1.768321	0.306894	0.569504
Zn15	Zn	1.128878	-0.190638	0.091542
Zn16	Zn	1.628878	0.309362	0.591542
Zn17	Zn	1.138826	-0.182640	-0.091410
Zn18	Zn	1.638826	0.317360	0.408590
O19	O	1.131185	-0.303894	0.069489
O20	O	1.631185	0.196106	0.569489
C21	C	0.960065	-0.180204	0.000055
C22	C	1.460065	0.319796	0.500055
C23	C	0.854161	-0.171247	0.000048
C24	C	1.354161	0.328753	0.500048
C25	C	1.307638	-0.193073	0.000076
C26	C	1.807638	0.306927	0.500076
C27	C	1.413542	-0.202030	0.000077
C28	C	1.913542	0.297970	0.500077
C29	C	1.660258	-0.154883	0.000063
C30	C	2.160258	0.345117	0.500063
C31	C	1.607440	-0.218391	0.000062
C32	C	2.107440	0.281609	0.500062
C33	C	1.499545	-0.209285	0.000071
C34	C	1.999545	0.290715	0.500071
C35	C	1.768162	-0.163987	0.000055
C36	C	2.268162	0.336013	0.500055
C37	C	1.129891	-0.043007	0.000072
C38	C	1.629891	0.456993	0.500072
C39	C	1.121382	0.044633	0.000072
C40	C	1.621382	0.544633	0.500072
C41	C	1.137812	-0.330271	0.000058
C42	C	1.637812	0.169729	0.500058
C43	C	1.146321	-0.417910	0.000053
C44	C	1.646321	0.082090	0.500053
N45	N	1.122095	-0.196096	0.216401
N46	N	1.622095	0.303904	0.716401
C47	C	1.203479	0.089129	0.000078
C48	C	1.703479	0.589129	0.500078
C49	C	1.195479	0.171476	0.000070
C50	C	1.695479	0.671476	0.500070
C51	C	1.105381	0.209324	0.000061
C52	C	1.605381	0.709324	0.500061
C53	C	1.023279	0.164822	0.000052
C54	C	1.523279	0.664822	0.500052
C55	C	1.031280	0.082477	0.000054
C56	C	1.531280	0.582477	0.500054
C57	C	1.072220	0.455243	0.000047
C58	C	1.572220	0.955243	0.500047
C59	C	1.064224	0.537594	0.000047
C60	C	1.564224	1.037594	0.500047
C61	C	1.236426	0.544242	0.000063
C62	C	1.736426	1.044242	0.500063
C63	C	1.244419	0.461895	0.000071
C64	C	1.744419	0.961895	0.500071
C65	C	1.162316	0.417400	0.000057
C66	C	1.662316	0.917400	0.500057
N67	N	1.097202	0.293496	0.000055
N68	N	1.597202	0.793496	0.500055
N69	N	1.170497	0.333230	0.000057
N70	N	1.670497	0.833230	0.500057
N71	N	1.145615	-0.177175	-0.216269
N72	N	1.645615	0.322825	0.283731
C73	C	1.180471	-0.148976	0.260102
C74	C	1.680471	0.351024	0.760102
C75	C	1.175736	-0.152803	0.347508
C76	C	1.675736	0.347197	0.847508
C77	C	1.112630	-0.203754	0.391212
C78	C	1.612630	0.296246	0.891212
C79	C	1.054248	-0.250876	0.347506
C80	C	1.554248	0.249124	0.847506
C81	C	1.058979	-0.247045	0.260101
C82	C	1.558979	0.252955	0.760101
C83	C	1.091964	-0.220466	0.652620
C84	C	1.591964	0.279534	1.152620
C85	C	1.087239	-0.224296	0.740030
C86	C	1.587239	0.275704	1.240030
C87	C	1.208727	-0.126220	0.740027
C88	C	1.708727	0.373780	1.240027
C89	C	1.213456	-0.122397	0.652621
C90	C	1.713456	0.377603	1.152621
C91	C	1.155070	-0.169516	0.608922
C92	C	1.655070	0.330484	1.108922
N93	N	1.107791	-0.207668	0.480556
N94	N	1.607791	0.292332	0.980556
N95	N	1.159905	-0.165597	0.519580
N96	N	1.659905	0.334403	1.019580
H97	H	1.643252	-0.279600	0.000055
H98	H	2.143252	0.220400	0.500055
H99	H	0.990852	0.568407	0.000053
H100	H	1.490852	1.068407	0.500053
H101	H	1.276846	0.058319	0.000090
H102	H	1.776846	0.558319	0.500090
H103	H	1.624448	-0.093679	0.000070
H104	H	2.124448	0.406321	0.500070
H105	H	0.949919	0.195645	0.000039
H106	H	1.449919	0.695645	0.500039
H107	H	1.264842	-0.080908	0.617039
H108	H	1.764842	0.419092	1.117039
H109	H	1.256260	-0.087857	0.775615
H110	H	1.756260	0.412143	1.275615
H111	H	1.035848	-0.265790	0.775610
H112	H	1.535848	0.234210	1.275610
H113	H	1.223269	-0.114433	0.383089
H114	H	1.723269	0.385567	0.883089
H115	H	1.044426	-0.258834	0.617047
H116	H	1.544426	0.241166	1.117047
C117	C	1.326733	0.593193	0.000070
C118	C	1.826733	1.093193	0.500070
N119	N	1.394755	0.630064	0.000071
N120	N	1.894755	1.130064	0.500071
H121	H	0.964428	0.046249	0.000049
H122	H	1.464428	0.546249	0.500049
C123	C	1.285792	0.220418	0.000090
C124	C	1.785792	0.720418	0.500090
N125	N	1.353820	0.257280	0.000110
N126	N	1.853820	0.757280	0.500110
C127	C	1.343533	0.420268	0.000081
C128	C	1.843533	0.920268	0.500081
N129	N	1.418188	0.388914	0.000093
N130	N	1.918188	0.888914	0.500093
C131	C	0.981903	0.406309	0.000028
C132	C	1.481903	0.906309	0.500028
N133	N	0.913873	0.369450	0.000011
N134	N	1.413873	0.869450	0.500011
C135	C	0.984821	-0.306916	0.395583
C136	C	1.484821	0.193084	0.895583
N137	N	0.932526	-0.349126	0.431794
N138	N	1.432526	0.150874	0.931794
C139	C	1.249892	-0.092924	0.212036
C140	C	1.749892	0.407076	0.712036
N141	N	1.302180	-0.050702	0.175835
N142	N	1.802180	0.449298	0.675835
H143	H	1.011442	-0.285415	0.224521
H144	H	1.511442	0.214585	0.724521
