data_functionalizedCrystal
_audit_creation_method	'MofGen! by Chris Wilmer'
_symmetry_space_group_name_H-M	'P1'
_symmetry_Int_Tables_number	1
_symmetry_cell_setting	triclinic
loop_
_symmetry_equiv_pos_as_xyz
  x,y,z
_cell_length_a	31.640172
_cell_length_b	19.902436
_cell_length_c	19.902436
_cell_angle_alpha	90.004623
_cell_angle_beta	60.004117
_cell_angle_gamma	60.003466
loop_
_atom_site_label
_atom_site_type_symbol
_atom_site_fract_x
_atom_site_fract_y
_atom_site_fract_z
Zr1	Zr	0.462532	0.647422	-0.088109
O2	O	0.550698	0.540149	-0.195396
O3	O	0.374365	0.680293	-0.055221
O4	O	0.462521	0.680312	-0.195386
O5	O	0.462550	0.540129	0.055335
O6	O	0.462513	0.790891	-0.195377
O7	O	0.462542	0.540129	-0.055231
O8	O	0.304817	0.790857	0.055353
O9	O	0.620246	0.540164	-0.195394
O10	O	0.410623	0.776852	-0.041187
O11	O	0.410635	0.694328	0.041321
O12	O	0.514428	0.694351	-0.123705
O13	O	0.514440	0.611827	-0.041198
Zr14	Zr	0.462532	0.823782	0.088245
Zr15	Zr	0.462519	0.823782	-0.088095
Zr16	Zr	0.462545	0.647421	0.088231
Zr17	Zr	0.573452	0.647446	-0.088107
Zr18	Zr	0.351611	0.823758	0.088243
O19	O	0.550698	0.790910	0.055357
O20	O	0.550680	0.790910	-0.195375
O21	O	0.550717	0.540148	0.055337
O22	O	0.374365	0.931055	0.195532
O23	O	0.374346	0.931055	-0.055201
O24	O	0.374383	0.680293	0.195511
O25	O	0.462513	0.931074	-0.055199
O26	O	0.462542	0.790891	0.195522
O27	O	0.462550	0.680312	0.195513
O28	O	0.462521	0.931074	0.055367
O29	O	0.620236	0.680347	-0.195383
O30	O	0.304828	0.790857	0.195519
O31	O	0.304817	0.931040	0.195530
O32	O	0.304807	0.931040	0.055364
O33	O	0.620256	0.540164	-0.055228
O34	O	0.620246	0.680347	-0.055217
O35	O	0.410635	0.776852	0.123841
O36	O	0.410623	0.859376	0.041334
O37	O	0.514428	0.776875	-0.041185
O38	O	0.514440	0.694351	0.041323
C39	C	0.462548	0.515002	0.000050
C40	C	0.462554	0.440132	0.000044
C41	C	0.323787	0.735571	0.000066
C42	C	0.276699	0.735561	0.000065
C43	C	0.462524	0.168130	0.000076
C44	C	0.528006	0.144577	-0.051729
C45	C	0.528047	0.222415	-0.052017
C46	C	0.462539	0.303073	0.000060
C47	C	0.430015	0.300655	-0.037898
C48	C	0.430433	0.222427	-0.038281
C49	C	0.429098	0.223414	0.089863
C50	C	0.430329	0.300336	0.089725
C51	C	0.462544	0.379340	0.000052
C52	C	0.462517	0.091865	0.000081
C53	C	-0.015349	0.778695	-0.042992
C54	C	-0.192345	0.778712	-0.042992
O55	O	-0.215255	0.815377	-0.079590
N56	N	-0.214468	0.735634	0.000074
C57	C	-0.192342	0.692554	0.043148
O58	O	-0.215224	0.655921	0.079786
C59	C	-0.015350	0.692542	0.043152
C60	C	0.006775	0.735616	0.000076
C61	C	0.006775	0.821766	-0.086064
C62	C	0.051023	0.821757	-0.086067
C63	C	0.073148	0.778678	-0.042999
C64	C	0.051023	0.735607	0.000073
C65	C	0.006772	0.649467	0.086230
C66	C	0.051022	0.649470	0.086229
C67	C	0.073147	0.692543	0.043153
C68	C	0.117396	0.692520	0.043138
N69	N	0.139519	0.735597	0.000071
C70	C	0.117395	0.778677	-0.042997
C71	C	-0.285264	0.692562	0.043142
C72	C	-0.329511	0.692563	0.043140
C73	C	-0.329512	0.778723	-0.042999
C74	C	-0.285262	0.778716	-0.043001
C75	C	-0.263142	0.735639	0.000075
C76	C	0.210320	0.778655	-0.043001
C77	C	0.254575	0.778640	-0.043004
C78	C	0.254570	0.692485	0.043138
C79	C	0.210321	0.692496	0.043138
C80	C	0.188196	0.735587	0.000066
O81	O	0.140329	0.655881	0.079724
O82	O	0.140275	0.815319	-0.079614
C83	C	-0.059598	0.778703	-0.042989
C84	C	-0.081722	0.735632	0.000083
C85	C	-0.059598	0.692553	0.043151
C86	C	-0.125969	0.735634	0.000081
C87	C	-0.148094	0.778713	-0.042988
C88	C	-0.125971	0.821791	-0.086054
C89	C	-0.081722	0.821782	-0.086057
C90	C	-0.081721	0.649476	0.086217
C91	C	-0.125969	0.649487	0.086216
C92	C	-0.148093	0.692566	0.043148
C93	C	0.601276	0.735632	0.000071
C94	C	0.648364	0.735642	0.000071
C95	C	0.462515	0.735602	-0.220506
C96	C	0.462510	0.735602	-0.295367
C97	C	0.462515	0.956202	0.000086
C98	C	0.462510	1.031071	0.000092
C99	C	0.462539	0.735601	-0.567415
C100	C	0.397057	0.787892	-0.486870
C101	C	0.397016	0.787666	-0.408967
C102	C	0.462524	0.735602	-0.432449
C103	C	0.495049	0.645941	-0.486575
C104	C	0.494630	0.646227	-0.564137
C105	C	0.495966	0.772249	-0.565266
C106	C	0.494735	0.774063	-0.486388
C107	C	0.462519	0.735598	-0.356174
C108	C	0.462546	0.735600	-0.643692
C109	C	0.462548	0.735602	0.220642
C110	C	0.462554	0.735602	0.295503
C111	C	0.323771	0.956171	0.000083
C112	C	0.276677	1.031031	0.000089
C113	C	0.323804	0.735571	0.220640
C114	C	0.276721	0.735561	0.295500
C115	C	0.323787	0.956171	0.220657
C116	C	0.276699	1.031031	0.295524
C117	C	0.601276	0.515032	-0.220521
C118	C	0.648364	0.440173	-0.295387
C119	C	0.601292	0.515032	0.000053
C120	C	0.648386	0.440173	0.000047
C121	C	0.601260	0.735632	-0.220504
C122	C	0.648343	0.735642	-0.295363
C123	C	0.254561	1.023109	-0.042991
C124	C	0.210317	1.093441	-0.043003
C125	C	0.188187	1.171693	0.000071
C126	C	0.210307	1.179613	0.043152
C127	C	0.254553	1.109282	0.043158
C128	C	0.254610	0.778633	0.373737
C129	C	0.210377	0.778620	0.444083
C130	C	0.188252	0.735540	0.436189
C131	C	0.210367	0.692463	0.357943
C132	C	0.254602	0.692471	0.287599
C133	C	0.254579	1.109269	0.287613
C134	C	0.210341	1.179614	0.357951
C135	C	0.188220	1.171719	0.436198
C136	C	0.210344	1.093472	0.444107
C137	C	0.254584	1.023129	0.373770
C138	C	0.670489	0.361934	-0.287477
C139	C	0.714742	0.291589	-0.357815
C140	C	0.736865	0.299485	-0.436062
C141	C	0.714738	0.377731	-0.443971
C142	C	0.670490	0.448075	-0.373634
C143	C	0.670507	0.448094	0.043120
C144	C	0.714763	0.377763	0.043112
C145	C	0.736895	0.299510	0.000036
C146	C	0.714772	0.291590	-0.043042
C147	C	0.670520	0.361921	-0.043038
C148	C	0.670453	0.778731	-0.287444
C149	C	0.714687	0.778757	-0.357776
C150	C	0.736812	0.735689	-0.436027
C151	C	0.714697	0.692599	-0.443945
C152	C	0.670461	0.692578	-0.373614
H153	H	0.553695	0.221142	-0.026754
H154	H	0.272593	0.657408	0.078201
H155	H	0.192314	0.657411	0.078202
H156	H	0.652446	0.813802	-0.223734
H157	H	0.152233	0.735539	0.493474
H158	H	0.732750	0.227884	-0.351360
H159	H	-0.063712	0.856857	-0.121134
H160	H	0.272588	0.959426	0.380222
H161	H	0.471524	0.616889	-0.563945
H162	H	0.272588	0.813715	-0.078084
H163	H	0.371498	0.853690	-0.369568
H164	H	0.450056	0.187107	0.121571
H165	H	0.652479	0.355490	-0.223771
H166	H	0.192310	0.813745	-0.078073
H167	H	0.371351	0.854087	-0.485167
H168	H	0.272619	0.813714	0.380180
H169	H	0.732688	0.813844	-0.351312
H170	H	0.542526	0.739937	-0.504910
H171	H	-0.267259	0.657482	0.078223
H172	H	0.192376	0.813701	0.507786
H173	H	0.553712	0.105416	-0.026399
H174	H	0.152159	1.228954	0.000060
H175	H	0.652491	0.511805	0.078203
H176	H	0.772895	0.242200	-0.493329
H177	H	0.732757	0.384150	-0.507688
H178	H	0.652511	0.355459	-0.078111
H179	H	0.772832	0.735712	-0.493289
H180	H	0.192283	1.243336	0.078221
H181	H	0.652476	0.511778	-0.380084
H182	H	0.732767	0.384228	0.078194
H183	H	0.772927	0.242249	0.000040
H184	H	0.192346	0.657388	0.351528
H185	H	0.732799	0.227868	-0.078113
H186	H	0.371341	0.762249	-0.369931
H187	H	0.272599	0.657400	0.223898
H188	H	0.272555	1.115744	0.078244
H189	H	0.272584	1.115714	0.223907
H190	H	0.192332	1.243320	0.351497
H191	H	-0.267251	0.813790	-0.078077
H192	H	0.732718	0.657534	-0.507667
H193	H	0.652463	0.657487	-0.380074
H194	H	0.272579	0.959398	-0.078077
H195	H	-0.347533	0.813798	-0.078069
H196	H	0.553578	0.104671	-0.117563
H197	H	0.192326	1.087055	0.507825
H198	H	0.553713	0.220646	-0.118248
H199	H	0.453539	0.185889	-0.104352
H200	H	0.380860	0.243321	0.128645
H201	H	0.371487	0.762706	-0.486123
H202	H	0.152196	1.229004	0.493465
H203	H	0.382390	0.241764	-0.002988
H204	H	0.382537	0.357785	0.131573
H205	H	0.452596	0.302211	-0.103340
H206	H	0.381848	0.357458	-0.001981
H207	H	-0.143990	0.856864	-0.121126
H208	H	0.069033	0.856834	-0.121141
H209	H	-0.011236	0.856850	-0.121135
H210	H	-0.347515	0.657478	0.078206
H211	H	-0.011235	0.614393	0.121308
H212	H	0.454043	0.299964	0.118082
H213	H	0.069031	0.614389	0.121307
H214	H	0.542674	0.605145	-0.621175
H215	H	-0.143976	0.614403	0.121291
H216	H	0.543215	0.605287	-0.506342
H217	H	-0.063713	0.614397	0.121292
H218	H	0.472467	0.616395	-0.449123
H219	H	0.475005	0.837277	-0.568248
H220	H	0.471015	0.840122	-0.449062
H221	H	0.544209	0.734329	-0.622028
H222	H	0.192312	1.086976	-0.078084
