data_functionalizedCrystal
_audit_creation_method	'MofGen! by Chris Wilmer'
_symmetry_space_group_name_H-M	'P1'
_symmetry_Int_Tables_number	1
_symmetry_cell_setting	triclinic
loop_
_symmetry_equiv_pos_as_xyz
  x,y,z
_cell_length_a	17.019311
_cell_length_b	8.559649
_cell_length_c	7.088929
_cell_angle_alpha	84.655815
_cell_angle_beta	87.654677
_cell_angle_gamma	103.395852
loop_
_atom_site_label
_atom_site_type_symbol
_atom_site_fract_x
_atom_site_fract_y
_atom_site_fract_z
O1	O	1.015682	-0.237398	0.326194
O2	O	0.786603	-0.259445	0.288483
O3	O	0.921325	-0.016118	0.310659
O4	O	0.880960	-0.480725	0.304018
O5	O	0.939333	0.016475	-0.004352
O6	O	0.804611	-0.226853	-0.026528
O7	O	1.033691	-0.204806	0.011184
Cu8	Cu	0.920795	-0.212853	-0.036435
Cu9	Cu	0.899498	-0.251398	0.336102
O10	O	0.898969	-0.448133	-0.010993
C11	C	0.766551	-0.241668	0.126194
C12	C	0.679975	-0.237236	0.111942
C13	C	0.190806	-0.211333	0.022725
C14	C	0.272152	-0.215497	0.036120
C15	C	0.303011	-0.235334	0.214533
C16	C	0.252515	-0.251023	0.379561
C17	C	0.171169	-0.246870	0.366164
C18	C	0.548133	-0.248773	0.263574
C19	C	0.629487	-0.252920	0.276958
C20	C	0.649118	-0.217397	-0.066485
C21	C	0.567770	-0.213235	-0.079866
C22	C	0.517281	-0.228933	0.085162
C23	C	0.386161	-0.239586	0.228229
C24	C	0.434131	-0.224693	0.071464
C25	C	0.933388	0.059663	0.153661
C26	C	0.942492	0.236907	0.155170
C27	C	1.053742	-0.222583	0.173476
C28	C	1.140317	-0.227016	0.187741
N29	N	0.935781	-0.185742	-0.298456
C30	C	0.886906	-0.523914	0.146010
C31	C	0.877800	-0.701160	0.144513
N32	N	0.884520	-0.278496	0.598124
H33	H	0.654606	-0.269087	0.422251
H34	H	0.542656	-0.197048	-0.225148
Cl35	Cl	1.017816	-0.037348	-0.411013
Cl36	Cl	0.802496	-0.426900	-0.289325
Cl37	Cl	0.484673	-0.268497	0.471040
Cl38	Cl	1.038769	0.364403	0.170994
H39	H	0.165687	-0.195187	-0.122559
H40	H	0.313258	-0.202722	-0.098254
H41	H	0.411296	-0.255732	0.373494
Cl42	Cl	0.291309	-0.275962	0.603854
Cl43	Cl	0.107696	-0.266596	0.573622
Cl44	Cl	0.712592	-0.197677	-0.273935
H45	H	0.409001	-0.208550	-0.073799
H46	H	0.815449	0.216266	0.134242
