data_functionalizedCrystal
_audit_creation_method	'MofGen! by Chris Wilmer'
_symmetry_space_group_name_H-M	'P1'
_symmetry_Int_Tables_number	1
_symmetry_cell_setting	triclinic
loop_
_symmetry_equiv_pos_as_xyz
  x,y,z
_cell_length_a	6.817900
_cell_length_b	16.255748
_cell_length_c	16.255661
_cell_angle_alpha	95.347428
_cell_angle_beta	103.488922
_cell_angle_gamma	103.490428
loop_
_atom_site_label
_atom_site_type_symbol
_atom_site_fract_x
_atom_site_fract_y
_atom_site_fract_z
V1	V	-4.026718	-0.117775	-0.264162
O2	O	-4.014190	0.004956	-0.258836
O3	O	-3.978277	-0.232852	-0.262642
O4	O	-3.978280	-0.116272	-0.379242
O5	O	-4.014186	-0.112431	-0.141429
V6	V	-4.510357	-0.103059	-0.249447
O7	O	-4.287724	-0.150057	-0.296440
O8	O	-4.699549	-0.070777	-0.217170
O9	O	-4.335592	0.012018	-0.250968
O10	O	-4.640282	-0.225790	-0.254774
O11	O	-4.640286	-0.108403	-0.372181
O12	O	-4.335588	-0.104562	-0.134368
C13	C	-3.823268	-0.260896	-0.258548
C14	C	-3.864948	-0.354974	-0.258072
C15	C	-3.800462	-0.634058	-0.252241
C16	C	-3.906949	-0.591123	-0.324865
C17	C	-4.015121	-0.693616	-0.256396
C18	C	-3.834252	-0.568919	-0.184633
C19	C	-3.941325	-0.527229	-0.257218
C20	C	-4.122189	-0.651929	-0.329071
C21	C	-4.049434	-0.629719	-0.188775
C22	C	-4.156080	-0.586816	-0.261419
C23	C	-4.057627	-0.789466	-0.255923
C24	C	-3.898837	-0.431382	-0.257697
C25	C	-3.823272	-0.112186	-0.407282
C26	C	-3.864952	-0.111718	-0.501362
C27	C	-3.775508	-0.106135	-0.724167
C28	C	-3.931928	-0.178192	-0.793821
C29	C	-3.941336	-0.110842	-0.673609
C30	C	-3.859207	-0.037960	-0.771590
C31	C	-4.015104	-0.109991	-0.839990
C32	C	-4.097238	-0.182963	-0.742033
C33	C	-4.024455	-0.042667	-0.719786
C34	C	-4.181011	-0.114745	-0.789421
C35	C	-3.898835	-0.111332	-0.577760
C36	C	-4.057622	-0.109507	-0.935837
C37	C	-4.153942	0.040057	-0.255059
C38	C	-4.091501	0.134135	-0.255540
C39	C	-4.153938	-0.108651	-0.106323
C40	C	-4.091497	-0.109114	-0.012242
H41	H	-3.846340	-0.573883	-0.382412
O42	O	-4.335014	-0.562014	-0.265921
C43	C	-4.307443	-0.502063	-0.192928
H44	H	-4.176752	-0.510282	-0.138717
H45	H	-4.458873	-0.512986	-0.172163
H46	H	-4.264413	-0.434444	-0.208881
O47	O	-4.385952	-0.118952	-0.823269
C48	C	-4.401829	-0.045468	-0.861313
H49	H	-4.254254	0.008553	-0.831457
H50	H	-4.543483	-0.024814	-0.850187
H51	H	-4.420593	-0.060720	-0.933058
O52	O	-4.267704	-0.694912	-0.401935
C53	C	-4.305565	-0.783770	-0.400619
H54	H	-4.165041	-0.797433	-0.355934
H55	H	-4.331822	-0.818650	-0.468029
H56	H	-4.450446	-0.807081	-0.376831
H57	H	-3.603754	-0.102588	-0.695678
H58	H	-3.712080	-0.532888	-0.123606
H59	H	-4.063046	0.014633	-0.687536
H60	H	-4.197458	-0.244311	-0.728718
H61	H	-4.109985	-0.646981	-0.131226
O62	O	-3.739865	0.035235	-0.787558
C63	C	-3.786831	0.106617	-0.748249
H64	H	-3.950010	0.086300	-0.738020
H65	H	-3.781042	0.158282	-0.791142
H66	H	-3.667425	0.132990	-0.683800
O67	O	-3.621672	-0.659019	-0.247557
C68	C	-3.572609	-0.695514	-0.172543
H69	H	-3.649611	-0.670831	-0.123728
H70	H	-3.395841	-0.677000	-0.144530
H71	H	-3.632697	-0.768218	-0.188711
O72	O	-3.885433	-0.246475	-0.832220
C73	C	-3.672100	-0.241722	-0.798771
H74	H	-3.582631	-0.172462	-0.771044
H75	H	-3.606533	-0.265579	-0.852062
H76	H	-3.654629	-0.283282	-0.746161
