data_functionalizedCrystal
_audit_creation_method	'MofGen! by Chris Wilmer'
_symmetry_space_group_name_H-M	'P1'
_symmetry_Int_Tables_number	1
_symmetry_cell_setting	triclinic
loop_
_symmetry_equiv_pos_as_xyz
  x,y,z
_cell_length_a	21.395364
_cell_length_b	18.101395
_cell_length_c	21.395355
_cell_angle_alpha	90.017487
_cell_angle_beta	89.975448
_cell_angle_gamma	89.947636
loop_
_atom_site_label
_atom_site_type_symbol
_atom_site_fract_x
_atom_site_fract_y
_atom_site_fract_z
Zn1	Zn	0.957830	0.294620	-0.354266
Zn2	Zn	1.457830	0.794620	0.145734
Zn3	Zn	0.957720	0.418443	-0.249490
Zn4	Zn	1.457720	0.918443	0.250510
Zn5	Zn	0.853045	0.294652	-0.249503
Zn6	Zn	1.353045	0.794652	0.250497
Zn7	Zn	0.853002	0.418457	-0.354231
Zn8	Zn	1.353002	0.918457	0.145769
O9	O	0.905399	0.356543	-0.301872
O10	O	1.405399	0.856543	0.198128
O11	O	1.045493	0.311026	-0.340377
O12	O	1.545493	0.811026	0.159623
O13	O	0.943807	0.402030	-0.161814
O14	O	1.443807	0.902030	0.338186
O15	O	0.867009	0.191015	-0.263420
O16	O	1.367009	0.691015	0.236580
O17	O	1.045413	0.401999	-0.263399
O18	O	1.545413	0.901999	0.236601
O19	O	0.943994	0.190991	-0.340389
O20	O	1.443994	0.690991	0.159611
O21	O	0.866903	0.311082	-0.161823
O22	O	1.366903	0.811082	0.338177
O23	O	0.765361	0.311094	-0.263385
O24	O	1.265361	0.811094	0.236615
O25	O	0.866936	0.402021	-0.441913
O26	O	1.366936	0.902021	0.058087
O27	O	0.765330	0.402053	-0.340328
O28	O	1.265330	0.902053	0.159672
O29	O	0.943952	0.311039	-0.441939
O30	O	1.443952	0.811039	0.058061
O31	O	0.943765	0.522078	-0.263364
O32	O	1.443765	1.022078	0.236636
O33	O	0.866829	0.522088	-0.340317
O34	O	1.366829	1.022088	0.159683
C35	C	0.905298	0.548954	-0.301849
C36	C	1.405298	1.048954	0.198151
C37	C	0.905311	0.631268	-0.301860
C38	C	1.405311	1.131268	0.198140
C39	C	0.742612	0.356579	-0.301855
C40	C	1.242612	0.856579	0.198145
C41	C	0.672970	0.356612	-0.301862
C42	C	1.172970	0.856612	0.198138
C43	C	0.905371	0.781976	-0.301887
C44	C	1.405371	1.281976	0.198113
C45	C	0.856938	0.813367	-0.350267
C46	C	1.356938	1.313367	0.149733
C47	C	0.857114	0.898985	-0.350472
C48	C	1.357114	1.398985	0.149528
C49	C	0.905429	0.930359	-0.301914
C50	C	1.405429	1.430359	0.198086
C51	C	0.971488	0.899159	-0.319677
C52	C	1.471488	1.399159	0.180323
C53	C	0.971174	0.813515	-0.320013
C54	C	1.471174	1.313515	0.179987
C55	C	0.888336	0.813604	-0.235629
C56	C	1.388336	1.313604	0.264371
C57	C	0.886912	0.899256	-0.235998
C58	C	1.386912	1.399256	0.264002
C59	C	0.905466	1.014218	-0.301928
C60	C	1.405466	1.514218	0.198072
C61	C	0.905339	0.698117	-0.301875
C62	C	1.405339	1.198117	0.198125
C63	C	0.640322	0.309321	-0.342007
C64	C	1.140322	0.809321	0.157993
C65	C	0.574886	0.309301	-0.342009
C66	C	1.074886	0.809301	0.157991
C67	C	0.542102	0.356586	-0.301874
C68	C	1.042102	0.856586	0.198126
C69	C	0.574759	0.403881	-0.261721
C70	C	1.074759	0.903881	0.238279
C71	C	0.640193	0.403894	-0.261716
C72	C	1.140193	0.903894	0.238284
C73	C	0.438371	0.423279	-0.296837
C74	C	0.938371	0.923279	0.203163
C75	C	0.372938	0.423267	-0.296847
C76	C	0.872938	0.923267	0.203153
C77	C	0.340281	0.356545	-0.301887
C78	C	0.840281	0.856545	0.198113
C79	C	0.373066	0.289834	-0.306931
C80	C	0.873066	0.789834	0.193069
C81	C	0.438500	0.289847	-0.306925
C82	C	0.938500	0.789847	0.193075
C83	C	0.471150	0.356577	-0.301875
C84	C	0.971150	0.856577	0.198125
C85	C	0.236680	0.309228	-0.342037
C86	C	0.736680	0.809228	0.157963
C87	C	0.171243	0.309207	-0.342035
C88	C	0.671243	0.809207	0.157965
C89	C	0.171117	0.403794	-0.261750
C90	C	0.671117	0.903794	0.238250
C91	C	0.236553	0.403809	-0.261749
C92	C	0.736553	0.903809	0.238251
C93	C	0.269330	0.356527	-0.301895
C94	C	0.769330	0.856527	0.198105
C95	C	1.068823	0.356507	-0.301890
C96	C	1.568823	0.856507	0.198110
C97	C	1.138464	0.356492	-0.301898
C98	C	1.638464	0.856492	0.198102
C99	C	0.905451	0.356528	-0.465296
C100	C	1.405451	0.856528	0.034704
C101	C	0.905474	0.356522	-0.534937
C102	C	1.405474	0.856522	-0.034937
C103	C	0.905498	1.163381	-0.301914
C104	C	1.405498	1.663381	0.198086
C105	C	0.905489	1.081067	-0.301941
C106	C	1.405489	1.581067	0.198059
C107	C	0.945574	0.309145	-0.567665
C108	C	1.445574	0.809145	-0.067665
C109	C	0.945574	0.309113	-0.633100
C110	C	1.445574	0.809113	-0.133100
C111	C	0.905478	0.356471	-0.665805
C112	C	1.405478	0.856471	-0.165805
C113	C	0.865370	0.403851	-0.633070
C114	C	1.365370	0.903851	-0.133070
C115	C	0.865367	0.403876	-0.567636
C116	C	1.365367	0.903876	-0.067636
C117	C	0.900496	0.423154	-0.769472
C118	C	1.400496	0.923154	-0.269472
C119	C	0.900503	0.423130	-0.834905
C120	C	1.400503	0.923130	-0.334905
C121	C	0.905482	0.356393	-0.867626
C122	C	1.405482	0.856393	-0.367626
C123	C	0.910468	0.289678	-0.834907
C124	C	1.410468	0.789678	-0.334907
C125	C	0.910466	0.289703	-0.769472
C126	C	1.410466	0.789703	-0.269472
C127	C	0.905476	0.356449	-0.736758
C128	C	1.405476	0.856449	-0.236758
C129	C	0.945584	0.308978	-0.971307
C130	C	1.445584	0.808978	-0.471307
C131	C	0.945579	0.308945	-1.036743
C132	C	1.445579	0.808945	-0.536743
C133	C	0.865379	0.403689	-1.036712
C134	C	1.365379	0.903689	-0.536712
C135	C	0.865381	0.403716	-0.971276
C136	C	1.365381	0.903716	-0.471276
C137	C	0.905487	0.356361	-0.938578
C138	C	1.405487	0.856361	-0.438578
C139	C	0.905384	0.356505	-0.139085
C140	C	1.405384	0.856505	0.360915
C141	C	0.905483	0.356302	-0.069444
C142	C	1.405483	0.856302	0.430556
H143	H	0.808136	0.920086	-0.339369
H144	H	1.308136	1.420086	0.160631
H145	H	0.144425	0.442295	-0.229071
H146	H	0.644425	0.942295	0.270929
Br147	Br	0.809385	0.777743	-0.208619
Br148	Br	1.309385	1.277743	0.291381
H149	H	0.978227	0.270530	-0.659752
H150	H	1.478227	0.770530	-0.159752
Br151	Br	0.328754	0.199277	-0.313773
Br152	Br	0.828754	0.699277	0.186227
Br153	Br	0.875925	0.933070	-0.432320
Br154	Br	1.375925	1.433070	0.067680
Br155	Br	0.328452	0.513803	-0.290016
Br156	Br	0.828452	1.013803	0.209984
H157	H	0.838297	0.919660	-0.222599
H158	H	1.338297	1.419660	0.277401
H159	H	0.465190	0.235528	-0.311030
H160	H	0.965190	0.735528	0.188970
Br161	Br	0.280865	0.467988	-0.207259
Br162	Br	0.780865	0.967988	0.292741
H163	H	0.914524	0.235334	-0.861547
H164	H	1.414524	0.735334	-0.361547
Br165	Br	0.875527	0.777436	-0.431632
Br166	Br	1.375527	1.277436	0.068368
H167	H	0.832709	0.442455	-0.540989
H168	H	1.332709	0.942455	-0.040989
H169	H	0.832726	0.442241	-1.063340
H170	H	1.332726	0.942241	-0.563340
Br171	Br	1.033306	0.932997	-0.262757
Br172	Br	1.533306	1.432997	0.237243
Br173	Br	0.893756	0.513736	-0.725071
Br174	Br	1.393756	1.013736	-0.225071
Br175	Br	0.126933	0.245014	-0.396517
Br176	Br	0.626933	0.745014	0.103483
Br177	Br	0.810950	0.468118	-0.677454
Br178	Br	1.310950	0.968118	-0.177454
H179	H	0.914524	0.235381	-0.742835
H180	H	1.414524	0.735381	-0.242835
H181	H	0.978231	0.270585	-0.541045
H182	H	1.478231	0.770585	-0.041045
Br183	Br	0.684505	0.468078	-0.207226
Br184	Br	1.184505	0.968078	0.292774
Br185	Br	0.775017	0.779173	-0.331981
Br186	Br	1.275017	1.279173	0.168019
Br187	Br	1.000011	0.244711	-0.926926
Br188	Br	1.500011	0.744711	-0.426926
H189	H	0.464955	0.477615	-0.292732
H190	H	0.964955	0.977615	0.207268
H191	H	0.985593	0.793491	-0.368442
H192	H	1.485593	1.293491	0.131558
Br193	Br	0.684803	0.245152	-0.396491
Br194	Br	1.184803	0.745152	0.103509
Br195	Br	1.033380	0.778886	-0.263816
Br196	Br	1.533380	1.278886	0.236184
Br197	Br	0.530268	0.468049	-0.207246
Br198	Br	1.030268	0.968049	0.292754
H199	H	0.986172	0.920561	-0.367582
H200	H	1.486172	1.420561	0.132418
Br201	Br	1.000016	0.244654	-1.081161
Br202	Br	1.500016	0.744654	-0.581161
H203	H	0.919614	0.920622	-0.198042
H204	H	1.419614	1.420622	0.301958
H205	H	0.923607	0.793292	-0.199584
H206	H	1.423607	1.293292	0.300416
Br207	Br	0.530567	0.245112	-0.396492
Br208	Br	1.030567	0.745112	0.103508
H209	H	0.263369	0.270724	-0.374722
H210	H	0.763369	0.770724	0.125278
H211	H	0.832730	0.442299	-0.944629
H212	H	1.332730	0.942299	-0.444629
Br213	Br	0.893745	0.513671	-0.879304
Br214	Br	1.393745	1.013671	-0.379304
