data_functionalizedCrystal
_audit_creation_method	'MofGen! by Chris Wilmer'
_symmetry_space_group_name_H-M	'P1'
_symmetry_Int_Tables_number	1
_symmetry_cell_setting	triclinic
loop_
_symmetry_equiv_pos_as_xyz
  x,y,z
_cell_length_a	11.792254
_cell_length_b	11.792241
_cell_length_c	10.868271
_cell_angle_alpha	89.994263
_cell_angle_beta	90.000615
_cell_angle_gamma	95.803993
loop_
_atom_site_label
_atom_site_type_symbol
_atom_site_fract_x
_atom_site_fract_y
_atom_site_fract_z
O1	O	1.506894	-0.155638	0.102322
O2	O	1.176555	-0.171656	0.102324
O3	O	1.349741	0.001523	0.102314
O4	O	1.333708	-0.328817	0.102332
O5	O	1.349738	0.001532	-0.102330
O6	O	1.176552	-0.171647	-0.102320
O7	O	1.506892	-0.155629	-0.102323
Zn8	Zn	1.341722	-0.163636	-0.134813
Zn9	Zn	1.341724	-0.163649	0.134815
O10	O	1.333706	-0.328808	-0.102313
C11	C	1.134263	-0.170642	0.000002
C12	C	1.008250	-0.167622	0.000003
C13	C	0.905913	-0.165168	0.000008
C14	C	0.777527	-0.162100	0.000009
C15	C	1.348732	0.043819	-0.000008
C16	C	1.345718	0.169832	-0.000006
C17	C	1.549183	-0.156643	0.000002
C18	C	1.675196	-0.159663	0.000009
C19	C	1.334714	-0.371104	0.000012
C20	C	1.337728	-0.497118	0.000019
N21	N	1.341728	-0.163627	-0.318827
C22	C	1.340175	0.400545	0.000014
C23	C	1.343255	0.272160	0.000003
N24	N	1.341727	-0.163649	0.318829
C25	C	1.341724	-0.163642	0.569835
C26	C	1.341722	-0.163650	0.430157
