data_functionalizedCrystal
_audit_creation_method	'MofGen! by Chris Wilmer'
_symmetry_space_group_name_H-M	'P1'
_symmetry_Int_Tables_number	1
_symmetry_cell_setting	triclinic
loop_
_symmetry_equiv_pos_as_xyz
  x,y,z
_cell_length_a	21.295418
_cell_length_b	21.295417
_cell_length_c	21.295411
_cell_angle_alpha	90.021644
_cell_angle_beta	90.043738
_cell_angle_gamma	90.046319
loop_
_atom_site_label
_atom_site_type_symbol
_atom_site_fract_x
_atom_site_fract_y
_atom_site_fract_z
Zn1	Zn	0.962356	-0.250415	0.356234
Zn2	Zn	0.962258	-0.355667	0.250959
Zn3	Zn	0.857079	-0.250445	0.250943
Zn4	Zn	0.857048	-0.355680	0.356155
O5	O	0.909685	-0.303052	0.303573
O6	O	1.050432	-0.264360	0.342308
O7	O	0.948278	-0.341716	0.162867
O8	O	0.871098	-0.162351	0.264937
O9	O	1.050361	-0.341688	0.264963
O10	O	0.948444	-0.162330	0.342293
O11	O	0.871003	-0.264410	0.162856
O12	O	0.768985	-0.264422	0.264861
O13	O	0.871046	-0.341709	0.444255
O14	O	0.768963	-0.341738	0.342160
O15	O	0.948415	-0.264372	0.444313
O16	O	0.948248	-0.443758	0.264887
O17	O	0.870951	-0.443767	0.342175
C18	C	0.746134	-0.303085	0.303500
C19	C	0.676166	-0.303114	0.303484
C20	C	0.643304	-0.343426	0.343674
C21	C	0.577561	-0.343410	0.343702
C22	C	0.544683	-0.303090	0.303530
C23	C	0.577553	-0.262770	0.263337
C24	C	0.643294	-0.262783	0.263315
N25	N	0.441407	-0.298163	0.248472
N26	N	0.378956	-0.298155	0.248495
C27	C	0.346608	-0.303050	0.303596
N28	N	0.379072	-0.307965	0.358675
N29	N	0.441529	-0.307976	0.358650
C30	C	0.473398	-0.303072	0.303550
C31	C	0.242461	-0.343346	0.343820
C32	C	0.176717	-0.343326	0.343849
C33	C	0.176710	-0.262690	0.263479
C34	C	0.242453	-0.262707	0.263455
C35	C	0.275324	-0.303038	0.303625
C36	C	0.909603	-0.466603	0.303538
C37	C	0.909625	-0.536571	0.303544
C38	C	0.949910	-0.569412	0.263342
C39	C	0.949939	-0.635155	0.263356
C40	C	0.909673	-0.668054	0.303566
C41	C	0.869386	-0.635205	0.343776
C42	C	0.869362	-0.569464	0.343765
N43	N	0.854606	-0.771336	0.308340
N44	N	0.854630	-0.833787	0.308347
C45	C	0.909743	-0.866129	0.303602
N46	N	0.964832	-0.833659	0.298838
N47	N	0.964807	-0.771202	0.298828
C48	C	0.909695	-0.739339	0.303582
C49	C	0.950063	-0.970255	0.263413
C50	C	0.950094	-1.035999	0.263431
C51	C	0.869535	-1.036048	0.343848
C52	C	0.869510	-0.970305	0.343833
C53	C	0.909773	-0.937413	0.303612
C54	C	1.073876	-0.303019	0.303646
C55	C	1.143844	-0.303005	0.303677
C56	C	0.909738	-0.303038	0.467763
C57	C	0.909760	-0.303033	0.537731
C58	C	0.909785	-0.138861	0.303622
C59	C	0.909828	-0.068893	0.303642
C60	C	0.909670	-0.303019	0.140021
C61	C	0.909769	-0.302848	0.070054
C62	C	0.950044	-0.262761	0.570629
C63	C	0.950043	-0.262734	0.636371
C64	C	0.909765	-0.302989	0.669214
C65	C	0.869473	-0.343263	0.636308
C66	C	0.869470	-0.343285	0.570567
N67	N	0.904908	-0.358058	0.772428
N68	N	0.904914	-0.358036	0.834879
C69	C	0.909769	-0.302926	0.867289
N70	N	0.914629	-0.247837	0.834888
N71	N	0.914627	-0.247860	0.772430
C72	C	0.909763	-0.302970	0.740499
C73	C	0.950054	-0.262621	0.971472
C74	C	0.950049	-0.262593	1.037216
C75	C	0.869482	-0.343128	1.037151
C76	C	0.869484	-0.343151	0.971409
C77	C	0.909773	-0.302898	0.938573
H78	H	0.149962	-0.376152	0.376580
H79	H	0.982746	-0.661899	0.230619
C80	C	0.679464	-0.387784	0.387863
C81	C	0.724741	-0.360589	0.437319
C82	C	0.760904	-0.404946	0.481508
C83	C	0.751789	-0.476498	0.476241
C84	C	0.706509	-0.503697	0.426782
C85	C	0.670347	-0.459340	0.382593
H86	H	0.731490	-0.307618	0.441220
H87	H	0.794423	-0.384811	0.518120
H88	H	0.778559	-0.509334	0.508952
H89	H	0.699760	-0.556668	0.422881
H90	H	0.636828	-0.479475	0.345981
C91	C	0.825091	-0.671391	0.388006
C92	C	0.780776	-0.635263	0.432230
C93	C	0.736482	-0.671448	0.476465
C94	C	0.736503	-0.743760	0.476476
C95	C	0.780819	-0.779892	0.432250
C96	C	0.825113	-0.743708	0.388016
H97	H	0.780759	-0.581729	0.432223
H98	H	0.703676	-0.644700	0.509203
H99	H	0.703714	-0.770547	0.509221
H100	H	0.780836	-0.833426	0.432257
H101	H	0.857920	-0.770455	0.355277
H102	H	0.836557	-0.542724	0.376503
H103	H	0.836683	-0.375948	0.944623
C104	C	0.994358	-0.934066	0.219181
C105	C	0.967092	-0.888931	0.169715
C106	C	1.011389	-0.852743	0.125485
C107	C	1.082951	-0.861691	0.130721
C108	C	1.110221	-0.906828	0.180189
C109	C	1.065924	-0.943016	0.224419
H110	H	0.914114	-0.882306	0.165837
H111	H	0.991201	-0.819330	0.088865
H112	H	1.115742	-0.834902	0.097979
H113	H	1.163199	-0.913453	0.184067
H114	H	1.086112	-0.976429	0.261039
H115	H	0.836704	-0.943564	0.376567
H116	H	0.269226	-0.376183	0.376531
H117	H	0.982696	-0.542633	0.230593
C118	C	0.541390	-0.218416	0.219148
C119	C	0.577541	-0.174071	0.174939
C120	C	0.541379	-0.129712	0.130751
C121	C	0.469067	-0.129698	0.130772
C122	C	0.432912	-0.174045	0.174983
C123	C	0.469073	-0.218404	0.219171
H124	H	0.631075	-0.174080	0.174922
H125	H	0.568144	-0.096883	0.098024
H126	H	0.442297	-0.096861	0.098062
H127	H	0.379378	-0.174036	0.175000
H128	H	0.442309	-0.251232	0.251898
C129	C	0.278608	-0.218371	0.219239
C130	C	0.323722	-0.245590	0.169756
C131	C	0.359879	-0.201252	0.125539
C132	C	0.350922	-0.129695	0.130806
C133	C	0.305805	-0.102473	0.180292
C134	C	0.269649	-0.146811	0.224509
H135	H	0.330355	-0.298563	0.165855
H136	H	0.393277	-0.221404	0.088906
H137	H	0.377687	-0.096873	0.098074
H138	H	0.299173	-0.049499	0.184193
H139	H	0.236251	-0.126659	0.261141
H140	H	0.982902	-1.062737	0.230695
C141	C	0.541403	-0.387760	0.387908
C142	C	0.577559	-0.432122	0.432091
C143	C	0.541403	-0.476473	0.476296
C144	C	0.469090	-0.476461	0.476317
C145	C	0.432930	-0.432096	0.432133
C146	C	0.469086	-0.387746	0.387928
H147	H	0.631093	-0.432133	0.432077
H148	H	0.568172	-0.509315	0.509004
H149	H	0.442325	-0.509292	0.509040
H150	H	0.379396	-0.432086	0.432147
H151	H	0.442317	-0.354904	0.355220
C152	C	0.825242	-1.072228	0.388082
C153	C	0.780926	-1.036099	0.432303
C154	C	0.736634	-1.072284	0.476541
C155	C	0.736659	-1.144596	0.476557
C156	C	0.780977	-1.180729	0.432334
C157	C	0.825268	-1.144545	0.388096
H158	H	0.780906	-0.982566	0.432293
H159	H	0.703827	-1.045535	0.509278
H160	H	0.703871	-1.171382	0.509304
H161	H	0.780996	-1.234263	0.432344
H162	H	0.858075	-1.171293	0.355359
C163	C	0.994364	-0.218291	1.073407
C164	C	0.967121	-0.168856	1.118582
C165	C	1.011437	-0.124555	1.154775
C166	C	1.082995	-0.129689	1.145794
C167	C	1.110241	-0.179126	1.100617
C168	C	1.065926	-0.223428	1.064424
H169	H	0.914146	-0.165054	1.125232
H170	H	0.991267	-0.087958	1.188218
H171	H	1.115800	-0.096894	1.172586
H172	H	1.163216	-0.182929	1.093967
H173	H	1.086096	-0.260025	1.030981
C174	C	0.825164	-0.387404	1.073265
C175	C	0.830243	-0.458969	1.064227
C176	C	0.785917	-0.503242	1.100341
C177	C	0.736512	-0.475950	1.145493
C178	C	0.731430	-0.404382	1.154533
C179	C	0.775756	-0.360109	1.118419
H180	H	0.866818	-0.479175	1.030800
H181	H	0.789679	-0.556221	1.093648
H182	H	0.703699	-0.508724	1.172227
H183	H	0.694855	-0.384176	1.187960
H184	H	0.771994	-0.307129	1.125112
C185	C	0.679445	-0.218442	0.219098
C186	C	0.670487	-0.146885	0.224368
C187	C	0.706639	-0.102546	0.180149
C188	C	0.751750	-0.129763	0.130661
C189	C	0.760710	-0.201323	0.125389
C190	C	0.724557	-0.245662	0.169608
H191	H	0.637092	-0.126735	0.261004
H192	H	0.700006	-0.049572	0.184052
H193	H	0.778511	-0.096940	0.097927
H194	H	0.794105	-0.221473	0.088753
H195	H	0.731191	-0.298636	0.165706
H196	H	0.836676	-0.376038	0.663053
H197	H	0.982850	-0.229984	0.543898
C198	C	0.994364	-0.218438	0.672569
C199	C	1.038681	-0.174165	0.636452
C200	C	1.083003	-0.129871	0.672647
C201	C	1.083008	-0.129852	0.744960
C202	C	1.038688	-0.174127	0.781081
C203	C	0.994366	-0.218420	0.744886
H204	H	1.038679	-0.174178	0.582918
H205	H	1.115811	-0.097096	0.645907
H206	H	1.115817	-0.097063	0.771754
H207	H	1.038690	-0.174114	0.834615
H208	H	0.961559	-0.251196	0.771626
H209	H	0.149942	-0.229857	0.230773
C210	C	0.994364	-0.218340	0.935346
C211	C	0.989267	-0.146776	0.944379
C212	C	1.033576	-0.102495	0.908254
C213	C	1.082982	-0.129777	0.863096
C214	C	1.088081	-0.201345	0.854061
C215	C	1.043772	-0.245626	0.890186
H216	H	0.952692	-0.126577	0.977809
H217	H	1.029801	-0.049515	0.914942
H218	H	1.115782	-0.096998	0.836354
H219	H	1.124656	-0.221544	0.820631
H220	H	1.047547	-0.298606	0.883498
H221	H	0.836663	-0.376078	0.543782
