data_functionalizedCrystal
_audit_creation_method	'MofGen! by Chris Wilmer'
_symmetry_space_group_name_H-M	'P1'
_symmetry_Int_Tables_number	1
_symmetry_cell_setting	triclinic
loop_
_symmetry_equiv_pos_as_xyz
  x,y,z
_cell_length_a	14.519709
_cell_length_b	10.654550
_cell_length_c	13.596369
_cell_angle_alpha	89.999203
_cell_angle_beta	90.000316
_cell_angle_gamma	84.082524
loop_
_atom_site_label
_atom_site_type_symbol
_atom_site_fract_x
_atom_site_fract_y
_atom_site_fract_z
O1	O	-1.224724	-0.164615	-0.081661
O2	O	-0.956347	-0.184001	-0.081690
O3	O	-1.096706	0.008491	-0.081671
O4	O	-1.084365	-0.357107	-0.081680
O5	O	-1.096689	0.008480	0.081912
O6	O	-0.956330	-0.184012	0.081892
O7	O	-1.224706	-0.164625	0.081922
Zn8	Zn	-1.090515	-0.174320	0.107880
Zn9	Zn	-1.090538	-0.174306	-0.107648
O10	O	-1.084348	-0.357117	0.081903
C11	C	-1.095791	0.055275	0.000119
C12	C	-1.093080	0.194692	0.000115
C13	C	-0.921974	-0.183103	0.000097
C14	C	-0.819579	-0.180396	0.000086
C15	C	-1.259079	-0.165524	0.000132
C16	C	-1.361475	-0.168231	0.000137
C17	C	-0.444631	-0.170428	0.000131
C18	C	-0.548954	-0.173196	0.000118
C19	C	-0.632102	-0.175412	0.000107
C20	C	-0.736431	-0.178180	0.000096
C21	C	-1.085262	-0.403901	0.000111
C22	C	-1.087973	-0.543318	0.000108
N23	N	-1.090506	-0.174329	0.254972
C24	C	-1.175721	0.274972	0.000127
C25	C	-1.173168	0.405968	0.000120
C26	C	-1.005326	0.376391	0.000093
C27	C	-1.007880	0.245397	0.000093
C28	C	-1.260921	0.224266	0.000150
C29	C	-1.343569	0.304548	0.000163
C30	C	-1.341016	0.435544	0.000156
C31	C	-1.255815	0.486259	0.000135
N32	N	-1.090554	-0.174288	-0.254740
C33	C	-1.090511	-0.174332	0.343969
C34	C	-1.090520	-0.174323	0.455621
C35	C	-1.090532	-0.174309	0.544611
C36	C	-1.090542	-0.174302	0.656270
H37	H	-1.263009	0.117604	0.000158
Br38	Br	-1.459192	0.235725	0.000173
H39	H	-1.408312	0.500907	0.000156
Br40	Br	-0.889704	0.445219	0.000065
Br41	Br	-0.895723	0.136437	0.000072
H42	H	-1.253743	0.592926	0.000119
