data_functionalizedCrystal
_audit_creation_method	'MofGen! by Chris Wilmer'
_symmetry_space_group_name_H-M	'P1'
_symmetry_Int_Tables_number	1
_symmetry_cell_setting	triclinic
loop_
_symmetry_equiv_pos_as_xyz
  x,y,z
_cell_length_a	10.654546
_cell_length_b	8.559649
_cell_length_c	9.730223
_cell_angle_alpha	90.000781
_cell_angle_beta	89.998853
_cell_angle_gamma	77.131074
loop_
_atom_site_label
_atom_site_type_symbol
_atom_site_fract_x
_atom_site_fract_y
_atom_site_fract_z
O1	O	1.644682	0.224152	-0.114312
O2	O	1.276996	0.245516	-0.114308
O3	O	1.493232	0.002591	-0.114309
O4	O	1.428446	0.467078	-0.114311
O5	O	1.493230	0.002597	0.114271
O6	O	1.276993	0.245523	0.114272
O7	O	1.644679	0.224158	0.114268
Zn8	Zn	1.460836	0.234841	0.150562
Zn9	Zn	1.460839	0.234833	-0.150602
O10	O	1.428443	0.467084	0.114269
C11	C	1.230358	0.243952	-0.000017
C12	C	1.091399	0.239262	-0.000016
C13	C	1.026136	0.237040	-0.124621
C14	C	0.895571	0.232620	-0.124632
C15	C	0.895548	0.232640	0.124578
C16	C	1.026107	0.237071	0.124588
C17	C	1.026149	0.237021	-0.268501
C18	C	0.895585	0.232602	-0.268512
C19	C	1.498141	-0.056882	-0.000022
C20	C	1.512755	-0.234100	-0.000030
C21	C	1.691317	0.225722	-0.000026
C22	C	1.830276	0.230412	-0.000037
C23	C	1.423534	0.526556	-0.000022
C24	C	1.408920	0.703775	-0.000023
N25	N	1.460842	0.234846	0.356098
N26	N	1.460844	0.234816	-0.356139
C27	C	1.556610	0.127315	0.428024
C28	C	1.556609	0.127296	0.571907
C29	C	1.365067	0.342352	0.571926
C30	C	1.365064	0.342362	0.428046
C31	C	1.667199	0.003158	0.428014
C32	C	1.667197	0.003139	0.571897
H33	H	1.079237	0.238898	0.226053
H34	H	1.089614	0.123349	-0.313135
H35	H	0.832132	0.346270	-0.313171
H36	H	1.648660	-0.112795	0.616513
H37	H	1.287086	0.429888	0.630521
Br38	Br	1.679574	-0.371423	-0.000007
Br39	Br	0.873618	0.044751	-0.360573
H40	H	1.658429	-0.119524	0.388960
H41	H	1.308842	-0.213836	-0.000017
Br42	Br	1.235073	0.488272	0.330429
Br43	Br	1.812469	0.067977	0.353617
H44	H	0.842371	0.230857	0.226026
H45	H	1.039327	0.349721	-0.323744
H46	H	1.760884	0.030485	0.610946
