data_functionalizedCrystal
_audit_creation_method	'MofGen! by Chris Wilmer'
_symmetry_space_group_name_H-M	'P1'
_symmetry_Int_Tables_number	1
_symmetry_cell_setting	triclinic
loop_
_symmetry_equiv_pos_as_xyz
  x,y,z
_cell_length_a	19.121242
_cell_length_b	19.121102
_cell_length_c	19.121063
_cell_angle_alpha	90.126902
_cell_angle_beta	85.049781
_cell_angle_gamma	94.784228
loop_
_atom_site_label
_atom_site_type_symbol
_atom_site_fract_x
_atom_site_fract_y
_atom_site_fract_z
Zn1	Zn	-0.457771	-1.078457	0.345224
Zn2	Zn	-0.124438	-0.745124	0.678557
Zn3	Zn	0.208895	-0.411791	1.011891
Zn4	Zn	-0.344690	-1.068767	0.457443
Zn5	Zn	-0.011357	-0.735434	0.790776
Zn6	Zn	0.321976	-0.402100	1.124109
Zn7	Zn	-0.334683	-0.956216	0.334774
Zn8	Zn	-0.001350	-0.622883	0.668107
Zn9	Zn	0.331984	-0.289550	1.001441
Zn10	Zn	-0.457299	-0.956163	0.457393
Zn11	Zn	-0.123966	-0.622830	0.790727
Zn12	Zn	0.209367	-0.289496	1.124060
O13	O	-0.398611	-1.014901	0.398709
O14	O	-0.065278	-0.681568	0.732042
O15	O	0.268056	-0.348234	1.065375
O16	O	-0.447156	-1.175455	0.364504
O17	O	-0.113823	-0.842122	0.697838
O18	O	0.219510	-0.508788	1.031171
O19	O	-0.244723	-1.049804	0.436818
O20	O	0.088611	-0.716470	0.770151
O21	O	0.421944	-0.383137	1.103484
O22	O	-0.347020	-0.976510	0.237880
O23	O	-0.013687	-0.643176	0.571213
O24	O	0.319646	-0.309843	0.904546
O25	O	-0.364076	-1.168336	0.446951
O26	O	-0.030743	-0.835002	0.780284
O27	O	0.302590	-0.501669	1.113617
O28	O	-0.437453	-1.066320	0.245557
O29	O	-0.104119	-0.732986	0.578891
O30	O	0.229214	-0.399653	0.912224
O31	O	-0.237370	-0.967113	0.346693
O32	O	0.095963	-0.633780	0.680027
O33	O	0.429296	-0.300447	1.013360
O34	O	-0.346563	-0.857926	0.346646
O35	O	-0.013230	-0.524593	0.679979
O36	O	0.320104	-0.191259	1.013312
O37	O	-0.556002	-0.976419	0.446867
O38	O	-0.222669	-0.643085	0.780200
O39	O	0.110665	-0.309752	1.113533
O40	O	-0.436649	-0.857887	0.436734
O41	O	-0.103315	-0.524553	0.770067
O42	O	0.230018	-0.191220	1.103400
O43	O	-0.556349	-1.066268	0.364456
O44	O	-0.223015	-0.732935	0.697790
O45	O	0.110318	-0.399601	1.031123
O46	O	-0.363619	-1.049752	0.555717
O47	O	-0.030285	-0.716419	0.889050
O48	O	0.303048	-0.383085	1.222383
O49	O	-0.446352	-0.967022	0.555681
O50	O	-0.113019	-0.633689	0.889014
O51	O	0.220314	-0.300356	1.222347
C52	C	-0.390469	-0.832423	0.390551
C53	C	-0.057136	-0.499089	0.723884
C54	C	0.276198	-0.165756	1.057217
C55	C	-0.387003	-0.754358	0.387079
C56	C	-0.053670	-0.421024	0.720412
C57	C	0.279663	-0.087691	1.053745
C58	C	-0.406036	-1.007350	0.581183
C59	C	-0.072703	-0.674016	0.914517
C60	C	0.260630	-0.340683	1.247850
C61	C	-0.409240	-1.004184	0.659251
C62	C	-0.075906	-0.670851	0.992584
C63	C	0.257427	-0.337518	1.325917
C64	C	-0.582467	-1.022418	0.406822
C65	C	-0.249133	-0.689085	0.740155
C66	C	0.084200	-0.355752	1.073488
C67	C	-0.660815	-1.025622	0.410279
C68	C	-0.327482	-0.692288	0.743612
C69	C	0.005851	-0.358955	1.076946
C70	C	-1.104133	-1.045937	0.432224
C71	C	-0.770800	-0.712604	0.765558
C72	C	-0.437466	-0.379271	1.098891
C73	C	-1.030516	-1.042917	0.428971
C74	C	-0.697182	-0.709584	0.762304
C75	C	-0.363849	-0.376250	1.095638
C76	C	-0.989887	-0.998359	0.380418
C77	C	-0.656554	-0.665026	0.713752
C78	C	-0.323220	-0.331692	1.047085
C79	C	-1.022879	-0.956813	0.335121
C80	C	-0.689546	-0.623480	0.668454
C81	C	-0.356212	-0.290146	1.001788
C82	C	-1.096495	-0.959830	0.338378
C83	C	-0.763162	-0.626497	0.671711
C84	C	-0.429828	-0.293163	1.005045
C85	C	-0.767423	-0.987093	0.368239
C86	C	-0.434090	-0.653759	0.701572
C87	C	-0.100756	-0.320426	1.034906
C88	C	-0.693802	-0.984081	0.364984
C89	C	-0.360469	-0.650747	0.698317
C90	C	-0.027136	-0.317414	1.031650
C91	C	-0.701444	-1.070184	0.458835
C92	C	-0.368111	-0.736851	0.792168
C93	C	-0.034778	-0.403517	1.125502
C94	C	-0.775061	-1.073200	0.462085
C95	C	-0.441728	-0.739867	0.795418
C96	C	-0.108395	-0.406533	1.128752
C97	C	-0.808047	-1.031652	0.416790
C98	C	-0.474714	-0.698318	0.750124
C99	C	-0.141380	-0.364985	1.083457
C100	C	-0.914638	-0.995272	0.377090
C101	C	-0.581305	-0.661939	0.710423
C102	C	-0.247972	-0.328606	1.043757
C103	C	-0.883294	-1.034735	0.420122
C104	C	-0.549961	-0.701401	0.753456
C105	C	-0.216628	-0.368068	1.086789
C106	C	-0.215470	-1.007455	0.390578
C107	C	0.117863	-0.674122	0.723911
C108	C	0.451196	-0.340789	1.057245
C109	C	-0.137120	-1.004396	0.386929
C110	C	0.196213	-0.671063	0.720262
C111	C	0.529546	-0.337729	1.053596
C112	C	-0.406785	-1.198092	0.406899
C113	C	-0.073452	-0.864758	0.740232
C114	C	0.259881	-0.531425	1.073565
C115	C	-0.410269	-1.276157	0.410389
C116	C	-0.076935	-0.942823	0.743722
C117	C	0.256398	-0.609490	1.077056
C118	C	-0.432210	-0.717675	0.432416
C119	C	-0.098876	-0.384341	0.765749
C120	C	0.234457	-0.051008	1.099083
C121	C	-0.428956	-0.644325	0.429144
C122	C	-0.095623	-0.310992	0.762478
C123	C	0.237710	0.022342	1.095811
C124	C	-0.380492	-0.607659	0.380538
C125	C	-0.047159	-0.274326	0.713871
C126	C	0.286174	0.059008	1.047205
C127	C	-0.335284	-0.644347	0.335196
C128	C	-0.001951	-0.311014	0.668529
C129	C	0.331383	0.022320	1.001863
C130	C	-0.338541	-0.717696	0.338465
C131	C	-0.005208	-0.384363	0.671798
C132	C	0.328125	-0.051029	1.005131
C133	C	-0.368317	-0.386194	0.368315
C134	C	-0.034984	-0.052860	0.701649
C135	C	0.298349	0.280473	1.034982
C136	C	-0.365062	-0.312840	0.365051
C137	C	-0.031729	0.020494	0.698385
C138	C	0.301605	0.353827	1.031718
C139	C	-0.458736	-0.312823	0.458999
C140	C	-0.125402	0.020511	0.792333
C141	C	0.207931	0.353844	1.125666
C142	C	-0.461986	-0.386173	0.462267
C143	C	-0.128653	-0.052839	0.795600
C144	C	0.204681	0.280494	1.128933
C145	C	-0.416780	-0.422854	0.416922
C146	C	-0.083447	-0.089521	0.750255
C147	C	0.249887	0.243812	1.083589
C148	C	-0.377164	-0.532683	0.377194
C149	C	-0.043831	-0.199350	0.710528
C150	C	0.289502	0.133983	1.043861
C151	C	-0.420112	-0.497829	0.420263
C152	C	-0.086779	-0.164496	0.753596
C153	C	0.246555	0.168838	1.086930
C154	C	-0.391173	-1.022502	0.215523
C155	C	-0.057839	-0.689168	0.548856
C156	C	0.275494	-0.355835	0.882190
C157	C	-0.388003	-1.025741	0.137460
C158	C	-0.054670	-0.692407	0.470793
C159	C	0.278664	-0.359074	0.804127
C160	C	-0.367708	-1.045806	0.695926
C161	C	-0.034375	-0.712473	1.029259
C162	C	0.298958	-0.379140	1.362592
C163	C	-0.370725	-1.042834	0.769279
C164	C	-0.037392	-0.709500	1.102612
C165	C	0.295941	-0.376167	1.435945
C166	C	-0.415270	-0.998235	0.805955
C167	C	-0.081937	-0.664901	1.139288
C168	C	0.251397	-0.331568	1.472622
C169	C	-0.456806	-0.956611	0.769275
C170	C	-0.123472	-0.623278	1.102608
C171	C	0.209861	-0.289944	1.435942
C172	C	-0.453792	-0.959588	0.695924
C173	C	-0.120459	-0.626254	1.029257
C174	C	0.212875	-0.292921	1.362590
C175	C	-0.426525	-0.987093	1.027429
C176	C	-0.093192	-0.653760	1.360762
C177	C	0.240141	-0.320427	1.694095
C178	C	-0.429534	-0.984118	1.100785
C179	C	-0.096201	-0.650785	1.434118
C180	C	0.237132	-0.317452	1.767452
C181	C	-0.343454	-1.070342	1.100784
C182	C	-0.010121	-0.737009	1.434117
C183	C	0.323212	-0.403676	1.767450
C184	C	-0.340442	-1.073312	1.027431
C185	C	-0.007108	-0.739979	1.360764
C186	C	0.326225	-0.406645	1.694097
C187	C	-0.381980	-1.031691	0.990757
C188	C	-0.048647	-0.698358	1.324091
C189	C	0.284687	-0.365024	1.657424
C190	C	-0.418353	-0.995194	0.880933
C191	C	-0.085020	-0.661860	1.214267
C192	C	0.248314	-0.328527	1.547600
C193	C	-0.378900	-1.034736	0.915781
C194	C	-0.045567	-0.701403	1.249114
C195	C	0.287766	-0.368070	1.582447
H196	H	-1.003661	-1.076736	0.465863
H197	H	-0.670328	-0.743402	0.799197
H198	H	-0.336995	-0.410069	1.132530
H199	H	-1.137208	-1.082225	0.471758
H200	H	-0.803875	-0.748891	0.805091
H201	H	-0.470541	-0.415558	1.138425
O202	O	-0.477652	-0.604688	0.478042
O203	O	-0.144319	-0.271354	0.811375
O204	O	0.189015	0.061979	1.144708
H205	H	-0.445937	-0.568504	0.510782
H206	H	-0.112604	-0.235171	0.844116
H207	H	0.220730	0.098163	1.177449
H208	H	-0.881550	-0.958994	0.337558
H209	H	-0.548217	-0.625660	0.670891
H210	H	-0.214883	-0.292327	1.004224
O211	O	-0.979057	-0.908755	0.282753
O212	O	-0.645724	-0.575421	0.616086
O213	O	-0.312391	-0.242088	0.949420
H214	H	-1.014366	-0.880371	0.251807
H215	H	-0.681032	-0.547037	0.585141
H216	H	-0.347699	-0.213704	0.918474
H217	H	-0.325601	-0.282989	0.325463
H218	H	0.007732	0.050345	0.658796
H219	H	0.341066	0.383678	0.992129
H220	H	-0.674579	-1.104010	0.495712
H221	H	-0.341246	-0.770676	0.829046
H222	H	-0.007913	-0.437343	1.162379
O223	O	-0.472386	-0.537380	0.472678
O224	O	-0.139053	-0.204047	0.806012
O225	O	0.194280	0.129287	1.139345
H226	H	-0.461831	-0.520530	0.526620
H227	H	-0.128498	-0.187197	0.859953
H228	H	0.204835	0.146137	1.193287
O229	O	-1.132080	-0.915040	0.289512
O230	O	-0.798747	-0.581706	0.622846
O231	O	-0.465414	-0.248373	0.956179
H232	H	-1.165302	-0.879370	0.320823
H233	H	-0.831969	-0.546037	0.654156
H234	H	-0.498635	-0.212703	0.987490
H235	H	-0.331432	-1.082120	0.666068
H236	H	0.001901	-0.748787	0.999402
H237	H	0.335235	-0.415454	1.332735
H238	H	-0.501449	-0.416021	0.501848
H239	H	-0.168115	-0.082688	0.835182
H240	H	0.165218	0.250646	1.168515
H241	H	-0.660724	-0.947797	0.325441
H242	H	-0.327390	-0.614464	0.658775
H243	H	0.005943	-0.281130	0.992108
H244	H	-0.454620	-0.958880	0.910803
H245	H	-0.121287	-0.625546	1.244136
H246	H	0.212047	-0.292213	1.577470
H247	H	-0.471672	-0.747523	0.471999
H248	H	-0.138339	-0.414190	0.805332
H249	H	0.194995	-0.080856	1.138665
H250	H	-0.916377	-1.071012	0.459655
H251	H	-0.583044	-0.737679	0.792988
H252	H	-0.249711	-0.404345	1.126322
O253	O	-0.289776	-0.757258	0.289566
O254	O	0.043558	-0.423924	0.622899
O255	O	0.376891	-0.090591	0.956232
H256	H	-0.321414	-0.793444	0.256760
H257	H	0.011919	-0.460111	0.590093
H258	H	0.345253	-0.126778	0.923427
H259	H	-0.808137	-1.109484	0.501622
H260	H	-0.474803	-0.776150	0.834956
H261	H	-0.141470	-0.442817	1.168289
H262	H	-0.794271	-0.953260	0.331358
H263	H	-0.460938	-0.619926	0.664691
H264	H	-0.127604	-0.286593	0.998024
O265	O	-0.507456	-0.273231	0.507915
O266	O	-0.174123	0.060102	0.841248
O267	O	0.159210	0.393436	1.174581
H268	H	-0.498111	-0.284529	0.563099
H269	H	-0.164778	0.048805	0.896432
H270	H	0.168555	0.382138	1.229765
O271	O	-0.324889	-0.493120	0.324785
O272	O	0.008445	-0.159787	0.658118
O273	O	0.341778	0.173547	0.991452
H274	H	-0.335442	-0.509959	0.270840
H275	H	-0.002108	-0.176626	0.604173
H276	H	0.331225	0.156707	0.937506
O277	O	-0.325927	-1.087721	0.808838
O278	O	0.007406	-0.754388	1.142171
O279	O	0.340740	-0.421055	1.475504
H280	H	-0.294439	-1.119226	0.771011
H281	H	0.038895	-0.785892	1.104344
H282	H	0.372228	-0.452559	1.437677
H283	H	-0.331502	-0.416051	0.331398
H284	H	0.001831	-0.082717	0.664731
H285	H	0.335164	0.250616	0.998064
H286	H	-0.304170	-1.109628	0.997570
H287	H	0.029164	-0.776295	1.330904
H288	H	0.362497	-0.442961	1.664237
H289	H	-0.295827	-0.614488	0.295617
H290	H	0.037507	-0.281155	0.628950
H291	H	0.370840	0.052179	0.962283
H292	H	-0.309637	-1.104229	1.130651
H293	H	0.023696	-0.770896	1.463984
H294	H	0.357030	-0.437562	1.797318
H295	H	-0.465821	-0.947809	1.130646
H296	H	-0.132487	-0.614476	1.463979
H297	H	0.200846	-0.281143	1.797312
H298	H	-0.460346	-0.953203	0.997575
H299	H	-0.127013	-0.619869	1.330908
H300	H	0.206320	-0.286536	1.664242
O301	O	-0.504844	-0.908498	0.808827
O302	O	-0.171511	-0.575164	1.142160
O303	O	0.161823	-0.241831	1.475494
H304	H	-0.499955	-0.913411	0.865994
H305	H	-0.166621	-0.580077	1.199327
H306	H	0.166712	-0.246744	1.532661
O307	O	-0.498577	-0.914688	0.656361
O308	O	-0.165244	-0.581354	0.989694
O309	O	0.168089	-0.248021	1.323027
H310	H	-0.530051	-0.883168	0.694185
H311	H	-0.196718	-0.549834	1.027518
H312	H	0.136615	-0.216501	1.360852
O313	O	-0.330868	-1.082848	0.876224
O314	O	0.002465	-0.749515	1.209557
O315	O	0.335799	-0.416181	1.542891
H316	H	-0.292207	-1.051331	0.839859
H317	H	0.041126	-0.717998	1.173192
H318	H	0.374459	-0.384665	1.506525
