data_functionalizedCrystal
_audit_creation_method	'MofGen! by Chris Wilmer'
_symmetry_space_group_name_H-M	'P1'
_symmetry_Int_Tables_number	1
_symmetry_cell_setting	triclinic
loop_
_symmetry_equiv_pos_as_xyz
  x,y,z
_cell_length_a	13.635800
_cell_length_b	20.560215
_cell_length_c	17.982968
_cell_angle_alpha	91.077294
_cell_angle_beta	77.548040
_cell_angle_gamma	58.657912
loop_
_atom_site_label
_atom_site_type_symbol
_atom_site_fract_x
_atom_site_fract_y
_atom_site_fract_z
V1	V	2.058022	-0.106127	-0.237867
O2	O	1.999334	0.004365	-0.233013
O3	O	2.083098	-0.209725	-0.236553
O4	O	2.030653	-0.104816	-0.341466
O5	O	2.052142	-0.101269	-0.127374
V6	V	2.293862	-0.092872	-0.224613
O7	O	2.201641	-0.135201	-0.266940
O8	O	2.375342	-0.063798	-0.195540
O9	O	2.157184	0.010726	-0.225927
O10	O	2.411248	-0.203364	-0.229466
O11	O	2.358441	-0.097730	-0.335106
O12	O	2.209628	-0.094183	-0.121014
V13	V	2.558022	-0.106127	-0.237867
O14	O	2.499334	0.004365	-0.233013
O15	O	2.583098	-0.209725	-0.236553
O16	O	2.530653	-0.104816	-0.341466
O17	O	2.552142	-0.101269	-0.127374
V18	V	2.793862	-0.092872	-0.224613
O19	O	2.701641	-0.135201	-0.266940
O20	O	2.875342	-0.063798	-0.195540
O21	O	2.657184	0.010726	-0.225927
O22	O	2.911248	-0.203364	-0.229466
O23	O	2.858441	-0.097730	-0.335106
O24	O	2.709628	-0.094183	-0.121014
C25	C	2.054266	0.035967	-0.229596
C26	C	1.982762	0.120661	-0.229985
C27	C	2.033725	0.164331	-0.226349
C28	C	1.966546	0.243912	-0.226702
C29	C	1.848407	0.279822	-0.230696
C30	C	1.797441	0.236147	-0.234330
C31	C	1.864616	0.156568	-0.233972
C32	C	2.017688	-0.234970	-0.232881
C33	C	2.078812	-0.319665	-0.232498
C34	C	2.083844	-0.348365	-0.162514
C35	C	2.141287	-0.427945	-0.162156
C36	C	2.193689	-0.478825	-0.231782
C37	C	2.188658	-0.450120	-0.301772
C38	C	2.131224	-0.370541	-0.302129
C39	C	2.420288	-0.771054	-0.300333
C40	C	2.477722	-0.850638	-0.299970
C41	C	2.430351	-0.828458	-0.160359
C42	C	2.372916	-0.748879	-0.160716
C43	C	2.367895	-0.720182	-0.230705
C44	C	2.305611	-0.633891	-0.231093
C45	C	2.255966	-0.565113	-0.231396
C46	C	1.950788	-0.101148	-0.366707
C47	C	1.969379	-0.100762	-0.451402
C48	C	2.554266	0.035967	-0.229596
C49	C	2.482762	0.120661	-0.229985
C50	C	2.070888	-0.104398	-0.495085
C51	C	2.088350	-0.104036	-0.574664
C52	C	2.004304	-0.100041	-0.610561
C53	C	1.902784	-0.096402	-0.566872
C54	C	1.885320	-0.096760	-0.487293
C55	C	1.973211	-0.094959	-0.887805
C56	C	1.990685	-0.094604	-0.967390
C57	C	2.176241	-0.102235	-0.975176
C58	C	2.158777	-0.102593	-0.895597
C59	C	2.057256	-0.098949	-0.851915
C60	C	2.038323	-0.099342	-0.765625
C61	C	2.023240	-0.099655	-0.696849
C62	C	2.121165	-0.097854	-0.095769
C63	C	2.092192	-0.098236	-0.011073
C64	C	2.517688	-0.234970	-0.232881
C65	C	2.578812	-0.319665	-0.232498
C66	C	2.450788	-0.101148	-0.366707
C67	C	2.469379	-0.100762	-0.451402
C68	C	2.621165	-0.097854	-0.095769
C69	C	2.592192	-0.098236	-0.011073
C70	C	2.700342	-0.363335	-0.236136
C71	C	2.757793	-0.442917	-0.235787
C72	C	2.693710	-0.478827	-0.231795
C73	C	2.572169	-0.435152	-0.228158
C74	C	2.514722	-0.355572	-0.228513
C75	C	2.570890	-0.104391	-0.495071
C76	C	2.588364	-0.104019	-0.574650
C77	C	2.504329	-0.100022	-0.610559
C78	C	2.402808	-0.096391	-0.566884
C79	C	2.385331	-0.096758	-0.487306
C80	C	2.493992	-0.102223	0.024817
C81	C	2.466747	-0.102573	0.104399
C82	C	2.537709	-0.098941	0.148088
C83	C	2.635916	-0.094951	0.112193
C84	C	2.663154	-0.094595	0.032614
H85	H	2.129919	0.135104	-0.223097
H86	H	2.415761	-0.320020	-0.225546
H87	H	2.515525	-0.099240	0.212884
O88	O	2.016269	0.286208	-0.223207
C89	C	2.191090	0.285497	-0.215574
C90	C	2.134933	0.237506	-0.219546
H91	H	2.287029	0.246144	-0.212597
H92	H	2.189602	0.314416	-0.269152
H93	H	2.138170	0.331476	-0.161973
H94	H	2.187808	0.191489	-0.273114
H95	H	2.136403	0.208642	-0.165931
H96	H	1.793721	0.344621	-0.230986
O97	O	2.758621	-0.090837	-0.002350
C98	C	2.947249	-0.152395	-0.098161
C99	C	2.839187	-0.156739	-0.058648
H100	H	3.012427	-0.205677	-0.143675
H101	H	2.916132	-0.098484	-0.126773
H102	H	2.993228	-0.149826	-0.053241
H103	H	2.793161	-0.159337	-0.103520
H104	H	2.870377	-0.210642	-0.030020
H105	H	1.701243	0.265397	-0.237581
H106	H	2.856757	-0.478467	-0.238746
O107	O	1.815093	0.114139	-0.237375
C108	C	1.761079	0.030292	-0.175093
C109	C	1.817178	0.078320	-0.171132
H110	H	1.762768	0.001307	-0.121550
H111	H	1.665074	0.069606	-0.177963
H112	H	1.813944	-0.015638	-0.228735
H113	H	1.764406	0.124254	-0.117495
H114	H	1.913192	0.038956	-0.168304
O115	O	2.146145	-0.455921	-0.094223
C116	C	2.095308	-0.529197	-0.009149
C117	C	2.089723	-0.497569	-0.086112
H118	H	2.049675	-0.562862	-0.002560
H119	H	2.192267	-0.568925	-0.008428
H120	H	2.048042	-0.479162	0.040547
H121	H	2.136928	-0.547554	-0.135852
H122	H	1.992740	-0.457818	-0.086766
O123	O	2.652595	-0.108404	-0.460183
C124	C	2.790930	-0.179550	-0.385359
C125	C	2.698442	-0.175115	-0.424844
H126	H	2.828005	-0.233473	-0.356763
H127	H	2.866545	-0.182127	-0.430224
H128	H	2.746639	-0.126294	-0.339810
H129	H	2.742626	-0.228359	-0.470389
H130	H	2.622836	-0.172501	-0.379934
H131	H	2.139335	-0.107656	-0.465865
H132	H	2.520391	-0.892063	-0.356672
H133	H	2.258903	-0.105199	-1.010752
O134	O	2.321331	-0.092552	-0.601901
C135	C	2.266030	-0.088582	-0.721061
C136	C	2.358402	-0.092941	-0.681503
H137	H	2.295956	-0.088878	-0.785423
H138	H	2.257580	-0.140381	-0.712080
H139	H	2.176114	-0.033197	-0.694949
H140	H	2.448368	-0.148293	-0.707590
H141	H	2.366748	-0.041104	-0.690480
O142	O	2.322120	-0.699564	-0.093013
C143	C	2.281144	-0.685963	0.045507
C144	C	2.338737	-0.741897	-0.031112
H145	H	2.294536	-0.720165	0.095575
H146	H	2.324343	-0.651153	0.045952
H147	H	2.181829	-0.645151	0.051715
H148	H	2.438050	-0.782756	-0.037370
H149	H	2.295445	-0.776652	-0.031523
H150	H	2.693685	-0.091991	0.147777
H151	H	1.834350	-0.093146	-0.596104
H152	H	2.041170	-0.306943	-0.105815
H153	H	2.302670	-0.093804	-0.451757
O154	O	2.435397	-0.856467	-0.092440
C155	C	2.502830	-0.969228	-0.030003
C156	C	2.497229	-0.937616	-0.106974
H157	H	2.552796	-1.034839	-0.041726
H158	H	2.551164	-0.951151	0.001432
H159	H	2.408585	-0.945084	0.007277
H160	H	2.591429	-0.961744	-0.144313
H161	H	2.448831	-0.955685	-0.138349
H162	H	2.436197	-0.105181	-0.010745
H163	H	2.416193	-0.747698	-0.357321
H164	H	2.386778	-0.105822	0.133612
H165	H	1.890570	-0.092020	-0.852252
H166	H	2.127140	-0.347176	-0.359118
O167	O	2.239578	-0.499647	-0.369337
C168	C	2.349107	-0.632073	-0.430666
C169	C	2.291472	-0.576071	-0.354091
H170	H	2.391100	-0.693874	-0.418368
H171	H	2.278263	-0.618963	-0.462242
H172	H	2.420701	-0.624835	-0.468088
H173	H	2.219888	-0.583278	-0.316610
H174	H	2.362385	-0.589196	-0.322575
H175	H	1.802647	-0.093780	-0.451724
O176	O	2.762794	-0.328588	-0.240050
C177	C	2.952973	-0.344707	-0.247537
C178	C	2.882383	-0.384150	-0.243122
H179	H	3.049667	-0.389608	-0.250006
H180	H	2.948994	-0.316180	-0.301500
H181	H	2.912483	-0.299115	-0.194311
H182	H	2.922821	-0.429775	-0.296309
H183	H	2.886358	-0.412626	-0.189125
O184	O	2.749687	-0.556153	-0.231554
C185	C	2.905531	-0.683020	-0.299494
C186	C	2.842254	-0.595468	-0.299860
H187	H	2.980368	-0.714832	-0.354720
H188	H	2.944174	-0.697876	-0.247533
H189	H	2.838828	-0.701168	-0.295976
H190	H	2.908884	-0.577258	-0.303403
H191	H	2.803588	-0.580661	-0.351813
H192	H	2.520004	-0.464402	-0.224908
H193	H	2.671036	-0.106979	-0.610199
H194	H	2.171004	-0.106992	-0.610227
H195	H	1.922238	-0.091350	-0.996613
H196	H	2.227220	-0.105849	-0.866375
H197	H	2.518575	-0.099725	-0.675358
