data_functionalizedCrystal
_audit_creation_method	'MofGen! by Chris Wilmer'
_symmetry_space_group_name_H-M	'P1'
_symmetry_Int_Tables_number	1
_symmetry_cell_setting	triclinic
loop_
_symmetry_equiv_pos_as_xyz
  x,y,z
_cell_length_a	9.482900
_cell_length_b	16.992694
_cell_length_c	16.992695
_cell_angle_alpha	89.331777
_cell_angle_beta	99.973796
_cell_angle_gamma	99.926526
loop_
_atom_site_label
_atom_site_type_symbol
_atom_site_fract_x
_atom_site_fract_y
_atom_site_fract_z
O1	O	-0.120712	-1.062330	0.155377
O2	O	0.379288	-0.562330	0.655377
O3	O	-0.120755	-0.833934	0.153542
O4	O	0.379245	-0.333934	0.653542
O5	O	-0.120722	-0.947215	0.040261
O6	O	0.379278	-0.447215	0.540261
O7	O	-0.120745	-0.949049	0.268659
O8	O	0.379255	-0.449049	0.768659
O9	O	0.121064	-0.924211	0.063369
O10	O	0.621064	-0.424211	0.563369
O11	O	0.121031	-0.810930	0.176651
O12	O	0.621031	-0.310930	0.676651
O13	O	0.121074	-1.039326	0.178486
O14	O	0.621074	-0.539326	0.678486
Cu15	Cu	0.143129	-0.923028	0.179678
Cu16	Cu	0.643129	-0.423028	0.679678
Cu17	Cu	-0.142810	-0.950232	0.152350
Cu18	Cu	0.357190	-0.450232	0.652350
O19	O	0.121041	-0.926045	0.291767
O20	O	0.621041	-0.426045	0.791767
C21	C	0.000133	-0.793072	0.162740
C22	C	0.500133	-0.293072	0.662740
C23	C	0.000117	-0.705589	0.155710
C24	C	0.500117	-0.205589	0.655710
N25	N	0.344244	-0.903899	0.198900
N26	N	0.844244	-0.403899	0.698900
N27	N	-0.343925	-0.969367	0.133123
N28	N	0.156075	-0.469367	0.633123
C29	C	0.416455	-0.944585	0.158015
C30	C	0.916455	-0.444585	0.658015
C31	C	0.583868	-0.928675	0.174014
C32	C	1.083868	-0.428675	0.674014
C33	C	0.000170	-0.933358	0.022455
C34	C	0.500170	-0.433358	0.522455
C35	C	0.000169	-0.926329	-0.065030
C36	C	0.500169	-0.426329	0.434970
C37	C	0.000183	-1.080188	0.169288
C38	C	0.500183	-0.580188	0.669288
C39	C	0.000190	-1.167672	0.176317
C40	C	0.500190	-0.667672	0.676317
C41	C	0.000111	-0.659599	0.223527
C42	C	0.500111	-0.159599	0.723527
C43	C	0.000132	-0.577396	0.216920
C44	C	0.500132	-0.077396	0.716920
C45	C	0.000148	-0.541186	0.142494
C46	C	0.500148	-0.041186	0.642494
C47	C	0.000158	-0.587183	0.074672
C48	C	0.500158	-0.087183	0.574672
C49	C	0.000147	-0.669383	0.081281
C50	C	0.500147	-0.169383	0.581281
C51	C	0.000189	-0.295868	0.115104
C52	C	0.500189	0.204132	0.615104
C53	C	0.000195	-0.213662	0.108500
C54	C	0.500195	0.286338	0.608500
C55	C	0.000172	-0.203881	0.250749
C56	C	0.500172	0.296119	0.750749
C57	C	0.000153	-0.286085	0.257350
C58	C	0.500153	0.213915	0.757350
C59	C	0.000171	-0.332073	0.189529
C60	C	0.500171	0.167927	0.689529
N61	N	0.000164	-0.457163	0.135739
N62	N	0.500164	0.042837	0.635739
N63	N	0.000164	-0.416094	0.196286
N64	N	0.500164	0.083906	0.696286
C65	C	0.000183	-0.994146	-0.111019
C66	C	0.500183	-0.494146	0.388981
C67	C	0.000168	-0.987538	-0.193222
C68	C	0.500168	-0.487538	0.306778
C69	C	0.000149	-0.913112	-0.229432
C70	C	0.500149	-0.413112	0.270568
C71	C	0.000130	-0.845291	-0.183436
C72	C	0.500130	-0.345291	0.316564
C73	C	0.000135	-0.851900	-0.101237
C74	C	0.500135	-0.351900	0.398763
C75	C	0.000124	-0.885720	-0.474748
C76	C	0.500124	-0.385720	0.025252
C77	C	0.000124	-0.879116	-0.556954
C78	C	0.500124	-0.379116	-0.056954
C79	C	0.000158	-1.021364	-0.566733
C80	C	0.500158	-0.521364	-0.066733
C81	C	0.000172	-1.027966	-0.484531
C82	C	0.500172	-0.527966	0.015469
C83	C	0.000145	-0.960145	-0.438544
C84	C	0.500145	-0.460145	0.061456
N85	N	0.000138	-0.906356	-0.313455
N86	N	0.500138	-0.406356	0.186545
N87	N	0.000146	-0.966903	-0.354523
N88	N	0.500146	-0.466903	0.145477
C89	C	0.000146	-0.939903	0.309573
C90	C	0.500146	-0.439903	0.809573
C91	C	0.000138	-0.946932	0.397057
C92	C	0.500138	-0.446932	0.897057
H93	H	0.645979	-0.882059	0.220861
H94	H	1.145979	-0.382059	0.720861
H95	H	0.000161	-0.166429	0.305965
H96	H	0.500161	0.333571	0.805965
O97	O	0.000211	-0.345462	0.041955
O98	O	0.500211	0.154538	0.541955
H99	H	-0.098335	-0.341404	-0.002837
H100	H	0.401665	0.158596	0.497163
H101	H	0.593964	-1.015977	0.086269
H102	H	1.093964	-0.515977	0.586269
H103	H	0.000207	-0.184184	0.047890
H104	H	0.500207	0.315816	0.547890
H105	H	0.000177	-1.076579	-0.604185
H106	H	0.500177	-0.576579	-0.104185
H107	H	0.000191	-0.557692	0.014075
H108	H	0.500191	-0.057692	0.514075
H109	H	0.000126	-0.539954	0.272145
H110	H	0.500126	-0.039954	0.772145
O111	O	0.000173	-0.325137	0.337627
O112	O	0.500173	0.174863	0.837627
H113	H	0.000195	-0.279344	0.383679
H114	H	0.500195	0.220656	0.883679
O115	O	0.000149	-0.718993	0.008136
O116	O	0.500149	-0.218993	0.508136
H117	H	0.000149	-0.680008	-0.044730
H118	H	0.500149	-0.180008	0.455270
H119	H	0.000132	-0.818504	-0.586431
H120	H	0.500132	-0.318504	-0.086431
H121	H	0.354340	-0.991192	0.111164
H122	H	0.854340	-0.491192	0.611164
H123	H	0.000207	-1.054750	-0.081543
H124	H	0.500207	-0.554750	0.418457
O125	O	0.426505	-0.842159	0.260960
O126	O	0.926505	-0.342159	0.760960
H127	H	0.545089	-0.839357	0.263793
H128	H	1.045089	-0.339357	0.763793
O129	O	0.000108	-0.698652	0.303803
O130	O	0.500108	-0.198652	0.803803
H131	H	0.000127	-0.652856	0.349852
H132	H	0.500127	-0.152856	0.849852
O133	O	0.000207	-1.060680	-0.242825
O134	O	0.500207	-0.560680	0.257175
H135	H	0.000248	-1.113540	-0.203834
H136	H	0.500248	-0.613540	0.296166
H137	H	0.000106	-0.784693	-0.212926
H138	H	0.500106	-0.284693	0.287074
O139	O	0.000157	-1.108242	-0.445478
O140	O	0.500157	-0.608242	0.054522
H141	H	0.000142	-1.154293	-0.491271
H142	H	0.500142	-0.654293	0.008729
H143	H	0.000103	-0.830495	-0.437315
H144	H	0.500103	-0.330495	0.062685
H145	H	0.000123	-0.796677	-0.063793
H146	H	0.500123	-0.296677	0.436207
