data_functionalizedCrystal
_audit_creation_method	'MofGen! by Chris Wilmer'
_symmetry_space_group_name_H-M	'P1'
_symmetry_Int_Tables_number	1
_symmetry_cell_setting	triclinic
loop_
_symmetry_equiv_pos_as_xyz
  x,y,z
_cell_length_a	12.759401
_cell_length_b	17.637651
_cell_length_c	12.759393
_cell_angle_alpha	78.751097
_cell_angle_beta	89.980198
_cell_angle_gamma	101.218439
loop_
_atom_site_label
_atom_site_type_symbol
_atom_site_fract_x
_atom_site_fract_y
_atom_site_fract_z
Zn1	Zn	1.521692	-0.314748	-0.509309
Zn2	Zn	1.486051	-0.446983	-0.298053
Zn3	Zn	1.345981	-0.314785	-0.333638
Zn4	Zn	1.310467	-0.446923	-0.473710
O5	O	1.416048	-0.380860	-0.403677
O6	O	1.663982	-0.332300	-0.481291
O7	O	1.467417	-0.429488	-0.155741
O8	O	1.399068	-0.204139	-0.386732
O9	O	1.637797	-0.429452	-0.326082
O10	O	1.528162	-0.204112	-0.515797
O11	O	1.364508	-0.332362	-0.181885
O12	O	1.194252	-0.332303	-0.352213
O13	O	1.338539	-0.429349	-0.625464
O14	O	1.168159	-0.429384	-0.455123
O15	O	1.493726	-0.332241	-0.651619
O16	O	1.432980	-0.557616	-0.291563
O17	O	1.303980	-0.557572	-0.420618
C18	C	1.143085	-0.380841	-0.403667
C19	C	1.026306	-0.380853	-0.403682
C20	C	0.875312	-0.330375	-0.484581
C21	C	0.985041	-0.330359	-0.484578
C22	C	0.957834	-0.431370	-0.322790
C23	C	0.848107	-0.431389	-0.322798
C24	C	1.360787	-0.586282	-0.348389
C25	C	1.337243	-0.674163	-0.324771
C26	C	1.595595	-0.962826	-0.583428
C27	C	1.573438	-1.045403	-0.561217
C28	C	1.439102	-1.045539	-0.426692
C29	C	1.461251	-0.962960	-0.448888
C30	C	1.539498	-0.921610	-0.527257
C31	C	1.405154	-0.921744	-0.392717
C32	C	1.427298	-0.839172	-0.414915
C33	C	1.505540	-0.797817	-0.493284
C34	C	1.561642	-0.839039	-0.549455
C35	C	1.326903	-0.963095	-0.314353
C36	C	1.270806	-0.921879	-0.258183
C37	C	1.292955	-0.839306	-0.280375
C38	C	1.371196	-0.797950	-0.358744
C39	C	1.236852	-0.798084	-0.224204
C40	C	1.258996	-0.715512	-0.246402
C41	C	1.393340	-0.715379	-0.380942
C42	C	1.690076	-0.380879	-0.403688
C43	C	1.806850	-0.380887	-0.403693
C44	C	1.416147	-0.380784	-0.677731
C45	C	1.416189	-0.380752	-0.794517
C46	C	1.471552	-0.174635	-0.459205
C47	C	1.495205	-0.086755	-0.482867
C48	C	1.497001	-0.330179	-0.863001
C49	C	1.497028	-0.330145	-0.972734
C50	C	1.335425	-0.431262	-0.945487
C51	C	1.335395	-0.431292	-0.835757
C52	C	1.416025	-0.380878	-0.130705
C53	C	1.416246	-0.380688	-0.013980
H54	H	0.841725	-0.289253	-0.550451
O55	O	1.584181	-0.275594	-1.046608
H56	H	1.628114	-0.310967	-1.087096
O57	O	1.248205	-0.485817	-0.761885
H58	H	1.192029	-0.520956	-0.808995
H59	H	1.269648	-0.472412	-0.979079
H60	H	1.625367	-0.805370	-0.613264
O61	O	1.058888	-0.275871	-0.571812
H62	H	1.011762	-0.240754	-0.628054
O63	O	1.529433	-0.708756	-0.517221
H64	H	1.513999	-0.686950	-0.602304
H65	H	0.991440	-0.472486	-0.256926
O66	O	1.679994	-0.918216	-0.667952
H67	H	1.715284	-0.960747	-0.703287
O68	O	1.633943	-1.089866	-0.621801
H69	H	1.720668	-1.073996	-0.608119
O70	O	0.774254	-0.485867	-0.235545
H71	H	0.821378	-0.520970	-0.179281
O72	O	1.477742	-0.670768	-0.465461
H73	H	1.455443	-0.686572	-0.543657
H74	H	1.375391	-1.079217	-0.362886
H75	H	1.308866	-1.030330	-0.296292
O76	O	1.186429	-0.966478	-0.173642
H77	H	1.180463	-1.030820	-0.167632
O78	O	1.198503	-0.671051	-0.185811
H79	H	1.111776	-0.686932	-0.199474
O80	O	1.152468	-0.842684	-0.139670
H81	H	1.146500	-0.907026	-0.133666
H82	H	1.562787	-0.289024	-0.829428
