data_functionalizedCrystal
_audit_creation_method	'MofGen! by Chris Wilmer'
_symmetry_space_group_name_H-M	'P1'
_symmetry_Int_Tables_number	1
_symmetry_cell_setting	triclinic
loop_
_symmetry_equiv_pos_as_xyz
  x,y,z
_cell_length_a	21.395364
_cell_length_b	12.827892
_cell_length_c	21.395355
_cell_angle_alpha	90.013329
_cell_angle_beta	90.024552
_cell_angle_gamma	90.030153
loop_
_atom_site_label
_atom_site_type_symbol
_atom_site_fract_x
_atom_site_fract_y
_atom_site_fract_z
Zn1	Zn	0.957927	-0.415737	0.354284
Zn2	Zn	0.957858	-0.590464	0.249516
Zn3	Zn	0.853142	-0.415783	0.249521
Zn4	Zn	0.853139	-0.590482	0.354256
O5	O	0.905516	-0.503117	0.301894
O6	O	1.045595	-0.438888	0.340396
O7	O	0.943939	-0.567303	0.161839
O8	O	0.867072	-0.269541	0.263431
O9	O	1.045545	-0.567259	0.263423
O10	O	0.944057	-0.269507	0.340401
O11	O	0.867005	-0.438966	0.161842
O12	O	0.765463	-0.438984	0.263405
O13	O	0.867067	-0.567291	0.441938
O14	O	0.765462	-0.567335	0.340353
O15	O	0.944054	-0.438906	0.441958
O16	O	0.943936	-0.736702	0.263397
O17	O	0.867000	-0.736716	0.340349
C18	C	0.742729	-0.503167	0.301877
C19	C	0.673087	-0.503214	0.301884
C20	C	0.640423	-0.436481	0.342026
C21	C	0.574988	-0.436453	0.342028
C22	C	0.542219	-0.503177	0.301895
C23	C	0.574891	-0.569915	0.261746
C24	C	0.640325	-0.569934	0.261740
C25	C	0.438510	-0.597287	0.296863
C26	C	0.373077	-0.597270	0.296873
C27	C	0.340398	-0.503120	0.301909
C28	C	0.373161	-0.408983	0.306949
C29	C	0.438595	-0.409002	0.306943
C30	C	0.471267	-0.503164	0.301897
C31	C	0.236782	-0.436351	0.342056
C32	C	0.171345	-0.436321	0.342054
C33	C	0.171250	-0.569793	0.261775
C34	C	0.236685	-0.569813	0.261774
C35	C	0.269447	-0.503093	0.301917
C36	C	0.905478	-0.774627	0.301883
C37	C	0.905518	-0.890780	0.301899
C38	C	0.867439	-0.942606	0.339949
C39	C	0.867480	-1.062656	0.339967
C40	C	1.068940	-0.503066	0.301912
C41	C	1.138581	-0.503045	0.301920
C42	C	0.905568	-0.503095	0.465318
C43	C	0.905590	-0.503086	0.534959
C44	C	0.905572	-0.230546	0.301920
C45	C	0.905596	-0.114393	0.301930
C46	C	0.905501	-0.503062	0.139107
C47	C	0.905600	-0.502777	0.069466
C48	C	0.945676	-0.436234	0.567684
C49	C	0.945675	-0.436189	0.633119
C50	C	0.905595	-0.503015	0.665827
C51	C	0.865502	-0.569873	0.633095
C52	C	0.865500	-0.569908	0.567660
C53	C	0.900635	-0.597111	0.769498
C54	C	0.900641	-0.597077	0.834931
C55	C	0.905599	-0.502905	0.867648
C56	C	0.910563	-0.408763	0.834924
C57	C	0.910561	-0.408799	0.769490
C58	C	0.905593	-0.502984	0.736780
C59	C	0.945686	-0.435998	0.971326
C60	C	0.945681	-0.435951	1.036762
C61	C	0.865511	-0.569644	1.036736
C62	C	0.865513	-0.569681	0.971301
C63	C	0.905604	-0.502860	0.938600
H64	H	0.465267	-0.332353	0.311044
H65	H	0.834804	-0.898102	0.372511
C66	C	0.949642	-1.054192	0.257917
N67	N	0.982816	-1.008841	0.224766
H68	H	0.978316	-0.381744	0.659769
H69	H	0.832875	-0.624127	0.944656
H70	H	0.666920	-0.624278	0.229051
H71	H	0.938148	-0.935286	0.269334
H72	H	0.832867	-0.624280	0.659730
C73	C	0.337219	-0.305408	0.312483
N74	N	0.310145	-0.227399	0.316651
H75	H	0.978320	-0.381821	0.541062
H76	H	0.263281	-0.624159	0.229089
H77	H	0.346407	-0.673922	0.292773
H78	H	0.667094	-0.382152	0.374713
C79	C	0.539050	-0.363045	0.386192
N80	N	0.511983	-0.307756	0.419459
H81	H	0.914601	-0.332079	0.861561
C82	C	0.823435	-1.122863	0.383977
N83	N	0.790258	-1.168215	0.417125
C84	C	0.135208	-0.643190	0.217628
N85	N	0.108058	-0.698473	0.184374
H86	H	0.263458	-0.382017	0.374739
H87	H	0.832855	-0.624346	0.541016
C88	C	0.916012	-0.305244	0.733496
N89	N	0.920115	-0.227245	0.706386
C90	C	0.989780	-0.362484	0.935352
N91	N	1.022992	-0.307111	0.908258
H92	H	0.896430	-0.673778	0.742865
C93	C	0.135414	-0.362904	0.386214
N94	N	0.108351	-0.307606	0.419478
C95	C	0.989779	-0.362402	1.072759
N96	N	1.022995	-0.307004	1.099873
C97	C	0.821423	-0.643155	1.072712
N98	N	0.788215	-0.698525	1.099811
H99	H	0.465112	-0.673961	0.292761
H100	H	0.548207	-0.624242	0.229069
C101	C	0.895181	-0.700634	0.870921
N102	N	0.891066	-0.778636	0.898027
