data_functionalizedCrystal
_audit_creation_method	'MofGen! by Chris Wilmer'
_symmetry_space_group_name_H-M	'P1'
_symmetry_Int_Tables_number	1
_symmetry_cell_setting	triclinic
loop_
_symmetry_equiv_pos_as_xyz
  x,y,z
_cell_length_a	29.839134
_cell_length_b	12.645330
_cell_length_c	12.645323
_cell_angle_alpha	90.024870
_cell_angle_beta	89.965453
_cell_angle_gamma	89.989562
loop_
_atom_site_label
_atom_site_type_symbol
_atom_site_fract_x
_atom_site_fract_y
_atom_site_fract_z
Zn1	Zn	0.686839	0.422236	-0.599782
Zn2	Zn	0.686789	0.599524	-0.422522
Zn3	Zn	0.611709	0.422253	-0.422490
Zn4	Zn	0.611701	0.599435	-0.599701
O5	O	0.649259	0.510862	-0.511124
O6	O	0.749700	0.445784	-0.576316
O7	O	0.676812	0.576052	-0.274170
O8	O	0.621699	0.273903	-0.446028
O9	O	0.749663	0.576036	-0.446084
O10	O	0.676897	0.273891	-0.576284
O11	O	0.621650	0.445812	-0.274147
O12	O	0.548840	0.445726	-0.445950
O13	O	0.621686	0.575886	-0.748059
O14	O	0.548835	0.575902	-0.576146
O15	O	0.676890	0.445698	-0.748119
O16	O	0.676804	0.747859	-0.446005
O17	O	0.621637	0.747794	-0.576177
C18	C	0.532537	0.510807	-0.511036
C19	C	0.482602	0.510809	-0.511024
C20	C	0.126006	0.442979	-0.443469
C21	C	0.313679	0.442950	-0.443404
O22	O	0.337935	0.385189	-0.385868
N23	N	0.337157	0.510826	-0.511077
C24	C	0.313715	0.578710	-0.578775
O25	O	0.337991	0.636435	-0.636341
C26	C	0.126042	0.578734	-0.578844
C27	C	0.102566	0.510860	-0.511160
C28	C	0.102530	0.375111	-0.375791
C29	C	0.055614	0.375123	-0.375803
C30	C	0.032175	0.443004	-0.443494
C31	C	0.055651	0.510873	-0.511172
C32	C	0.102601	0.646611	-0.646547
C33	C	0.055680	0.646609	-0.646560
C34	C	0.032204	0.578736	-0.578876
C35	C	-0.014704	0.578766	-0.578876
N36	N	-0.038182	0.510889	-0.511203
C37	C	-0.014743	0.443008	-0.443513
C38	C	0.412245	0.578694	-0.578733
C39	C	0.459163	0.578690	-0.578714
C40	C	0.459124	0.442928	-0.443345
C41	C	0.412205	0.442938	-0.443359
C42	C	0.388767	0.510818	-0.511060
C43	C	-0.113269	0.443040	-0.443544
C44	C	-0.160189	0.443061	-0.443559
C45	C	-0.160145	0.578819	-0.578932
C46	C	-0.113230	0.578802	-0.578913
C47	C	-0.089793	0.510904	-0.511215
O48	O	-0.038989	0.636488	-0.636390
O49	O	-0.039027	0.385276	-0.385972
C50	C	0.172921	0.442967	-0.443456
C51	C	0.196397	0.510836	-0.511134
C52	C	0.172958	0.578717	-0.578825
C53	C	0.243315	0.510831	-0.511116
C54	C	0.266754	0.442951	-0.443425
C55	C	0.243276	0.375074	-0.375753
C56	C	0.196360	0.375086	-0.375765
C57	C	0.196436	0.646593	-0.646497
C58	C	0.243352	0.646576	-0.646478
C59	C	0.266791	0.578695	-0.578788
C60	C	0.649227	0.786292	-0.511109
C61	C	0.649254	0.904122	-0.511138
C62	C	0.649292	0.510780	-0.787629
C63	C	0.649307	0.510745	-0.905459
C64	C	0.766438	0.510918	-0.511212
C65	C	0.816372	0.510942	-0.511250
C66	C	0.649304	0.234357	-0.511162
C67	C	0.649324	0.116527	-0.511178
C68	C	0.614691	1.071689	-0.593282
C69	C	0.614514	0.949130	-0.593018
C70	C	0.636436	0.948712	-0.399410
C71	C	0.636225	1.071310	-0.399908
C72	C	0.696845	1.071225	-0.539816
C73	C	0.696553	0.948618	-0.542259
C74	C	0.614471	0.592260	-1.072986
C75	C	0.614562	0.592664	-0.950426
C76	C	0.696643	0.541078	-0.950002
C77	C	0.696452	0.541589	-1.072600
C78	C	0.637254	0.398442	-1.072651
C79	C	0.636197	0.399114	-0.950044
C80	C	0.649252	0.510867	-0.235694
C81	C	0.649325	0.510603	-0.117864
H82	H	-0.094115	0.634078	-0.634019
H83	H	0.622362	0.674891	-1.103809
H84	H	0.660861	0.919561	-0.336563
C85	C	0.733249	0.907226	-0.467354
N86	N	0.760887	0.876052	-0.410926
H87	H	0.579460	0.573681	-0.920307
H88	H	0.723302	0.484697	-1.102292
C89	C	-0.186009	0.368387	-0.369104
N90	N	-0.205456	0.312140	-0.313028
C91	C	0.667981	0.312570	-0.908673
N92	N	0.691922	0.247386	-0.877505
H93	H	0.662640	0.337604	-1.101677
C94	C	0.567392	1.113406	-0.567968
N95	N	0.531767	1.144824	-0.548895
H96	H	-0.179238	0.634089	-0.634041
H97	H	0.707051	0.622211	-0.919319
C98	C	-0.087495	0.368354	-0.369067
N99	N	-0.068082	0.312107	-0.312965
H100	H	0.706684	0.623582	-1.101216
H101	H	0.602060	0.918091	-0.374714
C102	C	0.029900	0.721289	-0.721035
N103	N	0.010484	0.777541	-0.777126
C104	C	0.589145	0.368185	-0.910666
N105	N	0.553709	0.344883	-0.880985
C106	C	0.170543	0.300411	-0.301315
N107	N	0.151100	0.244158	-0.245239
H108	H	0.603337	0.370795	-1.103539
C109	C	0.625320	0.705001	-0.910824
N110	N	0.633414	0.789623	-0.880998
H111	H	0.262462	0.701857	-0.701594
H112	H	0.262368	0.319806	-0.320633
H113	H	0.036504	0.319853	-0.320688
H114	H	0.121609	0.319828	-0.320669
C115	C	0.128414	0.721278	-0.721007
N116	N	0.147856	0.777521	-0.777097
H117	H	0.579284	0.919884	-0.574043
C118	C	0.732669	0.463278	-0.910655
N119	N	0.759803	0.404679	-0.881014
H120	H	0.478273	0.633970	-0.633818
C121	C	0.625347	0.908393	-0.704939
N122	N	0.633504	0.877716	-0.789244
C123	C	0.386386	0.368265	-0.368909
N124	N	0.366941	0.312014	-0.312834
H125	H	0.579265	0.573460	-1.102442
H126	H	0.478216	0.387657	-0.388227
H127	H	0.622637	1.101103	-0.676399
C128	C	0.668818	1.111389	-0.314436
N129	N	0.693365	1.141571	-0.250053
C130	C	0.386469	0.653390	-0.653197
N131	N	0.367056	0.709659	-0.709276
C132	C	0.589294	1.110060	-0.367145
N133	N	0.553944	1.139240	-0.342470
H134	H	0.177357	0.701870	-0.701622
H135	H	0.708537	1.102073	-0.619905
C136	C	0.709623	0.909196	-0.653321
N137	N	0.719470	0.879484	-0.736966
H138	H	0.722647	1.100221	-0.480017
