data_functionalizedCrystal
_audit_creation_method	'MofGen! by Chris Wilmer'
_symmetry_space_group_name_H-M	'P1'
_symmetry_Int_Tables_number	1
_symmetry_cell_setting	triclinic
loop_
_symmetry_equiv_pos_as_xyz
  x,y,z
_cell_length_a	17.077404
_cell_length_b	18.215405
_cell_length_c	17.077395
_cell_angle_alpha	90.030331
_cell_angle_beta	90.015641
_cell_angle_gamma	90.025110
loop_
_atom_site_label
_atom_site_type_symbol
_atom_site_fract_x
_atom_site_fract_y
_atom_site_fract_z
Zn1	Zn	1.200014	-0.292989	0.443826
Zn2	Zn	1.199925	-0.416060	0.312553
Zn3	Zn	1.068754	-0.293012	0.312574
Zn4	Zn	1.068709	-0.416019	0.443776
O5	O	1.134351	-0.354520	0.378182
O6	O	1.309849	-0.309322	0.426424
O7	O	1.182507	-0.399764	0.202708
O8	O	1.086222	-0.190025	0.330014
O9	O	1.309784	-0.399742	0.329978
O10	O	1.182658	-0.190008	0.426444
O11	O	1.086136	-0.309362	0.202724
O12	O	0.958902	-0.309322	0.329966
O13	O	1.086145	-0.399672	0.553630
O14	O	0.958868	-0.399694	0.426360
O15	O	1.182614	-0.309282	0.553666
O16	O	1.182463	-0.519039	0.329930
O17	O	1.086059	-0.519009	0.426340
C18	C	0.930403	-0.354507	0.378160
C19	C	0.843153	-0.354519	0.378170
C20	C	0.802166	-0.401647	0.428282
C21	C	0.720186	-0.401648	0.428294
C22	C	0.679194	-0.354525	0.378190
C23	C	0.720186	-0.307392	0.328076
C24	C	0.802165	-0.307387	0.328068
C25	C	0.549316	-0.307406	0.328095
C26	C	0.467332	-0.307412	0.328102
C27	C	0.467337	-0.401667	0.428321
C28	C	0.549315	-0.401663	0.428313
C29	C	0.590303	-0.354530	0.378198
C30	C	1.134268	-0.545726	0.378144
C31	C	1.134304	-0.627525	0.378154
C32	C	1.184619	-0.815710	0.328046
C33	C	1.184655	-0.892569	0.328065
C34	C	1.084182	-0.892578	0.428374
C35	C	1.084152	-0.815720	0.428359
C36	C	1.134369	-0.777289	0.378190
C37	C	1.134435	-0.931005	0.378225
C38	C	1.134472	-1.014338	0.378246
C39	C	1.134333	-0.693950	0.378170
C40	C	1.339095	-0.354534	0.378204
C41	C	1.426345	-0.354540	0.378214
C42	C	1.134384	-0.354470	0.582926
C43	C	1.134399	-0.354449	0.670176
C44	C	1.134455	-0.162567	0.378237
C45	C	1.134500	-0.080768	0.378261
C46	C	1.134362	-0.354517	0.174234
C47	C	1.134500	-0.354331	0.086985
C48	C	1.184717	-0.307283	1.046011
C49	C	1.184701	-0.307309	0.964031
C50	C	1.134463	-0.354379	0.923025
C51	C	1.084244	-0.401432	0.964005
C52	C	1.084264	-0.401409	1.045984
C53	C	1.084203	-0.401474	0.793135
C54	C	1.084181	-0.401496	0.711150
C55	C	1.184640	-0.307374	0.711181
C56	C	1.184661	-0.307351	0.793160
C57	C	1.134440	-0.354403	0.834134
H58	H	0.433961	-0.440042	0.469129
O59	O	0.427632	-0.261564	0.279411
C60	C	0.436273	-0.168097	0.179983
C61	C	0.481330	-0.219970	0.235098
H62	H	0.479669	-0.134465	0.144130
H63	H	0.397941	-0.129620	0.216070
H64	H	0.397844	-0.201847	0.138907
H65	H	0.519802	-0.186278	0.276185
H66	H	0.519613	-0.258449	0.198963
O67	O	0.589173	-0.447514	0.476871
C68	C	0.681742	-0.546841	0.487230
C69	C	0.636638	-0.494975	0.432146
H70	H	0.720140	-0.585216	0.451093
H71	H	0.638405	-0.580581	0.523040
H72	H	0.720115	-0.513079	0.528348
H73	H	0.598263	-0.528680	0.390980
H74	H	0.680017	-0.461232	0.396391
O75	O	0.589221	-0.261727	0.279374
C76	C	0.681709	-0.251708	0.173373
C77	C	0.636578	-0.303515	0.228514
H78	H	0.719996	-0.285473	0.132228
H79	H	0.720173	-0.213280	0.209438
H80	H	0.638319	-0.218013	0.137595
H81	H	0.679911	-0.337258	0.264304
H82	H	0.598102	-0.341894	0.192404
O83	O	1.233593	-0.929902	0.279490
C84	C	1.339663	-1.016559	0.269125
C85	C	1.284270	-0.974328	0.324212
H86	H	1.380638	-1.052499	0.305260
H87	H	1.375602	-0.975893	0.233314
H88	H	1.303711	-1.052588	0.228008
H89	H	1.320161	-0.938297	0.365377
H90	H	1.248328	-1.015034	0.359968
O91	O	1.233310	-0.261617	0.671307
C92	C	1.243871	-0.162227	0.578842
C93	C	1.188677	-0.214023	0.623934
H94	H	1.207806	-0.123723	0.540543
H95	H	1.284890	-0.195965	0.540395
H96	H	1.279781	-0.128612	0.622258
H97	H	1.152715	-0.247648	0.580575
H98	H	1.147709	-0.180243	0.662394
H99	H	1.043343	-0.439761	0.930612
O100	O	1.035423	-0.930025	0.477026
C101	C	0.990970	-1.048432	0.521535
C102	C	1.046219	-1.006116	0.466386
H103	H	0.999691	-1.109958	0.512963
H104	H	0.927661	-1.033430	0.507683
H105	H	1.004695	-1.033224	0.584833
H106	H	1.032565	-1.021301	0.403069
H107	H	1.109512	-1.021121	0.480305
O108	O	1.035379	-0.447077	0.833023
C109	C	0.929380	-0.456930	0.925535
C110	C	0.984639	-0.405209	0.880425
H111	H	0.888332	-0.423100	0.963858
H112	H	0.965358	-0.495395	0.963961
H113	H	0.893504	-0.490590	0.882132
H114	H	1.020527	-0.371501	0.923772
H115	H	0.948615	-0.366793	0.841987
H116	H	1.043232	-0.784435	0.469195
H117	H	1.043373	-0.439721	1.079344
H118	H	0.835536	-0.440022	0.469079
O119	O	0.680462	-0.447401	0.477076
C120	C	0.655390	-0.483287	0.610530
C121	C	0.700436	-0.431432	0.555372
H122	H	0.671510	-0.470384	0.673845
H123	H	0.671501	-0.542618	0.596679
H124	H	0.589759	-0.475214	0.601896
H125	H	0.766077	-0.439439	0.563976
H126	H	0.684260	-0.372119	0.569237
H127	H	1.225622	-0.268948	1.079392
H128	H	0.686804	-0.269020	0.287284
O129	O	0.841949	-0.261690	0.279274
C130	C	0.866966	-0.225777	0.145818
C131	C	0.821877	-0.277589	0.200986
H132	H	0.850742	-0.238603	0.082512
H133	H	0.932609	-0.233871	0.154352
H134	H	0.850888	-0.166457	0.159758
H135	H	0.837890	-0.336929	0.187080
H136	H	0.756246	-0.269431	0.192442
O137	O	1.233505	-0.261535	0.924350
C138	C	1.333177	-0.168203	0.933033
C139	C	1.277930	-0.219994	0.978067
H140	H	1.369120	-0.134615	0.976443
H141	H	1.297188	-0.129682	0.894681
H142	H	1.374162	-0.202016	0.894626
H143	H	1.236933	-0.186240	1.016517
H144	H	1.313968	-0.258517	1.016370
H145	H	1.225511	-0.784421	0.287197
O146	O	1.035386	-0.447317	0.671437
C147	C	0.935783	-0.540705	0.680052
C148	C	0.991000	-0.488847	0.725124
H149	H	0.899871	-0.574285	0.723438
H150	H	0.971794	-0.579231	0.641702
H151	H	0.894767	-0.506946	0.641640
H152	H	1.032027	-0.522547	0.763579
H153	H	0.954940	-0.450319	0.763425
H154	H	1.225565	-0.269019	0.826545
