data_functionalizedCrystal
_audit_creation_method	'MofGen! by Chris Wilmer'
_symmetry_space_group_name_H-M	'P1'
_symmetry_Int_Tables_number	1
_symmetry_cell_setting	triclinic
loop_
_symmetry_equiv_pos_as_xyz
  x,y,z
_cell_length_a	25.639240
_cell_length_b	12.759401
_cell_length_c	25.639234
_cell_angle_alpha	89.983900
_cell_angle_beta	90.019566
_cell_angle_gamma	89.969792
loop_
_atom_site_label
_atom_site_type_symbol
_atom_site_fract_x
_atom_site_fract_y
_atom_site_fract_z
Zn1	Zn	-0.208210	-1.606093	0.295609
Zn2	Zn	-0.295638	-1.605944	0.208181
Zn3	Zn	-0.208215	-1.430405	0.208189
Zn4	Zn	-0.295613	-1.430330	0.295587
O5	O	-0.251919	-1.518193	0.251891
O6	O	-0.219816	-1.753094	0.284016
O7	O	-0.284053	-1.582628	0.135016
O8	O	-0.135049	-1.453804	0.219798
O9	O	-0.284048	-1.752985	0.219783
O10	O	-0.135046	-1.582881	0.284025
O11	O	-0.219825	-1.453660	0.135023
O12	O	-0.219801	-1.283374	0.219777
O13	O	-0.284007	-1.453676	0.368755
O14	O	-0.284012	-1.283319	0.283988
O15	O	-0.219792	-1.582808	0.368771
O16	O	-0.368800	-1.582555	0.219763
O17	O	-0.368782	-1.453532	0.283980
C18	C	-0.251905	-1.245226	0.251882
C19	C	-0.251911	-1.128449	0.251890
C20	C	-0.285398	-1.073586	0.285269
C21	C	-0.285403	-0.963862	0.285273
C22	C	-0.218432	-0.963874	0.218516
C23	C	-0.218425	-1.073596	0.218514
C24	C	-0.324065	-1.073578	0.323809
C25	C	-0.324070	-0.963854	0.323814
C26	C	-0.387762	-1.518048	0.251879
C27	C	-0.445876	-1.518082	0.251892
C28	C	-0.697016	-1.585397	0.285368
C29	C	-0.642412	-1.585366	0.285364
O30	O	-0.614130	-1.642479	0.313810
N31	N	-0.615150	-1.518197	0.251898
C32	C	-0.642495	-1.451063	0.218430
O33	O	-0.614292	-1.393928	0.189964
C34	C	-0.697098	-1.451101	0.218432
C35	C	-0.724357	-1.518266	0.251904
C36	C	-0.724275	-1.652558	0.318837
C37	C	-0.778876	-1.652588	0.318842
C38	C	-0.806217	-1.585457	0.285377
C39	C	-0.778958	-1.518296	0.251908
C40	C	-0.724442	-1.383973	0.184961
C41	C	-0.779049	-1.384017	0.184966
C42	C	-0.806308	-1.451182	0.218438
C43	C	-0.860900	-1.451195	0.218448
N44	N	-0.888162	-1.518364	0.251915
C45	C	-0.860820	-1.585495	0.285379
C46	C	-0.527824	-1.450990	0.218428
C47	C	-0.473222	-1.450947	0.218429
C48	C	-0.473142	-1.585251	0.285363
C49	C	-0.527746	-1.585289	0.285364
C50	C	-0.555086	-1.518159	0.251894
C51	C	-0.975485	-1.585552	0.285386
C52	C	-1.030091	-1.585573	0.285389
C53	C	-1.030165	-1.451273	0.218454
C54	C	-0.975565	-1.451247	0.218452
C55	C	-0.948226	-1.518396	0.251920
O56	O	-0.889216	-1.394114	0.190016
O57	O	-0.889029	-1.642630	0.313836
C58	C	-0.115546	-1.518367	0.251915
C59	C	-0.057432	-1.518442	0.251925
C60	C	-0.251896	-1.518250	0.388264
C61	C	-0.251886	-1.518274	0.446378
C62	C	-0.251930	-0.792226	0.251899
C63	C	-0.251923	-0.909003	0.251896
C64	C	-0.251904	-1.518197	0.116049
C65	C	-0.251767	-1.518376	0.057935
C66	C	-0.285287	-1.585456	0.697561
C67	C	-0.285298	-1.585445	0.642957
O68	O	-0.313755	-1.642515	0.614711
N69	N	-0.251861	-1.518297	0.615652
C70	C	-0.218414	-1.451149	0.642955
O71	O	-0.189975	-1.394033	0.614717
C72	C	-0.218406	-1.451156	0.697559
C73	C	-0.251842	-1.518315	0.724860
C74	C	-0.318721	-1.652609	0.724863
C75	C	-0.318709	-1.652621	0.779463
C76	C	-0.285264	-1.585480	0.806762
C77	C	-0.251830	-1.518327	0.779461
C78	C	-0.184963	-1.384003	0.724860
C79	C	-0.184958	-1.384015	0.779467
C80	C	-0.218394	-1.451174	0.806769
C81	C	-0.218373	-1.451198	0.861360
N82	N	-0.251811	-1.518346	0.888665
C83	C	-0.285256	-1.585487	0.861366
C84	C	-0.218434	-1.451139	0.528285
C85	C	-0.218439	-1.451137	0.473682
C86	C	-0.285324	-1.585432	0.473687
C87	C	-0.285316	-1.585438	0.528291
C88	C	-0.251871	-1.518286	0.555589
C89	C	-0.285228	-1.585508	0.976031
C90	C	-0.285212	-1.585517	1.030636
C91	C	-0.218330	-1.451219	1.030626
C92	C	-0.218344	-1.451213	0.976025
C93	C	-0.251797	-1.518361	0.948729
O94	O	-0.189933	-1.394154	0.889641
O95	O	-0.313696	-1.642583	0.889611
H96	H	-0.309624	-0.929860	0.362308
H97	H	-0.157723	-1.329331	0.801691
C98	C	-0.152222	-1.062582	0.152535
C99	C	-0.181610	-1.133903	0.181829
H100	H	-0.129495	-1.099816	0.129885
H101	H	-0.132263	-1.019818	0.175353
H102	H	-0.174980	-1.019756	0.132494
H103	H	-0.158852	-1.176724	0.201873
H104	H	-0.201571	-1.176686	0.159007
H105	H	-0.191168	-0.919199	0.191343
H106	H	-0.312542	-1.640125	0.550516
C107	C	-0.310812	-1.763298	0.456875
C108	C	-0.322091	-1.659230	0.443672
H109	H	-0.333507	-1.808853	0.438341
H110	H	-0.315598	-1.772916	0.493296
H111	H	-0.275684	-1.778706	0.447933
H112	H	-0.357218	-1.643819	0.452618
H113	H	-0.317310	-1.649607	0.407243
H114	H	-0.191111	-1.396541	0.953795
C115	C	-0.456504	-1.273057	0.192881
C116	C	-0.443263	-1.377106	0.181639
H117	H	-0.438012	-1.227475	0.170164
H118	H	-0.447541	-1.257641	0.227998
H119	H	-0.492939	-1.263489	0.188097
H120	H	-0.406829	-1.386676	0.186427
H121	H	-0.452223	-1.392528	0.146514
H122	H	-0.702255	-1.329281	0.157705
C123	C	-0.355583	-1.600023	0.914627
C124	C	-0.321999	-1.659319	0.946032
H125	H	-0.378283	-1.645595	0.896110
H126	H	-0.335675	-1.560043	0.890550
H127	H	-0.375572	-1.554227	0.935927
H128	H	-0.302007	-1.705110	0.924732
H129	H	-0.341909	-1.699317	0.970112
H130	H	-0.550081	-1.396315	0.191175
C131	C	-0.264203	-1.174849	0.375320
C132	C	-0.309502	-1.113839	0.378496
H133	H	-0.255217	-1.199710	0.409080
H134	H	-0.236476	-1.133502	0.361923
H135	H	-0.270201	-1.232723	0.352807
H136	H	-0.303503	-1.055960	0.401005
H137	H	-0.337236	-1.155187	0.391900
C138	C	-0.407261	-1.703689	0.708054
C139	C	-0.355486	-1.726424	0.694863
H140	H	-0.429957	-1.749273	0.689539
H141	H	-0.414911	-1.633102	0.699087
H142	H	-0.412029	-1.713290	0.744484
H143	H	-0.350717	-1.716815	0.658434
H144	H	-0.347834	-1.797028	0.703827
H145	H	-0.953370	-1.396544	0.191202
H146	H	-0.801307	-1.329351	0.157709
H147	H	-0.702019	-1.707230	0.346088
C148	C	-0.410049	-1.037711	0.291223
C149	C	-0.375960	-1.119477	0.304140
H150	H	-0.442087	-1.066051	0.279083
H151	H	-0.394881	-0.995814	0.264629
H152	H	-0.416304	-0.995827	0.321203
H153	H	-0.369702	-1.161358	0.274159
H154	H	-0.391131	-1.161393	0.330737
C155	C	-1.113909	-1.391719	0.188739
C156	C	-1.060226	-1.377492	0.181667
H157	H	-1.132467	-1.346179	0.166023
H158	H	-1.122846	-1.376294	0.223857
H159	H	-1.122821	-1.462333	0.181125
H160	H	-1.051314	-1.306880	0.189285
H161	H	-1.051286	-1.392910	0.146541
H162	H	-0.191098	-1.396558	1.052863
H163	H	-0.953232	-1.640231	0.312638
H164	H	-0.364551	-0.934035	0.312898
H165	H	-0.801065	-1.707290	0.346094
C166	C	-1.024519	-1.718328	0.351551
C167	C	-1.060053	-1.659409	0.322183
H168	H	-1.043016	-1.763913	0.374263
H169	H	-1.003233	-1.672515	0.371527
H170	H	-1.003215	-1.758527	0.328780
H171	H	-1.081355	-1.619204	0.344954
H172	H	-1.081348	-1.705228	0.302206
H173	H	-0.549937	-1.639976	0.312623
H174	H	-0.191206	-1.396461	0.451458
H175	H	-0.450871	-1.639915	0.312611
H176	H	-0.312440	-1.640210	1.052863
H177	H	-0.345938	-1.707305	0.801687
C178	C	-0.152315	-1.318406	0.522786
C179	C	-0.181661	-1.377334	0.558288
H180	H	-0.129612	-1.272848	0.541308
H181	H	-0.175097	-1.278188	0.501483
H182	H	-0.132328	-1.364223	0.501495
H183	H	-0.201651	-1.331517	0.579576
H184	H	-0.158876	-1.417555	0.579600
H185	H	-0.157737	-1.329313	0.702641
