data_functionalizedCrystal
_audit_creation_method	'MofGen! by Chris Wilmer'
_symmetry_space_group_name_H-M	'P1'
_symmetry_Int_Tables_number	1
_symmetry_cell_setting	triclinic
loop_
_symmetry_equiv_pos_as_xyz
  x,y,z
_cell_length_a	23.532355
_cell_length_b	22.610064
_cell_length_c	23.532407
_cell_angle_alpha	89.999397
_cell_angle_beta	82.838088
_cell_angle_gamma	89.997644
loop_
_atom_site_label
_atom_site_type_symbol
_atom_site_fract_x
_atom_site_fract_y
_atom_site_fract_z
O1	O	0.755283	-0.049110	0.068986
O2	O	1.255283	0.450890	0.568986
O3	O	0.589415	-0.049130	0.079020
O4	O	1.089415	0.450870	0.579020
O5	O	0.677351	-0.049108	-0.008929
O6	O	1.177351	0.450892	0.491071
O7	O	0.667347	-0.049131	0.156936
O8	O	1.167347	0.450869	0.656936
O9	O	0.677335	0.049261	-0.008916
O10	O	1.177335	0.549261	0.491084
O11	O	0.589400	0.049239	0.079033
O12	O	1.089400	0.549239	0.579033
O13	O	0.755267	0.049259	0.068999
O14	O	1.255267	0.549259	0.568999
Zn15	Zn	0.672331	0.064868	0.074018
Zn16	Zn	1.172331	0.564868	0.574018
Zn17	Zn	0.672351	-0.064738	0.074001
Zn18	Zn	1.172351	0.435262	0.574001
O19	O	0.667332	0.049238	0.156949
O20	O	1.167332	0.549238	0.656949
C21	C	0.568191	0.000052	0.078776
C22	C	1.068191	0.500052	0.578776
C23	C	0.504972	0.000045	0.078022
C24	C	1.004972	0.500045	0.578022
C25	C	0.677088	0.000078	-0.030139
C26	C	1.177088	0.500078	0.469861
C27	C	0.676322	0.000082	-0.093356
C28	C	1.176322	0.500082	0.406644
C29	C	0.112950	0.053692	0.073291
C30	C	0.612950	0.553692	0.573291
C31	C	0.053550	0.053694	0.072573
C32	C	0.553550	0.553694	0.572573
O33	O	0.022825	0.099296	0.072189
O34	O	0.522825	0.599296	0.572189
N35	N	0.023850	0.000074	0.072211
N36	N	0.523850	0.500074	0.572211
C37	C	0.053554	-0.053553	0.072560
C38	C	0.553554	0.446447	0.572560
O39	O	0.022837	-0.099162	0.072185
O40	O	0.522837	0.400838	0.572185
C41	C	0.112953	-0.053555	0.073273
C42	C	0.612953	0.446445	0.573273
C43	C	0.142649	0.000069	0.073641
C44	C	0.642649	0.500069	0.573641
C45	C	0.142646	0.107312	0.073659
C46	C	0.642646	0.607312	0.573659
C47	C	0.202041	0.107309	0.074377
C48	C	0.702041	0.607309	0.574377
C49	C	0.231740	0.053687	0.074728
C50	C	0.731740	0.553687	0.574728
C51	C	0.202044	0.000067	0.074360
C52	C	0.702044	0.500067	0.574360
C53	C	0.142655	-0.107181	0.073618
C54	C	0.642655	0.392819	0.573618
C55	C	0.202058	-0.107178	0.074331
C56	C	0.702058	0.392822	0.574331
C57	C	0.231754	-0.053554	0.074699
C58	C	0.731754	0.446446	0.574699
C59	C	0.291138	-0.053558	0.075429
C60	C	0.791138	0.446442	0.575429
N61	N	0.320838	0.000062	0.075792
N62	N	0.820838	0.500062	0.575792
C63	C	0.291139	0.053685	0.075441
C64	C	0.791139	0.553685	0.575441
C65	C	-0.071188	-0.053545	0.071061
C66	C	0.428812	0.446455	0.571061
C67	C	-0.130586	-0.053544	0.070351
C68	C	0.369414	0.446456	0.570351
C69	C	-0.130585	0.053703	0.070364
C70	C	0.369415	0.553703	0.570364
C71	C	-0.071186	0.053702	0.071077
C72	C	0.428814	0.553702	0.571077
C73	C	-0.041488	0.000075	0.071423
C74	C	0.458512	0.500075	0.571423
C75	C	0.415873	0.053675	0.076951
C76	C	0.915873	0.553675	0.576951
C77	C	0.475273	0.053668	0.077671
C78	C	0.975273	0.553668	0.577671
C79	C	0.475267	-0.053579	0.077656
C80	C	0.975267	0.446421	0.577656
C81	C	0.415872	-0.053572	0.076938
C82	C	0.915872	0.446428	0.576938
C83	C	0.386177	0.000060	0.076583
C84	C	0.886177	0.500060	0.576583
O85	O	0.321902	-0.099137	0.075812
O86	O	0.821902	0.400863	0.575812
O87	O	0.321864	0.099286	0.075809
O88	O	0.821864	0.599286	0.575809
C89	C	0.776491	0.000076	0.069244
C90	C	1.276491	0.500076	0.569244
C91	C	0.839710	0.000079	0.069998
C92	C	1.339710	0.500079	0.569998
N93	N	0.672321	0.153320	0.074029
N94	N	1.172321	0.653320	0.574029
N95	N	0.672366	-0.153191	0.073986
N96	N	1.172366	0.346809	0.573986
C97	C	0.711291	0.561971	0.035063
C98	C	1.211291	1.061971	0.535063
C99	C	0.711294	0.623891	0.035059
C100	C	1.211294	1.123891	0.535059
O101	O	0.744403	0.655917	0.001937
O102	O	1.244403	1.155917	0.501937
N103	N	0.672351	0.654857	0.073990
N104	N	1.172351	1.154857	0.573990
C105	C	0.633399	0.623900	0.112923
C106	C	1.133399	1.123900	0.612923
O107	O	0.600275	0.655926	0.146036
O108	O	1.100275	1.155926	0.646036
C109	C	0.633394	0.561982	0.112924
C110	C	1.133394	1.061982	0.612924
C111	C	0.672343	0.531018	0.073995
C112	C	1.172343	1.031018	0.573995
C113	C	0.750237	0.531007	-0.003863
C114	C	1.250237	1.031007	0.496137
C115	C	0.750234	0.469092	-0.003858
C116	C	1.250234	0.969092	0.496142
C117	C	0.711286	0.438139	0.035073
C118	C	1.211286	0.938139	0.535073
C119	C	0.672340	0.469103	0.074000
C120	C	1.172340	0.969103	0.574000
C121	C	0.594439	0.531026	0.151854
C122	C	1.094439	1.031026	0.651854
C123	C	0.594437	0.469103	0.151851
C124	C	1.094437	0.969103	0.651851
C125	C	0.633386	0.438140	0.112922
C126	C	1.133386	0.938140	0.612922
C127	C	0.633390	0.376235	0.112936
C128	C	1.133390	0.876235	0.612936
N129	N	0.672333	0.345268	0.074006
N130	N	1.172333	0.845268	0.574006
C131	C	0.711281	0.376221	0.035074
C132	C	1.211281	0.876221	0.535074
C133	C	0.633412	0.753934	0.112917
C134	C	1.133412	1.253934	0.612917
C135	C	0.633419	0.815852	0.112919
C136	C	1.133419	1.315852	0.612919
C137	C	0.711314	0.815838	0.035055
C138	C	1.211314	1.315838	0.535055
C139	C	0.711309	0.753919	0.035056
C140	C	1.211309	1.253919	0.535056
C141	C	0.672355	0.722968	0.073987
C142	C	1.172355	1.222968	0.573987
C143	C	0.711273	0.246193	0.035088
C144	C	1.211273	0.746193	0.535088
C145	C	0.711269	0.184272	0.035098
C146	C	1.211269	0.684272	0.535098
C147	C	0.633373	0.184292	0.112960
C148	C	1.133373	0.684292	0.612960
C149	C	0.633379	0.246207	0.112953
C150	C	1.133379	0.746207	0.612953
C151	C	0.672331	0.277157	0.074012
C152	C	1.172331	0.777157	0.574012
O153	O	0.600296	0.344169	0.146040
O154	O	1.100296	0.844169	0.646040
O155	O	0.744395	0.344188	0.001962
O156	O	1.244395	0.844188	0.501962
C157	C	0.723557	0.000055	-0.492468
C158	C	1.223557	0.500055	0.007532
C159	C	0.722845	0.000051	-0.551868
C160	C	1.222845	0.500051	-0.051868
O161	O	0.766632	0.000034	-0.588620
O162	O	1.266632	0.500034	-0.088620
N163	N	0.670568	0.000045	-0.574484
N164	N	1.170568	0.500045	-0.074484
C165	C	0.618998	0.000038	-0.537697
C166	C	1.118998	0.500038	-0.037697
O167	O	0.574467	0.000032	-0.562388
O168	O	1.074467	0.500032	-0.062388
C169	C	0.619710	0.000038	-0.478298
C170	C	1.119710	0.500038	0.021702
C171	C	0.671991	0.000050	-0.455685
C172	C	1.171991	0.500050	0.044315
C173	C	0.775834	0.000066	-0.469854
C174	C	1.275834	0.500066	0.030146
C175	C	0.776545	0.000072	-0.410458
C176	C	1.276545	0.500072	0.089542
C177	C	0.724979	0.000067	-0.373676
C178	C	1.224979	0.500067	0.126324
C179	C	0.672703	0.000055	-0.396289
C180	C	1.172703	0.500055	0.103711
C181	C	0.568141	0.000027	-0.441512
C182	C	1.068141	0.500027	0.058488
C183	C	0.568858	0.000026	-0.382110
C184	C	1.068858	0.500026	0.117890
C185	C	0.621139	0.000038	-0.359497
C186	C	1.121139	0.500038	0.140503
C187	C	0.621848	0.000056	-0.300110
C188	C	1.121848	0.500056	0.199890
N189	N	0.674126	0.000061	-0.277494
N190	N	1.174126	0.500061	0.222506
C191	C	0.725691	0.000067	-0.314277
C192	C	1.225691	0.500067	0.185723
C193	C	0.617507	0.000036	-0.662439
C194	C	1.117507	0.500036	-0.162439
C195	C	0.616794	0.000040	-0.721837
C196	C	1.116794	0.500040	-0.221837
C197	C	0.720642	0.000052	-0.736004
C198	C	1.220642	0.500052	-0.236004
C199	C	0.721354	0.000052	-0.676605
C200	C	1.221354	0.500052	-0.176605
C201	C	0.669784	0.000042	-0.639823
C202	C	1.169784	0.500042	-0.139823
C203	C	0.727181	0.000079	-0.189540
C204	C	1.227181	0.500079	0.310460
C205	C	0.727888	0.000087	-0.130138
C206	C	1.227888	0.500087	0.369862
C207	C	0.624041	0.000072	-0.115977
C208	C	1.124041	0.500072	0.384023
C209	C	0.623334	0.000067	-0.175373
C210	C	1.123334	0.500067	0.324627
C211	C	0.674909	0.000069	-0.212154
C212	C	1.174909	0.500069	0.287846
O213	O	0.578084	0.000070	-0.263323
O214	O	1.078084	0.500070	0.236677
O215	O	0.770216	0.000065	-0.289577
O216	O	1.270216	0.500065	0.210423
C217	C	0.667594	0.000050	0.178158
C218	C	1.167594	0.500050	0.678158
C219	C	0.668360	0.000042	0.241375
C220	C	1.168360	0.500042	0.741375
H221	H	0.499449	0.097337	0.077973
H222	H	0.999449	0.597337	0.577973
C223	C	0.551589	0.435060	0.194680
C224	C	1.051589	0.935060	0.694680
H225	H	0.528399	0.462373	0.217864
H226	H	1.028399	0.962373	0.717864
H227	H	0.527998	0.410905	0.174320
H228	H	1.027998	0.910905	0.674320
H229	H	0.571942	0.410908	0.218286
H230	H	1.071942	0.910908	0.718286
H231	H	0.499459	-0.097237	0.077943
H232	H	0.999459	0.402763	0.577943
C233	C	0.109962	0.166300	0.073432
C234	C	0.609962	0.666300	0.573432
H235	H	0.070325	0.158632	0.072999
H236	H	0.570325	0.658632	0.572999
H237	H	0.115220	0.188219	0.106816
H238	H	0.615220	0.688219	0.606816
H239	H	0.124169	0.188440	0.040379
H240	H	0.624169	0.688440	0.540379
H241	H	0.391701	0.097348	0.076667
H242	H	0.891701	0.597348	0.576667
C243	C	0.590532	0.150239	0.155782
C244	C	1.090532	0.650239	0.655782
H245	H	0.567337	0.177544	0.178971
H246	H	1.067337	0.677544	0.678971
H247	H	0.566945	0.126085	0.135416
H248	H	1.066945	0.626085	0.635416
H249	H	0.610885	0.126084	0.179386
H250	H	1.110885	0.626084	0.679386
C251	C	0.754151	0.849893	-0.007775
C252	C	1.254151	1.349893	0.492225
H253	H	0.748568	0.891203	-0.002202
H254	H	1.248568	1.391203	0.497798
H255	H	0.792126	0.839747	-0.001796
H256	H	1.292126	1.339747	0.498204
H257	H	0.748175	0.839746	-0.045754
H258	H	1.248175	1.339746	0.454246
C259	C	0.832559	0.000071	-0.510309
C260	C	1.332559	0.500071	-0.010309
H261	H	0.824658	0.000065	-0.548927
H262	H	1.324658	0.500065	-0.048927
H263	H	0.854003	0.034377	-0.503480
H264	H	1.354003	0.534377	-0.003480
H265	H	0.854013	-0.034234	-0.503480
H266	H	1.354013	0.465766	-0.003480
H267	H	0.391691	-0.097238	0.076647
H268	H	0.891691	0.402762	0.576647
C269	C	0.834053	0.000081	-0.385588
C270	C	1.334053	0.500081	0.114412
H271	H	0.827099	0.000087	-0.344944
H272	H	1.327099	0.500087	0.155056
H273	H	0.855275	-0.034219	-0.398237
H274	H	1.355275	0.465781	0.101763
H275	H	0.855262	0.034392	-0.398239
H276	H	1.355262	0.534392	0.101761
H277	H	0.769178	0.000078	-0.219481
H278	H	1.269178	0.500078	0.280519
H279	H	0.601709	0.841058	0.144625
H280	H	1.101709	1.341058	0.644625
H281	H	-0.154777	0.097366	0.070078
H282	H	0.345223	0.597366	0.570078
H283	H	0.118487	-0.150848	0.073317
H284	H	0.618487	0.349152	0.573317
H285	H	0.763925	0.000061	-0.658198
H286	H	1.263925	0.500061	-0.158198
C287	C	0.559285	0.000032	-0.746705
C288	C	1.059285	0.500032	-0.246705
H289	H	0.528680	0.000025	-0.716286
H290	H	1.028680	0.500025	-0.216286
H291	H	0.556839	0.034332	-0.769585
H292	H	1.056839	0.534332	-0.269585
H293	H	0.556854	-0.034280	-0.769577
H294	H	1.056854	0.465720	-0.269577
C295	C	-0.038526	-0.112538	0.071453
C296	C	0.461474	0.387462	0.571453
H297	H	-0.064726	-0.144468	0.071140
H298	H	0.435274	0.355532	0.571140
H299	H	-0.010819	-0.114771	0.038517
H300	H	0.489181	0.385229	0.538517
H301	H	-0.019892	-0.114772	0.104953
H302	H	0.480108	0.385228	0.604953
C303	C	0.590568	0.719893	0.155752
C304	C	1.090568	1.219893	0.655752
H305	H	0.567382	0.747207	0.178938
H306	H	1.067382	1.247207	0.678938
H307	H	0.566972	0.695739	0.135396
H308	H	1.066972	1.195739	0.635396
H309	H	0.610921	0.695739	0.179356
H310	H	1.110921	1.195739	0.679356
C311	C	0.754112	0.150216	-0.007728
C312	C	1.254112	0.650216	0.492272
H313	H	0.777304	0.177522	-0.030918
H314	H	1.277304	0.677522	0.469082
H315	H	0.777703	0.126060	0.012633
H316	H	1.277703	0.626060	0.512633
H317	H	0.733757	0.126063	-0.031330
H318	H	1.233757	0.626063	0.468670
H319	H	-0.047012	0.097367	0.071378
H320	H	0.452988	0.597367	0.571378
C321	C	0.512132	0.000016	-0.341650
C322	C	1.012132	0.500016	0.158350
H323	H	0.520039	0.000015	-0.303034
H324	H	1.020039	0.500015	0.196966
H325	H	0.490673	0.034313	-0.348476
H326	H	0.990673	0.534313	0.151524
H327	H	0.490692	-0.034298	-0.348474
H328	H	0.990692	0.465702	0.151526
H329	H	0.742991	0.271385	0.003378
H330	H	1.242991	0.771385	0.503378
H331	H	0.781948	0.443885	-0.035559
H332	H	1.281948	0.943885	0.464441
C333	C	0.510631	0.000009	-0.466373
C334	C	1.010631	0.500009	0.033627
H335	H	0.480028	-0.000002	-0.435952
H336	H	0.980028	0.499998	0.064048
H337	H	0.508179	0.034309	-0.489252
H338	H	1.008179	0.534309	0.010748
H339	H	0.508202	-0.034303	-0.489246
H340	H	1.008202	0.465697	0.010754
C341	C	0.551599	0.565072	0.194682
C342	C	1.051599	1.065072	0.694682
H343	H	0.528404	0.537762	0.217862
H344	H	1.028404	1.037762	0.717862
H345	H	0.571950	0.589223	0.218284
H346	H	1.071950	1.089223	0.718284
H347	H	0.528004	0.589230	0.174321
H348	H	1.028004	1.089230	0.674321
C349	C	0.234723	-0.166169	0.074716
C350	C	0.734723	0.333831	0.574716
H351	H	0.208525	-0.198101	0.074399
H352	H	0.708525	0.301899	0.574399
H353	H	0.262431	-0.168396	0.041781
H354	H	0.762431	0.331604	0.541781
H355	H	0.253355	-0.168405	0.108217
H356	H	0.753355	0.331595	0.608217
H357	H	0.781953	0.556203	-0.035569
H358	H	1.281953	1.056203	0.464431
H359	H	0.601668	0.271418	0.144658
H360	H	1.101668	0.771418	0.644658
C361	C	-0.163247	-0.112531	0.069953
C362	C	0.336753	0.387469	0.569953
H363	H	-0.137046	-0.144464	0.070261
H364	H	0.362954	0.355536	0.570261
H365	H	-0.190954	-0.114767	0.102888
H366	H	0.309046	0.385233	0.602888
H367	H	-0.181880	-0.114757	0.036452
H368	H	0.318120	0.385243	0.536452
H369	H	0.580762	0.000074	-0.193785
H370	H	1.080762	0.500074	0.306215
H371	H	0.743024	0.728712	0.003356
H372	H	1.243024	1.228712	0.503356
C373	C	0.785399	0.000097	-0.105267
C374	C	1.285399	0.500097	0.394733
H375	H	0.816006	0.000093	-0.135684
H376	H	1.316006	0.500093	0.364316
H377	H	0.787833	0.034402	-0.082392
H378	H	1.287833	0.534402	0.417608
H379	H	0.787840	-0.034209	-0.082390
H380	H	1.287840	0.465791	0.417610
C381	C	0.777363	0.000047	-0.776472
C382	C	1.277363	0.500047	-0.276472
H383	H	0.769447	0.000037	-0.815085
H384	H	1.269447	0.500037	-0.315085
H385	H	0.798816	0.034350	-0.769657
H386	H	1.298816	0.534350	-0.269657
H387	H	0.798814	-0.034261	-0.769647
H388	H	1.298814	0.465739	-0.269647
C389	C	0.560777	0.000036	-0.621983
C390	C	1.060777	0.500036	-0.121983
H391	H	0.529544	0.000038	-0.643965
H392	H	1.029544	0.500038	-0.143965
H393	H	0.558895	-0.034266	-0.598515
H394	H	1.058895	0.465734	-0.098515
H395	H	0.558891	0.034345	-0.598520
H396	H	1.058891	0.534345	-0.098520
C397	C	0.567322	0.000063	-0.075511
C398	C	1.067322	0.500063	0.424489
H399	H	0.536081	0.000059	-0.097483
H400	H	1.036081	0.500059	0.402517
H401	H	0.565454	-0.034241	-0.052046
H402	H	1.065454	0.465759	0.447954
H403	H	0.565434	0.034371	-0.052046
H404	H	1.065434	0.534371	0.447954
C405	C	0.234700	0.166296	0.074780
C406	C	0.734700	0.666296	0.574780
H407	H	0.208499	0.198228	0.074464
H408	H	0.708499	0.698228	0.574464
H409	H	0.253337	0.168525	0.108275
H410	H	0.753337	0.668525	0.608275
H411	H	0.262405	0.168534	0.041839
H412	H	0.762405	0.668534	0.541839
