data_functionalizedCrystal
_audit_creation_method	'MofGen! by Chris Wilmer'
_symmetry_space_group_name_H-M	'P1'
_symmetry_Int_Tables_number	1
_symmetry_cell_setting	triclinic
loop_
_symmetry_equiv_pos_as_xyz
  x,y,z
_cell_length_a	23.532407
_cell_length_b	13.339070
_cell_length_c	12.376457
_cell_angle_alpha	75.602119
_cell_angle_beta	78.781238
_cell_angle_gamma	80.760980
loop_
_atom_site_label
_atom_site_type_symbol
_atom_site_fract_x
_atom_site_fract_y
_atom_site_fract_z
O1	O	0.782864	-0.103156	-0.093928
O2	O	0.619861	-0.120892	-0.093945
O3	O	0.682655	0.035051	-0.093935
O4	O	0.720070	-0.259099	-0.093938
O5	O	0.666955	-0.003881	0.094074
O6	O	0.604162	-0.159824	0.094064
O7	O	0.767164	-0.142088	0.094081
Zn8	Zn	0.683170	-0.157137	0.123923
Zn9	Zn	0.703855	-0.105843	-0.123787
O10	O	0.704371	-0.298031	0.094071
C11	C	0.590723	-0.139906	0.000057
C12	C	0.527288	-0.138546	0.000051
C13	C	0.245338	-0.040666	0.000082
C14	C	0.304941	-0.041928	0.000082
O15	O	0.329165	0.035716	0.000122
N16	N	0.342514	-0.134636	0.000073
C17	C	0.320478	-0.226090	0.000077
O18	O	0.357909	-0.305062	0.000070
C19	C	0.260875	-0.224829	0.000085
C20	C	0.223307	-0.132113	0.000082
C21	C	0.207770	0.052042	0.000081
C22	C	0.148170	0.053304	0.000079
C23	C	0.126139	-0.038143	0.000079
C24	C	0.163707	-0.130852	0.000080
C25	C	0.238840	-0.316285	0.000096
C26	C	0.179232	-0.315016	0.000106
C27	C	0.141664	-0.222299	0.000103
C28	C	0.082077	-0.221037	0.000078
N29	N	0.044505	-0.128329	0.000087
C30	C	0.066536	-0.036882	0.000087
C31	C	0.445649	-0.228732	0.000061
C32	C	0.505252	-0.229993	0.000044
C33	C	0.489710	-0.045830	0.000052
C34	C	0.430107	-0.044569	0.000060
C35	C	0.408077	-0.136024	0.000069
C36	C	-0.058626	-0.034239	0.000082
C37	C	-0.118230	-0.032985	0.000076
C38	C	-0.102684	-0.217148	0.000074
C39	C	-0.043085	-0.218402	0.000075
C40	C	-0.021059	-0.126940	0.000083
O41	O	0.057812	-0.298641	0.000043
O42	O	0.029097	0.042073	0.000108
C43	C	0.668485	0.053211	0.000067
C44	C	0.649647	0.165325	0.000061
C45	C	0.796303	-0.123073	0.000076
C46	C	0.859739	-0.124432	0.000076
N47	N	0.669058	-0.192144	0.292979
C48	C	0.718541	-0.316191	0.000066
C49	C	0.737380	-0.428303	0.000066
C50	C	0.796126	0.531587	0.000077
C51	C	0.813827	0.426249	0.000089
C52	C	0.772784	0.361013	0.000082
C53	C	0.714036	0.401125	0.000062
C54	C	0.696333	0.506471	0.000059
C55	C	0.672990	0.335897	0.000064
C56	C	0.614243	0.376009	0.000045
C57	C	0.596543	0.481345	0.000040
C58	C	0.637586	0.546581	0.000048
C59	C	0.690693	0.230551	0.000067
C60	C	0.590900	0.205435	0.000050
C61	C	0.573199	0.310773	0.000037
N62	N	0.717971	-0.070828	-0.292843
C63	C	0.636302	-0.273427	0.352159
C64	C	0.626434	-0.297937	0.470497
C65	C	0.649317	-0.241162	0.529668
C66	C	0.682070	-0.159872	0.470488
C67	C	0.691943	-0.135365	0.352139
C68	C	0.704958	-0.103100	0.529648
C69	C	0.737712	-0.021810	0.470469
C70	C	0.747582	0.002694	0.352130
C71	C	0.724699	-0.054082	0.292960
C72	C	0.695086	-0.127607	0.647997
C73	C	0.750727	0.010455	0.647978
C74	C	0.760595	0.034966	0.529639
H75	H	0.269420	-0.391783	0.000094
N76	N	0.750696	0.189581	0.000105
N77	N	0.775505	0.193348	0.079366
H78	H	0.817886	0.164412	0.079393
H79	H	0.829537	0.584708	0.000092
N80	N	0.156739	-0.408450	0.000124
N81	N	0.190292	-0.491217	0.000131
H82	H	0.174408	-0.557206	0.000143
N83	N	0.592986	-0.380979	0.530925
N84	N	0.572560	-0.431668	0.478086
H85	H	0.548937	-0.490323	0.520764
N86	N	0.619515	0.654189	0.000021
N87	N	0.656170	0.712420	0.000013
H88	H	0.643410	0.788421	-0.000008
N89	N	0.734810	-0.029034	0.172076
N90	N	0.717506	0.059857	0.119232
H91	H	0.724658	0.077544	0.033857
H92	H	0.668418	-0.193793	0.696171
H93	H	0.774258	0.068877	0.303946
H94	H	0.787264	0.101153	0.481441
H95	H	0.769362	0.056685	0.696154
H96	H	-0.148817	0.042520	0.000070
H97	H	0.525366	0.343447	0.000022
H98	H	0.548706	0.513998	0.000033
H99	H	0.557478	0.152319	0.000049
N100	N	0.639233	-0.266210	0.650546
N101	N	0.609987	-0.338788	0.703371
H102	H	0.602862	-0.356479	0.788747
H103	H	-0.040700	0.040238	0.000088
N104	N	-0.125199	-0.310558	0.000102
N105	N	-0.119963	-0.388757	0.079362
H106	H	-0.135867	-0.454731	0.079391
N107	N	0.790872	0.253416	0.000098
N108	N	0.843325	0.217615	0.000115
H109	H	0.856104	0.141621	0.000123
H110	H	0.861659	0.393598	0.000106
N111	N	-0.004707	-0.313108	0.000092
N112	N	0.023663	-0.350768	0.079354
H113	H	0.050764	-0.417658	0.079378
N114	N	0.109808	0.148021	0.000076
N115	N	0.129496	0.229655	0.000078
H116	H	0.102406	0.296554	0.000078
N117	N	0.230257	0.145469	0.000088
N118	N	0.196697	0.228229	0.000090
H119	H	0.212574	0.294220	0.000089
N120	N	0.391743	0.050147	0.000055
N121	N	0.411429	0.131785	0.000049
H122	H	0.384337	0.198683	0.000046
N123	N	0.612941	-0.331413	0.291701
N124	N	0.621764	-0.309523	0.186038
H125	H	0.605265	-0.350481	0.143337
H126	H	0.535837	-0.305488	0.000031
N127	N	0.512209	0.047588	0.000075
N128	N	0.478663	0.130363	0.000087
H129	H	0.494554	0.196336	0.000104
N130	N	0.423158	-0.322166	0.000065
N131	N	0.456716	-0.404928	0.000058
H132	H	0.440835	-0.470918	0.000064
