data_functionalizedCrystal
_audit_creation_method	'MofGen! by Chris Wilmer'
_symmetry_space_group_name_H-M	'P1'
_symmetry_Int_Tables_number	1
_symmetry_cell_setting	triclinic
loop_
_symmetry_equiv_pos_as_xyz
  x,y,z
_cell_length_a	18.215407
_cell_length_b	12.594516
_cell_length_c	18.215399
_cell_angle_alpha	90.023782
_cell_angle_beta	90.019833
_cell_angle_gamma	90.012264
loop_
_atom_site_label
_atom_site_type_symbol
_atom_site_fract_x
_atom_site_fract_y
_atom_site_fract_z
Zn1	Zn	1.125139	-0.423740	0.416137
Zn2	Zn	1.625139	0.076260	0.916137
Zn3	Zn	1.125075	-0.601738	0.293080
Zn4	Zn	1.625075	-0.101738	0.793080
Zn5	Zn	1.002071	-0.423775	0.293085
Zn6	Zn	1.502071	0.076225	0.793085
Zn7	Zn	1.002065	-0.601679	0.416105
Zn8	Zn	1.502065	-0.101679	0.916105
O9	O	1.063588	-0.512733	0.354602
O10	O	1.563588	-0.012733	0.854602
O11	O	1.228115	-0.447362	0.399825
O12	O	1.728115	0.052638	0.899825
O13	O	1.108734	-0.578170	0.190096
O14	O	1.608734	-0.078170	0.690096
O15	O	1.018426	-0.274825	0.309423
O16	O	1.518426	0.225175	0.809423
O17	O	1.228068	-0.578136	0.309415
O18	O	1.728068	-0.078136	0.809415
O19	O	1.108843	-0.274799	0.399830
O20	O	1.608843	0.225201	0.899830
O21	O	1.018364	-0.447422	0.190100
O22	O	1.518364	0.052578	0.690100
O23	O	0.899086	-0.447364	0.309392
O24	O	1.399086	0.052636	0.809392
O25	O	1.018415	-0.578035	0.519093
O26	O	1.518415	-0.078035	1.019093
O27	O	0.899082	-0.578069	0.399774
O28	O	1.399082	-0.078069	0.899774
O29	O	1.108837	-0.447305	0.519117
O30	O	1.608837	0.052695	1.019117
O31	O	1.108729	-0.750676	0.309384
O32	O	1.608729	-0.250676	0.809384
O33	O	1.018354	-0.750632	0.399770
O34	O	1.518354	-0.250632	0.899770
C35	C	0.872381	-0.512715	0.354580
C36	C	1.372381	-0.012715	0.854580
C37	C	0.790583	-0.512733	0.354589
C38	C	1.290583	-0.012733	0.854589
C39	C	0.602406	-0.580898	0.401592
C40	C	1.102406	-0.080898	0.901592
C41	C	0.525547	-0.580901	0.401601
C42	C	1.025547	-0.080901	0.901601
C43	C	0.525522	-0.444588	0.307627
C44	C	1.025522	0.055412	0.807627
C45	C	0.602379	-0.444580	0.307622
C46	C	1.102379	0.055420	0.807622
C47	C	0.640819	-0.512741	0.354604
C48	C	1.140819	-0.012741	0.854604
C49	C	0.487103	-0.512752	0.354618
C50	C	0.987103	-0.012752	0.854618
C51	C	0.403769	-0.512755	0.354627
C52	C	0.903769	-0.012755	0.854627
C53	C	0.724158	-0.512736	0.354595
C54	C	1.224158	-0.012736	0.854595
C55	C	1.063554	-0.789274	0.354589
C56	C	1.563554	-0.289274	0.854589
C57	C	1.063606	-0.907579	0.354608
C58	C	1.563606	-0.407579	0.854608
C59	C	1.112818	-0.976817	0.305499
C60	C	1.612818	-0.476817	0.805499
C61	C	1.130801	-1.047521	0.372671
C62	C	1.630801	-0.547521	0.872671
C63	C	1.045716	-1.047675	0.287480
C64	C	1.545716	-0.547675	0.787480
C65	C	1.081623	-0.976724	0.421814
C66	C	1.581623	-0.476724	0.921814
C67	C	0.996507	-0.976872	0.336578
C68	C	1.496507	-0.476872	0.836578
C69	C	1.014464	-1.047544	0.403795
C70	C	1.514464	-0.547544	0.903795
C71	C	1.255541	-0.512752	0.354623
C72	C	1.755541	-0.012752	0.854623
C73	C	1.337339	-0.512760	0.354632
C74	C	1.837339	-0.012760	0.854632
C75	C	1.063633	-0.512660	0.546555
C76	C	1.563633	-0.012660	1.046555
C77	C	1.063652	-0.512628	0.628354
C78	C	1.563652	-0.012628	1.128354
C79	C	1.063642	-0.235112	0.354631
C80	C	1.563642	0.264888	0.854631
C81	C	1.063665	-0.116807	0.354643
C82	C	1.563665	0.383193	0.854643
C83	C	1.063585	-0.512729	0.163395
C84	C	1.563585	-0.012729	0.663395
C85	C	1.063709	-0.512461	0.081597
C86	C	1.563709	-0.012461	0.581597
C87	C	1.110751	-0.444493	0.816561
C88	C	1.610751	0.055507	1.316561
C89	C	1.110760	-0.444462	0.893420
C90	C	1.610760	0.055538	1.393420
C91	C	1.016604	-0.580599	0.893384
C92	C	1.516604	-0.080599	1.393384
C93	C	1.016592	-0.580624	0.816526
C94	C	1.516592	-0.080624	1.316526
C95	C	1.063670	-0.512572	0.778117
C96	C	1.563670	-0.012572	1.278117
C97	C	1.063691	-0.512517	0.931833
C98	C	1.563691	-0.012517	1.431833
C99	C	1.063700	-0.512483	1.015167
C100	C	1.563700	-0.012483	1.515167
C101	C	1.063660	-0.512604	0.694778
C102	C	1.563660	-0.012604	1.194778
H103	H	0.494274	-0.636400	0.439865
H104	H	0.994274	-0.136400	0.939865
H105	H	0.633656	-0.389071	0.269359
H106	H	1.133656	0.110929	0.769359
F107	F	0.922323	-0.936281	0.316596
F108	F	1.422323	-0.436281	0.816596
F109	F	1.160875	-0.372010	0.934332
F110	F	1.660875	0.127990	1.434332
H111	H	0.494215	-0.389095	0.269376
H112	H	0.994215	0.110905	0.769376
F113	F	1.167221	-0.936223	0.251266
F114	F	1.667221	-0.436223	0.751266
F115	F	0.966476	-0.653082	0.775609
F116	F	1.466476	-0.153082	1.275609
F117	F	1.160853	-0.372065	0.775686
F118	F	1.660853	0.127935	1.275686
H119	H	1.030559	-1.078839	0.230696
H120	H	1.530559	-0.578839	0.730696
H121	H	0.633701	-0.636396	0.439849
H122	H	1.133701	-0.136396	0.939849
F123	F	0.960100	-1.087883	0.458158
F124	F	1.460100	-0.587883	0.958158
H125	H	1.187571	-1.078556	0.387940
H126	H	1.687571	-0.578556	0.887940
H127	H	1.096723	-0.945692	0.478647
H128	H	1.596723	-0.445692	0.978647
H129	H	0.978277	-0.636006	0.924666
H130	H	1.478277	-0.136006	1.424666
