data_functionalizedCrystal
_audit_creation_method	'MofGen! by Chris Wilmer'
_symmetry_space_group_name_H-M	'P1'
_symmetry_Int_Tables_number	1
_symmetry_cell_setting	triclinic
loop_
_symmetry_equiv_pos_as_xyz
  x,y,z
_cell_length_a	11.792241
_cell_length_b	10.654550
_cell_length_c	9.730223
_cell_angle_alpha	89.995747
_cell_angle_beta	90.000916
_cell_angle_gamma	84.339173
loop_
_atom_site_label
_atom_site_type_symbol
_atom_site_fract_x
_atom_site_fract_y
_atom_site_fract_z
O1	O	1.507304	0.172135	-0.114156
O2	O	2.007304	0.672135	0.385844
O3	O	1.177004	0.189875	-0.114188
O4	O	1.677004	0.689875	0.385812
O5	O	1.349749	-0.001756	-0.114163
O6	O	1.849749	0.498244	0.385837
O7	O	1.334560	0.363766	-0.114181
O8	O	1.834560	0.863766	0.385819
O9	O	1.349737	-0.001761	0.114417
O10	O	1.849737	0.498239	0.614417
O11	O	1.176993	0.189870	0.114392
O12	O	1.676993	0.689870	0.614392
O13	O	1.507293	0.172130	0.114424
O14	O	2.007293	0.672130	0.614424
Zn15	Zn	1.342141	0.180999	0.150700
Zn16	Zn	1.842141	0.680999	0.650700
Zn17	Zn	1.342156	0.181006	-0.150464
Zn18	Zn	1.842156	0.681006	0.349536
O19	O	1.334549	0.363761	0.114399
O20	O	1.834549	0.863761	0.614399
C21	C	1.348628	-0.048553	0.000127
C22	C	1.848628	0.451447	0.500127
C23	C	1.345291	-0.187987	0.000124
C24	C	1.845291	0.312013	0.500124
C25	C	1.134705	0.188758	0.000098
C26	C	1.634705	0.688758	0.500098
C27	C	1.008684	0.185423	0.000086
C28	C	1.508684	0.685423	0.500086
C29	C	1.447000	-0.267760	0.000133
C30	C	1.947000	0.232240	0.500133
C31	C	1.443859	-0.398772	0.000116
C32	C	1.943859	0.101228	0.500116
C33	C	1.237290	-0.370225	0.000086
C34	C	1.737290	0.129775	0.500086
C35	C	1.240433	-0.239215	0.000094
C36	C	1.740433	0.260785	0.500094
C37	C	0.777958	0.179290	0.000126
C38	C	1.277958	0.679290	0.500126
C39	C	0.906351	0.182697	0.000104
C40	C	1.406351	0.682697	0.500104
C41	C	1.549592	0.173247	0.000135
C42	C	2.049592	0.673247	0.500135
C43	C	1.675614	0.176582	0.000138
C44	C	2.175614	0.676582	0.500138
C45	C	1.335670	0.410558	0.000106
C46	C	1.835670	0.910558	0.500106
C47	C	1.339006	0.549992	0.000100
C48	C	1.839006	1.049992	0.500100
N49	N	1.342140	0.180994	0.356236
N50	N	1.842140	0.680994	0.856236
N51	N	1.342167	0.181002	-0.356000
N52	N	1.842167	0.681002	0.144000
C53	C	1.418657	0.096175	0.428173
C54	C	1.918657	0.596175	0.928173
C55	C	1.418668	0.096176	0.572056
C56	C	1.918668	0.596176	1.072056
C57	C	1.265641	0.265824	0.572052
C58	C	1.765641	0.765824	1.072052
C59	C	1.265625	0.265816	0.428172
C60	C	1.765625	0.765816	0.928172
H61	H	1.532383	-0.226055	0.000155
H62	H	2.032383	0.273945	0.500155
H63	H	1.203346	0.334886	0.630637
H64	H	1.703346	0.834886	1.130637
H65	H	1.480974	0.027108	0.630624
H66	H	1.980974	0.527108	1.130624
N67	N	1.187461	0.352481	0.354704
N68	N	1.687461	0.852481	0.854704
N69	N	1.189922	0.468579	0.370754
N70	N	1.689922	0.968579	0.870754
H71	H	1.134718	0.529782	0.318869
H72	H	1.634718	1.029782	0.818869
N73	N	1.130194	-0.422577	0.000053
N74	N	1.630194	0.077423	0.500053
N75	N	1.127400	-0.539550	0.000046
N76	N	1.627400	-0.039550	0.500046
H77	H	1.051762	-0.576524	0.000025
H78	H	1.551762	-0.076524	0.500025
H79	H	1.480958	0.027106	0.369607
H80	H	1.980958	0.527106	0.869607
H81	H	1.157604	-0.174260	0.000082
H82	H	1.657604	0.325740	0.500082
N83	N	1.547763	-0.480240	0.000116
N84	N	2.047763	0.019760	0.500116
N85	N	1.641373	-0.434478	0.000135
N86	N	2.141373	0.065522	0.500135
H87	H	1.714761	-0.492014	0.000131
H88	H	2.214761	0.007986	0.500131
