data_functionalizedCrystal
_audit_creation_method	'MofGen! by Chris Wilmer'
_symmetry_space_group_name_H-M	'P1'
_symmetry_Int_Tables_number	1
_symmetry_cell_setting	triclinic
loop_
_symmetry_equiv_pos_as_xyz
  x,y,z
_cell_length_a	18.050589
_cell_length_b	18.050591
_cell_length_c	18.050582
_cell_angle_alpha	89.976005
_cell_angle_beta	90.018205
_cell_angle_gamma	89.978696
loop_
_atom_site_label
_atom_site_type_symbol
_atom_site_fract_x
_atom_site_fract_y
_atom_site_fract_z
Zn1	Zn	-0.295844	-1.135293	0.420115
Zn2	Zn	-0.420027	-1.135203	0.295934
Zn3	Zn	-0.295840	-1.011112	0.295919
Zn4	Zn	-0.419981	-1.011060	0.420063
O5	O	-0.357923	-1.073167	0.358008
O6	O	-0.312337	-1.239205	0.403670
O7	O	-0.403571	-1.118727	0.192008
O8	O	-0.191916	-1.027644	0.312409
O9	O	-0.403574	-1.239140	0.312435
O10	O	-0.191919	-1.118879	0.403655
O11	O	-0.312332	-1.027557	0.191997
O12	O	-0.312287	-0.907180	0.312359
O13	O	-0.403497	-1.027555	0.523995
O14	O	-0.403493	-0.907142	0.403567
O15	O	-0.312293	-1.118828	0.524033
O16	O	-0.523945	-1.118676	0.312385
O17	O	-0.523912	-1.027468	0.403582
C18	C	-0.357886	-0.880215	0.357956
C19	C	-0.357887	-0.797669	0.357952
C20	C	-0.308222	-0.598217	0.308457
C21	C	-0.375955	-0.548798	0.290183
C22	C	-0.357902	-0.646539	0.357978
C23	C	-0.290185	-0.548877	0.376241
C24	C	-0.357911	-0.500553	0.358001
C25	C	-0.425671	-0.598206	0.339669
C26	C	-0.339855	-0.598289	0.425758
C27	C	-0.407635	-0.548892	0.407510
C28	C	-0.357896	-0.730637	0.357962
C29	C	-0.357924	-0.416457	0.358016
C30	C	-0.550875	-1.073077	0.357996
C31	C	-0.633421	-1.073107	0.358015
C32	C	-0.832880	-1.023557	0.407591
C33	C	-0.882312	-1.005459	0.339820
C34	C	-0.784551	-1.073180	0.358025
C35	C	-0.882201	-1.091314	0.425803
C36	C	-0.930536	-1.073249	0.358040
C37	C	-0.832896	-1.055046	0.290219
C38	C	-0.832781	-1.140933	0.376247
C39	C	-0.882190	-1.122861	0.308430
C40	C	-0.700453	-1.073138	0.358017
C41	C	-1.014633	-1.073291	0.358040
C42	C	-0.164217	-1.073277	0.358037
C43	C	-0.081672	-1.073324	0.358049
C44	C	-0.357890	-1.073196	0.551714
C45	C	-0.357876	-1.073208	0.634259
C46	C	-0.357948	-0.266872	0.358046
C47	C	-0.357927	-0.349418	0.358028
C48	C	-0.357902	-1.073181	0.165056
C49	C	-0.357707	-1.073312	0.082510
C50	C	-0.407405	-1.023612	0.833689
C51	C	-0.425566	-1.091367	0.883093
C52	C	-0.357819	-1.073245	0.785390
C53	C	-0.339637	-1.005527	0.883068
C54	C	-0.357766	-1.073274	0.931375
C55	C	-0.376017	-1.141036	0.833706
C56	C	-0.290056	-1.055150	0.833677
C57	C	-0.308192	-1.122952	0.883058
C58	C	-0.357852	-1.073227	0.701291
C59	C	-0.357733	-1.073300	1.015472
H60	H	-0.324561	-0.620045	0.483052
H61	H	-0.324281	-0.948246	0.904752
H62	H	-0.482959	-0.619785	0.324167
H63	H	-0.266257	-0.619875	0.266537
H64	H	-0.811328	-1.039669	0.232890
H65	H	-0.391228	-0.527060	0.232872
H66	H	-0.482850	-1.106690	0.904799
H67	H	-0.449700	-0.527370	0.449398
C68	C	-0.911264	-1.179588	0.251748
C69	C	-0.890527	-1.261997	0.259415
C70	C	-0.919603	-1.318717	0.202729
C71	C	-0.969416	-1.293029	0.138377
C72	C	-0.990156	-1.210616	0.130707
C73	C	-0.961080	-1.153896	0.187392
H74	H	-0.853650	-1.281016	0.307055
H75	H	-0.904249	-1.379725	0.208408
H76	H	-0.990940	-1.335017	0.096415
H77	H	-1.027033	-1.191597	0.083067
H78	H	-0.976433	-1.092888	0.181714
H79	H	-0.232921	-0.527169	0.391654
H80	H	-0.811228	-0.981531	0.449448
H81	H	-0.904085	-0.948195	0.324422
C82	C	-0.803360	-1.218274	0.397091
C83	C	-0.822749	-1.252311	0.472882
C84	C	-0.793327	-1.329652	0.493736
C85	C	-0.744515	-1.372956	0.438798
C86	C	-0.725123	-1.338919	0.363001
C87	C	-0.754546	-1.261578	0.342148
H88	H	-0.858885	-1.220255	0.513555
H89	H	-0.807682	-1.354848	0.549846
H90	H	-0.722735	-1.430209	0.454236
H91	H	-0.688988	-1.370976	0.322329
H92	H	-0.740190	-1.236382	0.286038
H93	H	-0.903859	-1.106625	0.483116
C94	C	-0.464122	-0.966964	0.804397
C95	C	-0.474094	-0.956083	0.720363
C96	C	-0.530812	-0.899440	0.691069
C97	C	-0.577559	-0.853677	0.745808
C98	C	-0.567589	-0.864556	0.829848
C99	C	-0.510871	-0.921199	0.859142
H100	H	-0.439487	-0.989961	0.679836
H101	H	-0.538192	-0.891387	0.628857
H102	H	-0.619546	-0.811746	0.724123
H103	H	-0.602196	-0.830678	0.870374
H104	H	-0.503491	-0.929252	0.921353
C105	C	-0.396849	-1.218443	0.804544
C106	C	-0.400754	-1.232724	0.720531
C107	C	-0.421585	-1.310129	0.691368
C108	C	-0.438510	-1.373254	0.746217
C109	C	-0.434605	-1.358976	0.830234
C110	C	-0.413775	-1.281570	0.859398
H111	H	-0.388224	-1.185993	0.679924
H112	H	-0.424475	-1.320699	0.629172
H113	H	-0.453930	-1.430555	0.724628
H114	H	-0.447135	-1.405706	0.870841
H115	H	-0.410884	-1.271000	0.921594
H116	H	-0.266236	-1.164986	0.904598
C117	C	-0.212694	-1.034425	0.804322
C118	C	-0.178593	-0.958695	0.823754
C119	C	-0.101231	-0.937960	0.794398
C120	C	-0.057969	-0.992955	0.745609
C121	C	-0.092069	-1.068690	0.726175
C122	C	-0.169431	-1.089424	0.755531
H123	H	-0.210618	-0.917981	0.859873
H124	H	-0.075988	-0.881896	0.808785
H125	H	-0.000701	-0.977606	0.723878
H126	H	-0.060044	-1.109404	0.690056
H127	H	-0.194674	-1.145488	0.741144
