data_functionalizedCrystal
_audit_creation_method	'MofGen! by Chris Wilmer'
_symmetry_space_group_name_H-M	'P1'
_symmetry_Int_Tables_number	1
_symmetry_cell_setting	triclinic
loop_
_symmetry_equiv_pos_as_xyz
  x,y,z
_cell_length_a	25.639242
_cell_length_b	18.215404
_cell_length_c	18.215399
_cell_angle_alpha	90.029924
_cell_angle_beta	89.974553
_cell_angle_gamma	89.980650
loop_
_atom_site_label
_atom_site_type_symbol
_atom_site_fract_x
_atom_site_fract_y
_atom_site_fract_z
Zn1	Zn	0.799296	0.293062	-0.416287
Zn2	Zn	0.799237	0.416139	-0.293222
Zn3	Zn	0.711867	0.293081	-0.293216
Zn4	Zn	0.711840	0.416082	-0.416228
O5	O	0.755560	0.354591	-0.354739
O6	O	0.872453	0.309404	-0.399990
O7	O	0.787634	0.399846	-0.190237
O8	O	0.723501	0.190094	-0.309564
O9	O	0.872410	0.399828	-0.309574
O10	O	0.787734	0.190080	-0.399984
O11	O	0.723444	0.309436	-0.190233
O12	O	0.638699	0.309381	-0.309507
O13	O	0.723455	0.399731	-0.519221
O14	O	0.638679	0.399750	-0.399883
O15	O	0.787708	0.309349	-0.519264
O16	O	0.787608	0.519115	-0.309517
O17	O	0.723398	0.519074	-0.399889
C18	C	0.619718	0.354562	-0.354689
C19	C	0.561604	0.354567	-0.354685
C20	C	0.755507	0.545797	-0.354713
C21	C	0.755533	0.627596	-0.354727
C22	C	0.755585	0.354532	-0.546692
C23	C	0.755595	0.354507	-0.628490
C24	C	0.201239	0.401724	-0.401753
C25	C	0.146635	0.401729	-0.401765
O26	O	0.118397	0.441787	-0.441741
N27	N	0.119321	0.354611	-0.354787
C28	C	0.146615	0.307481	-0.307799
O29	O	0.118368	0.267403	-0.267842
C30	C	0.201218	0.307473	-0.307792
C31	C	0.228529	0.354599	-0.354768
C32	C	0.228550	0.448846	-0.448726
C33	C	0.283150	0.448842	-0.448713
C34	C	0.310440	0.401717	-0.401727
C35	C	0.283129	0.354595	-0.354755
C36	C	0.228511	0.260339	-0.260809
C37	C	0.283118	0.260335	-0.260806
C38	C	0.310428	0.307461	-0.307781
C39	C	0.365020	0.307466	-0.307757
N40	N	0.392333	0.354584	-0.354735
C41	C	0.365043	0.401709	-0.401720
C42	C	0.031944	0.307499	-0.307819
C43	C	-0.022658	0.307510	-0.307822
C44	C	-0.022634	0.401758	-0.401789
C45	C	0.031969	0.401750	-0.401781
C46	C	0.059258	0.354617	-0.354797
C47	C	0.479708	0.401698	-0.401689
C48	C	0.534314	0.401692	-0.401670
C49	C	0.534285	0.307443	-0.307707
C50	C	0.479685	0.307451	-0.307723
C51	C	0.452398	0.354581	-0.354720
O52	O	0.393292	0.267426	-0.267802
O53	O	0.393296	0.441773	-0.441677
C54	C	0.891933	0.354620	-0.354789
C55	C	0.950047	0.354633	-0.354811
C56	C	0.789048	0.815787	-0.307767
C57	C	0.789072	0.892646	-0.307789
C58	C	0.722152	0.892642	-0.401816
C59	C	0.722131	0.815785	-0.401797
C60	C	0.755578	0.777359	-0.354769
C61	C	0.755624	0.931075	-0.354809
C62	C	0.755650	1.014409	-0.354833
C63	C	0.755553	0.694020	-0.354745
C64	C	0.755631	1.162638	-0.354793
C65	C	0.755669	1.080839	-0.354851
C66	C	0.722200	0.307399	-0.816683
C67	C	0.722209	0.307384	-0.893542
C68	C	0.789054	0.401527	-0.893536
C69	C	0.789041	0.401545	-0.816678
C70	C	0.755615	0.354477	-0.778254
C71	C	0.755637	0.354444	-0.931970
C72	C	0.755647	0.354428	-1.015304
C73	C	0.755604	0.354493	-0.694915
C74	C	0.755566	0.354596	-0.163532
C75	C	0.755656	0.354414	-0.081734
H76	H	0.457498	0.440074	-0.439961
H77	H	-0.044890	0.269143	-0.269562
O78	O	0.309647	0.214472	-0.215265
C79	C	0.371330	0.115119	-0.205519
C80	C	0.341311	0.166998	-0.257178
H81	H	0.396946	0.076734	-0.239384
H82	H	0.342449	0.081390	-0.171963
H83	H	0.396847	0.148870	-0.166954
H84	H	0.315794	0.133305	-0.295787
H85	H	0.370220	0.200730	-0.290682
H86	H	0.457447	0.269078	-0.269470
H87	H	0.816328	0.923930	-0.269516
H88	H	0.694876	0.784495	-0.440075
O89	O	0.821529	0.447178	-0.779262
C90	C	0.892119	0.457109	-0.692535
C91	C	0.855356	0.405349	-0.734849
H92	H	0.919485	0.423311	-0.656628
H93	H	0.868123	0.495581	-0.656485
H94	H	0.915990	0.490760	-0.733212
H95	H	0.831477	0.371650	-0.694225
H96	H	0.879383	0.366926	-0.770910
H97	H	0.816283	0.784503	-0.269474
O98	O	0.309595	0.494639	-0.494420
C99	C	0.303835	0.588145	-0.587596
C100	C	0.273827	0.536305	-0.535877
H101	H	0.274930	0.621857	-0.621116
H102	H	0.329405	0.554439	-0.626184
H103	H	0.329394	0.626555	-0.553732
H104	H	0.248240	0.497885	-0.569681
H105	H	0.248290	0.570057	-0.497286
H106	H	0.206336	0.487221	-0.486991
H107	H	0.556548	0.440071	-0.439924
H108	H	0.694982	0.269073	-0.785400
H109	H	0.694920	0.923938	-0.440104
H110	H	0.206283	0.221966	-0.222554
H111	H	0.694998	0.269049	-0.924828
O112	O	0.058415	0.447547	-0.447487
C113	C	0.052661	0.541059	-0.540657
C114	C	0.022649	0.489219	-0.488941
H115	H	0.023757	0.574775	-0.574175
H116	H	0.078229	0.507352	-0.579248
H117	H	0.078221	0.579464	-0.506791
H118	H	-0.002939	0.450803	-0.522748
H119	H	-0.002886	0.522972	-0.450349
O120	O	-0.049230	0.447463	-0.447413
C121	C	-0.133346	0.489256	-0.489036
C122	C	-0.103290	0.437450	-0.437346
H123	H	-0.177059	0.481189	-0.480904
H124	H	-0.122625	0.476401	-0.548415
H125	H	-0.122599	0.548575	-0.476020
H126	H	-0.114021	0.378113	-0.450296
H127	H	-0.114014	0.450368	-0.377983
O128	O	0.821580	0.447138	-0.930896
C129	C	0.892160	0.457030	-1.017724
C130	C	0.855363	0.405293	-0.975448
H131	H	0.919474	0.423220	-1.053765
H132	H	0.916079	0.490670	-0.977087
H133	H	0.868137	0.495511	-1.053656
H134	H	0.879345	0.366767	-0.939514
H135	H	0.831442	0.371704	-1.016124
O136	O	0.058370	0.261696	-0.262097
C137	C	0.052572	0.168193	-0.168921
C138	C	0.022584	0.220038	-0.220650
H139	H	0.023652	0.134488	-0.135409
H140	H	0.078098	0.201895	-0.130326
H141	H	0.078171	0.129777	-0.202776
H142	H	-0.003043	0.258465	-0.186854
H143	H	-0.002910	0.186291	-0.259248
O144	O	0.560881	0.261689	-0.262138
C145	C	0.644997	0.219945	-0.220466
C146	C	0.614941	0.271791	-0.272116
H147	H	0.688710	0.228106	-0.228504
H148	H	0.634318	0.160605	-0.233503
H149	H	0.634207	0.232779	-0.161108
H150	H	0.625715	0.259024	-0.331491
H151	H	0.625622	0.331116	-0.259016
