data_functionalizedCrystal
_audit_creation_method	'MofGen! by Chris Wilmer'
_symmetry_space_group_name_H-M	'P1'
_symmetry_Int_Tables_number	1
_symmetry_cell_setting	triclinic
loop_
_symmetry_equiv_pos_as_xyz
  x,y,z
_cell_length_a	27.732048
_cell_length_b	26.809956
_cell_length_c	14.519709
_cell_angle_alpha	90.003406
_cell_angle_beta	96.838600
_cell_angle_gamma	90.003258
loop_
_atom_site_label
_atom_site_type_symbol
_atom_site_fract_x
_atom_site_fract_y
_atom_site_fract_z
O1	O	0.641455	0.041416	-0.109718
O2	O	0.500742	0.041432	-0.126403
O3	O	0.574829	0.041419	0.016243
O4	O	0.567368	0.041429	-0.252364
O5	O	0.574815	-0.041540	0.016221
O6	O	0.500728	-0.041528	-0.126425
O7	O	0.641441	-0.041543	-0.109740
Zn8	Zn	0.571082	-0.054707	-0.118086
Zn9	Zn	0.571101	0.054596	-0.118057
O10	O	0.567354	-0.041530	-0.252386
C11	C	0.482726	-0.000046	-0.126064
C12	C	0.429066	-0.000040	-0.125009
C13	C	0.090622	-0.000059	-0.202664
C14	C	-0.111056	-0.000064	-0.198751
O15	O	-0.141972	-0.000083	-0.269761
N16	N	-0.130584	-0.000066	-0.114168
C17	C	-0.099689	-0.000070	-0.030557
O18	O	-0.120926	-0.000077	0.041476
C19	C	0.101988	-0.000069	-0.034471
C20	C	0.121513	-0.000062	-0.119060
C21	C	0.110148	-0.000052	-0.287246
C22	C	0.160564	-0.000049	-0.288223
C23	C	0.191455	-0.000051	-0.204619
C24	C	0.171930	-0.000058	-0.120037
C25	C	0.132882	-0.000077	0.049139
C26	C	0.183304	-0.000078	0.048153
C27	C	0.202829	-0.000071	-0.036436
C28	C	0.253238	-0.000057	-0.037410
N29	N	0.272766	-0.000055	-0.121993
C30	C	0.241875	-0.000052	-0.205597
C31	C	-0.205573	-0.000070	-0.028508
C32	C	-0.255992	-0.000069	-0.027530
C33	C	-0.267356	-0.000064	-0.195724
C34	C	-0.216936	-0.000061	-0.196702
C35	C	-0.186045	-0.000068	-0.113091
C36	C	0.347754	-0.000043	-0.207643
C37	C	0.398175	-0.000038	-0.208613
C38	C	0.409534	-0.000046	-0.040420
C39	C	0.359117	-0.000049	-0.039449
C40	C	0.328227	-0.000050	-0.123069
O41	O	0.284182	-0.000044	0.033562
O42	O	0.263121	-0.000056	-0.277620
C43	C	0.040206	-0.000063	-0.201687
C44	C	0.020680	-0.000070	-0.117105
C45	C	0.051571	-0.000073	-0.033501
C46	C	-0.029739	-0.000069	-0.116126
C47	C	-0.060630	-0.000066	-0.199731
C48	C	-0.041102	-0.000064	-0.284314
C49	C	0.009315	-0.000060	-0.285291
C50	C	0.032043	-0.000075	0.051082
C51	C	-0.018374	-0.000078	0.052053
C52	C	-0.049265	-0.000075	-0.031552
N53	N	0.571073	-0.129303	-0.118105
C54	C	0.603903	-0.473934	-0.054909
C55	C	0.603914	-0.682812	-0.054895
O56	O	0.631807	-0.709821	-0.001170
N57	N	0.571103	-0.708930	-0.118037
C58	C	0.538285	-0.682825	-0.181183
O59	O	0.510375	-0.709833	-0.234882
C60	C	0.538272	-0.473948	-0.181192
C61	C	0.571088	-0.447833	-0.118052
C62	C	0.636716	-0.447819	0.008226
C63	C	0.636714	-0.395603	0.008219
C64	C	0.603900	-0.369502	-0.054924
C65	C	0.571087	-0.395617	-0.118060
C66	C	0.505452	-0.447844	-0.244332
C67	C	0.505451	-0.395622	-0.244328
C68	C	0.538267	-0.369507	-0.181188
C69	C	0.538271	-0.317299	-0.181210
N70	N	0.571081	-0.291182	-0.118068
C71	C	0.603896	-0.317283	-0.054925
C72	C	0.538295	-0.792488	-0.181175
C73	C	0.538299	-0.844707	-0.181174
C74	C	0.603927	-0.844691	-0.054885
C75	C	0.603925	-0.792471	-0.054891
C76	C	0.571106	-0.766370	-0.118033
C77	C	0.603891	-0.207625	-0.054946
C78	C	0.603888	-0.155404	-0.054962
C79	C	0.538258	-0.155425	-0.181247
C80	C	0.538263	-0.207641	-0.181235
C81	C	0.571081	-0.233740	-0.118077
O82	O	0.510389	-0.290259	-0.234900
O83	O	0.631795	-0.290266	-0.001220
C84	C	0.603904	-0.526151	-0.054902
C85	C	0.571091	-0.552266	-0.118037
C86	C	0.538276	-0.526165	-0.181180
C87	C	0.571095	-0.604485	-0.118036
C88	C	0.603909	-0.630586	-0.054893
C89	C	0.636720	-0.604468	0.008249
C90	C	0.636718	-0.552252	0.008241
C91	C	0.505466	-0.552282	-0.244322
C92	C	0.505470	-0.604499	-0.244310
C93	C	0.538285	-0.630600	-0.181167
C94	C	0.659457	-0.000064	-0.110079
C95	C	0.713117	-0.000066	-0.111134
C96	C	0.574475	-0.000060	0.050586
C97	C	0.573433	-0.000061	0.152949
N98	N	0.571114	0.129192	-0.118031
C99	C	0.567708	-0.000049	-0.286729
C100	C	0.568751	-0.000046	-0.389092
C101	C	0.569596	-0.000047	0.527778
C102	C	0.570662	-0.000051	0.423488
C103	C	0.571514	-0.000054	0.340367
C104	C	0.572580	-0.000057	0.236071
H105	H	-0.066263	-0.000060	-0.352387
H106	H	-0.034266	-0.000080	0.120940
H107	H	0.025207	-0.000055	-0.354171
H108	H	0.663437	-0.469066	0.059649
N109	N	0.442855	-0.000052	0.049752
H110	H	0.464031	0.030700	0.053106
H111	H	0.463992	-0.030826	0.053020
H112	H	0.630612	-0.134143	-0.003546
H113	H	0.057190	-0.000078	0.119165
N114	N	0.639289	-0.235769	0.013166
H115	H	0.660075	-0.211296	0.053153
H116	H	0.660687	-0.257433	-0.021863
H117	H	0.511542	-0.134165	-0.232660
N118	N	0.672107	-0.367439	0.076323
H119	H	0.692891	-0.391905	0.116321
H120	H	0.653568	-0.345775	0.116853
N121	N	0.672114	-0.632627	0.076349
H122	H	0.666495	-0.623539	0.141732
H123	H	0.706411	-0.623528	0.066095
H124	H	0.630647	-0.771211	-0.003477
N125	N	0.639322	-0.872847	0.013220
H126	H	0.634341	-0.909890	0.003634
H127	H	0.633680	-0.863720	0.078569
H128	H	0.478724	-0.374374	-0.295745
H129	H	0.511582	-0.865967	-0.232597
N130	N	0.338050	-0.000059	0.051778
H131	H	0.317380	0.030689	0.055945
H132	H	0.365296	-0.000079	0.104543
N133	N	-0.195883	-0.000058	-0.287940
H134	H	-0.175222	-0.030811	-0.292109
H135	H	-0.175239	0.030715	-0.292038
N136	N	0.502893	-0.764341	-0.249279
H137	H	0.482112	-0.788815	-0.289273
H138	H	0.521426	-0.742673	-0.289813
N139	N	0.470049	-0.476003	-0.312419
H140	H	0.449260	-0.451537	-0.352405
H141	H	0.448656	-0.497663	-0.277374
N142	N	0.502877	-0.235812	-0.249348
H143	H	0.482092	-0.211351	-0.289354
H144	H	0.481478	-0.257477	-0.214324
N145	N	0.672113	-0.524088	0.076342
H146	H	0.692898	-0.548554	0.116339
H147	H	0.653577	-0.502423	0.116873
N148	N	-0.300680	-0.000094	-0.285897
H149	H	-0.280664	-0.000104	-0.339636
H150	H	-0.321859	0.030650	-0.289184
N151	N	-0.277049	-0.000068	0.063704
H152	H	-0.249824	-0.000071	0.116514
H153	H	-0.297722	-0.030822	0.067769
N154	N	0.470072	-0.632663	-0.312412
H155	H	0.449284	-0.608199	-0.352406
H156	H	0.448677	-0.654324	-0.277372
N157	N	0.470069	-0.524135	-0.312424
H158	H	0.449286	-0.548608	-0.352416
H159	H	0.488603	-0.502470	-0.352959
H160	H	0.414069	-0.000031	-0.277498
H161	H	0.176457	-0.000042	-0.357103
N162	N	0.314441	-0.000056	-0.297830
H163	H	0.334468	-0.000054	-0.351554
H164	H	0.293270	0.030694	-0.301098
H165	H	-0.180425	-0.000075	0.039581
N166	N	0.076847	-0.000052	-0.377443
H167	H	0.055676	0.030701	-0.380802
H168	H	0.055705	-0.030826	-0.380761
N169	N	0.111830	-0.000090	0.140373
H170	H	0.123093	0.030659	0.176983
H171	H	0.123098	-0.030867	0.176871
N172	N	0.216622	-0.000089	0.138334
H173	H	0.196599	-0.000094	0.192062
H174	H	0.237790	0.030666	0.141608
