data_functionalizedCrystal
_audit_creation_method	'MofGen! by Chris Wilmer'
_symmetry_space_group_name_H-M	'P1'
_symmetry_Int_Tables_number	1
_symmetry_cell_setting	triclinic
loop_
_symmetry_equiv_pos_as_xyz
  x,y,z
_cell_length_a	21.295417
_cell_length_b	12.645331
_cell_length_c	21.295412
_cell_angle_alpha	89.990320
_cell_angle_beta	89.968813
_cell_angle_gamma	90.029742
loop_
_atom_site_label
_atom_site_type_symbol
_atom_site_fract_x
_atom_site_fract_y
_atom_site_fract_z
Zn1	Zn	-0.250635	1.620573	-0.355798
Zn2	Zn	0.249365	2.120573	0.144202
Zn3	Zn	-0.355904	1.620434	-0.250523
Zn4	Zn	0.144096	2.120434	0.249477
Zn5	Zn	-0.250651	1.443307	-0.250555
Zn6	Zn	0.249349	1.943307	0.249445
Zn7	Zn	-0.355868	1.443230	-0.355767
Zn8	Zn	0.144132	1.943230	0.144233
O9	O	-0.303265	1.531886	-0.303161
O10	O	0.196735	2.031886	0.196839
O11	O	-0.264607	1.768902	-0.341832
O12	O	0.235393	2.268902	0.158168
O13	O	-0.341964	1.596912	-0.162438
O14	O	0.158036	2.096912	0.337562
O15	O	-0.162560	1.466912	-0.264542
O16	O	0.337440	1.966912	0.235458
O17	O	-0.341948	1.768800	-0.264487
O18	O	0.158052	2.268800	0.235513
O19	O	-0.162547	1.597149	-0.341863
O20	O	0.337453	2.097149	0.158137
O21	O	-0.264635	1.466777	-0.162462
O22	O	0.235365	1.966777	0.337538
O23	O	-0.264601	1.294949	-0.264513
O24	O	0.235399	1.794949	0.235487
O25	O	-0.341887	1.466781	-0.443861
O26	O	0.158113	1.966781	0.056139
O27	O	-0.341903	1.294893	-0.341811
O28	O	0.158097	1.794893	0.158189
O29	O	-0.264572	1.597075	-0.443883
O30	O	0.235428	2.097075	0.056117
O31	O	-0.443989	1.596837	-0.264458
O32	O	0.056011	2.096837	0.235542
O33	O	-0.443963	1.466646	-0.341780
O34	O	0.056037	1.966646	0.158220
C35	C	-0.303250	1.256456	-0.303162
C36	C	0.196750	1.756456	0.196838
C37	C	-0.303259	1.138626	-0.303178
C38	C	0.196741	1.638626	0.196822
C39	C	-0.352157	0.971062	-0.351553
C40	C	0.147843	1.471062	0.148447
C41	C	-0.351999	1.093622	-0.351756
C42	C	0.148001	1.593622	0.148244
C43	C	-0.236959	1.094170	-0.321312
C44	C	0.263041	1.594170	0.178688
C45	C	-0.237257	0.971572	-0.321653
C46	C	0.262743	1.471572	0.178347
C47	C	-0.320128	0.971386	-0.236515
C48	C	0.179872	1.471386	0.263485
C49	C	-0.321578	1.093992	-0.236875
C50	C	0.178422	1.593992	0.263125
C51	C	-0.466816	1.531747	-0.303126
C52	C	0.033184	2.031747	0.196874
C53	C	-0.536784	1.531785	-0.303132
C54	C	-0.036784	2.031785	0.196868
C55	C	-0.569644	1.599635	-0.262912
C56	C	-0.069644	2.099635	0.237088
C57	C	-0.635386	1.599685	-0.262926
C58	C	-0.135386	2.099685	0.237074
C59	C	-0.668267	1.531865	-0.303154
C60	C	-0.168267	2.031865	0.196846
C61	C	-0.635399	1.464010	-0.343382
C62	C	-0.135399	1.964010	0.156618
C63	C	-0.569658	1.463969	-0.343371
C64	C	-0.069658	1.963969	0.156629
N65	N	-0.771532	1.439128	-0.307953
N66	N	-0.271532	1.939128	0.192047
N67	N	-0.833983	1.439169	-0.307960
N68	N	-0.333983	1.939169	0.192040
C69	C	-0.866341	1.531984	-0.303190
C70	C	-0.366341	2.031984	0.196810
N71	N	-0.833889	1.624758	-0.298401
N72	N	-0.333889	2.124758	0.201599
N73	N	-0.771432	1.624715	-0.298391
N74	N	-0.271432	2.124715	0.201609
C75	C	-0.739552	1.531902	-0.303170
C76	C	-0.239552	2.031902	0.196830
C77	C	-0.970486	1.599894	-0.262983
C78	C	-0.470486	2.099894	0.237017
C79	C	-1.036230	1.599946	-0.263001
C80	C	-0.536230	2.099946	0.236999
C81	C	-1.036242	1.464261	-0.343454
C82	C	-0.536242	1.964261	0.156546
C83	C	-0.970500	1.464219	-0.343439
C84	C	-0.470500	1.964219	0.156561
C85	C	-0.937626	1.532034	-0.303200
C86	C	-0.437626	2.032034	0.196800
C87	C	-0.139074	1.532054	-0.303210
C88	C	0.360926	2.032054	0.196790
C89	C	-0.069106	1.532126	-0.303230
C90	C	0.430894	2.032126	0.196770
C91	C	-0.303224	1.531935	-0.467351
C92	C	0.196776	2.031935	0.032649
C93	C	-0.303207	1.531956	-0.537319
C94	C	0.196793	2.031956	-0.037319
C95	C	-0.303279	1.808391	-0.303160
C96	C	0.196721	2.308391	0.196840
C97	C	-0.303286	1.926221	-0.303159
C98	C	0.196714	2.426221	0.196841
C99	C	-0.262849	1.599900	-1.036790
C100	C	0.237151	2.099900	-0.536790
C101	C	-0.262864	1.599892	-0.971048
C102	C	0.237136	2.099892	-0.471048
C103	C	-0.303123	1.532048	-0.938159
C104	C	0.196877	2.032048	-0.438159
C105	C	-0.343382	1.464226	-0.971018
C106	C	0.156618	1.964226	-0.471018
C107	C	-0.343370	1.464244	-1.036760
C108	C	0.156630	1.964244	-0.536760
N109	N	-0.307966	1.439220	-0.834937
N110	N	0.192034	1.939220	-0.334937
N111	N	-0.307974	1.439207	-0.772485
N112	N	0.192026	1.939207	-0.272485
C113	C	-0.303163	1.531992	-0.740084
C114	C	0.196837	2.031992	-0.240084
N115	N	-0.298331	1.624794	-0.772494
N116	N	0.201669	2.124794	-0.272494
N117	N	-0.298320	1.624806	-0.834951
N118	N	0.201680	2.124806	-0.334951
C119	C	-0.303141	1.532021	-0.866874
C120	C	0.196859	2.032021	-0.366874
C121	C	-0.262927	1.599806	-0.635947
C122	C	0.237073	2.099806	-0.135947
C123	C	-0.262946	1.599799	-0.570203
C124	C	0.237054	2.099799	-0.070203
C125	C	-0.343460	1.464124	-0.570175
C126	C	0.156540	1.964124	-0.070175
C127	C	-0.343444	1.464140	-0.635918
C128	C	0.156556	1.964140	-0.135918
C129	C	-0.303174	1.531979	-0.668800
C130	C	0.196826	2.031979	-0.168800
C131	C	-0.303260	1.531898	-0.139609
C132	C	0.196740	2.031898	0.360391
C133	C	-0.303100	1.532083	-0.069642
C134	C	0.196900	2.032083	0.430358
H135	H	-0.222971	0.942994	-0.370373
H136	H	0.277029	1.442994	0.129627
H137	H	-0.943719	1.655117	-0.230219
H138	H	-0.443719	2.155117	0.269781
H139	H	-0.199540	0.941911	-0.288022
H140	H	0.300460	1.441911	0.211978
N141	N	-0.338010	1.130472	-0.413694
N142	N	0.161990	1.630472	0.086306
N143	N	-0.376622	1.187121	-0.442341
N144	N	0.123378	1.687121	0.057659
H145	H	-0.366738	1.213151	-0.486086
H146	H	0.133262	1.713151	0.013914
N147	N	-0.384484	1.394974	-1.070329
N148	N	0.115516	1.894974	-0.570329
N149	N	-0.424588	1.432243	-1.107003
N150	N	0.075412	1.932243	-0.607003
H151	H	-0.453624	1.383320	-1.130714
H152	H	0.046376	1.883320	-0.630714
H153	H	-0.341155	0.940267	-0.400646
H154	H	0.158845	1.440267	0.099354
N155	N	-0.280150	1.132393	-0.189215
N156	N	0.219850	1.632393	0.310785
N157	N	-0.248454	1.068805	-0.157388
N158	N	0.251546	1.568805	0.342612
H159	H	-0.219189	1.095924	-0.123730
H160	H	0.280811	1.595924	0.376270
N161	N	-0.221730	1.669217	-1.070378
N162	N	0.278270	2.169217	-0.570378
N163	N	-0.243875	1.736761	-1.107052
N164	N	0.256125	2.236761	-0.607052
H165	H	-0.214836	1.785719	-1.130775
H166	H	0.285164	2.285719	-0.630775
N167	N	-0.190042	1.130742	-0.278472
N168	N	0.309958	1.630742	0.221528
N169	N	-0.204982	1.190123	-0.233992
N170	N	0.295018	1.690123	0.266008
H171	H	-0.171849	1.215953	-0.203735
H172	H	0.328151	1.715953	0.296265
H173	H	-0.222413	1.124892	-0.369504
H174	H	0.277587	1.624892	0.130496
H175	H	-1.062983	1.655204	-0.230250
H176	H	-0.562983	2.155204	0.269750
H177	H	-0.662175	1.408792	-0.376137
H178	H	-0.162175	1.908792	0.123863
N179	N	-0.379736	0.932550	-0.215839
N180	N	0.120264	1.432550	0.284161
N181	N	-0.410532	0.871105	-0.249976
N182	N	0.089468	1.371105	0.250024
H183	H	-0.452632	0.843674	-0.235380
H184	H	0.047368	1.343674	0.264620
N185	N	-0.382788	1.130438	-0.219729
N186	N	0.117212	1.630438	0.280271
N187	N	-0.412843	1.189071	-0.256170
N188	N	0.087157	1.689071	0.243830
H189	H	-0.456074	1.214817	-0.244063
H190	H	0.043926	1.714817	0.255937
H191	H	-0.230171	1.655032	-0.543457
H192	H	0.269829	2.155032	-0.043457
N193	N	-0.384554	1.394872	-0.669491
N194	N	0.115446	1.894872	-0.169491
N195	N	-0.424658	1.432147	-0.706163
N196	N	0.075342	1.932147	-0.206163
H197	H	-0.453695	1.383228	-0.729875
H198	H	0.046305	1.883228	-0.229875
N199	N	-0.275462	0.935019	-0.191288
N200	N	0.224538	1.435019	0.308712
N201	N	-0.231400	0.876095	-0.207978
N202	N	0.268600	1.376095	0.292022
H203	H	-0.199850	0.850410	-0.176042
H204	H	0.300150	1.350410	0.323958
H205	H	-0.542904	1.408716	-0.376125
H206	H	-0.042904	1.908716	0.123875
H207	H	-1.063013	1.409045	-0.376212
H208	H	-0.563013	1.909045	0.123788
H209	H	-0.542879	1.654857	-0.230148
H210	H	-0.042879	2.154857	0.269852
N211	N	-0.668970	1.668976	-0.221836
N212	N	-0.168970	2.168976	0.278164
N213	N	-0.727667	1.668993	-0.221850
N214	N	-0.227667	2.168993	0.278150
H215	H	-0.751386	1.717927	-0.192829
H216	H	-0.251386	2.217927	0.307171
N217	N	-0.221735	1.669146	-0.937481
N218	N	0.278265	2.169146	-0.437481
N219	N	-0.181631	1.631856	-0.900814
N220	N	0.318369	2.131856	-0.400814
H221	H	-0.152582	1.680764	-0.877108
H222	H	0.347418	2.180764	-0.377108
N223	N	-0.384505	1.394937	-0.937417
N224	N	0.115495	1.894937	-0.437417
N225	N	-0.384510	1.394929	-0.878720
N226	N	0.115490	1.894929	-0.378720
H227	H	-0.413557	1.345995	-0.854988
H228	H	0.086443	1.845995	-0.354988
H229	H	-0.943744	1.408964	-0.376188
H230	H	-0.443744	1.908964	0.123812
H231	H	-0.230136	1.655044	-0.662721
H232	H	0.269864	2.155044	-0.162721
N233	N	-0.384576	1.394804	-0.536590
N234	N	0.115424	1.894804	-0.036590
N235	N	-0.380393	1.296991	-0.543935
N236	N	0.119607	1.796991	-0.043935
H237	H	-0.409433	1.248031	-0.520213
H238	H	0.090567	1.748031	-0.020213
H239	H	-0.401486	0.941554	-0.340312
H240	H	0.098514	1.441554	0.159688
N241	N	-0.413679	1.131318	-0.337498
N242	N	0.086321	1.631318	0.162502
N243	N	-0.457145	1.067081	-0.327330
N244	N	0.042855	1.567081	0.172670
H245	H	-0.500710	1.093697	-0.317263
H246	H	-0.000710	1.593697	0.182737
