data_functionalizedCrystal
_audit_creation_method	'MofGen! by Chris Wilmer'
_symmetry_space_group_name_H-M	'P1'
_symmetry_Int_Tables_number	1
_symmetry_cell_setting	triclinic
loop_
_symmetry_equiv_pos_as_xyz
  x,y,z
_cell_length_a	11.169416
_cell_length_b	21.395362
_cell_length_c	21.395356
_cell_angle_alpha	90.035770
_cell_angle_beta	89.981973
_cell_angle_gamma	89.973779
loop_
_atom_site_label
_atom_site_type_symbol
_atom_site_fract_x
_atom_site_fract_y
_atom_site_fract_z
Zn1	Zn	-0.477353	-0.957898	-0.354619
Zn2	Zn	-0.678049	-0.957852	-0.249855
Zn3	Zn	-0.477434	-0.853127	-0.249820
Zn4	Zn	-0.678049	-0.853119	-0.354560
O5	O	-0.577721	-0.905499	-0.302213
O6	O	-0.503942	-1.045569	-0.340761
O7	O	-0.651471	-0.943945	-0.162172
O8	O	-0.309474	-0.867048	-0.263732
O9	O	-0.651392	-1.045536	-0.263792
O10	O	-0.309414	-0.944022	-0.340727
O11	O	-0.504080	-0.867004	-0.162147
O12	O	-0.504080	-0.765448	-0.263675
O13	O	-0.651392	-0.867033	-0.442246
O14	O	-0.651470	-0.765442	-0.340626
O15	O	-0.503942	-0.944014	-0.442289
O16	O	-0.845999	-0.943937	-0.263734
O17	O	-0.845998	-0.866990	-0.340661
C18	C	-0.889546	-0.905474	-0.302209
C19	C	-1.022946	-0.905521	-0.302228
C20	C	-0.577785	-0.742711	-0.302141
C21	C	-0.577841	-0.673070	-0.302124
C22	C	-0.577658	-0.905528	-0.465637
C23	C	-0.577631	-0.905540	-0.535278
C24	C	-0.264679	-0.905541	-0.302232
C25	C	-0.131279	-0.905559	-0.302240
C26	C	-0.577658	-1.068922	-0.302287
C27	C	-0.577632	-1.138564	-0.302318
C28	C	-0.654689	-0.640370	-0.342133
C29	C	-0.654659	-0.574935	-0.342161
C30	C	-0.577795	-0.542202	-0.302169
C31	C	-0.500932	-0.574910	-0.262157
C32	C	-0.500955	-0.640344	-0.262135
C33	C	-0.568139	-0.438483	-0.245763
C34	C	-0.568125	-0.373050	-0.245784
C35	C	-0.577716	-0.340381	-0.302238
C36	C	-0.587348	-0.373153	-0.358673
C37	C	-0.587371	-0.438587	-0.358650
C38	C	-0.577760	-0.471249	-0.302189
C39	C	-0.654536	-0.236729	-0.342281
C40	C	-0.654499	-0.171292	-0.342310
C41	C	-0.500777	-0.171268	-0.262300
C42	C	-0.500809	-0.236704	-0.262277
C43	C	-0.577695	-0.269430	-0.302266
C44	C	-0.654126	-0.945673	-1.037088
C45	C	-0.654164	-0.945662	-0.971653
C46	C	-0.577441	-0.905600	-0.938917
C47	C	-0.500696	-0.865534	-0.971621
C48	C	-0.500668	-0.865542	-1.037055
C49	C	-0.469356	-0.900654	-0.835252
C50	C	-0.469381	-0.900651	-0.769819
C51	C	-0.577526	-0.905572	-0.737096
C52	C	-0.685649	-0.910509	-0.769813
C53	C	-0.685622	-0.910517	-0.835247
C54	C	-0.577463	-0.905586	-0.867964
C55	C	-0.654314	-0.945619	-0.633447
C56	C	-0.654354	-0.945604	-0.568010
C57	C	-0.500875	-0.865479	-0.567979
C58	C	-0.500845	-0.865491	-0.633415
C59	C	-0.577563	-0.905565	-0.666144
C60	C	-0.577697	-0.905506	-0.139426
C61	C	-0.577386	-0.905616	-0.069785
H62	H	-0.717238	-0.548305	-0.374744
C63	C	-0.416309	-0.821461	-0.935617
H64	H	-0.370608	-0.797600	-0.964464
H65	H	-0.364010	-0.845426	-0.910103
H66	H	-0.462260	-0.794154	-0.910077
H67	H	-0.438175	-0.832922	-1.063676
C68	C	-0.739053	-0.135322	-0.386313
H69	H	-0.784856	-0.164187	-0.410117
H70	H	-0.693226	-0.109834	-0.413667
H71	H	-0.791267	-0.109759	-0.362294
H72	H	-0.717294	-0.667012	-0.374697
H73	H	-0.773711	-0.914518	-0.743171
H74	H	-0.716599	-0.978303	-1.063733
C75	C	-0.804547	-0.915939	-0.871235
H76	H	-0.868963	-0.918864	-0.842379
H77	H	-0.802964	-0.952259	-0.896782
H78	H	-0.815091	-0.880026	-0.896739
C79	C	-0.739088	-0.272733	-0.386273
H80	H	-0.728107	-0.316387	-0.380524
H81	H	-0.721624	-0.262057	-0.428389
H82	H	-0.819705	-0.261972	-0.377036
H83	H	-0.381278	-0.896688	-0.861890
H84	H	-0.438187	-0.144618	-0.229741
H85	H	-0.438236	-0.263328	-0.229694
H86	H	-0.381341	-0.896634	-0.743186
H87	H	-0.716785	-0.978248	-0.660097
H88	H	-0.595210	-0.465267	-0.404601
C89	C	-0.557528	-0.337007	-0.183711
H90	H	-0.551796	-0.365834	-0.150087
H91	H	-0.626286	-0.311453	-0.178147
H92	H	-0.487944	-0.311506	-0.184600
H93	H	-0.595156	-0.346555	-0.404643
H94	H	-0.560324	-0.465077	-0.199789
H95	H	-0.438345	-0.548254	-0.229597
C96	C	-0.416425	-0.676315	-0.218120
H97	H	-0.370644	-0.647452	-0.194303
H98	H	-0.364207	-0.701885	-0.242123
H99	H	-0.462285	-0.701796	-0.190768
H100	H	-0.716641	-0.978291	-0.945026
C101	C	-0.738770	-0.989671	-0.532043
H102	H	-0.784444	-1.013541	-0.560910
H103	H	-0.791092	-0.965699	-0.506503
H104	H	-0.692842	-1.016971	-0.506534
C105	C	-0.416481	-0.821410	-0.531977
H106	H	-0.427483	-0.827144	-0.488323
H107	H	-0.434059	-0.779312	-0.542680
H108	H	-0.335829	-0.830595	-0.542709
H109	H	-0.438351	-0.832874	-0.660036
