data_functionalizedCrystal
_audit_creation_method	'MofGen! by Chris Wilmer'
_symmetry_space_group_name_H-M	'P1'
_symmetry_Int_Tables_number	1
_symmetry_cell_setting	triclinic
loop_
_symmetry_equiv_pos_as_xyz
  x,y,z
_cell_length_a	17.000383
_cell_length_b	17.019294
_cell_length_c	15.500227
_cell_angle_alpha	88.951630
_cell_angle_beta	87.377684
_cell_angle_gamma	79.506204
loop_
_atom_site_label
_atom_site_type_symbol
_atom_site_fract_x
_atom_site_fract_y
_atom_site_fract_z
O1	O	1.059871	0.024415	-0.073822
O2	O	1.393205	0.357749	0.259511
O3	O	1.726538	0.691082	0.592844
O4	O	0.828216	0.052930	-0.075935
O5	O	1.161549	0.386264	0.257398
O6	O	1.494882	0.719597	0.590732
O7	O	0.950068	-0.076142	-0.066321
O8	O	1.283401	0.257191	0.267012
O9	O	1.616735	0.590525	0.600346
O10	O	0.938019	0.153488	-0.083436
O11	O	1.271352	0.486821	0.249897
O12	O	1.604686	0.820155	0.583231
O13	O	0.942674	-0.068338	0.076986
O14	O	1.276007	0.264995	0.410320
O15	O	1.609340	0.598328	0.743653
O16	O	0.820821	0.060734	0.067373
O17	O	1.154155	0.394067	0.400706
O18	O	1.487488	0.727401	0.734039
O19	O	1.052477	0.032219	0.069485
O20	O	1.385810	0.365553	0.402819
O21	O	1.719144	0.698886	0.736152
Cu22	Cu	0.935974	0.047189	0.081514
Cu23	Cu	1.269307	0.380523	0.414847
Cu24	Cu	1.602641	0.713856	0.748181
Cu25	Cu	0.944719	0.037960	-0.087964
Cu26	Cu	1.278052	0.371294	0.245370
Cu27	Cu	1.611385	0.704627	0.578703
O28	O	0.930625	0.161292	0.059872
O29	O	1.263958	0.494625	0.393205
O30	O	1.597291	0.827958	0.726538
C31	C	0.794869	0.058364	-0.004394
C32	C	1.128202	0.391697	0.328940
C33	C	1.461536	0.725030	0.662273
C34	C	0.706523	0.062918	-0.004728
C35	C	1.039856	0.396251	0.328605
C36	C	1.373189	0.729584	0.661938
C37	C	0.206387	0.092320	-0.006952
C38	C	0.539720	0.425653	0.326381
C39	C	0.873053	0.758987	0.659714
C40	C	0.289398	0.088035	-0.006632
C41	C	0.622731	0.421369	0.326701
C42	C	0.956065	0.754702	0.660035
C43	C	0.340192	0.013661	-0.001082
C44	C	0.673525	0.346995	0.332251
C45	C	1.006858	0.680328	0.665584
C46	C	0.307970	-0.056433	0.004139
C47	C	0.641304	0.276901	0.337472
C48	C	0.974637	0.610234	0.670806
C49	C	0.224961	-0.052147	0.003813
C50	C	0.558294	0.281186	0.337146
C51	C	0.891628	0.614519	0.670479
C52	C	0.591292	-0.002891	0.000167
C53	C	0.924625	0.330442	0.333500
C54	C	1.257959	0.663775	0.666833
C55	C	0.674306	-0.007171	0.000495
C56	C	1.007640	0.326162	0.333828
C57	C	1.340973	0.659496	0.667162
C58	C	0.655728	0.137298	-0.010278
C59	C	0.989062	0.470631	0.323056
C60	C	1.322395	0.803964	0.656389
C61	C	0.572718	0.141576	-0.010598
C62	C	0.906051	0.474910	0.322735
C63	C	1.239384	0.808243	0.656068
C64	C	0.540504	0.071482	-0.005382
C65	C	0.873837	0.404816	0.327952
C66	C	1.207171	0.738149	0.661285
C67	C	0.425043	0.009280	-0.000752
C68	C	0.758376	0.342613	0.332581
C69	C	1.091709	0.675947	0.665914
C70	C	0.455655	0.075864	-0.005718
C71	C	0.788988	0.409197	0.327616
C72	C	1.122321	0.742531	0.660949
C73	C	0.945768	-0.101477	0.007510
C74	C	1.279102	0.231856	0.340843
C75	C	1.612435	0.565190	0.674177
C76	C	0.943963	-0.188592	0.013998
C77	C	1.277296	0.144741	0.347331
C78	C	1.610630	0.478075	0.680664
C79	C	0.947147	-0.233768	-0.061071
C80	C	1.280481	0.099565	0.272263
C81	C	1.613814	0.432899	0.605596
C82	C	0.945446	-0.315621	-0.054972
C83	C	1.278779	0.017713	0.278361
C84	C	1.612113	0.351046	0.611694
C85	C	0.940566	-0.352297	0.026196
C86	C	1.273899	-0.018963	0.359529
C87	C	1.607233	0.314370	0.692862
C88	C	0.937379	-0.307114	0.101269
C89	C	1.270712	0.026219	0.434603
C90	C	1.604046	0.359553	0.767936
C91	C	0.939075	-0.225262	0.095170
C92	C	1.272408	0.108072	0.428503
C93	C	1.605741	0.441405	0.761837
C94	C	0.935239	-0.599224	0.048520
C95	C	1.268572	-0.265891	0.381853
C96	C	1.601906	0.067443	0.715186
C97	C	0.933546	-0.681083	0.054614
C98	C	1.266879	-0.347749	0.387947
C99	C	1.600212	-0.014416	0.721280
C100	C	0.941611	-0.689584	-0.101629
C101	C	1.274945	-0.356250	0.231704
C102	C	1.608278	-0.022917	0.565038
C103	C	0.943312	-0.607730	-0.107721
C104	C	1.276645	-0.274397	0.225612
C105	C	1.609978	0.058936	0.558946
C106	C	0.940120	-0.562554	-0.032647
C107	C	1.273454	-0.229221	0.300686
C108	C	1.606787	0.104113	0.634019
C109	C	0.938829	-0.435964	0.032431
C110	C	1.272162	-0.102630	0.365764
C111	C	1.605496	0.230703	0.699098
C112	C	0.941851	-0.478887	-0.038884
C113	C	1.275185	-0.145554	0.294450
C114	C	1.608518	0.187779	0.627783
C115	C	1.085824	0.026786	-0.002058
C116	C	1.419157	0.360119	0.331276
C117	C	1.752491	0.693452	0.664609
C118	C	1.174171	0.022231	-0.001729
C119	C	1.507504	0.355565	0.331605
C120	C	1.840837	0.688898	0.664938
C121	C	0.934925	0.186626	-0.013961
C122	C	1.268258	0.519960	0.319372
C123	C	1.601591	0.853293	0.652705
C124	C	0.936730	0.273741	-0.020455
C125	C	1.270063	0.607074	0.312879
C126	C	1.603397	0.940408	0.646212
N127	N	0.929829	0.053679	0.200716
N128	N	1.263163	0.387013	0.534049
N129	N	1.596496	0.720346	0.867382
N130	N	0.950870	0.031464	-0.207165
N131	N	1.284203	0.364797	0.126169
N132	N	1.617536	0.698130	0.459502
C133	C	0.981480	-0.000996	0.250065
C134	C	1.314814	0.332338	0.583398
C135	C	1.648147	0.665671	0.916731
C136	C	0.976841	0.003920	0.340271
C137	C	1.310174	0.337253	0.673605
C138	C	1.643507	0.670586	1.006938
C139	C	0.920553	0.063514	0.381127
C140	C	1.253886	0.396847	0.714460
C141	C	1.587219	0.730180	1.047794
C142	C	0.868896	0.118191	0.331772
C143	C	1.202230	0.451525	0.665105
C144	C	1.535563	0.784858	0.998438
C145	C	0.873533	0.113272	0.241567
C146	C	1.206866	0.446605	0.574900
C147	C	1.540199	0.779939	0.908233
C148	C	0.903850	0.081222	0.653275
C149	C	1.237183	0.414555	0.986608
C150	C	1.570516	0.747889	1.319942
C151	C	0.899219	0.086139	0.743486
C152	C	1.232552	0.419472	1.076820
C153	C	1.565885	0.752805	1.410153
C154	C	1.007163	-0.028135	0.751980
C155	C	1.340496	0.305199	1.085313
C156	C	1.673829	0.638532	1.418647
C157	C	1.011797	-0.033046	0.661773
C158	C	1.345131	0.300287	0.995106
C159	C	1.678464	0.633621	1.328439
C160	C	0.960138	0.021629	0.612425
C161	C	1.293471	0.354962	0.945759
C162	C	1.626805	0.688296	1.279092
C163	C	0.915810	0.068541	0.473333
C164	C	1.249144	0.401874	0.806666
C165	C	1.582477	0.735207	1.139999
C166	C	0.964877	0.016598	0.520222
C167	C	1.298210	0.349931	0.853555
C168	C	1.631544	0.683265	1.186888
H169	H	0.565074	-0.059967	0.004417
H170	H	0.898407	0.273367	0.337750
H171	H	1.231741	0.606700	0.671084
H172	H	0.165035	0.152884	-0.011465
H173	H	0.498368	0.486217	0.321868
H174	H	0.831702	0.819551	0.655202
F175	F	1.041394	-0.064421	0.206591
F176	F	1.374727	0.268912	0.539925
F177	F	1.708061	0.602245	0.873258
F178	F	1.062137	-0.086322	0.804504
F179	F	1.395470	0.247012	1.137838
F180	F	1.728803	0.580345	1.471171
H181	H	1.018898	-0.040602	0.380451
H182	H	1.352232	0.292732	0.713784
H183	H	1.685565	0.626065	1.047118
H184	H	0.831472	0.157793	0.201387
H185	H	1.164805	0.491127	0.534721
H186	H	1.498139	0.824460	0.868054
H187	H	0.934858	-0.465835	0.098518
H188	H	1.268192	-0.132502	0.431852
H189	H	1.601525	0.200832	0.765185
F190	F	1.071705	-0.096471	0.618292
F191	F	1.405039	0.236862	0.951626
F192	F	1.738372	0.570195	1.284959
H193	H	0.932656	-0.562454	0.109651
H194	H	1.265989	-0.229121	0.442984
H195	H	1.599323	0.104213	0.776317
H196	H	0.349334	-0.116990	0.008653
H197	H	0.682667	0.216343	0.341986
H198	H	1.016000	0.549677	0.675319
F199	F	0.518665	0.220735	-0.016510
F200	F	0.851998	0.554069	0.316823
F201	F	1.185332	0.887402	0.650156
F202	F	0.401596	0.155015	-0.011629
F203	F	0.734929	0.488349	0.321704
F204	F	1.068262	0.821682	0.655037
H205	H	0.198733	-0.109221	0.008065
H206	H	0.532066	0.224112	0.341398
H207	H	0.865399	0.557445	0.674731
F208	F	0.855907	0.131966	0.516819
F209	F	1.189240	0.465299	0.850153
F210	F	1.522573	0.798633	1.183486
H211	H	1.010704	-0.031926	0.486955
H212	H	1.344037	0.301407	0.820288
H213	H	1.677371	0.634740	1.153621
F214	F	0.839307	0.149572	0.786962
F215	F	1.172640	0.482906	1.120295
F216	F	1.505973	0.816239	1.453629
H217	H	0.466408	-0.051275	0.003769
H218	H	0.799741	0.282058	0.337103
H219	H	1.133074	0.615391	0.670436
H220	H	0.315624	0.145109	-0.010894
H221	H	0.648957	0.478442	0.322440
H222	H	0.982291	0.811775	0.655773
F223	F	0.947047	-0.439853	-0.125266
F224	F	1.280380	-0.106520	0.208068
F225	F	1.613714	0.226814	0.541401
H226	H	0.681966	0.194364	-0.014526
H227	H	1.015299	0.527698	0.318807
H228	H	1.348633	0.861031	0.652140
F229	F	0.848873	0.139412	0.600763
F230	F	1.182206	0.472746	0.934096
F231	F	1.515539	0.806079	1.267429
H232	H	0.823061	0.166712	0.365042
H233	H	1.156395	0.500045	0.698375
H234	H	1.489728	0.833379	1.031708
H235	H	0.951126	-0.203914	-0.127166
H236	H	1.284459	0.129420	0.206167
H237	H	1.617792	0.462753	0.539500
F238	F	0.728364	-0.086334	0.006401
F239	F	1.061698	0.247000	0.339735
F240	F	1.395031	0.580333	0.673068
H241	H	0.936470	-0.188478	0.156299
H242	H	1.269804	0.144856	0.489632
H243	H	1.603137	0.478189	0.822965
F244	F	0.945007	-0.737669	-0.181522
F245	F	1.278340	-0.404336	0.151811
F246	F	1.611674	-0.071002	0.485145
H247	H	0.947287	-0.577875	-0.173816
H248	H	1.280620	-0.244542	0.159517
H249	H	1.613953	0.088792	0.492850
F250	F	0.948836	-0.363698	-0.134871
F251	F	1.282169	-0.030364	0.198462
F252	F	1.615503	0.302969	0.531796
F253	F	0.928356	-0.720115	0.141008
F254	F	1.261689	-0.386781	0.474341
F255	F	1.595022	-0.053448	0.807674
F256	F	0.932176	-0.346148	0.187655
F257	F	1.265509	-0.012814	0.520988
F258	F	1.598843	0.320519	0.854321
