data_functionalizedCrystal
_audit_creation_method	'MofGen! by Chris Wilmer'
_symmetry_space_group_name_H-M	'P1'
_symmetry_Int_Tables_number	1
_symmetry_cell_setting	triclinic
loop_
_symmetry_equiv_pos_as_xyz
  x,y,z
_cell_length_a	17.077402
_cell_length_b	17.077404
_cell_length_c	12.759393
_cell_angle_alpha	90.024093
_cell_angle_beta	89.965312
_cell_angle_gamma	89.983638
loop_
_atom_site_label
_atom_site_type_symbol
_atom_site_fract_x
_atom_site_fract_y
_atom_site_fract_z
Zn1	Zn	-0.312607	-1.200079	-0.594078
Zn2	Zn	0.187393	-0.700079	-0.094078
Zn3	Zn	-0.443893	-1.199979	-0.418385
Zn4	Zn	0.056107	-0.699979	0.081615
Zn5	Zn	-0.312630	-1.068804	-0.418403
Zn6	Zn	0.187370	-0.568804	0.081597
Zn7	Zn	-0.443820	-1.068779	-0.594013
Zn8	Zn	0.056180	-0.568779	-0.094013
O9	O	-0.378237	-1.134410	-0.506220
O10	O	0.121763	-0.634410	-0.006220
O11	O	-0.330043	-1.309913	-0.570791
O12	O	0.169957	-0.809913	-0.070791
O13	O	-0.426521	-1.182547	-0.271366
O14	O	0.073479	-0.682547	0.228634
O15	O	-0.202780	-1.086270	-0.441742
O16	O	0.297220	-0.586270	0.058258
O17	O	-0.426498	-1.309839	-0.441711
O18	O	0.073502	-0.809839	0.058289
O19	O	-0.202763	-1.182717	-0.570809
O20	O	0.297237	-0.682717	-0.070809
O21	O	-0.330083	-1.086173	-0.271380
O22	O	0.169917	-0.586173	0.228620
O23	O	-0.330012	-0.958953	-0.441679
O24	O	0.169988	-0.458953	0.058321
O25	O	-0.426373	-1.086228	-0.741042
O26	O	0.073627	-0.586228	-0.241042
O27	O	-0.426396	-0.958935	-0.570698
O28	O	0.073604	-0.458935	-0.070698
O29	O	-0.329972	-1.182693	-0.741090
O30	O	0.170028	-0.682693	-0.241090
O31	O	-0.553730	-1.182523	-0.441648
O32	O	-0.053730	-0.682523	0.058352
O33	O	-0.553676	-1.086130	-0.570680
O34	O	-0.053676	-0.586130	-0.070680
C35	C	-0.378199	-0.930462	-0.506184
C36	C	0.121801	-0.430462	-0.006184
C37	C	-0.378202	-0.843212	-0.506193
C38	C	0.121798	-0.343212	-0.006193
C39	C	-0.428515	-0.467409	-0.573306
C40	C	0.071485	0.032591	-0.073306
C41	C	-0.428507	-0.549390	-0.573293
C42	C	0.071493	-0.049390	-0.073293
C43	C	-0.378240	-0.590364	-0.506222
C44	C	0.121760	-0.090364	-0.006222
C45	C	-0.327983	-0.549353	-0.439152
C46	C	0.172017	-0.049353	0.060848
C47	C	-0.327995	-0.467374	-0.439162
C48	C	0.172005	0.032626	0.060838
C49	C	-0.327960	-0.720223	-0.439140
C50	C	0.172040	-0.220223	0.060860
C51	C	-0.327946	-0.802207	-0.439132
C52	C	0.172054	-0.302207	0.060868
C53	C	-0.428472	-0.802239	-0.573271
C54	C	0.071528	-0.302239	-0.073271
C55	C	-0.428484	-0.720260	-0.573280
C56	C	0.071516	-0.220260	-0.073280
C57	C	-0.378226	-0.679255	-0.506212
C58	C	0.121774	-0.179255	-0.006212
C59	C	-0.582185	-1.134334	-0.506178
C60	C	-0.082185	-0.634334	-0.006178
C61	C	-0.669435	-1.134374	-0.506195
C62	C	-0.169435	-0.634374	-0.006195
C63	C	-0.710427	-1.184616	-0.439080
C64	C	-0.210427	-0.684616	0.060920
C65	C	-0.792407	-1.184655	-0.439107
C66	C	-0.292407	-0.684655	0.060893
C67	C	-0.833394	-1.134446	-0.506244
C68	C	-0.333394	-0.634446	-0.006244
C69	C	-0.792396	-1.084201	-0.573367
C70	C	-0.292396	-0.584201	-0.073367
C71	C	-0.710418	-1.084167	-0.573344
C72	C	-0.210418	-0.584167	-0.073344
C73	C	-0.963266	-1.084274	-0.573407
C74	C	-0.463266	-0.584274	-0.073407
C75	C	-1.045251	-1.084306	-0.573428
C76	C	-0.545251	-0.584306	-0.073428
C77	C	-1.045256	-1.184761	-0.439169
C78	C	-0.545256	-0.684761	0.060831
C79	C	-0.963277	-1.184727	-0.439146
C80	C	-0.463277	-0.684727	0.060854
C81	C	-0.922285	-1.134481	-0.506268
C82	C	-0.422285	-0.634481	-0.006268
C83	C	-0.173493	-1.134508	-0.506285
C84	C	0.326507	-0.634508	-0.006285
C85	C	-0.086243	-1.134549	-0.506313
C86	C	0.413757	-0.634549	-0.006313
C87	C	-0.378162	-1.134469	-0.780253
C88	C	0.121838	-0.634469	-0.280253
C89	C	-0.378130	-1.134494	-0.897030
C90	C	0.121870	-0.634494	-0.397030
C91	C	-0.378268	-0.339154	-0.506249
C92	C	0.121732	0.160846	-0.006249
C93	C	-0.378260	-0.426404	-0.506245
C94	C	0.121740	0.073596	-0.006245
C95	C	-0.327926	-1.184727	-0.951919
C96	C	0.172074	-0.684727	-0.451919
C97	C	-0.327892	-1.184741	-1.061643
C98	C	0.172108	-0.684741	-0.561643
C99	C	-0.428273	-1.084285	-1.061580
C100	C	0.071727	-0.584285	-0.561580
C101	C	-0.428302	-1.084268	-0.951858
C102	C	0.071698	-0.584268	-0.451858
C103	C	-0.378256	-1.134397	-0.233252
C104	C	0.121744	-0.634397	0.266748
C105	C	-0.378067	-1.134524	-0.116476
C106	C	0.121933	-0.634524	0.383524
H107	H	-0.287058	-0.582720	-0.384537
H108	H	0.212942	-0.082720	0.115463
N109	N	-0.482396	-1.030118	-1.120702
N110	N	0.017604	-0.530118	-0.620702
H111	H	-0.470194	-0.974037	-1.101590
H112	H	0.029806	-0.474037	-0.601590
H113	H	-0.474745	-1.037810	-1.198524
H114	H	0.025255	-0.537810	-0.698524
N115	N	-0.482438	-1.030069	-0.892647
N116	N	0.017562	-0.530069	-0.392647
H117	H	-0.514217	-0.998254	-0.944027
H118	H	-0.014217	-0.498254	-0.444027
H119	H	-0.518787	-1.061984	-0.847108
H120	H	-0.018787	-0.561984	-0.347108
H121	H	-0.825774	-1.043324	-0.628036
H122	H	-0.325774	-0.543324	-0.128036
H123	H	-0.469432	-0.582772	-0.627899
H124	H	0.030568	-0.082772	-0.127899
N125	N	-0.273750	-1.238922	-1.120854
N126	N	0.226250	-0.738922	-0.620854
H127	H	-0.237353	-1.207045	-1.166376
H128	H	0.262647	-0.707045	-0.666376
H129	H	-0.242022	-1.270727	-1.069409
H130	H	0.257978	-0.770727	-0.569409
N131	N	-1.089462	-1.238963	-0.366779
N132	N	-0.589462	-0.738963	0.133221
H133	H	-1.075251	-1.226791	-0.291693
H134	H	-0.575251	-0.726791	0.208307
H135	H	-1.147600	-1.231347	-0.377070
H136	H	-0.647600	-0.731347	0.122930
H137	H	-0.929906	-1.225607	-0.384473
H138	H	-0.429906	-0.725607	0.115527
H139	H	-0.469444	-0.434054	-0.627929
H140	H	0.030556	0.065946	-0.127929
N141	N	-0.273815	-1.238897	-0.892778
N142	N	0.226185	-0.738897	-0.392778
H143	H	-0.217720	-1.226739	-0.911880
H144	H	0.282280	-0.726739	-0.411880
H145	H	-0.281524	-1.231240	-0.814961
H146	H	0.218476	-0.731240	-0.314961
H147	H	-0.469413	-0.686901	-0.627900
H148	H	0.030587	-0.186901	-0.127900
H149	H	-0.469393	-0.835629	-0.627883
H150	H	0.030607	-0.335629	-0.127883
H151	H	-0.287007	-0.835566	-0.384527
H152	H	0.212993	-0.335566	0.115473
N153	N	-0.836621	-1.238845	-0.366718
N154	N	-0.336621	-0.738845	0.133282
H155	H	-0.798217	-1.270642	-0.324179
H156	H	-0.298217	-0.770642	0.175821
H157	H	-0.870688	-1.206923	-0.318071
H158	H	-0.370688	-0.706923	0.181929
H159	H	-0.287032	-0.686839	-0.384528
H160	H	0.212968	-0.186839	0.115472
H161	H	-0.677061	-1.225499	-0.384404
H162	H	-0.177061	-0.725499	0.115596
N163	N	-0.273795	-0.423143	-0.366827
N164	N	0.226205	0.076857	0.133173
H165	H	-0.241948	-0.461538	-0.324336
H166	H	0.258052	0.038462	0.175664
H167	H	-0.237512	-0.389148	-0.409682
H168	H	0.262488	0.110852	0.090318
N169	N	-1.089461	-1.030160	-0.645846
N170	N	-0.589461	-0.530160	-0.145846
H171	H	-1.123523	-0.993811	-0.603115
H172	H	-0.623523	-0.493811	-0.103115
H173	H	-1.051005	-0.998382	-0.688355
H174	H	-0.551005	-0.498382	-0.188355
N175	N	-0.919045	-1.030083	-0.645796
N176	N	-0.419045	-0.530083	-0.145796
H177	H	-0.933256	-1.042247	-0.720884
H178	H	-0.433256	-0.542247	-0.220884
H179	H	-0.933376	-0.974031	-0.629319
H180	H	-0.433376	-0.474031	-0.129319
N181	N	-0.666200	-1.029980	-0.645736
N182	N	-0.166200	-0.529980	-0.145736
H183	H	-0.704603	-0.998177	-0.688270
H184	H	-0.204603	-0.498177	-0.188270
H185	H	-0.632236	-0.993656	-0.602917
H186	H	-0.132236	-0.493656	-0.102917
