data_functionalizedCrystal
_audit_creation_method	'MofGen! by Chris Wilmer'
_symmetry_space_group_name_H-M	'P1'
_symmetry_Int_Tables_number	1
_symmetry_cell_setting	triclinic
loop_
_symmetry_equiv_pos_as_xyz
  x,y,z
_cell_length_a	14.044220
_cell_length_b	11.026607
_cell_length_c	9.482900
_cell_angle_alpha	78.599815
_cell_angle_beta	100.144013
_cell_angle_gamma	100.887447
loop_
_atom_site_label
_atom_site_type_symbol
_atom_site_fract_x
_atom_site_fract_y
_atom_site_fract_z
O1	O	-1.320299	-0.280364	-0.120726
O2	O	-1.042498	-0.269603	-0.120763
O3	O	-1.158374	-0.095838	-0.120742
O4	O	-1.204423	-0.454128	-0.120747
O5	O	-1.134863	-0.131288	0.121046
O6	O	-1.018987	-0.305053	0.121025
O7	O	-1.296788	-0.315814	0.121062
Cu8	Cu	-1.155741	-0.313670	0.143121
Cu9	Cu	-1.183545	-0.271746	-0.142822
O10	O	-1.180912	-0.489578	0.121042
C11	C	-0.994625	-0.282619	0.000126
C12	C	-0.887005	-0.268573	0.000112
C13	C	-1.138124	-0.067432	0.000149
C14	C	-1.112800	0.070024	0.000140
C15	C	-1.344661	-0.302797	0.000170
C16	C	-1.452283	-0.316842	0.000175
C17	C	-0.689959	-0.242902	0.000141
C18	C	-0.649321	-0.342507	0.000146
C19	C	-0.539679	-0.328224	0.000162
C20	C	-0.799612	-0.257184	0.000125
C21	C	-1.201163	-0.517984	0.000147
C22	C	-1.226487	-0.655439	0.000146
N23	N	-1.136192	-0.343157	0.344238
C24	C	-1.182724	0.136260	0.000148
C25	C	-1.156553	0.278328	0.000139
N26	N	-1.203100	-0.242250	-0.343938
C27	C	-1.177771	-0.280436	0.416444
C28	C	-1.161515	-0.304980	0.583859
H29	H	-0.696874	-0.438509	0.000137
C30	C	-1.332136	0.279825	-0.000065
C31	C	-1.362808	0.224179	-0.124438
C32	C	-1.460119	0.164521	-0.124672
H33	H	-1.372721	0.339680	-0.000136
H34	H	-1.336750	0.217226	0.084211
H35	H	-1.358202	0.286771	-0.208692
H36	H	-1.322249	0.164306	-0.124393
H37	H	-1.464733	0.101922	-0.040397
H38	H	-1.500696	0.224384	-0.124739
H39	H	-1.480940	0.126748	-0.209050
C40	C	-1.097823	-0.400645	0.666596
C41	C	-1.003042	-0.365190	0.629719
C42	C	-0.944340	-0.453273	0.705924
H43	H	-1.124835	-0.480682	0.641788
H44	H	-1.095270	-0.404392	0.768124
H45	H	-1.005598	-0.361457	0.528214
H46	H	-0.976001	-0.285167	0.654531
H47	H	-0.941787	-0.457019	0.807451
H48	H	-0.971361	-0.533304	0.681110
H49	H	-0.880023	-0.429222	0.680924
C50	C	-1.266369	-0.146219	0.572990
C51	C	-1.269777	-0.140805	0.423455
C52	C	-1.327944	-0.052239	0.346886
H53	H	-1.239083	-0.066278	0.597871
H54	H	-1.330812	-0.169773	0.597588
H55	H	-1.205346	-0.117245	0.398867
H56	H	-1.297071	-0.220723	0.398531
H57	H	-1.392388	-0.075792	0.371484
H58	H	-1.300653	0.027695	0.371779
H59	H	-1.330272	-0.048562	0.245419
C60	C	-1.072503	-0.438817	0.426980
C61	C	-0.977723	-0.403362	0.390104
C62	C	-0.919020	-0.491445	0.466308
H63	H	-1.099515	-0.518854	0.402172
H64	H	-1.069950	-0.442564	0.528508
H65	H	-0.980279	-0.399629	0.288598
H66	H	-0.950682	-0.323339	0.414915
H67	H	-0.916468	-0.495192	0.567836
H68	H	-0.946041	-0.571476	0.441494
H69	H	-0.854703	-0.467395	0.441308
H70	H	-1.261963	0.087788	0.000167
C71	C	-0.626701	-0.114789	-0.000093
C72	C	-0.658660	-0.032501	-0.124480
C73	C	-0.600407	0.085530	-0.124743
H74	H	-0.560351	-0.121896	-0.000162
H75	H	-0.631873	-0.083424	0.084173
H76	H	-0.653479	-0.063859	-0.208724
H77	H	-0.725002	-0.025357	-0.124437
H78	H	-0.605579	0.116895	-0.040477
H79	H	-0.534060	0.078410	-0.124808
H80	H	-0.622089	0.141379	-0.209130
H81	H	-1.077309	0.326795	0.000119
H82	H	-1.033562	0.118496	0.000120
H83	H	-1.225400	-0.208563	0.354325
