data_functionalizedCrystal
_audit_creation_method	'MofGen! by Chris Wilmer'
_symmetry_space_group_name_H-M	'P1'
_symmetry_Int_Tables_number	1
_symmetry_cell_setting	triclinic
loop_
_symmetry_equiv_pos_as_xyz
  x,y,z
_cell_length_a	14.853567
_cell_length_b	15.944551
_cell_length_c	13.930277
_cell_angle_alpha	89.994493
_cell_angle_beta	89.995755
_cell_angle_gamma	83.566834
loop_
_atom_site_label
_atom_site_type_symbol
_atom_site_fract_x
_atom_site_fract_y
_atom_site_fract_z
O1	O	1.196228	0.109664	-0.079767
O2	O	0.933751	0.122728	-0.079783
O3	O	1.072157	-0.006071	-0.079766
O4	O	1.057822	0.238463	-0.079784
O5	O	1.072138	-0.006073	0.079896
O6	O	0.933732	0.122725	0.079878
O7	O	1.196208	0.109662	0.079895
Zn8	Zn	1.064967	0.116193	0.105236
Zn9	Zn	1.064993	0.116197	-0.105125
O10	O	1.057803	0.238460	0.079878
C11	C	0.900154	0.122135	0.000045
C12	C	0.800072	0.120361	0.000039
C13	C	0.387646	0.036354	0.000067
C14	C	0.366169	0.189369	0.000055
C15	C	0.460201	0.191037	0.000051
C16	C	0.517960	0.115362	0.000055
C17	C	0.481687	0.038019	0.000061
C18	C	0.496480	0.268379	0.000035
C19	C	0.590517	0.270050	0.000031
C20	C	0.648278	0.194374	0.000041
C21	C	0.612000	0.117028	0.000049
C22	C	0.669759	0.041353	0.000052
C23	C	0.633483	-0.035994	0.000066
C24	C	0.539448	-0.037657	0.000071
C25	C	0.742313	0.196036	0.000036
C26	C	0.763800	0.043018	0.000046
C27	C	1.071552	-0.037367	0.000065
C28	C	1.069768	-0.130615	0.000065
C29	C	0.979713	-0.345572	0.000047
C30	C	1.021522	-0.406544	0.078772
C31	C	1.066541	-0.301344	0.000058
C32	C	1.021562	-0.406524	-0.078642
C33	C	1.063416	-0.466260	0.000046
C34	C	1.108373	-0.361088	0.078848
C35	C	1.108401	-0.361062	-0.078636
C36	C	1.150273	-0.422017	0.000109
C37	C	1.068338	-0.206340	0.000065
C38	C	1.061626	-0.561263	0.000046
C39	C	1.229806	0.110255	0.000064
C40	C	1.329887	0.112029	0.000064
C41	C	1.058407	0.269756	0.000044
C42	C	1.060191	0.363004	0.000038
N43	N	1.064957	0.116190	0.248803
N44	N	1.065010	0.116193	-0.248691
C45	C	1.003704	0.173206	0.701064
C46	C	1.126306	0.059181	0.701049
C47	C	1.126295	0.059178	0.600553
C48	C	1.064989	0.116191	0.550308
C49	C	1.003693	0.173207	0.600559
C50	C	1.187596	0.002169	0.550295
C51	C	1.187588	0.002164	0.449793
C52	C	1.126277	0.059174	0.399546
C53	C	1.064978	0.116192	0.449803
C54	C	1.003672	0.173205	0.399558
C55	C	0.942368	0.230220	0.449814
C56	C	0.942382	0.230217	0.550312
C57	C	1.126263	0.059177	0.299047
C58	C	1.003661	0.173206	0.299053
H59	H	0.620045	0.333030	0.000019
O60	O	0.977757	-0.430396	-0.158115
C61	C	0.898256	-0.385701	-0.303342
C62	C	0.947868	-0.358558	-0.213397
H63	H	0.874060	-0.327634	-0.348052
H64	H	0.946444	-0.430811	-0.347907
H65	H	0.837476	-0.418757	-0.280614
H66	H	1.008647	-0.325468	-0.236040
H67	H	0.899620	-0.313487	-0.168854
O68	O	1.152078	-0.337052	0.158310
C69	C	1.202836	-0.221655	0.247432
C70	C	1.153307	-0.248760	0.157414
H71	H	1.203862	-0.150272	0.246727
H72	H	1.166065	-0.240708	0.314468
H73	H	1.275310	-0.253936	0.247710
H74	H	1.080831	-0.216493	0.157043
H75	H	1.190148	-0.229722	0.090418
O76	O	0.819867	-0.030517	-0.000123
C77	C	0.866955	-0.160815	-0.082800
C78	C	0.803424	-0.077560	-0.082740
H79	H	0.853670	-0.198881	-0.149578
H80	H	0.940415	-0.146392	-0.082873
H81	H	0.853771	-0.198835	-0.015945
H82	H	0.816527	-0.039499	-0.149583
H83	H	0.729985	-0.092043	-0.082617
H84	H	1.222407	-0.455095	0.000158
H85	H	1.176224	0.012766	0.741962
O86	O	1.152195	-0.336848	-0.157959
C87	C	1.203533	-0.221312	-0.246383
C88	C	1.153945	-0.248625	-0.156488
H89	H	1.204947	-0.149980	-0.245234
H90	H	1.275867	-0.253927	-0.247074
H91	H	1.166434	-0.239812	-0.313434
H92	H	1.190968	-0.230129	-0.089389
H93	H	1.081609	-0.216017	-0.155882
H94	H	0.892471	0.276637	0.591236
O95	O	0.944073	0.228672	0.250398
C96	C	0.822428	0.341734	0.261019
C97	C	0.889875	0.278979	0.316240
H98	H	0.778579	0.382411	0.314229
H99	H	0.861297	0.383825	0.213986
H100	H	0.777431	0.305375	0.213951
H101	H	0.934889	0.315268	0.363361
H102	H	0.850950	0.236888	0.363213
H103	H	0.680523	-0.097609	0.000062
H104	H	0.319136	0.250981	0.000044
H105	H	0.509903	-0.100629	0.000105
H106	H	0.358106	-0.026620	0.000082
H107	H	0.892456	0.276644	0.408893
O108	O	0.944032	0.228502	0.749834
C109	C	0.787280	0.277478	0.780556
C110	C	0.854760	0.214797	0.725280
H111	H	0.715089	0.266432	0.760710
H112	H	0.797734	0.267685	0.861028
H113	H	0.799069	0.344771	0.760802
H114	H	0.843011	0.147480	0.744954
H115	H	0.844289	0.224665	0.644822
O116	O	1.247059	-0.053177	0.599249
C117	C	1.301440	-0.103675	0.754074
C118	C	1.234033	-0.040962	0.698748
H119	H	1.290945	-0.093809	0.834528
H120	H	1.289696	-0.170993	0.734396
H121	H	1.373634	-0.092611	0.734247
H122	H	1.161814	-0.051949	0.718546
H123	H	1.245856	0.026335	0.718431
O124	O	0.440248	0.341806	0.000077
C125	C	0.285857	0.407048	0.000039
C126	C	0.349442	0.323826	0.000009
H127	H	0.212428	0.392540	-0.000037
H128	H	0.298983	0.445113	0.066867
H129	H	0.299096	0.445108	-0.066769
H130	H	0.336241	0.285699	0.066772
H131	H	0.336303	0.285824	-0.066864
O132	O	1.247164	-0.053302	0.401129
C133	C	1.368804	-0.166371	0.411729
C134	C	1.301372	-0.103612	0.466962
H135	H	1.412661	-0.207051	0.464930
H136	H	1.329921	-0.208459	0.364722
H137	H	1.413793	-0.130016	0.364633
H138	H	1.256366	-0.139898	0.514110
H139	H	1.340311	-0.061524	0.513908
O140	O	1.185840	0.003721	0.250379
C141	C	1.307493	-0.109336	0.260975
C142	C	1.240054	-0.046586	0.316210
H143	H	1.351355	-0.150014	0.314175
H144	H	1.268617	-0.151428	0.213965
H145	H	1.352477	-0.072974	0.213882
H146	H	1.195053	-0.082880	0.363356
H147	H	1.278986	-0.004495	0.363159
O148	O	0.777703	0.271088	-0.000019
C149	C	0.913049	0.341470	0.000031
C150	C	0.873094	0.256411	0.000067
H151	H	0.990177	0.329633	0.000120
H152	H	0.889334	0.378882	-0.066808
H153	H	0.889205	0.378871	0.066828
H154	H	0.896920	0.218941	-0.066685
H155	H	0.896804	0.219062	0.066950
O156	O	0.893721	-0.305963	0.000299
C157	C	0.750807	-0.284114	0.083550
C158	C	0.848171	-0.329008	0.083390
H159	H	0.713945	-0.302743	0.150712
H160	H	0.752911	-0.212862	0.082925
H161	H	0.713462	-0.303547	0.017083
H162	H	0.885572	-0.309644	0.149846
H163	H	0.846001	-0.400252	0.083965
O164	O	0.977765	-0.430739	0.158136
C165	C	0.927704	-0.546396	0.247398
C166	C	0.977306	-0.519119	0.157497
H167	H	0.927300	-0.617851	0.246902
H168	H	0.964009	-0.526883	0.314523
H169	H	0.855017	-0.514633	0.247292
H170	H	1.049995	-0.550869	0.157510
H171	H	0.940930	-0.538617	0.090413
