data_functionalizedCrystal
_audit_creation_method	'MofGen! by Chris Wilmer'
_symmetry_space_group_name_H-M	'P1'
_symmetry_Int_Tables_number	1
_symmetry_cell_setting	triclinic
loop_
_symmetry_equiv_pos_as_xyz
  x,y,z
_cell_length_a	15.995300
_cell_length_b	16.109301
_cell_length_c	15.186229
_cell_angle_alpha	90.005167
_cell_angle_beta	89.995056
_cell_angle_gamma	96.533356
loop_
_atom_site_label
_atom_site_type_symbol
_atom_site_fract_x
_atom_site_fract_y
_atom_site_fract_z
O1	O	1.110981	-0.106966	-0.073264
O2	O	0.867197	-0.120243	-0.073259
O3	O	0.995786	0.007426	-0.073252
O4	O	0.982392	-0.234635	-0.073270
O5	O	0.995777	0.007427	0.073205
O6	O	0.867188	-0.120242	0.073199
O7	O	1.110973	-0.106964	0.073194
Zn8	Zn	0.989079	-0.113603	0.096449
Zn9	Zn	0.989090	-0.113605	-0.096514
O10	O	0.982383	-0.234633	0.073187
C11	C	0.835997	-0.119701	-0.000029
C12	C	0.743045	-0.118078	-0.000027
C13	C	0.572863	-0.115079	-0.000034
C14	C	0.525372	-0.205982	-0.000038
C15	C	0.428685	-0.204324	-0.000373
C16	C	0.405307	-0.112128	-0.000039
C17	C	0.446457	-0.067029	-0.083505
C18	C	0.543089	-0.069330	-0.083573
C19	C	0.543359	-0.067982	0.082982
C20	C	0.446415	-0.067990	0.084077
C21	C	0.310612	-0.110456	-0.000045
C22	C	0.667558	-0.116749	-0.000034
C23	C	0.995239	0.038401	-0.000023
C24	C	0.993613	0.130697	-0.000022
C25	C	1.142172	-0.107507	-0.000038
C26	C	1.235125	-0.109130	-0.000046
C27	C	0.982930	-0.265609	-0.000044
C28	C	0.984557	-0.357905	-0.000051
N29	N	0.989077	-0.113601	0.228142
C30	C	1.066133	0.352963	-0.000037
C31	C	1.064598	0.439683	-0.000045
C32	C	0.912031	0.419823	-0.000038
C33	C	0.913567	0.333104	-0.000037
C34	C	0.990620	0.299676	-0.000032
C35	C	0.987549	0.473116	-0.000040
C36	C	0.985885	0.567142	-0.000048
C37	C	0.992285	0.205644	-0.000026
N38	N	0.989099	-0.113601	-0.228207
C39	C	1.046036	-0.057088	0.453868
C40	C	1.046039	-0.057086	0.546057
C41	C	0.932134	-0.170116	0.546061
C42	C	0.932128	-0.170113	0.453873
C43	C	0.989084	-0.113600	0.407779
C44	C	0.989092	-0.113601	0.592156
C45	C	0.989095	-0.113599	0.692112
C46	C	0.989080	-0.113601	0.307816
H47	H	0.543850	-0.242513	0.059806
H48	H	1.126088	0.483066	-0.000051
H49	H	0.885763	-0.216129	0.583600
C50	C	0.408149	-0.108826	-0.167745
H51	H	0.433457	-0.081088	-0.217902
H52	H	0.418086	-0.165844	-0.168700
H53	H	0.349268	-0.105319	-0.168607
C54	C	0.571029	-0.108407	0.168476
H55	H	0.552600	-0.079049	0.217769
H56	H	0.546929	-0.165047	0.170837
H57	H	0.630635	-0.106056	0.169566
C58	C	0.586320	0.022555	0.084086
H59	H	0.568239	0.050698	0.134393
H60	H	0.645633	0.022223	0.086240
H61	H	0.571577	0.050602	0.032303
H62	H	0.431095	-0.000773	0.089369
H63	H	0.419062	-0.100924	0.145826
H64	H	0.885746	-0.216133	0.416345
H65	H	0.849297	0.447050	-0.000040
H66	H	0.400208	-0.239761	0.059445
H67	H	0.852071	0.289715	-0.000036
H68	H	0.561403	-0.101834	-0.146206
C69	C	1.108685	0.005076	0.596756
H70	H	1.100527	-0.003010	0.658262
H71	H	1.164562	-0.003972	0.581640
H72	H	1.099601	0.060570	0.581652
H73	H	0.544974	-0.241970	-0.059808
C74	C	0.391047	-0.252015	-0.081660
H75	H	0.434859	-0.272470	-0.114614
H76	H	0.352047	-0.297564	-0.063155
H77	H	0.363024	-0.215433	-0.117370
C78	C	1.150885	0.316190	-0.000039
H79	H	1.140987	0.256912	-0.000029
H80	H	1.181978	0.334477	-0.051114
H81	H	1.181973	0.334489	0.051039
C82	C	1.108683	0.005072	0.403163
H83	H	1.100531	-0.003025	0.341657
H84	H	1.099612	0.060565	0.418277
H85	H	1.164561	-0.003988	0.418265
C86	C	0.586717	0.020840	-0.088396
H87	H	0.545358	0.058713	-0.090311
H88	H	0.621219	0.032152	-0.037926
H89	H	0.620477	0.027284	-0.139950
H90	H	0.432376	0.000714	-0.086370
