data_functionalizedCrystal
_audit_creation_method	'MofGen! by Chris Wilmer'
_symmetry_space_group_name_H-M	'P1'
_symmetry_Int_Tables_number	1
_symmetry_cell_setting	triclinic
loop_
_symmetry_equiv_pos_as_xyz
  x,y,z
_cell_length_a	14.971490
_cell_length_b	13.448316
_cell_length_c	14.971486
_cell_angle_alpha	90.002892
_cell_angle_beta	96.385112
_cell_angle_gamma	89.992749
loop_
_atom_site_label
_atom_site_type_symbol
_atom_site_fract_x
_atom_site_fract_y
_atom_site_fract_z
O1	O	-1.186943	0.082746	0.116576
O2	O	-0.926544	0.082736	0.130531
O3	O	-1.063723	0.082734	-0.006647
O4	O	-1.049764	0.082748	0.253753
O5	O	-1.063709	-0.082649	-0.006645
O6	O	-0.926530	-0.082647	0.130532
O7	O	-1.186930	-0.082638	0.116577
Cu8	Cu	-1.056729	-0.097743	0.123555
Cu9	Cu	-1.056745	0.097842	0.123553
O10	O	-1.049751	-0.082636	0.253755
C11	C	-0.893212	0.000043	0.129907
C12	C	-0.793915	0.000039	0.128035
C13	C	-0.366217	0.090209	0.119956
C14	C	-0.459517	0.090206	0.121713
C15	C	-0.506156	0.000052	0.122597
C16	C	-0.459490	-0.090105	0.121716
C17	C	-0.366192	-0.090101	0.119954
C18	C	-0.653952	-0.090106	0.125393
C19	C	-0.747256	-0.090111	0.127157
C20	C	-0.747277	0.090200	0.127151
C21	C	-0.653979	0.090204	0.125389
C22	C	-0.607320	0.000047	0.124510
N23	N	-1.056724	-0.235308	0.123555
C24	C	-1.063092	0.000043	-0.039971
C25	C	-1.061221	0.000044	-0.139268
C26	C	-0.220261	0.000055	0.117202
C27	C	-0.319558	0.000059	0.119078
C28	C	-1.002455	-0.712560	0.069205
C29	C	-1.002452	-0.608457	0.069202
C30	C	-1.056747	-0.556389	0.123546
C31	C	-1.111055	-0.608429	0.177889
C32	C	-1.111062	-0.712531	0.177886
C33	C	-1.111034	-0.391449	0.177892
C34	C	-1.111026	-0.287341	0.177897
C35	C	-1.002424	-0.287376	0.069208
C36	C	-1.002431	-0.391477	0.069205
C37	C	-1.056738	-0.443510	0.123550
N38	N	-1.056757	0.235406	0.123546
C39	C	-1.141810	0.000046	-0.196492
C40	C	-1.140047	0.000056	-0.289791
C41	C	-1.057694	0.000056	-0.325865
C42	C	-0.977099	0.000057	-0.268633
C43	C	-0.978863	0.000054	-0.175336
C44	C	-0.973428	0.000061	-0.463096
C45	C	-0.971663	0.000062	-0.556400
C46	C	-1.134612	0.000062	-0.577552
C47	C	-1.136376	0.000059	-0.484254
C48	C	-1.055780	0.000058	-0.427029
C49	C	-1.050382	0.000058	0.287079
C50	C	-1.052252	0.000064	0.386376
H51	H	-0.616008	0.163615	0.124675
H52	H	-0.785226	-0.163522	0.127882
Br53	Br	-0.928717	-0.216761	-0.004542
H54	H	-1.203435	0.000052	-0.454886
H55	H	-0.328250	0.163622	0.119242
Br56	Br	-0.810597	0.212557	0.128360
H57	H	-0.615963	-0.163522	0.124688
H58	H	-0.958215	-0.433868	0.024958
H59	H	-0.958236	-0.566096	0.024949
Br60	Br	-0.522785	-0.212458	0.122912
H61	H	-0.913239	0.000053	-0.128744
H62	H	-0.328202	-0.163510	0.119248
Br63	Br	-0.522839	0.212558	0.122896
H64	H	-1.208872	0.000039	-0.167129
Br65	Br	-0.928757	-0.783214	-0.004545
Br66	Br	-1.184749	-0.216677	0.251613
Br67	Br	-1.184744	-0.462066	0.251641
H68	H	-1.155267	-0.566027	0.222132
H69	H	-1.155281	-0.754895	0.222136
H70	H	-1.205671	0.000056	-0.336380
H71	H	-1.200236	0.000066	-0.624149
Br72	Br	-0.859897	0.000058	-0.605357
H73	H	-0.907798	0.000062	-0.416505
Br74	Br	-0.865332	0.000074	-0.317589
