data_functionalizedCrystal
_audit_creation_method	'MofGen! by Chris Wilmer'
_symmetry_space_group_name_H-M	'P1'
_symmetry_Int_Tables_number	1
_symmetry_cell_setting	triclinic
loop_
_symmetry_equiv_pos_as_xyz
  x,y,z
_cell_length_a	13.339070
_cell_length_b	11.804366
_cell_length_c	17.699083
_cell_angle_alpha	101.805067
_cell_angle_beta	80.543846
_cell_angle_gamma	105.125066
loop_
_atom_site_label
_atom_site_type_symbol
_atom_site_fract_x
_atom_site_fract_y
_atom_site_fract_z
O1	O	1.361826	0.099080	-0.368250
O2	O	1.067420	0.099071	-0.318474
O3	O	1.222938	0.099065	-0.234932
O4	O	1.206307	0.099086	-0.451792
O5	O	1.181996	-0.098989	-0.256894
O6	O	1.026477	-0.098983	-0.340435
O7	O	1.320883	-0.098975	-0.390212
Cu8	Cu	1.169942	-0.117063	-0.367329
Cu9	Cu	1.218361	0.117159	-0.341357
O10	O	1.165365	-0.098969	-0.473754
C11	C	1.009279	0.000043	-0.321046
C12	C	0.897038	0.000039	-0.295983
N13	N	1.135893	-0.281802	-0.385598
C14	C	1.201871	0.000038	-0.217590
C15	C	1.200082	0.000037	-0.133194
C16	C	0.531774	0.000077	-0.490859
C17	C	0.637231	0.000084	-0.514409
C18	C	0.702187	0.000072	-0.459805
C19	C	0.661678	0.000055	-0.381646
C20	C	0.556214	0.000057	-0.358093
C21	C	0.726627	0.000052	-0.327038
C22	C	0.686118	0.000035	-0.248880
C23	C	0.580663	0.000036	-0.225331
C24	C	0.515706	0.000048	-0.279935
C25	C	0.832091	0.000050	-0.350592
C26	C	0.856531	0.000030	-0.217825
C27	C	0.751074	0.000023	-0.194275
C28	C	1.379024	0.000056	-0.387639
C29	C	1.491267	0.000068	-0.412701
C30	C	1.054132	-0.344145	-0.429483
C31	C	1.028384	-0.468805	-0.443315
C32	C	1.084390	-0.531136	-0.413258
C33	C	1.166148	-0.468793	-0.369367
C34	C	1.191904	-0.344120	-0.355539
C35	C	1.222162	-0.531111	-0.339314
C36	C	1.303921	-0.468768	-0.295423
C37	C	1.329671	-0.344107	-0.281596
C38	C	1.273665	-0.281777	-0.311653
C39	C	1.196407	-0.655784	-0.353142
C40	C	1.334179	-0.655759	-0.279198
C41	C	1.359927	-0.531098	-0.265366
N42	N	1.252418	0.281899	-0.323084
C43	C	1.186433	0.000061	-0.491095
C44	C	1.188223	0.000070	-0.575490
C45	C	1.291370	0.000038	-0.103869
C46	C	1.289686	0.000049	-0.024568
C47	C	1.196711	0.000050	0.025406
C48	C	1.105418	0.000052	-0.003924
C49	C	1.107105	0.000050	-0.083223
C50	C	1.098613	0.000062	0.315879
C51	C	1.096933	0.000060	0.395182
C52	C	1.281194	0.000060	0.374534
C53	C	1.282881	0.000058	0.295235
C54	C	1.191589	0.000067	0.265913
C55	C	1.193417	0.000058	0.179926
C56	C	1.194881	0.000050	0.111390
H57	H	0.865062	0.000060	-0.414229
F58	F	0.403464	0.000037	-0.254875
F59	F	0.997972	0.000063	0.448367
F60	F	0.537560	0.000051	-0.142144
H61	H	1.367078	0.000030	-0.144553
F62	F	1.381836	0.000058	0.242053
F63	F	0.707949	0.000005	-0.111095
F64	F	1.378356	0.000055	0.405747
H65	H	0.788055	0.000081	-0.478983
H66	H	0.909420	0.000026	-0.173361
H67	H	1.129840	-0.706532	-0.388879
F68	F	1.416695	-0.277757	-0.234894
F69	F	0.462642	0.000105	-0.548962
H70	H	1.364020	0.000047	-0.000696
H71	H	1.024278	0.000069	0.292015
H72	H	1.426497	-0.480323	-0.229629
F73	F	0.680337	0.000107	-0.597587
F74	F	0.994542	-0.277805	-0.461474
F75	F	1.056984	-0.663811	-0.427979
F76	F	1.006470	0.000067	0.049265
F77	F	0.941377	-0.535151	-0.490025
F78	F	1.301065	-0.149097	-0.296928
F79	F	1.393792	-0.722090	-0.247210
H80	H	1.032769	0.000050	-0.107097
