data_functionalizedCrystal
_audit_creation_method	'MofGen! by Chris Wilmer'
_symmetry_space_group_name_H-M	'P1'
_symmetry_Int_Tables_number	1
_symmetry_cell_setting	triclinic
loop_
_symmetry_equiv_pos_as_xyz
  x,y,z
_cell_length_a	27.732048
_cell_length_b	27.731996
_cell_length_c	10.868271
_cell_angle_alpha	89.988908
_cell_angle_beta	90.001179
_cell_angle_gamma	82.632022
loop_
_atom_site_label
_atom_site_type_symbol
_atom_site_fract_x
_atom_site_fract_y
_atom_site_fract_z
O1	O	0.640916	0.057519	-0.102179
O2	O	1.140916	0.557519	0.397821
O3	O	0.500121	0.066264	-0.102219
O4	O	1.000121	0.566264	0.397781
O5	O	0.574905	-0.008507	-0.102171
O6	O	1.074905	0.491493	0.397829
O7	O	0.566133	0.132290	-0.102227
O8	O	1.066133	0.632290	0.397773
O9	O	0.574899	-0.008510	0.102473
O10	O	1.074899	0.491490	0.602473
O11	O	0.500115	0.066262	0.102426
O12	O	1.000115	0.566262	0.602426
O13	O	0.640910	0.057516	0.102465
O14	O	1.140910	0.557516	0.602465
Zn15	Zn	0.570512	0.061888	0.134937
Zn16	Zn	1.070512	0.561888	0.634937
Zn17	Zn	0.570520	0.061892	-0.134691
Zn18	Zn	1.070520	0.561892	0.365309
O19	O	0.566127	0.132287	0.102418
O20	O	1.066127	0.632287	0.602418
C21	C	0.482111	0.066079	0.000099
C22	C	0.982111	0.566079	0.500099
C23	C	0.428456	0.065527	0.000085
C24	C	0.928456	0.565527	0.500085
C25	C	0.089634	0.106231	0.000122
C26	C	0.589634	0.606231	0.500122
C27	C	-0.112026	0.104180	0.000134
C28	C	0.387974	0.604180	0.500134
O29	O	-0.143288	0.141402	0.000172
O30	O	0.356712	0.641402	0.500172
N31	N	-0.131141	0.059844	0.000149
N32	N	0.368859	0.559844	0.500149
C33	C	-0.099838	0.016017	0.000170
C34	C	0.400162	0.516017	0.500170
O35	O	-0.120724	-0.021740	0.000196
O36	O	0.379276	0.478260	0.500196
C37	C	0.101820	0.018069	0.000167
C38	C	0.601820	0.518069	0.500167
C39	C	0.120933	0.062408	0.000139
C40	C	0.620933	0.562408	0.500139
C41	C	0.108747	0.150567	0.000096
C42	C	0.608747	0.650567	0.500096
C43	C	0.159159	0.151079	0.000086
C44	C	0.659159	0.651079	0.500086
C45	C	0.190457	0.107256	0.000103
C46	C	0.690457	0.607256	0.500103
C47	C	0.171344	0.062920	0.000129
C48	C	0.671344	0.562920	0.500129
C49	C	0.133122	-0.025757	0.000196
C50	C	0.633122	0.474243	0.500196
C51	C	0.183539	-0.025240	0.000198
C52	C	0.683539	0.474760	0.500198
C53	C	0.202652	0.019099	0.000171
C54	C	0.702652	0.519099	0.500171
C55	C	0.253055	0.019609	0.000136
C56	C	0.753055	0.519609	0.500136
N57	N	0.272171	0.063946	0.000121
N58	N	0.772171	0.563946	0.500121
C59	C	0.240872	0.107769	0.000104
C60	C	0.740872	0.607769	0.500104
C61	C	-0.205712	0.014943	0.000169
C62	C	0.294288	0.514943	0.500169
C63	C	-0.256126	0.014430	0.000167
C64	C	0.243874	0.514430	0.500167
C65	C	-0.268310	0.102594	0.000134
C66	C	0.231690	0.602594	0.500134
C67	C	-0.217895	0.103106	0.000127
C68	C	0.282105	0.603106	0.500127
C69	C	-0.186597	0.059280	0.000154
C70	C	0.313403	0.559280	0.500154
C71	C	0.346741	0.108842	0.000083
C72	C	0.846741	0.608842	0.500083
C73	C	0.397158	0.109350	0.000068
C74	C	0.897158	0.609350	0.500068
C75	C	0.409337	0.021187	0.000108
C76	C	0.909337	0.521187	0.500108
C77	C	0.358925	0.020678	0.000116
C78	C	0.858925	0.520678	0.500116
C79	C	0.327627	0.064510	0.000108
C80	C	0.827627	0.564510	0.500108
O81	O	0.284346	-0.017592	0.000112
O82	O	0.784346	0.482408	0.500112
O83	O	0.261767	0.145521	0.000106
O84	O	0.761767	0.645521	0.500106
C85	C	0.039222	0.105719	0.000132
C86	C	0.539222	0.605719	0.500132
C87	C	0.020109	0.061384	0.000158
C88	C	0.520109	0.561384	0.500158
C89	C	0.051408	0.017560	0.000175
C90	C	0.551408	0.517560	0.500175
C91	C	-0.030305	0.060871	0.000157
C92	C	0.469695	0.560871	0.500157
C93	C	-0.061604	0.104694	0.000140
C94	C	0.438396	0.604694	0.500140
C95	C	-0.042489	0.149030	0.000125
C96	C	0.457511	0.649030	0.500125
C97	C	0.007923	0.149543	0.000115
C98	C	0.507923	0.649543	0.500115
C99	C	0.032292	-0.026776	0.000190
C100	C	0.532292	0.473224	0.500190
C101	C	-0.018120	-0.027285	0.000199
C102	C	0.481880	0.472715	0.500199
C103	C	-0.049419	0.016539	0.000182
C104	C	0.450581	0.516539	0.500182
C105	C	0.574721	-0.026516	0.000155
C106	C	1.074721	0.473484	0.500155
C107	C	0.574179	-0.080172	0.000168
C108	C	1.074179	0.419828	0.500168
C109	C	0.570767	-0.412887	-0.111445
C110	C	1.070767	0.087113	0.388555
C111	C	0.568706	-0.614545	-0.111468
C112	C	1.068706	-0.114545	0.388532
O113	O	0.568422	-0.640614	-0.206339
O114	O	1.068422	-0.140614	0.293661
N115	N	0.568447	-0.639764	0.000083
N116	N	1.068447	-0.139764	0.500083
C117	C	0.568700	-0.614564	0.111647
C118	C	1.068700	-0.114564	0.611647
O119	O	0.568427	-0.640641	0.206527
O120	O	1.068427	-0.140641	0.706527
C121	C	0.570757	-0.412906	0.111668
C122	C	1.070757	0.087094	0.611668
C123	C	0.571021	-0.387691	0.000110
C124	C	1.071021	0.112309	0.500110
C125	C	0.571031	-0.387671	-0.222994
C126	C	1.071031	0.112329	0.277006
C127	C	0.571549	-0.337260	-0.222988
C128	C	1.071549	0.162740	0.277012
C129	C	0.571803	-0.312064	-0.111432
C130	C	1.071803	0.187936	0.388568
C131	C	0.571539	-0.337280	0.000117
C132	C	1.071539	0.162720	0.500117
C133	C	0.571007	-0.387707	0.223231
C134	C	1.071007	0.112293	0.723231
C135	C	0.571520	-0.337290	0.223226
C136	C	1.071520	0.162710	0.723226
C137	C	0.571784	-0.312074	0.111668
C138	C	1.071784	0.187926	0.611668
C139	C	0.572311	-0.261673	0.111679
C140	C	1.072311	0.238327	0.611679
N141	N	0.572571	-0.236454	0.000129
N142	N	1.072571	0.263546	0.500129
C143	C	0.572316	-0.261650	-0.111427
C144	C	1.072316	0.238350	0.388573
C145	C	0.567620	-0.720438	0.111628
C146	C	1.067620	-0.220438	0.611628
C147	C	0.567107	-0.770852	0.111624
C148	C	1.067107	-0.270852	0.611624
C149	C	0.567112	-0.770829	-0.111492
C150	C	1.067112	-0.270829	0.388508
C151	C	0.567629	-0.720414	-0.111486
C152	C	1.067629	-0.220414	0.388514
C153	C	0.567880	-0.695219	0.000078
C154	C	1.067880	-0.195219	0.500078
C155	C	0.573404	-0.155783	-0.111405
C156	C	1.073404	0.344217	0.388595
C157	C	0.573924	-0.105368	-0.111388
C158	C	1.073924	0.394632	0.388612
C159	C	0.573916	-0.105395	0.111727
C160	C	1.073916	0.394605	0.611727
C161	C	0.573399	-0.155806	0.111711
C162	C	1.073399	0.344194	0.611711
C163	C	0.573141	-0.180999	0.000135
C164	C	1.073141	0.319001	0.500135
O165	O	0.572591	-0.235572	0.206501
O166	O	1.072591	0.264428	0.706501
O167	O	0.572579	-0.235563	-0.206293
O168	O	1.072579	0.264437	0.293707
C169	C	0.570249	-0.463298	-0.111452
C170	C	1.070249	0.036702	0.388548
C171	C	0.569986	-0.488513	0.000097
C172	C	1.069986	0.011487	0.500097
C173	C	0.570240	-0.463318	0.111652
C174	C	1.070240	0.036682	0.611652
C175	C	0.569472	-0.538928	0.000092
C176	C	1.069472	-0.038928	0.500092
C177	C	0.569218	-0.564123	-0.111464
C178	C	1.069218	-0.064123	0.388536
C179	C	0.569477	-0.538905	-0.223014
C180	C	1.069477	-0.038905	0.276986
C181	C	0.569995	-0.488494	-0.223008
C182	C	1.069995	0.011506	0.276992
C183	C	0.569981	-0.488536	0.223203
C184	C	1.069981	0.011464	0.723203
C185	C	0.569463	-0.538948	0.223187
C186	C	1.069463	-0.038948	0.723187
C187	C	0.569209	-0.564143	0.111632
C188	C	1.069209	-0.064143	0.611632
C189	C	0.658920	0.057701	0.000145
C190	C	1.158920	0.557701	0.500145
C191	C	0.712575	0.058254	0.000151
C192	C	1.212575	0.558254	0.500151
C193	C	0.566310	0.150296	0.000088
C194	C	1.066310	0.650296	0.500088
C195	C	0.566853	0.203952	0.000068
C196	C	1.066853	0.703952	0.500068
N197	N	0.570510	0.061885	0.318951
N198	N	1.070510	0.561885	0.818951
N199	N	0.570525	0.061891	-0.318705
N200	N	1.070525	0.561891	0.181295
C201	C	0.570517	0.061891	0.569957
C202	C	1.070517	0.561891	1.069957
C203	C	0.570511	0.061889	0.430280
C204	C	1.070511	0.561889	0.930280
H205	H	-0.180232	-0.020747	0.000191
H206	H	0.319768	0.479253	0.500191
Br207	Br	0.107197	-0.085936	0.000207
Br208	Br	0.607197	0.414064	0.500207
H209	H	0.174715	0.187185	0.000063
H210	H	0.674715	0.687185	0.500063
Br211	Br	0.567988	-0.686199	-0.262890
Br212	Br	1.067988	-0.186199	0.237110
Br213	Br	0.570354	-0.454281	-0.374416
Br214	Br	1.070354	0.045719	0.125584
Br215	Br	0.033853	0.209720	0.000075
Br216	Br	0.533853	0.709720	0.500075
H217	H	0.570188	-0.468027	0.314047
H218	H	1.070188	0.031973	0.814047
H219	H	0.573192	-0.176289	-0.202260
H220	H	1.073192	0.323711	0.297740
Br221	Br	0.569136	-0.573109	-0.374410
Br222	Br	1.069136	-0.073109	0.125590
H223	H	0.570792	-0.408229	0.314074
H224	H	1.070792	0.091771	0.814074
H225	H	-0.293803	0.138276	0.000121
H226	H	0.206197	0.638276	0.500121
Br227	Br	0.226013	-0.084723	0.000241
Br228	Br	0.726013	0.415277	0.500241
H229	H	0.083267	0.186255	0.000086
H230	H	0.583267	0.686255	0.500086
H231	H	0.571762	-0.316734	-0.313830
H232	H	1.071762	0.183266	0.186170
Br233	Br	0.423092	0.169529	0.000022
Br234	Br	0.923092	0.669529	0.500022
Br235	Br	-0.084976	0.208504	0.000093
Br236	Br	0.415024	0.708504	0.500093
H237	H	0.343363	-0.015426	0.000121
H238	H	0.843363	0.484574	0.500121
Br239	Br	-0.282058	-0.045747	0.000168
Br240	Br	0.217942	0.454253	0.500168
H241	H	0.434830	-0.014493	0.000117
H242	H	0.934830	0.485507	0.500117
Br243	Br	0.304273	0.168327	0.000073
Br244	Br	0.804273	0.668327	0.500073
H245	H	0.574141	-0.084840	-0.202236
H246	H	1.074141	0.415160	0.297764
H247	H	-0.202337	0.139211	0.000111
H248	H	0.297663	0.639211	0.500111
H249	H	-0.033676	-0.063394	0.000211
H250	H	0.466324	0.436606	0.500211
Br251	Br	0.571858	-0.303099	0.374643
Br252	Br	1.071858	0.196901	0.874643
Br253	Br	0.566766	-0.805032	-0.262888
Br254	Br	1.066766	-0.305032	0.237112
H255	H	0.057772	-0.062463	0.000207
H256	H	0.557772	0.437537	0.500207
H257	H	0.570822	-0.408180	-0.313841
H258	H	1.070822	0.091820	0.186159
H259	H	0.566899	-0.791379	0.202465
H260	H	1.066899	-0.291379	0.702465
H261	H	0.567826	-0.699928	0.202482
H262	H	1.067826	-0.199928	0.702482
Br263	Br	0.573052	-0.190030	0.263111
Br264	Br	1.073052	0.309970	0.763111
Br265	Br	0.574263	-0.071191	0.263116
Br266	Br	1.074263	0.428809	0.763116
H267	H	0.569252	-0.559474	0.314038
H268	H	1.069252	-0.059474	0.814038
