data_functionalizedCrystal
_audit_creation_method	'MofGen! by Chris Wilmer'
_symmetry_space_group_name_H-M	'P1'
_symmetry_Int_Tables_number	1
_symmetry_cell_setting	triclinic
loop_
_symmetry_equiv_pos_as_xyz
  x,y,z
_cell_length_a	18.215407
_cell_length_b	21.395361
_cell_length_c	18.215399
_cell_angle_alpha	90.032630
_cell_angle_beta	90.016416
_cell_angle_gamma	90.028167
loop_
_atom_site_label
_atom_site_type_symbol
_atom_site_fract_x
_atom_site_fract_y
_atom_site_fract_z
Zn1	Zn	1.125039	-0.249485	0.416036
Zn2	Zn	1.625039	0.250515	0.916036
Zn3	Zn	1.124936	-0.354265	0.292961
Zn4	Zn	1.624936	0.145735	0.792961
Zn5	Zn	1.001972	-0.249501	0.292990
Zn6	Zn	1.501972	0.250499	0.792990
Zn7	Zn	1.001925	-0.354224	0.415992
Zn8	Zn	1.501925	0.145776	0.915992
O9	O	1.063468	-0.301869	0.354495
O10	O	1.563468	0.198131	0.854495
O11	O	1.228009	-0.263395	0.399717
O12	O	1.728009	0.236605	0.899717
O13	O	1.108601	-0.340392	0.189981
O14	O	1.608601	0.159608	0.689981
O15	O	1.018360	-0.161821	0.309343
O16	O	1.518360	0.338179	0.809343
O17	O	1.227933	-0.340376	0.309294
O18	O	1.727933	0.159624	0.809294
O19	O	1.108777	-0.161809	0.399745
O20	O	1.608777	0.338191	0.899745
O21	O	1.018260	-0.263422	0.190002
O22	O	1.518260	0.236578	0.690002
O23	O	0.898982	-0.263382	0.309300
O24	O	1.398982	0.236618	0.809300
O25	O	1.018279	-0.340306	0.518982
O26	O	1.518279	0.159694	1.018982
O27	O	0.898947	-0.340322	0.399669
O28	O	1.398947	0.159678	0.899669
O29	O	1.108730	-0.263355	0.519015
O30	O	1.608730	0.236645	1.019015
O31	O	1.108555	-0.441937	0.309251
O32	O	1.608555	0.058063	0.809251
O33	O	1.018179	-0.441907	0.399641
O34	O	1.518179	0.058093	0.899641
C35	C	1.063371	-0.464656	0.354454
C36	C	1.563371	0.035344	0.854454
C37	C	1.063396	-0.534298	0.354461
C38	C	1.563396	-0.034298	0.854461
C39	C	0.872261	-0.301849	0.354484
C40	C	1.372261	0.198151	0.854484
C41	C	0.790463	-0.301856	0.354496
C42	C	1.290463	0.198144	0.854496
C43	C	1.110497	-0.567006	0.307443
C44	C	1.610497	-0.067006	0.807443
C45	C	1.110531	-0.632441	0.307459
C46	C	1.610531	-0.132441	0.807459
C47	C	1.063452	-0.665166	0.354486
C48	C	1.563452	-0.165166	0.854486
C49	C	1.016348	-0.632450	0.401514
C50	C	1.516348	-0.132450	0.901514
C51	C	1.016320	-0.567016	0.401501
C52	C	1.516320	-0.067016	0.901501
C53	C	0.997188	-0.768878	0.360257
C54	C	1.497188	-0.268878	0.860257
C55	C	0.997214	-0.834310	0.360264
C56	C	1.497214	-0.334310	0.860264
C57	C	1.063537	-0.866987	0.354529
C58	C	1.563537	-0.366987	0.854529
C59	C	1.129836	-0.834222	0.348772
C60	C	1.629836	-0.334222	0.848772
C61	C	1.129808	-0.768787	0.348759
C62	C	1.629808	-0.268787	0.848759
C63	C	1.063477	-0.736118	0.354506
C64	C	1.563477	-0.236118	0.854506
C65	C	1.110679	-0.970647	0.307527
C66	C	1.610679	-0.470647	0.807527
C67	C	1.110714	-1.036084	0.307548
C68	C	1.610714	-0.536084	0.807548
C69	C	1.016525	-1.036091	0.401599
C70	C	1.516525	-0.536091	0.901599
C71	C	1.016496	-0.970656	0.401581
C72	C	1.516496	-0.470656	0.901581
C73	C	1.063572	-0.937938	0.354541
C74	C	1.563572	-0.437938	0.854541
C75	C	0.525406	-0.341997	0.401486
C76	C	1.025406	0.158003	0.901486
C77	C	0.602265	-0.341992	0.401482
C78	C	1.102265	0.158008	0.901482
C79	C	0.602271	-0.261754	0.307517
C80	C	1.102271	0.238246	0.807517
C81	C	0.525413	-0.261763	0.307518
C82	C	1.025413	0.238237	0.807518
C83	C	0.486983	-0.301884	0.354506
C84	C	0.986983	0.198116	0.854506
C85	C	0.640699	-0.301869	0.354502
C86	C	1.140699	0.198131	0.854502
C87	C	0.724033	-0.301863	0.354498
C88	C	1.224033	0.198137	0.854498
C89	C	0.403644	-0.301891	0.354509
C90	C	0.903644	0.198109	0.854509
C91	C	1.255421	-0.301888	0.354507
C92	C	1.755421	0.198112	0.854507
C93	C	1.337220	-0.301897	0.354512
C94	C	1.837220	0.198103	0.854512
C95	C	1.063511	-0.301824	0.546448
C96	C	1.563511	0.198176	1.046448
C97	C	1.063529	-0.301805	0.628247
C98	C	1.563529	0.198195	1.128247
C99	C	1.063585	-0.138445	0.354552
C100	C	1.563585	0.361555	0.854552
C101	C	1.063635	-0.068804	0.354577
C102	C	1.563635	0.431196	0.854577
C103	C	1.063467	-0.301868	0.163289
C104	C	1.563467	0.198132	0.663289
C105	C	1.063591	-0.301710	0.081490
C106	C	1.563591	0.198290	0.581490
C107	C	1.110655	-0.261683	0.893323
C108	C	1.610655	0.238317	1.393323
C109	C	1.110646	-0.261700	0.816464
C110	C	1.610646	0.238300	1.316464
C111	C	1.016464	-0.341837	0.816420
C112	C	1.516464	0.158163	1.316420
C113	C	1.016477	-0.341823	0.893277
C114	C	1.516477	0.158177	1.393277
C115	C	1.063571	-0.301742	0.931727
C116	C	1.563571	0.198258	1.431727
C117	C	1.063549	-0.301773	0.778010
C118	C	1.563549	0.198227	1.278010
C119	C	1.063540	-0.301792	0.694677
C120	C	1.563540	0.198208	1.194677
C121	C	1.063582	-0.301724	1.015066
C122	C	1.563582	0.198276	1.515066
H123	H	1.148888	-0.659077	0.269172
H124	H	1.648888	-0.159077	0.769172
O125	O	0.483958	-0.218500	0.256844
O126	O	0.983958	0.281500	0.756844
H127	H	0.498721	-0.169335	0.269569
H128	H	0.998721	0.330665	0.769569
O129	O	1.201383	-0.869447	0.342584
O130	O	1.701383	-0.369447	0.842584
H131	H	1.208889	-0.899216	0.391900
H132	H	1.708889	-0.399216	0.891900
O133	O	0.965661	-0.385054	0.774944
O134	O	1.465661	0.114946	1.274944
H135	H	0.932925	-0.412910	0.814564
H136	H	1.432925	0.087090	1.314564
O137	O	0.483928	-0.385271	0.452138
O138	O	0.983928	0.114729	0.952138
H139	H	0.448890	-0.417098	0.419106
H140	H	0.948890	0.082902	0.919106
O141	O	0.643710	-0.385252	0.452158
O142	O	1.143710	0.114748	0.952158
H143	H	0.604072	-0.413145	0.484834
H144	H	1.104072	0.086855	0.984834
H145	H	0.978135	-0.374447	0.924546
H146	H	1.478135	0.125553	1.424546
H147	H	1.183790	-0.742112	0.344073
H148	H	1.683790	-0.242112	0.844073
H149	H	1.149074	-1.062713	0.269262
H150	H	1.649074	-0.562713	0.769262
O151	O	0.965571	-0.667745	0.452235
O152	O	1.465571	-0.167745	0.952235
H153	H	0.932817	-0.634005	0.484934
H154	H	1.432817	-0.134005	0.984934
H155	H	0.977965	-0.540384	0.439790
H156	H	1.477965	-0.040384	0.939790
H157	H	1.148830	-0.540368	0.269142
H158	H	1.648830	-0.040368	0.769142
H159	H	1.149013	-0.944007	0.269226
H160	H	1.649013	-0.444007	0.769226
O161	O	0.965741	-1.071377	0.452320
O162	O	1.465741	-0.571377	0.952320
H163	H	0.973668	-1.122373	0.444427
H164	H	1.473668	-0.622373	0.944427
H165	H	0.633570	-0.229089	0.269262
H166	H	1.133570	0.270911	0.769262
H167	H	1.149001	-0.229046	0.924626
H168	H	1.649001	0.270954	1.424626
O169	O	0.965676	-0.935371	0.452274
O170	O	1.465676	-0.435371	0.952274
H171	H	0.932935	-0.969118	0.484971
H172	H	1.432935	-0.469118	0.984971
O173	O	0.925712	-0.869649	0.366473
O174	O	1.425712	-0.369649	0.866473
H175	H	0.879590	-0.835936	0.370474
H176	H	1.379590	-0.335936	0.870474
O177	O	1.161428	-0.218493	0.775040
O178	O	1.661428	0.281507	1.275040
H179	H	1.194172	-0.190619	0.814691
H180	H	1.694172	0.309381	1.314691
H181	H	0.943175	-0.742279	0.364929
H182	H	1.443175	-0.242279	0.864929
