data_functionalizedCrystal
_audit_creation_method	'MofGen! by Chris Wilmer'
_symmetry_space_group_name_H-M	'P1'
_symmetry_Int_Tables_number	1
_symmetry_cell_setting	triclinic
loop_
_symmetry_equiv_pos_as_xyz
  x,y,z
_cell_length_a	18.215407
_cell_length_b	21.295417
_cell_length_c	18.215399
_cell_angle_alpha	89.965438
_cell_angle_beta	89.983176
_cell_angle_gamma	90.030955
loop_
_atom_site_label
_atom_site_type_symbol
_atom_site_fract_x
_atom_site_fract_y
_atom_site_fract_z
Zn1	Zn	1.125021	-0.250593	-0.416094
Zn2	Zn	1.625021	0.249407	0.083906
Zn3	Zn	1.124924	-0.355869	-0.293019
Zn4	Zn	1.624924	0.144131	0.206981
Zn5	Zn	1.001960	-0.250618	-0.293042
Zn6	Zn	1.501960	0.249382	0.206958
Zn7	Zn	1.001908	-0.355829	-0.416044
Zn8	Zn	1.501908	0.144171	0.083956
O9	O	1.063453	-0.303227	-0.354550
O10	O	1.563453	0.196773	0.145450
O11	O	1.227993	-0.264564	-0.399780
O12	O	1.727993	0.235436	0.100220
O13	O	1.108594	-0.341934	-0.190038
O14	O	1.608594	0.158066	0.309962
O15	O	1.018347	-0.162525	-0.309396
O16	O	1.518347	0.337475	0.190604
O17	O	1.227921	-0.341910	-0.309357
O18	O	1.727921	0.158090	0.190643
O19	O	1.108760	-0.162507	-0.399802
O20	O	1.608760	0.337493	0.100198
O21	O	1.018253	-0.264607	-0.190054
O22	O	1.518253	0.235393	0.309946
O23	O	0.898969	-0.264569	-0.309347
O24	O	1.398969	0.235431	0.190653
O25	O	1.018258	-0.341843	-0.519035
O26	O	1.518258	0.158157	-0.019035
O27	O	0.898930	-0.341867	-0.399716
O28	O	1.398930	0.158133	0.100284
O29	O	1.108709	-0.264526	-0.519072
O30	O	1.608709	0.235474	-0.019072
O31	O	1.108543	-0.443953	-0.309308
O32	O	1.608543	0.056047	0.190692
O33	O	1.018163	-0.443924	-0.399694
O34	O	1.518163	0.056076	0.100306
C35	C	0.872247	-0.303217	-0.354529
C36	C	1.372247	0.196783	0.145471
C37	C	0.790448	-0.303227	-0.354537
C38	C	1.290448	0.196773	0.145463
C39	C	0.602253	-0.343540	-0.401533
C40	C	1.102253	0.156460	0.098467
C41	C	0.525395	-0.343542	-0.401542
C42	C	1.025395	0.156458	0.098458
C43	C	0.525405	-0.262927	-0.307582
C44	C	1.025405	0.237073	0.192418
C45	C	0.602263	-0.262922	-0.307577
C46	C	1.102263	0.237078	0.192423
C47	C	0.640685	-0.303232	-0.354552
C48	C	1.140685	0.196768	0.145448
C49	C	0.486969	-0.303239	-0.354566
C50	C	0.986969	0.196761	0.145434
C51	C	0.403635	-0.303240	-0.354575
C52	C	0.903635	0.196760	0.145425
C53	C	0.724024	-0.303229	-0.354543
C54	C	1.224024	0.196771	0.145457
C55	C	1.063357	-0.466779	-0.354509
C56	C	1.563357	0.033221	0.145491
C57	C	1.063383	-0.536747	-0.354516
C58	C	1.563383	-0.036747	0.145484
C59	C	1.110485	-0.569608	-0.307500
C60	C	1.610485	-0.069608	0.192500
C61	C	1.110520	-0.635350	-0.307517
C62	C	1.610520	-0.135350	0.192483
C63	C	1.063439	-0.668230	-0.354542
C64	C	1.563439	-0.168230	0.145458
C65	C	1.016333	-0.635361	-0.401566
C66	C	1.516333	-0.135361	0.098434
C67	C	1.016305	-0.569620	-0.401554
C68	C	1.516305	-0.069620	0.098446
N69	N	0.999060	-0.771496	-0.360145
N70	N	1.499060	-0.271496	0.139855
N71	N	0.999088	-0.833947	-0.360153
N72	N	1.499088	-0.333947	0.139847
C73	C	1.063521	-0.866304	-0.354584
C74	C	1.563521	-0.366304	0.145416
N75	N	1.127926	-0.833851	-0.348993
N76	N	1.627926	-0.333851	0.151007
N77	N	1.127896	-0.771394	-0.348981
N78	N	1.627896	-0.271394	0.151019
C79	C	1.063464	-0.739515	-0.354561
C80	C	1.563464	-0.239515	0.145439
C81	C	1.110665	-0.970451	-0.307584
C82	C	1.610665	-0.470451	0.192416
C83	C	1.110701	-1.036194	-0.307605
C84	C	1.610701	-0.536194	0.192395
C85	C	1.016507	-1.036203	-0.401651
C86	C	1.516507	-0.536203	0.098349
C87	C	1.016478	-0.970461	-0.401633
C88	C	1.516478	-0.470461	0.098367
C89	C	1.063556	-0.937589	-0.354595
C90	C	1.563556	-0.437589	0.145405
C91	C	1.255406	-0.303239	-0.354571
C92	C	1.755406	0.196761	0.145429
C93	C	1.337205	-0.303243	-0.354581
C94	C	1.837205	0.196757	0.145419
C95	C	1.063488	-0.303177	-0.546503
C96	C	1.563488	0.196823	-0.046503
C97	C	1.063503	-0.303156	-0.628302
C98	C	1.563503	0.196844	-0.128302
C99	C	1.063570	-0.139037	-0.354607
C100	C	1.563570	0.360963	0.145393
C101	C	1.063620	-0.069069	-0.354631
C102	C	1.563620	0.430931	0.145369
C103	C	1.016502	-0.262864	-0.816505
C104	C	1.516502	0.237136	-0.316505
C105	C	1.016515	-0.262852	-0.893364
C106	C	1.516515	0.237148	-0.393364
C107	C	1.110592	-0.343372	-0.893336
C108	C	1.610592	0.156628	-0.393336
C109	C	1.110575	-0.343387	-0.816479
C110	C	1.610575	0.156613	-0.316479
C111	C	1.063531	-0.303130	-0.778065
C112	C	1.563531	0.196870	-0.278065
C113	C	1.063561	-0.303102	-0.931781
C114	C	1.563561	0.196898	-0.431781
C115	C	1.063575	-0.303088	-1.015115
C116	C	1.563575	0.196912	-0.515115
C117	C	1.063516	-0.303144	-0.694726
C118	C	1.563516	0.196856	-0.194726
C119	C	1.063461	-0.303232	-0.163344
C120	C	1.563461	0.196768	0.336656
C121	C	1.063589	-0.303076	-0.081545
C122	C	1.563589	0.196924	0.418455
H123	H	0.633554	-0.230095	-0.269319
H124	H	1.133554	0.269905	0.230681
C125	C	0.964720	-1.072360	-0.453381
C126	C	1.464720	-0.572360	0.046619
H127	H	0.936664	-1.043370	-0.481383
H128	H	1.436664	-0.543370	0.018617
H129	H	0.932683	-1.098051	-0.425208
H130	H	1.432683	-0.598051	0.074792
H131	H	0.992869	-1.097959	-0.485480
H132	H	1.492869	-0.597959	0.014520
C133	C	1.162516	-1.072342	-0.255885
C134	C	1.662516	-0.572342	0.244115
H135	H	1.190542	-1.043346	-0.227866
H136	H	1.690542	-0.543346	0.272134
H137	H	1.194578	-1.097943	-0.284067
H138	H	1.694578	-0.597943	0.215933
H139	H	1.134387	-1.098030	-0.223799
H140	H	1.634387	-0.598030	0.276201
C141	C	0.644515	-0.387873	-0.453209
C142	C	1.144515	0.112127	0.046791
H143	H	0.610616	-0.411874	-0.481196
H144	H	1.110616	0.088126	0.018804
H145	H	0.674474	-0.415271	-0.425002
H146	H	1.174474	0.084729	0.074998
H147	H	0.674520	-0.363818	-0.485326
H148	H	1.174520	0.136182	0.014674
H149	H	0.978120	-0.943704	-0.439914
H150	H	1.478120	-0.443704	0.060086
C151	C	1.162342	-0.387645	-0.935593
C152	C	1.662342	0.112355	-0.435593
H153	H	1.155624	-0.381865	-0.986872
H154	H	1.655624	0.118135	-0.486872
H155	H	1.151544	-0.429944	-0.922980
H156	H	1.651544	0.070056	-0.422980
H157	H	1.211794	-0.378430	-0.923003
H158	H	1.711794	0.121570	-0.423003
C159	C	1.162310	-0.387681	-0.774192
C160	C	1.662310	0.112319	-0.274192
H161	H	1.190338	-0.411648	-0.808076
H162	H	1.690338	0.088352	-0.308076
H163	H	1.134133	-0.415112	-0.744195
H164	H	1.634133	0.084888	-0.244195
H165	H	1.194387	-0.363602	-0.744223
H166	H	1.694387	0.136398	-0.244223
H167	H	0.494113	-0.230108	-0.269336
H168	H	0.994113	0.269892	0.230664
C169	C	0.483123	-0.387878	-0.453224
C170	C	0.983123	0.112122	0.046776
H171	H	0.517016	-0.411885	-0.481195
H172	H	1.017016	0.088115	0.018805
H173	H	0.453169	-0.363832	-0.485343
H174	H	0.953169	0.136168	0.014657
H175	H	0.453114	-0.415281	-0.425015
H176	H	0.953114	0.084719	0.074985
C177	C	0.964753	-0.218589	-0.774249
C178	C	1.464753	0.281411	-0.274249
H179	H	0.971482	-0.224359	-0.722970
H180	H	1.471482	0.275641	-0.222970
H181	H	0.915304	-0.227798	-0.786838
H182	H	1.415304	0.272202	-0.286838
H183	H	0.975559	-0.176289	-0.786866
H184	H	1.475559	0.323711	-0.286866
C185	C	1.162277	-0.533452	-0.255770
C186	C	1.662277	-0.033452	0.244230
H187	H	1.190340	-0.562442	-0.227776
H188	H	1.690340	-0.062442	0.272224
H189	H	1.134139	-0.507846	-0.223673
H190	H	1.634139	-0.007846	0.276327
H191	H	1.194318	-0.507766	-0.283953
H192	H	1.694318	-0.007766	0.216047
H193	H	0.978219	-0.230064	-0.924659
H194	H	1.478219	0.269936	-0.424659
H195	H	1.148879	-0.662111	-0.269231
H196	H	1.648879	-0.162111	0.230769
H197	H	0.978001	-0.662135	-0.439855
H198	H	1.478001	-0.162135	0.060145
H199	H	1.149001	-0.943685	-0.269285
H200	H	1.649001	-0.443685	0.230715
C201	C	0.964486	-0.533471	-0.453269
C202	C	1.464486	-0.033471	0.046731
H203	H	0.936448	-0.562466	-0.481277
H204	H	1.436448	-0.062466	0.018723
H205	H	0.992605	-0.507779	-0.485353
H206	H	1.492605	-0.007779	0.014647
H207	H	0.932424	-0.507872	-0.425076
H208	H	1.432424	-0.007872	0.074924
