data_functionalizedCrystal
_audit_creation_method	'MofGen! by Chris Wilmer'
_symmetry_space_group_name_H-M	'P1'
_symmetry_Int_Tables_number	1
_symmetry_cell_setting	triclinic
loop_
_symmetry_equiv_pos_as_xyz
  x,y,z
_cell_length_a	30.711276
_cell_length_b	30.706045
_cell_length_c	30.711414
_cell_angle_alpha	119.995768
_cell_angle_beta	89.997946
_cell_angle_gamma	120.016985
loop_
_atom_site_label
_atom_site_type_symbol
_atom_site_fract_x
_atom_site_fract_y
_atom_site_fract_z
O1	O	-0.371023	0.311756	0.012945
O2	O	-0.307733	0.222563	-0.012898
O3	O	-0.307703	0.311754	0.076263
O4	O	-0.371053	0.222566	-0.076217
O5	O	-0.235258	0.384199	0.076263
O6	O	-0.235288	0.295009	-0.012898
O7	O	-0.298578	0.384202	0.012945
Zn8	Zn	-0.255430	0.351107	0.000023
Zn9	Zn	-0.350880	0.255657	0.000023
O10	O	-0.298607	0.295011	-0.076217
C11	C	-0.496047	0.614230	0.039260
C12	C	-0.469730	0.588143	0.039626
C13	C	-0.574923	0.535355	0.039260
C14	C	-0.548487	0.509387	0.039626
C15	C	-0.496075	0.535352	0.039257
C16	C	-0.548459	0.588145	0.039629
C17	C	-0.447836	0.790163	0.024989
C18	C	-0.423001	0.839992	0.020954
C19	C	-0.371063	0.864985	0.018927
C20	C	-0.344136	0.919006	0.014542
C21	C	-0.343961	0.840151	0.020940
C22	C	-0.368794	0.790331	0.024982
C23	C	-0.420734	0.765338	0.027007
C24	C	-0.368378	0.472903	0.024974
C25	C	-0.343396	0.444037	0.020936
C26	C	-0.370355	0.390063	0.018907
C27	C	-0.343276	0.358756	0.014521
C28	C	-0.422300	0.364959	0.020922
C29	C	-0.447277	0.393829	0.024970
C30	C	-0.420311	0.447803	0.026992
C31	C	-0.765086	0.472914	0.024990
C32	C	-0.818945	0.444046	0.020948
C33	C	-0.845976	0.390072	0.018921
C34	C	-0.904374	0.358767	0.014536
C35	C	-0.819148	0.364965	0.020931
C36	C	-0.765292	0.393833	0.024971
C37	C	-0.738263	0.447812	0.027005
C38	C	-0.447659	0.711313	0.031385
C39	C	-0.469122	0.668251	0.034877
C40	C	-0.633318	0.504055	0.034877
C41	C	-0.679866	0.479107	0.031385
C42	C	-0.468991	0.504050	0.034871
C43	C	-0.447401	0.479100	0.031376
C44	C	-0.574773	-0.007454	-0.503704
C45	C	-0.548318	0.018633	-0.451301
C46	C	-0.495898	0.071422	-0.503706
C47	C	-0.469563	0.097388	-0.451303
C48	C	-0.495897	0.071422	-0.424857
C49	C	-0.548319	0.018632	-0.530030
C50	C	-0.764976	-0.183381	-0.631419
C51	C	-0.818839	-0.233209	-0.656410
C52	C	-0.845859	-0.258202	-0.629466
C53	C	-0.904265	-0.312222	-0.656557
C54	C	-0.819011	-0.233369	-0.577531
C55	C	-0.765150	-0.183551	-0.552546
C56	C	-0.738132	-0.158557	-0.579493
C57	C	-0.447726	0.133868	-0.234713
C58	C	-0.422899	0.162733	-0.180867
C59	C	-0.370954	0.216706	-0.153854
C60	C	-0.344032	0.248012	-0.095469
C61	C	-0.343835	0.241810	-0.180694
C62	C	-0.368658	0.212942	-0.234541
C63	C	-0.420610	0.158968	-0.261547
C64	C	-0.447730	0.133865	-0.631427
C65	C	-0.422905	0.162733	-0.656419
C66	C	-0.370958	0.216706	-0.629477
C67	C	-0.344039	0.248011	-0.656570
C68	C	-0.343841	0.241811	-0.577544
C69	C	-0.368668	0.212943	-0.552555
C70	C	-0.420613	0.158965	-0.579504
C71	C	-0.679729	-0.104533	-0.552395
C72	C	-0.633176	-0.061473	-0.530797
C73	C	-0.468982	0.102722	-0.530801
C74	C	-0.447527	0.127670	-0.552401
C75	C	-0.468980	0.102723	-0.366472
C76	C	-0.447524	0.127672	-0.319933
O77	O	-1.076130	0.295017	-0.012887
O78	O	-0.923617	0.384215	0.012964
O79	O	-1.012798	0.295018	-0.076201
O80	O	-0.986948	0.384214	0.076278
O81	O	-1.012821	0.222578	-0.076192
O82	O	-0.923640	0.311775	0.012973
O83	O	-1.076153	0.222577	-0.012879
Zn84	Zn	-0.999900	0.255674	0.000048
Zn85	Zn	-0.999869	0.351118	0.000037
O86	O	-0.986971	0.311774	0.076286
C87	C	-0.234669	0.137144	-0.018767
C88	C	-0.261556	0.083389	-0.015068
C89	C	-0.182256	0.163232	-0.019133
C90	C	-0.234644	0.216017	-0.018773
C91	C	-0.261505	0.246591	-0.015079
C92	C	-0.182231	0.241985	-0.019139
C93	C	-0.155793	0.216021	-0.018767
C94	C	-0.098345	0.246601	-0.015067
C95	C	-0.260988	0.163228	-0.019140
O96	O	-0.235362	1.063364	-0.012886
O97	O	-0.298722	0.936689	0.012966
O98	O	-0.298727	0.936677	-0.076199
O99	O	-0.235357	1.063376	0.076279
O100	O	-0.371147	0.936679	-0.076196
O101	O	-0.371141	0.936691	0.012969
O102	O	-0.307782	1.063366	-0.012883
Zn103	Zn	-0.350960	1.000029	0.000044
Zn104	Zn	-0.255544	1.000026	0.000039
O105	O	-0.307776	1.063378	0.076282
O106	O	-0.307710	0.311747	-0.764586
O107	O	-0.371058	0.222560	-0.701262
O108	O	-0.371029	0.311750	-0.701260
O109	O	-0.307739	0.222557	-0.764588
O110	O	-0.298583	0.384196	-0.628842
O111	O	-0.298613	0.295006	-0.628844
O112	O	-0.235264	0.384193	-0.692168
Zn113	Zn	-0.255436	0.351102	-0.649008
Zn114	Zn	-0.350886	0.255651	-0.744422
O115	O	-0.235293	0.295003	-0.692169
O116	O	-1.076047	-0.456590	-0.692145
O117	O	-0.923524	-0.329906	-0.628826
O118	O	-1.012682	-0.329904	-0.628822
O119	O	-0.986888	-0.456593	-0.692148
O120	O	-1.012682	-0.329903	-0.701243
O121	O	-0.923523	-0.329905	-0.701246
O122	O	-1.076046	-0.456590	-0.764565
Zn123	Zn	-0.999785	-0.393248	-0.744404
Zn124	Zn	-0.999785	-0.393248	-0.648987
O125	O	-0.986888	-0.456592	-0.764569
C126	C	-0.155716	0.469622	0.234748
C127	C	-0.098262	0.523378	0.261617
C128	C	-0.182172	0.443534	0.261073
C129	C	-0.234590	0.390747	0.155899
C130	C	-0.261468	0.360171	0.098463
C131	C	-0.260926	0.364780	0.182344
C132	C	-0.234593	0.390745	0.234747
C133	C	-0.261473	0.360166	0.261615
C134	C	-0.182169	0.443537	0.182345
C135	C	-0.981083	0.390773	0.234767
C136	C	-0.984794	0.360198	0.261640
C137	C	-0.980701	0.443560	0.261088
C138	C	-0.981074	0.390769	0.155917
C139	C	-0.984775	0.360190	0.098481
C140	C	-0.980692	0.443557	0.182357
C141	C	-0.981058	0.469644	0.234759
C142	C	-0.984742	0.523398	0.261623
C143	C	-0.980717	0.364805	0.182366
C144	C	-0.234625	1.216058	0.234759
C145	C	-0.261483	1.246639	0.261628
C146	C	-0.182211	1.242029	0.261081
C147	C	-0.234657	1.137171	0.155913
C148	C	-0.261549	1.083405	0.098480
C149	C	-0.182243	1.163261	0.182354
C150	C	-0.155776	1.216059	0.234754
C151	C	-0.098327	1.246640	0.261618
C152	C	-0.260973	1.163261	0.182359
C153	C	-1.039146	-0.007446	-0.503675
C154	C	-1.039503	0.018637	-0.530004
C155	C	-1.039129	0.071428	-0.424832
C156	C	-1.039486	0.097392	-0.451280
C157	C	-1.039120	0.071425	-0.503682
C158	C	-1.039512	0.018640	-0.451273
C159	C	-1.024921	-0.183366	-0.551805
C160	C	-1.020898	-0.233192	-0.576618
C161	C	-1.018873	-0.258187	-0.628546
C162	C	-1.014501	-0.312204	-0.655449
C163	C	-1.020877	-0.233356	-0.655660
C164	C	-1.024907	-0.183540	-0.630849
C165	C	-1.026929	-0.158545	-0.578919
C166	C	-1.024810	0.133863	-0.631408
C167	C	-1.020762	0.162724	-0.656404
C168	C	-1.018719	0.216696	-0.629468
C169	C	-1.014322	0.247999	-0.656561
C170	C	-1.020731	0.241802	-0.577533
C171	C	-1.024789	0.212935	-0.552543
C172	C	-1.026825	0.158964	-0.579486
C173	C	-1.024855	0.133878	-0.234688
C174	C	-1.020809	0.162748	-0.180840
C175	C	-1.018769	0.216719	-0.153833
C176	C	-1.014379	0.248026	-0.095447
C177	C	-1.020770	0.241822	-0.180673
C178	C	-1.024814	0.212952	-0.234519
C179	C	-1.026861	0.158976	-0.261524
C180	C	-1.031294	-0.104523	-0.552019
C181	C	-1.034776	-0.061464	-0.530576
C182	C	-1.034742	0.102730	-0.366448
C183	C	-1.031246	0.127679	-0.319910
C184	C	-1.034723	0.102723	-0.530780
C185	C	-1.031220	0.127670	-0.552381
O186	O	-1.012866	0.295033	0.371178
O187	O	-0.986975	0.384225	0.307857
O188	O	-1.076173	0.295033	0.307845
O189	O	-0.923667	0.384225	0.371190
O190	O	-1.076187	0.222589	0.235431
O191	O	-0.986989	0.311782	0.235443
O192	O	-1.012880	0.222589	0.298764
Zn193	Zn	-0.999936	0.255683	0.255606
Zn194	Zn	-0.999918	0.351131	0.351015
O195	O	-0.923681	0.311782	0.298775
C196	C	-0.574957	0.535283	-0.503664
C197	C	-0.548523	0.509310	-0.529990
C198	C	-0.496076	0.614168	-0.424822
C199	C	-0.469762	0.588075	-0.451268
C200	C	-0.496110	0.535278	-0.503667
C201	C	-0.548489	0.588080	-0.451265
C202	C	-0.765120	0.472843	-0.551801
C203	C	-0.818977	0.443978	-0.576614
C204	C	-0.846011	0.389997	-0.628539
C205	C	-0.904410	0.358691	-0.655444
C206	C	-0.819184	0.364886	-0.655651
C207	C	-0.765329	0.393755	-0.630839
C208	C	-0.738297	0.447736	-0.578912
C209	C	-0.448023	0.393209	-0.631381
C210	C	-0.423217	0.364164	-0.656372
C211	C	-0.371281	0.389087	-0.629435
C212	C	-0.344384	0.357596	-0.656524
C213	C	-0.344148	0.443063	-0.577503
C214	C	-0.368949	0.472113	-0.552515
C215	C	-0.420892	0.447176	-0.579460
C216	C	-0.447852	0.790130	-0.234687
C217	C	-0.423015	0.839961	-0.180841
C218	C	-0.371076	0.864958	-0.153832
C219	C	-0.344145	0.918986	-0.095447
C220	C	-0.343979	0.840117	-0.180669
C221	C	-0.368818	0.790286	-0.234513
C222	C	-0.420754	0.765299	-0.261520
C223	C	-0.679901	0.479032	-0.552010
C224	C	-0.633353	0.503981	-0.530566
C225	C	-0.469147	0.668197	-0.366440
C226	C	-0.447681	0.711265	-0.319904
C227	C	-0.469218	0.503782	-0.530761
C228	C	-0.447782	0.478677	-0.552359
H229	H	-0.569682	0.609978	0.040219
H230	H	-0.742982	-0.163037	-0.653365
N231	N	-1.018530	0.300012	-0.548481
H232	H	-0.986429	0.333022	-0.514836
H233	H	-1.052052	0.291471	-0.538986
N234	N	-0.412721	0.616988	-0.423150
H235	H	-0.399967	0.654459	-0.385869
H236	H	-0.389467	0.629620	-0.443574
N237	N	-0.317972	0.308503	0.154188
H238	H	-0.341285	0.318239	0.174544
H239	H	-0.320118	0.273629	0.152242
H240	H	-0.160965	1.284510	0.304137
N241	N	-0.318015	1.134337	0.154235
H242	H	-0.330743	1.158894	0.178950
H243	H	-0.341280	1.090655	0.143627
N244	N	-0.847788	-0.259986	-0.712421
H245	H	-0.847055	-0.227164	-0.713258
H246	H	-0.885995	-0.295348	-0.724133
N247	N	-0.503295	0.366759	0.027149
H248	H	-0.516586	0.328187	0.025252
H249	H	-0.527437	0.356266	-0.003969
N250	N	-1.040256	0.153657	-0.423165
H251	H	-1.040428	0.166229	-0.385884
H252	H	-1.073314	0.143844	-0.443590
N253	N	-0.452481	0.305950	-0.712378
H254	H	-0.489147	0.294564	-0.725652
H255	H	-0.455967	0.271443	-0.712397
N256	N	-0.154044	0.472453	0.154217
H257	H	-0.152119	0.441679	0.121271
H258	H	-0.116765	0.509923	0.178967
H259	H	-0.840786	0.464490	0.019307
N260	N	-0.318031	0.134309	-0.019926
H261	H	-0.341325	0.121627	-0.052982
H262	H	-0.320155	0.165110	0.012794
N263	N	-0.576663	0.453041	-0.587022
H264	H	-0.613949	0.440471	-0.599758
H265	H	-0.578573	0.418187	-0.589160
H266	H	-1.040099	-0.003198	-0.573060
N267	N	-0.154045	0.472451	0.318106
H268	H	-0.116751	0.509918	0.330845
H269	H	-0.152158	0.441636	0.320246
H270	H	-0.346853	0.516060	-0.510234
H271	H	-0.160987	0.284463	-0.019732
N272	N	-1.040309	-0.010271	-0.423142
H273	H	-1.040489	-0.047737	-0.447855
H274	H	-1.073372	-0.022913	-0.412532
N275	N	-0.412513	0.153657	-0.423176
H276	H	-0.399771	0.166228	-0.447891
H277	H	-0.389265	0.143849	-0.412562
H278	H	-0.301675	0.860505	0.019289
N279	N	-0.979900	0.472472	0.154232
H280	H	-0.979734	0.447919	0.116951
H281	H	-0.946832	0.516159	0.174651
H282	H	-1.019166	0.142313	-0.158987
H283	H	-0.980114	0.465386	0.304142
N284	N	-0.452243	0.866750	-0.151901
H285	H	-0.431636	0.911530	-0.138259
H286	H	-0.455758	0.863270	-0.120895
H287	H	-0.743452	0.373387	0.026609
H288	H	-0.980137	0.322327	0.161139
H289	H	-0.161034	0.141397	-0.019727
H290	H	-0.490315	0.372903	-0.653323
N291	N	-0.154130	1.134337	0.154237
H292	H	-0.178862	1.096863	0.116959
H293	H	-0.143520	1.121706	0.174667
H294	H	-0.444982	0.142289	-0.159018
H295	H	-0.569557	-0.003206	-0.430073
N296	N	-1.027062	0.075663	-0.263817
H297	H	-1.025176	0.064144	-0.238644
H298	H	-0.995940	0.082713	-0.277473
H299	H	-0.841014	-0.253726	-0.555599
N300	N	-1.027098	-0.156406	-0.495797
H301	H	-1.025219	-0.179695	-0.482387
H302	H	-1.061570	-0.159844	-0.495832
H303	H	-1.019265	-0.253403	-0.554538
N304	N	-0.735962	0.531069	-0.495800
H305	H	-0.722306	0.524070	-0.471681
H306	H	-0.761153	0.542569	-0.482439
H307	H	-1.019108	0.285770	-0.158680
H308	H	-1.019232	-0.253713	-0.697940
N309	N	-1.027071	-0.156761	-0.660090
H310	H	-1.025177	-0.180153	-0.696750
H311	H	-0.995938	-0.111978	-0.639460
N312	N	-0.339593	0.763495	-0.263458
H313	H	-0.302922	0.786891	-0.238180
H314	H	-0.336120	0.766933	-0.294489
N315	N	-1.027004	0.075655	-0.660464
H316	H	-1.025116	0.064131	-0.697154
H317	H	-1.061486	0.041203	-0.663869
N318	N	-1.018589	0.135651	-0.712412
H319	H	-1.020493	0.097083	-0.725685
H320	H	-0.984105	0.166659	-0.712438
H321	H	-0.490025	0.089921	-0.256699
H322	H	-1.026430	0.233377	-0.510260
H323	H	-1.026445	0.233395	-0.256369
H324	H	-0.445071	0.860206	0.019313
H325	H	-0.569718	0.609907	-0.430031
N326	N	-0.503868	0.763176	-0.263817
H327	H	-0.517267	0.786469	-0.238646
H328	H	-0.527954	0.718387	-0.277469
H329	H	-0.840816	0.464427	-0.554536
H330	H	-0.841199	0.320937	-0.697929
N331	N	-0.736391	0.366683	-0.660082
H332	H	-0.761686	0.328109	-0.696741
H333	H	-0.722739	0.356194	-0.639454
N334	N	-0.339566	0.763550	0.027157
H335	H	-0.302896	0.786942	0.025260
H336	H	-0.360210	0.718767	-0.003963
N337	N	-0.288128	0.469958	-0.548448
H338	H	-0.276530	0.443369	-0.572156
H339	H	-0.287253	0.471523	-0.514799
H340	H	-0.301687	0.860472	-0.158674
H341	H	-0.569737	0.466905	0.040214
H342	H	-0.426670	0.609970	0.040207
H343	H	-0.490126	0.769819	0.026640
N344	N	-0.735930	0.531129	0.027178
H345	H	-0.736564	0.564140	0.059270
H346	H	-0.753967	0.522589	-0.006340
N347	N	-0.339296	0.531114	0.027157
H348	H	-0.302602	0.542638	0.025269
H349	H	-0.335882	0.565564	0.061628
H350	H	-0.301106	0.464477	0.019289
H351	H	-0.444249	0.321015	0.019277
H352	H	-0.841161	0.321013	0.019278
H353	H	-0.444990	0.142289	-0.698703
N354	N	-0.576437	-0.010275	-0.587063
H355	H	-0.609376	-0.010512	-0.589253
H356	H	-0.587036	-0.053948	-0.610325
N357	N	-0.503754	0.075646	-0.660485
H358	H	-0.504669	0.042637	-0.694129
H359	H	-0.528737	0.084179	-0.669983
N360	N	-0.736195	-0.156764	-0.496534
H361	H	-0.736925	-0.189580	-0.495689
H362	H	-0.754307	-0.141350	-0.471623
N363	N	-0.287808	0.300021	-0.151566
H364	H	-0.276196	0.314503	-0.113382
H365	H	-0.286936	0.332986	-0.152253
H366	H	-0.346583	0.233387	-0.510271
N367	N	-0.339415	0.240012	-0.263491
H368	H	-0.305766	0.241574	-0.262774
H369	H	-0.329896	0.283055	-0.245376
N370	N	-0.287812	0.300027	-0.548479
H371	H	-0.276197	0.314507	-0.572188
H372	H	-0.262844	0.291497	-0.538945
