data_functionalizedCrystal
_audit_creation_method	'MofGen! by Chris Wilmer'
_symmetry_space_group_name_H-M	'P1'
_symmetry_Int_Tables_number	1
_symmetry_cell_setting	triclinic
loop_
_symmetry_equiv_pos_as_xyz
  x,y,z
_cell_length_a	14.908571
_cell_length_b	12.759394
_cell_length_c	14.908308
_cell_angle_alpha	86.731597
_cell_angle_beta	89.824947
_cell_angle_gamma	86.711101
loop_
_atom_site_label
_atom_site_type_symbol
_atom_site_fract_x
_atom_site_fract_y
_atom_site_fract_z
Zn1	Zn	1.345341	-0.548282	0.587592
Zn2	Zn	1.845341	-0.048282	1.087592
Zn3	Zn	1.353935	-0.714462	0.437236
Zn4	Zn	1.853935	-0.214462	0.937236
Zn5	Zn	1.203654	-0.528102	0.428590
Zn6	Zn	1.703654	-0.028102	0.928590
Zn7	Zn	1.194963	-0.713213	0.578887
Zn8	Zn	1.694963	-0.213213	1.078887
O9	O	1.274473	-0.626015	0.508076
O10	O	1.774473	-0.126015	1.008076
O11	O	1.472308	-0.579294	0.574908
O12	O	1.972308	-0.079294	1.074908
O13	O	1.341234	-0.681818	0.310264
O14	O	1.841234	-0.181818	0.810264
O15	O	1.222490	-0.383762	0.449706
O16	O	1.722490	0.116238	0.949706
O17	O	1.478622	-0.701385	0.464442
O18	O	1.978622	-0.201385	0.964442
O19	O	1.326587	-0.398588	0.566525
O20	O	1.826587	0.101412	1.066525
O21	O	1.230824	-0.544900	0.303912
O22	O	1.730824	-0.044900	0.803912
O23	O	1.076675	-0.543690	0.441266
O24	O	1.576675	-0.043690	0.941266
O25	O	1.207676	-0.699258	0.705867
O26	O	1.707676	-0.199258	1.205867
O27	O	1.070289	-0.679690	0.551688
O28	O	1.570289	-0.179690	1.051688
O29	O	1.318159	-0.578083	0.712262
O30	O	1.818159	-0.078083	1.212262
O31	O	1.332806	-0.861313	0.456001
O32	O	1.832806	-0.361313	0.956001
O33	O	1.216010	-0.860396	0.560072
O34	O	1.716010	-0.360396	1.060072
C35	C	1.040856	-0.609365	0.494595
C36	C	1.540856	-0.109365	0.994595
C37	C	0.940913	-0.602270	0.488849
C38	C	1.440913	-0.102270	0.988849
C39	C	0.746516	-0.730752	0.592880
C40	C	1.246516	-0.230752	1.092880
C41	C	0.652610	-0.724088	0.587484
C42	C	1.152610	-0.224088	1.087484
C43	C	0.659192	-0.582274	0.472666
C44	C	1.159192	-0.082274	0.972666
C45	C	0.753098	-0.588938	0.478062
C46	C	1.253098	-0.088938	0.978062
C47	C	0.796757	-0.663180	0.538170
C48	C	1.296757	-0.163180	1.038170
C49	C	0.890665	-0.669848	0.543561
C50	C	1.390665	-0.169848	1.043561
C51	C	0.897246	-0.528030	0.428748
C52	C	1.397246	-0.028030	0.928748
C53	C	0.803340	-0.521366	0.423352
C54	C	1.303340	-0.021366	0.923352
C55	C	1.274420	-0.898977	0.508051
C56	C	1.774420	-0.398977	1.008051
C57	C	1.274478	-1.015759	0.508075
C58	C	1.774478	-0.515759	1.008075
C59	C	1.396180	-1.016672	0.399798
C60	C	1.896180	-0.516672	0.899798
C61	C	1.457053	-1.071992	0.345671
C62	C	1.957053	-0.571992	0.845671
C63	C	1.457105	-1.181719	0.345698
C64	C	1.957105	-0.681719	0.845698
C65	C	1.396278	-1.236129	0.399860
C66	C	1.896278	-0.736129	0.899860
C67	C	1.335404	-1.180809	0.453987
C68	C	1.835404	-0.680809	0.953987
C69	C	1.335358	-1.071079	0.453952
C70	C	1.835358	-0.571079	0.953952
C71	C	1.213709	-1.179897	0.562269
C72	C	1.713709	-0.679897	1.062269
C73	C	1.213651	-1.070169	0.562238
C74	C	1.713651	-0.570169	1.062238
C75	C	1.152882	-1.234306	0.616431
C76	C	1.652882	-0.734306	1.116431
C77	C	1.092002	-1.178986	0.670555
C78	C	1.592002	-0.678986	1.170555
C79	C	1.091953	-1.069252	0.670524
C80	C	1.591953	-0.569252	1.170524
C81	C	1.152778	-1.014849	0.616365
C82	C	1.652778	-0.514849	1.116365
C83	C	1.509002	-0.642730	0.521611
C84	C	2.009002	-0.142730	1.021611
C85	C	1.608945	-0.649853	0.527378
C86	C	2.108945	-0.149853	1.027378
C87	C	1.260989	-0.640782	0.742602
C88	C	1.760989	-0.140782	1.242602
C89	C	1.255243	-0.647075	0.842543
C90	C	1.755243	-0.147075	1.342543
C91	C	1.274549	-0.351989	0.508122
C92	C	1.774549	0.148011	1.008122
C93	C	1.274582	-0.235216	0.508142
C94	C	1.774582	0.264784	1.008142
C95	C	1.287956	-0.611232	0.274466
C96	C	1.787956	-0.111232	0.774466
C97	C	1.293877	-0.604656	0.174536
C98	C	1.793877	-0.104656	0.674536
C99	C	1.359488	-0.532697	1.037003
C100	C	1.859488	-0.032697	1.537003
C101	C	1.354092	-0.538606	1.130907
C102	C	1.854092	-0.038606	1.630907
C103	C	1.239051	-0.664798	1.124254
C104	C	1.739051	-0.164798	1.624254
C105	C	1.244447	-0.658888	1.030351
C106	C	1.744447	-0.158888	1.530351
C107	C	1.304669	-0.592837	0.986729
C108	C	1.804669	-0.092837	1.486729
C109	C	1.310069	-0.586934	0.892824
C110	C	1.810069	-0.086934	1.392824
C111	C	1.195024	-0.713118	0.886173
C112	C	1.695024	-0.213118	1.386173
C113	C	1.189627	-0.719028	0.980077
C114	C	1.689627	-0.219028	1.480077
H115	H	0.611707	-0.779110	0.632037
H116	H	1.111707	-0.279110	1.132037
O117	O	0.793615	-0.810822	0.657705
O118	O	1.293615	-0.310822	1.157705
H119	H	0.742901	-0.856688	0.694845
H120	H	1.242901	-0.356688	1.194845
H121	H	0.623629	-0.521823	0.423735
H122	H	1.123629	-0.021823	0.923735
O123	O	1.413223	-0.473749	1.185136
O124	O	1.913223	0.026251	1.685136
H125	H	1.456008	-0.426836	1.139023
H126	H	1.956008	0.073164	1.639023
O127	O	1.152708	-0.896500	0.616337
O128	O	1.652708	-0.396500	1.116337
H129	H	1.219449	-0.873459	0.638468
H130	H	1.719449	-0.373459	1.138468
H131	H	0.767780	-0.460918	0.374416
H132	H	1.267780	0.039082	0.874416
H133	H	1.408528	-0.478921	1.001486
H134	H	1.908528	0.021079	1.501486
H135	H	1.140595	-0.772803	1.015607
H136	H	1.640595	-0.272803	1.515607
O137	O	1.522755	-1.241395	0.287318
O138	O	2.022755	-0.741395	0.787318
H139	H	1.565040	-1.185132	0.249647
H140	H	2.065040	-0.685132	0.749647
O141	O	1.375016	-0.515694	0.845767
O142	O	1.875016	-0.015694	1.345767
H143	H	1.412222	-0.474861	0.896506
H144	H	1.912222	0.025139	1.396506
O145	O	0.951432	-0.455137	0.369735
O146	O	1.451432	0.044863	0.869735
H147	H	1.024066	-0.472237	0.383587
H148	H	1.524066	0.027763	0.883587
H149	H	1.042386	-1.024217	0.714605
H150	H	1.542386	-0.524217	1.214605
H151	H	1.152931	-1.323652	0.616454
H152	H	1.652931	-0.823652	1.116454
O153	O	1.396119	-0.898323	0.399767
O154	O	1.896119	-0.398323	0.899767
H155	H	1.448643	-0.869783	0.353017
H156	H	1.948643	-0.369783	0.853017
H157	H	0.926210	-0.730302	0.592502
H158	H	1.426210	-0.230302	1.092502
H159	H	1.396332	-1.325475	0.399886
H160	H	1.896332	-0.825475	0.899886
H161	H	1.506580	-1.027682	0.301574
H162	H	2.006580	-0.527682	0.801574
O163	O	1.135887	-0.777987	0.831951
O164	O	1.635887	-0.277987	1.331951
H165	H	1.149750	-0.762779	0.759324
H166	H	1.649750	-0.262779	1.259324
O167	O	1.174087	-0.736016	1.171309
O168	O	1.674087	-0.236016	1.671309
H169	H	1.179545	-0.730015	1.245052
H170	H	1.679545	-0.230015	1.745052
H171	H	1.042486	-1.223296	0.714653
H172	H	1.542486	-0.723296	1.214653
