data_functionalizedCrystal
_audit_creation_method	'MofGen! by Chris Wilmer'
_symmetry_space_group_name_H-M	'P1'
_symmetry_Int_Tables_number	1
_symmetry_cell_setting	triclinic
loop_
_symmetry_equiv_pos_as_xyz
  x,y,z
_cell_length_a	19.188930
_cell_length_b	18.266242
_cell_length_c	9.065218
_cell_angle_alpha	89.996786
_cell_angle_beta	95.919667
_cell_angle_gamma	90.022820
loop_
_atom_site_label
_atom_site_type_symbol
_atom_site_fract_x
_atom_site_fract_y
_atom_site_fract_z
O1	O	0.927580	0.061114	-0.184176
O2	O	1.427580	0.561114	0.315824
O3	O	0.724462	0.061063	-0.208969
O4	O	1.224462	0.561063	0.291031
O5	O	0.830219	0.061088	0.018215
O6	O	1.330219	0.561088	0.518215
O7	O	0.821822	0.061089	-0.411361
O8	O	1.321822	0.561089	0.088639
O9	O	0.830201	-0.060674	0.018222
O10	O	1.330201	0.439326	0.518222
O11	O	0.724443	-0.060699	-0.208963
O12	O	1.224443	0.439301	0.291037
O13	O	0.927562	-0.060648	-0.184170
O14	O	1.427562	0.439352	0.315830
Zn15	Zn	0.826000	-0.080006	-0.196565
Zn16	Zn	1.326000	0.419994	0.303435
Zn17	Zn	0.826024	0.080421	-0.196574
Zn18	Zn	1.326024	0.580421	0.303426
O19	O	0.821804	-0.060673	-0.411354
O20	O	1.321804	0.439327	0.088646
C21	C	0.698435	0.000176	-0.208163
C22	C	1.198435	0.500176	0.291837
C23	C	0.620912	0.000157	-0.205753
C24	C	1.120912	0.500157	0.294247
C25	C	0.577024	0.000168	-0.339058
C26	C	1.077024	0.500168	0.160942
C27	C	0.504182	0.000176	-0.336793
C28	C	1.004182	0.500176	0.163207
C29	C	0.475232	0.000187	-0.201217
C30	C	0.975232	0.500187	0.298783
C31	C	0.519130	0.000172	-0.067895
C32	C	1.019130	0.500172	0.432105
C33	C	0.591970	0.000156	-0.070163
C34	C	1.091970	0.500156	0.429837
N35	N	0.366453	0.041658	-0.097588
N36	N	0.866453	0.541658	0.402412
N37	N	0.297258	0.041674	-0.095442
N38	N	0.797258	0.541674	0.404558
C39	C	0.255771	0.000232	-0.194375
C40	C	0.755771	0.500232	0.305625
N41	N	0.286091	-0.041217	-0.295557
N42	N	0.786091	0.458783	0.204443
N43	N	0.355293	-0.041230	-0.297707
N44	N	0.855293	0.458770	0.202293
C45	C	0.396251	0.000204	-0.198742
C46	C	0.896251	0.500204	0.301258
C47	C	0.132899	0.000252	-0.325234
C48	C	0.632899	0.500252	0.174766
C49	C	0.060056	0.000255	-0.322964
C50	C	0.560056	0.500255	0.177036
C51	C	0.075006	0.000258	-0.054061
C52	C	0.575006	0.500258	0.445939
C53	C	0.147847	0.000247	-0.056335
C54	C	0.647847	0.500247	0.443665
C55	C	0.176789	0.000247	-0.191925
C56	C	0.676789	0.500247	0.308075
N57	N	0.825988	-0.189493	-0.196559
N58	N	1.325988	0.310507	0.303441
C59	C	0.868891	-0.227784	-0.285819
C60	C	1.368891	0.272216	0.214181
C61	C	0.868902	-0.304429	-0.285815
C62	C	1.368902	0.195571	0.214185
C63	C	0.825998	-0.342780	-0.196568
C64	C	1.325998	0.157220	0.303432
C65	C	0.783093	-0.304479	-0.107289
C66	C	1.283093	0.195521	0.392711
C67	C	0.783088	-0.227836	-0.107285
C68	C	1.283088	0.272164	0.392715
N69	N	0.764823	-0.463147	-0.192933
N70	N	1.264823	0.036853	0.307067
N71	N	0.764829	-0.535955	-0.192946
N72	N	1.264829	-0.035955	0.307054
C73	C	0.826012	-0.573702	-0.196573
C74	C	1.326012	-0.073702	0.303427
N75	N	0.887189	-0.535890	-0.200216
N76	N	1.387189	-0.035890	0.299784
N77	N	0.887182	-0.463075	-0.200211
N78	N	1.387182	0.036925	0.299789
C79	C	0.826000	-0.425887	-0.196562
C80	C	1.326000	0.074113	0.303438
C81	C	0.868931	-0.695101	-0.285834
C82	C	1.368931	-0.195101	0.214166
C83	C	0.868944	-0.771747	-0.285819
C84	C	1.368944	-0.271747	0.214181
C85	C	0.783128	-0.771795	-0.107301
C86	C	1.283128	-0.271795	0.392699
C87	C	0.783122	-0.695150	-0.107308
C88	C	1.283122	-0.195150	0.392692
C89	C	0.826022	-0.656808	-0.196582
C90	C	1.326022	-0.156808	0.303418
C91	C	0.953588	0.000241	-0.184976
C92	C	1.453588	0.500241	0.315024
C93	C	1.031112	0.000265	-0.187386
C94	C	1.531112	0.500265	0.312614
C95	C	0.829403	0.000208	0.073177
C96	C	1.329403	0.500208	0.573177
C97	C	0.826990	0.000211	0.236936
C98	C	1.326990	0.500211	0.736936
N99	N	0.826041	0.189908	-0.196569
N100	N	1.326041	0.689908	0.303431
C101	C	0.822620	0.000209	-0.466316
C102	C	1.322620	0.500209	0.033684
C103	C	0.825033	0.000211	-0.630075
C104	C	1.325033	0.500211	-0.130075
H105	H	0.468442	0.000184	-0.445349
H106	H	0.968442	0.500184	0.054651
O107	O	0.910602	-0.190455	-0.372321
O108	O	1.410602	0.309545	0.127679
C109	C	0.957683	-0.146115	-0.282121
C110	C	1.457683	0.353885	0.217879
H111	H	0.935273	-0.134651	-0.172765
H112	H	1.435273	0.365349	0.327235
H113	H	0.965824	-0.092211	-0.341384
H114	H	1.465824	0.407789	0.158616
H115	H	1.010024	-0.175625	-0.259279
H116	H	1.510024	0.324375	0.240721
H117	H	0.600583	0.000170	-0.449466
H118	H	1.100583	0.500170	0.050534
H119	H	0.156464	0.000241	-0.435639
H120	H	0.656464	0.500241	0.064361
O121	O	0.017521	0.000297	-0.452599
O122	O	0.517521	0.500297	0.047401
C123	C	0.058690	0.000277	-0.572751
C124	C	0.558690	0.500277	-0.072751
H125	H	0.112815	0.023320	-0.534951
H126	H	0.612815	0.523320	-0.034951
H127	H	0.032435	0.035633	-0.666123
H128	H	0.532435	0.535633	-0.166123
H129	H	0.064108	-0.058139	-0.614338
H130	H	0.564108	0.441861	-0.114338
H131	H	0.495555	0.000190	0.042493
H132	H	0.995555	0.500190	0.542493
H133	H	0.627705	0.000147	0.038393
H134	H	1.127705	0.500147	0.538393
O135	O	0.046778	0.000302	0.077510
O136	O	0.546778	0.500302	0.577510
C137	C	-0.026924	0.000298	0.050931
C138	C	0.473076	0.500298	0.550931
H139	H	-0.043283	0.023349	-0.064307
H140	H	0.456717	0.523349	0.435693
H141	H	-0.049814	0.035656	0.137653
H142	H	0.450186	0.535656	0.637653
H143	H	-0.047273	-0.058114	0.057955
H144	H	0.452727	0.441886	0.557955
H145	H	0.748183	-0.663973	-0.034628
H146	H	1.248183	-0.163973	0.465372
O147	O	0.741507	-0.190600	-0.020422
O148	O	1.241507	0.309400	0.479578
C149	C	0.783431	-0.146227	0.080435
C150	C	1.283431	0.353773	0.580435
H151	H	0.838886	-0.169295	0.096586
H152	H	1.338886	0.330705	0.596586
H153	H	0.760414	-0.145364	0.191440
H154	H	1.260414	0.354636	0.691440
H155	H	0.784894	-0.088141	0.034837
H156	H	1.284894	0.411859	0.534837
O157	O	0.910648	-0.657770	-0.372325
O158	O	1.410648	-0.157770	0.127675
C159	C	0.957725	-0.613428	-0.282117
C160	C	1.457725	-0.113428	0.217883
H161	H	0.935305	-0.601959	-0.172772
H162	H	1.435305	-0.101959	0.327228
H163	H	0.965872	-0.559527	-0.341382
H164	H	1.465872	-0.059527	0.158618
H165	H	1.010063	-0.642940	-0.259252
H166	H	1.510063	-0.142940	0.240748
O167	O	0.741471	-0.809153	-0.020740
O168	O	1.241471	-0.309153	0.479260
C169	C	0.750648	-0.885013	-0.039942
C170	C	1.250648	-0.385013	0.460058
H171	H	0.771225	-0.895450	-0.151612
H172	H	1.271225	-0.395450	0.348388
H173	H	0.698289	-0.914144	-0.036481
H174	H	1.198289	-0.414144	0.463519
H175	H	0.789847	-0.906787	0.052737
H176	H	1.289847	-0.406787	0.552737
H177	H	0.183582	0.000241	0.052216
H178	H	0.683582	0.500241	0.552216
O179	O	0.910598	-0.341522	-0.372667
O180	O	1.410598	0.158478	0.127333
C181	C	0.948476	-0.291245	-0.451427
C182	C	1.448476	0.208755	0.048573
H183	H	0.919629	-0.236623	-0.460180
H184	H	1.419629	0.263377	0.039820
H185	H	0.953532	-0.313384	-0.567414
H186	H	1.453532	0.186616	-0.067414
H187	H	1.002895	-0.283072	-0.390377
H188	H	1.502895	0.216928	0.109623
O189	O	0.910642	-0.808832	-0.372668
O190	O	1.410642	-0.308832	0.127332
C191	C	0.948515	-0.758551	-0.451430
C192	C	1.448515	-0.258551	0.048570
H193	H	0.919663	-0.703931	-0.460185
H194	H	1.419663	-0.203931	0.039815
H195	H	0.953572	-0.780690	-0.567416
H196	H	1.453572	-0.280690	-0.067416
H197	H	1.002933	-0.750372	-0.390381
H198	H	1.502933	-0.250372	0.109619
H199	H	0.748161	-0.335709	-0.034622
H200	H	1.248161	0.164291	0.465378
