data_functionalizedCrystal
_audit_creation_method	'MofGen! by Chris Wilmer'
_symmetry_space_group_name_H-M	'P1'
_symmetry_Int_Tables_number	1
_symmetry_cell_setting	triclinic
loop_
_symmetry_equiv_pos_as_xyz
  x,y,z
_cell_length_a	21.395364
_cell_length_b	21.295417
_cell_length_c	21.395355
_cell_angle_alpha	89.979596
_cell_angle_beta	89.975484
_cell_angle_gamma	90.025467
loop_
_atom_site_label
_atom_site_type_symbol
_atom_site_fract_x
_atom_site_fract_y
_atom_site_fract_z
Zn1	Zn	0.957863	-0.250753	-0.354253
Zn2	Zn	0.957768	-0.356005	-0.249472
Zn3	Zn	0.853078	-0.250746	-0.249489
Zn4	Zn	0.853049	-0.355981	-0.354212
O5	O	0.905440	-0.303371	-0.301856
O6	O	1.045529	-0.264728	-0.340363
O7	O	0.943853	-0.342049	-0.161796
O8	O	0.867030	-0.162657	-0.263411
O9	O	1.045458	-0.342056	-0.263381
O10	O	0.944016	-0.162663	-0.340380
O11	O	0.866938	-0.264715	-0.161809
O12	O	0.765397	-0.264692	-0.263371
O13	O	0.866981	-0.342015	-0.441895
O14	O	0.765375	-0.342008	-0.340311
O15	O	0.943987	-0.264705	-0.441925
O16	O	0.943824	-0.444091	-0.263341
O17	O	0.866888	-0.444073	-0.340293
C18	C	0.742652	-0.303347	-0.301839
C19	C	0.673011	-0.303352	-0.301846
C20	C	0.905360	-0.466923	-0.301825
C21	C	0.905383	-0.536891	-0.301832
C22	C	0.171251	-0.263202	-0.342015
C23	C	0.236686	-0.263197	-0.342015
C24	C	0.269373	-0.303390	-0.301870
C25	C	0.236618	-0.343603	-0.261734
C26	C	0.171184	-0.343611	-0.261740
C27	C	0.373009	-0.308265	-0.245403
C28	C	0.438442	-0.308252	-0.245396
C29	C	0.471193	-0.303369	-0.301853
C30	C	0.438504	-0.298485	-0.358318
C31	C	0.373069	-0.298493	-0.358324
C32	C	0.340325	-0.303386	-0.301860
C33	C	0.574892	-0.263157	-0.341990
C34	C	0.640329	-0.263157	-0.341990
C35	C	0.640260	-0.343560	-0.261704
C36	C	0.574824	-0.343563	-0.261709
C37	C	0.542145	-0.303359	-0.301851
C38	C	0.945446	-0.569703	-0.341938
C39	C	0.945468	-0.635446	-0.341954
C40	C	0.905434	-0.668373	-0.301852
C41	C	0.865363	-0.635553	-0.261743
C42	C	0.865337	-0.569812	-0.261733
N43	N	0.900697	-0.771625	-0.247018
N44	N	0.900724	-0.834077	-0.247029
C45	C	0.905507	-0.866448	-0.301880
N46	N	0.910273	-0.834009	-0.356720
N47	N	0.910248	-0.771552	-0.356709
C48	C	0.905457	-0.739659	-0.301858
C49	C	0.945596	-0.970546	-0.342007
C50	C	0.945614	-1.036290	-0.342023
C51	C	0.865512	-1.036396	-0.261806
C52	C	0.865491	-0.970653	-0.261795
C53	C	0.905536	-0.937732	-0.301895
C54	C	1.068863	-0.303396	-0.301874
C55	C	1.138504	-0.303406	-0.301882
C56	C	0.905492	-0.303358	-0.465280
C57	C	0.905514	-0.303353	-0.534921
C58	C	0.905537	-0.139181	-0.301902
C59	C	0.905578	-0.069213	-0.301921
C60	C	0.945609	-0.263096	-0.567651
C61	C	0.945609	-0.263069	-0.633086
C62	C	0.905519	-0.303310	-0.665789
C63	C	0.865415	-0.343570	-0.633052
C64	C	0.865413	-0.343591	-0.567618
C65	C	0.900544	-0.359990	-0.769453
C66	C	0.900551	-0.359969	-0.834886
C67	C	0.905523	-0.303244	-0.867610
C68	C	0.910501	-0.246536	-0.834893
C69	C	0.910499	-0.246558	-0.769459
C70	C	0.905517	-0.303291	-0.736742
C71	C	0.945619	-0.262954	-0.971293
C72	C	0.945614	-0.262926	-1.036729
C73	C	0.865424	-0.343432	-1.036694
C74	C	0.865426	-0.343455	-0.971258
C75	C	0.905527	-0.303216	-0.938562
C76	C	0.905424	-0.303338	-0.139069
C77	C	0.905523	-0.303166	-0.069428
H78	H	0.263353	-0.230454	-0.374695
H79	H	0.896327	-0.406171	-0.742815
N80	N	0.824482	-0.384589	-0.937820
N81	N	0.846501	-0.424717	-0.901314
H82	H	0.817582	-0.453768	-0.877698
N83	N	0.824606	-1.070013	-0.220846
N84	N	0.766787	-1.062713	-0.224950
H85	H	0.737893	-1.086458	-0.196023
H86	H	0.666872	-0.376291	-0.229023
N87	N	0.915572	-0.188581	-0.868301
N88	N	0.920013	-0.137957	-0.839084
H89	H	0.923595	-0.097026	-0.862679
H90	H	0.832772	-0.376333	-0.659683
N91	N	0.824406	-0.536301	-0.220761
N92	N	0.788658	-0.565704	-0.184961
H93	H	0.759750	-0.542037	-0.156024
H94	H	0.832776	-0.376191	-1.063320
H95	H	0.548283	-0.230420	-0.374675
N96	N	0.824481	-0.669198	-0.220778
N97	N	0.846567	-0.705884	-0.180881
H98	H	0.817693	-0.729648	-0.151949
H99	H	0.978238	-1.063004	-0.374685
H100	H	0.832870	-0.943936	-0.229134
N101	N	0.270013	-0.384660	-0.220735
N102	N	0.328436	-0.384647	-0.220735
H103	H	0.352022	-0.413647	-0.191780
H104	H	0.896501	-0.406144	-0.861519
H105	H	0.832760	-0.376373	-0.540969
N106	N	0.986397	-0.668982	-0.382912
N107	N	0.986415	-0.727679	-0.382910
H108	H	1.015322	-0.751363	-0.411835
H109	H	0.144647	-0.230466	-0.374704
N110	N	0.339668	-0.293545	-0.415995
N111	N	0.281245	-0.293574	-0.415990
H112	H	0.257654	-0.290092	-0.456721
H113	H	0.465168	-0.294506	-0.404291
N114	N	0.986503	-0.936923	-0.382969
N115	N	1.022269	-0.966231	-0.418781
H116	H	1.051160	-0.942487	-0.447711
H117	H	0.978262	-0.230330	-0.541033
H118	H	0.978258	-0.230283	-0.659740
H119	H	0.666990	-0.230419	-0.374676
H120	H	0.548162	-0.376300	-0.229025
H121	H	0.465053	-0.312225	-0.199419
H122	H	0.914550	-0.200385	-0.742824
H123	H	0.978264	-0.230140	-1.063377
H124	H	0.346348	-0.312244	-0.199426
H125	H	0.978052	-0.542901	-0.374591
N126	N	0.137741	-0.384687	-0.220741
N127	N	0.166929	-0.420576	-0.184903
H128	H	0.143309	-0.449587	-0.155946
N129	N	0.986580	-0.221847	-0.937899
N130	N	1.022373	-0.185899	-0.967133
H131	H	1.051302	-0.156865	-0.943551
