data_functionalizedCrystal
_audit_creation_method	'MofGen! by Chris Wilmer'
_symmetry_space_group_name_H-M	'P1'
_symmetry_Int_Tables_number	1
_symmetry_cell_setting	triclinic
loop_
_symmetry_equiv_pos_as_xyz
  x,y,z
_cell_length_a	12.759399
_cell_length_b	12.759401
_cell_length_c	10.688615
_cell_angle_alpha	85.688145
_cell_angle_beta	94.357338
_cell_angle_gamma	89.986350
loop_
_atom_site_label
_atom_site_type_symbol
_atom_site_fract_x
_atom_site_fract_y
_atom_site_fract_z
Zn1	Zn	-0.463977	-1.561127	-0.713159
Zn2	Zn	-0.626170	-1.574367	-0.502233
Zn3	Zn	-0.450503	-1.398774	-0.502256
Zn4	Zn	-0.639607	-1.385420	-0.713109
O5	O	-0.545065	-1.479922	-0.607689
O6	O	-0.485508	-1.709904	-0.685191
O7	O	-0.591605	-1.562203	-0.325720
O8	O	-0.305271	-1.420359	-0.530263
O9	O	-0.604671	-1.719631	-0.530224
O10	O	-0.315171	-1.539639	-0.685212
O11	O	-0.462543	-1.433196	-0.325737
O12	O	-0.475572	-1.249982	-0.530215
O13	O	-0.627572	-1.397598	-0.889632
O14	O	-0.614506	-1.240171	-0.685128
O15	O	-0.498538	-1.526689	-0.889668
O16	O	-0.774972	-1.549254	-0.530176
O17	O	-0.784844	-1.410436	-0.685106
C18	C	-0.545036	-1.206956	-0.607669
C19	C	-0.545051	-1.090178	-0.607690
C20	C	-0.617500	-0.920511	-0.688233
C21	C	-0.617490	-1.030236	-0.688222
C22	C	-0.472623	-1.040390	-0.527157
C23	C	-0.472638	-0.930668	-0.527163
C24	C	-0.818030	-1.479859	-0.607661
C25	C	-0.934809	-1.479926	-0.607691
C26	C	-0.984501	-1.552280	-0.527110
C27	C	-1.094228	-1.552344	-0.527153
C28	C	-1.104560	-1.407693	-0.688359
C29	C	-0.994836	-1.407633	-0.688322
C30	C	-0.271035	-1.480011	-0.607746
C31	C	-0.154260	-1.480050	-0.607770
C32	C	-0.566057	-1.459177	-0.936698
C33	C	-0.575002	-1.450337	-1.076903
C34	C	-0.545086	-0.753954	-0.607708
C35	C	-0.545075	-0.870730	-0.607709
C36	C	-0.524078	-1.500646	-0.279960
C37	C	-0.514837	-1.509690	-0.139757
H38	H	-0.676467	-1.070762	-0.753792
H39	H	-0.633580	-1.392588	-0.130356
O40	O	-0.687965	-0.862447	-0.766510
C41	C	-0.751867	-0.929918	-0.837603
H42	H	-0.752134	-1.011383	-0.785920
H43	H	-0.719630	-0.935561	-0.933480
C44	C	-0.864530	-0.785895	-0.919043
C45	C	-0.864865	-0.885950	-0.855559
H46	H	-0.934232	-0.758773	-0.930125
H47	H	-0.821476	-0.740438	-0.871150
H48	H	-0.837661	-0.790611	-0.998933
H49	H	-0.891722	-0.881231	-0.775665
H50	H	-0.907926	-0.931406	-0.903439
O51	O	-0.444882	-1.578432	-0.075870
C52	C	-0.372476	-1.522997	0.000222
H53	H	-0.408806	-1.444909	0.020136
H54	H	-0.298027	-1.507660	-0.050711
C55	C	-0.300256	-1.684554	0.100787
C56	C	-0.344881	-1.588649	0.125254
H57	H	-0.283230	-1.725052	0.177910
H58	H	-0.349034	-1.721903	0.049519
H59	H	-0.238221	-1.671759	0.058339
H60	H	-0.406922	-1.601445	0.167686
H61	H	-0.296113	-1.551304	0.176531
H62	H	-0.413646	-1.089204	-0.461581
H63	H	-0.413660	-0.890136	-0.461584
H64	H	-0.935630	-1.611146	-0.461457
O65	O	-1.142329	-1.622667	-0.448755
C66	C	-1.065816	-1.686475	-0.377609
H67	H	-0.987357	-1.643677	-0.373172
H68	H	-1.057013	-1.763315	-0.423876
C69	C	-1.196477	-1.762757	-0.248839
C70	C	-1.100115	-1.710187	-0.243380
H71	H	-1.217635	-1.777388	-0.166042
H72	H	-1.248027	-1.719771	-0.296774
H73	H	-1.189129	-1.826784	-0.287400
H74	H	-1.107468	-1.646156	-0.204835
H75	H	-1.048567	-1.753163	-0.195436
O76	O	-1.163026	-1.337506	-0.766553
C77	C	-1.270530	-1.353086	-0.749328
H78	H	-1.279316	-1.393704	-0.652023
H79	H	-1.306375	-1.404278	-0.824217
C80	C	-1.316881	-1.196195	-0.880302
C81	C	-1.327672	-1.246075	-0.760787
H82	H	-1.352131	-1.130187	-0.887376
H83	H	-1.244454	-1.185700	-0.891912
H84	H	-1.346751	-1.238866	-0.942697
H85	H	-1.297790	-1.203410	-0.698396
H86	H	-1.400095	-1.256560	-0.749167
O87	O	-0.946723	-1.337243	-0.766643
C88	C	-1.023231	-1.273460	-0.837833
H89	H	-1.098173	-1.273149	-0.786192
H90	H	-1.040949	-1.305836	-0.933676
C91	C	-0.889590	-1.160853	-0.919314
C92	C	-0.981633	-1.160465	-0.855882
H93	H	-0.863930	-1.091153	-0.930454
H94	H	-0.838044	-1.203827	-0.871356
H95	H	-0.904368	-1.187838	-0.999176
H96	H	-0.966851	-1.133492	-0.776017
H97	H	-1.033175	-1.117484	-0.903828
