data_functionalizedCrystal
_audit_creation_method	'MofGen! by Chris Wilmer'
_symmetry_space_group_name_H-M	'P1'
_symmetry_Int_Tables_number	1
_symmetry_cell_setting	triclinic
loop_
_symmetry_equiv_pos_as_xyz
  x,y,z
_cell_length_a	6.817900
_cell_length_b	16.418049
_cell_length_c	16.305550
_cell_angle_alpha	95.392859
_cell_angle_beta	103.455250
_cell_angle_gamma	103.389670
loop_
_atom_site_label
_atom_site_type_symbol
_atom_site_fract_x
_atom_site_fract_y
_atom_site_fract_z
V1	V	-4.025855	-0.116594	-0.263330
O2	O	-4.013857	0.004875	-0.258012
O3	O	-3.976925	-0.230486	-0.261823
O4	O	-3.977266	-0.115119	-0.378044
O5	O	-4.013514	-0.111290	-0.140987
V6	V	-4.509576	-0.102027	-0.248661
O7	O	-4.286679	-0.148547	-0.295508
O8	O	-4.698950	-0.070073	-0.216484
O9	O	-4.335300	0.011866	-0.250168
O10	O	-4.638971	-0.223496	-0.253980
O11	O	-4.639315	-0.107331	-0.371005
O12	O	-4.334959	-0.103501	-0.133948
C13	C	-3.821803	-0.258241	-0.257745
C14	C	-3.863082	-0.351351	-0.257277
C15	C	-4.140109	-0.569849	-0.260438
C16	C	-4.178884	-0.657337	-0.260006
C17	C	-3.814681	-0.648771	-0.251559
C18	C	-3.775912	-0.561285	-0.251997
C19	C	-3.938631	-0.521826	-0.256432
C20	C	-4.016174	-0.696800	-0.255562
C21	C	-4.058214	-0.791658	-0.255094
C22	C	-3.896590	-0.426962	-0.256902
C23	C	-3.822237	-0.111078	-0.405994
C24	C	-3.863790	-0.110626	-0.499775
C25	C	-4.014883	-0.108876	-0.840516
C26	C	-3.778853	-0.103678	-0.799574
C27	C	-3.735656	-0.104495	-0.702081
C28	C	-3.939923	-0.109743	-0.671470
C29	C	-4.106679	-0.192465	-0.722309
C30	C	-4.148544	-0.191997	-0.819857
C31	C	-4.069896	-0.032013	-0.794476
C32	C	-4.021969	-0.031358	-0.696631
C33	C	-3.897571	-0.110237	-0.575934
C34	C	-4.057244	-0.108388	-0.936054
C35	C	-4.153764	0.039616	-0.254244
C36	C	-4.091723	0.132725	-0.254717
C37	C	-4.153330	-0.107545	-0.105993
C38	C	-4.091015	-0.107993	-0.012211
H39	H	-4.272608	-0.537724	-0.264048
C40	C	-4.302313	-0.036150	-0.830712
H41	H	-4.334620	0.010451	-0.802639
H42	H	-4.329459	-0.033818	-0.890169
H43	H	-4.386250	-0.087640	-0.821671
C44	C	-4.400508	-0.710164	-0.264417
H45	H	-4.400307	-0.767921	-0.263533
H46	H	-4.443361	-0.689808	-0.216782
H47	H	-4.494590	-0.705365	-0.315675
C48	C	-4.313543	-0.201713	-0.696778
H49	H	-4.412140	-0.252133	-0.728271
H50	H	-4.289619	-0.204462	-0.637459
H51	H	-4.366507	-0.154252	-0.708867
H52	H	-3.978704	0.030664	-0.807683
C53	C	-3.554272	-0.508455	-0.247588
H54	H	-3.462908	-0.544482	-0.244871
H55	H	-3.557206	-0.481932	-0.297026
H56	H	-3.505957	-0.466366	-0.198133
C57	C	-4.031537	-0.271094	-0.699807
H58	H	-3.898650	-0.253683	-0.659469
H59	H	-4.128791	-0.305945	-0.676062
H60	H	-4.020765	-0.302154	-0.750015
H61	H	-3.682205	-0.680908	-0.247947
C62	C	-3.565017	-0.024157	-0.654558
H63	H	-3.521525	0.009273	-0.694799
H64	H	-3.619246	0.007691	-0.617834
H65	H	-3.448969	-0.039875	-0.621734
H66	H	-3.901127	0.029827	-0.662096
H67	H	-3.672914	-0.043921	-0.811785
H68	H	-3.733577	-0.158901	-0.831228
H69	H	-3.669043	-0.160355	-0.685931
C70	C	-4.383344	-0.201808	-0.857703
H71	H	-4.452748	-0.206068	-0.813448
H72	H	-4.401863	-0.153837	-0.883865
H73	H	-4.440286	-0.251597	-0.899137
C74	C	-4.099443	-0.270597	-0.861105
H75	H	-4.054138	-0.302510	-0.818204
H76	H	-4.221599	-0.304653	-0.901682
H77	H	-3.992254	-0.253114	-0.888863
C78	C	-4.220924	-0.029954	-0.667777
H79	H	-4.256727	-0.077370	-0.639890
H80	H	-4.196384	0.020838	-0.629471
H81	H	-4.332428	-0.032484	-0.716178
