data_functionalizedCrystal
_audit_creation_method	'MofGen! by Chris Wilmer'
_symmetry_space_group_name_H-M	'P1'
_symmetry_Int_Tables_number	1
_symmetry_cell_setting	triclinic
loop_
_symmetry_equiv_pos_as_xyz
  x,y,z
_cell_length_a	12.594516
_cell_length_b	12.759395
_cell_length_c	12.759387
_cell_angle_alpha	89.980569
_cell_angle_beta	89.971510
_cell_angle_gamma	90.015898
loop_
_atom_site_label
_atom_site_type_symbol
_atom_site_fract_x
_atom_site_fract_y
_atom_site_fract_z
Zn1	Zn	-0.423690	1.606259	-0.593992
Zn2	Zn	-0.601708	1.606145	-0.418319
Zn3	Zn	-0.423743	1.430557	-0.418332
Zn4	Zn	-0.601627	1.430545	-0.593962
O5	O	-0.512692	1.518377	-0.506151
O6	O	-0.447317	1.753265	-0.570696
O7	O	-0.578156	1.582811	-0.271300
O8	O	-0.274790	1.453917	-0.441651
O9	O	-0.578105	1.753181	-0.441630
O10	O	-0.274752	1.583004	-0.570708
O11	O	-0.447407	1.453807	-0.271309
O12	O	-0.447328	1.283534	-0.441622
O13	O	-0.577967	1.453897	-0.740987
O14	O	-0.578018	1.283526	-0.570657
O15	O	-0.447238	1.582993	-0.741009
O16	O	-0.750643	1.582799	-0.441601
O17	O	-0.750583	1.453786	-0.570644
C18	C	-0.512671	1.245409	-0.506138
C19	C	-0.512687	1.128632	-0.506158
C20	C	-0.376717	1.128700	-0.640771
C21	C	-0.308745	1.073873	-0.708086
C22	C	-0.308764	0.964151	-0.708099
C23	C	-0.376760	0.909254	-0.640788
C24	C	-0.444732	0.964081	-0.573473
C25	C	-0.444708	1.073805	-0.573469
C26	C	-0.580695	0.964014	-0.438855
C27	C	-0.580684	1.073735	-0.438846
C28	C	-0.648692	0.909117	-0.371544
C29	C	-0.716671	0.963944	-0.304232
C30	C	-0.716650	1.073672	-0.304223
C31	C	-0.648656	1.128562	-0.371531
C32	C	-0.789233	1.518308	-0.506141
C33	C	-0.907538	1.518374	-0.506172
C34	C	-0.976798	1.448198	-0.576309
C35	C	-1.047667	1.422596	-0.480443
C36	C	-1.047468	1.544072	-0.602054
C37	C	-0.976849	1.492722	-0.410254
C38	C	-0.976644	1.614242	-0.531931
C39	C	-1.047482	1.588677	-0.435998
C40	C	-0.235071	1.518474	-0.506184
C41	C	-0.116766	1.518516	-0.506199
C42	C	-0.512588	1.518456	-0.780185
C43	C	-0.512543	1.518490	-0.896962
C44	C	-0.512714	1.792410	-0.506165
C45	C	-0.512723	1.909187	-0.506171
C46	C	-0.376424	1.652927	-0.897004
C47	C	-0.308348	1.720160	-0.951886
C48	C	-0.308310	1.720185	-1.061608
C49	C	-0.376351	1.652968	-1.116450
C50	C	-0.444427	1.585735	-1.061568
C51	C	-0.444461	1.585719	-0.951844
C52	C	-0.580539	1.451295	-1.061525
C53	C	-0.580585	1.451273	-0.951803
C54	C	-0.648581	1.384078	-1.116367
C55	C	-0.716664	1.316848	-1.061485
C56	C	-0.716701	1.316826	-0.951757
C57	C	-0.648661	1.384040	-0.896921
C58	C	-0.512719	1.518358	-0.233184
C59	C	-0.512464	1.518528	-0.116407
H60	H	-0.253382	1.118582	-0.762888
O61	O	-0.648711	0.790774	-0.371546
H62	H	-0.670342	0.761871	-0.450750
H63	H	-0.252948	1.774884	-0.907222
O64	O	-0.789961	1.132807	-0.231616
H65	H	-0.837244	1.076197	-0.184821
O66	O	-1.088556	1.572796	-0.709446
H67	H	-1.060245	1.514358	-0.767496
H68	H	-0.945761	1.388745	-0.635536
O69	O	-0.376771	0.790911	-0.640785
H70	H	-0.398392	0.762001	-0.719988
O71	O	-0.235446	0.905008	-0.780693
H72	H	-0.283162	0.855029	-0.834059
O73	O	-0.789994	0.904730	-0.231635
H74	H	-0.837255	0.961284	-0.184821
H75	H	-1.078322	1.648084	-0.376628
O76	O	-0.648625	1.246905	-0.371508
H77	H	-0.589916	1.275863	-0.429611
O78	O	-0.935289	1.721522	-0.560821
H79	H	-0.886836	1.752879	-0.495300
H80	H	-1.078887	1.341588	-0.458677
H81	H	-0.376459	1.652922	-0.807663
O82	O	-0.935945	1.463876	-0.302828
H83	H	-0.847819	1.464001	-0.303671
O84	O	-0.234892	1.792701	-1.120813
H85	H	-0.187589	1.839441	-1.064251
H86	H	-0.376305	1.652986	-1.205791
H87	H	-0.648541	1.384099	-1.205708
H88	H	-0.772052	1.262120	-1.106146
O89	O	-0.376708	1.247043	-0.640765
H90	H	-0.355096	1.275945	-0.561557
H91	H	-0.772125	1.262065	-0.907078
O92	O	-0.648713	1.384011	-0.778578
H93	H	-0.568442	1.362802	-0.749654
