data_functionalizedCrystal
_audit_creation_method	'MofGen! by Chris Wilmer'
_symmetry_space_group_name_H-M	'P1'
_symmetry_Int_Tables_number	1
_symmetry_cell_setting	triclinic
loop_
_symmetry_equiv_pos_as_xyz
  x,y,z
_cell_length_a	12.811457
_cell_length_b	14.044190
_cell_length_c	11.295483
_cell_angle_alpha	94.464886
_cell_angle_beta	91.289320
_cell_angle_gamma	88.597539
loop_
_atom_site_label
_atom_site_type_symbol
_atom_site_fract_x
_atom_site_fract_y
_atom_site_fract_z
O1	O	1.401200	0.131066	0.052280
O2	O	1.901200	0.631066	0.552280
O3	O	1.099054	0.142860	0.019646
O4	O	1.599054	0.642860	0.519646
O5	O	1.245587	-0.001070	0.035496
O6	O	1.745587	0.498930	0.535496
O7	O	1.254668	0.274996	0.036430
O8	O	1.754668	0.774996	0.536430
O9	O	1.232715	0.011552	0.232155
O10	O	1.732715	0.511552	0.732155
O11	O	1.086182	0.155482	0.216305
O12	O	1.586182	0.655482	0.716305
O13	O	1.388328	0.143688	0.248938
O14	O	1.888328	0.643688	0.748938
Cu15	Cu	1.236080	0.150737	0.250578
Cu16	Cu	1.736080	0.650737	0.750578
Cu17	Cu	1.251303	0.135810	0.018007
Cu18	Cu	1.751303	0.635810	0.518007
O19	O	1.241796	0.287618	0.233088
O20	O	1.741796	0.787618	0.733088
C21	C	1.053716	0.148123	0.113774
C22	C	1.553716	0.648123	0.613774
C23	C	0.937800	0.144990	0.101256
C24	C	1.437800	0.644990	0.601256
C25	C	0.705946	0.152847	0.292153
C26	C	1.205946	0.652847	0.792153
C27	C	0.597032	0.149903	0.280397
C28	C	1.097032	0.649903	0.780397
C29	C	0.611057	0.136152	0.065988
C30	C	1.111057	0.636152	0.565988
C31	C	0.719971	0.139096	0.077744
C32	C	1.219971	0.639096	0.577744
C33	C	0.767411	0.147445	0.190831
C34	C	1.267411	0.647445	0.690831
C35	C	0.876327	0.150395	0.202586
C36	C	1.376327	0.650395	0.702586
C37	C	0.890350	0.136638	-0.011822
C38	C	1.390350	0.636638	0.488178
C39	C	0.781436	0.133694	-0.023578
C40	C	1.281436	0.633694	0.476422
C41	C	1.235179	-0.030116	0.133400
C42	C	1.735179	0.469884	0.633400
C43	C	1.223332	-0.135471	0.132131
C44	C	1.723332	0.364529	0.632131
C45	C	1.285693	-0.385081	0.138819
C46	C	1.785693	0.114919	0.638819
C47	C	1.201695	-0.328367	0.129755
C48	C	1.701695	0.171633	0.629755
C49	C	1.213737	-0.221030	0.131077
C50	C	1.713737	0.278970	0.631077
C51	C	1.273653	-0.492428	0.137498
C52	C	1.773653	0.007572	0.637498
C53	C	1.433666	0.138424	0.154808
C54	C	1.933666	0.638424	0.654808
C55	C	1.549583	0.141557	0.167318
C56	C	2.049583	0.641557	0.667318
C57	C	1.252204	0.316664	0.135182
C58	C	1.752204	0.816664	0.635182
C59	C	1.264051	0.422018	0.136443
C60	C	1.764051	0.922018	0.636443
N61	N	1.225381	0.161236	0.414157
N62	N	1.725381	0.661236	0.914157
N63	N	1.262010	0.125305	-0.145572
N64	N	1.762010	0.625305	0.354428
C65	C	1.339024	0.049679	0.675739
C66	C	1.839024	0.549679	1.175739
C67	C	1.330947	0.057619	0.799529
C68	C	1.830947	0.557619	1.299529
C69	C	1.201143	0.185052	0.785529
C70	C	1.701143	0.685052	1.285529
C71	C	1.209221	0.177111	0.661739
C72	C	1.709221	0.677111	1.161739
C73	C	1.278165	0.109424	0.606848
C74	C	1.778165	0.609424	1.106848
C75	C	1.286247	0.101488	0.483057
C76	C	1.786247	0.601488	0.983057
C77	C	1.156439	0.228916	0.469058
C78	C	1.656439	0.728916	0.969058
C79	C	1.148361	0.236856	0.592848
C80	C	1.648361	0.736856	1.092848
H81	H	0.572412	0.129338	-0.026081
H82	H	1.072412	0.629338	0.473919
H83	H	1.106886	0.277567	0.412954
H84	H	1.606886	0.777567	0.912954
N85	N	0.730266	0.124680	-0.145544
N86	N	1.230266	0.624680	0.354456
H87	H	0.651942	0.123632	-0.137619
H88	H	1.151942	0.623632	0.362381
H89	H	0.749374	0.180884	-0.190631
H90	H	1.249374	0.680884	0.309369
N91	N	0.956643	0.130820	-0.121116
N92	N	1.456643	0.630820	0.378884
H93	H	1.032839	0.133956	-0.096512
H94	H	1.532839	0.633956	0.403488
H95	H	0.943661	0.068613	-0.169661
H96	H	1.443661	0.568613	0.330339
N97	N	1.094454	-0.370821	0.118162
N98	N	1.594454	0.129179	0.618162
H99	H	1.100937	-0.442593	0.118851
H100	H	1.600937	0.057407	0.618851
H101	H	1.050576	-0.344425	0.186849
H102	H	1.550576	0.155575	0.686849
N103	N	1.392925	-0.342625	0.150434
N104	N	1.892925	0.157375	0.650434
H105	H	1.386434	-0.270852	0.149756
H106	H	1.886434	0.229148	0.649756
H107	H	1.427243	-0.359698	0.227568
H108	H	1.927243	0.140302	0.727568
N109	N	1.360608	0.028490	0.423848
N110	N	1.860608	0.528490	0.923848
H111	H	1.397933	-0.008154	0.486279
H112	H	1.897933	0.491846	0.986279
H113	H	1.320144	-0.017204	0.367770
H114	H	1.820144	0.482796	0.867770
N115	N	1.413391	-0.023312	0.616527
N116	N	1.913391	0.476688	1.116527
H117	H	1.450726	-0.059953	0.678954
H118	H	1.950726	0.440047	1.178954
H119	H	1.372933	-0.069011	0.560449
H120	H	1.872933	0.430989	1.060449
H121	H	0.744572	0.159657	0.384233
H122	H	1.244572	0.659657	0.884233
H123	H	1.380503	0.008968	0.855616
H124	H	1.880503	0.508968	1.355616
N125	N	1.126784	0.258041	0.844758
N126	N	1.626784	0.758041	1.344758
H127	H	1.167182	0.303793	0.900833
H128	H	1.667182	0.803793	1.400833
H129	H	1.089463	0.294623	0.782271
H130	H	1.589463	0.794623	1.282271
N131	N	0.927499	0.159407	0.324550
N132	N	1.427499	0.659407	0.824550
H133	H	0.872030	0.162380	0.386953
H134	H	1.372030	0.662380	0.886953
H135	H	0.975373	0.102238	0.334427
H136	H	1.475373	0.602238	0.834427
N137	N	0.530737	0.155724	0.389681
N138	N	1.030737	0.655724	0.889681
H139	H	0.577353	0.160809	0.463099
H140	H	1.077353	0.660809	0.963099
H141	H	0.482749	0.213853	0.389555
H142	H	0.982749	0.713853	0.889555
N143	N	1.074003	0.309853	0.652064
N144	N	1.574003	0.809853	1.152064
H145	H	1.114401	0.355609	0.708135
H146	H	1.614401	0.855609	1.208135
H147	H	1.036691	0.346430	0.589565
H148	H	1.536691	0.846430	1.089565
