data_functionalizedCrystal
_audit_creation_method	'MofGen! by Chris Wilmer'
_symmetry_space_group_name_H-M	'P1'
_symmetry_Int_Tables_number	1
_symmetry_cell_setting	triclinic
loop_
_symmetry_equiv_pos_as_xyz
  x,y,z
_cell_length_a	17.699083
_cell_length_b	16.176319
_cell_length_c	17.699083
_cell_angle_alpha	90.004339
_cell_angle_beta	96.717152
_cell_angle_gamma	89.994736
loop_
_atom_site_label
_atom_site_type_symbol
_atom_site_fract_x
_atom_site_fract_y
_atom_site_fract_z
O1	O	-1.004078	0.068734	0.095707
O2	O	-0.783700	0.068739	0.108160
O3	O	-0.900115	0.068729	-0.008256
O4	O	-0.887663	0.068744	0.212122
O5	O	-0.900101	-0.068764	-0.008256
O6	O	-0.783686	-0.068754	0.108159
O7	O	-1.004064	-0.068759	0.095706
Cu8	Cu	-0.893874	-0.081311	0.101933
Cu9	Cu	-0.893890	0.081291	0.101933
O10	O	-0.887649	-0.068749	0.212122
C11	C	-0.755496	-0.000007	0.107713
C12	C	-0.671478	-0.000005	0.106375
N13	N	-0.893868	-0.195676	0.101932
C14	C	-0.632003	-0.074954	0.105744
C15	C	-0.553061	-0.074954	0.104475
C16	C	-0.513594	-0.000006	0.103841
C17	C	-0.553074	0.074948	0.104470
C18	C	-0.632016	0.074948	0.105734
C19	C	-0.234712	0.074950	0.099371
C20	C	-0.155764	0.074945	0.098109
C21	C	-0.155756	-0.074952	0.098111
C22	C	-0.234698	-0.074952	0.099375
C23	C	-0.274172	0.000001	0.100000
C24	C	-0.359771	0.000001	0.101375
C25	C	-0.427996	-0.000005	0.102472
C26	C	-0.939683	-0.238934	0.147781
C27	C	-0.939691	-0.325481	0.147778
C28	C	-0.893880	-0.368769	0.101930
C29	C	-0.848063	-0.325504	0.056076
C30	C	-0.848059	-0.238959	0.056075
C31	C	-0.848077	-0.674532	0.056077
C32	C	-0.848082	-0.761084	0.056083
C33	C	-0.939709	-0.761055	0.147779
C34	C	-0.939705	-0.674510	0.147779
C35	C	-0.893892	-0.631253	0.101922
C36	C	-0.893885	-0.537409	0.101925
C37	C	-0.893882	-0.462611	0.101931
C38	C	-0.032269	-0.000010	0.096148
C39	C	-0.116289	-0.000004	0.097472
C40	C	-0.899662	-0.000017	-0.036453
C41	C	-0.898323	-0.000018	-0.120471
N42	N	-0.893902	0.195656	0.101928
C43	C	-0.966657	-0.000020	-0.169092
C44	C	-0.965395	-0.000013	-0.248036
C45	C	-0.895798	-0.000009	-0.278356
C46	C	-0.827459	-0.000004	-0.229729
C47	C	-0.828722	-0.000005	-0.150787
C48	C	-0.822364	0.000003	-0.548092
C49	C	-0.821106	0.000002	-0.627040
C50	C	-0.959036	-0.000005	-0.645341
C51	C	-0.960299	-0.000006	-0.566399
C52	C	-0.891961	0.000003	-0.517778
C53	C	-0.893331	-0.000003	-0.432179
C54	C	-0.894428	-0.000009	-0.363954
C55	C	-0.888102	-0.000001	0.240319
C56	C	-0.889441	0.000005	0.324337
H57	H	-0.664130	-0.135986	0.106266
O58	O	-1.025492	-0.000040	-0.692464
C59	C	-1.162438	0.000002	-0.702282
C60	C	-1.087237	0.000025	-0.648832
H61	H	-1.212378	0.000072	-0.667026
H62	H	-1.165343	-0.057549	-0.739691
H63	H	-1.165262	0.057532	-0.739707
H64	H	-1.084362	-0.057466	-0.611359
H65	H	-1.084363	0.057615	-0.611474
H66	H	-0.773078	-0.000003	-0.111200
H67	H	-0.664155	0.135979	0.106249
H68	H	-0.266842	0.135982	0.099877
O69	O	-0.984254	-0.197017	0.192339
C70	C	-1.075107	-0.206133	0.283325
C71	C	-1.024676	-0.253704	0.232886
H72	H	-1.107789	-0.251944	0.316132
H73	H	-1.117025	-0.165634	0.246082
H74	H	-1.037793	-0.165595	0.325143
H75	H	-1.061929	-0.294288	0.191061
H76	H	-0.982754	-0.294151	0.270177
H77	H	-0.977006	-0.639270	0.185116
H78	H	-0.520925	-0.135985	0.103948
O79	O	-0.759786	0.000040	-0.259054
C80	C	-0.623107	0.000000	-0.232563
C81	C	-0.699694	-0.000028	-0.199254
H82	H	-0.574503	-0.000072	-0.184232
H83	H	-0.619023	0.057555	-0.269033
H84	H	-0.619101	-0.057527	-0.269094
H85	H	-0.703753	0.057460	-0.162690
H86	H	-0.703745	-0.057621	-0.162828
H87	H	-0.520935	0.135973	0.103949
H88	H	-0.266828	-0.135983	0.099895
H89	H	-0.766719	0.000011	-0.508514
O90	O	-0.753430	0.000050	-0.656368
C91	C	-0.616750	0.000022	-0.629890
C92	C	-0.693333	-0.000012	-0.596574
H93	H	-0.568141	-0.000045	-0.581563
H94	H	-0.612673	0.057577	-0.666362
H95	H	-0.612742	-0.057505	-0.666420
H96	H	-0.697392	0.057477	-0.560010
H97	H	-0.697376	-0.057604	-0.560145
O98	O	-0.117356	0.147702	0.097386
C99	C	-0.036966	0.234702	0.030388
C100	C	-0.080414	0.152274	0.031118
H101	H	-0.007099	0.238433	-0.023192
H102	H	0.007065	0.238468	0.082707
H103	H	-0.078748	0.288260	0.031086
H104	H	-0.038689	0.098669	0.030393
H105	H	-0.124455	0.148580	-0.021197
H106	H	-0.123607	-0.135983	0.097599
O107	O	-0.984285	-0.367536	0.192203
C108	C	-1.086450	-0.465256	0.196453
C109	C	-1.036007	-0.417670	0.146052
H110	H	-1.128269	-0.505814	0.159162
H111	H	-1.119244	-0.419485	0.229206
H112	H	-1.049137	-0.505743	0.238319
H113	H	-1.073264	-0.377182	0.104143
H114	H	-1.003208	-0.463486	0.113353
H115	H	-0.977014	-0.796285	0.185116
H116	H	-1.023330	-0.000029	-0.144412
O117	O	-1.031844	-0.000058	-0.295158
C118	C	-1.168789	-0.000029	-0.304980
C119	C	-1.093589	0.000003	-0.251528
H120	H	-1.218730	0.000038	-0.269726
H121	H	-1.171689	-0.057582	-0.342386
H122	H	-1.171617	0.057499	-0.342407
H123	H	-1.090711	-0.057487	-0.214053
H124	H	-1.090722	0.057594	-0.214173
O125	O	-0.803563	-0.803008	0.011469
C126	C	-0.712653	-0.793912	-0.079460
C127	C	-0.763044	-0.746330	-0.028991
H128	H	-0.679868	-0.748109	-0.112173
H129	H	-0.749929	-0.834409	-0.121351
H130	H	-0.670815	-0.834454	-0.042172
H131	H	-0.804890	-0.705743	-0.066218
H132	H	-0.725721	-0.705885	0.012905
O133	O	-0.803581	-0.367676	0.011608
C134	C	-0.762963	-0.501010	-0.029027
C135	C	-0.813365	-0.453358	0.021382
H136	H	-0.770868	-0.570292	-0.021155
H137	H	-0.700773	-0.484024	-0.012101
H138	H	-0.779975	-0.483983	-0.091192
H139	H	-0.796421	-0.470360	0.083561
H140	H	-0.875543	-0.470348	0.004391
O141	O	-0.803483	-0.197063	0.011520
C142	C	-0.712634	-0.206219	-0.079469
C143	C	-0.763065	-0.253768	-0.029029
H144	H	-0.679956	-0.252044	-0.112278
H145	H	-0.670713	-0.165725	-0.042228
H146	H	-0.749947	-0.165678	-0.121286
H147	H	-0.725813	-0.294353	0.012796
H148	H	-0.804991	-0.294210	-0.066318
O149	O	-1.027858	0.000102	-0.536857
C150	C	-1.109358	0.071362	-0.458387
C151	C	-1.032813	0.071327	-0.491775
H152	H	-1.113395	0.128950	-0.421943
H153	H	-1.113406	0.013861	-0.421839
H154	H	-1.157969	0.071323	-0.506712
H155	H	-0.984158	0.071395	-0.443498
H156	H	-1.028831	0.128823	-0.528342
H157	H	-0.810773	-0.639323	0.018738
