data_functionalizedCrystal
_audit_creation_method	'MofGen! by Chris Wilmer'
_symmetry_space_group_name_H-M	'P1'
_symmetry_Int_Tables_number	1
_symmetry_cell_setting	triclinic
loop_
_symmetry_equiv_pos_as_xyz
  x,y,z
_cell_length_a	17.699104
_cell_length_b	17.699083
_cell_length_c	9.130313
_cell_angle_alpha	89.997869
_cell_angle_beta	89.998885
_cell_angle_gamma	83.287266
loop_
_atom_site_label
_atom_site_type_symbol
_atom_site_fract_x
_atom_site_fract_y
_atom_site_fract_z
O1	O	1.004062	0.095783	-0.121832
O2	O	1.504062	0.595783	0.378168
O3	O	0.783685	0.108219	-0.121829
O4	O	1.283685	0.608219	0.378171
O5	O	0.900100	-0.008188	-0.121817
O6	O	1.400100	0.491812	0.378183
O7	O	0.887647	0.212190	-0.121843
O8	O	1.387647	0.712190	0.378157
O9	O	0.900098	-0.008185	0.121781
O10	O	1.400098	0.491815	0.621781
O11	O	0.783684	0.108222	0.121770
O12	O	1.283684	0.608222	0.621770
O13	O	1.004060	0.095786	0.121767
O14	O	1.504060	0.595786	0.621767
Cu15	Cu	0.893872	0.102004	0.144011
Cu16	Cu	1.393872	0.602004	0.644011
Cu17	Cu	0.893874	0.102001	-0.144073
Cu18	Cu	1.393874	0.602001	0.355927
O19	O	0.887646	0.212193	0.121756
O20	O	1.387646	0.712193	0.621756
C21	C	0.755488	0.107772	-0.000029
C22	C	1.255488	0.607772	0.499971
C23	C	0.671471	0.106427	-0.000027
C24	C	1.171471	0.606427	0.499973
C25	C	0.146600	0.167171	-0.000050
C26	C	0.646600	0.667171	0.499950
C27	C	0.225543	0.168430	-0.000054
C28	C	0.725543	0.668430	0.499946
C29	C	0.274161	0.100095	-0.000046
C30	C	0.774161	0.600095	0.499954
C31	C	0.243831	0.030496	-0.000048
C32	C	0.743831	0.530496	0.499952
C33	C	0.164889	0.029238	-0.000054
C34	C	0.664889	0.529238	0.499946
C35	C	0.562197	0.035569	-0.000025
C36	C	1.062197	0.535569	0.499975
C37	C	0.641144	0.036833	-0.000014
C38	C	1.141144	0.536833	0.499986
C39	C	0.622852	0.174762	-0.000025
C40	C	1.122852	0.674762	0.499975
C41	C	0.543909	0.173503	-0.000031
C42	C	1.043909	0.673503	0.499969
C43	C	0.513587	0.103905	-0.000041
C44	C	1.013587	0.603905	0.499959
C45	C	0.427987	0.102541	-0.000039
C46	C	0.927987	0.602541	0.499961
C47	C	0.359759	0.101459	-0.000037
C48	C	0.859759	0.601459	0.499963
C49	C	0.899653	-0.036383	-0.000018
C50	C	1.399653	0.463617	0.499982
C51	C	0.898314	-0.120402	-0.000017
C52	C	1.398314	0.379598	0.499983
C53	C	0.966647	-0.169017	-0.000016
C54	C	1.466647	0.330983	0.499984
C55	C	0.965385	-0.247961	-0.000029
C56	C	1.465385	0.252039	0.499971
C57	C	0.895789	-0.278287	-0.000033
C58	C	1.395789	0.221713	0.499967
C59	C	0.827451	-0.229665	-0.000038
C60	C	1.327451	0.270335	0.499962
C61	C	0.828714	-0.150723	-0.000036
C62	C	1.328714	0.349277	0.499964
C63	C	0.822356	-0.548028	-0.000050
C64	C	1.322356	-0.048028	0.499950
C65	C	0.821098	-0.626976	-0.000048
C66	C	1.321098	-0.126976	0.499952
C67	C	0.959026	-0.645266	-0.000043
C68	C	1.459026	-0.145266	0.499957
C69	C	0.960289	-0.566324	-0.000041
C70	C	1.460289	-0.066324	0.499959
C71	C	0.891952	-0.517709	-0.000054
C72	C	1.391952	-0.017709	0.499946
C73	C	0.893321	-0.432110	-0.000043
C74	C	1.393321	0.067890	0.499957
C75	C	0.894419	-0.363885	-0.000033
C76	C	1.394419	0.136115	0.499967
C77	C	1.032258	0.096233	-0.000036
C78	C	1.532258	0.596233	0.499964
C79	C	1.116275	0.097578	-0.000047
C80	C	1.616275	0.597578	0.499953
C81	C	0.888093	0.240388	-0.000047
C82	C	1.388093	0.740388	0.499953
C83	C	0.889431	0.324406	-0.000057
C84	C	1.389431	0.824406	0.499943
N85	N	0.893876	0.102006	0.346634
N86	N	1.393876	0.602006	0.846634
N87	N	0.893875	0.101992	-0.346695
N88	N	1.393875	0.601992	0.153305
C89	C	0.945437	0.050479	0.423291
C90	C	1.445437	0.550479	0.923291
C91	C	0.945435	0.050470	0.576628
C92	C	1.445435	0.550470	1.076628
C93	C	0.842309	0.153522	0.576637
C94	C	1.342309	0.653522	1.076637
C95	C	0.842307	0.153527	0.423303
C96	C	1.342307	0.653527	0.923303
C97	C	1.004979	-0.009016	0.423286
C98	C	1.504979	0.490984	0.923286
C99	C	1.004977	-0.009025	0.576623
C100	C	1.504977	0.490975	1.076623
H101	H	0.140200	-0.027432	-0.000055
H102	H	0.640200	0.472568	0.499945
C103	C	0.528851	-0.040985	-0.000011
C104	C	1.028851	0.459015	0.499989
H105	H	0.569114	-0.081500	0.000015
H106	H	1.069114	0.418500	0.500015
H107	H	0.498438	-0.044352	-0.084958
H108	H	0.998438	0.455648	0.415042
H109	H	0.498435	-0.044339	0.084949
H110	H	0.998435	0.455661	0.584949
C111	C	1.083363	0.007675	0.632859
C112	C	1.583363	0.507675	1.132859
H113	H	1.083359	0.007661	0.736912
H114	H	1.583359	0.507661	1.236912
H115	H	1.093629	0.056043	0.598195
H116	H	1.593629	0.556043	1.098195
H117	H	1.121457	-0.030388	0.598181
H118	H	1.621457	0.469612	1.098181
C119	C	0.093127	0.242341	-0.000067
C120	C	0.593127	0.742341	0.499933
H121	H	0.122497	0.283968	-0.000085
H122	H	0.622497	0.783968	0.499915
H123	H	0.061946	0.244723	0.084875
H124	H	0.561946	0.744723	0.584875
H125	H	0.061958	0.244713	-0.085032
H126	H	0.561958	0.744713	0.414968
H127	H	0.680728	-0.018817	-0.000012
H128	H	1.180728	0.481183	0.499988
H129	H	1.016961	-0.541638	-0.000031
H130	H	1.516961	-0.041638	0.499969
C131	C	0.747188	-0.494562	-0.000039
C132	C	1.247188	0.005438	0.499961
H133	H	0.705560	-0.523931	-0.000021
H134	H	1.205560	-0.023931	0.499979
H135	H	0.744806	-0.463381	-0.084983
H136	H	1.244806	0.036619	0.415017
H137	H	0.744816	-0.463392	0.084924
H138	H	1.244816	0.036608	0.584924
H139	H	0.800322	0.195469	0.639077
H140	H	1.300322	0.695469	1.139077
C141	C	0.297308	-0.044671	-0.000035
C142	C	0.797308	0.455329	0.499965
H143	H	0.348667	-0.033956	-0.000015
H144	H	0.848667	0.466044	0.499985
H145	H	0.288133	-0.073217	-0.084979
H146	H	0.788133	0.426783	0.415021
H147	H	0.288122	-0.073210	0.084928
H148	H	0.788122	0.426790	0.584928
C149	C	0.656209	0.251320	-0.000037
C150	C	1.156209	0.751320	0.499963
H151	H	0.710187	0.242286	-0.000049
H152	H	1.210187	0.742286	0.499951
H153	H	0.639513	0.279451	0.084908
H154	H	1.139513	0.779451	0.584908
H155	H	0.639513	0.279447	-0.084999
H156	H	1.139513	0.779447	0.415001
H157	H	1.023320	-0.144333	-0.000004
H158	H	1.523320	0.355667	0.499996
H159	H	0.770785	-0.254362	-0.000050
H160	H	1.270785	0.245638	0.499950
H161	H	1.021028	-0.287541	-0.000025
H162	H	1.521028	0.212459	0.499975
H163	H	0.250230	0.225100	-0.000069
H164	H	0.750230	0.725100	0.499931
H165	H	0.773070	-0.111140	-0.000037
H166	H	1.273070	0.388860	0.499963
H167	H	1.014670	-0.684858	-0.000040
H168	H	1.514670	-0.184858	0.499960
H169	H	0.800316	0.195479	0.360890
H170	H	1.300316	0.695479	0.860890
H171	H	0.992670	-0.067060	0.381673
H172	H	1.492670	0.432940	0.881673
H173	H	0.504328	0.229149	-0.000030
H174	H	1.004328	0.729149	0.499970
C175	C	0.744539	-0.660333	-0.000071
C176	C	1.244539	-0.160333	0.499929
H177	H	0.704020	-0.620074	-0.000095
H178	H	1.204020	-0.120074	0.499905
H179	H	0.741173	-0.690751	0.084874
H180	H	1.241173	-0.190751	0.584874
H181	H	0.741191	-0.690746	-0.085033
H182	H	1.241191	-0.190746	0.414967
H183	H	1.059740	0.008844	0.375725
H184	H	1.559740	0.508844	0.875725
H185	H	0.987167	-0.063811	0.624177
H186	H	1.487167	0.436189	1.124177
