data_functionalizedCrystal
_audit_creation_method	'MofGen! by Chris Wilmer'
_symmetry_space_group_name_H-M	'P1'
_symmetry_Int_Tables_number	1
_symmetry_cell_setting	triclinic
loop_
_symmetry_equiv_pos_as_xyz
  x,y,z
_cell_length_a	27.732048
_cell_length_b	27.732064
_cell_length_c	14.750779
_cell_angle_alpha	77.467639
_cell_angle_beta	102.540316
_cell_angle_gamma	82.646039
loop_
_atom_site_label
_atom_site_type_symbol
_atom_site_fract_x
_atom_site_fract_y
_atom_site_fract_z
O1	O	0.630377	0.068065	-0.079695
O2	O	0.963710	0.401398	0.253638
O3	O	1.297044	0.734732	0.586972
O4	O	0.489580	0.076814	-0.079723
O5	O	0.822914	0.410148	0.253610
O6	O	1.156247	0.743481	0.586944
O7	O	0.564347	0.002044	-0.079712
O8	O	0.897680	0.335377	0.253621
O9	O	1.231014	0.668711	0.586955
O10	O	0.555611	0.142835	-0.079706
O11	O	0.888944	0.476169	0.253627
O12	O	1.222277	0.809502	0.586961
O13	O	0.585482	-0.019090	0.079942
O14	O	0.918816	0.314243	0.413275
O15	O	1.252149	0.647576	0.746608
O16	O	0.510716	0.055680	0.079931
O17	O	0.844049	0.389013	0.413264
O18	O	1.177383	0.722347	0.746597
O19	O	0.651513	0.046931	0.079958
O20	O	0.984846	0.380264	0.413292
O21	O	1.318179	0.713597	0.746625
Zn22	Zn	0.584470	0.047950	0.105293
Zn23	Zn	0.917803	0.381283	0.438626
Zn24	Zn	1.251137	0.714616	0.771960
Zn25	Zn	0.556623	0.075795	-0.105057
Zn26	Zn	0.889956	0.409129	0.228276
Zn27	Zn	1.223290	0.742462	0.561609
O28	O	0.576746	0.121701	0.079947
O29	O	0.910079	0.455034	0.413281
O30	O	1.243413	0.788368	0.746614
C31	C	0.482141	0.066064	0.000100
C32	C	0.815474	0.399397	0.333433
C33	C	1.148807	0.732731	0.666767
C34	C	0.428484	0.065513	0.000089
C35	C	0.761818	0.398846	0.333422
C36	C	1.095151	0.732179	0.666756
C37	C	0.089677	0.106210	0.000132
C38	C	0.423011	0.439544	0.333466
C39	C	0.756344	0.772877	0.666799
C40	C	-0.111981	0.104158	0.000141
C41	C	0.221352	0.437492	0.333474
C42	C	0.554685	0.770825	0.666808
O43	O	-0.143229	0.141373	0.000184
O44	O	0.190104	0.474706	0.333517
O45	O	0.523438	0.808040	0.666851
N46	N	-0.131108	0.059824	0.000137
N47	N	0.202225	0.393157	0.333471
N48	N	0.535559	0.726491	0.666804
C49	C	-0.099816	0.015999	0.000138
C50	C	0.233517	0.349332	0.333471
C51	C	0.566851	0.682665	0.666805
O52	O	-0.120710	-0.021759	0.000145
O53	O	0.212623	0.311574	0.333478
O54	O	0.545956	0.644908	0.666812
C55	C	0.101843	0.018050	0.000136
C56	C	0.435176	0.351384	0.333470
C57	C	0.768509	0.684717	0.666803
C58	C	0.120965	0.062389	0.000130
C59	C	0.454299	0.395722	0.333463
C60	C	0.787632	0.729055	0.666797
C61	C	0.108801	0.150545	0.000127
C62	C	0.442134	0.483878	0.333461
C63	C	0.775467	0.817212	0.666794
C64	C	0.159212	0.151058	0.000120
C65	C	0.492545	0.484392	0.333453
C66	C	0.825878	0.817725	0.666787
C67	C	0.190499	0.107237	0.000118
C68	C	0.523833	0.440570	0.333451
C69	C	0.857166	0.773904	0.666784
C70	C	0.171376	0.062902	0.000123
C71	C	0.504710	0.396235	0.333456
C72	C	0.838043	0.729569	0.666789
C73	C	0.133135	-0.025775	0.000144
C74	C	0.466468	0.307558	0.333477
C75	C	0.799801	0.640891	0.666811
C76	C	0.183552	-0.025259	0.000146
C77	C	0.516886	0.308074	0.333479
C78	C	0.850219	0.641408	0.666813
C79	C	0.202675	0.019080	0.000140
C80	C	0.536008	0.352413	0.333473
C81	C	0.869342	0.685746	0.666806
C82	C	0.253075	0.019594	0.000113
C83	C	0.586408	0.352927	0.333447
C84	C	0.919742	0.686260	0.666780
N85	N	0.272202	0.063928	0.000117
N86	N	0.605535	0.397261	0.333450
N87	N	0.938868	0.730595	0.666783
C88	C	0.240914	0.107750	0.000119
C89	C	0.574247	0.441083	0.333452
C90	C	0.907581	0.774416	0.666786
C91	C	-0.205690	0.014925	0.000137
C92	C	0.127643	0.348258	0.333470
C93	C	0.460976	0.681591	0.666804
C94	C	-0.256105	0.014412	0.000136
C95	C	0.077229	0.347745	0.333469
C96	C	0.410562	0.681079	0.666802
C97	C	-0.268266	0.102572	0.000140
C98	C	0.065067	0.435905	0.333474
C99	C	0.398400	0.769238	0.666807
C100	C	-0.217852	0.103085	0.000135
C101	C	0.115482	0.436418	0.333468
C102	C	0.448815	0.769751	0.666801
C103	C	-0.186563	0.059259	0.000140
C104	C	0.146770	0.392592	0.333474
C105	C	0.480103	0.725926	0.666807
C106	C	0.346781	0.108824	0.000103
C107	C	0.680114	0.442158	0.333436
C108	C	1.013448	0.775491	0.666769
C109	C	0.397197	0.109334	0.000091
C110	C	0.730530	0.442668	0.333425
C111	C	1.063863	0.776001	0.666758
C112	C	0.409354	0.021174	0.000092
C113	C	0.742688	0.354507	0.333425
C114	C	1.076021	0.687841	0.666758
C115	C	0.358943	0.020665	0.000098
C116	C	0.692276	0.353998	0.333431
C117	C	1.025609	0.687331	0.666765
C118	C	0.327657	0.064493	0.000107
C119	C	0.660991	0.397827	0.333440
C120	C	0.994324	0.731160	0.666773
O121	O	0.284352	-0.017602	0.000081
O122	O	0.617686	0.315731	0.333414
O123	O	0.951019	0.649064	0.666748
O124	O	0.261821	0.145499	0.000133
O125	O	0.595154	0.478832	0.333467
O126	O	0.928487	0.812166	0.666800
C127	C	0.039266	0.105697	0.000140
C128	C	0.372600	0.439030	0.333473
C129	C	0.705933	0.772364	0.666806
C130	C	0.020143	0.061362	0.000145
C131	C	0.353477	0.394696	0.333478
C132	C	0.686810	0.728029	0.666812
C133	C	0.051431	0.017541	0.000143
C134	C	0.384764	0.350874	0.333476
C135	C	0.718098	0.684207	0.666809
C136	C	-0.030271	0.060849	0.000144
C137	C	0.303062	0.394183	0.333477
C138	C	0.636395	0.727516	0.666810
C139	C	-0.061559	0.104671	0.000146
C140	C	0.271774	0.438004	0.333479
C141	C	0.605107	0.771338	0.666812
C142	C	-0.042432	0.149005	0.000149
C143	C	0.290901	0.482339	0.333483
C144	C	0.624234	0.815672	0.666816
C145	C	0.007979	0.149519	0.000142
C146	C	0.341312	0.482852	0.333475
C147	C	0.674645	0.816185	0.666809
C148	C	0.032304	-0.026794	0.000139
C149	C	0.365637	0.306540	0.333472
C150	C	0.698971	0.639873	0.666806
C151	C	-0.018108	-0.027303	0.000145
C152	C	0.315226	0.306030	0.333479
C153	C	0.648559	0.639364	0.666812
C154	C	-0.049395	0.016518	0.000148
C155	C	0.283938	0.349852	0.333481
C156	C	0.617271	0.683185	0.666814
C157	C	0.574730	-0.026530	0.000112
C158	C	0.908063	0.306804	0.333445
C159	C	1.241396	0.640137	0.666778
C160	C	0.574172	-0.080183	0.000103
C161	C	0.907506	0.253150	0.333436
C162	C	1.240839	0.586484	0.666769
C163	C	0.526204	-0.457254	0.000089
C164	C	0.859537	-0.123921	0.333423
C165	C	1.192870	0.209413	0.666756
C166	C	0.528250	-0.255593	0.000089
C167	C	0.861583	0.077740	0.333422
C168	C	1.194916	0.411073	0.666755
O169	O	0.491023	-0.224335	0.000043
O170	O	0.824356	0.108999	0.333376
O171	O	1.157689	0.442332	0.666710
N172	N	0.572585	-0.236467	0.000097
N173	N	0.905918	0.096866	0.333431
N174	N	1.239252	0.430199	0.666764
C175	C	0.616411	-0.267759	0.000100
C176	C	0.949745	0.065575	0.333433
C177	C	1.283078	0.398908	0.666767
O178	O	0.654167	-0.246862	0.000097
O179	O	0.987500	0.086471	0.333431
O180	O	1.320834	0.419805	0.666764
C181	C	0.614364	-0.469417	0.000094
C182	C	0.947697	-0.136084	0.333427
C183	C	1.281030	0.197250	0.666760
C184	C	0.570027	-0.488542	0.000095
C185	C	0.903360	-0.155208	0.333428
C186	C	1.236693	0.178125	0.666762
C187	C	0.481870	-0.476379	0.000090
C188	C	0.815203	-0.143046	0.333423
C189	C	1.148537	0.190288	0.666756
C190	C	0.481360	-0.526792	0.000095
C191	C	0.814693	-0.193458	0.333428
C192	C	1.148026	0.139875	0.666762
C193	C	0.525183	-0.558080	0.000100
C194	C	0.858516	-0.224746	0.333434
C195	C	1.191849	0.108587	0.666767
C196	C	0.569516	-0.538955	0.000100
C197	C	0.902850	-0.205621	0.333434
C198	C	1.236183	0.127712	0.666767
C199	C	0.658188	-0.500707	0.000090
C200	C	0.991522	-0.167373	0.333423
C201	C	1.324855	0.165960	0.666756
C202	C	0.657672	-0.551124	0.000086
C203	C	0.991006	-0.217790	0.333419
C204	C	1.324339	0.115543	0.666752
C205	C	0.613335	-0.570248	0.000087
C206	C	0.946669	-0.236915	0.333420
C207	C	1.280002	0.096418	0.666753
C208	C	0.612829	-0.620655	0.000111
C209	C	0.946163	-0.287322	0.333445
C210	C	1.279496	0.046011	0.666778
N211	N	0.568494	-0.639782	0.000103
N212	N	0.901827	-0.306448	0.333436
N213	N	1.235160	0.026885	0.666769
C214	C	0.524671	-0.608494	0.000097
C215	C	0.858004	-0.275160	0.333430
C216	C	1.191337	0.058173	0.666764
C217	C	0.617483	-0.161885	0.000105
C218	C	0.950817	0.171449	0.333438
C219	C	1.284150	0.504782	0.666772
C220	C	0.617996	-0.111471	0.000108
C221	C	0.951329	0.221863	0.333441
C222	C	1.284662	0.555196	0.666775
C223	C	0.529834	-0.099309	0.000095
C224	C	0.863167	0.234025	0.333428
C225	C	1.196500	0.567358	0.666762
C226	C	0.529323	-0.149725	0.000099
C227	C	0.862656	0.183609	0.333432
C228	C	1.195989	0.516942	0.666765
C229	C	0.573148	-0.181011	0.000096
C230	C	0.906481	0.152322	0.333430
C231	C	1.239815	0.485656	0.666763
C232	C	0.523602	-0.714365	0.000109
C233	C	0.856936	-0.381032	0.333443
C234	C	1.190269	-0.047698	0.666776
C235	C	0.523096	-0.764783	0.000119
C236	C	0.856430	-0.431450	0.333452
C237	C	1.189763	-0.098117	0.666786
C238	C	0.611257	-0.776940	0.000127
C239	C	0.944591	-0.443607	0.333460
C240	C	1.277924	-0.110273	0.666793
C241	C	0.611764	-0.726527	0.000122
C242	C	0.945098	-0.393193	0.333456
C243	C	1.278431	-0.059860	0.666789
C244	C	0.567932	-0.695239	0.000110
C245	C	0.901266	-0.361906	0.333444
C246	C	1.234599	-0.028573	0.666777
O247	O	0.650035	-0.651941	0.000146
O248	O	0.983368	-0.318607	0.333479
O249	O	1.316702	0.014726	0.666813
O250	O	0.486918	-0.629397	0.000078
O251	O	0.820251	-0.296064	0.333412
O252	O	1.153584	0.037270	0.666745
C253	C	0.526714	-0.406841	0.000084
C254	C	0.860047	-0.073508	0.333417
C255	C	1.193381	0.259826	0.666751
C256	C	0.571047	-0.387716	0.000084
C257	C	0.904381	-0.054383	0.333417
C258	C	1.237714	0.278951	0.666751
C259	C	0.614871	-0.419004	0.000089
C260	C	0.948204	-0.085671	0.333423
C261	C	1.281537	0.247663	0.666756
C262	C	0.571560	-0.337302	0.000087
C263	C	0.904893	-0.003969	0.333421
C264	C	1.238226	0.329365	0.666754
C265	C	0.527736	-0.306014	0.000082
C266	C	0.861070	0.027319	0.333415
C267	C	1.194403	0.360653	0.666749
C268	C	0.483401	-0.325140	0.000073
C269	C	0.816734	0.008193	0.333407
C270	C	1.150068	0.341526	0.666740
C271	C	0.482891	-0.375553	0.000079
C272	C	0.816224	-0.042220	0.333412
C273	C	1.149557	0.291113	0.666745
C274	C	0.659206	-0.399878	0.000098
C275	C	0.992539	-0.066544	0.333431
C276	C	1.325873	0.266789	0.666765
C277	C	0.659713	-0.349464	0.000094
C278	C	0.993046	-0.016131	0.333427
C279	C	1.326380	0.317202	0.666760
C280	C	0.615890	-0.318176	0.000088
C281	C	0.949223	0.015157	0.333422
C282	C	1.282556	0.348490	0.666755
C283	C	0.658952	0.057681	0.000133
C284	C	0.992285	0.391015	0.333466
C285	C	1.325619	0.724348	0.666800
C286	C	0.712607	0.058233	0.000138
C287	C	1.045941	0.391567	0.333471
C288	C	1.379274	0.724900	0.666805
C289	C	0.566363	0.150275	0.000122
C290	C	0.899696	0.483608	0.333455
C291	C	1.233030	0.816942	0.666788
C292	C	0.566919	0.203929	0.000124
C293	C	0.900253	0.537262	0.333458
C294	C	1.233586	0.870596	0.666791
N295	N	0.603478	0.028946	0.248851
N296	N	0.936812	0.362279	0.582185
N297	N	1.270145	0.695612	0.915518
N298	N	0.537618	0.094796	-0.248616
N299	N	0.870952	0.428129	0.084717
N300	N	1.204285	0.761462	0.418051
C301	C	0.484531	0.147850	0.600652
C302	C	0.817864	0.481183	0.933985
C303	C	1.151198	0.814516	1.267319
C304	C	0.497854	0.134536	0.701153
C305	C	0.831188	0.467869	1.034486
C306	C	1.164521	0.801203	1.367820
C307	C	0.564073	0.068351	0.701126
C308	C	0.897407	0.401684	1.034459
C309	C	1.230740	0.735018	1.367792
C310	C	0.550754	0.081658	0.600622
C311	C	0.884087	0.414991	0.933956
C312	C	1.217421	0.748324	1.267289
C313	C	0.510983	0.121408	0.550394
C314	C	0.844316	0.454741	0.883727
C315	C	1.177649	0.788074	1.217060
C316	C	0.577206	0.055216	0.550364
C317	C	0.910539	0.388549	0.883697
C318	C	1.243872	0.721882	1.217031
C319	C	0.563889	0.068523	0.449870
C320	C	0.897222	0.401856	0.783203
C321	C	1.230556	0.735190	1.116536
C322	C	0.524120	0.108272	0.399634
C323	C	0.857454	0.441606	0.732967
C324	C	1.190787	0.774939	1.066300
C325	C	0.497666	0.134715	0.449899
C326	C	0.830999	0.468048	0.783233
C327	C	1.164333	0.801382	1.116566
C328	C	0.616979	0.015468	0.600595
C329	C	0.950312	0.348801	0.933928
C330	C	1.283646	0.682135	1.267261
C331	C	0.643431	-0.010974	0.550336
C332	C	0.976764	0.322359	0.883670
C333	C	1.310098	0.655693	1.217003
C334	C	0.630112	0.002331	0.449840
C335	C	0.963445	0.335664	0.783173
C336	C	1.296779	0.668998	1.116507
C337	C	0.590343	0.042080	0.399604
C338	C	0.923677	0.375414	0.732937
C339	C	1.257010	0.708747	1.066271
C340	C	0.656566	-0.024112	0.399575
C341	C	0.989900	0.309222	0.732908
C342	C	1.323233	0.642555	1.066241
C343	C	0.643250	-0.010804	0.299080
C344	C	0.976583	0.322529	0.632414
C345	C	1.309916	0.655862	0.965747
C346	C	0.577027	0.055388	0.299110
C347	C	0.910360	0.388721	0.632443
C348	C	1.243693	0.722054	0.965776
H349	H	0.209026	-0.060948	0.000151
H350	H	0.542359	0.272385	0.333485
H351	H	0.875692	0.605719	0.666818
H352	H	0.544637	0.087753	0.258212
H353	H	0.877971	0.421086	0.591545
H354	H	1.211304	0.754419	0.924878
Cl355	Cl	0.464595	0.167785	0.764328
Cl356	Cl	0.797929	0.501118	1.097661
Cl357	Cl	1.131262	0.834452	1.430995
Cl358	Cl	0.667507	-0.702488	0.000156
Cl359	Cl	1.000841	-0.369155	0.333489
Cl360	Cl	1.334174	-0.035822	0.666823
Cl361	Cl	0.672585	-0.201211	0.000109
Cl362	Cl	1.005918	0.132122	0.333442
Cl363	Cl	1.339252	0.465456	0.666775
Cl364	Cl	0.614071	0.018382	0.764277
Cl365	Cl	0.947404	0.351715	1.097610
Cl366	Cl	1.280738	0.685049	1.430944
H367	H	0.627822	0.004636	0.682424
H368	H	0.961155	0.337970	1.015757
H369	H	1.294488	0.671303	1.349090
H370	H	0.343371	-0.015438	0.000089
H371	H	0.676704	0.317896	0.333422
H372	H	1.010037	0.651229	0.666756
Cl373	Cl	-0.166363	-0.040176	0.000141
Cl374	Cl	0.166970	0.293157	0.333475
Cl375	Cl	0.500304	0.626491	0.666808
H376	H	0.675814	-0.043338	0.591244
H377	H	1.009148	0.289996	0.924577
H378	H	1.342481	0.623329	1.257911
Cl379	Cl	0.507381	0.125004	0.273296
Cl380	Cl	0.840714	0.458337	0.606629
Cl381	Cl	1.174047	0.791671	0.939963
H382	H	0.465277	0.167080	0.409001
H383	H	0.798610	0.500414	0.742334
H384	H	1.131943	0.833747	1.075668
H385	H	0.321314	0.144513	0.000113
H386	H	0.654648	0.477847	0.333446
H387	H	0.987981	0.811180	0.666779
H388	H	-0.271672	-0.021691	0.000126
H389	H	0.061662	0.311642	0.333459
H390	H	0.394995	0.644976	0.666792
Cl391	Cl	0.706568	-0.074077	0.462729
Cl392	Cl	1.039901	0.259257	0.796062
Cl393	Cl	1.373234	0.592590	1.129396
H394	H	0.434837	-0.014504	0.000086
H395	H	0.768171	0.318830	0.333420
H396	H	1.101504	0.652163	0.666753
Cl397	Cl	0.473583	-0.173761	0.000097
Cl398	Cl	0.806916	0.159572	0.333431
Cl399	Cl	1.140249	0.492905	0.666764
H400	H	-0.293750	0.138253	0.000142
H401	H	0.039584	0.471586	0.333476
H402	H	0.372917	0.804919	0.666809
Cl403	Cl	0.069475	0.205643	0.000127
Cl404	Cl	0.402809	0.538977	0.333461
Cl405	Cl	0.736142	0.872310	0.666794
H406	H	0.446181	-0.450908	0.000082
H407	H	0.779515	-0.117575	0.333415
H408	H	1.112848	0.215758	0.666749
H409	H	0.117575	-0.061881	0.000150
H410	H	0.450908	0.271453	0.333483
H411	H	0.784241	0.604786	0.666816
Cl412	Cl	-0.081776	0.204095	0.000148
Cl413	Cl	0.251558	0.537429	0.333481
Cl414	Cl	0.584891	0.870762	0.666815
H415	H	0.023543	0.185623	0.000138
H416	H	0.356877	0.518957	0.333472
H417	H	0.690210	0.852290	0.666805
H418	H	0.695821	-0.333899	0.000100
H419	H	1.029154	-0.000566	0.333434
H420	H	1.362488	0.332767	0.666767
Cl421	Cl	0.468499	-0.675040	0.000098
Cl422	Cl	0.801832	-0.341707	0.333431
Cl423	Cl	1.135165	-0.008374	0.666764
Cl424	Cl	-0.042142	-0.083047	0.000141
Cl425	Cl	0.291191	0.250286	0.333474
Cl426	Cl	0.624525	0.583619	0.666808
Cl427	Cl	-0.193817	0.158826	0.000130
Cl428	Cl	0.139516	0.492159	0.333464
Cl429	Cl	0.472850	0.825493	0.666797
H430	H	0.412763	0.145442	0.000086
H431	H	0.746096	0.478775	0.333419
H432	H	1.079430	0.812108	0.666752
Cl433	Cl	0.183244	0.206800	0.000119
Cl434	Cl	0.516578	0.540134	0.333452
Cl435	Cl	0.849911	0.873467	0.666786
Cl436	Cl	0.434526	0.197818	0.537503
Cl437	Cl	0.767860	0.531151	0.870837
Cl438	Cl	1.101193	0.864485	1.204170
H439	H	0.057775	-0.062480	0.000140
H440	H	0.391108	0.270854	0.333473
H441	H	0.724441	0.604187	0.666806
Cl442	Cl	0.425617	-0.550825	0.000084
Cl443	Cl	0.758950	-0.217491	0.333418
Cl444	Cl	1.092284	0.115842	0.666751
Cl445	Cl	0.467354	-0.788822	0.000122
Cl446	Cl	0.800688	-0.455489	0.333455
Cl447	Cl	1.134021	-0.122155	0.666789
Cl448	Cl	0.474742	-0.059966	0.000088
Cl449	Cl	0.808075	0.273367	0.333421
Cl450	Cl	1.141408	0.606700	0.666754
Cl451	Cl	0.673738	-0.087437	0.000121
Cl452	Cl	1.007071	0.245897	0.333454
Cl453	Cl	1.340404	0.579230	0.666788
Cl454	Cl	0.676506	-0.044046	0.235896
Cl455	Cl	1.009839	0.289288	0.569230
Cl456	Cl	1.343173	0.622621	0.902563
H457	H	0.694292	-0.485145	0.000088
H458	H	1.027626	-0.151811	0.333421
H459	H	1.360959	0.181522	0.666755
Cl460	Cl	0.712770	-0.590452	0.000079
Cl461	Cl	1.046104	-0.257119	0.333412
Cl462	Cl	1.379437	0.076215	0.666746
Cl463	Cl	0.666347	-0.816283	0.000140
Cl464	Cl	0.999680	-0.482950	0.333473
Cl465	Cl	1.333014	-0.149616	0.666807
H466	H	0.446787	-0.391120	0.000080
H467	H	0.780120	-0.057786	0.333414
H468	H	1.113454	0.275547	0.666747
H469	H	0.447719	-0.299658	0.000075
H470	H	0.781053	0.033676	0.333408
H471	H	1.114386	0.367009	0.666741
H472	H	0.694893	-0.425348	0.000101
H473	H	1.028226	-0.092014	0.333435
H474	H	1.361560	0.241319	0.666768
