data_functionalizedCrystal
_audit_creation_method	'MofGen! by Chris Wilmer'
_symmetry_space_group_name_H-M	'P1'
_symmetry_Int_Tables_number	1
_symmetry_cell_setting	triclinic
loop_
_symmetry_equiv_pos_as_xyz
  x,y,z
_cell_length_a	11.792254
_cell_length_b	12.837943
_cell_length_c	11.892095
_cell_angle_alpha	85.689438
_cell_angle_beta	86.079494
_cell_angle_gamma	90.486231
loop_
_atom_site_label
_atom_site_type_symbol
_atom_site_fract_x
_atom_site_fract_y
_atom_site_fract_z
O1	O	-0.288692	1.383713	-0.093961
O2	O	-0.274107	1.081826	-0.093969
O3	O	-0.116972	1.240089	-0.093970
O4	O	-0.445827	1.225450	-0.093960
O5	O	-0.130051	1.226893	0.094037
O6	O	-0.287186	1.068630	0.094039
O7	O	-0.301771	1.370518	0.094046
Zn8	Zn	-0.296555	1.217479	0.123893
Zn9	Zn	-0.279323	1.234865	-0.123815
O10	O	-0.458906	1.212254	0.094047
C11	C	-0.275720	1.036579	0.000034
C12	C	-0.261026	0.921419	0.000030
C13	C	-0.437673	0.681460	0.000052
C14	C	-0.423872	0.573256	0.000049
C15	C	-0.219625	0.596805	0.000031
C16	C	-0.233426	0.705009	0.000033
C17	C	-0.342453	0.747332	0.000042
C18	C	-0.356253	0.855539	0.000036
C19	C	-0.152007	0.879085	0.000026
C20	C	-0.138206	0.770882	0.000024
C21	C	-0.494751	1.219774	0.000045
C22	C	-0.621044	1.222534	0.000049
C23	C	-0.723608	1.224777	0.000043
C24	C	-0.852278	1.227582	0.000029
C25	C	-0.081127	1.232569	0.000030
C26	C	0.045167	1.229810	0.000019
C27	C	-0.300158	1.415764	0.000041
C28	C	-0.314851	1.530925	0.000037
N29	N	-0.308316	1.205621	0.292947
N30	N	-0.267554	1.246731	-0.292870
C31	C	-0.185651	1.329244	0.529594
C32	C	-0.193881	1.320963	0.647936
C33	C	-0.332999	1.180773	0.647975
C34	C	-0.324769	1.189054	0.529633
C35	C	-0.251094	1.263293	0.470447
C36	C	-0.242871	1.271578	0.352102
C37	C	-0.381982	1.131385	0.352144
C38	C	-0.390212	1.123104	0.470486
H39	H	-0.526447	0.715920	0.000057
H40	H	-0.501411	0.519625	0.000060
H41	H	-0.445028	0.889996	0.000045
H42	H	-0.182884	1.332030	0.303914
C43	C	-0.167153	1.479601	0.396513
C44	C	-0.104696	1.410874	0.464545
H45	H	-0.117178	1.530008	0.356367
H46	H	-0.204919	1.441506	0.344341
H47	H	-0.221707	1.513912	0.442698
H48	H	-0.050148	1.376557	0.418359
H49	H	-0.066911	1.448974	0.516723
C50	C	-0.006434	1.378208	0.684341
C51	C	-0.121945	1.393458	0.712952
H52	H	0.037977	1.422970	0.724476
H53	H	0.012065	1.307565	0.703756
H54	H	0.008995	1.393766	0.605388
H55	H	-0.137377	1.377892	0.791904
H56	H	-0.140451	1.464118	0.693545
H57	H	-0.130866	0.562320	0.000117
C58	C	-0.426635	0.954748	0.315744
C59	C	-0.453925	1.058887	0.287125
H60	H	-0.471058	0.909998	0.275607
H61	H	-0.348278	0.944416	0.296338
H62	H	-0.442082	0.939201	0.394697
H63	H	-0.438471	1.074437	0.208173
H64	H	-0.532300	1.069224	0.306524
H65	H	-0.049439	0.736406	0.000030
C66	C	-0.082463	1.055410	0.000014
C67	C	-0.047331	0.951496	0.000014
H68	H	-0.017841	1.100111	0.000009
H69	H	-0.122122	1.072895	-0.065539
H70	H	-0.131238	1.063698	0.065587
H71	H	0.001438	0.943206	-0.065563
H72	H	-0.007653	0.934005	0.065574
C73	C	-0.351524	1.030450	0.781105
C74	C	-0.413967	1.099173	0.713056
H75	H	-0.401513	0.980079	0.821290
H76	H	-0.297003	0.996105	0.734936
H77	H	-0.313723	1.068562	0.833254
H78	H	-0.451762	1.061062	0.660902
H79	H	-0.468509	1.133522	0.759229
C80	C	-0.408768	0.972773	0.603611
C81	C	-0.471193	1.041507	0.535555
H82	H	-0.458768	0.922405	0.643785
H83	H	-0.354245	0.938424	0.557447
H84	H	-0.370971	1.010877	0.655768
H85	H	-0.508983	1.003404	0.483392
H86	H	-0.525736	1.075858	0.581723
