data_functionalizedCrystal
_audit_creation_method	'MofGen! by Chris Wilmer'
_symmetry_space_group_name_H-M	'P1'
_symmetry_Int_Tables_number	1
_symmetry_cell_setting	triclinic
loop_
_symmetry_equiv_pos_as_xyz
  x,y,z
_cell_length_a	19.077105
_cell_length_b	12.645330
_cell_length_c	19.076919
_cell_angle_alpha	87.723750
_cell_angle_beta	89.923776
_cell_angle_gamma	87.714233
loop_
_atom_site_label
_atom_site_type_symbol
_atom_site_fract_x
_atom_site_fract_y
_atom_site_fract_z
Zn1	Zn	1.058309	-0.512860	0.440444
Zn2	Zn	1.062962	-0.683311	0.322946
Zn3	Zn	0.945526	-0.498659	0.318237
Zn4	Zn	0.940784	-0.682672	0.435699
O5	O	1.001896	-0.594376	0.379332
O6	O	1.157259	-0.541682	0.428815
O7	O	1.051316	-0.653141	0.223990
O8	O	0.960524	-0.352199	0.334463
O9	O	1.160677	-0.666911	0.342490
O10	O	1.043386	-0.362632	0.424248
O11	O	0.965036	-0.517478	0.220530
O12	O	0.846565	-0.516858	0.329862
O13	O	0.952442	-0.665822	0.534660
O14	O	0.843081	-0.652051	0.416161
O15	O	1.038788	-0.541062	0.538146
O16	O	1.046718	-0.831570	0.337888
O17	O	0.956954	-0.831101	0.420727
C18	C	0.819326	-0.582845	0.371986
C19	C	0.741222	-0.577939	0.368860
C20	C	0.702735	-0.646120	0.412251
C21	C	0.629348	-0.641496	0.409318
C22	C	0.594448	-0.568695	0.362988
C23	C	0.632940	-0.500507	0.319594
C24	C	0.706326	-0.505126	0.322532
C25	C	0.375159	-0.547316	0.349394
C26	C	0.301768	-0.542704	0.346458
C27	C	0.298181	-0.683692	0.436183
C28	C	0.371569	-0.688309	0.439113
C29	C	0.410054	-0.620117	0.395722
N30	N	0.519434	-0.563970	0.359986
N31	N	0.485066	-0.624839	0.398728
C32	C	1.001845	-0.869801	0.379320
C33	C	1.001886	-0.987635	0.379341
C34	C	0.945633	-1.154972	0.431631
C35	C	0.945363	-1.032385	0.431445
C36	C	0.984820	-1.026659	0.304483
C37	C	0.984477	-1.149256	0.304800
C38	C	1.075561	-1.160522	0.401321
C39	C	1.075039	-1.037980	0.402922
C40	C	1.185178	-0.605952	0.386707
C41	C	1.263281	-0.610885	0.389850
C42	C	0.994567	-0.604955	0.562612
C43	C	0.991444	-0.609463	0.640716
C44	C	1.001965	-0.317876	0.379360
C45	C	1.001995	-0.200049	0.379372
C46	C	1.009236	-0.583764	0.196766
C47	C	1.012495	-0.578966	0.118668
C48	C	1.034930	-0.546628	0.679225
C49	C	1.031987	-0.550859	0.752611
C50	C	0.985561	-0.617932	0.787487
C51	C	0.942070	-0.680769	0.748972
C52	C	0.945010	-0.676531	0.675587
C53	C	0.971944	-0.637565	1.006769
C54	C	0.969009	-0.641800	1.080159
C55	C	1.058925	-0.511889	1.083793
C56	C	1.061864	-0.507662	1.010407
C57	C	1.018371	-0.570495	0.971898
N58	N	0.982553	-0.622261	0.862499
N59	N	1.021376	-0.566159	0.896887
H60	H	0.737661	-0.449601	0.287201
O61	O	0.958994	-0.997702	0.504854
H62	H	0.965842	-1.068539	0.540808
H63	H	0.604518	-0.441227	0.281874
O64	O	1.105831	-0.444109	1.125320
H65	H	1.094363	-0.359340	1.110745
O66	O	0.256674	-0.757229	0.482990
H67	H	0.199780	-0.741783	0.473171
O68	O	1.096951	-1.206977	0.472612
H69	H	1.146896	-1.254261	0.467913
O70	O	0.898107	-0.744300	0.634046
H71	H	0.863708	-0.692651	0.599185
H72	H	0.931202	-0.696421	1.108552
O73	O	0.740370	-0.724626	0.462236
H74	H	0.797867	-0.716387	0.456991
H75	H	0.904267	-0.735377	0.777373
H76	H	0.936539	-0.688744	0.975424
O77	O	0.958899	-1.199700	0.505194
H78	H	1.005837	-1.254474	0.505308
H79	H	0.598015	-0.697017	0.444651
O80	O	0.873753	-1.190351	0.412289
H81	H	0.877994	-1.239900	0.365615
H82	H	0.890765	-0.998945	0.416668
H83	H	0.399979	-0.747594	0.476839
O84	O	0.264121	-0.464173	0.296491
H85	H	0.303210	-0.417522	0.266817
O86	O	1.133279	-0.998099	0.356490
H87	H	1.184138	-1.035170	0.374579
O88	O	0.914466	-0.980373	0.279956
H89	H	0.921415	-0.932103	0.230748
O90	O	0.416654	-0.473790	0.302572
H91	H	0.402094	-0.390429	0.314136
O92	O	0.913361	-1.181501	0.280636
H93	H	0.879538	-1.109556	0.268837
O94	O	1.036695	-1.188475	0.251244
H95	H	1.062076	-1.119872	0.225230
H96	H	1.099671	-0.453047	0.982016
H97	H	1.024702	-0.997486	0.264350
H98	H	1.087964	-1.012952	0.458029
O99	O	1.131171	-1.199480	0.351072
H100	H	1.106575	-1.246737	0.310645
O101	O	1.085004	-0.474285	0.641610
H102	H	1.114742	-0.431297	0.680720
H103	H	1.067399	-0.499695	0.783962
