data_functionalizedCrystal
_audit_creation_method	'MofGen! by Chris Wilmer'
_symmetry_space_group_name_H-M	'P1'
_symmetry_Int_Tables_number	1
_symmetry_cell_setting	triclinic
loop_
_symmetry_equiv_pos_as_xyz
  x,y,z
_cell_length_a	29.839131
_cell_length_b	29.839134
_cell_length_c	29.839125
_cell_angle_alpha	89.978020
_cell_angle_beta	90.017709
_cell_angle_gamma	89.963719
loop_
_atom_site_label
_atom_site_type_symbol
_atom_site_fract_x
_atom_site_fract_y
_atom_site_fract_z
Zn1	Zn	-0.178978	-0.686720	0.254125
Zn2	Zn	-0.254090	-0.686652	0.178995
Zn3	Zn	-0.178968	-0.611602	0.178995
Zn4	Zn	-0.254075	-0.611550	0.254083
O5	O	-0.216528	-0.649131	0.216549
O6	O	-0.188952	-0.749578	0.244176
O7	O	-0.244127	-0.676690	0.116128
O8	O	-0.116102	-0.621617	0.188978
O9	O	-0.244137	-0.749528	0.188979
O10	O	-0.116109	-0.676805	0.244176
O11	O	-0.188935	-0.621551	0.116127
O12	O	-0.188921	-0.548728	0.188938
O13	O	-0.244111	-0.621528	0.316956
O14	O	-0.244101	-0.548690	0.244105
O15	O	-0.188937	-0.676755	0.316987
O16	O	-0.316955	-0.676639	0.188938
O17	O	-0.316944	-0.621462	0.244105
C18	C	-0.216509	-0.532408	0.216517
C19	C	-0.216511	-0.482474	0.216514
C20	C	-0.333250	-0.649050	0.216527
C21	C	-0.383185	-0.649056	0.216533
C22	C	-0.216524	-0.649143	0.333728
C23	C	-0.216522	-0.649148	0.383662
C24	C	-0.692821	-0.677914	0.187866
C25	C	-0.880494	-0.677969	0.187883
O26	O	-0.904753	-0.702441	0.163493
N27	N	-0.903970	-0.649224	0.216583
C28	C	-0.880524	-0.620465	0.245283
O29	O	-0.904798	-0.596020	0.269698
C30	C	-0.692852	-0.620412	0.245268
C31	C	-0.669379	-0.649156	0.216563
C32	C	-0.669348	-0.706656	0.159164
C33	C	-0.622433	-0.706640	0.159158
C34	C	-0.598990	-0.677882	0.187854
C35	C	-0.622463	-0.649140	0.216557
C36	C	-0.669407	-0.591656	0.273969
C37	C	-0.622486	-0.591646	0.273964
C38	C	-0.599013	-0.620390	0.245259
C39	C	-0.552106	-0.620367	0.245248
N40	N	-0.528630	-0.649112	0.216548
C41	C	-0.552072	-0.677869	0.187851
C42	C	-0.979055	-0.620494	0.245289
C43	C	-1.025973	-0.620507	0.245292
C44	C	-1.025939	-0.678012	0.187893
C45	C	-0.979021	-0.677996	0.187887
C46	C	-0.955579	-0.649239	0.216589
C47	C	-0.453547	-0.677834	0.187841
C48	C	-0.406627	-0.677814	0.187836
C49	C	-0.406664	-0.620311	0.245237
C50	C	-0.453580	-0.620329	0.245240
C51	C	-0.477020	-0.649094	0.216540
O52	O	-0.527818	-0.595912	0.269629
O53	O	-0.527791	-0.702318	0.163447
C54	C	-0.739737	-0.677930	0.187872
C55	C	-0.763210	-0.649188	0.216574
C56	C	-0.739767	-0.620430	0.245271
C57	C	-0.810128	-0.649200	0.216578
C58	C	-0.833570	-0.677958	0.187881
C59	C	-0.810094	-0.706703	0.159181
C60	C	-0.763179	-0.706687	0.159175
C61	C	-0.763243	-0.591685	0.273971
C62	C	-0.810158	-0.591703	0.273974
C63	C	-0.833601	-0.620461	0.245277
C64	C	-0.099349	-0.649225	0.216582
C65	C	-0.049415	-0.649265	0.216595
C66	C	-0.216547	-0.766309	0.216582
C67	C	-0.216555	-0.816244	0.216596
C68	C	-0.245303	-0.172820	0.245240
C69	C	-0.245315	0.014853	0.245260
O70	O	-0.269774	0.039127	0.269665
N71	N	-0.216544	0.038311	0.216583
C72	C	-0.187766	0.014848	0.187902
O73	O	-0.163291	0.039107	0.163514
C74	C	-0.187751	-0.172824	0.187884
C75	C	-0.216527	-0.196280	0.216560
C76	C	-0.274076	-0.196276	0.273913
C77	C	-0.274075	-0.243191	0.273906
C78	C	-0.245299	-0.266651	0.245226
C79	C	-0.216526	-0.243195	0.216553
C80	C	-0.158971	-0.196286	0.159205
C81	C	-0.158969	-0.243207	0.159204
C82	C	-0.187745	-0.266663	0.187880
C83	C	-0.187749	-0.313570	0.187865
N84	N	-0.216520	-0.337029	0.216542
C85	C	-0.245295	-0.313569	0.245222
C86	C	-0.187776	0.113379	0.187912
C87	C	-0.187780	0.160297	0.187916
C88	C	-0.245329	0.160298	0.245275
C89	C	-0.245327	0.113380	0.245269
C90	C	-0.216547	0.089921	0.216589
C91	C	-0.245290	-0.412095	0.245205
C92	C	-0.245287	-0.459014	0.245194
C93	C	-0.187736	-0.459012	0.187837
C94	C	-0.187740	-0.412096	0.187846
C95	C	-0.216519	-0.388639	0.216534
O96	O	-0.163299	-0.337873	0.163477
O97	O	-0.269759	-0.337836	0.269613
C98	C	-0.245304	-0.125905	0.245247
C99	C	-0.216531	-0.102449	0.216574
C100	C	-0.187755	-0.125909	0.187893
C101	C	-0.216535	-0.055531	0.216577
C102	C	-0.245310	-0.032071	0.245258
C103	C	-0.274082	-0.055529	0.273934
C104	C	-0.274080	-0.102445	0.273927
C105	C	-0.158984	-0.102451	0.159217
C106	C	-0.158989	-0.055535	0.159226
C107	C	-0.187764	-0.032075	0.187906
C108	C	-0.216499	-0.649145	0.099827
C109	C	-0.216374	-0.649227	0.049893
C110	C	-0.187718	-0.677935	0.693325
C111	C	-0.187680	-0.677957	0.880998
O112	O	-0.163232	-0.702399	0.905279
N113	N	-0.216402	-0.649208	0.904448
C114	C	-0.245133	-0.620449	0.880976
O115	O	-0.269559	-0.595993	0.905228
C116	C	-0.245169	-0.620424	0.693304
C117	C	-0.216448	-0.649179	0.669857
C118	C	-0.158999	-0.706687	0.669877
C119	C	-0.159011	-0.706683	0.622962
C120	C	-0.187741	-0.677927	0.599494
C121	C	-0.216460	-0.649175	0.622941
C122	C	-0.273898	-0.591663	0.669833
C123	C	-0.273903	-0.591659	0.622912
C124	C	-0.245183	-0.620414	0.599465
C125	C	-0.245202	-0.620415	0.552558
N126	N	-0.216480	-0.649164	0.529108
C127	C	-0.187749	-0.677920	0.552576
C128	C	-0.245113	-0.620464	0.979507
C129	C	-0.245105	-0.620471	1.026425
C130	C	-0.187650	-0.677979	1.026443
C131	C	-0.187661	-0.677974	0.979524
C132	C	-0.216391	-0.649214	0.956057
C133	C	-0.187776	-0.677910	0.454050
C134	C	-0.187792	-0.677904	0.407130
C135	C	-0.245244	-0.620395	0.407116
C136	C	-0.245230	-0.620401	0.454032
C137	C	-0.216493	-0.649161	0.477497
O138	O	-0.269633	-0.595982	0.528248
O139	O	-0.163320	-0.702366	0.528316
C140	C	-0.187706	-0.677939	0.740240
C141	C	-0.216425	-0.649187	0.763688
C142	C	-0.245155	-0.620431	0.740219
C143	C	-0.216417	-0.649194	0.810605
C144	C	-0.187686	-0.677950	0.834074
C145	C	-0.158964	-0.706699	0.810624
C146	C	-0.158976	-0.706695	0.763708
C147	C	-0.273877	-0.591682	0.763669
C148	C	-0.273864	-0.591689	0.810585
C149	C	-0.245133	-0.620445	0.834053
H150	H	-0.387517	-0.701220	0.164459
C151	C	-0.276832	-0.588787	0.479833
C152	C	-0.327905	-0.592426	0.473382
C153	C	-0.359507	-0.560813	0.499183
C154	C	-0.340036	-0.525562	0.531436
C155	C	-0.288960	-0.521922	0.537889
C156	C	-0.257358	-0.553534	0.512087
H157	H	-0.342321	-0.618522	0.449505
H158	H	-0.397317	-0.563508	0.494406
H159	H	-0.363430	-0.502161	0.550535
H160	H	-0.274544	-0.495825	0.561765
H161	H	-0.219549	-0.550839	0.516865
C162	C	-0.276721	-0.588824	0.953701
C163	C	-0.273046	-0.537758	0.960152
C164	C	-0.304656	-0.506118	0.934351
C165	C	-0.339942	-0.525544	0.902099
C166	C	-0.343619	-0.576613	0.895646
C167	C	-0.312009	-0.608253	0.921447
H168	H	-0.246923	-0.523375	0.984029
H169	H	-0.301934	-0.468313	0.939128
H170	H	-0.363342	-0.502122	0.882999
H171	H	-0.369742	-0.590996	0.871769
H172	H	-0.314732	-0.646058	0.916670
C173	C	-0.276948	-0.386296	0.276758
C174	C	-0.328013	-0.392721	0.272993
C175	C	-0.359673	-0.366922	0.304543
C176	C	-0.340269	-0.334698	0.339859
C177	C	-0.289202	-0.328272	0.343627
C178	C	-0.257541	-0.354071	0.312076
H179	H	-0.342379	-0.416576	0.246848
H180	H	-0.397476	-0.371679	0.301754
H181	H	-0.363706	-0.315601	0.363215
H182	H	-0.274836	-0.304417	0.369771
H183	H	-0.219738	-0.349313	0.314865
H184	H	-0.472626	-0.701258	0.164472
C185	C	-0.835887	-0.738338	0.127615
C186	C	-0.829469	-0.734709	0.076537
C187	C	-0.855264	-0.766344	0.044975
C188	C	-0.887477	-0.801607	0.064491
C189	C	-0.893897	-0.805237	0.115571
C190	C	-0.868102	-0.773602	0.147133
H191	H	-0.805621	-0.708604	0.062088
H192	H	-0.850511	-0.763656	0.007162
H193	H	-0.906572	-0.825025	0.041127
H194	H	-0.917745	-0.831342	0.130020
H195	H	-0.872855	-0.776290	0.184946
C196	C	-0.305485	-0.560047	0.737863
C197	C	-0.301810	-0.508980	0.744309
C198	C	-0.333422	-0.477343	0.718507
C199	C	-0.368710	-0.496772	0.686259
C200	C	-0.372387	-0.547842	0.679810
C201	C	-0.340774	-0.579479	0.705613
H202	H	-0.275687	-0.494594	0.768183
H203	H	-0.330701	-0.439538	0.723281
H204	H	-0.392112	-0.473353	0.667158
H205	H	-0.398510	-0.562227	0.655937
H206	H	-0.343496	-0.617284	0.700839
H207	H	-0.135529	-0.262305	0.135852
C208	C	-0.276849	-0.588771	0.381291
C209	C	-0.257382	-0.553518	0.349022
C210	C	-0.288987	-0.521895	0.323194
C211	C	-0.340058	-0.525524	0.329634
C212	C	-0.359528	-0.560778	0.361904
C213	C	-0.327923	-0.592402	0.387732
H214	H	-0.219574	-0.550830	0.344254
H215	H	-0.274574	-0.495797	0.299305
H216	H	-0.363454	-0.502115	0.310514
H217	H	-0.397337	-0.563467	0.366672
H218	H	-0.342336	-0.618499	0.411621
H219	H	-0.829266	-0.568292	0.297349
C220	C	-0.737459	-0.560048	0.305537
C221	C	-0.705171	-0.579472	0.340829
C222	C	-0.679389	-0.547830	0.372395
C223	C	-0.685896	-0.496764	0.368668
C224	C	-0.718185	-0.477338	0.333375
C225	C	-0.743967	-0.508979	0.301809
H226	H	-0.700353	-0.617276	0.343589
H227	H	-0.655486	-0.562212	0.398522
H228	H	-0.666810	-0.473341	0.392035
H229	H	-0.723003	-0.439533	0.330615
H230	H	-0.767870	-0.494598	0.275682
H231	H	-0.164309	-0.478121	0.164485
H232	H	-0.603324	-0.730047	0.135785
H233	H	-0.297509	-0.177180	0.297271
C234	C	-0.953274	-0.588857	0.276861
C235	C	-0.959779	-0.537790	0.273137
C236	C	-0.934002	-0.506151	0.304709
C237	C	-0.901720	-0.525578	0.340006
C238	C	-0.895213	-0.576647	0.343731
C239	C	-0.920990	-0.608286	0.312159
H240	H	-0.983678	-0.523407	0.247007
H241	H	-0.938818	-0.468347	0.301951
H242	H	-0.882638	-0.502157	0.363377
H243	H	-0.871315	-0.591030	0.369861
H244	H	-0.916174	-0.646091	0.314918
H245	H	-0.688430	-0.730076	0.135795
C246	C	-0.127380	-0.738324	0.737921
C247	C	-0.076307	-0.734696	0.744382
C248	C	-0.044708	-0.766326	0.718599
C249	C	-0.064181	-0.801583	0.686354
C250	C	-0.115256	-0.805212	0.679891
C251	C	-0.146856	-0.773582	0.705674
H252	H	-0.061889	-0.708596	0.768253
H253	H	-0.006898	-0.763640	0.723383
H254	H	-0.040790	-0.824997	0.667267
H255	H	-0.129674	-0.831312	0.656020
H256	H	-0.184665	-0.776269	0.700890
H257	H	-0.135573	-0.730115	0.829740
C258	C	-0.276978	0.087580	0.276814
C259	C	-0.328045	0.094064	0.273056
C260	C	-0.359696	0.068267	0.304604
C261	C	-0.340282	0.035988	0.339911
C262	C	-0.289213	0.029503	0.343671
C263	C	-0.257561	0.055299	0.312122
H264	H	-0.342419	0.117960	0.246918
H265	H	-0.397501	0.073068	0.301820
H266	H	-0.363712	0.016892	0.363264
H267	H	-0.274839	0.005606	0.369808
H268	H	-0.219757	0.050499	0.314906
H269	H	-0.472692	-0.596925	0.268615
C270	C	-0.276981	0.186109	0.276826
C271	C	-0.276980	0.237717	0.276828
C272	C	-0.308627	0.263531	0.308380
C273	C	-0.340276	0.237736	0.339929
C274	C	-0.340278	0.186126	0.339928
C275	C	-0.308631	0.160312	0.308376
H276	H	-0.253551	0.256814	0.253472
H277	H	-0.308625	0.301736	0.308380
H278	H	-0.363703	0.256845	0.363285
H279	H	-0.363708	0.167029	0.363284
H280	H	-0.308633	0.122106	0.308376
H281	H	-0.603402	-0.568229	0.297337
C282	C	-1.051731	-0.709648	0.156328
C283	C	-1.103339	-0.709660	0.156338
C284	C	-1.129134	-0.741298	0.124778
C285	C	-1.103320	-0.772923	0.093208
C286	C	-1.051709	-0.772911	0.093197
C287	C	-1.025915	-0.741274	0.124757
H288	H	-1.122450	-0.686249	0.179709
H289	H	-1.167339	-0.741306	0.124786
H290	H	-1.122415	-0.796342	0.069845
H291	H	-1.032598	-0.796323	0.069826
H292	H	-0.987709	-0.741266	0.124748
C293	C	-0.276699	-0.588841	1.052214
C294	C	-0.308296	-0.557207	1.026393
C295	C	-0.339887	-0.525572	1.052180
C296	C	-0.339881	-0.525571	1.103787
C297	C	-0.308283	-0.557206	1.129611
C298	C	-0.276692	-0.588840	1.103824
H299	H	-0.308301	-0.557207	0.988187
H300	H	-0.363278	-0.502154	1.033063
H301	H	-0.363267	-0.502153	1.122876
H302	H	-0.308278	-0.557206	1.167817
H303	H	-0.253301	-0.612259	1.122941
H304	H	-0.959912	-0.701402	0.164514
C305	C	-0.737363	-0.738309	0.127601
C306	C	-0.743845	-0.734683	0.076527
C307	C	-0.718033	-0.766307	0.044951
C308	C	-0.685740	-0.801558	0.064450
C309	C	-0.679256	-0.805186	0.115527
C310	C	-0.705068	-0.773562	0.147102
H311	H	-0.767752	-0.708586	0.062090
H312	H	-0.722833	-0.763621	0.007141
H313	H	-0.666632	-0.824969	0.041076
H314	H	-0.655349	-0.831282	0.129964
H315	H	-0.700268	-0.776248	0.184913
C316	C	-0.156086	-0.386288	0.156308
C317	C	-0.105021	-0.392776	0.160075
C318	C	-0.073361	-0.366970	0.128543
C319	C	-0.092766	-0.334677	0.093243
C320	C	-0.143834	-0.328189	0.089474
C321	C	-0.175494	-0.353994	0.121006
H322	H	-0.090654	-0.416682	0.186207
H323	H	-0.035557	-0.371773	0.131333
H324	H	-0.069330	-0.315574	0.069901
H325	H	-0.158201	-0.304282	0.063342
H326	H	-0.213298	-0.349191	0.118216
H327	H	-0.297513	-0.036420	0.297286
C328	C	-1.051790	-0.588885	0.276865
C329	C	-1.025997	-0.557255	0.308430
C330	C	-1.051813	-0.525634	0.340006
C331	C	-1.103420	-0.525643	0.340017
C332	C	-1.129216	-0.557273	0.308449
C333	C	-1.103400	-0.588894	0.276873
H334	H	-0.987792	-0.557248	0.308424
H335	H	-1.032717	-0.502219	0.363374
H336	H	-1.122530	-0.502235	0.363391
H337	H	-1.167422	-0.557280	0.308456
H338	H	-1.122496	-0.612309	0.253505
H339	H	-0.297285	-0.568248	0.688916
H340	H	-0.297256	-0.568274	0.829671
C341	C	-0.156121	0.087580	0.156354
C342	C	-0.105055	0.094007	0.160105
C343	C	-0.073403	0.068213	0.128543
C344	C	-0.092816	0.035990	0.093231
C345	C	-0.143884	0.029561	0.089479
C346	C	-0.175537	0.055356	0.121040
H347	H	-0.090682	0.117862	0.186247
H348	H	-0.035599	0.072972	0.131321
H349	H	-0.069386	0.016895	0.069867
H350	H	-0.158257	0.005707	0.063337
H351	H	-0.213341	0.050597	0.118263
H352	H	-0.688511	-0.568248	0.297342
H353	H	-0.164352	0.179390	0.164561
H354	H	-0.297512	-0.121538	0.297278
C355	C	-0.127316	-0.170497	0.127658
C356	C	-0.076251	-0.176988	0.131419
C357	C	-0.044594	-0.151201	0.099867
C358	C	-0.064003	-0.118924	0.064555
C359	C	-0.115071	-0.112432	0.060793
C360	C	-0.146727	-0.138218	0.092345
H361	H	-0.061881	-0.200883	0.157560
H362	H	-0.006790	-0.156007	0.102652
H363	H	-0.040569	-0.099835	0.041199
H364	H	-0.129441	-0.088537	0.034652
H365	H	-0.184531	-0.133412	0.089560
C366	C	-0.156195	-0.709535	0.381339
C367	C	-0.105122	-0.705908	0.387795
C368	C	-0.073526	-0.737537	0.362006
C369	C	-0.093004	-0.772793	0.329762
C370	C	-0.144080	-0.776421	0.323305
C371	C	-0.175676	-0.744792	0.349094
H372	H	-0.090701	-0.679809	0.411665
H373	H	-0.035716	-0.734851	0.366786
H374	H	-0.069615	-0.796206	0.310671
H375	H	-0.158501	-0.802520	0.299434
H376	H	-0.213486	-0.747478	0.344314
C377	C	-0.156168	-0.709547	0.479858
C378	C	-0.159850	-0.760614	0.473416
C379	C	-0.128245	-0.792253	0.499224
C380	C	-0.092958	-0.772826	0.531474
C381	C	-0.089274	-0.721756	0.537918
C382	C	-0.120879	-0.690117	0.512110
H383	H	-0.185973	-0.774997	0.449540
H384	H	-0.130972	-0.830058	0.494453
H385	H	-0.069562	-0.796247	0.550579
H386	H	-0.063151	-0.707373	0.561794
H387	H	-0.118152	-0.652312	0.516881
C388	C	-0.156066	-0.709601	0.953735
C389	C	-0.104993	-0.705976	0.960196
C390	C	-0.073395	-0.737604	0.934409
C391	C	-0.092869	-0.772857	0.902160
C392	C	-0.143945	-0.776484	0.895697
C393	C	-0.175543	-0.744856	0.921484
H394	H	-0.090574	-0.679878	0.984070
H395	H	-0.035585	-0.734919	0.939193
H396	H	-0.069478	-0.796270	0.883071
H397	H	-0.158363	-0.802581	0.871824
H398	H	-0.213352	-0.747541	0.916700
H399	H	-0.387570	-0.596895	0.268600
H400	H	-0.268721	-0.478110	0.268545
H401	H	-0.297506	-0.262285	0.297258
H402	H	-0.135556	-0.036441	0.135871
H403	H	-0.135623	-0.730097	0.603875
H404	H	-0.135551	-0.121547	0.135861
H405	H	-0.297294	-0.568233	0.603808
H406	H	-0.135601	-0.730104	0.688980
H407	H	-0.164257	-0.701393	1.045559
