data_functionalizedCrystal
_audit_creation_method	'MofGen! by Chris Wilmer'
_symmetry_space_group_name_H-M	'P1'
_symmetry_Int_Tables_number	1
_symmetry_cell_setting	triclinic
loop_
_symmetry_equiv_pos_as_xyz
  x,y,z
_cell_length_a	13.635800
_cell_length_b	18.253153
_cell_length_c	12.908943
_cell_angle_alpha	76.198972
_cell_angle_beta	100.860631
_cell_angle_gamma	121.840194
loop_
_atom_site_label
_atom_site_type_symbol
_atom_site_fract_x
_atom_site_fract_y
_atom_site_fract_z
V1	V	2.041427	0.118613	0.283190
O2	O	1.989667	-0.006811	0.325037
O3	O	2.060256	0.236259	0.235821
O4	O	2.009721	0.116301	0.427426
O5	O	2.040552	0.113977	0.132106
V6	V	2.278638	0.103669	0.270638
O7	O	2.182038	0.151395	0.310723
O8	O	2.363125	0.070886	0.243105
O9	O	2.148206	-0.013977	0.318007
O10	O	2.389096	0.229093	0.228790
O11	O	2.338211	0.108305	0.421722
O12	O	2.198741	0.105981	0.126402
V13	V	2.541427	0.118613	0.283190
O14	O	2.489667	-0.006811	0.325037
O15	O	2.560256	0.236259	0.235821
O16	O	2.509721	0.116301	0.427426
O17	O	2.540552	0.113977	0.132106
V18	V	2.778638	0.103669	0.270638
O19	O	2.682038	0.151395	0.310723
O20	O	2.863125	0.070886	0.243105
O21	O	2.648206	-0.013977	0.318007
O22	O	2.889096	0.229093	0.228790
O23	O	2.838211	0.108305	0.421722
O24	O	2.698741	0.105981	0.126402
C25	C	2.546667	-0.042667	0.334193
C26	C	2.480298	-0.138840	0.371968
C27	C	2.113204	-0.515385	0.036676
C28	C	2.050860	-0.605749	0.072207
C29	C	2.110405	-0.581638	0.256029
C30	C	2.172760	-0.491270	0.220512
C31	C	2.174152	-0.458151	0.110835
C32	C	2.233709	-0.434036	0.294672
C33	C	2.296053	-0.343675	0.259158
C34	C	2.297449	-0.310549	0.149485
C35	C	2.236496	-0.367790	0.075321
C36	C	2.232309	-0.467157	0.404349
C37	C	2.293257	-0.409923	0.478509
C38	C	2.355610	-0.319561	0.442995
C39	C	2.357005	-0.286434	0.333322
C40	C	2.416562	-0.262319	0.517159
C41	C	2.478906	-0.171959	0.481645
C42	C	2.419350	-0.196074	0.297808
C43	C	1.993467	0.264953	0.219630
C44	C	2.049455	0.361127	0.181862
C45	C	1.929004	0.111934	0.464041
C46	C	1.944007	0.110822	0.581656
C47	C	2.046667	-0.042667	0.334193
C48	C	1.980298	-0.138840	0.371968
C49	C	2.111130	0.110350	0.089780
C50	C	2.085745	0.111458	-0.027835
C51	C	2.493467	0.264953	0.219630
C52	C	2.549455	0.361127	0.181862
C53	C	2.156965	0.117318	0.810112
C54	C	2.171067	0.116274	0.920622
C55	C	1.986310	0.107683	0.913191
C56	C	1.972208	0.108728	0.802680
C57	C	2.057541	0.113546	0.751145
C58	C	2.043441	0.114597	0.640631
C59	C	1.858682	0.106000	0.633203
C60	C	1.872784	0.104956	0.743713
C61	C	2.429004	0.111934	0.464041
C62	C	2.444007	0.110822	0.581656
C63	C	2.611130	0.110350	0.089780
C64	C	2.585745	0.111458	-0.027835
C65	C	2.034073	-0.188397	0.386125
C66	C	1.971720	-0.278764	0.421602
C67	C	1.855595	-0.319572	0.442928
C68	C	1.801817	-0.270008	0.428766
C69	C	1.864167	-0.179643	0.393282
C70	C	2.668174	0.410685	0.167708
C71	C	2.720799	0.501053	0.132235
C72	C	2.654701	0.541860	0.110911
C73	C	2.535972	0.492296	0.125071
C74	C	2.483351	0.401931	0.160550
C75	C	2.499380	0.189481	0.621585
C76	C	2.513500	0.188450	0.732095
C77	C	2.472238	0.108759	0.802675
C78	C	2.416863	0.030094	0.762740
C79	C	2.402752	0.031126	0.652232
C80	C	2.631864	0.191159	-0.098387
C81	C	2.608008	0.192214	-0.208901
C82	C	2.538040	0.113566	-0.248860
C83	C	2.491915	0.033858	-0.178298
C84	C	2.515764	0.032805	-0.067787
H85	H	2.420488	-0.169107	0.208498
H86	H	2.532981	0.254378	0.564130
Br87	Br	2.491399	0.107373	0.952649
Br88	Br	2.327570	-0.075638	0.598059
Br89	Br	2.306002	0.121387	1.000648
Br90	Br	2.396961	-0.072872	-0.232546
H91	H	1.803311	0.101030	0.785690
Br92	Br	2.191672	-0.133037	0.357191
Br93	Br	2.726135	0.664501	0.062761
H94	H	2.528531	-0.125357	0.542034
H95	H	2.112927	0.118524	0.598672
Br96	Br	2.670621	0.300396	-0.304641
H97	H	2.292110	-0.436901	0.567809
Br98	Br	2.360864	-0.078053	0.858542
H99	H	2.181518	-0.540733	0.433262
H100	H	2.015528	-0.319107	0.433129
H101	H	2.688836	0.255208	-0.065869
H102	H	1.916838	0.103754	0.955172
Br103	Br	1.723746	0.100892	0.553168
Br104	Br	2.382045	-0.187915	0.101284
H105	H	2.518629	0.114436	-0.338848
Br106	Br	2.115110	-0.470429	-0.112176
Br107	Br	2.453167	-0.075374	0.027952
Br108	Br	1.770992	-0.442212	0.491082
H109	H	1.707261	-0.303247	0.446134
H110	H	1.820369	-0.139299	0.381767
H111	H	2.817474	0.541395	0.120709
Br112	Br	2.238403	-0.322834	-0.073530
H113	H	2.722011	0.377471	0.185059
Br114	Br	2.446282	0.547690	0.096122
H115	H	2.226452	0.121251	0.768149
Br116	Br	2.588650	0.295217	0.786267
Br117	Br	1.968133	-0.683423	-0.028450
Br118	Br	2.414640	-0.307277	0.666003
Br119	Br	2.108498	-0.626593	0.404873
H120	H	2.386679	0.361586	0.172066
