data_functionalizedCrystal
_audit_creation_method	'MofGen! by Chris Wilmer'
_symmetry_space_group_name_H-M	'P1'
_symmetry_Int_Tables_number	1
_symmetry_cell_setting	triclinic
loop_
_symmetry_equiv_pos_as_xyz
  x,y,z
_cell_length_a	17.038272
_cell_length_b	15.944551
_cell_length_c	15.021413
_cell_angle_alpha	89.996935
_cell_angle_beta	89.997778
_cell_angle_gamma	92.694853
loop_
_atom_site_label
_atom_site_type_symbol
_atom_site_fract_x
_atom_site_fract_y
_atom_site_fract_z
O1	O	1.037425	-0.182391	-0.073924
O2	O	0.809794	-0.179495	-0.073950
O3	O	0.929826	-0.059112	-0.073929
O4	O	0.917393	-0.302774	-0.073946
O5	O	0.929806	-0.059129	0.074136
O6	O	0.809775	-0.179512	0.074114
O7	O	1.037406	-0.182408	0.074140
Zn8	Zn	0.923587	-0.180963	0.097635
Zn9	Zn	0.923612	-0.180940	-0.097446
O10	O	0.917374	-0.302791	0.074118
C11	C	0.780655	-0.176869	0.000079
C12	C	0.693860	-0.169010	0.000069
C13	C	0.643767	-0.241168	0.000064
C14	C	0.562214	-0.233778	0.000077
C15	C	0.530756	-0.154230	0.000088
C16	C	0.580855	-0.082067	0.000095
C17	C	0.662406	-0.089457	0.000089
C18	C	0.284990	-0.128121	0.000114
C19	C	0.203433	-0.120736	0.000118
C20	C	0.184797	-0.272448	0.000101
C21	C	0.266351	-0.279831	0.000089
C22	C	0.316443	-0.207668	0.000101
C23	C	0.447396	-0.146675	0.000098
C24	C	0.399801	-0.215224	0.000097
C25	C	0.929300	-0.027790	0.000104
C26	C	0.927753	0.065567	0.000104
C27	C	1.066545	-0.185034	0.000109
C28	C	1.153340	-0.192893	0.000113
C29	C	0.917900	-0.334114	0.000084
C30	C	0.919447	-0.427470	0.000078
N31	N	0.923576	-0.180978	0.230773
C32	C	0.849653	0.286000	0.000083
C33	C	0.885910	0.344419	0.073092
C34	C	0.924953	0.236492	0.000097
C35	C	0.885947	0.344418	-0.072888
C36	C	0.922244	0.401598	0.000086
C37	C	0.961232	0.293682	0.073166
C38	C	0.961258	0.293676	-0.072879
C39	C	0.997570	0.352073	0.000147
C40	C	0.926512	0.141379	0.000104
C41	C	0.920691	0.496710	0.000085
N42	N	0.923630	-0.180919	-0.230583
C43	C	0.868065	-0.236615	0.470446
C44	C	0.938714	-0.257966	0.529787
C45	C	0.923596	-0.180959	0.412380
C46	C	0.852965	-0.159627	0.529780
C47	C	0.923609	-0.180941	0.587804
C48	C	0.994281	-0.202350	0.470415
C49	C	0.908486	-0.103976	0.470402
C50	C	0.979186	-0.125298	0.529717
C51	C	0.923587	-0.180971	0.311323
C52	C	0.923626	-0.180929	0.688859
H53	H	0.325766	-0.069360	0.000124
H54	H	0.895672	-0.038899	0.444297
C55	C	0.842879	0.374652	0.156466
C56	C	0.886416	0.432897	0.223808
C57	C	0.843380	0.463125	0.307179
C58	C	0.756805	0.435107	0.323209
C59	C	0.713263	0.376859	0.255866
C60	C	0.756299	0.346631	0.172494
H61	H	0.950508	0.453640	0.211943
H62	H	0.875613	0.506244	0.357031
H63	H	0.724947	0.457484	0.384926
H64	H	0.649171	0.356116	0.267730
H65	H	0.724066	0.303512	0.122642
C66	C	0.804689	-0.300252	0.435277
C67	C	0.717840	-0.290826	0.460030
C68	C	0.654470	-0.354465	0.424859
C69	C	0.677948	-0.427529	0.364934
C70	C	0.764801	-0.436958	0.340177
C71	C	0.828172	-0.373320	0.375349
H72	H	0.700457	-0.236737	0.504393
H73	H	0.590176	-0.347484	0.443185
H74	H	0.631038	-0.474638	0.338898
H75	H	0.782185	-0.491048	0.295815
H76	H	0.892466	-0.380300	0.357022
H77	H	0.993046	0.271412	0.134957
H78	H	1.060128	0.380766	0.000196
C79	C	1.004258	0.263411	-0.156255
C80	C	0.972660	0.283254	-0.249584
C81	C	1.015653	0.252987	-0.332967
C82	C	1.090244	0.202875	-0.323023
C83	C	1.121846	0.183029	-0.229690
C84	C	1.078853	0.213297	-0.146306
H85	H	0.917440	0.320352	-0.256949
H86	H	0.992259	0.267679	-0.402058
H87	H	1.122070	0.180470	-0.384748
H88	H	1.177066	0.145931	-0.222325
H89	H	1.102247	0.198605	-0.077215
H90	H	1.054030	-0.220462	0.444447
H91	H	0.555235	-0.017297	0.000117
C92	C	0.842920	0.374638	-0.156272
C93	C	0.756349	0.346610	-0.172298
C94	C	0.713316	0.376827	-0.255676
C95	C	0.756853	0.435072	-0.323028
C96	C	0.843428	0.463104	-0.307003
C97	C	0.886462	0.432887	-0.223625
H98	H	0.724116	0.303490	-0.122438
H99	H	0.649227	0.356075	-0.267537
H100	H	0.724997	0.457441	-0.384749
H101	H	0.875662	0.506224	-0.356863
H102	H	0.950551	0.453639	-0.211764
H103	H	0.951506	-0.323062	0.555872
C104	C	0.772269	-0.135252	0.565008
C105	C	0.723761	-0.196463	0.624986
C106	C	0.643064	-0.172094	0.660210
C107	C	0.610875	-0.086512	0.635456
C108	C	0.659385	-0.025295	0.575475
C109	C	0.740082	-0.049665	0.540250
H110	H	0.747588	-0.259821	0.643313
H111	H	0.607154	-0.217411	0.704612
H112	H	0.551139	-0.068472	0.661531
H113	H	0.635558	0.038062	0.557147
H114	H	0.775991	-0.004347	0.495848
H115	H	0.669373	-0.305944	0.000055
C116	C	1.042701	-0.061707	0.564665
C117	C	1.054082	-0.049396	0.665599
C118	C	1.117598	0.014189	0.700550
C119	C	1.169733	0.065463	0.634566
C120	C	1.158353	0.053153	0.533626
C121	C	1.094837	-0.010432	0.498675
H122	H	1.015487	-0.087354	0.714449
H123	H	1.126022	0.023301	0.775273
H124	H	1.216752	0.112532	0.660439
H125	H	1.196948	0.091110	0.484776
H126	H	1.086413	-0.019544	0.423952
C127	C	0.507116	-0.313156	0.000073
C128	C	0.510638	-0.376738	-0.076822
C129	C	0.455541	-0.456120	-0.076823
C130	C	0.396921	-0.471921	0.000071
C131	C	0.393396	-0.408337	0.076971
C132	C	0.448494	-0.328955	0.076972
H133	H	0.554033	-0.365043	-0.133749
H134	H	0.458150	-0.503189	-0.133750
H135	H	0.356135	-0.530685	0.000070
H136	H	0.350001	-0.420033	0.133898
H137	H	0.445884	-0.281886	0.133899
H138	H	0.291958	-0.344607	0.000070
C139	C	0.129695	-0.351822	0.000097
C140	C	0.133217	-0.415408	-0.076794
C141	C	0.078114	-0.494787	-0.076795
C142	C	0.019490	-0.510580	0.000095
C143	C	0.015965	-0.446992	0.076992
C144	C	0.071068	-0.367613	0.076993
H145	H	0.176616	-0.403719	-0.133718
H146	H	0.080723	-0.541859	-0.133720
H147	H	-0.021301	-0.569341	0.000095
H148	H	-0.027434	-0.458681	0.133916
H149	H	0.068459	-0.320541	0.133917
C150	C	0.168823	-0.033230	0.000140
C151	C	0.187713	0.028315	0.077041
C152	C	0.153100	0.115815	0.077064
C153	C	0.099598	0.141770	0.000186
C154	C	0.080705	0.080225	-0.076721
C155	C	0.115318	-0.007275	-0.076744
H156	H	0.227321	0.009102	0.133956
H157	H	0.167086	0.161375	0.133996
H158	H	0.073975	0.206543	0.000203
H159	H	0.041096	0.099437	-0.133636
H160	H	0.101332	-0.052835	-0.133676
H161	H	0.425418	-0.279992	0.000093
C162	C	0.717512	-0.010084	0.000092
C163	C	0.713988	0.053501	0.076984
C164	C	0.769094	0.132877	0.076992
C165	C	0.827724	0.148669	0.000107
C166	C	0.831251	0.085083	-0.076791
C167	C	0.776145	0.005707	-0.076799
H168	H	0.670584	0.041812	0.133904
H169	H	0.766482	0.179947	0.133918
H170	H	0.868517	0.207428	0.000113
H171	H	0.874655	0.096772	-0.133711
H172	H	0.778757	-0.041363	-0.133724
H173	H	0.421774	-0.081906	0.000132
H174	H	0.787150	0.257155	0.000148
