data_functionalizedCrystal
_audit_creation_method	'MofGen! by Chris Wilmer'
_symmetry_space_group_name_H-M	'P1'
_symmetry_Int_Tables_number	1
_symmetry_cell_setting	triclinic
loop_
_symmetry_equiv_pos_as_xyz
  x,y,z
_cell_length_a	15.944499
_cell_length_b	23.532407
_cell_length_c	14.421503
_cell_angle_alpha	89.999621
_cell_angle_beta	89.989779
_cell_angle_gamma	83.163143
loop_
_atom_site_label
_atom_site_type_symbol
_atom_site_fract_x
_atom_site_fract_y
_atom_site_fract_z
O1	O	1.113939	0.073302	-0.077177
O2	O	0.869306	0.082388	-0.077168
O3	O	0.998999	-0.005059	-0.077156
O4	O	0.984246	0.160749	-0.077189
O5	O	0.998978	-0.005046	0.077068
O6	O	0.869285	0.082401	0.077056
O7	O	1.113917	0.073315	0.077047
Cu8	Cu	0.991599	0.077859	0.091133
Cu9	Cu	0.991625	0.077844	-0.091254
O10	O	0.984224	0.160762	0.077034
C11	C	0.838004	0.082023	-0.000055
C12	C	0.744765	0.080907	-0.000050
C13	C	0.452801	0.131712	-0.000074
C14	C	0.514063	0.105296	-0.076111
C15	C	0.409163	0.076856	-0.000071
C16	C	0.514028	0.105294	0.075941
C17	C	0.574055	0.078849	-0.000059
C18	C	0.469197	0.050424	-0.076170
C19	C	0.469156	0.050430	0.075950
C20	C	0.530401	0.023974	-0.000105
C21	C	0.314172	0.075709	-0.000079
C22	C	0.669044	0.079992	-0.000058
C23	C	0.998613	-0.026270	-0.000041
C24	C	0.997483	-0.089491	-0.000034
C25	C	1.067148	-0.488333	-0.000088
C26	C	1.066099	-0.547737	-0.000095
O27	O	1.130679	-0.584240	-0.000131
N28	N	0.988996	-0.570653	-0.000091
C29	C	0.912938	-0.534160	-0.000090
O30	O	0.847260	-0.559106	-0.000089
C31	C	0.913989	-0.474757	-0.000090
C32	C	0.991096	-0.451845	-0.000084
C33	C	1.144249	-0.465421	-0.000083
C34	C	1.145298	-0.406021	-0.000074
C35	C	1.069246	-0.369533	-0.000070
C36	C	0.992145	-0.392445	-0.000075
C37	C	0.837931	-0.438266	-0.000095
C38	C	0.838988	-0.378859	-0.000096
C39	C	0.916096	-0.355948	-0.000090
C40	C	0.917142	-0.296557	-0.000062
N41	N	0.994244	-0.273642	-0.000066
C42	C	1.070296	-0.310130	-0.000070
C43	C	0.910739	-0.658911	-0.000092
C44	C	0.909688	-0.718313	-0.000086
C45	C	1.062848	-0.731886	-0.000093
C46	C	1.063899	-0.672483	-0.000092
C47	C	0.987841	-0.635996	-0.000096
C48	C	1.072493	-0.185385	-0.000051
C49	C	1.073536	-0.125979	-0.000038
C50	C	0.920375	-0.112411	-0.000037
C51	C	0.919333	-0.171812	-0.000044
C52	C	0.995398	-0.208298	-0.000055
O53	O	0.852596	-0.260020	-0.000030
O54	O	1.135963	-0.285176	-0.000084
C55	C	1.145219	0.073680	-0.000069
C56	C	1.238458	0.074796	-0.000079
C57	C	0.984611	0.181973	-0.000082
C58	C	0.985740	0.245194	-0.000095
N59	N	0.991587	0.077870	0.219414
N60	N	0.991643	0.077829	-0.219535
C61	C	0.931607	0.118287	0.469062
C62	C	1.007416	0.129334	0.530859
C63	C	0.991608	0.077856	0.408576
C64	C	0.915819	0.066822	0.530872
C65	C	0.991621	0.077844	0.591297
C66	C	1.067455	0.088929	0.469012
C67	C	0.975808	0.026395	0.469020
C68	C	1.051672	0.037420	0.530789
C69	C	0.991599	0.077864	0.303314
C70	C	0.991638	0.077836	0.696556
H71	H	0.449423	0.027238	-0.140525
C72	C	0.540875	0.136652	0.162780
H73	H	0.578772	0.111281	0.198595
H74	H	0.492375	0.149358	0.198820
H75	H	0.568056	0.168662	0.144490
C76	C	0.863132	0.164508	0.432436
H77	H	0.823601	0.146978	0.396198
H78	H	0.888705	0.190996	0.395280
H79	H	0.834834	0.184058	0.483239
H80	H	1.136328	-0.107328	-0.000031
C81	C	0.442216	0.019120	0.162800
H82	H	0.415976	-0.013303	0.144543
H83	H	0.403499	0.044303	0.197973
H84	H	0.490559	0.007039	0.199463
C85	C	0.824870	-0.743509	-0.000085
H86	H	0.779731	-0.713266	-0.000088
H87	H	0.821262	-0.766403	0.053691
H88	H	0.821283	-0.766395	-0.053878
C89	C	1.146505	-0.772030	-0.000114
H90	H	1.134830	-0.810689	-0.000128
H91	H	1.178146	-0.765092	0.053661
H92	H	1.178141	-0.765082	-0.053908
C93	C	0.836722	-0.072270	-0.000038
H94	H	0.790647	-0.094420	-0.000037
H95	H	0.833967	-0.048815	-0.053819
H96	H	0.833939	-0.048815	0.053750
H97	H	1.020792	0.172849	0.558022
H98	H	1.134434	-0.215086	-0.000063
H99	H	0.533975	0.128495	-0.140399
H100	H	0.419087	0.177237	-0.000157
C101	C	0.827070	-0.618779	-0.000079
H102	H	0.781006	-0.640939	-0.000068
H103	H	0.824293	-0.595321	-0.053857
H104	H	0.824288	-0.595327	0.053712
H105	H	1.102473	0.003221	0.557721
C106	C	0.575752	-0.037577	-0.000148
H107	H	0.560420	-0.056973	-0.054209
H108	H	0.559695	-0.057202	0.053359
H109	H	0.635128	-0.036526	0.000357
C110	C	0.755325	-0.338724	-0.000099
H111	H	0.766987	-0.300063	-0.000102
H112	H	0.723676	-0.345673	0.053678
H113	H	0.723703	-0.345671	-0.053891
C114	C	1.230117	-0.380826	-0.000085
H115	H	1.275254	-0.411071	-0.000100
H116	H	1.233717	-0.357934	0.053693
H117	H	1.233715	-0.357938	-0.053876
H118	H	1.206184	-0.495124	-0.000090
H119	H	1.126686	-0.653833	-0.000088
H120	H	1.131568	0.098308	0.441954
C121	C	0.957710	-0.032369	0.432284
H122	H	1.004168	-0.048756	0.396033
H123	H	0.908184	-0.027740	0.395119
H124	H	0.949621	-0.056868	0.483041
C125	C	0.753112	-0.463455	-0.000110
H126	H	0.707976	-0.433209	-0.000119
H127	H	0.749495	-0.486348	0.053667
H128	H	0.749528	-0.486342	-0.053902
C129	C	0.834517	-0.197016	-0.000053
H130	H	0.789375	-0.166775	-0.000055
H131	H	0.830908	-0.219915	0.053718
H132	H	0.830939	-0.219898	-0.053851
C133	C	0.829228	0.054215	0.567570
H134	H	0.786662	0.082980	0.546422
H135	H	0.830003	0.053952	0.633433
H136	H	0.817593	0.017937	0.545474
