data_functionalizedCrystal
_audit_creation_method	'MofGen! by Chris Wilmer'
_symmetry_space_group_name_H-M	'P1'
_symmetry_Int_Tables_number	1
_symmetry_cell_setting	triclinic
loop_
_symmetry_equiv_pos_as_xyz
  x,y,z
_cell_length_a	16.992697
_cell_length_b	9.565339
_cell_length_c	16.992695
_cell_angle_alpha	90.000049
_cell_angle_beta	89.331663
_cell_angle_gamma	90.002667
loop_
_atom_site_label
_atom_site_type_symbol
_atom_site_fract_x
_atom_site_fract_y
_atom_site_fract_z
O1	O	-1.050850	0.116059	0.166913
O2	O	-0.822450	0.116106	0.165081
O3	O	-0.935734	0.116071	0.051797
O4	O	-0.937565	0.116093	0.280197
O5	O	-0.935725	-0.116449	0.051804
O6	O	-0.822441	-0.116414	0.165088
O7	O	-1.050841	-0.116461	0.166920
Zn8	Zn	-0.936639	-0.153355	0.166005
Zn9	Zn	-0.936651	0.153000	0.165996
O10	O	-0.937556	-0.116427	0.280204
C11	C	-0.793085	-0.000148	0.162729
C12	C	-0.705600	-0.000131	0.155700
N13	N	-0.936637	-0.362435	0.166011
C14	C	-0.659609	-0.000124	0.223518
C15	C	-0.577409	-0.000142	0.216909
C16	C	-0.541200	-0.000156	0.142481
C17	C	-0.587197	-0.000167	0.074658
C18	C	-0.669397	-0.000159	0.081268
C19	C	-0.295886	-0.000190	0.115086
C20	C	-0.213681	-0.000193	0.108481
C21	C	-0.203898	-0.000171	0.250733
C22	C	-0.286099	-0.000155	0.257336
C23	C	-0.332089	-0.000173	0.189513
N24	N	-0.457178	-0.000170	0.135724
N25	N	-0.416109	-0.000169	0.196271
C26	C	-0.884228	-0.453622	0.218382
C27	C	-0.956320	-0.546814	0.238114
C28	C	-0.864576	-0.546798	0.146287
C29	C	-1.008766	-0.453575	0.185781
C30	C	-0.916974	-0.453551	0.093920
C31	C	-0.989115	-0.546701	0.113625
C32	C	-0.080205	-0.000198	0.169272
C33	C	-0.167690	-0.000187	0.176299
C34	C	-0.933374	-0.000188	0.022440
C35	C	-0.926345	-0.000186	-0.065044
N36	N	-0.936659	0.362079	0.165984
C37	C	-0.994163	-0.000202	-0.111035
C38	C	-0.987554	-0.000187	-0.193236
C39	C	-0.913126	-0.000167	-0.229444
C40	C	-0.845303	-0.000147	-0.183447
C41	C	-0.851913	-0.000152	-0.101248
C42	C	-0.885732	-0.000142	-0.474758
C43	C	-0.879127	-0.000142	-0.556964
C44	C	-1.021379	-0.000179	-0.566747
C45	C	-1.027982	-0.000192	-0.484545
C46	C	-0.960159	-0.000165	-0.438556
N47	N	-0.906369	-0.000157	-0.313466
N48	N	-0.966917	-0.000165	-0.354535
C49	C	-0.939916	-0.000164	0.309561
C50	C	-0.946945	-0.000157	0.397045
H51	H	-0.689084	-0.000111	0.284125
H52	H	-0.333321	-0.000206	0.059859
Br53	Br	-0.984069	-0.615091	0.339707
H54	H	-0.539966	-0.000135	0.272134
H55	H	-0.830505	-0.000121	-0.437323
Br56	Br	-0.335233	-0.000119	0.358349
H57	H	-0.900306	-0.412554	0.032984
Br58	Br	-0.141480	-0.000148	0.342773
Br59	Br	-1.110386	-0.385622	0.213684
H60	H	-0.557710	-0.000199	0.014057
Br61	Br	-0.744293	-0.000097	-0.232586
Br62	Br	-1.079597	-0.000208	-0.255649
H63	H	-0.184203	-0.000204	0.047870
Br64	Br	-0.731814	-0.000180	-0.010774
H65	H	-0.796688	-0.000139	-0.063803
Br66	Br	-0.778112	-0.000129	-0.606103
H67	H	-0.839954	-0.412754	0.262716
H68	H	-1.033496	-0.587313	0.069326
H69	H	-0.803626	-0.587751	0.129617
Br70	Br	-1.095177	-0.000249	-0.061903
Br71	Br	-1.128994	-0.000174	-0.435411
H72	H	-1.076596	-0.000198	-0.604200
