data_functionalizedCrystal
_audit_creation_method	'MofGen! by Chris Wilmer'
_symmetry_space_group_name_H-M	'P1'
_symmetry_Int_Tables_number	1
_symmetry_cell_setting	triclinic
loop_
_symmetry_equiv_pos_as_xyz
  x,y,z
_cell_length_a	18.215407
_cell_length_b	18.215404
_cell_length_c	18.215399
_cell_angle_alpha	89.972485
_cell_angle_beta	90.016899
_cell_angle_gamma	89.978718
loop_
_atom_site_label
_atom_site_type_symbol
_atom_site_fract_x
_atom_site_fract_y
_atom_site_fract_z
Zn1	Zn	1.125077	0.293042	0.416060
Zn2	Zn	1.458411	0.626375	0.749394
Zn3	Zn	1.791744	0.959708	1.082727
Zn4	Zn	1.124988	0.416113	0.292995
Zn5	Zn	1.458321	0.749446	0.626328
Zn6	Zn	1.791655	1.082780	0.959662
Zn7	Zn	1.002010	0.293059	0.293014
Zn8	Zn	1.335343	0.626393	0.626347
Zn9	Zn	1.668677	0.959726	0.959681
Zn10	Zn	1.001978	0.416066	0.416026
Zn11	Zn	1.335311	0.749399	0.749360
Zn12	Zn	1.668645	1.082732	1.082693
O13	O	1.063513	0.354570	0.354524
O14	O	1.396847	0.687903	0.687857
O15	O	1.730180	1.021237	1.021191
O16	O	1.228050	0.309380	0.399742
O17	O	1.561383	0.642713	0.733075
O18	O	1.894716	0.976047	1.066409
O19	O	1.108651	0.399817	0.190013
O20	O	1.441984	0.733150	0.523347
O21	O	1.775317	1.066484	0.856680
O22	O	1.018386	0.190073	0.309359
O23	O	1.351719	0.523406	0.642692
O24	O	1.685052	0.856739	0.976025
O25	O	1.227984	0.399800	0.309326
O26	O	1.561317	0.733133	0.642660
O27	O	1.894651	1.066466	0.975993
O28	O	1.108803	0.190060	0.399760
O29	O	1.442136	0.523393	0.733094
O30	O	1.775470	0.856726	1.066427
O31	O	1.018299	0.309410	0.190027
O32	O	1.351633	0.642743	0.523361
O33	O	1.684966	0.976077	0.856694
O34	O	0.899021	0.309364	0.309326
O35	O	1.232355	0.642697	0.642659
O36	O	1.565688	0.976031	0.975992
O37	O	1.018332	0.399719	0.519015
O38	O	1.351665	0.733052	0.852348
O39	O	1.684998	1.066386	1.185682
O40	O	0.898998	0.399736	0.399702
O41	O	1.232331	0.733069	0.733035
O42	O	1.565665	1.066403	1.066369
O43	O	1.108772	0.309334	0.519040
O44	O	1.442105	0.642667	0.852374
O45	O	1.775439	0.976001	1.185707
O46	O	1.108620	0.519091	0.309293
O47	O	1.441953	0.852424	0.642627
O48	O	1.775286	1.185758	0.975960
O49	O	1.018245	0.519056	0.399684
O50	O	1.351578	0.852390	0.733017
O51	O	1.684912	1.185723	1.066350
C52	C	0.872307	0.354547	0.354513
C53	C	1.205640	0.687881	0.687846
C54	C	1.538974	1.021214	1.021179
C55	C	0.790508	0.354555	0.354525
C56	C	1.123842	0.687889	0.687859
C57	C	1.457175	1.021222	1.021192
C58	C	0.525458	0.401704	0.401518
C59	C	0.858791	0.735037	0.734852
C60	C	1.192124	1.068371	1.068185
C61	C	0.602316	0.401698	0.401515
C62	C	0.935650	0.735031	0.734848
C63	C	1.268983	1.068364	1.068182
C64	C	0.602310	0.307452	0.307542
C65	C	0.935644	0.640786	0.640876
C66	C	1.268977	0.974119	0.974209
C67	C	0.525453	0.307463	0.307543
C68	C	0.858786	0.640796	0.640876
C69	C	1.192120	0.974130	0.974210
C70	C	0.487029	0.354588	0.354535
C71	C	0.820362	0.687921	0.687868
C72	C	1.153695	1.021254	1.021202
C73	C	0.640745	0.354571	0.354531
C74	C	0.974078	0.687904	0.687864
C75	C	1.307411	1.021238	1.021198
C76	C	0.724078	0.354564	0.354527
C77	C	1.057412	0.687897	0.687860
C78	C	1.390745	1.021230	1.021194
C79	C	0.403690	0.354596	0.354538
C80	C	0.737023	0.687929	0.687872
C81	C	1.070356	1.021263	1.021205
C82	C	1.063439	0.545776	0.354499
C83	C	1.396773	0.879110	0.687832
C84	C	1.730106	1.212443	1.021165
C85	C	1.063475	0.627575	0.354513
C86	C	1.396808	0.960908	0.687846
C87	C	1.730141	1.294242	1.021179
C88	C	1.110647	0.815763	0.307543
C89	C	1.443980	1.149096	0.640876
C90	C	1.777314	1.482429	0.974209
C91	C	1.110681	0.892621	0.307565
C92	C	1.444015	1.225955	0.640898
C93	C	1.777348	1.559288	0.974231
C94	C	1.016492	0.892625	0.401611
C95	C	1.349826	1.225958	0.734944
C96	C	1.683159	1.559292	1.068278
C97	C	1.016462	0.815768	0.401592
C98	C	1.349796	1.149101	0.734926
C99	C	1.683129	1.482434	1.068259
C100	C	1.063539	0.777339	0.354554
C101	C	1.396872	1.110672	0.687887
C102	C	1.730205	1.444005	1.021221
C103	C	1.063603	0.931055	0.354595
C104	C	1.396936	1.264388	0.687928
C105	C	1.730270	1.597721	1.021261
C106	C	1.063640	1.014388	0.354619
C107	C	1.396973	1.347722	0.687952
C108	C	1.730306	1.681055	1.021285
C109	C	1.063503	0.694000	0.354531
C110	C	1.396836	1.027333	0.687864
C111	C	1.730169	1.360666	1.021197
C112	C	1.255466	0.354593	0.354536
C113	C	1.588800	0.687926	0.687869
C114	C	1.922133	1.021260	1.021202
C115	C	1.337265	0.354603	0.354541
C116	C	1.670598	0.687936	0.687874
C117	C	2.003932	1.021270	1.021207
C118	C	1.063558	0.354519	0.546477
C119	C	1.396892	0.687853	0.879810
C120	C	1.730225	1.021186	1.213144
C121	C	1.063577	0.354498	0.628276
C122	C	1.396911	0.687831	0.961609
C123	C	1.730244	1.021164	1.294943
C124	C	1.063613	1.162617	0.354579
C125	C	1.396946	1.495950	0.687912
C126	C	1.730279	1.829284	1.021245
C127	C	1.063667	1.080818	0.354636
C128	C	1.397000	1.414151	0.687969
C129	C	1.730333	1.747485	1.021303
C130	C	1.063511	0.354567	0.163318
C131	C	1.396844	0.687901	0.496651
C132	C	1.730178	1.021234	0.829984
C133	C	1.063635	0.354382	0.081519
C134	C	1.396968	0.687715	0.414853
C135	C	1.730301	1.021048	0.748186
C136	C	1.110687	0.307390	0.816484
C137	C	1.444020	0.640723	1.149818
C138	C	1.777353	0.974057	1.483151
C139	C	1.110695	0.307369	0.893343
C140	C	1.444029	0.640702	1.226676
C141	C	1.777362	0.974035	1.560010
C142	C	1.016520	0.401491	0.893306
C143	C	1.349853	0.734825	1.226639
C144	C	1.683187	1.068158	1.559972
C145	C	1.016508	0.401509	0.816448
C146	C	1.349841	0.734842	1.149782
C147	C	1.683175	1.068175	1.483115
C148	C	1.063596	0.354459	0.778040
C149	C	1.396929	0.687792	1.111373
C150	C	1.730262	1.021126	1.444706
C151	C	1.063616	0.354420	0.931756
C152	C	1.396950	0.687754	1.265089
C153	C	1.730283	1.021087	1.598422
C154	C	1.063625	0.354397	1.015089
C155	C	1.396959	0.687731	1.348423
C156	C	1.730292	1.021064	1.681756
C157	C	1.063586	0.354481	0.694701
C158	C	1.396919	0.687814	1.028034
C159	C	1.730252	1.021147	1.361367
H160	H	0.494163	0.269094	0.269280
H161	H	0.827496	0.602427	0.602613
H162	H	1.160830	0.935761	0.935946
Br163	Br	0.654468	0.465648	0.465277
Br164	Br	0.987801	0.798981	0.798610
Br165	Br	1.321134	1.132315	1.131944
H166	H	0.494175	0.440076	0.439782
H167	H	0.827508	0.773410	0.773116
H168	H	1.160842	1.106743	1.106449
H169	H	0.978156	0.439837	0.785146
H170	H	1.311489	0.773170	1.118479
H171	H	1.644822	1.106504	1.451812
H172	H	0.978185	0.439799	0.924587
H173	H	1.311518	0.773132	1.257921
H174	H	1.644851	1.106466	1.591254
Br175	Br	0.952606	0.944784	0.465445
Br176	Br	1.285939	1.278117	0.798778
Br177	Br	1.619272	1.611450	1.132111
Br178	Br	1.174536	0.763611	0.243706
Br179	Br	1.507869	1.096944	0.577039
Br180	Br	1.841203	1.430277	0.910373
H181	H	0.633605	0.269084	0.269284
H182	H	0.966938	0.602418	0.602617
H183	H	1.300271	0.935751	0.935951
H184	H	1.149043	0.923903	0.269284
H185	H	1.482376	1.257236	0.602618
H186	H	1.815709	1.590570	0.935951
H187	H	0.978101	0.784481	0.439878
H188	H	1.311434	1.117814	0.773211
H189	H	1.644768	1.451147	1.106545
H190	H	1.149040	0.269039	0.924641
H191	H	1.482374	0.602373	1.257975
H192	H	1.815707	0.935706	1.591308
Br193	Br	1.174589	0.243536	0.764360
Br194	Br	1.507922	0.576869	1.097693
Br195	Br	1.841256	0.910203	1.431027
