data_functionalizedCrystal
_audit_creation_method	'MofGen! by Chris Wilmer'
_symmetry_space_group_name_H-M	'P1'
_symmetry_Int_Tables_number	1
_symmetry_cell_setting	triclinic
loop_
_symmetry_equiv_pos_as_xyz
  x,y,z
_cell_length_a	10.967819
_cell_length_b	10.967829
_cell_length_c	9.130313
_cell_angle_alpha	77.867600
_cell_angle_beta	77.867167
_cell_angle_gamma	82.166777
loop_
_atom_site_label
_atom_site_type_symbol
_atom_site_fract_x
_atom_site_fract_y
_atom_site_fract_z
O1	O	1.657216	0.175062	-0.584273
O2	O	1.294057	0.191808	-0.496839
O3	O	1.484011	0.001857	-0.496834
O4	O	1.467262	0.365014	-0.584278
O5	O	1.483998	0.001851	-0.253230
O6	O	1.294044	0.191803	-0.253235
O7	O	1.657202	0.175056	-0.340669
Cu8	Cu	1.475622	0.183429	-0.274709
Cu9	Cu	1.475638	0.183436	-0.562799
O10	O	1.467249	0.365008	-0.340674
C11	C	1.247551	0.190586	-0.362992
C12	C	1.108994	0.186935	-0.327099
C13	C	0.904028	0.181550	-0.400225
C14	C	1.047235	0.185315	-0.437311
C15	C	1.482785	-0.044646	-0.362989
C16	C	1.479136	-0.183203	-0.327101
C17	C	1.477516	-0.244967	-0.437297
C18	C	1.473744	-0.388172	-0.400208
C19	C	1.703709	0.176279	-0.474519
C20	C	1.842266	0.179930	-0.510421
C21	C	1.468475	0.411511	-0.474522
C22	C	1.472124	0.550068	-0.510420
N23	N	1.475620	0.183424	-0.072085
N24	N	1.475649	0.183431	-0.765423
C25	C	1.559761	0.099349	0.004553
C26	C	1.559773	0.099349	0.157887
C27	C	1.391500	0.267510	0.157929
C28	C	1.391483	0.267503	0.004602
H29	H	0.895408	0.181336	-0.632222
C30	C	1.300220	0.358999	0.240932
C31	C	1.321468	0.481815	0.167216
C32	C	1.237393	0.566130	0.243616
H33	H	1.312189	0.347142	0.343226
H34	H	1.216797	0.344749	0.240443
H35	H	1.404872	0.496059	0.167722
H36	H	1.309490	0.493712	0.064927
H37	H	1.153969	0.551881	0.243127
H38	H	1.249369	0.554262	0.345908
H39	H	1.251791	0.649470	0.193603
C40	C	1.117980	0.187439	-0.599817
C41	C	1.073315	0.293803	-0.695538
C42	C	1.138468	0.295812	-0.845239
H43	H	1.105644	0.114323	-0.633018
H44	H	1.204818	0.189791	-0.603235
H45	H	0.986498	0.291440	-0.692126
H46	H	1.085652	0.366937	-0.662385
H47	H	1.225306	0.298164	-0.848658
H48	H	1.126127	0.222691	-0.878425
H49	H	1.108180	0.367984	-0.910202
H50	H	1.322960	0.335967	-0.057800
H51	H	1.055857	0.185543	-0.205293
H52	H	1.478915	-0.191825	-0.559096
H53	H	1.472331	-0.441307	-0.278398
H54	H	0.850885	0.180158	-0.278428
C55	C	1.473923	-0.378862	-0.672730
C56	C	1.477255	-0.250947	-0.677243
C57	C	1.478866	-0.185433	-0.826722
H58	H	1.400699	-0.391145	-0.705742
H59	H	1.546001	-0.408897	-0.738055
H60	H	1.405185	-0.220920	-0.611940
H61	H	1.550475	-0.238626	-0.644261
H62	H	1.550943	-0.215468	-0.892048
H63	H	1.405641	-0.197726	-0.859722
H64	H	1.481139	-0.098637	-0.829807
C65	C	1.651152	0.007917	-0.078417
C66	C	1.724816	-0.065735	0.021538
C67	C	1.809007	-0.149991	-0.054828
H68	H	1.703593	0.053136	-0.162907
H69	H	1.605844	-0.044515	-0.113513
H70	H	1.770121	-0.013309	0.056611
H71	H	1.672409	-0.110980	0.106029
H72	H	1.763699	-0.202424	-0.089924
H73	H	1.861439	-0.104762	-0.139316
H74	H	1.858990	-0.199982	0.012983
H75	H	1.477723	-0.236343	-0.205299
H76	H	1.628285	0.030886	0.220282
