data_functionalizedCrystal
_audit_creation_method	'MofGen! by Chris Wilmer'
_symmetry_space_group_name_H-M	'P1'
_symmetry_Int_Tables_number	1
_symmetry_cell_setting	triclinic
loop_
_symmetry_equiv_pos_as_xyz
  x,y,z
_cell_length_a	19.121102
_cell_length_b	19.121063
_cell_length_c	19.120904
_cell_angle_alpha	94.741613
_cell_angle_beta	89.911827
_cell_angle_gamma	89.873098
loop_
_atom_site_label
_atom_site_type_symbol
_atom_site_fract_x
_atom_site_fract_y
_atom_site_fract_z
Zn1	Zn	1.039579	0.343506	0.456040
Zn2	Zn	1.372913	0.676839	0.789373
Zn3	Zn	1.706246	1.010172	1.122706
Zn4	Zn	1.039493	0.456149	0.343386
Zn5	Zn	1.372826	0.789482	0.676720
Zn6	Zn	1.706159	1.122815	1.010053
Zn7	Zn	0.927792	0.333518	0.333417
Zn8	Zn	1.261125	0.666851	0.666750
Zn9	Zn	1.594459	1.000184	1.000084
Zn10	Zn	0.917325	0.455677	0.455570
Zn11	Zn	1.250658	0.789010	0.788903
Zn12	Zn	1.583992	1.122343	1.122236
O13	O	0.981047	0.397212	0.397103
O14	O	1.314381	0.730546	0.730436
O15	O	1.647714	1.063879	1.063770
O16	O	1.137479	0.362826	0.445465
O17	O	1.470812	0.696159	0.778798
O18	O	1.804145	1.029492	1.112131
O19	O	1.029020	0.435899	0.243797
O20	O	1.362353	0.769232	0.577130
O21	O	1.695686	1.102566	0.910464
O22	O	0.947038	0.236577	0.345708
O23	O	1.280371	0.569910	0.679041
O24	O	1.613704	0.903244	1.012374
O25	O	1.137415	0.445584	0.362699
O26	O	1.470748	0.778917	0.696032
O27	O	1.804082	1.112251	1.029366
O28	O	1.029167	0.243915	0.435798
O29	O	1.362501	0.577248	0.769131
O30	O	1.695834	0.910582	1.102465
O31	O	0.946954	0.345802	0.236473
O32	O	1.280287	0.679136	0.569806
O33	O	1.613620	1.012469	0.903139
O34	O	0.828493	0.345345	0.345252
O35	O	1.161826	0.678678	0.678585
O36	O	1.495159	1.012011	1.011919
O37	O	0.929198	0.444780	0.553899
O38	O	1.262532	0.778113	0.887232
O39	O	1.595865	1.111446	1.220566
O40	O	0.820803	0.435094	0.434997
O41	O	1.154136	0.768428	0.768330
O42	O	1.487469	1.101761	1.101663
O43	O	1.019018	0.362368	0.554244
O44	O	1.352351	0.695701	0.887577
O45	O	1.685684	1.029035	1.220911
O46	O	1.018870	0.554352	0.362243
O47	O	1.352204	0.887685	0.695577
O48	O	1.685537	1.221018	1.028910
O49	O	0.929114	0.554005	0.444664
O50	O	1.262448	0.887338	0.777997
O51	O	1.595781	1.220672	1.111330
C52	C	0.799261	0.389085	0.388992
C53	C	1.132594	0.722418	0.722325
C54	C	1.465927	1.055752	1.055659
C55	C	0.721490	0.385626	0.385539
C56	C	1.054823	0.718959	0.718873
C57	C	1.388157	1.052292	1.052206
C58	C	0.972865	0.579659	0.404501
C59	C	1.306199	0.912992	0.737834
C60	C	1.639532	1.246326	1.071167
C61	C	0.969428	0.657714	0.407691
C62	C	1.302761	0.991048	0.741025
C63	C	1.636095	1.324381	1.074358
C64	C	0.680968	0.430793	0.430575
C65	C	1.014301	0.764127	0.763908
C66	C	1.347634	1.097460	1.097242
C67	C	0.607894	0.427534	0.427334
C68	C	0.941228	0.760867	0.760667
C69	C	1.274561	1.094201	1.094000
C70	C	0.575344	0.379110	0.379053
C71	C	0.908677	0.712443	0.712386
C72	C	1.242011	1.045776	1.045720
C73	C	0.615872	0.333937	0.334016
C74	C	0.949205	0.667271	0.667349
C75	C	1.282538	1.000604	1.000682
C76	C	0.688944	0.337194	0.337261
C77	C	1.022277	0.670527	0.670594
C78	C	1.355611	1.003860	1.003927
C79	C	0.354913	0.366933	0.366924
C80	C	0.688246	0.700266	0.700257
C81	C	1.021579	1.033599	1.033591
C82	C	0.281835	0.363681	0.363681
C83	C	0.615169	0.697014	0.697014
C84	C	0.948502	1.030348	1.030348
C85	C	0.273863	0.457277	0.457000
C86	C	0.607196	0.790611	0.790334
C87	C	0.940529	1.123944	1.123667
C88	C	0.346937	0.460532	0.460238
C89	C	0.680270	0.793866	0.793572
C90	C	1.013603	1.127199	1.126905
C91	C	0.387458	0.415357	0.415203
C92	C	0.720791	0.748691	0.748537
C93	C	1.054124	1.082024	1.081870
C94	C	0.500651	0.375778	0.375738
C95	C	0.833985	0.709112	0.709071
C96	C	1.167318	1.042445	1.042404
C97	C	0.462149	0.418686	0.418523
C98	C	0.795483	0.752019	0.751856
C99	C	1.128816	1.085353	1.085190
C100	C	0.972950	0.404635	0.580263
C101	C	1.306283	0.737969	0.913597
C102	C	1.639617	1.071302	1.246930
C103	C	0.969500	0.407799	0.658315
C104	C	1.302833	0.741132	0.991649
C105	C	1.636166	1.074465	1.324982
C106	C	1.163544	0.405372	0.405246
C107	C	1.496877	0.738705	0.738580
C108	C	1.830211	1.072038	1.071913
C109	C	1.241313	0.408849	0.408717
C110	C	1.574646	0.742182	0.742050
C111	C	1.907980	1.075515	1.075383
C112	C	0.989280	0.214054	0.389693
C113	C	1.322613	0.547388	0.723026
C114	C	1.655946	0.880721	1.056360
C115	C	0.992788	0.136003	0.386535
C116	C	1.326121	0.469337	0.719869
C117	C	1.659454	0.802670	1.053202
C118	C	1.014577	0.694545	0.366317
C119	C	1.347911	1.027879	0.699651
C120	C	1.681244	1.361212	1.032984
C121	C	1.011348	0.767887	0.369323
C122	C	1.344682	1.101220	0.702656
C123	C	1.678015	1.434554	1.035990
C124	C	0.962966	0.804396	0.413699
C125	C	1.296300	1.137729	0.747032
C126	C	1.629633	1.471063	1.080366
C127	C	0.917815	0.767560	0.455078
C128	C	1.251148	1.100893	0.788411
C129	C	1.584482	1.434227	1.121744
C130	C	0.921048	0.694220	0.452076
C131	C	1.254381	1.027553	0.785409
C132	C	1.587714	1.360887	1.118742
C133	C	0.950869	1.025828	0.424912
C134	C	1.284202	1.359161	0.758245
C135	C	1.617536	1.692494	1.091579
C136	C	0.947638	1.099173	0.427909
C137	C	1.280972	1.432506	0.761243
C138	C	1.614305	1.765839	1.094576
C139	C	1.041173	1.099494	0.342155
C140	C	1.374507	1.432828	0.675488
C141	C	1.707840	1.766161	1.008822
C142	C	1.044399	1.026153	0.339154
C143	C	1.377732	1.359486	0.672487
C144	C	1.711065	1.692819	1.005820
C145	C	0.999250	0.989323	0.380535
C146	C	1.332583	1.322657	0.713869
C147	C	1.665917	1.655990	1.047202
C148	C	0.959663	0.879363	0.416770
C149	C	1.292997	1.212696	0.750104
C150	C	1.626330	1.546029	1.083437
C151	C	1.002557	0.914358	0.377467
C152	C	1.335890	1.247692	0.710800
C153	C	1.669224	1.581025	1.044134
C154	C	0.989156	0.389769	0.214655
C155	C	1.322489	0.723102	0.547988
C156	C	1.655822	1.056436	0.881322
C157	C	0.992751	0.386414	0.136602
C158	C	1.326084	0.719747	0.469935
C159	C	1.659417	1.053081	0.803268
C160	C	1.014640	0.366379	0.695165
C161	C	1.347974	0.699713	1.028499
C162	C	1.681307	1.033046	1.361832
C163	C	1.011390	0.369348	0.768503
C164	C	1.344723	0.702682	1.101836
C165	C	1.678056	1.036015	1.435170
C166	C	0.963001	0.413741	0.804990
C167	C	1.296335	0.747074	1.138323
C168	C	1.629668	1.080408	1.471656
C169	C	0.917856	0.455162	0.768135
C170	C	1.251189	0.788495	1.101468
C171	C	1.584522	1.121828	1.434801
C172	C	0.921103	0.452188	0.694798
C173	C	1.254437	0.785522	1.028131
C174	C	1.587770	1.118855	1.361465
C175	C	0.950853	0.424862	1.026410
C176	C	1.284186	0.758195	1.359743
C177	C	1.617519	1.091528	1.693076
C178	C	0.947610	0.427833	1.099752
C179	C	1.280943	0.761167	1.433085
C180	C	1.614276	1.094500	1.766418
C181	C	1.041143	0.342019	1.100115
C182	C	1.374477	0.675352	1.433448
C183	C	1.707810	1.008685	1.766782
C184	C	1.044390	0.339052	1.026777
C185	C	1.377723	0.672386	1.360110
C186	C	1.711056	1.005719	1.693444
C187	C	0.999242	0.380470	0.989928
C188	C	1.332575	0.713804	1.323261
C189	C	1.665908	1.047137	1.656595
C190	C	0.959679	0.416779	0.879953
C191	C	1.293012	0.750112	1.213286
C192	C	1.626346	1.083445	1.546619
C193	C	1.002561	0.377429	0.914966
C194	C	1.335894	0.710762	1.248299
C195	C	1.669228	1.044095	1.581633
H196	H	0.707464	0.470228	0.469888
H197	H	1.040798	0.803561	0.803221
H198	H	1.374131	1.136895	1.136555
Cl199	Cl	0.898852	0.472588	0.925828
Cl200	Cl	1.232186	0.805921	1.259162
Cl201	Cl	1.565519	1.139255	1.592495
H202	H	1.083795	0.996429	0.303019
H203	H	1.417129	1.329762	0.636353
H204	H	1.750462	1.663095	0.969686
H205	H	0.488655	0.458110	0.457836
H206	H	0.821988	0.791443	0.791169
H207	H	1.155321	1.124776	1.124502
H208	H	1.077932	1.129489	0.308466
H209	H	1.411265	1.462822	0.641799
H210	H	1.744598	1.796155	0.975133
Cl211	Cl	1.075478	0.310572	0.649304
Cl212	Cl	1.408812	0.643905	0.982637
Cl213	Cl	1.742145	0.977239	1.315971
Cl214	Cl	0.894095	0.476931	0.980095
Cl215	Cl	1.227428	0.810264	1.313428
Cl216	Cl	1.560762	1.143598	1.646761
Cl217	Cl	1.097895	0.289951	1.146443
Cl218	Cl	1.431228	0.623284	1.479776
Cl219	Cl	1.764561	0.956618	1.813110
H220	H	0.721937	0.300410	0.300591
H221	H	1.055270	0.633743	0.633925
H222	H	1.388603	0.967077	0.967258
Cl223	Cl	1.075400	0.648655	0.310522
Cl224	Cl	1.408733	0.981988	0.643856
Cl225	Cl	1.742066	1.315322	0.977189
H226	H	0.255336	0.324240	0.324369
H227	H	0.588669	0.657574	0.657703
H228	H	0.922002	0.990907	0.991036
Cl229	Cl	0.886802	1.145068	0.483691
Cl230	Cl	1.220135	1.478402	0.817025
Cl231	Cl	1.553469	1.811735	1.150358
H232	H	0.884338	0.485909	0.664795
H233	H	1.217671	0.819242	0.998128
H234	H	1.551005	1.152576	1.331462
H235	H	0.240863	0.494055	0.493666
H236	H	0.574196	0.827388	0.827000
H237	H	0.907529	1.160722	1.160333
H238	H	0.908204	0.463985	1.129457
H239	H	1.241537	0.797318	1.462790
H240	H	1.574870	1.130651	1.796124
H241	H	1.041956	0.341281	0.885255
H242	H	1.375289	0.674615	1.218589
H243	H	1.708622	1.007948	1.551922
Cl244	Cl	0.894109	0.979537	0.476933
Cl245	Cl	1.227442	1.312871	0.810267
Cl246	Cl	1.560775	1.646204	1.143600
H247	H	1.048150	0.335622	0.798503
H248	H	1.381483	0.668955	1.131836
H249	H	1.714816	1.002289	1.465170
Cl250	Cl	0.459725	0.314904	0.315044
Cl251	Cl	0.793058	0.648237	0.648377
Cl252	Cl	1.126392	0.981570	0.981711
H253	H	0.574904	0.464315	0.464006
H254	H	0.908237	0.797648	0.797339
H255	H	1.241571	1.130982	1.130672
Cl256	Cl	0.405844	0.310139	0.310310
Cl257	Cl	0.739178	0.643472	0.643643
Cl258	Cl	1.072511	0.976806	0.976977
Cl259	Cl	0.574952	0.273056	0.273324
Cl260	Cl	0.908285	0.606390	0.606657
Cl261	Cl	1.241618	0.939723	0.939991
H262	H	0.878424	0.797292	0.491213
H263	H	1.211757	1.130625	0.824546
H264	H	1.545091	1.463959	1.157880
H265	H	0.373433	0.499966	0.499552
H266	H	0.706767	0.833299	0.832885
H267	H	1.040100	1.166633	1.166219
Cl268	Cl	1.105224	0.283243	0.980913
Cl269	Cl	1.438557	0.616576	1.314247
Cl270	Cl	1.771890	0.949909	1.647580
Cl271	Cl	0.857021	0.510967	0.814004
Cl272	Cl	1.190355	0.844301	1.147337
Cl273	Cl	1.523688	1.177634	1.480670
H274	H	0.884283	0.664233	0.485768
H275	H	1.217617	0.997566	0.819101
H276	H	1.550950	1.330900	1.152434
Cl277	Cl	1.063380	0.868460	0.321685
Cl278	Cl	1.396714	1.201794	0.655018
Cl279	Cl	1.730047	1.535127	0.988351
H280	H	1.048113	0.797871	0.335631
H281	H	1.381447	1.131205	0.668964
H282	H	1.714780	1.464538	1.002298
Cl283	Cl	0.898841	0.925266	0.472555
Cl284	Cl	1.232175	1.258599	0.805889
Cl285	Cl	1.565508	1.591933	1.139222
