data_functionalizedCrystal
_audit_creation_method	'MofGen! by Chris Wilmer'
_symmetry_space_group_name_H-M	'P1'
_symmetry_Int_Tables_number	1
_symmetry_cell_setting	triclinic
loop_
_symmetry_equiv_pos_as_xyz
  x,y,z
_cell_length_a	27.732048
_cell_length_b	27.732048
_cell_length_c	13.596369
_cell_angle_alpha	90.000164
_cell_angle_beta	89.989067
_cell_angle_gamma	82.642655
loop_
_atom_site_label
_atom_site_type_symbol
_atom_site_fract_x
_atom_site_fract_y
_atom_site_fract_z
O1	O	0.057518	0.640928	-0.081675
O2	O	0.066263	0.500134	-0.081706
O3	O	-0.008506	0.574904	-0.081671
O4	O	0.132287	0.566158	-0.081710
O5	O	-0.008510	0.574896	0.081912
O6	O	0.066259	0.500127	0.081877
O7	O	0.057514	0.640920	0.081908
Zn8	Zn	0.061886	0.570522	0.107864
Zn9	Zn	0.061891	0.570532	-0.107663
O10	O	0.132283	0.566151	0.081872
C11	C	0.066078	0.482124	0.000081
C12	C	0.065525	0.428469	0.000070
C13	C	0.106229	0.089654	0.000101
C14	C	0.104178	-0.112006	0.000111
O15	O	0.141398	-0.143262	0.000143
N16	N	0.059843	-0.131130	0.000121
C17	C	0.016017	-0.099835	0.000136
O18	O	-0.021740	-0.120728	0.000156
C19	C	0.018068	0.101824	0.000134
C20	C	0.062407	0.120944	0.000113
C21	C	0.150563	0.108775	0.000082
C22	C	0.151075	0.159187	0.000074
C23	C	0.107253	0.190477	0.000086
C24	C	0.062919	0.171356	0.000106
C25	C	-0.025757	0.133117	0.000156
C26	C	-0.025240	0.183535	0.000158
C27	C	0.019098	0.202655	0.000137
C28	C	0.019609	0.253059	0.000110
N29	N	0.063944	0.272183	0.000099
C30	C	0.107766	0.240892	0.000087
C31	C	0.014943	-0.205709	0.000136
C32	C	0.014430	-0.256124	0.000134
C33	C	0.102591	-0.268291	0.000111
C34	C	0.103104	-0.217876	0.000105
C35	C	0.059278	-0.186585	0.000125
C36	C	0.108839	0.346761	0.000070
C37	C	0.109347	0.397178	0.000058
C38	C	0.021186	0.409341	0.000087
C39	C	0.020678	0.358929	0.000094
C40	C	0.064508	0.327639	0.000089
O41	O	-0.017592	0.284343	0.000089
O42	O	0.145518	0.261794	0.000090
C43	C	0.105716	0.039242	0.000109
C44	C	0.061382	0.020120	0.000129
C45	C	0.017560	0.051411	0.000141
C46	C	0.060869	-0.030294	0.000128
C47	C	0.104691	-0.061585	0.000116
C48	C	0.149026	-0.042461	0.000105
C49	C	0.149539	0.007951	0.000097
C50	C	-0.026775	0.032287	0.000151
C51	C	-0.027284	-0.018125	0.000158
C52	C	0.016538	-0.049416	0.000146
C53	C	-0.026515	0.574716	0.000123
C54	C	-0.080170	0.574164	0.000131
C55	C	-0.418985	0.614867	0.000090
C56	C	-0.620645	0.612816	0.000075
O57	O	-0.651900	0.650037	0.000041
N58	N	-0.639768	0.568481	0.000067
C59	C	-0.608474	0.524656	0.000055
O60	O	-0.629367	0.486899	0.000037
C61	C	-0.406815	0.526707	0.000062
C62	C	-0.387694	0.571045	0.000081
C63	C	-0.399864	0.659202	0.000107
C64	C	-0.349452	0.659714	0.000116
C65	C	-0.318161	0.615892	0.000107
C66	C	-0.337282	0.571557	0.000090
C67	C	-0.375521	0.482882	0.000043
C68	C	-0.325104	0.483399	0.000042
C69	C	-0.305983	0.527737	0.000061
C70	C	-0.255580	0.528247	0.000090
N71	N	-0.236456	0.572583	0.000099
C72	C	-0.267747	0.616405	0.000107
C73	C	-0.714348	0.523582	0.000053
C74	C	-0.764762	0.523069	0.000053
C75	C	-0.776930	0.611230	0.000072
C76	C	-0.726514	0.611742	0.000079
C77	C	-0.695224	0.567917	0.000062
C78	C	-0.161878	0.617477	0.000127
C79	C	-0.111461	0.617986	0.000140
C80	C	-0.099298	0.529825	0.000116
C81	C	-0.149710	0.529316	0.000108
C82	C	-0.180999	0.573147	0.000110
O83	O	-0.224296	0.491047	0.000113
O84	O	-0.246844	0.654156	0.000104
C85	C	-0.469397	0.614355	0.000081
C86	C	-0.488518	0.570021	0.000063
C87	C	-0.457228	0.526198	0.000054
C88	C	-0.538933	0.569508	0.000063
C89	C	-0.570223	0.613330	0.000072
C90	C	-0.551100	0.657665	0.000081
C91	C	-0.500688	0.658177	0.000090
C92	C	-0.476351	0.481863	0.000045
C93	C	-0.526764	0.481355	0.000037
C94	C	-0.558054	0.525177	0.000046
C95	C	0.150292	0.566338	0.000076
C96	C	0.203947	0.566891	0.000062
C97	C	0.057699	0.658931	0.000118
C98	C	0.058252	0.712586	0.000123
N99	N	0.061882	0.570519	0.254956
N100	N	0.061891	0.570539	-0.254755
C101	C	0.061892	0.570531	0.656247
C102	C	0.061891	0.570527	0.544596
C103	C	0.061887	0.570526	0.455605
C104	C	0.061886	0.570520	0.343947
H105	H	-0.060929	0.209009	0.000175
Br106	Br	-0.039496	0.332978	0.000125
H107	H	-0.073812	0.494146	0.000112
H108	H	-0.780325	0.486964	0.000055
Br109	Br	-0.552706	0.421176	0.000019
Br110	Br	-0.175661	0.469143	0.000105
H111	H	-0.187348	0.653168	0.000125
H112	H	0.138273	-0.293777	0.000101
H113	H	0.185643	0.023514	0.000082
Br114	Br	-0.433892	0.422384	0.000028
H115	H	0.186251	0.083302	0.000076
Br116	Br	0.208499	-0.084937	0.000082
H117	H	-0.014492	0.434827	0.000093
Br118	Br	0.211252	0.185128	0.000051
Br119	Br	-0.044540	-0.163250	0.000163
Br120	Br	-0.474746	0.718354	0.000109
H121	H	-0.333889	0.695819	0.000128
H122	H	-0.391080	0.446777	0.000022
Br123	Br	-0.085934	0.107181	0.000162
Br124	Br	-0.700570	0.671917	0.000106
Br125	Br	-0.593575	0.717137	0.000100
H126	H	-0.021674	-0.271687	0.000136
Br127	Br	-0.671889	0.464098	0.000028
H128	H	-0.062462	0.057760	0.000163
Br129	Br	-0.282641	0.423918	0.000015
H130	H	0.145454	0.412743	0.000041
H131	H	0.144530	0.321291	0.000069
Br132	Br	-0.819405	0.670702	0.000081
H133	H	0.139207	-0.202311	0.000094
H134	H	-0.063392	-0.033688	0.000167
Br135	Br	-0.085515	0.678163	0.000167
H136	H	-0.425336	0.694889	0.000111
