data_functionalizedCrystal
_audit_creation_method	'MofGen! by Chris Wilmer'
_symmetry_space_group_name_H-M	'P1'
_symmetry_Int_Tables_number	1
_symmetry_cell_setting	triclinic
loop_
_symmetry_equiv_pos_as_xyz
  x,y,z
_cell_length_a	6.817900
_cell_length_b	14.858572
_cell_length_c	13.167930
_cell_angle_alpha	99.382144
_cell_angle_beta	105.754568
_cell_angle_gamma	104.524003
loop_
_atom_site_label
_atom_site_type_symbol
_atom_site_fract_x
_atom_site_fract_y
_atom_site_fract_z
V1	V	-4.058282	-0.302870	-0.149602
O2	O	-4.024746	-0.283880	0.006492
O3	O	-4.029251	-0.313517	-0.295964
O4	O	-4.014656	-0.429159	-0.147606
O5	O	-4.039442	-0.167438	-0.142893
V6	V	-4.538782	-0.285126	-0.130895
O7	O	-4.326173	-0.341793	-0.190636
O8	O	-4.721089	-0.246204	-0.089860
O9	O	-4.344606	-0.274479	0.015468
O10	O	-4.689715	-0.304116	-0.286988
O11	O	-4.675019	-0.420559	-0.137603
O12	O	-4.359202	-0.158837	-0.132890
C13	C	-3.878809	-0.312021	-0.331635
C14	C	-3.936392	-0.321568	-0.451290
C15	C	-3.953186	-0.166473	-0.644996
C16	C	-4.007288	-0.175439	-0.757422
C17	C	-4.098711	-0.348465	-0.788571
C18	C	-4.044610	-0.339500	-0.676145
C19	C	-3.971844	-0.248500	-0.604361
C20	C	-3.917728	-0.239535	-0.491932
C21	C	-4.009166	-0.412561	-0.523084
C22	C	-4.063268	-0.421527	-0.635510
C23	C	-3.860191	-0.459533	-0.142388
C24	C	-3.905933	-0.562859	-0.141725
C25	C	-4.073352	-0.941218	-0.139302
C26	C	-4.026762	-0.835947	-0.139976
C27	C	-3.989644	-0.752042	-0.140515
C28	C	-3.943051	-0.646764	-0.141187
C29	C	-4.158391	-0.275973	0.051133
C30	C	-4.080047	-0.266432	0.170787
C31	C	-4.177009	-0.128459	-0.138112
C32	C	-4.110505	-0.025131	-0.138769
H33	H	-4.024349	-0.479353	-0.489987
H34	H	-3.858467	-0.165438	-0.433486
N35	N	-4.137550	-0.514481	-0.708823
N36	N	-4.154173	-0.587712	-0.672522
H37	H	-4.206623	-0.653363	-0.724297
H38	H	-3.893910	-0.092377	-0.586547
N39	N	-3.988236	-0.091641	-0.798913
N40	N	-3.923278	-0.010403	-0.734804
H41	H	-3.909826	0.048784	-0.764106
N42	N	-4.173083	-0.441405	-0.861922
N43	N	-4.221405	-0.449392	-0.962299
H44	H	-4.273938	-0.515032	-1.014106
