data_functionalizedCrystal
_audit_creation_method	'MofGen! by Chris Wilmer'
_symmetry_space_group_name_H-M	'P1'
_symmetry_Int_Tables_number	1
_symmetry_cell_setting	triclinic
loop_
_symmetry_equiv_pos_as_xyz
  x,y,z
_cell_length_a	6.817900
_cell_length_b	14.125469
_cell_length_c	16.255661
_cell_angle_alpha	95.870770
_cell_angle_beta	103.488922
_cell_angle_gamma	100.398878
loop_
_atom_site_label
_atom_site_type_symbol
_atom_site_fract_x
_atom_site_fract_y
_atom_site_fract_z
V1	V	-4.010936	-0.133890	-0.263542
O2	O	-4.014854	0.005634	-0.258862
O3	O	-3.947073	-0.264713	-0.261416
O4	O	-3.962699	-0.132182	-0.378630
O5	O	-3.999120	-0.127814	-0.140837
V6	V	-4.496546	-0.117160	-0.248905
O7	O	-4.267615	-0.170589	-0.295650
O8	O	-4.690064	-0.080461	-0.216797
O9	O	-4.337203	0.013662	-0.251031
O10	O	-4.610025	-0.256684	-0.253585
O11	O	-4.625759	-0.123236	-0.371610
O12	O	-4.321576	-0.118869	-0.133818
C13	C	-3.788307	-0.296593	-0.257175
C14	C	-3.817379	-0.403545	-0.256204
C15	C	-3.870675	-0.599365	-0.254439
C16	C	-4.056174	-0.651697	-0.258011
C17	C	-4.085830	-0.760658	-0.257029
C18	C	-3.841011	-0.490394	-0.255421
C19	C	-3.808239	-0.127536	-0.406692
C20	C	-3.849981	-0.127004	-0.500774
C21	C	-3.761285	-0.120657	-0.723608
C22	C	-3.908049	-0.202574	-0.792883
C23	C	-3.926483	-0.126008	-0.673025
C24	C	-3.854120	-0.043154	-0.771390
C25	C	-4.000365	-0.125041	-0.839411
C26	C	-4.072720	-0.207998	-0.741070
C27	C	-4.018737	-0.048505	-0.719561
C28	C	-4.165635	-0.130445	-0.788817
C29	C	-3.883916	-0.126566	-0.577175
C30	C	-4.042948	-0.124491	-0.935261
C31	C	-4.159310	0.045538	-0.255270
C32	C	-4.109476	0.152488	-0.256246
C33	C	-4.139379	-0.123518	-0.105751
C34	C	-4.076875	-0.124044	-0.011668
H35	H	-3.590007	-0.116625	-0.695138
H36	H	-3.734148	-0.636392	-0.250642
C37	C	-4.081234	0.039491	-0.676392
H38	H	-4.003027	0.097989	-0.686407
H39	H	-4.223978	0.036626	-0.699572
H40	H	-4.055196	0.038158	-0.616551
H41	H	-4.192711	-0.614668	-0.261806
H42	H	-4.164719	-0.277739	-0.727432
C43	C	-3.845444	-0.290561	-0.836024
H44	H	-3.702131	-0.287003	-0.813578
H45	H	-3.921739	-0.349044	-0.825113
H46	H	-3.873797	-0.289902	-0.895998
C47	C	-4.397148	-0.136064	-0.827107
H48	H	-4.474776	-0.194638	-0.816952
H49	H	-4.437070	-0.081883	-0.801016
H50	H	-4.422427	-0.135160	-0.886990
C51	C	-3.729816	0.050966	-0.789958
H52	H	-3.586577	0.054323	-0.767521
H53	H	-3.758388	0.050930	-0.850021
H54	H	-3.767765	0.105712	-0.763766
