data_functionalizedCrystal
_audit_creation_method	'MofGen! by Chris Wilmer'
_symmetry_space_group_name_H-M	'P1'
_symmetry_Int_Tables_number	1
_symmetry_cell_setting	triclinic
loop_
_symmetry_equiv_pos_as_xyz
  x,y,z
_cell_length_a	14.971486
_cell_length_b	10.489716
_cell_length_c	13.448316
_cell_angle_alpha	89.997460
_cell_angle_beta	89.998199
_cell_angle_gamma	84.071632
loop_
_atom_site_label
_atom_site_type_symbol
_atom_site_fract_x
_atom_site_fract_y
_atom_site_fract_z
O1	O	1.187883	0.166224	-0.082568
O2	O	1.687883	0.666224	0.417432
O3	O	0.927595	0.186130	-0.082594
O4	O	1.427595	0.686130	0.417406
O5	O	1.063673	-0.009491	-0.082584
O6	O	1.563673	0.490509	0.417416
O7	O	1.051805	0.361846	-0.082578
O8	O	1.551805	0.861846	0.417422
O9	O	1.063656	-0.009504	0.082800
O10	O	1.563656	0.490496	0.582800
O11	O	0.927578	0.186118	0.082789
O12	O	1.427578	0.686118	0.582789
O13	O	1.187866	0.166212	0.082815
O14	O	1.687866	0.666212	0.582815
Cu15	Cu	1.057720	0.176164	0.097903
Cu16	Cu	1.557720	0.676164	0.597903
Cu17	Cu	1.057741	0.176178	-0.097682
Cu18	Cu	1.557741	0.676178	0.402318
O19	O	1.051788	0.361834	0.082805
O20	O	1.551788	0.861834	0.582805
C21	C	0.894257	0.185234	0.000094
C22	C	1.394257	0.685234	0.500094
C23	C	0.794945	0.182566	0.000084
C24	C	1.294945	0.682566	0.500084
C25	C	0.738366	0.297488	0.000087
C26	C	1.238366	0.797488	0.500087
C27	C	0.645053	0.294974	0.000102
C28	C	1.145053	0.794974	0.500102
C29	C	0.608319	0.177536	0.000106
C30	C	1.108319	0.677536	0.500106
C31	C	0.664905	0.062605	0.000106
C32	C	1.164905	0.562605	0.500106
C33	C	0.758217	0.065121	0.000098
C34	C	1.258217	0.565121	0.500098
C35	C	0.470413	0.057370	0.000120
C36	C	0.970413	0.557370	0.500120
C37	C	0.377095	0.054854	0.000125
C38	C	0.877095	0.554854	0.500125
C39	C	0.357249	0.287223	0.000123
C40	C	0.857249	0.787223	0.500123
C41	C	0.450561	0.289739	0.000115
C42	C	0.950561	0.789739	0.500115
C43	C	0.507140	0.174807	0.000113
C44	C	1.007140	0.674807	0.500113
C45	C	1.062773	-0.057019	0.000104
C46	C	1.562773	0.442981	0.500104
C47	C	1.060105	-0.198619	0.000095
C48	C	1.560105	0.301381	0.500095
C49	C	1.143552	-0.297259	0.000113
C50	C	1.643552	0.202741	0.500113
C51	C	1.099465	-0.374104	-0.081432
C52	C	1.599465	0.125896	0.418568
C53	C	1.099429	-0.374079	0.081623
C54	C	1.599429	0.125921	0.581623
C55	C	1.016053	-0.273599	-0.081517
C56	C	1.516053	0.226401	0.418483
C57	C	1.016029	-0.273569	0.081612
C58	C	1.516029	0.226431	0.581612
C59	C	0.971880	-0.350364	0.000047
C60	C	1.471880	0.149636	0.500047
C61	C	1.221204	0.167108	0.000125
C62	C	1.721204	0.667108	0.500125
C63	C	1.320516	0.169776	0.000129
C64	C	1.820516	0.669776	0.500129
C65	C	1.052688	0.409361	0.000114
C66	C	1.552688	0.909361	0.500114
C67	C	1.055356	0.550961	0.000117
C68	C	1.555356	1.050961	0.500117
N69	N	1.057712	0.176153	0.235468
N70	N	1.557712	0.676153	0.735468
N71	N	1.057756	0.176179	-0.235246
N72	N	1.557756	0.676179	0.264754
C73	C	1.117987	0.089568	0.287512
C74	C	1.617987	0.589568	0.787512
C75	C	1.117992	0.089567	0.391616
C76	C	1.617992	0.589567	0.891616
C77	C	1.057727	0.176158	0.443672
C78	C	1.557727	0.676158	0.943672
C79	C	0.997446	0.262748	0.391620
C80	C	1.497446	0.762748	0.891620
C81	C	0.997437	0.262742	0.287519
C82	C	1.497437	0.762742	0.787519
C83	C	0.997471	0.262756	0.608600
C84	C	1.497471	0.762756	1.108600
C85	C	0.997481	0.262764	0.712709
C86	C	1.497481	0.762764	1.212709
C87	C	1.118026	0.089581	0.712697
C88	C	1.618026	0.589581	1.212697
C89	C	1.118017	0.089575	0.608596
C90	C	1.618017	0.589575	1.108596
C91	C	1.057737	0.176167	0.556551
C92	C	1.557737	0.676167	1.056551
H93	H	0.480466	0.385367	0.000102
H94	H	0.980466	0.885367	0.500102
Cl95	Cl	1.153829	-0.441832	0.188060
Cl96	Cl	1.653829	0.058168	0.688060
H97	H	1.167094	0.019072	0.566212
H98	H	1.667094	0.519072	1.066212
Cl99	Cl	0.859732	-0.386792	-0.000028
Cl100	Cl	1.359732	0.113208	0.499972
H101	H	0.598990	0.388555	0.000103
H102	H	1.098990	0.888555	0.500103
Cl103	Cl	0.618726	-0.085032	0.000118
Cl104	Cl	1.118726	0.414968	0.500118
H105	H	1.216137	-0.273423	0.000037
H106	H	1.716137	0.226577	0.500037
Cl107	Cl	1.193807	-0.019273	0.778128
Cl108	Cl	1.693807	0.480727	1.278128
H109	H	0.311177	0.380805	0.000129
H110	H	0.811177	0.880805	0.500129
Cl111	Cl	0.921656	0.371593	0.222092
Cl112	Cl	1.421656	0.871593	0.722092
H113	H	1.167072	0.019061	0.433990
H114	H	1.667072	0.519061	0.933990
Cl115	Cl	0.330917	-0.092784	0.000164
Cl116	Cl	0.830917	0.407216	0.500164
H117	H	1.134699	-0.418001	-0.150367
H118	H	1.634699	0.081999	0.349633
H119	H	0.804283	-0.028461	0.000095
H120	H	1.304283	0.471539	0.500095
Cl121	Cl	0.921713	0.371625	0.778143
Cl122	Cl	1.421713	0.871625	1.278143
Cl123	Cl	0.541540	-0.087118	0.000119
Cl124	Cl	1.041540	0.412882	0.500119
H125	H	0.980853	-0.229882	-0.150533
H126	H	1.480853	0.270118	0.349467
H127	H	0.948381	0.333264	0.566229
H128	H	1.448381	0.833264	1.066229
Cl129	Cl	1.193758	-0.019292	0.222081
Cl130	Cl	1.693758	0.480708	0.722081
H131	H	0.948372	0.333248	0.434011
H132	H	1.448372	0.833248	0.934011
Cl133	Cl	0.784535	0.445133	0.000075
Cl134	Cl	1.284535	0.945133	0.500075
Cl135	Cl	0.961697	-0.205724	0.188047
Cl136	Cl	1.461697	0.294276	0.688047
