data_functionalizedCrystal
_audit_creation_method	'MofGen! by Chris Wilmer'
_symmetry_space_group_name_H-M	'P1'
_symmetry_Int_Tables_number	1
_symmetry_cell_setting	triclinic
loop_
_symmetry_equiv_pos_as_xyz
  x,y,z
_cell_length_a	23.532407
_cell_length_b	14.971491
_cell_length_c	14.048226
_cell_angle_alpha	89.991693
_cell_angle_beta	89.988910
_cell_angle_gamma	83.232456
loop_
_atom_site_label
_atom_site_type_symbol
_atom_site_fract_x
_atom_site_fract_y
_atom_site_fract_z
O1	O	0.074230	1.186160	-0.079211
O2	O	0.083115	0.925667	-0.079206
O3	O	-0.004225	1.063768	-0.079191
O4	O	0.161571	1.048058	-0.079226
O5	O	-0.004231	1.063752	0.079130
O6	O	0.083110	0.925650	0.079116
O7	O	0.074225	1.186143	0.079110
Zn8	Zn	0.078667	1.055894	0.104250
Zn9	Zn	0.078673	1.055916	-0.104345
O10	O	0.161565	1.048042	0.079096
C11	C	0.082714	0.892338	-0.000044
C12	C	0.081522	0.793054	-0.000041
C13	C	0.076380	0.365411	-0.086363
C14	C	0.077499	0.458700	-0.086359
C15	C	0.078059	0.505331	-0.000055
C16	C	0.077495	0.458670	0.086251
C17	C	0.076372	0.365384	0.086247
C18	C	0.079836	0.653106	0.086254
C19	C	0.080960	0.746399	0.086259
C20	C	0.080963	0.746423	-0.086352
C21	C	0.079840	0.653137	-0.086356
C22	C	0.079277	0.606482	-0.000050
C23	C	-0.025446	1.063360	-0.000028
C24	C	-0.088668	1.062157	-0.000021
C25	C	-0.487452	1.136339	-0.000075
C26	C	-0.546857	1.135221	-0.000082
O27	O	-0.583307	1.203989	-0.000118
N28	N	-0.569836	1.053120	-0.000079
C29	C	-0.533406	0.972131	-0.000079
O30	O	-0.558406	0.902194	-0.000079
C31	C	-0.474003	0.973249	-0.000079
C32	C	-0.451027	1.055356	-0.000072
C33	C	-0.464477	1.218439	-0.000069
C34	C	-0.405076	1.219556	-0.000060
C35	C	-0.368650	1.138573	-0.000057
C36	C	-0.391626	1.056473	-0.000063
C37	C	-0.437574	0.892260	-0.000086
C38	C	-0.378167	0.893386	-0.000086
C39	C	-0.355191	0.975493	-0.000079
C40	C	-0.295800	0.976606	-0.000051
N41	N	-0.272822	1.058708	-0.000053
C42	C	-0.309247	1.139691	-0.000056
C43	C	-0.658159	0.969788	-0.000082
C44	C	-0.717562	0.968669	-0.000075
C45	C	-0.731009	1.131760	-0.000080
C46	C	-0.671605	1.132879	-0.000079
C47	C	-0.635180	1.051890	-0.000084
C48	C	-0.184500	1.142031	-0.000037
C49	C	-0.125093	1.143141	-0.000024
C50	C	-0.111651	0.980050	-0.000024
C51	C	-0.171053	0.978939	-0.000032
C52	C	-0.207476	1.059937	-0.000042
O53	O	-0.259316	0.907875	-0.000018
O54	O	-0.284238	1.209616	-0.000069
C55	C	0.182786	1.048450	-0.000070
C56	C	0.246008	1.049653	-0.000083
C57	C	0.074626	1.219472	-0.000054
C58	C	0.075818	1.318756	-0.000063
N59	N	0.078662	1.055886	0.246610
N60	N	0.078674	1.055931	-0.246706
C61	C	0.040003	1.117056	0.296435
C62	C	0.040003	1.117062	0.396093
C63	C	0.078664	1.055902	0.445924
C64	C	0.117324	0.994725	0.396093
C65	C	0.117321	0.994715	0.296437
C66	C	0.117328	0.994750	0.603807
C67	C	0.117332	0.994761	0.703470
C68	C	0.040010	1.117098	0.703463
C69	C	0.040007	1.117088	0.603807
C70	C	0.078668	1.055912	0.553982
H71	H	0.075928	0.327450	-0.156642
O72	O	0.079215	0.607898	0.170152
C73	C	0.030199	0.641236	0.222665
H74	H	0.014581	0.712497	0.198136
H75	H	-0.004944	0.596137	0.210710
C76	C	0.064405	0.554790	0.359437
C77	C	0.045227	0.642316	0.329316
H78	H	0.073674	0.555453	0.425226
H79	H	0.097428	0.532326	0.324058
H80	H	0.035117	0.517216	0.349467
H81	H	0.074518	0.679885	0.339276
H82	H	0.012210	0.664786	0.364700
O83	O	0.002317	1.176411	0.555551
C84	C	-0.054030	1.162277	0.580102
H85	H	-0.054307	1.090637	0.607451
H86	H	-0.070668	1.211926	0.638037
C87	C	-0.092393	1.264533	0.458124
C88	C	-0.092734	1.176540	0.491707
H89	H	-0.116268	1.273335	0.403600
H90	H	-0.054431	1.274058	0.441585
H91	H	-0.106257	1.305897	0.506411
H92	H	-0.078864	1.135178	0.443424
H93	H	-0.130695	1.167008	0.508235
O94	O	0.002473	1.176435	0.752004
C95	C	0.010771	1.163343	0.850648
H96	H	0.031978	1.092044	0.864270
H97	H	0.039390	1.213711	0.878907
C98	C	-0.073521	1.264888	0.885098
C99	C	-0.047478	1.177315	0.901829
H100	H	-0.109450	1.273510	0.916670
H101	H	-0.079110	1.273712	0.818640
H102	H	-0.049665	1.306851	0.908647
H103	H	-0.071330	1.135354	0.878269
H104	H	-0.041894	1.168484	0.968285
O105	O	0.154900	0.935251	0.751730
C106	C	0.189026	0.881258	0.686387
H107	H	0.165677	0.880461	0.615354
H108	H	0.231371	0.909897	0.675771
C109	C	0.229318	0.785649	0.812548
C110	C	0.200639	0.784664	0.725306
H111	H	0.236484	0.726066	0.836555
H112	H	0.206328	0.822027	0.856572
H113	H	0.264603	0.809519	0.803689
H114	H	0.165352	0.760805	0.734168
H115	H	0.223622	0.748279	0.681285
O116	O	0.154907	0.935448	0.555300
C117	C	0.190099	0.983029	0.497646
H118	H	0.167490	1.053218	0.482709
H119	H	0.232198	0.988733	0.536033
C120	C	0.229985	0.846280	0.421335
C121	C	0.202213	0.932484	0.402983
H122	H	0.237460	0.815100	0.362945
H123	H	0.206277	0.814222	0.460180
H124	H	0.265064	0.851045	0.453327
H125	H	0.167132	0.927718	0.371004
H126	H	0.225916	0.964540	0.364131
H127	H	-0.652903	1.199737	-0.000074
H128	H	-0.760677	1.197701	-0.000086
O129	O	0.154821	0.935188	0.444456
C130	C	0.145474	0.846732	0.420116
H131	H	0.099877	0.846704	0.392738
H132	H	0.177011	0.820169	0.362266
C133	C	0.210262	0.786060	0.542284
C134	C	0.154256	0.786026	0.508666
H135	H	0.215681	0.748612	0.596904
H136	H	0.216561	0.845654	0.558680
H137	H	0.236536	0.763926	0.494068
H138	H	0.127983	0.808170	0.556878
H139	H	0.147953	0.726434	0.492280
H140	H	0.148800	0.944903	0.255871
H141	H	0.077953	0.496683	-0.156633
H142	H	0.079388	0.615172	-0.156633
H143	H	0.081422	0.784414	-0.156626
H144	H	-0.106390	1.210005	-0.000015
H145	H	-0.736263	0.901809	-0.000065
H146	H	-0.494129	1.284389	-0.000074
O147	O	-0.622836	0.891051	-0.000199
C148	C	-0.633245	0.841188	-0.082204
H149	H	-0.678283	0.863574	-0.109546
H150	H	-0.600734	0.853115	-0.139620
C151	C	-0.572375	0.712870	-0.023708
C152	C	-0.627694	0.740361	-0.057285
H153	H	-0.568949	0.650675	-0.008339
H154	H	-0.565361	0.746465	0.031539
H155	H	-0.545289	0.722817	-0.071560
H156	H	-0.654778	0.730424	-0.009429
H157	H	-0.634713	0.706762	-0.112523
O158	O	0.081425	0.791817	0.170030
C159	C	0.032784	0.856334	0.175204
H160	H	0.016526	0.873836	0.100272
H161	H	-0.002163	0.827786	0.217801
C162	C	0.068787	0.920238	0.316566
C163	C	0.048822	0.941739	0.224533
H164	H	0.078679	0.972919	0.346998
H165	H	0.101557	0.876769	0.313083
H166	H	0.039661	0.896446	0.352052
H167	H	0.077950	0.965520	0.189045
H168	H	0.016058	0.985214	0.228011
O169	O	-0.193444	0.899241	-0.000158
C170	C	-0.227374	0.893715	-0.082176
H171	H	-0.242106	0.964351	-0.109515
H172	H	-0.201150	0.853911	-0.139585
C173	C	-0.261869	0.759276	-0.023706
C174	C	-0.279967	0.846032	-0.057280
H175	H	-0.294310	0.729859	-0.008351
H176	H	-0.239008	0.762996	0.031550
H177	H	-0.240015	0.726117	-0.071553
H178	H	-0.301814	0.879192	-0.009429
H179	H	-0.302833	0.842316	-0.112527
O180	O	-0.076238	0.901411	-0.000193
C181	C	-0.041455	0.897215	-0.082176
H182	H	-0.063172	0.943160	-0.139482
H183	H	0.001754	0.919978	-0.063634
C184	C	-0.005821	0.743389	-0.048983
C185	C	-0.032496	0.799813	-0.119370
H186	H	-0.000292	0.683306	-0.071925
H187	H	-0.029253	0.746216	0.006253
H188	H	0.030184	0.762369	-0.033538
H189	H	-0.068503	0.780840	-0.134806
H190	H	-0.009070	0.796980	-0.174610
H191	H	0.077947	0.496645	0.156521
O192	O	0.075725	0.320042	0.170054
C193	C	0.025798	0.276635	0.175217
H194	H	-0.008309	0.312146	0.126251
H195	H	0.036089	0.203549	0.152024
C196	C	0.045322	0.236362	0.338471
C197	C	0.003429	0.279982	0.278337
H198	H	0.031524	0.238423	0.402080
H199	H	0.078960	0.265603	0.334992
H200	H	0.053894	0.175462	0.319132
H201	H	-0.005137	0.340884	0.297669
H202	H	-0.030212	0.250752	0.281821
O203	O	-0.219795	1.220793	0.000000
C204	C	-0.186767	1.293487	-0.000016
H205	H	-0.142456	1.270361	0.029961
H206	H	-0.182503	1.318689	-0.075969
C207	C	-0.270728	1.398492	0.025256
C208	C	-0.216306	1.370090	0.062081
H209	H	-0.288950	1.445747	0.063557
H210	H	-0.292980	1.349518	0.025263
H211	H	-0.267168	1.419488	-0.038037
H212	H	-0.219868	1.349085	0.125369
H213	H	-0.194055	1.419063	0.062086
H214	H	-0.386375	1.286416	-0.000058
O215	O	-0.459854	0.812477	-0.000268
C216	C	-0.441215	0.763159	-0.082256
H217	H	-0.428820	0.811199	-0.139558
H218	H	-0.402536	0.712972	-0.063720
C219	C	-0.505073	0.653182	-0.049073
C220	C	-0.489853	0.712187	-0.119454
H221	H	-0.535074	0.621736	-0.072017
H222	H	-0.517629	0.686406	0.006167
H223	H	-0.472836	0.611368	-0.033632
H224	H	-0.522088	0.754006	-0.134885
H225	H	-0.477304	0.678969	-0.174698
O226	O	0.002358	1.176381	0.248097
C227	C	-0.054024	1.162340	0.272526
H228	H	-0.054362	1.090728	0.299926
H229	H	-0.070690	1.212051	0.330387
C230	C	-0.092230	1.264538	0.150386
C231	C	-0.092645	1.176581	0.184031
H232	H	-0.116054	1.273326	0.095800
H233	H	-0.054245	1.274001	0.133930
H234	H	-0.106116	1.305954	0.198612
H235	H	-0.078752	1.135167	0.135810
H236	H	-0.130629	1.167111	0.200478
H237	H	-0.348512	0.827433	-0.000091
H238	H	0.008524	1.166871	0.436659
