data_functionalizedCrystal
_audit_creation_method	'MofGen! by Chris Wilmer'
_symmetry_space_group_name_H-M	'P1'
_symmetry_Int_Tables_number	1
_symmetry_cell_setting	triclinic
loop_
_symmetry_equiv_pos_as_xyz
  x,y,z
_cell_length_a	19.077105
_cell_length_b	12.645330
_cell_length_c	19.076929
_cell_angle_alpha	92.273390
_cell_angle_beta	90.078300
_cell_angle_gamma	87.714233
loop_
_atom_site_label
_atom_site_type_symbol
_atom_site_fract_x
_atom_site_fract_y
_atom_site_fract_z
Zn1	Zn	1.058293	-0.512826	-0.440443
Zn2	Zn	1.062950	-0.683286	-0.322946
Zn3	Zn	0.945514	-0.498634	-0.318236
Zn4	Zn	0.940767	-0.682638	-0.435698
O5	O	1.001881	-0.594346	-0.379331
O6	O	1.157243	-0.541649	-0.428814
O7	O	1.051308	-0.653123	-0.223990
O8	O	0.960512	-0.352173	-0.334462
O9	O	1.160664	-0.666885	-0.342489
O10	O	1.043370	-0.362599	-0.424247
O11	O	0.965028	-0.517461	-0.220530
O12	O	0.846552	-0.516832	-0.329861
O13	O	0.952422	-0.665780	-0.534659
O14	O	0.843065	-0.652019	-0.416159
O15	O	1.038767	-0.541020	-0.538145
O16	O	1.046705	-0.831544	-0.337887
O17	O	0.956938	-0.831068	-0.420726
C18	C	0.819312	-0.582816	-0.371985
C19	C	0.741208	-0.577910	-0.368859
C20	C	0.702720	-0.646088	-0.412250
C21	C	0.629332	-0.641464	-0.409317
C22	C	0.594434	-0.568667	-0.362987
C23	C	0.632927	-0.500482	-0.319593
C24	C	0.706313	-0.505101	-0.322531
C25	C	0.375146	-0.547289	-0.349393
C26	C	0.301755	-0.542677	-0.346457
C27	C	0.298164	-0.683658	-0.436182
C28	C	0.371552	-0.688275	-0.439112
C29	C	0.410039	-0.620087	-0.395721
N30	N	0.519420	-0.563942	-0.359985
N31	N	0.485051	-0.624808	-0.398727
C32	C	1.001830	-0.869772	-0.379319
C33	C	1.001872	-0.987606	-0.379340
C34	C	0.945616	-1.154938	-0.431630
C35	C	0.945347	-1.032351	-0.431444
C36	C	0.984808	-1.026636	-0.304482
C37	C	0.984465	-1.149232	-0.304799
C38	C	1.075545	-1.160491	-0.401320
C39	C	1.075024	-1.037949	-0.402921
C40	C	1.185163	-0.605922	-0.386706
C41	C	1.263266	-0.610855	-0.389849
C42	C	0.994545	-0.604911	-0.562611
C43	C	0.991419	-0.609413	-0.640714
C44	C	1.001951	-0.317847	-0.379359
C45	C	1.001980	-0.200019	-0.379371
C46	C	0.969003	-0.641788	-1.080157
C47	C	0.971938	-0.637542	-1.006771
C48	C	1.018364	-0.570469	-0.971897
C49	C	1.061853	-0.507631	-1.010412
C50	C	1.058915	-0.511872	-1.083797
C51	C	1.031970	-0.550815	-0.752615
C52	C	1.034907	-0.546581	-0.679225
C53	C	0.944990	-0.676492	-0.675588
C54	C	0.942059	-0.680731	-0.748975
C55	C	0.985545	-0.617889	-0.787484
N56	N	1.021366	-0.566130	-0.896884
N57	N	0.982539	-0.622223	-0.862495
C58	C	1.009229	-0.583748	-0.196765
C59	C	1.012491	-0.578956	-0.118668
H60	H	0.604508	-0.441205	-0.281874
N61	N	1.037634	-0.988004	-0.251317
H62	H	1.073219	-0.944726	-0.275303
H63	H	1.012695	-0.942718	-0.213543
N64	N	0.416639	-0.473728	-0.302596
H65	H	0.405864	-0.486368	-0.251859
H66	H	0.468411	-0.487713	-0.311541
N67	N	1.096956	-1.206969	-0.472596
H68	H	1.103627	-1.147914	-0.505787
H69	H	1.142390	-1.250017	-0.468299
H70	H	1.023898	-1.178833	-0.264374
H71	H	0.399961	-0.747556	-0.476837
N72	N	0.914461	-0.980344	-0.279948
H73	H	0.893547	-0.934090	-0.317207
H74	H	0.882038	-1.039582	-0.271028
H75	H	0.266821	-0.739172	-0.471509
H76	H	1.087946	-1.012916	-0.458027
N77	N	0.918933	-0.714138	-1.117770
H78	H	0.891829	-0.753295	-1.082235
H79	H	0.885207	-0.670691	-1.146916
N80	N	1.133268	-0.998069	-0.356496
H81	H	1.112970	-0.946577	-0.319351
H82	H	1.157660	-1.059813	-0.333287
H83	H	0.890749	-0.998913	-0.416667
N84	N	1.111933	-0.435304	-0.972795
H85	H	1.100538	-0.359603	-0.985129
H86	H	1.107172	-0.442255	-0.920475
N87	N	0.898076	-0.744254	-0.634058
H88	H	0.908452	-0.821425	-0.647256
H89	H	0.906997	-0.731306	-0.582290
N90	N	0.925008	-0.705294	-0.965251
H91	H	0.935378	-0.782467	-0.978445
H92	H	0.933915	-0.692347	-0.913480
N93	N	0.747822	-0.431565	-0.275725
H94	H	0.779563	-0.474602	-0.244332
H95	H	0.777094	-0.386084	-0.305605
N96	N	1.084985	-0.474239	-0.641608
H97	H	1.112087	-0.435070	-0.677138
H98	H	1.057613	-0.421619	-0.610013
H99	H	1.094324	-0.460704	-1.115152
N100	N	0.891986	-0.753075	-0.786588
H101	H	0.864880	-0.792235	-0.751055
H102	H	0.858261	-0.709627	-0.815735
H103	H	0.731128	-0.705370	-0.449975
N104	N	0.959025	-0.997668	-0.504843
H105	H	0.965284	-1.062059	-0.537612
H106	H	0.917947	-0.951944	-0.520941
N107	N	1.131123	-1.199214	-0.350957
H108	H	1.178270	-1.173576	-0.365318
H109	H	1.119382	-1.170812	-0.301970
H110	H	0.955824	-1.188333	-0.487219
H111	H	0.597998	-0.696982	-0.444650
N112	N	0.873740	-1.190334	-0.412293
H113	H	0.877530	-1.235445	-0.369828
H114	H	0.841863	-1.126171	-0.401236
N115	N	1.078860	-0.483020	-0.794144
H116	H	1.108713	-0.439886	-0.760913
H117	H	1.110152	-0.529965	-0.825902
N118	N	0.913351	-1.181467	-0.280627
H119	H	0.876016	-1.153641	-0.313477
H120	H	0.912479	-1.261269	-0.280585
H121	H	0.273343	-0.483385	-0.308734
