data_functionalizedCrystal
_audit_creation_method	'MofGen! by Chris Wilmer'
_symmetry_space_group_name_H-M	'P1'
_symmetry_Int_Tables_number	1
_symmetry_cell_setting	triclinic
loop_
_symmetry_equiv_pos_as_xyz
  x,y,z
_cell_length_a	12.759393
_cell_length_b	12.759401
_cell_length_c	19.805404
_cell_angle_alpha	89.974804
_cell_angle_beta	89.965638
_cell_angle_gamma	90.021157
loop_
_atom_site_label
_atom_site_type_symbol
_atom_site_fract_x
_atom_site_fract_y
_atom_site_fract_z
Zn1	Zn	-0.593998	-1.606158	-0.269510
Zn2	Zn	-0.418306	-1.606003	-0.382713
Zn3	Zn	-0.418332	-1.430456	-0.269534
Zn4	Zn	-0.593943	-1.430403	-0.382654
O5	O	-0.506145	-1.518255	-0.326103
O6	O	-0.570704	-1.753158	-0.284541
O7	O	-0.271289	-1.582674	-0.367734
O8	O	-0.441669	-1.453851	-0.174814
O9	O	-0.441624	-1.753045	-0.367710
O10	O	-0.570730	-1.582938	-0.174796
O11	O	-0.271308	-1.453701	-0.284582
O12	O	-0.441615	-1.283428	-0.284525
O13	O	-0.740971	-1.453759	-0.367610
O14	O	-0.570636	-1.283389	-0.367634
O15	O	-0.741012	-1.582885	-0.284484
O16	O	-0.441571	-1.582622	-0.477421
O17	O	-0.570610	-1.453609	-0.477378
C18	C	-0.506123	-1.245288	-0.326076
C19	C	-0.506138	-1.128511	-0.326081
C20	C	-0.573458	-0.963972	-0.282862
C21	C	-0.573453	-1.073696	-0.282853
C22	C	-0.438831	-1.073596	-0.369326
C23	C	-0.438842	-0.963874	-0.369338
C24	C	-0.780178	-1.518334	-0.326038
C25	C	-0.896955	-1.518367	-0.326010
C26	C	-0.951840	-1.585608	-0.282719
C27	C	-1.061564	-1.585626	-0.282690
C28	C	-1.061509	-1.451159	-0.369248
C29	C	-0.951787	-1.451136	-0.369273
C30	C	-0.233177	-1.518237	-0.326118
C31	C	-0.116401	-1.518407	-0.325955
C32	C	-0.506104	-1.518121	-0.501959
C33	C	-0.506122	-1.518161	-0.577191
C34	C	-0.506161	-0.792288	-0.326120
C35	C	-0.506153	-0.909065	-0.326102
C36	C	-0.439101	-1.585690	-1.038982
C37	C	-0.439081	-1.585641	-0.968293
C38	C	-0.506200	-1.518393	-0.932952
C39	C	-0.573338	-1.451182	-0.968303
C40	C	-0.573352	-1.451227	-1.038991
C41	C	-0.573280	-1.450999	-0.683230
C42	C	-0.573263	-1.450962	-0.612538
C43	C	-0.439008	-1.585413	-0.612533
C44	C	-0.439023	-1.585458	-0.683220
C45	C	-0.506156	-1.518244	-0.718565
C46	C	-0.506176	-1.518297	-0.795213
C47	C	-0.506187	-1.518344	-0.856305
C48	C	-0.506208	-1.518417	-0.149560
C49	C	-0.506235	-1.518487	-0.074328
H50	H	-0.384034	-0.919168	-0.404552
O51	O	-0.638900	-0.910613	-0.240964
C52	C	-0.706671	-0.847180	-0.279561
H53	H	-0.669472	-0.830703	-0.330827
H54	H	-0.784503	-0.889501	-0.287056
C55	C	-0.771501	-0.763219	-0.179381
C56	C	-0.725808	-0.742974	-0.242345
H57	H	-0.783311	-0.698941	-0.156423
H58	H	-0.725846	-0.805957	-0.153377
H59	H	-0.836356	-0.798489	-0.185636
H60	H	-0.660949	-0.707717	-0.236089
H61	H	-0.771454	-0.700227	-0.268347
O62	O	-1.114716	-1.651046	-0.240617
C63	C	-1.042787	-1.710356	-0.202427
H64	H	-0.964566	-1.713950	-0.230172
H65	H	-1.031126	-1.671932	-0.151020
C66	C	-1.181705	-1.817776	-0.158600
C67	C	-1.085635	-1.822199	-0.192679
H68	H	-1.208136	-1.886765	-0.152583
H69	H	-1.230166	-1.777816	-0.184327
H70	H	-1.171975	-1.785752	-0.115763
H71	H	-1.095369	-1.854210	-0.235517
H72	H	-1.037176	-1.862167	-0.166959
H73	H	-0.907199	-1.640349	-0.247489
O74	O	-0.638976	-1.126916	-0.240882
C75	C	-0.743650	-1.100160	-0.255765
H76	H	-0.745760	-1.020484	-0.281794
H77	H	-0.778939	-1.161913	-0.290583
C78	C	-0.804877	-1.193004	-0.157859
C79	C	-0.807470	-1.095141	-0.189823
H80	H	-0.844247	-1.189913	-0.117184
H81	H	-0.734357	-1.211034	-0.147832
H82	H	-0.834283	-1.244455	-0.186881
H83	H	-0.778052	-1.043696	-0.160804
H84	H	-0.877987	-1.077103	-0.199843
H85	H	-1.106166	-1.396424	-0.404473
H86	H	-0.384027	-1.118236	-0.404525
O87	O	-0.898627	-1.385782	-0.411394
C88	C	-0.970548	-1.326436	-0.449566
H89	H	-1.048770	-1.369480	-0.451900
H90	H	-0.982213	-1.246669	-0.424769
C91	C	-0.831617	-1.258350	-0.518744
C92	C	-0.927688	-1.311221	-0.521615
H93	H	-0.805178	-1.248960	-0.563186
H94	H	-0.783161	-1.298329	-0.493025
H95	H	-0.841350	-1.191883	-0.498077
H96	H	-0.917951	-1.377691	-0.542275
H97	H	-0.976141	-1.271253	-0.547339
O98	O	-0.373840	-1.651029	-0.934063
C99	C	-0.314591	-1.710381	-0.980413
H100	H	-0.357640	-1.714020	-1.030779
H101	H	-0.234760	-1.671967	-0.987990
C102	C	-0.246687	-1.817724	-0.890913
C103	C	-0.299564	-1.822200	-0.952772
H104	H	-0.237413	-1.886698	-0.873862
H105	H	-0.286601	-1.777735	-0.859685
H106	H	-0.180167	-1.785707	-0.897235
H107	H	-0.366088	-1.854205	-0.946447
H108	H	-0.259661	-1.862198	-0.983998
H109	H	-0.384450	-1.640457	-1.067751
H110	H	-0.384371	-1.640222	-0.711991
O111	O	-0.638593	-1.385681	-0.717454
C112	C	-0.697813	-1.326304	-0.671100
H113	H	-0.701478	-1.369310	-0.620689
H114	H	-0.659264	-1.246529	-0.663640
C115	C	-0.805121	-1.258292	-0.760557
C116	C	-0.809630	-1.311118	-0.698643
H117	H	-0.874094	-1.248920	-0.777547
H118	H	-0.765222	-1.298292	-0.791787
H119	H	-0.772993	-1.191819	-0.754332
H120	H	-0.841746	-1.377595	-0.704870
H121	H	-0.849538	-1.271129	-0.667414
H122	H	-0.627922	-1.396196	-0.583765
O123	O	-0.373672	-1.650548	-0.578167
C124	C	-0.305764	-1.590746	-0.537333
H125	H	-0.299203	-1.508017	-0.558684
H126	H	-0.338229	-1.587075	-0.483746
C127	C	-0.204652	-1.743745	-0.510051
C128	C	-0.196586	-1.642138	-0.536278
H129	H	-0.137306	-1.775447	-0.509397
H130	H	-0.250404	-1.784036	-0.537559
H131	H	-0.231710	-1.740672	-0.465398
H132	H	-0.169541	-1.645214	-0.580933
H133	H	-0.150826	-1.601849	-0.508777
O134	O	-0.638688	-1.385915	-0.934047
C135	C	-0.743423	-1.408855	-0.951248
H136	H	-0.745642	-1.449265	-1.002552
H137	H	-0.778846	-1.462836	-0.911423
C138	C	-0.804255	-1.256773	-0.891523
C139	C	-0.806982	-1.306398	-0.954537
H140	H	-0.843464	-1.193574	-0.893548
H141	H	-0.733694	-1.241319	-0.879931
H142	H	-0.833773	-1.301768	-0.858341
H143	H	-0.777453	-1.261409	-0.987715
H144	H	-0.877540	-1.321842	-0.966134
H145	H	-0.628025	-1.396508	-1.067769
