data_functionalizedCrystal
_audit_creation_method	'MofGen! by Chris Wilmer'
_symmetry_space_group_name_H-M	'P1'
_symmetry_Int_Tables_number	1
_symmetry_cell_setting	triclinic
loop_
_symmetry_equiv_pos_as_xyz
  x,y,z
_cell_length_a	15.500227
_cell_length_b	14.971486
_cell_length_c	14.971486
_cell_angle_alpha	83.614129
_cell_angle_beta	92.831336
_cell_angle_gamma	87.157060
loop_
_atom_site_label
_atom_site_type_symbol
_atom_site_fract_x
_atom_site_fract_y
_atom_site_fract_z
O1	O	0.071845	-1.191095	-0.112420
O2	O	0.071868	-0.930696	-0.126378
O3	O	0.071850	-1.067875	0.010801
O4	O	0.071863	-1.053917	-0.249599
O5	O	-0.072038	-1.059550	0.002509
O6	O	-0.072019	-0.922372	-0.134670
O7	O	-0.072043	-1.182771	-0.120712
Cu8	Cu	-0.085169	-1.051811	-0.128448
Cu9	Cu	0.084995	-1.061656	-0.118642
O10	O	-0.072024	-1.045592	-0.257890
C11	C	-0.000073	-0.893210	-0.129899
C12	C	-0.000064	-0.793913	-0.128028
C13	C	-0.000094	-1.063088	0.039979
C14	C	-0.000093	-1.061218	0.139277
N15	N	-0.204853	-1.044894	-0.135344
C16	C	-0.250138	-1.103041	-0.077238
C17	C	-0.340710	-1.097818	-0.082462
C18	C	-0.385996	-1.034451	-0.145797
C19	C	-0.340705	-0.976297	-0.203905
C20	C	-0.250134	-0.981517	-0.198676
C21	C	-0.659460	-1.015647	-0.164618
C22	C	-0.750037	-1.010433	-0.169845
C23	C	-0.750036	-1.131953	-0.048400
C24	C	-0.659463	-1.137171	-0.043180
C25	C	-0.614180	-1.079015	-0.101285
C26	C	-0.478575	-1.029112	-0.151140
C27	C	-0.521603	-1.084350	-0.095937
N28	N	0.204679	-1.068581	-0.111739
C29	C	-0.000100	-1.220258	-0.117191
C30	C	-0.000103	-1.319555	-0.119061
C31	C	-0.000061	-0.736688	-0.208617
C32	C	-0.000074	-0.643388	-0.206855
C33	C	-0.000083	-0.607315	-0.124502
C34	C	-0.000089	-0.664547	-0.043907
C35	C	-0.000082	-0.757845	-0.045671
C36	C	-0.000101	-0.470084	-0.040237
C37	C	-0.000106	-0.376780	-0.038472
C38	C	-0.000093	-0.355627	-0.201421
C39	C	-0.000086	-0.448925	-0.203184
C40	C	-0.000090	-0.506151	-0.122589
C41	C	-0.000079	-1.050379	-0.287069
C42	C	-0.000074	-1.052250	-0.386366
C43	C	-0.000101	-1.141807	0.196501
C44	C	-0.000092	-1.140044	0.289801
C45	C	-0.000081	-1.057691	0.325874
C46	C	-0.000071	-0.977096	0.268642
C47	C	-0.000073	-0.978860	0.175344
C48	C	-0.000067	-0.973426	0.463105
C49	C	-0.000066	-0.971661	0.556409
C50	C	-0.000086	-1.134609	0.577562
C51	C	-0.000088	-1.136373	0.484264
C52	C	-0.000080	-1.055778	0.427038
H53	H	-0.213272	-1.154645	-0.025668
C54	C	-0.000059	-0.884773	0.400158
H55	H	-0.000061	-0.835472	0.435002
H56	H	0.050116	-0.884974	0.366209
H57	H	-0.050244	-0.879173	0.360438
C58	C	-0.000109	-1.228691	0.352745
H59	H	-0.000129	-1.277988	0.317898
H60	H	0.050067	-1.234302	0.392469
H61	H	-0.050293	-1.228479	0.386689
H62	H	-0.000109	-0.635169	0.023145
H63	H	-0.000115	-1.208867	0.167138
C64	C	-0.000091	-0.292682	-0.290074
H65	H	-0.000106	-0.231950	-0.277233
H66	H	0.050092	-0.306520	-0.320943
H67	H	-0.050268	-0.300733	-0.326733
H68	H	-0.213265	-0.934166	-0.245991
C69	C	-0.000094	-1.223265	0.640502
H70	H	-0.000112	-1.272562	0.605655
H71	H	0.050084	-1.228874	0.680225
H72	H	-0.050276	-1.223055	0.674448
C73	C	-0.000077	-0.820793	0.042978
H74	H	-0.000074	-0.785950	0.092278
H75	H	-0.050250	-0.854737	0.042788
H76	H	0.050110	-0.860520	0.048565
C77	C	-0.799848	-1.195911	0.015518
H78	H	-0.860275	-1.183725	0.003341
H79	H	-0.784996	-1.256471	0.006567
H80	H	-0.785014	-1.186982	0.076088
C81	C	-0.390519	-1.161789	-0.018554
H82	H	-0.350577	-1.200284	0.019905
H83	H	-0.425863	-1.127550	0.016700
H84	H	-0.425837	-1.197016	-0.052844
C85	C	-0.609655	-1.206870	0.026493
H86	H	-0.649597	-1.240748	0.060357
H87	H	-0.574311	-1.246171	-0.003703
H88	H	-0.574336	-1.176685	0.065822
C89	C	-0.000035	-0.881077	0.596090
H90	H	-0.000013	-0.833331	0.548648
H91	H	-0.050206	-0.874086	0.629161
H92	H	0.050154	-0.879925	0.634931
C93	C	-0.000064	-0.890215	0.112393
H94	H	-0.000058	-0.903060	0.051663
H95	H	-0.050235	-0.853543	0.120446
H96	H	0.050124	-0.859360	0.126228
H97	H	-0.786905	-0.958829	-0.221423
H98	H	-0.622598	-0.968295	-0.211932
H99	H	-0.377582	-0.924697	-0.255471
H100	H	-0.484728	-1.135940	-0.044367
C101	C	-0.528389	-0.959381	-0.220777
H102	H	-0.488451	-0.925481	-0.254626
H103	H	-0.563731	-0.989524	-0.260113
H104	H	-0.563709	-0.920092	-0.190534
H105	H	-0.000115	-0.347413	0.028586
C106	C	-0.000049	-0.776360	-0.299206
H107	H	-0.000057	-0.728912	-0.346949
H108	H	0.050130	-0.815210	-0.300392
H109	H	-0.050230	-0.809419	-0.306173
C110	C	-0.000068	-0.580444	-0.295503
H111	H	-0.000050	-0.615291	-0.344800
H112	H	-0.050248	-0.540715	-0.301098
H113	H	0.050112	-0.546503	-0.295306
C114	C	-0.000095	-0.533031	0.048417
H115	H	-0.000090	-0.498188	0.097718
H116	H	-0.050266	-0.566979	0.048233
H117	H	0.050094	-0.572755	0.054000
H118	H	-0.000070	-0.478292	-0.270243
H119	H	-0.000103	-1.203431	0.454897
H120	H	-0.000057	-0.910044	0.298020
