data_functionalizedCrystal
_audit_creation_method	'MofGen! by Chris Wilmer'
_symmetry_space_group_name_H-M	'P1'
_symmetry_Int_Tables_number	1
_symmetry_cell_setting	triclinic
loop_
_symmetry_equiv_pos_as_xyz
  x,y,z
_cell_length_a	27.440280
_cell_length_b	12.477989
_cell_length_c	27.440280
_cell_angle_alpha	90.004373
_cell_angle_beta	60.004644
_cell_angle_gamma	64.367929
loop_
_atom_site_label
_atom_site_type_symbol
_atom_site_fract_x
_atom_site_fract_y
_atom_site_fract_z
Zr1	Zr	0.525472	-0.132411	0.473501
O2	O	0.617564	-0.293708	0.400483
O3	O	0.426743	-0.082966	0.495876
O4	O	0.515892	-0.293683	0.502144
O5	O	0.538286	0.083228	0.389281
O6	O	0.515884	-0.293662	0.582346
O7	O	0.528415	-0.082991	0.394215
O8	O	0.356413	0.083272	0.571133
O9	O	0.697757	-0.293706	0.400494
O10	O	0.469803	-0.061861	0.565283
O11	O	0.477175	0.062171	0.501747
O12	O	0.582137	-0.185921	0.509127
O13	O	0.589509	-0.061890	0.445591
Zr14	Zr	0.541201	0.132724	0.593545
Zr15	Zr	0.525459	-0.132377	0.601414
Zr16	Zr	0.541214	0.132689	0.465631
Zr17	Zr	0.653370	-0.132408	0.473517
Zr18	Zr	0.413303	0.132721	0.593528
O19	O	0.639929	0.083279	0.571170
O20	O	0.617546	-0.293659	0.582360
O21	O	0.639947	0.083230	0.389294
O22	O	0.449108	0.294021	0.666562
O23	O	0.426725	-0.082918	0.677752
O24	O	0.449126	0.293972	0.484686
O25	O	0.528387	-0.082915	0.677765
O26	O	0.550780	0.293996	0.564901
O27	O	0.550788	0.293975	0.484699
O28	O	0.538257	0.083304	0.672831
O29	O	0.697747	-0.293679	0.502168
O30	O	0.368926	0.293992	0.564878
O31	O	0.368915	0.294019	0.666552
O32	O	0.356402	0.083300	0.672807
O33	O	0.710270	-0.082987	0.394238
O34	O	0.710259	-0.082959	0.495912
O35	O	0.484535	0.186234	0.557918
O36	O	0.477163	0.062203	0.621455
O37	O	0.589497	-0.061858	0.565299
O38	O	0.596869	0.062174	0.501762
C39	C	0.373355	0.000153	0.533502
C40	C	0.319059	0.000151	0.533495
C41	C	0.533352	0.000113	0.373523
C42	C	0.533358	0.000099	0.319220
C43	C	0.553027	0.331757	0.523679
C44	C	0.559710	0.444299	0.520338
C45	C	-0.021530	-0.064576	0.566704
C46	C	-0.072554	-0.064573	0.566710
O47	O	-0.102230	-0.119596	0.594933
N48	N	-0.094222	0.000168	0.533544
C49	C	-0.064867	0.064920	0.500375
O50	O	-0.087984	0.119988	0.472166
C51	C	-0.013848	0.064923	0.500374
C52	C	0.007822	0.000168	0.533537
C53	C	0.000140	-0.129325	0.599866
C54	C	0.051161	-0.129330	0.599859
C55	C	0.080512	-0.064586	0.566692
C56	C	0.058843	0.000163	0.533531
C57	C	0.015502	0.129681	0.467209
C58	C	0.066525	0.129680	0.467210
C59	C	0.088194	0.064924	0.500374
C60	C	0.139215	0.064902	0.500357
N61	N	0.160883	0.000161	0.533523
C62	C	0.131532	-0.064583	0.566690
C63	C	-0.172013	0.064910	0.500382
C64	C	-0.223029	0.064901	0.500380
C65	C	-0.230712	-0.064590	0.566716
C66	C	-0.179693	-0.064587	0.566714
C67	C	-0.150345	0.000170	0.533548
C68	C	0.238680	-0.064589	0.566674
C69	C	0.289708	-0.064593	0.566663
C70	C	0.297384	0.064903	0.500330
C71	C	0.246364	0.064902	0.500339
C72	C	0.217011	0.000153	0.533515
O73	O	0.168921	0.119901	0.472150
O74	O	0.154649	-0.119628	0.594901
C75	C	0.693317	0.000160	0.533543
C76	C	0.747613	0.000162	0.533550
C77	C	0.513645	-0.331444	0.543367
C78	C	0.506962	-0.443986	0.546708
C79	C	0.591985	-0.064601	0.055212
C80	C	0.591988	-0.064609	0.106230
O81	O	0.641858	-0.119651	0.107688
N82	N	0.533351	0.000140	0.161060
C83	C	0.474708	0.064912	0.164870
O84	O	0.424833	0.119986	0.216192
C85	C	0.474705	0.064926	0.113852
C86	C	0.533345	0.000162	0.059023
C87	C	0.650620	-0.129359	0.000385
C88	C	0.650616	-0.129353	-0.050630
C89	C	0.591977	-0.064589	-0.046818
C90	C	0.533342	0.000169	0.008008
C91	C	0.416063	0.129704	0.117663
C92	C	0.416066	0.129714	0.066638
C93	C	0.474706	0.064950	0.011809
C94	C	0.474699	0.064938	-0.039195
N95	N	0.533336	0.000189	-0.094025
C96	C	0.591975	-0.064575	-0.097837
C97	C	0.474717	0.064878	0.272010
C98	C	0.474718	0.064858	0.323028
C99	C	0.591999	-0.064662	0.264384
C100	C	0.591996	-0.064647	0.213366
C101	C	0.533354	0.000129	0.217180
C102	C	0.591963	-0.064557	-0.204970
C103	C	0.591953	-0.064550	-0.255986
C104	C	0.474673	0.064975	-0.197338
C105	C	0.474682	0.064962	-0.146326
C106	C	0.533332	0.000194	-0.150145
O107	O	0.424854	0.119956	-0.040698
O108	O	0.641842	-0.119627	-0.149161
C109	C	0.533320	0.000199	0.693523
C110	C	0.533314	0.000214	0.747825
C111	C	0.373339	0.000196	0.693502
C112	C	0.319038	0.000209	0.747798
C113	C	0.393046	0.331753	0.523659
C114	C	0.345433	0.444294	0.520311
C115	C	0.393030	0.331796	0.683658
C116	C	0.345411	0.444351	0.734613
C117	C	0.673642	-0.331483	0.383387
C118	C	0.721261	-0.444038	0.332433
C119	C	0.693333	0.000117	0.373543
C120	C	0.747635	0.000104	0.319248
C121	C	0.673626	-0.331440	0.543387
C122	C	0.721239	-0.443981	0.546735
C123	C	0.289694	-0.064556	0.743975
C124	C	0.238678	-0.064568	0.794987
C125	C	0.217003	0.000192	0.849822
C126	C	0.246351	0.064959	0.853643
C127	C	0.297369	0.064963	0.802632
C128	C	0.326916	0.561915	0.548059
C129	C	0.282186	0.667669	0.544911
C130	C	0.255971	0.655799	0.514017
C131	C	0.274492	0.538165	0.486265
C132	C	0.319225	0.432414	0.489411
C133	C	0.319201	0.432465	0.791713
C134	C	0.274464	0.538213	0.839595
C135	C	0.255936	0.655845	0.830377
C136	C	0.282151	0.667729	0.773271
C137	C	0.326890	0.561982	0.725390
C138	C	0.747478	-0.432152	0.275333
C139	C	0.792230	-0.537900	0.227451
C140	C	0.810761	-0.655532	0.236669
C141	C	0.784542	-0.667416	0.293774
C142	C	0.739795	-0.561669	0.341656
C143	C	0.776982	0.064858	0.323071
C144	C	0.828011	0.064841	0.272060
C145	C	0.849688	0.000077	0.217225
C146	C	0.820338	-0.064685	0.213404
C147	C	0.769313	-0.064675	0.264415
C148	C	0.747441	-0.432071	0.577633
C149	C	0.792172	-0.537805	0.580790
C150	C	0.810705	-0.655447	0.553045
C151	C	0.784498	-0.667354	0.522146
C152	C	0.739764	-0.561622	0.518993
H153	H	0.307350	-0.117328	0.593668
H154	H	0.090418	0.182411	0.440201
H155	H	0.891237	0.000078	0.175694
H156	H	0.219506	0.741941	0.869370
H157	H	0.745419	-0.117401	0.261294
H158	H	0.718435	-0.571336	0.493829
H159	H	0.851900	0.117582	0.275183
H160	H	0.456691	0.565560	0.571840
H161	H	0.732359	-0.336290	0.600227
H162	H	-0.148117	0.117636	0.473368
H163	H	0.759338	0.117605	0.367715
H164	H	-0.162053	-0.117315	0.593719
H165	H	0.837995	-0.117414	0.168751
H166	H	0.847198	-0.741628	0.197676
H167	H	0.609985	0.434754	0.495208
H168	H	0.639707	-0.117293	-0.300630
H169	H	0.813506	-0.528086	0.605951
H170	H	-0.254621	-0.117306	0.593723
H171	H	0.639722	-0.117284	-0.208089
H172	H	0.847131	-0.741532	0.555617
H173	H	0.698367	-0.182085	-0.095270
H174	H	0.639746	-0.117384	0.168725
H175	H	0.321255	0.117710	0.805752
H176	H	0.348256	0.571603	0.573216
H177	H	0.698374	-0.182095	-0.002729
H178	H	0.267112	0.763441	0.567512
H179	H	0.639746	-0.117394	0.261288
H180	H	0.214788	-0.117309	0.791864
H181	H	0.219547	0.741919	0.511461
H182	H	0.253141	0.528519	0.461112
H183	H	0.368311	0.182432	0.162299
H184	H	-0.240661	0.117615	0.473368
H185	H	0.799594	-0.763153	0.499557
H186	H	-0.002133	0.182413	0.440204
H187	H	0.334294	0.336645	0.466816
H188	H	0.267059	0.763519	0.765774
H189	H	0.368311	0.182466	0.069751
H190	H	0.307341	-0.117307	0.699331
H191	H	0.334279	0.336692	0.799230
H192	H	0.426967	0.117583	0.367669
H193	H	0.214786	-0.117311	0.593690
H194	H	0.799636	-0.763205	0.301273
H195	H	0.348225	0.571677	0.678898
H196	H	0.732392	-0.336380	0.267816
H197	H	0.718449	-0.571362	0.388148
H198	H	0.068799	-0.182054	0.626866
H199	H	0.175459	0.000180	0.891354
H200	H	0.253124	0.528515	0.886089
H201	H	-0.023756	-0.182045	0.626877
H202	H	0.321293	0.117612	0.473324
H203	H	0.228726	0.117614	0.473327
H204	H	0.426960	0.117622	0.275124
H205	H	0.426931	0.117701	-0.194245
H206	H	0.426933	0.117711	-0.101681
H207	H	0.228695	0.117684	0.898296
H208	H	0.813570	-0.528200	0.180957
