data_functionalizedCrystal
_audit_creation_method	'MofGen! by Chris Wilmer'
_symmetry_space_group_name_H-M	'P1'
_symmetry_Int_Tables_number	1
_symmetry_cell_setting	triclinic
loop_
_symmetry_equiv_pos_as_xyz
  x,y,z
_cell_length_a	31.640172
_cell_length_b	14.809374
_cell_length_c	14.809436
_cell_angle_alpha	60.797289
_cell_angle_beta	90.004390
_cell_angle_gamma	67.424801
loop_
_atom_site_label
_atom_site_type_symbol
_atom_site_fract_x
_atom_site_fract_y
_atom_site_fract_z
Zr1	Zr	0.466858	0.955105	-0.203543
O2	O	0.415083	1.113038	-0.350716
O3	O	0.475400	0.777336	-0.145463
O4	O	0.492690	0.926482	-0.331998
O5	O	0.392494	0.993388	-0.031784
O6	O	0.562245	0.926467	-0.331979
O7	O	0.397794	0.963892	-0.164181
O8	O	0.531317	0.659673	0.001699
O9	O	0.423421	1.260182	-0.365462
O10	O	0.539807	0.857791	-0.136340
O11	O	0.483944	0.879814	-0.037548
O12	O	0.504300	1.055414	-0.257169
O13	O	0.448436	1.077437	-0.158378
Zr14	Zr	0.569338	1.002124	0.007646
Zr15	Zr	0.577791	0.955082	-0.203511
Zr16	Zr	0.458405	1.002147	0.007615
Zr17	Zr	0.480157	1.189783	-0.227060
Zr18	Zr	0.556040	0.767445	0.031163
O19	O	0.560796	1.179893	-0.050433
O20	O	0.572815	1.113005	-0.350672
O21	O	0.403064	1.179926	-0.050478
O22	O	0.621113	0.844191	0.154820
O23	O	0.633132	0.777303	-0.145419
O24	O	0.463381	0.844224	0.154775
O25	O	0.643702	0.963841	-0.164112
O26	O	0.543507	1.030747	0.136102
O27	O	0.473952	1.030762	0.136082
O28	O	0.638402	0.993336	-0.031716
O29	O	0.511598	1.260164	-0.365437
O30	O	0.524598	0.697065	0.169540
O31	O	0.612775	0.697046	0.169565
O32	O	0.619494	0.659654	0.001723
O33	O	0.416703	1.297575	-0.197620
O34	O	0.504879	1.297556	-0.197595
O35	O	0.531897	0.901815	0.061273
O36	O	0.587760	0.879792	-0.037519
O37	O	0.552253	1.077415	-0.158348
O38	O	0.496389	1.099438	-0.059557
C39	C	0.501464	0.685068	-0.068532
C40	C	0.495818	0.585441	-0.058548
C41	C	0.521014	0.530099	-0.103104
C42	C	0.515179	0.427129	-0.092786
C43	C	0.379338	0.978643	-0.097987
C44	C	0.332245	0.978653	-0.098000
C45	C	0.058767	0.875450	-0.034855
C46	C	-0.118220	0.875432	-0.034834
O47	O	-0.125344	0.787708	0.018842
N48	N	-0.158884	0.978588	-0.097907
C49	C	-0.155301	1.081757	-0.160984
O50	O	-0.193950	1.169499	-0.214623
C51	C	0.021685	1.081775	-0.161000
C52	C	0.062349	0.978610	-0.097931
C53	C	0.099429	0.772294	0.028209
C54	C	0.143673	0.772298	0.028199
C55	C	0.147255	0.875459	-0.034876
C56	C	0.106593	0.978615	-0.097941
C57	C	0.025268	1.184944	-0.224071
C58	C	0.069519	1.184939	-0.224067
C59	C	0.110183	1.081775	-0.160998
C60	C	0.154419	1.081779	-0.161027
N61	N	0.195084	0.978623	-0.097954
C62	C	0.191502	0.875463	-0.034878
C63	C	-0.248220	1.081740	-0.160974
C64	C	-0.292466	1.081736	-0.160971
C65	C	-0.255382	0.875411	-0.034819
C66	C	-0.211135	0.875415	-0.034828
C67	C	-0.207555	0.978584	-0.097901
C68	C	0.284416	0.875480	-0.034906
C69	C	0.328663	0.875493	-0.034925
C70	C	0.291575	1.081818	-0.161073
C71	C	0.247332	1.081805	-0.161058
C72	C	0.243755	0.978627	-0.097966
O73	O	0.161579	1.169460	-0.214666
O74	O	0.230155	0.787738	0.018770
C75	C	0.014523	0.875445	-0.034845
C76	C	-0.026139	0.978601	-0.097910
C77	C	-0.022557	1.081762	-0.160985
C78	C	-0.070386	0.978597	-0.097908
C79	C	-0.073968	0.875436	-0.034832
C80	C	-0.033303	0.772280	0.028241
C81	C	0.010941	0.772285	0.028230
C82	C	-0.063221	1.184918	-0.224058
C83	C	-0.107464	1.184905	-0.224043
C84	C	-0.111046	1.081744	-0.160968
C85	C	0.656858	0.978585	-0.097909
C86	C	0.703952	0.978575	-0.097896
C87	C	0.528672	0.919772	-0.362074
C88	C	0.532260	0.899801	-0.451716
C89	C	0.534732	1.272161	-0.127365
C90	C	0.540378	1.371788	-0.137349
C91	C	0.519951	0.968299	-0.644275
C92	C	0.516243	0.988942	-0.551627
C93	C	0.507525	1.037457	0.166177
C94	C	0.503936	1.057427	0.255819
C95	C	0.640224	0.685039	-0.068493
C96	C	0.681672	0.585402	-0.058496
C97	C	0.490891	0.743910	0.195594
C98	C	0.481657	0.664254	0.295220
C99	C	0.629650	0.743881	0.195633
C100	C	0.667510	0.664215	0.295272
C101	C	0.406546	1.213348	-0.391530
C102	C	0.368686	1.293014	-0.491168
C103	C	0.395973	1.272190	-0.127404
C104	C	0.354524	1.371827	-0.137401
C105	C	0.545306	1.213318	-0.391491
C106	C	0.554540	1.292975	-0.491116
C107	C	0.676106	0.527125	-0.105393
C108	C	0.715048	0.433514	-0.096021
C109	C	0.759556	0.398176	-0.039745
C110	C	0.765121	0.456463	0.007154
C111	C	0.726180	0.550077	-0.002225
C112	C	0.502351	0.638333	0.393597
C113	C	0.493673	0.563502	0.487213
C114	C	0.464303	0.514587	0.482449
C115	C	0.443607	0.540515	0.384061
C116	C	0.452282	0.615351	0.290447
C117	C	0.714454	0.615307	0.290495
C118	C	0.750033	0.540463	0.384107
C119	C	0.738666	0.514522	0.482495
C120	C	0.691717	0.563439	0.487269
C121	C	0.656140	0.638288	0.393657
C122	C	0.321743	1.341933	-0.486393
C123	C	0.286166	1.416806	-0.580007
C124	C	0.297533	1.442752	-0.678396
C125	C	0.344481	1.393829	-0.683169
C126	C	0.380058	1.318964	-0.589556
C127	C	0.360091	1.430112	-0.090513
C128	C	0.321151	1.523743	-0.099911
C129	C	0.276644	1.559083	-0.156191
C130	C	0.271078	1.500793	-0.203085
C131	C	0.310018	1.407169	-0.193693
C132	C	0.583912	1.341867	-0.486318
C133	C	0.592597	1.416702	-0.579918
C134	C	0.571908	1.442650	-0.678315
C135	C	0.542534	1.393749	-0.683110
C136	C	0.533852	1.318909	-0.589511
H137	H	0.469930	0.556587	-0.012761
F138	F	0.623857	1.468740	-0.574792
H139	H	0.312478	1.320813	-0.406288
H140	H	0.566272	0.400630	-0.183132
F141	F	0.553775	0.780077	-0.429553
H142	H	-0.245312	1.165757	-0.212342
H143	H	0.419693	0.500678	0.380198
H144	H	0.176780	0.688290	0.079552
F145	F	0.581152	1.522307	-0.777924
F146	F	0.776536	0.434858	0.582117
H147	H	0.509933	1.279108	-0.593433
H148	H	0.234836	1.529582	-0.248908
H149	H	-0.178029	0.791411	0.016538
H150	H	0.294500	1.165808	-0.212431
H151	H	0.600761	1.320754	-0.406207
H152	H	0.361772	0.791481	0.016437
H153	H	0.499788	1.080537	-0.568577
H154	H	0.244941	1.635320	-0.163830
H155	H	0.044047	0.688278	0.079590
H156	H	0.510530	0.542401	0.567315
F157	F	0.455075	0.434940	0.582092
F158	F	0.304086	1.345140	-0.243595
H159	H	0.247941	1.456628	-0.576100
H160	H	0.435431	0.636443	0.210348
H161	H	0.487483	1.149016	-0.761124
F162	F	0.628742	0.564717	-0.165296
H163	H	0.525691	1.414888	-0.763238
F164	F	0.800997	0.298540	-0.029770
H165	H	0.682468	0.542307	0.567389
H166	H	-0.036227	0.688282	0.079593
F167	F	0.356572	1.421451	-0.787891
F168	F	0.554856	0.567802	-0.162946
F169	F	0.726563	0.642905	0.185792
F170	F	0.533612	0.690376	0.398691
F171	F	0.606178	0.690327	0.398758
F172	F	0.481339	0.389422	-0.032931
F173	F	0.407456	1.392521	-0.030613
H174	H	0.730718	0.597517	0.035972
F175	F	0.280616	0.765667	0.032243
F176	F	0.709115	0.371493	-0.145937
H177	H	0.801364	0.427677	0.052973
F178	F	0.799996	0.488410	0.379004
H179	H	0.214222	1.165807	-0.212427
H180	H	0.268560	1.503713	-0.754614
F181	F	0.095626	0.662487	0.095352
H182	H	-0.140572	1.268919	-0.275412
F183	F	-0.335739	1.191534	-0.228111
F184	F	-0.259202	0.765619	0.032310
H185	H	-0.007835	1.268952	-0.275427
F186	F	0.073324	1.294750	-0.291197
F187	F	-0.059417	1.294721	-0.291194
H188	H	0.418281	1.279132	-0.593457
F189	F	0.327084	1.585761	-0.049992
H190	H	0.536409	0.876710	-0.627332
