data_functionalizedCrystal
_audit_creation_method	'MofGen! by Chris Wilmer'
_symmetry_space_group_name_H-M	'P1'
_symmetry_Int_Tables_number	1
_symmetry_cell_setting	triclinic
loop_
_symmetry_equiv_pos_as_xyz
  x,y,z
_cell_length_a	8.597340
_cell_length_b	8.597304
_cell_length_c	7.088929
_cell_angle_alpha	103.972562
_cell_angle_beta	76.045281
_cell_angle_gamma	86.359595
loop_
_atom_site_label
_atom_site_type_symbol
_atom_site_fract_x
_atom_site_fract_y
_atom_site_fract_z
O1	O	2.101068	0.219206	-0.151022
O2	O	1.636350	0.245262	-0.070174
O3	O	1.881729	-0.000135	-0.151023
O4	O	1.855689	0.464604	-0.070173
O5	O	1.914522	-0.033004	-0.479815
O6	O	1.669143	0.212393	-0.398966
O7	O	2.133861	0.186337	-0.479814
Cu8	Cu	1.904496	0.196364	-0.469411
Cu9	Cu	1.865715	0.235236	-0.080576
O10	O	1.888482	0.431735	-0.398965
C11	C	1.593284	0.227861	-0.224933
C12	C	1.416107	0.224960	-0.196223
C13	C	1.897156	-0.076034	-0.325051
C14	C	1.894249	-0.253218	-0.353749
C15	C	2.176926	0.203740	-0.325050
C16	C	2.354102	0.206642	-0.353747
C17	C	1.873054	0.507634	-0.224932
C18	C	1.875960	0.684819	-0.196221
N19	N	1.931784	0.169023	-0.742899
N20	N	1.838439	0.262564	0.192907
H21	H	1.862522	-0.232677	-0.039386
O22	O	1.723217	0.378294	-0.671447
C23	C	1.796839	0.488464	-0.549659
H24	H	1.918691	0.427683	-0.549927
H25	H	1.715783	0.528306	-0.388915
H26	H	1.815575	0.598485	-0.611647
O27	O	1.452659	0.190373	-0.540800
C28	C	1.568251	0.052690	-0.592777
H29	H	1.583601	0.022588	-0.449733
H30	H	1.688834	0.078111	-0.681642
H31	H	1.525795	-0.053963	-0.688984
H32	H	1.333636	0.238425	-0.039379
O33	O	2.047120	0.053177	-0.878175
C34	C	2.016146	-0.099746	-0.849536
H35	H	1.939720	-0.084498	-0.689062
H36	H	2.135445	-0.177928	-0.875399
H37	H	1.948231	-0.160470	-0.960986
O38	O	1.910492	-0.351509	-0.541001
C39	C	2.060226	-0.340163	-0.669293
H40	H	2.103224	-0.220256	-0.607526
H41	H	2.045592	-0.346916	-0.826573
H42	H	2.152937	-0.444138	-0.677525
