data_functionalizedCrystal
_audit_creation_method	'MofGen! by Chris Wilmer'
_symmetry_space_group_name_H-M	'P1'
_symmetry_Int_Tables_number	1
_symmetry_cell_setting	triclinic
loop_
_symmetry_equiv_pos_as_xyz
  x,y,z
_cell_length_a	14.519709
_cell_length_b	11.026607
_cell_length_c	10.065875
_cell_angle_alpha	100.731764
_cell_angle_beta	81.242070
_cell_angle_gamma	96.133081
loop_
_atom_site_label
_atom_site_type_symbol
_atom_site_fract_x
_atom_site_fract_y
_atom_site_fract_z
O1	O	1.260605	0.141346	-0.113307
O2	O	1.593938	0.474680	0.220027
O3	O	1.927272	0.808013	0.553360
O4	O	0.995219	0.160080	-0.113348
O5	O	1.328553	0.493413	0.219986
O6	O	1.661886	0.826746	0.553319
O7	O	1.105917	-0.025988	-0.113326
O8	O	1.439250	0.307346	0.220008
O9	O	1.772583	0.640679	0.553341
O10	O	1.149907	0.327413	-0.113329
O11	O	1.483241	0.660747	0.220005
O12	O	1.816574	0.994080	0.553338
O13	O	1.084832	0.009635	0.113659
O14	O	1.418165	0.342969	0.446992
O15	O	1.751499	0.676302	0.780326
O16	O	0.974135	0.195703	0.113637
O17	O	1.307468	0.529036	0.446970
O18	O	1.640801	0.862369	0.780304
O19	O	1.239520	0.176969	0.113678
O20	O	1.572853	0.510303	0.447011
O21	O	1.906187	0.843636	0.780344
Zn22	Zn	1.103480	0.191992	0.149696
Zn23	Zn	1.436813	0.525325	0.483029
Zn24	Zn	1.770146	0.858659	0.816363
Zn25	Zn	1.131260	0.145057	-0.149366
Zn26	Zn	1.464593	0.478390	0.183967
Zn27	Zn	1.797926	0.811724	0.517301
O28	O	1.128823	0.363037	0.113656
O29	O	1.462156	0.696370	0.446989
O30	O	1.795489	1.029703	0.780322
C31	C	1.087259	-0.053405	0.000164
C32	C	1.420592	0.279928	0.333497
C33	C	1.753926	0.613262	0.666830
C34	C	1.063067	-0.188173	0.000155
C35	C	1.396401	0.145160	0.333488
C36	C	1.729734	0.478494	0.666822
C37	C	0.950174	0.177017	0.000139
C38	C	1.283507	0.510350	0.333473
C39	C	1.616840	0.843684	0.666806
C40	C	0.847363	0.174397	0.000123
C41	C	1.180696	0.507731	0.333457
C42	C	1.514029	0.841064	0.666790
C43	C	1.129866	-0.261832	0.000163
C44	C	1.463199	0.071501	0.333497
C45	C	1.796533	0.404834	0.666830
C46	C	1.104865	-0.401122	0.000155
C47	C	1.438198	-0.067789	0.333488
C48	C	1.771531	0.265544	0.666821
C49	C	0.470874	0.164772	0.000186
C50	C	0.804207	0.498106	0.333519
C51	C	1.137540	0.831439	0.666852
C52	C	0.575624	0.167445	0.000168
C53	C	0.908957	0.500778	0.333501
C54	C	1.242291	0.834112	0.666835
C55	C	0.659115	0.169584	0.000153
C56	C	0.992448	0.502918	0.333487
C57	C	1.325782	0.836251	0.666820
C58	C	0.763872	0.172258	0.000138
C59	C	1.097205	0.505592	0.333471
C60	C	1.430539	0.838925	0.666805
C61	C	1.284566	0.160032	0.000188
C62	C	1.617899	0.493365	0.333521
C63	C	1.951233	0.826698	0.666854
C64	C	1.387378	0.162650	0.000195
C65	C	1.720711	0.495983	0.333528
C66	C	2.054044	0.829316	0.666861
C67	C	1.147480	0.390453	0.000163
C68	C	1.480814	0.723787	0.333497
C69	C	1.814147	1.057120	0.666830
C70	C	1.171673	0.525220	0.000163
C71	C	1.505006	0.858553	0.333496
C72	C	1.838340	1.191887	0.666830
N73	N	1.084527	0.224023	0.353798
N74	N	1.417860	0.557356	0.687131
N75	N	1.751194	0.890690	1.020465
N76	N	1.150218	0.113016	-0.353468
N77	N	1.483551	0.446350	-0.020134
N78	N	1.816885	0.779683	0.313199
C79	C	1.124658	0.156194	0.421585
C80	C	1.457992	0.489527	0.754918
C81	C	1.791325	0.822861	1.088251
C82	C	1.110081	0.180855	0.578749
C83	C	1.443414	0.514189	0.912082
C84	C	1.776747	0.847522	1.245416
H85	H	1.205564	-0.221773	0.000184
H86	H	1.538897	0.111560	0.333517
H87	H	1.872230	0.444893	0.666850
F88	F	1.209425	0.013444	0.570321
F89	F	1.542758	0.346777	0.903655
F90	F	1.876092	0.680111	1.236988
F91	F	0.964123	-0.240526	0.000127
F92	F	1.297456	0.092807	0.333461
F93	F	1.630790	0.426141	0.666794
F94	F	1.005915	-0.453470	0.000127
F95	F	1.339249	-0.120136	0.333460
F96	F	1.672582	0.213197	0.666794
F97	F	1.025505	0.323787	0.430017
F98	F	1.358839	0.657120	0.763351
F99	F	1.692172	0.990453	1.096684
F100	F	1.051056	0.280624	0.654963
F101	F	1.384390	0.613957	0.988296
F102	F	1.717723	0.947290	1.321630
F103	F	1.270625	-0.422438	0.000172
F104	F	1.603958	-0.089105	0.333505
F105	F	1.937291	0.244228	0.666839
H106	H	1.169805	0.079860	0.363269
H107	H	1.503138	0.413194	0.696603
H108	H	1.836472	0.746527	1.029936
