data_functionalizedCrystal
_audit_creation_method	'MofGen! by Chris Wilmer'
_symmetry_space_group_name_H-M	'P1'
_symmetry_Int_Tables_number	1
_symmetry_cell_setting	triclinic
loop_
_symmetry_equiv_pos_as_xyz
  x,y,z
_cell_length_a	14.519710
_cell_length_b	15.538191
_cell_length_c	14.185569
_cell_angle_alpha	82.127072
_cell_angle_beta	76.819884
_cell_angle_gamma	114.523881
loop_
_atom_site_label
_atom_site_type_symbol
_atom_site_fract_x
_atom_site_fract_y
_atom_site_fract_z
O1	O	1.154314	-0.144716	0.083386
O2	O	0.880946	-0.159251	0.083392
O3	O	1.070842	-0.014945	0.083392
O4	O	0.964418	-0.289023	0.083385
O5	O	1.126937	0.027680	-0.083442
O6	O	0.937041	-0.116626	-0.083443
O7	O	1.210409	-0.102091	-0.083449
Cu8	Cu	1.078847	-0.105467	-0.098679
Cu9	Cu	1.012508	-0.155876	0.098622
O10	O	1.020513	-0.246398	-0.083449
C11	C	0.874862	-0.137262	-0.000025
C12	C	0.773162	-0.135233	-0.000022
C13	C	1.216493	-0.124081	-0.000030
C14	C	1.318190	-0.126112	-0.000026
C15	C	1.690572	-0.133584	-0.000026
C16	C	1.586962	-0.131509	-0.000025
C17	C	1.504384	-0.129849	-0.000025
C18	C	1.400768	-0.127773	-0.000027
C19	C	1.110023	0.041444	-0.000022
C20	C	1.143187	0.145959	-0.000012
C21	C	0.981331	-0.302787	-0.000033
C22	C	0.948165	-0.407304	-0.000036
N23	N	1.125513	-0.070012	-0.237450
C24	C	0.813684	0.434308	-0.000027
C25	C	0.844874	0.532522	-0.000030
C26	C	1.020305	0.554671	-0.000033
C27	C	0.989129	0.456455	-0.000025
C28	C	0.885817	0.396282	-0.000023
C29	C	1.061262	0.418429	-0.000022
C30	C	1.030089	0.320223	-0.000019
C31	C	0.926783	0.260044	-0.000020
C32	C	0.854644	0.298076	-0.000021
C33	C	1.164575	0.478606	-0.000031
C34	C	1.236708	0.440579	-0.000027
C35	C	1.205533	0.342370	-0.000018
C36	C	1.102227	0.282191	-0.000019
C37	C	1.277672	0.304338	-0.000017
C38	C	1.246499	0.206133	-0.000014
C39	C	1.071054	0.183986	-0.000016
C40	C	0.828760	-0.295450	-0.605101
C41	C	0.864113	-0.268600	-0.710122
C42	C	1.032275	-0.140864	-0.710083
C43	C	0.996934	-0.167701	-0.605059
C44	C	0.895176	-0.244995	-0.552576
C45	C	1.063350	-0.117246	-0.552535
C46	C	1.028013	-0.144084	-0.447520
C47	C	0.926260	-0.221378	-0.395030
C48	C	0.859839	-0.271834	-0.447562
C49	C	1.165110	-0.039956	-0.605019
C50	C	1.231526	0.010499	-0.552495
C51	C	1.196187	-0.016335	-0.447479
C52	C	1.094434	-0.093628	-0.394989
C53	C	1.262608	0.034121	-0.394947
C54	C	1.227271	0.007283	-0.289932
C55	C	1.059097	-0.120467	-0.289974
N56	N	0.965852	-0.191324	0.237393
H57	H	0.986925	0.134986	-0.000007
O58	O	1.120728	0.613130	-0.000208
C59	C	1.195535	0.617920	-0.086594
H60	H	1.155953	0.599874	-0.146991
H61	H	1.265581	0.694934	-0.115594
H62	H	1.225563	0.562827	-0.067051
O63	O	1.194752	0.573951	0.000149
C64	C	1.127986	0.578613	0.086546
H65	H	1.091264	0.506785	0.146936
H66	H	1.176891	0.641672	0.115549
H67	H	1.061818	0.591153	0.067019
O68	O	0.799432	-0.317683	-0.760990
C69	C	0.702053	-0.391672	-0.692144
H70	H	0.688751	-0.372204	-0.617280
H71	H	0.633871	-0.398101	-0.722501
H72	H	0.704795	-0.464537	-0.680979
O73	O	1.337005	0.499157	0.000016
C74	C	1.349064	0.593999	-0.000015
H75	H	1.267313	0.589829	0.031565
H76	H	1.400646	0.626021	0.048422
H77	H	1.388984	0.642836	-0.080056
O78	O	1.361497	0.109201	-0.445779
C79	C	1.412529	0.148001	-0.376899
H80	H	1.375465	0.090271	-0.302043
H81	H	1.501133	0.169956	-0.407223
H82	H	1.402256	0.215151	-0.365734
H83	H	0.786131	0.563482	-0.000047
O84	O	0.754357	0.239554	-0.000147
C85	C	0.760123	0.204177	-0.086563
H86	H	0.841303	0.206443	-0.115376
H87	H	0.694545	0.125467	-0.067126
H88	H	0.749183	0.252013	-0.147064
H89	H	1.314380	0.073431	-0.595238
H90	H	1.361792	0.353348	-0.000028
O91	O	1.316680	0.169329	0.000044
C92	C	1.414555	0.243503	0.000023
H93	H	1.400444	0.302197	0.031601
H94	H	1.450604	0.210495	0.048467
H95	H	1.471761	0.277793	-0.080014
O96	O	0.960309	-0.195667	-0.239026
C97	C	0.952702	-0.282341	-0.264705
H98	H	1.036029	-0.275601	-0.293563
H99	H	0.903052	-0.347211	-0.195645
H100	H	0.912875	-0.294299	-0.325669
H101	H	0.776973	-0.334768	-0.404829
O102	O	1.199506	-0.013708	-0.707031
C103	C	1.222486	0.084665	-0.742111
H104	H	1.239574	0.124620	-0.681581
H105	H	1.295325	0.121790	-0.812351
H106	H	1.151146	0.087134	-0.760767
O107	O	0.891780	-0.247605	-0.293019
C108	C	0.787716	-0.326628	-0.257963
H109	H	0.773238	-0.367205	-0.318491
H110	H	0.778545	-0.378947	-0.187703
H111	H	0.727218	-0.297632	-0.239346
O112	O	0.729983	-0.370598	-0.553997
C113	C	0.739443	-0.444331	-0.493263
H114	H	0.818808	-0.411027	-0.477520
H115	H	0.671157	-0.477998	-0.419423
H116	H	0.736014	-0.503591	-0.533733
H117	H	1.281355	0.048368	-0.247167
H118	H	0.901405	0.180081	-0.000024
H119	H	1.115129	-0.077932	-0.752826
H120	H	0.729555	0.385309	-0.000018
