data_functionalizedCrystal
_audit_creation_method	'MofGen! by Chris Wilmer'
_symmetry_space_group_name_H-M	'P1'
_symmetry_Int_Tables_number	1
_symmetry_cell_setting	triclinic
loop_
_symmetry_equiv_pos_as_xyz
  x,y,z
_cell_length_a	8.559649
_cell_length_b	13.330367
_cell_length_c	8.559649
_cell_angle_alpha	90.003345
_cell_angle_beta	110.221336
_cell_angle_gamma	89.992063
loop_
_atom_site_label
_atom_site_type_symbol
_atom_site_fract_x
_atom_site_fract_y
_atom_site_fract_z
O1	O	-2.126889	0.083424	-0.055037
O2	O	-1.651404	0.083424	0.028744
O3	O	-1.931037	0.083423	-0.250889
O4	O	-1.847256	0.083425	0.224596
O5	O	-1.931002	-0.083424	-0.250890
O6	O	-1.651369	-0.083423	0.028743
O7	O	-2.126853	-0.083423	-0.055038
Cu8	Cu	-1.889108	-0.098657	-0.013148
Cu9	Cu	-1.889150	0.098659	-0.013146
O10	O	-1.847220	-0.083422	0.224595
C11	C	-1.591077	0.000001	0.035093
C12	C	-1.411378	0.000001	0.053992
N13	N	-1.889090	-0.237439	-0.013151
C14	C	-1.765329	-0.710061	0.110632
C15	C	-2.013016	-0.710030	-0.136943
C16	C	-2.012998	-0.605012	-0.136946
C17	C	-1.889145	-0.552513	-0.013156
C18	C	-1.765310	-0.605033	0.110636
C19	C	-2.136841	-0.552484	-0.260726
C20	C	-2.136829	-0.447459	-0.260733
C21	C	-2.012968	-0.394959	-0.136949
C22	C	-1.889127	-0.447485	-0.013152
C23	C	-1.765274	-0.394987	0.110638
C24	C	-1.641424	-0.447511	0.234429
C25	C	-1.641449	-0.552533	0.234421
C26	C	-2.012943	-0.289937	-0.136941
C27	C	-1.765255	-0.289959	0.110642
C28	C	-1.187180	0.000001	-0.061387
C29	C	-1.366879	0.000001	-0.080286
C30	C	-1.937369	0.000002	-0.311198
C31	C	-1.956268	0.000007	-0.490898
N32	N	-1.889182	0.237440	-0.013157
C33	C	-1.840889	0.000002	0.284904
C34	C	-1.821990	0.000003	0.464604
H35	H	-1.466258	0.000006	-0.209705
Br36	Br	-1.245737	0.000015	0.269719
Br37	Br	-2.304901	-0.376182	-0.428730
Br38	Br	-2.181024	-0.218660	-0.304917
H39	H	-1.664393	-0.247221	0.211442
H40	H	-2.085696	-0.000001	-0.590286
Br41	Br	-1.473357	-0.376252	0.402437
H42	H	-2.113860	-0.752778	-0.237723
H43	H	-1.540616	-0.595304	0.335208
H44	H	-1.692570	0.000000	-0.436018
Br45	Br	-1.597244	-0.781337	0.278620
Br46	Br	-2.304935	-0.623728	-0.428709
