data_functionalizedCrystal
_audit_creation_method	'MofGen! by Chris Wilmer'
_symmetry_space_group_name_H-M	'P1'
_symmetry_Int_Tables_number	1
_symmetry_cell_setting	triclinic
loop_
_symmetry_equiv_pos_as_xyz
  x,y,z
_cell_length_a	10.489746
_cell_length_b	13.930277
_cell_length_c	14.853567
_cell_angle_alpha	89.999243
_cell_angle_beta	84.088116
_cell_angle_gamma	89.995709
loop_
_atom_site_label
_atom_site_type_symbol
_atom_site_fract_x
_atom_site_fract_y
_atom_site_fract_z
O1	O	1.692627	-0.079757	0.127217
O2	O	1.321298	-0.079773	0.139151
O3	O	1.516881	-0.079768	0.002010
O4	O	1.497044	-0.079763	0.264358
O5	O	1.516854	0.079894	0.002007
O6	O	1.321271	0.079889	0.139148
O7	O	1.692600	0.079904	0.127214
Zn8	Zn	1.506931	0.105247	0.133180
Zn9	Zn	1.506967	-0.105115	0.133184
O10	O	1.497017	0.079899	0.264355
C11	C	1.273763	0.000056	0.138247
C12	C	1.132164	0.000050	0.135548
C13	C	0.980304	0.000062	0.046691
C14	C	1.057186	0.078782	0.091114
C15	C	1.057168	-0.078633	0.091138
C16	C	0.956750	0.078858	0.175206
C17	C	0.956727	-0.078627	0.175217
C18	C	1.033559	0.000112	0.219703
C19	C	1.515969	0.000061	-0.031585
C20	C	1.513275	0.000052	-0.131684
C21	C	1.740135	0.000073	0.128118
C22	C	1.881734	0.000073	0.130817
N23	N	1.506916	0.248813	0.133177
N24	N	1.506992	-0.248681	0.133181
C25	C	1.420359	0.701080	0.193887
C26	C	1.593610	0.701054	0.072476
C27	C	1.593595	0.600558	0.072473
C28	C	1.506962	0.550318	0.133178
C29	C	1.420344	0.600575	0.193887
C30	C	1.680219	0.550294	0.011771
C31	C	1.680209	0.449792	0.011767
C32	C	1.593569	0.399551	0.072469
C33	C	1.506946	0.449813	0.133179
C34	C	1.420314	0.399574	0.193885
C35	C	1.333684	0.449834	0.254592
C36	C	1.333704	0.550333	0.254589
C37	C	1.593549	0.299052	0.072471
C38	C	1.420298	0.299069	0.193886
C39	C	1.385709	0.000065	-0.544935
C40	C	1.618066	0.000075	-0.564910
C41	C	1.620599	0.000069	-0.470862
C42	C	1.505684	0.000063	-0.413846
C43	C	1.388238	0.000062	-0.450878
C44	C	1.738043	0.000079	-0.433823
C45	C	1.740581	0.000075	-0.339770
C46	C	1.625665	0.000062	-0.282752
C47	C	1.508214	0.000060	-0.319789
C48	C	1.393300	0.000054	-0.262773
C49	C	1.275847	0.000046	-0.299809
C50	C	1.273322	0.000050	-0.393860
C51	C	1.628189	0.000058	-0.188700
C52	C	1.395829	0.000052	-0.168716
C53	C	1.497929	0.000069	0.297950
C54	C	1.500623	0.000071	0.398049
H55	H	1.101021	-0.145186	0.055609
H56	H	1.177698	0.000044	-0.424023
Br57	Br	0.940464	0.000185	-0.075231
H58	H	1.831600	0.000093	-0.480252
H59	H	0.913061	0.145487	0.210694
H60	H	1.057214	0.000157	0.292909
H61	H	1.711623	0.000087	-0.611338
H62	H	1.263175	0.591262	0.304016
H63	H	1.750759	0.591202	-0.037649
Br64	Br	1.130290	0.189710	0.031925
Br65	Br	1.797770	0.381587	-0.070619
Br66	Br	0.883573	-0.189557	0.234361
Br67	Br	1.302787	0.769283	0.276266
H68	H	1.664087	0.258134	0.023049
H69	H	1.349746	0.258170	0.243317
H70	H	1.263153	0.408918	0.304023
Br71	Br	1.899976	0.000072	-0.289515
Br72	Br	1.787575	0.000093	-0.138440
H73	H	1.664150	0.741962	0.023055
Br74	Br	1.239865	0.000032	-0.091344
Br75	Br	1.119898	0.000050	-0.222419
Br76	Br	1.226316	0.000040	-0.595193
