data_functionalizedCrystal
_audit_creation_method	'MofGen! by Chris Wilmer'
_symmetry_space_group_name_H-M	'P1'
_symmetry_Int_Tables_number	1
_symmetry_cell_setting	triclinic
loop_
_symmetry_equiv_pos_as_xyz
  x,y,z
_cell_length_a	10.489711
_cell_length_b	8.965430
_cell_length_c	9.065218
_cell_angle_alpha	90.002272
_cell_angle_beta	95.228553
_cell_angle_gamma	90.005384
loop_
_atom_site_label
_atom_site_type_symbol
_atom_site_fract_x
_atom_site_fract_y
_atom_site_fract_z
O1	O	1.694826	0.124087	-0.207947
O2	O	1.323697	0.124077	-0.227533
O3	O	1.516933	0.124079	-0.003060
O4	O	1.501590	0.124085	-0.432421
O5	O	1.516916	-0.124000	-0.003075
O6	O	1.323680	-0.124002	-0.227548
O7	O	1.694810	-0.123992	-0.207962
Cu8	Cu	1.509244	-0.146648	-0.217756
Cu9	Cu	1.509263	0.146734	-0.217739
O10	O	1.501574	-0.123994	-0.432435
C11	C	1.276151	0.000037	-0.226070
C12	C	1.134504	0.000033	-0.221673
C13	C	0.952605	0.000052	-0.356664
C14	C	1.044515	0.122365	-0.289227
C15	C	1.044472	-0.122221	-0.289205
C16	C	0.974048	0.122479	-0.146326
C17	C	0.973995	-0.122217	-0.146324
C18	C	1.065877	0.000125	-0.078783
N19	N	1.509239	-0.352997	-0.217768
C20	C	1.419846	-0.450304	-0.321545
C21	C	1.535452	-0.549715	-0.351386
C22	C	1.393682	-0.549715	-0.187940
C23	C	1.624904	-0.450219	-0.247676
C24	C	1.483058	-0.450210	-0.084172
C25	C	1.598747	-0.549576	-0.113956
C26	C	1.742356	0.000052	-0.209425
C27	C	1.884003	0.000065	-0.213822
C28	C	1.515450	0.000042	0.051912
C29	C	1.511041	0.000049	0.215733
N30	N	1.509277	0.353083	-0.217716
C31	C	1.503057	0.000046	-0.487407
C32	C	1.507466	0.000049	-0.651228
H33	H	0.943028	0.226006	-0.085937
C34	C	1.345654	-0.441670	-0.579907
C35	C	1.317895	-0.391437	-0.440120
H36	H	1.282721	-0.405316	-0.653110
H37	H	1.345476	-0.547604	-0.581294
H38	H	1.427585	-0.406135	-0.600129
H39	H	1.235967	-0.426982	-0.419893
H40	H	1.318059	-0.285481	-0.438730
C41	C	1.168271	-0.558580	-0.262741
C42	C	1.261738	-0.608703	-0.153892
H43	H	1.086813	-0.594986	-0.241721
H44	H	1.187493	-0.594124	-0.356901
H45	H	1.167106	-0.452634	-0.263402
H46	H	1.262910	-0.714650	-0.153238
H47	H	1.242511	-0.573167	-0.059707
C48	C	1.821804	-0.557569	-0.027019
C49	C	1.700927	-0.608070	0.004550
H50	H	1.884886	-0.593693	0.046133
H51	H	1.822805	-0.451633	-0.026938
H52	H	1.839705	-0.593156	-0.121655
H53	H	1.683022	-0.572473	0.099182
H54	H	1.699924	-0.714028	0.004484
C55	C	0.979032	0.347377	-0.418371
C56	C	1.086725	0.261854	-0.370927
H57	H	1.005107	0.433451	-0.468858
H58	H	0.936446	0.376937	-0.335026
H59	H	0.922518	0.289747	-0.483427
H60	H	1.143235	0.319481	-0.305862
H61	H	1.129332	0.232296	-0.454283
H62	H	1.557623	-0.593421	-0.464342
C63	C	1.049234	-0.389837	-0.297417
C64	C	1.086549	-0.261824	-0.370822
H65	H	1.075215	-0.476014	-0.347808
H66	H	0.958811	-0.390344	-0.295954
H67	H	1.088388	-0.389978	-0.198708
H68	H	1.047387	-0.261678	-0.469528
H69	H	1.176990	-0.261318	-0.372301
C70	C	1.743202	-0.304677	-0.410827
C71	C	1.756874	-0.391535	-0.281988
H72	H	1.824671	-0.268470	-0.432042
H73	H	1.688109	-0.222881	-0.396565
H74	H	1.707571	-0.363785	-0.491257
H75	H	1.792496	-0.332424	-0.201555
H76	H	1.811987	-0.473342	-0.296240
C77	C	0.753150	-0.001100	-0.509324
C78	C	0.886079	0.000207	-0.515147
H79	H	0.712081	-0.001009	-0.607163
H80	H	0.728037	0.084910	-0.458076
H81	H	0.729180	-0.088105	-0.458804
H82	H	0.910050	0.087218	-0.565658
H83	H	0.911202	-0.085811	-0.566417
C84	C	1.342501	-0.303021	0.051728
C85	C	1.453083	-0.391140	0.068264
H86	H	1.323992	-0.266545	0.145835
H87	H	1.272678	-0.361343	0.010036
H88	H	1.355848	-0.221396	-0.011884
H89	H	1.439733	-0.472772	0.131867
H90	H	1.522922	-0.332816	0.109977
C91	C	1.209435	0.127131	0.100712
C92	C	1.132095	0.000207	0.079844
H93	H	1.250320	0.127178	0.198638
H94	H	1.158066	0.214026	0.085933
H95	H	1.272384	0.126250	0.031730
H96	H	1.069139	0.001094	0.148820
H97	H	1.183467	-0.086711	0.094639
C98	C	0.870223	-0.218489	0.059042
C99	C	0.931242	-0.261804	-0.065211
H100	H	0.843669	-0.304671	0.108991
H101	H	0.797635	-0.159084	0.028391
H102	H	0.927995	-0.162354	0.124025
H103	H	0.873467	-0.317930	-0.130200
H104	H	1.003840	-0.321234	-0.034562
