data_functionalizedCrystal
_audit_creation_method	'MofGen! by Chris Wilmer'
_symmetry_space_group_name_H-M	'P1'
_symmetry_Int_Tables_number	1
_symmetry_cell_setting	triclinic
loop_
_symmetry_equiv_pos_as_xyz
  x,y,z
_cell_length_a	13.339070
_cell_length_b	11.792241
_cell_length_c	12.376457
_cell_angle_alpha	101.354533
_cell_angle_beta	75.589755
_cell_angle_gamma	99.911355
loop_
_atom_site_label
_atom_site_type_symbol
_atom_site_fract_x
_atom_site_fract_y
_atom_site_fract_z
O1	O	1.364732	0.554298	-0.094048
O2	O	1.069793	0.479486	-0.094041
O3	O	1.224419	0.353927	-0.094037
O4	O	1.210107	0.679857	-0.094053
O5	O	1.185776	0.385262	0.093974
O6	O	1.031151	0.510821	0.093970
O7	O	1.326090	0.585633	0.093963
Zn8	Zn	1.172485	0.553202	0.123817
Zn9	Zn	1.223398	0.511917	-0.123896
O10	O	1.171464	0.711191	0.093958
C11	C	1.012713	0.482516	-0.000035
C12	C	0.900204	0.444848	-0.000032
C13	C	0.537024	0.737736	-0.000064
C14	C	0.642733	0.773131	-0.000070
C15	C	0.707105	0.691063	-0.000060
C16	C	0.665760	0.573595	-0.000045
C17	C	0.560044	0.538195	-0.000047
C18	C	0.730125	0.491522	-0.000044
C19	C	0.688780	0.374054	-0.000028
C20	C	0.583073	0.338661	-0.000030
C21	C	0.518700	0.420728	-0.000040
C22	C	0.835841	0.526922	-0.000041
C23	C	0.858861	0.327381	-0.000025
C24	C	0.753152	0.291986	-0.000018
C25	C	1.204198	0.327027	-0.000032
C26	C	1.201507	0.200184	-0.000033
C27	C	1.196562	-0.032056	-0.000052
C28	C	1.199310	0.097178	-0.000042
C29	C	1.383170	0.582602	-0.000046
C30	C	1.495681	0.620269	-0.000057
C31	C	1.191685	0.738092	-0.000049
C32	C	1.194378	0.864933	-0.000056
N33	N	1.137745	0.581379	0.292874
N34	N	1.258146	0.483733	-0.292953
C35	C	1.338788	0.418302	0.647865
C36	C	1.363097	0.398579	0.529526
C37	C	1.306760	0.444277	0.470357
C38	C	1.226112	0.509702	0.529539
C39	C	1.201806	0.529435	0.647890
C40	C	1.169779	0.555410	0.470382
C41	C	1.089130	0.620835	0.529564
C42	C	1.064828	0.640564	0.647903
C43	C	1.121164	0.594866	0.707072
C44	C	1.194085	0.535677	0.352031
C45	C	1.057103	0.646810	0.352056
C46	C	1.032794	0.666533	0.470396
H47	H	0.911274	0.260553	-0.000021
H48	H	0.967129	0.719805	0.518596
H49	H	1.384655	0.381108	0.696048
H50	H	1.428760	0.345312	0.481344
O51	O	0.986423	0.703976	0.705517
C52	C	0.909505	0.634765	0.773970
H53	H	0.945742	0.561494	0.791699
H54	H	0.876639	0.691037	0.857189
H55	H	0.843935	0.595802	0.728378
O56	O	0.474340	0.817303	-0.000026
C57	C	0.372181	0.760861	-0.000059
H58	H	0.360323	0.676219	0.035543
H59	H	0.313426	0.820218	0.054516
H60	H	0.360183	0.740507	-0.090260
H61	H	0.432622	0.391916	-0.000035
O62	O	1.002447	0.691082	0.294418
C63	C	1.041208	0.659661	0.177275
H64	H	1.081906	0.578523	0.161112
H65	H	0.973774	0.640601	0.132311
H66	H	1.099286	0.734447	0.143676
O67	O	0.809774	0.725326	0.000090
C68	C	0.831379	0.698689	0.097487
H69	H	0.770506	0.625449	0.129956
H70	H	0.912261	0.669671	0.075598
H71	H	0.828840	0.779405	0.165662
O72	O	1.097542	0.614236	0.822030
C73	C	1.110629	0.735244	0.861562
H74	H	1.104238	0.784311	0.793365
H75	H	1.047482	0.756880	0.940742
H76	H	1.190747	0.762393	0.882548
H77	H	0.549416	0.243008	-0.000030
O78	O	0.712994	0.177899	0.000187
C79	C	0.725832	0.142069	0.097548
H80	H	0.734169	0.221516	0.165604
H81	H	0.654812	0.078987	0.130233
H82	H	0.798893	0.096732	0.075537
O83	O	0.682714	0.887285	-0.000029
C84	C	0.603238	0.952126	-0.000064
H85	H	0.523941	0.903579	0.035532
H86	H	0.614510	1.041229	0.054515
H87	H	0.606997	0.964004	-0.090265
H88	H	1.259749	0.482408	0.303856
O89	O	1.330471	0.424960	0.355403
C90	C	1.413749	0.357439	0.315855
H91	H	1.417056	0.306666	0.384057
H92	H	1.401236	0.293803	0.236694
H93	H	1.490292	0.417245	0.294832
H94	H	0.869493	0.622565	-0.000049
