data_functionalizedCrystal
_audit_creation_method	'MofGen! by Chris Wilmer'
_symmetry_space_group_name_H-M	'P1'
_symmetry_Int_Tables_number	1
_symmetry_cell_setting	triclinic
loop_
_symmetry_equiv_pos_as_xyz
  x,y,z
_cell_length_a	19.077442
_cell_length_b	19.077367
_cell_length_c	19.076919
_cell_angle_alpha	85.521998
_cell_angle_beta	90.066548
_cell_angle_gamma	89.883403
loop_
_atom_site_label
_atom_site_type_symbol
_atom_site_fract_x
_atom_site_fract_y
_atom_site_fract_z
Zn1	Zn	-0.251017	-1.072176	-0.344928
Zn2	Zn	-0.001017	-0.822176	-0.094928
Zn3	Zn	0.248983	-0.572176	0.155072
Zn4	Zn	0.498983	-0.322176	0.405072
Zn5	Zn	-0.363414	-1.081533	-0.222349
Zn6	Zn	-0.113414	-0.831533	0.027651
Zn7	Zn	0.136586	-0.581533	0.277651
Zn8	Zn	0.386586	-0.331533	0.527651
Zn9	Zn	-0.251034	-0.959032	-0.231779
Zn10	Zn	-0.001034	-0.709032	0.018221
Zn11	Zn	0.248966	-0.459032	0.268221
Zn12	Zn	0.498966	-0.209032	0.518221
Zn13	Zn	-0.373189	-0.959371	-0.344505
Zn14	Zn	-0.123189	-0.709371	-0.094505
Zn15	Zn	0.126811	-0.459371	0.155495
Zn16	Zn	0.376811	-0.209371	0.405495
O17	O	-0.309664	-1.018028	-0.285890
O18	O	-0.059664	-0.768028	-0.035890
O19	O	0.190336	-0.518028	0.214110
O20	O	0.440336	-0.268028	0.464110
O21	O	-0.261829	-1.171894	-0.324898
O22	O	-0.011829	-0.921894	-0.074898
O23	O	0.238171	-0.671894	0.175102
O24	O	0.488171	-0.421894	0.425102
O25	O	-0.344423	-1.069057	-0.125123
O26	O	-0.094423	-0.819057	0.124877
O27	O	0.155577	-0.569057	0.374877
O28	O	0.405577	-0.319057	0.624877
O29	O	-0.152871	-0.969983	-0.250912
O30	O	0.097129	-0.719983	-0.000912
O31	O	0.347129	-0.469983	0.249088
O32	O	0.597129	-0.219983	0.499088
O33	O	-0.344406	-1.178769	-0.234840
O34	O	-0.094406	-0.928769	0.015160
O35	O	0.155594	-0.678769	0.265160
O36	O	0.405594	-0.428769	0.515160
O37	O	-0.152859	-1.053110	-0.334042
O38	O	0.097141	-0.803110	-0.084042
O39	O	0.347141	-0.553110	0.165958
O40	O	0.597141	-0.303110	0.415958
O41	O	-0.261858	-0.979056	-0.132051
O42	O	-0.011858	-0.729056	0.117949
O43	O	0.238142	-0.479056	0.367949
O44	O	0.488142	-0.229056	0.617949
O45	O	-0.271336	-0.860600	-0.250502
O46	O	-0.021336	-0.610600	-0.000502
O47	O	0.228664	-0.360600	0.249498
O48	O	0.478664	-0.110600	0.499498
O49	O	-0.361067	-0.970560	-0.443038
O50	O	-0.111067	-0.720560	-0.193038
O51	O	0.138933	-0.470560	0.056962
O52	O	0.388933	-0.220560	0.306962
O53	O	-0.361083	-0.860849	-0.333321
O54	O	-0.111083	-0.610849	-0.083321
O55	O	0.138917	-0.360849	0.166679
O56	O	0.388917	-0.110849	0.416679
O57	O	-0.271307	-1.053438	-0.443348
O58	O	-0.021307	-0.803438	-0.193348
O59	O	0.228693	-0.553438	0.056652
O60	O	0.478693	-0.303438	0.306652
O61	O	-0.462871	-1.069386	-0.234430
O62	O	-0.212871	-0.819386	0.015570
O63	O	0.037129	-0.569386	0.265570
O64	O	0.287129	-0.319386	0.515570
O65	O	-0.470053	-0.979633	-0.324178
O66	O	-0.220053	-0.729633	-0.074178
O67	O	0.029947	-0.479633	0.175822
O68	O	0.279947	-0.229633	0.425822
C69	C	-0.317273	-0.835191	-0.292889
C70	C	-0.067273	-0.585191	-0.042889
C71	C	0.182727	-0.335191	0.207111
C72	C	0.432727	-0.085191	0.457111
C73	C	-0.320546	-0.756972	-0.295899
C74	C	-0.070546	-0.506972	-0.045899
C75	C	0.179454	-0.256972	0.204101
C76	C	0.429454	-0.006972	0.454101
C77	C	-0.275293	-0.720069	-0.254271
C78	C	-0.025293	-0.470069	-0.004271
C79	C	0.224707	-0.220069	0.245729
C80	C	0.474707	0.029931	0.495729
C81	C	-0.278374	-0.646575	-0.257098
C82	C	-0.028374	-0.396575	-0.007098
C83	C	0.221626	-0.146575	0.242902
C84	C	0.471626	0.103425	0.492902
C85	C	-0.326705	-0.609984	-0.301559
C86	C	-0.076705	-0.359984	-0.051559
C87	C	0.173295	-0.109984	0.198441
C88	C	0.423295	0.140016	0.448441
C89	C	-0.371964	-0.646893	-0.343190
C90	C	-0.121964	-0.396893	-0.093190
C91	C	0.128036	-0.146893	0.156810
C92	C	0.378036	0.103107	0.406810
C93	C	-0.368885	-0.720386	-0.340358
C94	C	-0.118885	-0.470386	-0.090358
C95	C	0.131115	-0.220386	0.159642
C96	C	0.381115	0.029614	0.409642
C97	C	-0.340933	-0.390200	-0.314642
C98	C	-0.090933	-0.140200	-0.064642
C99	C	0.159067	0.109800	0.185358
C100	C	0.409067	0.359800	0.435358
C101	C	-0.344007	-0.316701	-0.317472
C102	C	-0.094007	-0.066701	-0.067472
C103	C	0.155993	0.183299	0.182528
C104	C	0.405993	0.433299	0.432528
C105	C	-0.250417	-0.316388	-0.231380
C106	C	-0.000417	-0.066388	0.018620
C107	C	0.249583	0.183612	0.268620
C108	C	0.499583	0.433612	0.518620
C109	C	-0.247340	-0.389883	-0.228555
C110	C	0.002660	-0.139883	0.021445
C111	C	0.252660	0.110117	0.271445
C112	C	0.502660	0.360117	0.521445
C113	C	-0.292601	-0.426785	-0.270182
C114	C	-0.042601	-0.176785	-0.020182
C115	C	0.207399	0.073215	0.229818
C116	C	0.457399	0.323215	0.479818
N117	N	-0.329855	-0.534861	-0.304453
N118	N	-0.079855	-0.284861	-0.054453
N119	N	0.170145	-0.034861	0.195547
N120	N	0.420145	0.215139	0.445547
N121	N	-0.289454	-0.501907	-0.267285
N122	N	-0.039454	-0.251907	-0.017285
N123	N	0.210546	-0.001907	0.232715
N124	N	0.460546	0.248093	0.482715
C125	C	-0.491914	-1.025580	-0.278249
C126	C	-0.241914	-0.775580	-0.028249
C127	C	0.008086	-0.525580	0.221751
C128	C	0.258086	-0.275580	0.471751
C129	C	-0.569880	-1.028874	-0.275001
C130	C	-0.319880	-0.778874	-0.025001
C131	C	-0.069880	-0.528874	0.224999
C132	C	0.180120	-0.278874	0.474999
C133	C	-1.008340	-1.052454	-0.251688
C134	C	-0.758340	-0.802454	-0.001688
C135	C	-0.508340	-0.552454	0.248312
C136	C	-0.258340	-0.302454	0.498312
C137	C	-0.935083	-1.049352	-0.254741
C138	C	-0.685083	-0.799352	-0.004741
C139	C	-0.435083	-0.549352	0.245259
C140	C	-0.185083	-0.299352	0.495259
C141	C	-0.902221	-1.001042	-0.302962
C142	C	-0.652221	-0.751042	-0.052962
C143	C	-0.402221	-0.501042	0.197038
C144	C	-0.152221	-0.251042	0.447038
C145	C	-0.942621	-0.955825	-0.348127
C146	C	-0.692621	-0.705825	-0.098127
C147	C	-0.442621	-0.455825	0.151873
C148	C	-0.192621	-0.205825	0.401873
C149	C	-1.015876	-0.958924	-0.345070
C150	C	-0.765876	-0.708924	-0.095070
C151	C	-0.515876	-0.458924	0.154930
C152	C	-0.265876	-0.208924	0.404930
C153	C	-0.683535	-0.986757	-0.317109
C154	C	-0.433535	-0.736757	-0.067109
C155	C	-0.183535	-0.486757	0.182891
C156	C	0.066465	-0.236757	0.432891
C157	C	-0.610274	-0.983663	-0.320164
C158	C	-0.360274	-0.733663	-0.070164
C159	C	-0.110274	-0.483663	0.179836
C160	C	0.139726	-0.233663	0.429836
C161	C	-0.602741	-1.077189	-0.226777
C162	C	-0.352741	-0.827189	0.023223
C163	C	-0.102741	-0.577189	0.273223
C164	C	0.147259	-0.327189	0.523223
C165	C	-0.675998	-1.080287	-0.223727
C166	C	-0.425998	-0.830287	0.026273
C167	C	-0.175998	-0.580287	0.276273
C168	C	0.074002	-0.330287	0.526273
C169	C	-0.716391	-1.035068	-0.268890
C170	C	-0.466391	-0.785068	-0.018890
C171	C	-0.216391	-0.535068	0.231110
C172	C	0.033609	-0.285068	0.481110
N173	N	-0.827341	-0.997872	-0.306085
N174	N	-0.577341	-0.747872	-0.056085
N175	N	-0.327341	-0.497872	0.193915
N176	N	-0.077341	-0.247872	0.443915
N177	N	-0.791270	-1.038235	-0.265762
N178	N	-0.541270	-0.788235	-0.015762
N179	N	-0.291270	-0.538235	0.234238
N180	N	-0.041270	-0.288235	0.484238
C181	C	-0.126701	-1.010465	-0.293576
C182	C	0.123299	-0.760465	-0.043576
C183	C	0.373299	-0.510465	0.206424
C184	C	0.623299	-0.260465	0.456424
C185	C	-0.048734	-1.007242	-0.296851
C186	C	0.201266	-0.757242	-0.046851
C187	C	0.451266	-0.507242	0.203149
C188	C	0.701266	-0.257242	0.453149
C189	C	-0.317275	-1.010993	-0.469441
C190	C	-0.067275	-0.760993	-0.219441
C191	C	0.182725	-0.510993	0.030559
C192	C	0.432725	-0.260993	0.280559
C193	C	-0.320519	-1.007996	-0.547659
C194	C	-0.070519	-0.757996	-0.297659
C195	C	0.179481	-0.507996	-0.047659
C196	C	0.429481	-0.257996	0.202341
C197	C	-0.302021	-0.201579	-0.278858
C198	C	-0.052021	0.048421	-0.028858
C199	C	0.197979	0.298421	0.221142
C200	C	0.447979	0.548421	0.471142
C201	C	-0.298753	-0.279798	-0.275844
C202	C	-0.048753	-0.029798	-0.025844
C203	C	0.201247	0.220202	0.224156
C204	C	0.451247	0.470202	0.474156
C205	C	-0.275312	-1.049735	-0.584569
C206	C	-0.025312	-0.799735	-0.334569
C207	C	0.224688	-0.549735	-0.084569
C208	C	0.474688	-0.299735	0.165431
C209	C	-0.278358	-1.046910	-0.658064
C210	C	-0.028358	-0.796910	-0.408064
C211	C	0.221642	-0.546910	-0.158064
C212	C	0.471642	-0.296910	0.091936
C213	C	-0.326614	-1.002348	-0.694647
C214	C	-0.076614	-0.752348	-0.444647
C215	C	0.173386	-0.502348	-0.194647
C216	C	0.423386	-0.252348	0.055353
C217	C	-0.371823	-0.960604	-0.657732
C218	C	-0.121823	-0.710604	-0.407732
C219	C	0.128177	-0.460604	-0.157732
C220	C	0.378177	-0.210604	0.092268
C221	C	-0.368773	-0.963426	-0.584239
C222	C	-0.118773	-0.713426	-0.334239
C223	C	0.131227	-0.463426	-0.084239
C224	C	0.381227	-0.213426	0.165761
C225	C	-0.340742	-0.989277	-0.914431
C226	C	-0.090742	-0.739277	-0.664431
C227	C	0.159258	-0.489277	-0.414431
C228	C	0.409258	-0.239277	-0.164431
C229	C	-0.343789	-0.986460	-0.987929
C230	C	-0.093789	-0.736460	-0.737929
C231	C	0.156211	-0.486460	-0.487929
C232	C	0.406211	-0.236460	-0.237929
C233	C	-0.250323	-1.072765	-0.988256
C234	C	-0.000323	-0.822765	-0.738256
C235	C	0.249677	-0.572765	-0.488256
C236	C	0.499677	-0.322765	-0.238256
C237	C	-0.247281	-1.075586	-0.914761
C238	C	0.002719	-0.825586	-0.664761
C239	C	0.252719	-0.575586	-0.414761
C240	C	0.502719	-0.325586	-0.164761
C241	C	-0.292487	-1.033840	-0.877853
C242	C	-0.042487	-0.783840	-0.627853
C243	C	0.207513	-0.533840	-0.377853
C244	C	0.457513	-0.283840	-0.127853
N245	N	-0.329729	-0.999461	-0.769771
N246	N	-0.079729	-0.749461	-0.519771
N247	N	0.170271	-0.499461	-0.269771
N248	N	0.420271	-0.249461	-0.019771
N249	N	-0.289367	-1.036724	-0.802731
N250	N	-0.039367	-0.786724	-0.552731
N251	N	0.210633	-0.536724	-0.302731
N252	N	0.460633	-0.286724	-0.052731
C253	C	-0.302029	-1.025074	-0.103054
C254	C	-0.052029	-0.775074	0.146946
C255	C	0.197971	-0.525074	0.396946
C256	C	0.447971	-0.275074	0.646946
C257	C	-0.298582	-1.028199	-0.024839
C258	C	-0.048582	-0.778199	0.225161
C259	C	0.201418	-0.528199	0.475161
C260	C	0.451418	-0.278199	0.725161
H261	H	-0.235930	-0.749855	-0.218071
H262	H	0.014070	-0.499855	0.031929
H263	H	0.264070	-0.249855	0.281929
H264	H	0.514070	0.000145	0.531929
Br265	Br	-0.217034	-1.103593	-0.708151
Br266	Br	0.032966	-0.853593	-0.458151
Br267	Br	0.282966	-0.603593	-0.208151
Br268	Br	0.532966	-0.353593	0.041849
Br269	Br	-0.409600	-0.267043	-0.377820
Br270	Br	-0.159600	-0.017043	-0.127820
Br271	Br	0.090400	0.232957	0.122180
Br272	Br	0.340400	0.482957	0.372180
H273	H	-0.383087	-0.950170	-1.017713
H274	H	-0.133087	-0.700170	-0.767713
H275	H	0.116913	-0.450170	-0.517713
H276	H	0.366913	-0.200170	-0.267713
Br277	Br	-0.565677	-0.918096	-0.385613
Br278	Br	-0.315677	-0.668096	-0.135613
Br279	Br	-0.065677	-0.418096	0.114387
Br280	Br	0.184323	-0.168096	0.364387
H281	H	-1.048765	-0.922111	-0.381850
H282	H	-0.798765	-0.672111	-0.131850
H283	H	-0.548765	-0.422111	0.118150
H284	H	-0.298765	-0.172111	0.368150
Br285	Br	-0.188996	-0.266303	-0.174888
Br286	Br	0.061004	-0.016303	0.075112
Br287	Br	0.311004	0.233697	0.325112
Br288	Br	0.561004	0.483697	0.575112
H289	H	-0.207987	-1.111875	-0.884980
H290	H	0.042013	-0.861875	-0.634980
H291	H	0.292013	-0.611875	-0.384980
H292	H	0.542013	-0.361875	-0.134980
Br293	Br	-0.216954	-0.596494	-0.200602
Br294	Br	0.033046	-0.346494	0.049398
Br295	Br	0.283046	-0.096494	0.299398
Br296	Br	0.533046	0.153506	0.549398
Br297	Br	-0.188974	-1.129417	-1.038350
Br298	Br	0.061026	-0.879417	-0.788350
Br299	Br	0.311026	-0.629417	-0.538350
Br300	Br	0.561026	-0.379417	-0.288350
Br301	Br	-0.738345	-0.925399	-0.378413
Br302	Br	-0.488345	-0.675399	-0.128413
Br303	Br	-0.238345	-0.425399	0.121587
Br304	Br	0.011655	-0.175399	0.371587
H305	H	-0.411319	-0.617096	-0.379388
H306	H	-0.161319	-0.367096	-0.129388
H307	H	0.088681	-0.117096	0.120612
H308	H	0.338681	0.132904	0.370612
Br309	Br	-0.209823	-1.110220	-0.534927
Br310	Br	0.040177	-0.860220	-0.284927
Br311	Br	0.290177	-0.610220	-0.034927
Br312	Br	0.540177	-0.360220	0.215073
H313	H	-0.377562	-0.955295	-0.884388
H314	H	-0.127562	-0.705295	-0.634388
H315	H	0.122438	-0.455295	-0.384388
H316	H	0.372438	-0.205295	-0.134388
H317	H	-0.207988	-0.419670	-0.192345
H318	H	0.042012	-0.169670	0.057655
H319	H	0.292012	0.080330	0.307655
H320	H	0.542012	0.330330	0.557655
H321	H	-0.411111	-0.924318	-0.687524
H322	H	-0.161111	-0.674318	-0.437524
H323	H	0.088889	-0.424318	-0.187524
H324	H	0.338889	-0.174318	0.062476
H325	H	-0.377787	-0.420237	-0.348538
H326	H	-0.127787	-0.170237	-0.098538
H327	H	0.122213	0.079763	0.151462
H328	H	0.372213	0.329763	0.401462
H329	H	-0.702749	-1.119625	-0.184460
H330	H	-0.452749	-0.869625	0.065540
H331	H	-0.202749	-0.619625	0.315540
H332	H	0.047251	-0.369625	0.565540
Br333	Br	-0.430307	-0.770471	-0.396851
Br334	Br	-0.180307	-0.520471	-0.146851
Br335	Br	0.069693	-0.270471	0.103149
Br336	Br	0.319693	-0.020471	0.353149
Br337	Br	-0.430124	-0.906773	-0.534146
Br338	Br	-0.180124	-0.656773	-0.284146
Br339	Br	0.069876	-0.406773	-0.034146
Br340	Br	0.319876	-0.156773	0.215854
Br341	Br	-1.052930	-1.118026	-0.186247
Br342	Br	-0.802930	-0.868026	0.063753
Br343	Br	-0.552930	-0.618026	0.313753
Br344	Br	-0.302930	-0.368026	0.563753
H345	H	-0.569846	-1.114004	-0.190007
H346	H	-0.319846	-0.864004	0.059993
H347	H	-0.069846	-0.614004	0.309993
H348	H	0.180154	-0.364004	0.559993
Br349	Br	-0.880264	-1.110720	-0.193452
Br350	Br	-0.630264	-0.860720	0.056548
Br351	Br	-0.380264	-0.610720	0.306548
Br352	Br	-0.130264	-0.360720	0.556548
Br353	Br	-0.898024	-0.890259	-0.413569
Br354	Br	-0.648024	-0.640259	-0.163569
Br355	Br	-0.398024	-0.390259	0.086431
Br356	Br	-0.148024	-0.140259	0.336431
