data_functionalizedCrystal
_audit_creation_method	'MofGen! by Chris Wilmer'
_symmetry_space_group_name_H-M	'P1'
_symmetry_Int_Tables_number	1
_symmetry_cell_setting	triclinic
loop_
_symmetry_equiv_pos_as_xyz
  x,y,z
_cell_length_a	16.109318
_cell_length_b	8.597304
_cell_length_c	14.586319
_cell_angle_alpha	82.296329
_cell_angle_beta	90.000075
_cell_angle_gamma	84.406681
loop_
_atom_site_label
_atom_site_type_symbol
_atom_site_fract_x
_atom_site_fract_y
_atom_site_fract_z
O1	O	1.104792	0.201860	-0.092105
O2	O	0.862939	0.226937	-0.094104
O3	O	0.988625	-0.014070	-0.075056
O4	O	0.979106	0.442867	-0.111154
O5	O	0.988616	-0.014074	0.077425
O6	O	0.862930	0.226933	0.058377
O7	O	1.104783	0.201857	0.060376
Cu8	Cu	0.983856	0.214395	0.073299
Cu9	Cu	0.983866	0.214399	-0.107027
O10	O	0.979097	0.442864	0.041327
C11	C	0.831952	0.225914	-0.017785
C12	C	0.739632	0.222855	-0.017551
C13	C	0.440481	0.212975	-0.099871
C14	C	0.527226	0.215839	-0.100103
C15	C	0.527235	0.215814	0.066142
C16	C	0.440493	0.212938	0.066374
C17	C	0.397117	0.211527	-0.016636
C18	C	0.570605	0.217267	-0.017100
C19	C	0.664658	0.220372	-0.017351
C20	C	0.303059	0.208418	-0.016386
C21	C	0.987598	-0.072543	0.005802
C22	C	0.984541	-0.246769	0.019559
C23	C	1.135771	0.202879	-0.015945
C24	C	1.228090	0.205939	-0.016186
C25	C	0.980124	0.501337	-0.039532
C26	C	0.983181	0.675562	-0.053296
N27	N	0.983855	0.214391	0.200131
N28	N	0.983874	0.214390	-0.233858
C29	C	1.039527	0.107708	0.443569
C30	C	1.039530	0.107705	0.539551
C31	C	0.928196	0.321077	0.522696
C32	C	0.928190	0.321073	0.426717
C33	C	0.983860	0.214390	0.387156
C34	C	0.983868	0.214391	0.579117
C35	C	0.983871	0.214388	0.683184
C36	C	0.983857	0.214391	0.283082
H37	H	0.562530	0.217016	-0.167881
H38	H	0.983358	-0.313566	0.092469
C39	C	0.915104	-0.122515	-0.165552
C40	C	0.984742	-0.234301	-0.151726
H41	H	0.916064	-0.066862	-0.226321
H42	H	0.865644	-0.174417	-0.158024
H43	H	0.916385	-0.050438	-0.121697
H44	H	0.983458	-0.306386	-0.195578
H45	H	1.034214	-0.182396	-0.159264
C46	C	0.351206	0.074839	0.173727
C47	C	0.392824	0.211335	0.157876
H48	H	0.321784	0.073841	0.230218
H49	H	0.312962	0.073593	0.124331
H50	H	0.390653	-0.015488	0.177397
H51	H	0.353377	0.301663	0.154199
H52	H	0.431072	0.212596	0.207284
H53	H	1.084856	0.020839	0.411362
C54	C	1.149584	-0.103187	0.546563
C55	C	1.100724	-0.009557	0.601560
H56	H	1.187366	-0.175576	0.584846
H57	H	1.114519	-0.159665	0.513594
H58	H	1.180013	-0.037816	0.503959
H59	H	1.070290	-0.074927	0.644160
H60	H	1.135793	0.046925	0.634545
H61	H	0.562562	0.216966	0.133725
C62	C	0.878776	0.415841	0.662341
C63	C	0.867013	0.438354	0.566184
H64	H	0.841008	0.488256	0.689184
H65	H	0.868893	0.311106	0.686346
H66	H	0.934404	0.432921	0.676705
H67	H	0.811387	0.421263	0.551821
H68	H	0.876890	0.543114	0.542171
C69	C	0.881576	0.592749	0.375689
C70	C	0.866999	0.438351	0.364699
H71	H	0.843802	0.665143	0.337397
H72	H	0.873608	0.608015	0.438504
H73	H	0.937201	0.609807	0.358603
H74	H	0.811375	0.421290	0.381791
H75	H	0.874959	0.423080	0.301869
C76	C	0.449189	0.213277	-0.264218
C77	C	0.392804	0.211408	-0.191113
H78	H	0.419755	0.212298	-0.320547
H79	H	0.477425	0.305858	-0.268074
H80	H	0.488620	0.122925	-0.253619
H81	H	0.353376	0.301767	-0.201709
H82	H	0.364554	0.118817	-0.187259
