data_functionalizedCrystal
_audit_creation_method	'MofGen! by Chris Wilmer'
_symmetry_space_group_name_H-M	'P1'
_symmetry_Int_Tables_number	1
_symmetry_cell_setting	triclinic
loop_
_symmetry_equiv_pos_as_xyz
  x,y,z
_cell_length_a	21.395364
_cell_length_b	21.395362
_cell_length_c	21.395355
_cell_angle_alpha	89.979451
_cell_angle_beta	89.975448
_cell_angle_gamma	90.044742
loop_
_atom_site_label
_atom_site_type_symbol
_atom_site_fract_x
_atom_site_fract_y
_atom_site_fract_z
Zn1	Zn	0.957863	-0.249261	-0.354253
Zn2	Zn	1.291197	0.084072	-0.020919
Zn3	Zn	1.624530	0.417406	0.312414
Zn4	Zn	0.957767	-0.354021	-0.249471
Zn5	Zn	1.291101	-0.020688	0.083862
Zn6	Zn	1.624434	0.312646	0.417195
Zn7	Zn	0.853078	-0.249289	-0.249489
Zn8	Zn	1.186412	0.084045	0.083844
Zn9	Zn	1.519745	0.417378	0.417177
Zn10	Zn	0.853049	-0.354032	-0.354212
Zn11	Zn	1.186382	-0.020699	-0.020878
Zn12	Zn	1.519716	0.312634	0.312455
O13	O	0.905439	-0.301651	-0.301856
O14	O	1.238773	0.031683	0.031477
O15	O	1.572106	0.365016	0.364810
O16	O	1.045528	-0.263142	-0.340363
O17	O	1.378862	0.070192	-0.007030
O18	O	1.712195	0.403525	0.326304
O19	O	0.943852	-0.340135	-0.161796
O20	O	1.277186	-0.006801	0.171537
O21	O	1.610519	0.326532	0.504871
O22	O	0.867030	-0.161607	-0.263411
O23	O	1.200364	0.171726	0.069922
O24	O	1.533697	0.505060	0.403256
O25	O	1.045458	-0.340108	-0.263381
O26	O	1.378791	-0.006775	0.069953
O27	O	1.712125	0.326558	0.403286
O28	O	0.944016	-0.161587	-0.340380
O29	O	1.277349	0.171746	-0.007047
O30	O	1.610682	0.505080	0.326286
O31	O	0.866938	-0.263188	-0.161809
O32	O	1.200271	0.070145	0.171524
O33	O	1.533604	0.403478	0.504858
O34	O	0.765396	-0.263199	-0.263371
O35	O	1.098730	0.070134	0.069962
O36	O	1.432063	0.403467	0.403295
O37	O	0.866981	-0.340127	-0.441895
O38	O	1.200314	-0.006794	-0.108562
O39	O	1.533647	0.326539	0.224772
O40	O	0.765375	-0.340154	-0.340310
O41	O	1.098708	-0.006821	-0.006977
O42	O	1.432042	0.326513	0.326356
O43	O	0.943987	-0.263152	-0.441925
O44	O	1.277321	0.070181	-0.108592
O45	O	1.610654	0.403514	0.224742
O46	O	0.943824	-0.441700	-0.263341
O47	O	1.277157	-0.108367	0.069993
O48	O	1.610491	0.224966	0.403326
O49	O	0.866888	-0.441709	-0.340293
O50	O	1.200221	-0.108375	-0.006960
O51	O	1.533555	0.224958	0.326374
C52	C	0.742652	-0.301681	-0.301839
C53	C	1.075985	0.031652	0.031495
C54	C	1.409318	0.364985	0.364828
C55	C	0.673011	-0.301709	-0.301846
C56	C	1.006344	0.031624	0.031487
C57	C	1.339677	0.364957	0.364821
C58	C	0.640356	-0.261698	-0.341993
C59	C	0.973690	0.071635	-0.008659
C60	C	1.307023	0.404968	0.324674
C61	C	0.574921	-0.261682	-0.341995
C62	C	0.908254	0.071652	-0.008662
C63	C	1.241588	0.404985	0.324672
C64	C	0.542142	-0.301687	-0.301857
C65	C	0.875476	0.031646	0.031476
C66	C	1.208809	0.364979	0.364809
C67	C	0.574804	-0.341701	-0.261703
C68	C	0.908138	-0.008368	0.071630
C69	C	1.241471	0.324966	0.404964
C70	C	0.640238	-0.341712	-0.261697
C71	C	0.973572	-0.008379	0.071636
C72	C	1.306905	0.324955	0.404969
C73	C	0.438419	-0.358112	-0.296818
C74	C	0.771752	-0.024779	0.036516
C75	C	1.105085	0.308555	0.369849
C76	C	0.372986	-0.358102	-0.296828
C77	C	0.706319	-0.024769	0.036505
C78	C	1.039652	0.308565	0.369839
C79	C	0.340322	-0.301653	-0.301871
C80	C	0.673655	0.031681	0.031462
C81	C	1.006988	0.365014	0.364795
C82	C	0.373098	-0.245212	-0.306918
C83	C	0.706432	0.088121	0.026416
C84	C	1.039765	0.421455	0.359749
C85	C	0.438532	-0.245223	-0.306912
C86	C	0.771866	0.088110	0.026421
C87	C	1.105199	0.421444	0.359755
C88	C	0.471190	-0.301679	-0.301859
C89	C	0.804523	0.031654	0.031475
C90	C	1.137857	0.364987	0.364808
C91	C	0.236715	-0.261620	-0.342023
C92	C	0.570048	0.071713	-0.008689
C93	C	0.903382	0.405046	0.324644
C94	C	0.171278	-0.261603	-0.342021
C95	C	0.504612	0.071731	-0.008687
C96	C	0.837945	0.405064	0.324646
C97	C	0.171163	-0.341627	-0.261732
C98	C	0.504496	-0.008294	0.071601
C99	C	0.837829	0.325039	0.404935
C100	C	0.236598	-0.341640	-0.261731
C101	C	0.569931	-0.008306	0.071603
C102	C	0.903265	0.325027	0.404936
C103	C	0.269370	-0.301637	-0.301879
C104	C	0.602704	0.031696	0.031454
C105	C	0.936037	0.365030	0.364787
C106	C	0.905359	-0.464438	-0.301824
C107	C	1.238693	-0.131105	0.031509
C108	C	1.572026	0.202228	0.364843
C109	C	0.905382	-0.534080	-0.301831
C110	C	1.238716	-0.200746	0.031502
C111	C	1.572049	0.132587	0.364835
C112	C	0.945446	-0.566725	-0.341938
C113	C	1.278779	-0.233392	-0.008604
C114	C	1.612112	0.099941	0.324729
C115	C	0.945468	-0.632161	-0.341953
C116	C	1.278801	-0.298827	-0.008620
C117	C	1.612134	0.034506	0.324714
C118	C	0.905433	-0.664948	-0.301851
C119	C	1.238766	-0.331615	0.031483
C120	C	1.572100	0.001719	0.364816
C121	C	0.865362	-0.632294	-0.261742
C122	C	1.198695	-0.298961	0.071592
C123	C	1.532029	0.034372	0.404925
C124	C	0.865337	-0.566860	-0.261732
C125	C	1.198670	-0.233527	0.071601
C126	C	1.532003	0.099806	0.404935
C127	C	0.900556	-0.768649	-0.245412
C128	C	1.233889	-0.435316	0.087921
C129	C	1.567223	-0.101983	0.421255
C130	C	0.900586	-0.834082	-0.245421
C131	C	1.233919	-0.500749	0.087913
C132	C	1.567252	-0.167416	0.421246
C133	C	0.905507	-0.866769	-0.301881
C134	C	1.238841	-0.533435	0.031452
C135	C	1.572174	-0.200102	0.364786
C136	C	0.910413	-0.834014	-0.358334
C137	C	1.243746	-0.500680	-0.025001
C138	C	1.577079	-0.167347	0.308332
C139	C	0.910387	-0.768580	-0.358325
C140	C	1.243721	-0.435246	-0.024991
C141	C	1.577054	-0.101913	0.308342
C142	C	0.905456	-0.735900	-0.301857
C143	C	1.238789	-0.402567	0.031476
C144	C	1.572122	-0.069234	0.364810
C145	C	0.945597	-0.970367	-0.342007
C146	C	1.278930	-0.637034	-0.008674
C147	C	1.612263	-0.303700	0.324659
C148	C	0.945614	-1.035803	-0.342024
C149	C	1.278948	-0.702470	-0.008690
C150	C	1.612281	-0.369137	0.324643
C151	C	0.865512	-1.035936	-0.261807
C152	C	1.198845	-0.702602	0.071527
C153	C	1.532179	-0.369269	0.404860
C154	C	0.865491	-0.970500	-0.261796
C155	C	1.198824	-0.637167	0.071537
C156	C	1.532158	-0.303834	0.404871
C157	C	0.905537	-0.937720	-0.301895
C158	C	1.238870	-0.604387	0.031438
C159	C	1.572203	-0.271053	0.364771
C160	C	1.068863	-0.301621	-0.301874
C161	C	1.402196	0.031713	0.031459
C162	C	1.735529	0.365046	0.364792
C163	C	1.138504	-0.301608	-0.301882
C164	C	1.471837	0.031726	0.031451
C165	C	1.805171	0.365059	0.364785
C166	C	0.905491	-0.301638	-0.465280
C167	C	1.238825	0.031695	-0.131946
C168	C	1.572158	0.365029	0.201387
C169	C	0.905514	-0.301633	-0.534921
C170	C	1.238847	0.031701	-0.201588
C171	C	1.572180	0.365034	0.131746
C172	C	0.905537	-0.138227	-0.301902
C173	C	1.238870	0.195106	0.031431
C174	C	1.572204	0.528439	0.364764
C175	C	0.905578	-0.068586	-0.301922
C176	C	1.238912	0.264747	0.031412
C177	C	1.572245	0.598081	0.364745
C178	C	0.945609	-0.261550	-0.567651
C179	C	1.278943	0.071783	-0.234317
C180	C	1.612276	0.405117	0.099016
C181	C	0.945608	-0.261523	-0.633086
C182	C	1.278942	0.071810	-0.299753
C183	C	1.612275	0.405143	0.033581
C184	C	0.905519	-0.301590	-0.665789
C185	C	1.238852	0.031743	-0.332456
C186	C	1.572185	0.365077	0.000877
C187	C	0.865415	-0.341675	-0.633052
C188	C	1.198748	-0.008342	-0.299718
C189	C	1.532082	0.324991	0.033615
C190	C	0.865413	-0.341697	-0.567617
C191	C	1.198746	-0.008363	-0.234284
C192	C	1.532079	0.324970	0.099049
C193	C	0.900543	-0.358007	-0.769453
C194	C	1.233877	-0.024673	-0.436119
C195	C	1.567210	0.308660	-0.102786
C196	C	0.900550	-0.357986	-0.834886
C197	C	1.233884	-0.024653	-0.501552
C198	C	1.567217	0.308680	-0.168219
C199	C	0.905522	-0.301524	-0.867610
C200	C	1.238856	0.031810	-0.534277
C201	C	1.572189	0.365143	-0.200943
C202	C	0.910501	-0.245080	-0.834893
C203	C	1.243834	0.088254	-0.501560
C204	C	1.577167	0.421587	-0.168227
C205	C	0.910498	-0.245101	-0.769459
C206	C	1.243832	0.088232	-0.436126
C207	C	1.577165	0.421566	-0.102793
C208	C	0.905516	-0.301571	-0.736742
C209	C	1.238850	0.031762	-0.403408
C210	C	1.572183	0.365096	-0.070075
C211	C	0.945619	-0.261409	-0.971293
C212	C	1.278953	0.071925	-0.637959
C213	C	1.612286	0.405258	-0.304626
C214	C	0.945614	-0.261381	-1.036729
C215	C	1.278947	0.071953	-0.703396
C216	C	1.612281	0.405286	-0.370063
C217	C	0.865424	-0.341538	-1.036693
C218	C	1.198757	-0.008205	-0.703360
C219	C	1.532091	0.325128	-0.370027
C220	C	0.865426	-0.341561	-0.971258
C221	C	1.198759	-0.008227	-0.637925
C222	C	1.532093	0.325106	-0.304591
C223	C	0.905527	-0.301497	-0.938561
C224	C	1.238860	0.031837	-0.605228
C225	C	1.572194	0.365170	-0.271895
C226	C	0.905424	-0.301618	-0.139069
C227	C	1.238757	0.031715	0.194265
C228	C	1.572090	0.365049	0.527598
C229	C	0.905523	-0.301447	-0.069428
C230	C	1.238856	0.031886	0.263906
C231	C	1.572190	0.365220	0.597239
H232	H	0.263185	-0.374223	-0.229041
H233	H	0.596519	-0.040890	0.104292
H234	H	0.929852	0.292443	0.437625
C235	C	0.821260	-0.530949	-0.217612
C236	C	1.154593	-0.197615	0.115721
C237	C	1.487926	0.135718	0.449055
N238	N	0.788060	-0.503899	-0.184381
N239	N	1.121393	-0.170566	0.148953
N240	N	1.454727	0.162767	0.482286
C241	C	0.676159	-0.385732	-0.217534
C242	C	1.009492	-0.052399	0.115800
C243	C	1.342826	0.280935	0.449133
N244	N	0.703215	-0.418890	-0.184271
N245	N	1.036549	-0.085557	0.149063
N246	N	1.369882	0.247777	0.482396
C247	C	0.895189	-0.870106	-0.183321
C248	C	1.228523	-0.536773	0.150012
C249	C	1.561856	-0.203440	0.483345
N250	N	0.891123	-0.897238	-0.136546
N251	N	1.224457	-0.563905	0.196787
N252	N	1.557790	-0.230572	0.530120
H253	H	0.896500	-0.403946	-0.861519
H254	H	1.229834	-0.070613	-0.528185
H255	H	1.563167	0.262720	-0.194852
H256	H	0.465216	-0.199267	-0.311019
H257	H	0.798550	0.134066	0.022314
H258	H	1.131883	0.467400	0.355648
H259	H	0.144692	-0.229017	-0.374712
H260	H	0.478026	0.104316	-0.041379
H261	H	0.811359	0.437649	0.291955
H262	H	0.978051	-0.540037	-0.374591
H263	H	1.311385	-0.206704	-0.041257
H264	H	1.644718	0.126629	0.292076
C265	C	0.895154	-0.732701	-0.183296
C266	C	1.228487	-0.399368	0.150037
C267	C	1.561820	-0.066035	0.483371
N268	N	0.891089	-0.705626	-0.136511
N269	N	1.224422	-0.372293	0.196822
N270	N	1.557756	-0.038959	0.530155
H271	H	0.914421	-0.860625	-0.404310
H272	H	1.247755	-0.527292	-0.070977
H273	H	1.581088	-0.193959	0.262357
C274	C	0.676402	-0.217686	-0.386150
C275	C	1.009735	0.115647	-0.052816
C276	C	1.343069	0.448980	0.280517
N277	N	0.703553	-0.184533	-0.419406
N278	N	1.036886	0.148800	-0.086073
N279	N	1.370219	0.482133	0.247260
H280	H	0.978087	-0.658746	-0.374620
H281	H	1.311420	-0.325413	-0.041286
H282	H	1.644753	0.007921	0.292047
C283	C	0.915778	-0.732552	-0.420423
C284	C	1.249111	-0.399219	-0.087089
C285	C	1.582444	-0.065885	0.246244
N286	N	0.919835	-0.705416	-0.467196
N287	N	1.253168	-0.372082	-0.133862
N288	N	1.586502	-0.038749	0.199471
H289	H	0.978264	-0.228737	-1.063377
H290	H	1.311597	0.104596	-0.730043
H291	H	1.644930	0.437930	-0.396710
H292	H	0.978202	-0.943676	-0.374661
H293	H	1.311536	-0.610343	-0.041328
H294	H	1.644869	-0.277009	0.292006
C295	C	0.989692	-1.071714	-0.386143
C296	C	1.323026	-0.738380	-0.052810
C297	C	1.656359	-0.405047	0.280523
N298	N	1.022895	-1.098762	-0.419373
N299	N	1.356228	-0.765428	-0.086040
N300	N	1.689562	-0.432095	0.247294
C301	C	0.895086	-0.420125	-0.733463
C302	C	1.228419	-0.086792	-0.400129
C303	C	1.561752	0.246542	-0.066796
N304	N	0.890979	-0.466912	-0.706356
N305	N	1.224313	-0.133578	-0.373022
N306	N	1.557646	0.199755	-0.039689
C307	C	0.821325	-0.385613	-1.072663
C308	C	1.154658	-0.052280	-0.739330
C309	C	1.487992	0.281054	-0.405996
N310	N	0.788108	-0.418811	-1.099759
N311	N	1.121441	-0.085477	-0.766425
N312	N	1.454775	0.247856	-0.433092
H313	H	0.263399	-0.229044	-0.374710
H314	H	0.596733	0.104289	-0.041377
H315	H	0.930066	0.437623	0.291956
H316	H	0.832911	-1.062630	-0.229159
H317	H	1.166244	-0.729297	0.104175
H318	H	1.499578	-0.395964	0.437508
C319	C	0.821414	-0.934589	-0.217679
C320	C	1.154747	-0.601255	0.115655
C321	C	1.488081	-0.267922	0.448988
N322	N	0.788209	-0.907540	-0.184451
N323	N	1.121543	-0.574207	0.148882
N324	N	1.454876	-0.240874	0.482215
C325	C	0.989713	-0.217470	-0.531688
C326	C	1.323047	0.115863	-0.198355
C327	C	1.656380	0.449197	0.134978
N328	N	1.022930	-0.184266	-0.504601
N329	N	1.356263	0.149067	-0.171267
N330	N	1.689597	0.482401	0.162066
H331	H	0.832764	-0.658994	-0.229091
H332	H	1.166098	-0.325660	0.104242
H333	H	1.499431	0.007673	0.437575
C334	C	0.336938	-0.420187	-0.291270
C335	C	0.670271	-0.086854	0.042064
C336	C	1.003604	0.246480	0.375397
N337	N	0.309788	-0.466951	-0.287079
N338	N	0.643121	-0.133617	0.046254
N339	N	0.976455	0.199716	0.379587
H340	H	0.978258	-0.228880	-0.659740
H341	H	1.311591	0.104454	-0.326407
H342	H	1.644924	0.437787	0.006927
H343	H	0.144475	-0.374200	-0.229051
H344	H	0.477808	-0.040867	0.104282
H345	H	0.811142	0.292466	0.437616
H346	H	0.548329	-0.229097	-0.374686
H347	H	0.881662	0.104236	-0.041353
H348	H	1.214996	0.437570	0.291980
C349	C	0.337172	-0.183112	-0.312460
C350	C	0.670506	0.150221	0.020873
C351	C	1.003839	0.483555	0.354207
N352	N	0.310110	-0.136340	-0.316633
N353	N	0.643444	0.196993	0.016700
N354	N	0.976777	0.530327	0.350033
C355	C	0.915969	-0.182966	-0.870885
C356	C	1.249302	0.150368	-0.537552
C357	C	1.582636	0.483701	-0.204219
N358	N	0.920088	-0.136183	-0.897997
N359	N	1.253422	0.197150	-0.564664
N360	N	1.586755	0.530484	-0.231330
C361	C	0.474343	-0.420215	-0.291273
C362	C	0.807676	-0.086882	0.042060
C363	C	1.141010	0.246452	0.375394
N364	N	0.501400	-0.466989	-0.287098
N365	N	0.834734	-0.133656	0.046236
N366	N	1.168067	0.199677	0.379569
H367	H	0.914550	-0.199143	-0.742824
H368	H	1.247884	0.134191	-0.409491
H369	H	1.581217	0.467524	-0.076157
H370	H	0.832759	-0.374336	-0.540969
H371	H	1.166093	-0.041002	-0.207636
H372	H	1.499426	0.292331	0.125698
H373	H	0.978268	-0.228783	-0.944670
H374	H	1.311602	0.104551	-0.611336
H375	H	1.644935	0.437884	-0.278003
C376	C	0.821313	-0.385746	-0.669026
C377	C	1.154647	-0.052413	-0.335693
C378	C	1.487980	0.280921	-0.002360
N379	N	0.788092	-0.418939	-0.696122
N380	N	1.121426	-0.085606	-0.362789
N381	N	1.454759	0.247728	-0.029456
C382	C	0.538746	-0.385707	-0.217552
C383	C	0.872080	-0.052374	0.115781
C384	C	1.205413	0.280959	0.449115
N385	N	0.511587	-0.418853	-0.184295
N386	N	0.844921	-0.085520	0.149039
N387	N	1.178254	0.247813	0.482372
C388	C	0.821320	-0.385658	-0.935254
C389	C	1.154653	-0.052325	-0.601920
C390	C	1.487986	0.281009	-0.268587
N391	N	0.788095	-0.418872	-0.908136
N392	N	1.121429	-0.085539	-0.574802
N393	N	1.454762	0.247794	-0.241469
