data_functionalizedCrystal
_audit_creation_method	'MofGen! by Chris Wilmer'
_symmetry_space_group_name_H-M	'P1'
_symmetry_Int_Tables_number	1
_symmetry_cell_setting	triclinic
loop_
_symmetry_equiv_pos_as_xyz
  x,y,z
_cell_length_a	10.654545
_cell_length_b	13.339070
_cell_length_c	11.804366
_cell_angle_alpha	74.888044
_cell_angle_beta	101.964034
_cell_angle_gamma	100.056187
loop_
_atom_site_label
_atom_site_type_symbol
_atom_site_fract_x
_atom_site_fract_y
_atom_site_fract_z
O1	O	1.734227	0.122118	0.099011
O2	O	1.373332	0.135692	0.099015
O3	O	1.512359	-0.018648	0.099010
O4	O	1.595199	0.276458	0.099016
O5	O	1.475743	0.021942	-0.099045
O6	O	1.336716	0.176282	-0.099039
O7	O	1.697610	0.162708	-0.099044
Cu8	Cu	1.513820	0.173201	-0.117126
Cu9	Cu	1.557123	0.125199	0.117097
O10	O	1.558583	0.317048	-0.099039
C11	C	1.307890	0.154991	-0.000011
C12	C	1.167440	0.152012	-0.000010
C13	C	1.081503	0.172735	-0.107970
C14	C	0.949532	0.169919	-0.107970
C15	C	0.989452	0.125659	0.107960
C16	C	1.121418	0.128468	0.107959
C17	C	1.480059	-0.036140	-0.000016
C18	C	1.438350	-0.148735	-0.000010
C19	C	1.762663	-0.511256	-0.000015
C20	C	1.801853	-0.405467	-0.000027
C21	C	1.710980	-0.341279	-0.000022
C22	C	1.580911	-0.382891	-0.000007
C23	C	1.541715	-0.488689	-0.000004
C24	C	1.490033	-0.318711	-0.000012
C25	C	1.359964	-0.360323	0.000004
C26	C	1.320775	-0.466111	0.000007
C27	C	1.411647	-0.530299	0.000002
C28	C	1.529229	-0.212913	-0.000014
C29	C	1.308282	-0.190346	-0.000003
C30	C	1.269091	-0.296135	0.000008
C31	C	1.763053	0.143409	-0.000015
C32	C	1.903504	0.146387	-0.000009
C33	C	1.590884	0.334540	-0.000011
C34	C	1.632594	0.447134	-0.000008
N35	N	1.483372	0.206963	-0.281865
C36	C	1.410264	0.288057	-0.344208
C37	C	1.387247	0.313611	-0.468869
C38	C	1.437327	0.258068	-0.531199
C39	C	1.510429	0.176966	-0.468856
C40	C	1.533457	0.151415	-0.344183
C41	C	1.560520	0.121426	-0.531173
C42	C	1.633622	0.040325	-0.468830
C43	C	1.656645	0.014778	-0.344169
C44	C	1.606565	0.070321	-0.281839
C45	C	1.537493	0.146977	-0.655846
C46	C	1.660686	0.010335	-0.655821
C47	C	1.683703	-0.015219	-0.531160
N48	N	1.587578	0.091430	0.281836
H49	H	1.191393	0.111589	0.195878
C50	C	1.132119	0.198602	-0.226729
H51	H	1.062029	0.210525	-0.291025
H52	H	1.193762	0.259647	-0.231234
H53	H	1.171772	0.141569	-0.231204
H54	H	1.234284	-0.138082	-0.000006
H55	H	1.379745	-0.616443	0.000016
H56	H	1.635132	-0.179044	-0.000027
H57	H	1.625300	0.049513	-0.180330
C58	C	1.754091	-0.224916	-0.000020
H59	H	1.844571	-0.209329	-0.000017
H60	H	1.709384	-0.182656	-0.069077
H61	H	1.734936	-0.210980	0.069063
H62	H	1.836635	-0.563524	-0.000028
C63	C	1.126021	-0.341914	0.000014
H64	H	1.115698	-0.414110	0.000006
H65	H	1.099818	-0.334093	0.069079
H66	H	1.074281	-0.305788	-0.069062
H67	H	1.907755	-0.371594	-0.000041
H68	H	1.214862	-0.499986	0.000011
H69	H	1.716181	-0.051252	-0.293409
H70	H	1.477974	0.213010	-0.706595
C71	C	1.764125	-0.104415	-0.462574
H72	H	1.770672	-0.111667	-0.379403
H73	H	1.723112	-0.168016	-0.483004
H74	H	1.848227	-0.088576	-0.482990
C75	C	1.411995	0.286166	-0.668322
H76	H	1.361275	0.342414	-0.696525
H77	H	1.492087	0.306421	-0.696522
H78	H	1.366960	0.226995	-0.696519
C79	C	0.855007	0.192721	-0.226726
H80	H	0.901324	0.207152	-0.291023
H81	H	0.791709	0.133515	-0.231225
H82	H	0.813688	0.251583	-0.231206
H83	H	1.327730	0.379643	-0.519624
C84	C	1.355182	0.349142	-0.275646
H85	H	1.379360	0.322304	-0.192471
H86	H	1.388652	0.421114	-0.296068
H87	H	1.263534	0.341678	-0.296086
H88	H	1.701469	-0.034892	-0.706569
H89	H	0.951964	0.106491	0.195864
