data_functionalizedCrystal
_audit_creation_method	'MofGen! by Chris Wilmer'
_symmetry_space_group_name_H-M	'P1'
_symmetry_Int_Tables_number	1
_symmetry_cell_setting	triclinic
loop_
_symmetry_equiv_pos_as_xyz
  x,y,z
_cell_length_a	12.759401
_cell_length_b	12.759400
_cell_length_c	12.759393
_cell_angle_alpha	90.030764
_cell_angle_beta	90.022497
_cell_angle_gamma	90.023129
loop_
_atom_site_label
_atom_site_type_symbol
_atom_site_fract_x
_atom_site_fract_y
_atom_site_fract_z
Zn1	Zn	-1.606211	0.418192	-0.594062
Zn2	Zn	-1.606079	0.593908	-0.418381
Zn3	Zn	-1.430510	0.418246	-0.418392
Zn4	Zn	-1.430478	0.593832	-0.594014
O5	O	-1.518319	0.506045	-0.506212
O6	O	-1.753214	0.441511	-0.570773
O7	O	-1.582747	0.570660	-0.271361
O8	O	-1.453885	0.271218	-0.441720
O9	O	-1.753117	0.570608	-0.441701
O10	O	-1.582972	0.271178	-0.570784
O11	O	-1.453757	0.441602	-0.271370
O12	O	-1.283484	0.441529	-0.441673
O13	O	-1.453832	0.570479	-0.741041
O14	O	-1.283461	0.570531	-0.570701
O15	O	-1.582942	0.441437	-0.741077
O16	O	-1.582716	0.740919	-0.441654
O17	O	-1.453703	0.740864	-0.570691
C18	C	-1.245352	0.506029	-0.506184
C19	C	-1.128575	0.506047	-0.506197
C20	C	-1.073729	0.573320	-0.573274
C21	C	-0.964005	0.573323	-0.573292
C22	C	-0.963983	0.438776	-0.439146
C23	C	-1.073705	0.438769	-0.439134
C24	C	-1.518221	0.779012	-0.506189
C25	C	-1.518275	0.895789	-0.506214
C26	C	-0.792353	0.506059	-0.506234
C27	C	-0.909129	0.506057	-0.506226
C28	C	-1.585489	1.060277	-0.573494
C29	C	-1.585451	0.950553	-0.573472
C30	C	-1.451140	0.950754	-0.438965
C31	C	-1.451184	1.060476	-0.438982
C32	C	-1.518398	0.505944	-0.780246
C33	C	-1.518431	0.505901	-0.897022
C34	C	-1.518411	1.232011	-0.506252
C35	C	-1.518357	1.115235	-0.506252
C36	C	-1.585664	0.438698	-0.951905
C37	C	-1.585682	0.438653	-1.061629
C38	C	-1.451231	0.573022	-1.061579
C39	C	-1.451209	0.573061	-0.951857
C40	C	-1.518301	0.506069	-0.233245
C41	C	-1.518471	0.505816	-0.116469
H42	H	-0.919295	0.384003	-0.384544
N43	N	-1.657852	0.891271	-0.645998
H44	H	-1.732935	0.910320	-0.629758
H45	H	-1.641408	0.910348	-0.721023
N46	N	-1.378687	0.891681	-0.366427
H47	H	-1.303620	0.910827	-0.382678
H48	H	-1.395138	0.910832	-0.291405
N49	N	-1.378781	1.119762	-0.366447
H50	H	-1.336216	1.068425	-0.323833
H51	H	-1.330157	1.165300	-0.409173
N52	N	-1.658163	0.366263	-0.892759
H53	H	-1.700755	0.323683	-0.944181
H54	H	-1.615412	0.317656	-0.847234
N55	N	-1.132914	0.645870	-0.645611
H56	H	-1.178397	0.694506	-0.602825
H57	H	-1.081450	0.688416	-0.688094
H58	H	-1.396504	0.627704	-1.106238
N59	N	-0.904848	0.645886	-0.645636
H60	H	-0.956260	0.688504	-0.688113
H61	H	-0.859286	0.694453	-0.602783
N62	N	-1.657950	1.119325	-0.646044
H63	H	-1.706680	1.164841	-0.603403
H64	H	-1.615177	1.164787	-0.694693
H65	H	-1.640428	0.383928	-1.106309
N66	N	-1.378669	0.645539	-0.892669
H67	H	-1.394941	0.720604	-0.911747
H68	H	-1.388873	0.635283	-0.814857
N69	N	-1.132871	0.366193	-0.366796
H70	H	-1.081464	0.323576	-0.324311
H71	H	-1.178364	0.408888	-0.318095
