data_functionalizedCrystal
_audit_creation_method	'MofGen! by Chris Wilmer'
_symmetry_space_group_name_H-M	'P1'
_symmetry_Int_Tables_number	1
_symmetry_cell_setting	triclinic
loop_
_symmetry_equiv_pos_as_xyz
  x,y,z
_cell_length_a	23.532361
_cell_length_b	23.532357
_cell_length_c	15.186229
_cell_angle_alpha	89.990735
_cell_angle_beta	90.000928
_cell_angle_gamma	82.828980
loop_
_atom_site_label
_atom_site_type_symbol
_atom_site_fract_x
_atom_site_fract_y
_atom_site_fract_z
O1	O	0.755263	0.069009	-0.073151
O2	O	0.589395	0.079041	-0.073173
O3	O	0.677346	-0.008909	-0.073143
O4	O	0.667312	0.156960	-0.073181
O5	O	0.677340	-0.008911	0.073314
O6	O	0.589389	0.079039	0.073284
O7	O	0.755258	0.069008	0.073306
Zn8	Zn	0.672322	0.074024	0.096548
Zn9	Zn	0.672330	0.074025	-0.096415
O10	O	0.667307	0.156958	0.073276
C11	C	0.568175	0.078789	0.000053
C12	C	0.504957	0.078034	0.000045
C13	C	0.231717	0.074731	-0.079783
C14	C	0.291116	0.075446	-0.079785
O15	O	0.321845	0.075796	-0.147680
N16	N	0.320819	0.075806	0.000049
C17	C	0.291119	0.075446	0.079890
O18	O	0.321838	0.075818	0.147795
C19	C	0.231721	0.074727	0.079892
C20	C	0.202021	0.074372	0.000052
C21	C	0.202017	0.074375	-0.159616
C22	C	0.142621	0.073662	-0.159613
C23	C	0.112925	0.073303	-0.079778
C24	C	0.142626	0.073658	0.000055
C25	C	0.202024	0.074362	0.159733
C26	C	0.142622	0.073643	0.159727
C27	C	0.112921	0.073288	0.079888
C28	C	0.053534	0.072586	0.079893
N29	N	0.023832	0.072225	0.000059
C30	C	0.053527	0.072584	-0.079776
C31	C	0.415859	0.076955	0.079881
C32	C	0.475256	0.077678	0.079881
C33	C	0.475249	0.077677	-0.079795
C34	C	0.415851	0.076958	-0.079794
C35	C	0.386157	0.076594	0.000047
C36	C	-0.071208	0.071085	-0.079765
C37	C	-0.130609	0.070374	-0.079755
C38	C	-0.130597	0.070372	0.079921
C39	C	-0.071201	0.071087	0.079911
C40	C	-0.041508	0.071441	0.000062
O41	O	0.022768	0.072233	0.147753
O42	O	0.022803	0.072205	-0.147670
C43	C	0.677092	-0.030127	0.000088
C44	C	0.676337	-0.093345	0.000096
C45	C	0.671604	-0.485355	-0.079786
C46	C	0.670886	-0.544754	-0.079791
O47	O	0.670499	-0.575470	-0.147687
N48	N	0.670527	-0.574466	0.000042
C49	C	0.670880	-0.544775	0.079885
O50	O	0.670508	-0.575501	0.147788
C51	C	0.671593	-0.485376	0.079889
C52	C	0.671958	-0.455668	0.000051
C53	C	0.671968	-0.455647	-0.159617
C54	C	0.672686	-0.396252	-0.159612
C55	C	0.673040	-0.366565	-0.079775
C56	C	0.672676	-0.396273	0.000057
C57	C	0.671942	-0.455685	0.159731
C58	C	0.672655	-0.396282	0.159728
C59	C	0.673019	-0.366574	0.079891
C60	C	0.673749	-0.307191	0.079899
N61	N	0.674108	-0.277479	0.000066
C62	C	0.673753	-0.307166	-0.079771
C63	C	0.669381	-0.669516	0.079870
C64	C	0.668672	-0.728914	0.079867
C65	C	0.668678	-0.728890	-0.079809
C66	C	0.669391	-0.669491	-0.079805
C67	C	0.669740	-0.639804	0.000037
C68	C	0.675262	-0.182432	-0.079753
C69	C	0.675983	-0.123032	-0.079741
C70	C	0.675975	-0.123061	0.079935
C71	C	0.675257	-0.182457	0.079923
C72	C	0.674899	-0.212140	0.000072
O73	O	0.674134	-0.276437	0.147760
O74	O	0.674117	-0.276431	-0.147663
C75	C	0.776477	0.069260	0.000079
C76	C	0.839695	0.070015	0.000081
C77	C	0.667560	0.178176	0.000043
C78	C	0.668315	0.241394	0.000029
N79	N	0.672321	0.074022	0.228241
N80	N	0.672336	0.074022	-0.228108
C81	C	0.711279	0.035091	0.453977
C82	C	0.711281	0.035089	0.546167
C83	C	0.633374	0.112955	0.546149
C84	C	0.633370	0.112954	0.453961
C85	C	0.672325	0.074022	0.407878
C86	C	0.672331	0.074022	0.592255
C87	C	0.672333	0.074021	0.692211
C88	C	0.672323	0.074022	0.307915
H89	H	0.118445	0.073370	-0.224627
C90	C	0.723420	-0.255897	-0.172415
C91	C	0.674869	-0.215050	-0.167530
H92	H	0.723176	-0.276034	-0.226604
H93	H	0.756911	-0.237267	-0.169082
H94	H	0.723095	-0.282099	-0.124879
H95	H	0.675196	-0.188846	-0.215062
H96	H	0.641370	-0.233682	-0.170871
C97	C	0.675871	-0.129034	0.237769
C98	C	0.676348	-0.090420	0.167690
H99	H	0.676098	-0.108880	0.291945
H100	H	0.642383	-0.147667	0.234427
H101	H	0.708816	-0.156737	0.234470
H102	H	0.643400	-0.062719	0.170985
H103	H	0.709840	-0.071778	0.171034
H104	H	0.674965	-0.206647	0.144933
C105	C	0.002294	0.022926	0.172551
C106	C	-0.038548	0.071482	0.167667
H107	H	0.022452	0.023169	0.226726
H108	H	-0.016344	-0.010561	0.169246
H109	H	0.028478	0.023245	0.124997
H110	H	-0.064735	0.071161	0.215217
H111	H	-0.019910	0.104978	0.170980
H112	H	-0.154788	0.070087	-0.144773
H113	H	0.672931	-0.372113	0.224747
C114	C	-0.221652	0.069269	0.150805
C115	C	-0.163246	0.069976	0.167673
H116	H	-0.241807	0.069018	0.204981
H117	H	-0.235922	0.102369	0.118003
H118	H	-0.226837	0.035935	0.118002
H119	H	-0.158060	0.103312	0.200471
H120	H	-0.148971	0.036873	0.200489
C121	C	0.719149	-0.609426	0.172530
C122	C	0.669774	-0.636888	0.167641
H123	H	0.719388	-0.589282	0.226714
H124	H	0.752081	-0.637136	0.169211
H125	H	0.719459	-0.583227	0.124988
H126	H	0.669467	-0.663090	0.215180
H127	H	0.636834	-0.609174	0.170969
H128	H	0.742999	0.003390	0.416458
C129	C	0.620554	0.190529	0.350259
C130	C	0.590550	0.155752	0.403281
H131	H	0.594119	0.216945	0.318968
H132	H	0.644135	0.210890	0.386215
H133	H	0.643749	0.167334	0.309624
H134	H	0.567359	0.178947	0.443920
H135	H	0.566959	0.135388	0.367322
C136	C	0.788292	-0.041871	0.536918
C137	C	0.754102	-0.007703	0.596839
H138	H	0.814731	-0.068288	0.568203
H139	H	0.764706	-0.062233	0.500971
H140	H	0.808635	-0.018264	0.500953
H141	H	0.733757	-0.031310	0.632801
H142	H	0.777692	0.012661	0.632802
C143	C	0.293062	0.075479	-0.230546
C144	C	0.234652	0.074772	-0.247381
H145	H	0.313205	0.075724	-0.284733
H146	H	0.298255	0.108810	-0.197755
H147	H	0.307340	0.042377	-0.197742
H148	H	0.220373	0.107877	-0.280179
H149	H	0.229455	0.041438	-0.280185
H150	H	0.226195	0.074649	0.224746
H151	H	0.601657	0.144653	0.583680
C152	C	0.671989	-0.449715	0.317558
C153	C	0.671534	-0.488328	0.247493
H154	H	0.671733	-0.469867	0.371741
H155	H	0.705485	-0.431091	0.314246
H156	H	0.639051	-0.422004	0.314210
H157	H	0.704474	-0.516037	0.250838
H158	H	0.638035	-0.506962	0.250807
C159	C	0.672610	-0.402211	-0.317440
C160	C	0.673077	-0.363601	-0.247373
H161	H	0.672845	-0.382054	-0.371622
H162	H	0.705547	-0.429915	-0.314116
H163	H	0.639113	-0.420842	-0.314107
H164	H	0.706575	-0.344972	-0.250703
H165	H	0.640136	-0.335887	-0.250699
H166	H	0.391673	0.076669	-0.144806
C167	C	-0.077199	0.071026	-0.237598
C168	C	-0.038576	0.071484	-0.167536
H169	H	-0.057054	0.071279	-0.291783
H170	H	-0.095823	0.037530	-0.234270
H171	H	-0.104909	0.103964	-0.234263
H172	H	-0.010868	0.038543	-0.170867
H173	H	-0.019943	0.104983	-0.170866
H174	H	0.499438	0.077968	-0.144802
C175	C	0.469281	0.077606	0.237711
C176	C	0.507897	0.078073	0.167643
H177	H	0.489434	0.077843	0.291892
H178	H	0.441577	0.110542	0.234380
H179	H	0.450652	0.044109	0.234387
H180	H	0.526524	0.111572	0.170963
H181	H	0.535612	0.045133	0.170976
C182	C	0.355768	0.027182	0.172554
C183	C	0.383223	0.076562	0.167653
H184	H	0.335626	0.026938	0.226743
H185	H	0.329575	0.026869	0.125022
H186	H	0.383487	-0.005750	0.169236
H187	H	0.355504	0.109494	0.170965
H188	H	0.409419	0.076880	0.215198
H189	H	0.668387	-0.753071	-0.144817
C190	C	0.668738	-0.722957	0.237697
C191	C	0.668277	-0.761566	0.167627
H192	H	0.668488	-0.743114	0.291877
H193	H	0.702233	-0.704332	0.234380
H194	H	0.635800	-0.695247	0.234361
H195	H	0.701217	-0.789274	0.170960
H196	H	0.634778	-0.780200	0.170946
C197	C	0.131038	0.024453	0.295843
C198	C	0.109984	0.073246	0.247495
H199	H	0.110892	0.024212	0.350028
H200	H	0.125836	-0.008874	0.263048
H201	H	0.170665	0.024935	0.307255
H202	H	0.070357	0.072761	0.236077
H203	H	0.115181	0.106581	0.280296
C204	C	0.675912	-0.128983	-0.237578
C205	C	0.676380	-0.090377	-0.167505
H206	H	0.676153	-0.108823	-0.291757
H207	H	0.708847	-0.156689	-0.234254
H208	H	0.642414	-0.147611	-0.234253
H209	H	0.709881	-0.071752	-0.170826
H210	H	0.643442	-0.062661	-0.170831
H211	H	0.669687	-0.645306	-0.144816
C212	C	0.622206	-0.515734	-0.252292
C213	C	0.671580	-0.488272	-0.247385
H214	H	0.621970	-0.535869	-0.306483
H215	H	0.621892	-0.541934	-0.204763
H216	H	0.589270	-0.488020	-0.248972
H217	H	0.704516	-0.515986	-0.250698
H218	H	0.671899	-0.462069	-0.294927
