data_functionalizedCrystal
_audit_creation_method	'MofGen! by Chris Wilmer'
_symmetry_space_group_name_H-M	'P1'
_symmetry_Int_Tables_number	1
_symmetry_cell_setting	triclinic
loop_
_symmetry_equiv_pos_as_xyz
  x,y,z
_cell_length_a	12.759394
_cell_length_b	12.827893
_cell_length_c	12.827885
_cell_angle_alpha	89.980538
_cell_angle_beta	89.968776
_cell_angle_gamma	90.014808
loop_
_atom_site_label
_atom_site_type_symbol
_atom_site_fract_x
_atom_site_fract_y
_atom_site_fract_z
Zn1	Zn	-0.418216	1.597676	-0.590838
Zn2	Zn	-0.593932	1.597571	-0.416094
Zn3	Zn	-0.418268	1.422916	-0.416112
Zn4	Zn	-0.593854	1.422904	-0.590794
O5	O	-0.506068	1.510267	-0.503460
O6	O	-0.441537	1.743898	-0.567669
O7	O	-0.570684	1.574364	-0.269860
O8	O	-0.271240	1.446148	-0.439316
O9	O	-0.570634	1.743821	-0.439285
O10	O	-0.271202	1.574542	-0.567686
O11	O	-0.441624	1.446046	-0.269873
O12	O	-0.441548	1.276679	-0.439273
O13	O	-0.570501	1.446126	-0.737036
O14	O	-0.570551	1.276670	-0.567611
O15	O	-0.441461	1.574530	-0.737069
O16	O	-0.740943	1.574352	-0.439243
O17	O	-0.740885	1.446025	-0.567594
C18	C	-0.506047	1.238757	-0.503440
C19	C	-0.506064	1.122604	-0.503456
C20	C	-0.569998	1.070842	-0.566864
C21	C	-0.570017	0.950792	-0.566882
C22	C	-0.779035	1.510204	-0.503434
C23	C	-0.895812	1.510273	-0.503458
C24	C	-0.895818	1.644000	-0.369906
C25	C	-0.950682	1.710891	-0.303143
C26	C	-1.060404	1.710952	-0.303171
C27	C	-1.115264	1.644117	-0.369973
C28	C	-1.060400	1.577227	-0.436736
C29	C	-0.950676	1.577170	-0.436698
C30	C	-1.060393	1.443506	-0.570292
C31	C	-0.950672	1.443438	-0.570260
C32	C	-1.115253	1.376672	-0.637094
C33	C	-1.060389	1.309774	-0.703854
C34	C	-0.950661	1.309715	-0.703822
C35	C	-0.895808	1.376547	-0.637024
C36	C	-0.232034	1.510358	-0.503508
C37	C	-0.115257	1.510397	-0.503528
C38	C	-0.505967	1.510339	-0.776030
C39	C	-0.505924	1.510369	-0.892183
C40	C	-0.506089	1.782837	-0.503480
C41	C	-0.506098	1.898990	-0.503489
C42	C	-0.442048	1.446894	-0.943974
C43	C	-0.442002	1.446924	-1.064025
C44	C	-0.506092	1.510255	-0.231950
C45	C	-0.505839	1.510427	-0.115797
H46	H	-0.806477	1.643943	-0.369863
Br47	Br	-0.876226	1.801598	-0.212496
H48	H	-0.905997	1.255248	-0.758193
H49	H	-0.624756	0.906278	-0.621165
H50	H	-0.560524	1.564777	-1.071265
H51	H	-0.560577	1.564734	-0.936720
Br52	Br	-1.134867	1.801740	-0.212571
Br53	Br	-1.264171	1.643713	-0.369520
H54	H	-1.204595	1.376731	-0.637117
H55	H	-0.624717	1.115404	-0.621140
H56	H	-0.451337	1.078042	-0.449188
Br57	Br	-0.414867	0.973168	-0.412991
H58	H	-0.387400	1.392524	-0.899438
Br59	Br	-1.134846	1.219090	-0.794513
H60	H	-0.806467	1.376499	-0.636984
H61	H	-0.387312	1.392585	-1.108564
