data_functionalizedCrystal
_audit_creation_method	'MofGen! by Chris Wilmer'
_symmetry_space_group_name_H-M	'P1'
_symmetry_Int_Tables_number	1
_symmetry_cell_setting	triclinic
loop_
_symmetry_equiv_pos_as_xyz
  x,y,z
_cell_length_a	19.077105
_cell_length_b	18.101395
_cell_length_c	19.077271
_cell_angle_alpha	87.673669
_cell_angle_beta	89.892926
_cell_angle_gamma	87.727498
loop_
_atom_site_label
_atom_site_type_symbol
_atom_site_fract_x
_atom_site_fract_y
_atom_site_fract_z
Zn1	Zn	1.058238	-0.321027	-0.440430
Zn2	Zn	1.558238	0.178973	0.059570
Zn3	Zn	1.062863	-0.450036	-0.322922
Zn4	Zn	1.562863	0.049964	0.177078
Zn5	Zn	0.945455	-0.321441	-0.318220
Zn6	Zn	1.445455	0.178559	0.181780
Zn7	Zn	0.940687	-0.440055	-0.435676
Zn8	Zn	1.440687	0.059945	0.064324
O9	O	1.001811	-0.383140	-0.379312
O10	O	1.501811	0.116860	0.120688
O11	O	1.157183	-0.342145	-0.428799
O12	O	1.657183	0.157855	0.071201
O13	O	1.051220	-0.437328	-0.223965
O14	O	1.551220	0.062672	0.276035
O15	O	0.960476	-0.217755	-0.334454
O16	O	1.460476	0.282245	0.165546
O17	O	1.160581	-0.436927	-0.342466
O18	O	1.660581	0.063073	0.157534
O19	O	1.043338	-0.217451	-0.424240
O20	O	1.543338	0.282549	0.075760
O21	O	0.964961	-0.342850	-0.220511
O22	O	1.464961	0.157150	0.279489
O23	O	0.846491	-0.333171	-0.329845
O24	O	1.346491	0.166829	0.170155
O25	O	0.952349	-0.419915	-0.534640
O26	O	1.452349	0.080085	-0.034640
O27	O	0.842988	-0.420316	-0.416139
O28	O	1.342988	0.079684	0.083861
O29	O	1.038714	-0.332466	-0.538132
O30	O	1.538714	0.167534	-0.038132
O31	O	1.046596	-0.552344	-0.337857
O32	O	1.546596	-0.052344	0.162143
O33	O	0.956834	-0.545010	-0.420697
O34	O	1.456834	-0.045010	0.079303
C35	C	0.819243	-0.375706	-0.371966
C36	C	1.319243	0.124294	0.128034
C37	C	0.741140	-0.372543	-0.368840
C38	C	1.241140	0.127457	0.131160
C39	C	1.001718	-0.575547	-0.379288
C40	C	1.501718	-0.075547	0.120712
C41	C	1.001741	-0.657862	-0.379303
C42	C	1.501741	-0.157862	0.120697
C43	C	0.702643	-0.416503	-0.412230
C44	C	1.202643	0.083497	0.087770
C45	C	0.629256	-0.413521	-0.409296
C46	C	1.129256	0.086479	0.090704
C47	C	0.594367	-0.366582	-0.362969
C48	C	1.094367	0.133418	0.137031
C49	C	0.632868	-0.322617	-0.319577
C50	C	1.132868	0.177383	0.180423
C51	C	0.706254	-0.325596	-0.322515
C52	C	1.206254	0.174404	0.177485
C53	C	0.375081	-0.352797	-0.349376
C54	C	0.875081	0.147203	0.150624
C55	C	0.301690	-0.349823	-0.346440
C56	C	0.801690	0.150177	0.153560
C57	C	0.298084	-0.440727	-0.436160
C58	C	0.798084	0.059273	0.063840
C59	C	0.371471	-0.443704	-0.439091
C60	C	0.871471	0.056296	0.060909
C61	C	0.409966	-0.399736	-0.395702
C62	C	0.909966	0.100264	0.104298
N63	N	0.519354	-0.363535	-0.359967
N64	N	1.019354	0.136465	0.140033
N65	N	0.484977	-0.402780	-0.398707
N66	N	0.984977	0.097220	0.101293
C67	C	1.001894	-0.956957	-0.379347
C68	C	1.501894	-0.456957	0.120653
C69	C	0.945538	-0.921048	-0.431608
C70	C	1.445538	-0.421048	0.068392
C71	C	0.945288	-0.835427	-0.431427
C72	C	1.445288	-0.335427	0.068573
C73	C	1.001818	-0.808573	-0.379326
C74	C	1.501818	-0.308573	0.120674
C75	C	0.984747	-0.842164	-0.304464
C76	C	1.484747	-0.342164	0.195536
C77	C	0.984384	-0.927781	-0.304776
C78	C	1.484384	-0.427781	0.195224
C79	C	1.075466	-0.927488	-0.401301
C80	C	1.575466	-0.427488	0.098699
C81	C	1.074963	-0.841748	-0.402908
C82	C	1.574963	-0.341748	0.097092
C83	C	1.001777	-0.724712	-0.379309
C84	C	1.501777	-0.224712	0.120691
C85	C	1.001934	-1.040818	-0.379359
C86	C	1.501934	-0.540818	0.120641
C87	C	1.185091	-0.390603	-0.386687
C88	C	1.685091	0.109397	0.113313
C89	C	1.263194	-0.393784	-0.389829
C90	C	1.763194	0.106216	0.110171
C91	C	0.994484	-0.375031	-0.562596
C92	C	1.494484	0.124969	-0.062596
C93	C	0.991361	-0.371575	-0.640700
C94	C	1.491361	0.128425	-0.140700
C95	C	1.001923	-0.189981	-0.379353
C96	C	1.501923	0.310019	0.120647
C97	C	1.001971	-0.107668	-0.379370
C98	C	1.501971	0.392332	0.120630
C99	C	0.968967	-0.346850	-1.080154
C100	C	1.468967	0.153150	-0.580154
C101	C	0.971904	-0.350094	-1.006767
C102	C	1.471904	0.149906	-0.506767
C103	C	1.018280	-0.400910	-0.971870
C104	C	1.518280	0.099090	-0.471870
C105	C	1.061725	-0.448480	-1.010365
C106	C	1.561725	0.051520	-0.510365
C107	C	1.058791	-0.445231	-1.083752
C108	C	1.558791	0.054769	-0.583752
C109	C	1.031873	-0.415897	-0.752582
C110	C	1.531873	0.084103	-0.252582
C111	C	1.034803	-0.419143	-0.679190
C112	C	1.534803	0.080857	-0.179190
C113	C	0.944982	-0.320756	-0.675597
C114	C	1.444982	0.179244	-0.175597
C115	C	0.942049	-0.317515	-0.748984
C116	C	1.442049	0.182485	-0.248984
C117	C	0.985498	-0.365082	-0.787473
C118	C	1.485498	0.134918	-0.287473
N119	N	1.021281	-0.404229	-0.896857
N120	N	1.521281	0.095771	-0.396857
N121	N	0.982499	-0.361759	-0.862486
N122	N	1.482499	0.138241	-0.362486
C123	C	1.009150	-0.391165	-0.196743
C124	C	1.509150	0.108835	0.303257
C125	C	1.012408	-0.394418	-0.118644
C126	C	1.512408	0.105582	0.381356
H127	H	0.731045	-0.454729	-0.449952
H128	H	1.231045	0.045271	0.050048
C129	C	0.409844	-0.495345	-0.490051
C130	C	0.909844	0.004655	0.009949
N131	N	0.438746	-0.534244	-0.528432
N132	N	0.938746	-0.034244	-0.028432
C133	C	0.917951	-0.290948	-1.118533
C134	C	1.417951	0.209052	-0.618533
N135	N	0.879527	-0.248838	-1.147439
N136	N	1.379527	0.251162	-0.647439
H137	H	1.094167	-0.483965	-1.115089
H138	H	1.594167	0.016035	-0.615089
H139	H	0.597916	-0.449319	-0.444628
H140	H	1.097916	0.050681	0.055372
C141	C	0.913000	-0.811302	-0.279452
C142	C	1.413000	-0.311302	0.220548
N143	N	0.858959	-0.788058	-0.260616
N144	N	1.358959	-0.288058	0.239384
C145	C	1.097274	-0.954445	-0.474007
C146	C	1.597274	-0.454445	0.025993
N147	N	1.113692	-0.974748	-0.528772
N148	N	1.613692	-0.474748	-0.028772
H149	H	1.087891	-0.819604	-0.458017
H150	H	1.587891	-0.319604	0.041983
H151	H	0.266733	-0.476522	-0.471486
H152	H	0.766733	0.023478	0.028514
H153	H	0.904282	-0.276139	-0.777392
H154	H	1.404282	0.223861	-0.277392
H155	H	0.273286	-0.311591	-0.308719
H156	H	0.773286	0.188409	0.191281
H157	H	1.118933	-0.823679	-0.367855
H158	H	1.618933	-0.323679	0.132145
H159	H	1.117416	-0.951121	-0.363274
H160	H	1.617416	-0.451121	0.136726
C161	C	0.594487	-0.270982	-0.268618
C162	C	1.094487	0.229018	0.231382
N163	N	0.565579	-0.232090	-0.230233
N164	N	1.065579	0.267910	0.269767
C165	C	0.417416	-0.304435	-0.301642
C166	C	0.917416	0.195565	0.198358
N167	N	0.449305	-0.268008	-0.265685
N168	N	0.949305	0.231992	0.234315
C169	C	0.959248	-0.804396	-0.506293
C170	C	1.459248	-0.304396	-0.006293
N171	N	0.969760	-0.781027	-0.562686
N172	N	1.469760	-0.281027	-0.062686
H173	H	0.737596	-0.289794	-0.287186
H174	H	1.237596	0.210206	0.212814
C175	C	1.112739	-0.504378	-0.971977
C176	C	1.612739	-0.004378	-0.471977
N177	N	1.151161	-0.546484	-0.943063
N178	N	1.651161	-0.046484	-0.443063
C179	C	0.924114	-0.297768	-0.964431
C180	C	1.424114	0.202232	-0.464431
N181	N	0.888115	-0.258353	-0.932544
N182	N	1.388115	0.241647	-0.432544
H183	H	0.909610	-0.282029	-0.644251
H184	H	1.409610	0.217971	-0.144251
C185	C	0.959318	-0.946223	-0.506707
C186	C	1.459318	-0.446223	-0.006707
N187	N	0.969696	-0.965192	-0.563274
N188	N	1.469696	-0.465192	-0.063274
C189	C	1.085808	-0.475060	-0.640805
C190	C	1.585808	0.024940	-0.140805
N191	N	1.124216	-0.517182	-0.611893
N192	N	1.624216	-0.017182	-0.111893
H193	H	0.891274	-0.940954	-0.417002
H194	H	1.391274	-0.440954	0.082998
C195	C	0.871520	-0.805551	-0.411515
C196	C	1.371520	-0.305551	0.088485
N197	N	0.815951	-0.783048	-0.396533
N198	N	1.315951	-0.283048	0.103467
H199	H	1.067250	-0.454631	-0.783911
H200	H	1.567250	0.045369	-0.283911
H201	H	0.930692	-0.946322	-0.286525
H202	H	1.430692	-0.446322	0.213475
C203	C	1.037641	-0.960334	-0.250155
C204	C	1.537641	-0.460334	0.249845
N205	N	1.077749	-0.984850	-0.209011
N206	N	1.577749	-0.484850	0.290989
H207	H	1.024633	-0.825179	-0.264334
H208	H	1.524633	-0.325179	0.235666
