data_functionalizedCrystal
_audit_creation_method	'MofGen! by Chris Wilmer'
_symmetry_space_group_name_H-M	'P1'
_symmetry_Int_Tables_number	1
_symmetry_cell_setting	triclinic
loop_
_symmetry_equiv_pos_as_xyz
  x,y,z
_cell_length_a	19.288864
_cell_length_b	17.699083
_cell_length_c	18.366186
_cell_angle_alpha	89.992864
_cell_angle_beta	89.977106
_cell_angle_gamma	83.209630
loop_
_atom_site_label
_atom_site_type_symbol
_atom_site_fract_x
_atom_site_fract_y
_atom_site_fract_z
O1	O	0.921465	0.094417	-0.060785
O2	O	1.254798	0.427751	0.272549
O3	O	1.588131	0.761084	0.605882
O4	O	0.719219	0.107154	-0.060735
O5	O	1.052552	0.440487	0.272598
O6	O	1.385886	0.773821	0.605932
O7	O	0.826056	-0.009412	-0.060755
O8	O	1.159389	0.323922	0.272579
O9	O	1.492722	0.657255	0.605912
O10	O	0.814628	0.210983	-0.060765
O11	O	1.147961	0.544316	0.272569
O12	O	1.481294	0.877649	0.605902
O13	O	0.826038	-0.009417	0.060345
O14	O	1.159371	0.323916	0.393678
O15	O	1.492704	0.657249	0.727011
O16	O	0.719201	0.107148	0.060364
O17	O	1.052534	0.440482	0.393698
O18	O	1.385867	0.773815	0.727031
O19	O	0.921446	0.094412	0.060315
O20	O	1.254780	0.427745	0.393648
O21	O	1.588113	0.761078	0.726981
Zn22	Zn	0.820321	0.100779	0.079567
Zn23	Zn	1.153654	0.434112	0.412900
Zn24	Zn	1.486987	0.767446	0.746233
Zn25	Zn	0.820345	0.100786	-0.079987
Zn26	Zn	1.153678	0.434120	0.253346
Zn27	Zn	1.487011	0.767453	0.586680
O28	O	0.814610	0.210977	0.060335
O29	O	1.147943	0.544310	0.393668
O30	O	1.481276	0.877644	0.727001
C31	C	0.693333	0.106741	-0.000179
C32	C	1.026666	0.440075	0.333154
C33	C	1.360000	0.773408	0.666488
C34	C	0.616228	0.105511	-0.000160
C35	C	0.949561	0.438844	0.333174
C36	C	1.282895	0.772178	0.666507
C37	C	0.825637	-0.037611	-0.000205
C38	C	1.158970	0.295722	0.333128
C39	C	1.492304	0.629056	0.666462
C40	C	0.824409	-0.121627	-0.000204
C41	C	1.157742	0.211706	0.333129
C42	C	1.491075	0.545039	0.666462
C43	C	0.571613	0.173906	-0.000174
C44	C	0.904946	0.507240	0.333159
C45	C	1.238279	0.840573	0.666492
C46	C	0.499164	0.172751	-0.000182
C47	C	0.832497	0.506084	0.333151
C48	C	1.165831	0.839417	0.666484
C49	C	0.471334	0.103196	-0.000190
C50	C	0.804668	0.436529	0.333143
C51	C	1.138001	0.769862	0.666476
C52	C	0.515959	0.034791	-0.000172
C53	C	0.849293	0.368124	0.333162
C54	C	1.182626	0.701458	0.666495
C55	C	0.588406	0.035949	-0.000156
C56	C	0.921740	0.369282	0.333177
C57	C	1.255073	0.702616	0.666510
C58	C	0.363014	0.048520	-0.042639
C59	C	0.696347	0.381853	0.290695
C60	C	1.029681	0.715186	0.624028
C61	C	0.290568	0.047365	-0.042659
C62	C	0.623901	0.380698	0.290675
C63	C	0.957235	0.714031	0.624008
C64	C	0.247884	0.099622	-0.000234
C65	C	0.581218	0.432955	0.333099
C66	C	0.914551	0.766289	0.666432
C67	C	0.277654	0.153047	0.042200
C68	C	0.610987	0.486380	0.375534
C69	C	0.944321	0.819713	0.708867
C70	C	0.350101	0.154205	0.042216
C71	C	0.683434	0.487538	0.375549
C72	C	1.016768	0.820871	0.708882
C73	C	0.392779	0.101932	-0.000206
C74	C	0.726112	0.435266	0.333127
C75	C	1.059445	0.768599	0.666460
C76	C	0.124712	0.166769	-0.000256
C77	C	0.458045	0.500102	0.333077
C78	C	0.791378	0.833435	0.666410
C79	C	0.052262	0.165610	-0.000260
C80	C	0.385596	0.498943	0.333073
C81	C	0.718929	0.832277	0.666407
C82	C	0.069059	0.027649	-0.000257
C83	C	0.402393	0.360982	0.333077
C84	C	0.735726	0.694315	0.666410
C85	C	0.141507	0.028809	-0.000246
C86	C	0.474840	0.362143	0.333087
C87	C	0.808174	0.695476	0.666421
C88	C	0.169329	0.098371	-0.000249
C89	C	0.502662	0.431705	0.333084
C90	C	0.835995	0.765038	0.666417
C91	C	0.887120	-0.170336	-0.000219
C92	C	1.220453	0.162997	0.333115
C93	C	1.553786	0.496330	0.666448
C94	C	0.885961	-0.249278	-0.000225
C95	C	1.219295	0.084055	0.333109
C96	C	1.552628	0.417389	0.666442
C97	C	0.822091	-0.279509	-0.000211
C98	C	1.155424	0.053824	0.333122
C99	C	1.488758	0.387158	0.666455
C100	C	0.759375	-0.230794	-0.000199
C101	C	1.092709	0.102540	0.333134
C102	C	1.426042	0.435873	0.666467
C103	C	0.760535	-0.151854	-0.000198
C104	C	1.093868	0.181480	0.333135
C105	C	1.427201	0.514813	0.666468
C106	C	0.754699	-0.549150	-0.000204
C107	C	1.088033	-0.215817	0.333129
C108	C	1.421366	0.117516	0.666463
C109	C	0.753545	-0.628097	-0.000203
C110	C	1.086878	-0.294763	0.333131
C111	C	1.420212	0.038570	0.666464
C112	C	0.880126	-0.646575	-0.000230
C113	C	1.213459	-0.313241	0.333103
C114	C	1.546793	0.020092	0.666436
C115	C	0.881285	-0.567635	-0.000230
C116	C	1.214618	-0.234301	0.333104
C117	C	1.547952	0.099032	0.666437
C118	C	0.818570	-0.518926	-0.000221
C119	C	1.151903	-0.185593	0.333112
C120	C	1.485236	0.147740	0.666445
C121	C	0.819827	-0.433329	-0.000216
C122	C	1.153160	-0.099995	0.333117
C123	C	1.486493	0.233338	0.666451
C124	C	0.820834	-0.365105	-0.000211
C125	C	1.154167	-0.031772	0.333122
C126	C	1.487500	0.301562	0.666455
C127	C	0.947332	0.094824	-0.000243
C128	C	1.280666	0.428158	0.333090
C129	C	1.613999	0.761491	0.666424
C130	C	1.024437	0.096054	-0.000267
C131	C	1.357771	0.429388	0.333067
C132	C	1.691104	0.762721	0.666400
C133	C	0.815028	0.239176	-0.000217
C134	C	1.148362	0.572510	0.333116
C135	C	1.481695	0.905843	0.666450
C136	C	0.816257	0.323193	-0.000222
C137	C	1.149590	0.656526	0.333111
C138	C	1.482923	0.989859	0.666444
N139	N	0.820310	0.100773	0.188458
N140	N	1.153643	0.434107	0.521791
N141	N	1.486976	0.767440	0.855125
N142	N	0.820361	0.100786	-0.188878
N143	N	1.153695	0.434119	0.144455
N144	N	1.487028	0.767453	0.477789
C145	C	0.867632	0.049183	0.226550
C146	C	1.200966	0.382517	0.559883
C147	C	1.534299	0.715850	0.893216
C148	C	0.867637	0.049180	0.302777
C149	C	1.200970	0.382513	0.636111
C150	C	1.534303	0.715847	0.969444
C151	C	0.820325	0.100780	0.340911
C152	C	1.153658	0.434113	0.674244
C153	C	1.486992	0.767446	1.007577
C154	C	0.772993	0.152373	0.302810
C155	C	1.106327	0.485707	0.636143
C156	C	1.439660	0.819040	0.969476
C157	C	0.772986	0.152370	0.226583
C158	C	1.106319	0.485704	0.559917
C159	C	1.439652	0.819037	0.893250
C160	C	0.811108	0.169742	0.461669
C161	C	1.144442	0.503075	0.795002
C162	C	1.477775	0.836408	1.128336
C163	C	0.811121	0.169746	0.537894
C164	C	1.144454	0.503079	0.871227
C165	C	1.477788	0.836412	1.204561
C166	C	0.820345	0.100789	0.576018
C167	C	1.153678	0.434122	0.909351
C168	C	1.487011	0.767456	1.242685
C169	C	0.829571	0.031825	0.537908
C170	C	1.162904	0.365159	0.871241
C171	C	1.496237	0.698492	1.204574
C172	C	0.829563	0.031822	0.461681
C173	C	1.162896	0.365156	0.795015
C174	C	1.496230	0.698489	1.128348
C175	C	0.820328	0.100788	0.423565
C176	C	1.153661	0.434122	0.756899
C177	C	1.486994	0.767455	1.090232
C178	C	0.867675	0.049191	0.696765
C179	C	1.201008	0.382524	1.030098
C180	C	1.534341	0.715858	1.363431
C181	C	0.867674	0.049187	0.772994
C182	C	1.201008	0.382520	1.106327
C183	C	1.534341	0.715853	1.439661
C184	C	0.773034	0.152387	0.773025
C185	C	1.106368	0.485720	1.106358
C186	C	1.439701	0.819054	1.439692
C187	C	0.773031	0.152385	0.696797
C188	C	1.106365	0.485718	1.030130
C189	C	1.439698	0.819051	1.363464
C190	C	0.820355	0.100788	0.658672
C191	C	1.153689	0.434121	0.992005
C192	C	1.487022	0.767454	1.325338
H193	H	0.594260	0.230549	-0.000178
H194	H	0.927593	0.563883	0.333155
H195	H	1.260927	0.897216	0.666488
Cl196	Cl	0.967418	-0.132340	-0.000228
Cl197	Cl	1.300751	0.200993	0.333105
Cl198	Cl	1.634085	0.534327	0.666439
Cl199	Cl	0.841172	-0.054869	0.585826
Cl200	Cl	1.174506	0.278464	0.919160
Cl201	Cl	1.507839	0.611798	1.252493
H202	H	0.803585	0.225898	0.430635
H203	H	1.136919	0.559231	0.763968
H204	H	1.470252	0.892565	1.097302
H205	H	0.931192	-0.686243	-0.000241
H206	H	1.264525	-0.352910	0.333092
H207	H	1.597859	-0.019576	0.666426
Cl208	Cl	0.387524	0.221361	0.095563
Cl209	Cl	0.720857	0.554694	0.428896
Cl210	Cl	1.054191	0.888027	0.762230
Cl211	Cl	0.159691	0.254216	-0.000253
Cl212	Cl	0.493024	0.587550	0.333080
Cl213	Cl	0.826358	0.920883	0.666413
Cl214	Cl	0.673245	-0.666100	-0.000188
Cl215	Cl	1.006578	-0.332766	0.333146
Cl216	Cl	1.339912	0.000567	0.666479
H217	H	0.493296	-0.021841	-0.000188
H218	H	0.826629	0.311492	0.333145
H219	H	1.159962	0.644826	0.666478
Cl220	Cl	0.927134	-0.015681	0.350672
Cl221	Cl	1.260468	0.317652	0.684005
Cl222	Cl	1.593801	0.650985	1.017339
H223	H	0.703632	-0.509501	-0.000197
H224	H	1.036966	-0.176167	0.333136
H225	H	1.370299	0.157166	0.666470
Cl226	Cl	0.443066	0.258740	-0.000199
Cl227	Cl	0.776399	0.592073	0.333134
Cl228	Cl	1.109733	0.925407	0.666468
H229	H	0.015936	0.221308	-0.000268
H230	H	0.349270	0.554642	0.333066
H231	H	0.682603	0.887975	0.666399
Cl232	Cl	0.679081	-0.268799	-0.000191
Cl233	Cl	1.012414	0.064535	0.333142
Cl234	Cl	1.345748	0.397868	0.666475
Cl235	Cl	0.224003	0.218747	0.095538
Cl236	Cl	0.557336	0.552080	0.428871
Cl237	Cl	0.890669	0.885414	0.762204
H238	H	0.837073	-0.024330	0.430655
H239	H	1.170406	0.309003	0.763988
H240	H	1.503740	0.642336	1.097322
Cl241	Cl	0.681695	-0.090619	-0.000183
Cl242	Cl	1.015028	0.242715	0.333150
Cl243	Cl	1.348361	0.576048	0.666484
Cl244	Cl	0.961582	-0.529635	-0.000249
Cl245	Cl	1.294915	-0.196301	0.333084
Cl246	Cl	1.628249	0.137032	0.666418
H247	H	0.906208	0.007172	0.804009
H248	H	1.239541	0.340505	1.137342
H249	H	1.572875	0.673839	1.470675
Cl250	Cl	0.927164	-0.015677	0.648834
Cl251	Cl	1.260497	0.317656	0.982168
Cl252	Cl	1.593830	0.650989	1.315501
H253	H	0.906165	0.007168	0.195510
H254	H	1.239498	0.340502	0.528843
H255	H	1.572831	0.673835	0.862177
H256	H	0.266335	0.003866	-0.077214
H257	H	0.599669	0.337199	0.256119
H258	H	0.933002	0.670533	0.589452
Cl259	Cl	0.713551	0.217249	0.820959
Cl260	Cl	1.046885	0.550583	1.154292
Cl261	Cl	1.380218	0.883916	1.487625
Cl262	Cl	0.713541	0.217248	0.648906
Cl263	Cl	1.046874	0.550581	0.982239
Cl264	Cl	1.380207	0.883914	1.315573
H265	H	0.803613	0.225900	0.568918
H266	H	1.136946	0.559233	0.902251
H267	H	1.470280	0.892567	1.235584
Cl268	Cl	0.964802	-0.310510	-0.000241
Cl269	Cl	1.298135	0.022824	0.333093
Cl270	Cl	1.631468	0.356157	0.666426
Cl271	Cl	0.713512	0.217239	0.350747
Cl272	Cl	1.046846	0.550572	0.684080
Cl273	Cl	1.380179	0.883906	1.017414
H274	H	0.046401	-0.028984	-0.000308
H275	H	0.379734	0.304349	0.333025
H276	H	0.713068	0.637682	0.666358
Cl277	Cl	0.197598	-0.057179	-0.000232
Cl278	Cl	0.530931	0.276155	0.333101
Cl279	Cl	0.864265	0.609488	0.666435
H280	H	0.734449	0.194382	0.195569
H281	H	1.067782	0.527715	0.528902
H282	H	1.401116	0.861049	0.862235
H283	H	0.397762	0.005964	-0.077190
H284	H	0.731095	0.339297	0.256143
H285	H	1.064429	0.672631	0.589476
H286	H	0.624733	-0.019749	-0.000145
H287	H	0.958066	0.313585	0.333188
H288	H	1.291400	0.646918	0.666522
