data_functionalizedCrystal
_audit_creation_method	'MofGen! by Chris Wilmer'
_symmetry_space_group_name_H-M	'P1'
_symmetry_Int_Tables_number	1
_symmetry_cell_setting	triclinic
loop_
_symmetry_equiv_pos_as_xyz
  x,y,z
_cell_length_a	6.817900
_cell_length_b	16.417823
_cell_length_c	17.982856
_cell_angle_alpha	95.671816
_cell_angle_beta	102.449936
_cell_angle_gamma	103.385419
loop_
_atom_site_label
_atom_site_type_symbol
_atom_site_fract_x
_atom_site_fract_y
_atom_site_fract_z
V1	V	-4.014571	-0.116680	-0.237815
O2	O	-4.002826	0.004789	-0.233017
O3	O	-3.965681	-0.230571	-0.236449
O4	O	-3.961078	-0.115244	-0.341415
O5	O	-4.007462	-0.111336	-0.127324
V6	V	-4.498923	-0.102109	-0.224568
O7	O	-4.274012	-0.148644	-0.266874
O8	O	-4.689679	-0.070145	-0.195509
O9	O	-4.324606	0.011782	-0.225933
O10	O	-4.628064	-0.223578	-0.229366
O11	O	-4.623429	-0.107453	-0.335058
O12	O	-4.329210	-0.103545	-0.120967
C13	C	-3.810728	-0.258324	-0.232765
C14	C	-3.852007	-0.351433	-0.232339
C15	C	-3.949097	-0.640961	-0.161199
C16	C	-3.910284	-0.553472	-0.161587
C17	C	-3.983770	-0.577840	-0.301192
C18	C	-4.022568	-0.665327	-0.300803
C19	C	-4.005239	-0.696885	-0.230804
C20	C	-3.927628	-0.521909	-0.231581
C21	C	-3.885545	-0.427050	-0.232002
C22	C	-4.047321	-0.791750	-0.230383
C23	C	-3.804854	-0.111212	-0.366658
C24	C	-3.842398	-0.110792	-0.451354
C25	C	-3.899367	-0.187334	-0.502199
C26	C	-3.934651	-0.186937	-0.581779
C27	C	-3.912950	-0.109998	-0.610513
C28	C	-3.855982	-0.033450	-0.559662
C29	C	-3.820713	-0.033848	-0.480083
C30	C	-3.998218	-0.031845	-0.880592
C31	C	-4.033486	-0.031453	-0.960177
C32	C	-4.112156	-0.184934	-0.982288
C33	C	-4.076887	-0.185332	-0.902710
C34	C	-4.019932	-0.108785	-0.851866
C35	C	-3.981678	-0.109216	-0.765576
C36	C	-3.951190	-0.109566	-0.696801
C37	C	-4.142902	0.039530	-0.229615
C38	C	-4.080860	0.132639	-0.230046
C39	C	-4.148775	-0.107580	-0.095720
C40	C	-4.090471	-0.107996	-0.011024
H41	H	-3.981047	-0.249265	-0.623175
C42	C	-4.002870	-0.543124	-0.378185
H43	H	-3.971750	-0.483011	-0.368449
H44	H	-3.907962	-0.559729	-0.404367
H45	H	-4.140722	-0.565208	-0.409235
H46	H	-3.934978	-0.666652	-0.104201
H47	H	-3.864566	-0.507941	-0.104907
C48	C	-4.084310	-0.726851	-0.377370
H49	H	-4.104906	-0.783473	-0.367111
H50	H	-4.209422	-0.720262	-0.408563
H51	H	-3.976648	-0.714779	-0.403665
C52	C	-4.100760	-0.269962	-0.871103
H53	H	-4.071581	-0.259236	-0.816426
H54	H	-4.239076	-0.304112	-0.891177
H55	H	-4.006318	-0.298747	-0.886197
H56	H	-4.015823	0.031204	-0.983568
H57	H	-3.951845	0.030484	-0.839204
H58	H	-3.917027	-0.249986	-0.478810
C59	C	-4.174836	-0.269136	-1.038219
H60	H	-4.192759	-0.257885	-1.089730
H61	H	-4.068848	-0.298050	-1.027233
H62	H	-4.301603	-0.303414	-1.032206
C63	C	-3.832106	0.051182	-0.591267
H64	H	-3.861247	0.040458	-0.645942
H65	H	-3.926531	0.079969	-0.576172
H66	H	-3.693774	0.085328	-0.571190
C67	C	-3.758039	0.050348	-0.424154
H68	H	-3.750146	0.096228	-0.452662
H69	H	-3.859016	0.050701	-0.395139
H70	H	-3.626259	0.056066	-0.390162
