data_functionalizedCrystal
_audit_creation_method	'MofGen! by Chris Wilmer'
_symmetry_space_group_name_H-M	'P1'
_symmetry_Int_Tables_number	1
_symmetry_cell_setting	triclinic
loop_
_symmetry_equiv_pos_as_xyz
  x,y,z
_cell_length_a	16.109301
_cell_length_b	14.853567
_cell_length_c	14.586319
_cell_angle_alpha	90.000002
_cell_angle_beta	89.999213
_cell_angle_gamma	83.548205
loop_
_atom_site_label
_atom_site_type_symbol
_atom_site_fract_x
_atom_site_fract_y
_atom_site_fract_z
O1	O	1.103294	0.115881	-0.076175
O2	O	0.861252	0.130302	-0.076188
O3	O	0.988738	-0.008149	-0.076184
O4	O	0.975807	0.254332	-0.076179
O5	O	0.988729	-0.008151	0.076297
O6	O	0.861243	0.130300	0.076293
O7	O	1.103285	0.115879	0.076306
Cu8	Cu	0.982263	0.123089	0.090222
Cu9	Cu	0.982274	0.123091	-0.090104
O10	O	0.975799	0.254330	0.076302
C11	C	0.830272	0.129717	0.000050
C12	C	0.737974	0.127965	0.000045
C13	C	0.515811	0.206047	0.000057
C14	C	0.429089	0.204395	0.000063
C15	C	0.448732	0.040127	0.000056
C16	C	0.535453	0.041781	0.000057
C17	C	0.568990	0.124743	0.000052
C18	C	0.395546	0.121437	0.000058
C19	C	0.301518	0.119645	0.000064
C20	C	0.663025	0.126536	0.000048
C21	C	0.988148	-0.041738	0.000054
C22	C	0.986392	-0.141819	0.000046
C23	C	0.903241	-0.554215	0.000059
C24	C	1.054697	-0.575746	0.000067
C25	C	1.056348	-0.481715	0.000062
C26	C	0.981444	-0.423930	0.000056
C27	C	0.904889	-0.460175	0.000056
C28	C	1.132901	-0.445463	0.000071
C29	C	1.134555	-0.351426	0.000067
C30	C	1.059650	-0.293639	0.000055
C31	C	0.983093	-0.329890	0.000054
C32	C	0.908189	-0.272104	0.000048
C33	C	0.831630	-0.308353	0.000040
C34	C	0.829984	-0.402388	0.000044
C35	C	1.061296	-0.199604	0.000051
C36	C	0.909837	-0.178064	0.000046
C37	C	1.134265	0.116464	0.000066
C38	C	1.226563	0.118215	0.000065
C39	C	0.976389	0.287918	0.000062
C40	C	0.978145	0.387999	0.000064
N41	N	0.982262	0.123087	0.217054
N42	N	0.982281	0.123087	-0.216936
C43	C	1.038731	0.061801	0.452062
C44	C	1.038734	0.061799	0.548044
C45	C	0.925806	0.184375	0.548049
C46	C	0.925800	0.184372	0.452070
C47	C	0.982268	0.123086	0.404079
C48	C	0.982276	0.123087	0.596039
C49	C	0.982278	0.123085	0.700107
C50	C	0.982265	0.123087	0.300005
H51	H	0.385793	0.270600	0.000068
H52	H	1.193884	-0.492518	0.000084
C53	C	0.863693	0.251784	0.600848
N54	N	0.816909	0.302558	0.640615
C55	C	0.411833	-0.051127	0.000052
N56	N	0.384041	-0.119862	0.000045
C57	C	1.100842	-0.005627	0.600821
N58	N	1.147621	-0.056418	0.640573
C59	C	0.863720	0.251835	0.399285
N60	N	0.816976	0.302659	0.359527
C61	C	0.827435	-0.114506	0.000037
N62	N	0.765369	-0.066635	0.000031
C63	C	0.552699	0.297308	0.000064
N64	N	0.580480	0.366049	0.000074
C65	C	0.593954	-0.047665	0.000052
N66	N	0.638017	-0.115032	0.000051
C67	C	0.745777	-0.442269	0.000055
N68	N	0.682353	-0.472312	0.000071
C69	C	0.749238	-0.244777	0.000035
N70	N	0.687183	-0.196888	0.000028
C71	C	1.137087	-0.639313	0.000078
N72	N	1.199146	-0.687196	0.000084
C73	C	0.819030	-0.594090	0.000058
N74	N	0.755602	-0.624124	0.000062
C75	C	1.100840	-0.005622	0.399276
N76	N	1.147620	-0.056410	0.359519
H77	H	1.196894	-0.321921	0.000072
H78	H	1.123629	-0.170094	0.000064
