data_functionalizedCrystal
_audit_creation_method	'MofGen! by Chris Wilmer'
_symmetry_space_group_name_H-M	'P1'
_symmetry_Int_Tables_number	1
_symmetry_cell_setting	triclinic
loop_
_symmetry_equiv_pos_as_xyz
  x,y,z
_cell_length_a	6.817900
_cell_length_b	11.353959
_cell_length_c	12.200737
_cell_angle_alpha	103.765814
_cell_angle_beta	107.141108
_cell_angle_gamma	107.526623
loop_
_atom_site_label
_atom_site_type_symbol
_atom_site_fract_x
_atom_site_fract_y
_atom_site_fract_z
V1	V	-4.112920	-0.181240	-0.393861
V2	V	-3.612920	0.318760	0.106139
O3	O	-4.052947	0.008395	-0.349176
O4	O	-3.552947	0.508395	0.150824
O5	O	-4.107941	-0.359067	-0.426933
O6	O	-3.607941	0.140933	0.073067
O7	O	-4.081980	-0.178590	-0.549320
O8	O	-3.581980	0.321410	-0.049320
O9	O	-4.079088	-0.173331	-0.225942
O10	O	-3.579088	0.326669	0.274058
V11	V	-4.588659	-0.158542	-0.369432
V12	V	-4.088659	0.341458	0.130568
O13	O	-4.391253	-0.231032	-0.447449
O14	O	-3.891253	0.268968	0.052551
O15	O	-4.760524	-0.108750	-0.315844
O16	O	-4.260524	0.391250	0.184156
O17	O	-4.370432	0.019285	-0.336360
O18	O	-3.870432	0.519285	0.163640
O19	O	-4.766030	-0.348177	-0.414117
O20	O	-4.266030	0.151823	0.085883
O21	O	-4.739888	-0.166451	-0.537352
O22	O	-4.239888	0.333549	-0.037352
O23	O	-4.396393	-0.161192	-0.213973
O24	O	-3.896393	0.338808	0.286027
C25	C	-3.962940	-0.402413	-0.429949
C26	C	-3.462940	0.097587	0.070051
C27	C	-4.040273	-0.547790	-0.458025
C28	C	-3.540273	-0.047790	0.041975
C29	C	-3.929822	-0.172196	-0.586064
C30	C	-3.429822	0.327804	-0.086064
C31	C	-3.986096	-0.171205	-0.713388
C32	C	-3.486096	0.328795	-0.213388
C33	C	-4.020519	-0.594771	-0.367148
C34	C	-3.520519	-0.094771	0.132852
C35	C	-4.100445	-0.745025	-0.396164
C36	C	-3.600445	-0.245025	0.103836
C37	C	-4.031793	-0.170400	-0.816788
C38	C	-3.531793	0.329600	-0.316788
C39	C	-4.089137	-0.169384	-0.946507
C40	C	-3.589137	0.330616	-0.446507
C41	C	-4.178776	0.062624	-0.333343
C42	C	-3.678776	0.562624	0.166657
C43	C	-4.080683	0.208000	-0.305274
C44	C	-3.580683	0.708000	0.194726
C45	C	-4.211893	-0.167591	-0.177224
C46	C	-3.711893	0.332409	0.322776
C47	C	-4.134857	-0.168574	-0.049898
C48	C	-3.634857	0.331426	0.450102
H49	H	-4.176536	-0.816037	-0.495456
H50	H	-3.676536	-0.316037	0.004544
H51	H	-4.004607	-0.720991	-0.205982
H52	H	-3.504607	-0.220991	0.294018
H53	H	-4.116362	-0.618805	-0.557310
H54	H	-3.616362	-0.118805	-0.057310
H55	H	-3.944448	-0.523756	-0.267864
H56	H	-3.444448	-0.023756	0.232136
