data_functionalizedCrystal
_audit_creation_method	'MofGen! by Chris Wilmer'
_symmetry_space_group_name_H-M	'P1'
_symmetry_Int_Tables_number	1
_symmetry_cell_setting	triclinic
loop_
_symmetry_equiv_pos_as_xyz
  x,y,z
_cell_length_a	19.077269
_cell_length_b	16.959453
_cell_length_c	19.076919
_cell_angle_alpha	87.729058
_cell_angle_beta	85.330942
_cell_angle_gamma	87.727950
loop_
_atom_site_label
_atom_site_type_symbol
_atom_site_fract_x
_atom_site_fract_y
_atom_site_fract_z
Zn1	Zn	1.061653	-0.378611	0.355267
Zn2	Zn	1.394987	-0.045278	0.688600
Zn3	Zn	1.728320	0.288055	1.021934
Zn4	Zn	1.066307	-0.505685	0.237385
Zn5	Zn	1.399641	-0.172352	0.570719
Zn6	Zn	1.732974	0.160981	0.904052
Zn7	Zn	0.948510	-0.368426	0.242135
Zn8	Zn	1.281844	-0.035093	0.575468
Zn9	Zn	1.615177	0.298241	0.908801
Zn10	Zn	0.943738	-0.505646	0.359968
Zn11	Zn	1.277072	-0.172312	0.693301
Zn12	Zn	1.610405	0.161021	1.026635
O13	O	1.005052	-0.439592	0.298689
O14	O	1.338386	-0.106259	0.632022
O15	O	1.671719	0.227074	0.965355
O16	O	1.160917	-0.399747	0.335675
O17	O	1.494250	-0.066414	0.669008
O18	O	1.827583	0.266919	1.002341
O19	O	1.054626	-0.483232	0.139368
O20	O	1.387959	-0.149898	0.472701
O21	O	1.721293	0.183435	0.806034
O22	O	0.963568	-0.259170	0.257162
O23	O	1.296902	0.074164	0.590495
O24	O	1.630235	0.407497	0.923829
O25	O	1.164336	-0.493108	0.249067
O26	O	1.497669	-0.159775	0.582401
O27	O	1.831003	0.173559	0.915734
O28	O	1.046694	-0.266653	0.340280
O29	O	1.380027	0.066681	0.673613
O30	O	1.713361	0.400014	1.006947
O31	O	0.968081	-0.382388	0.142857
O32	O	1.301415	-0.049055	0.476190
O33	O	1.634748	0.284279	0.809524
O34	O	0.849231	-0.382349	0.261721
O35	O	1.182564	-0.049016	0.595054
O36	O	1.515898	0.284317	0.928387
O37	O	0.955435	-0.493040	0.457992
O38	O	1.288768	-0.159707	0.791325
O39	O	1.622102	0.173626	1.124659
O40	O	0.845725	-0.483164	0.348292
O41	O	1.179058	-0.149831	0.681626
O42	O	1.512392	0.183503	1.014959
O43	O	1.042067	-0.399709	0.454538
O44	O	1.375400	-0.066375	0.787871
O45	O	1.708733	0.266958	1.121205
O46	O	1.049999	-0.616288	0.253626
O47	O	1.383332	-0.282955	0.586959
O48	O	1.716665	0.050379	0.920293
O49	O	0.959948	-0.616259	0.343687
O50	O	1.293281	-0.282925	0.677020
O51	O	1.626615	0.050408	1.010354
C52	C	0.821900	-0.431648	0.306032
C53	C	1.155233	-0.098314	0.639366
C54	C	1.488567	0.235019	0.972699
C55	C	0.743546	-0.428269	0.309191
C56	C	1.076879	-0.094936	0.642524
C57	C	1.410213	0.238398	0.975857
C58	C	0.708515	-0.475204	0.265516
C59	C	1.041849	-0.141871	0.598849
C60	C	1.375182	0.191462	0.932182
C61	C	0.634893	-0.472030	0.268493
C62	C	0.968226	-0.138697	0.601826
C63	C	1.301560	0.194637	0.935159
C64	C	0.596303	-0.421916	0.315141
C65	C	0.929636	-0.088582	0.648475
C66	C	1.262970	0.244751	0.981808
C67	C	0.631339	-0.374979	0.358821
C68	C	0.964672	-0.041645	0.692154
C69	C	1.298006	0.291688	1.025488
C70	C	0.704960	-0.378157	0.355847
C71	C	1.038293	-0.044824	0.689181
C72	C	1.371626	0.288509	1.022514
C73	C	0.375929	-0.407209	0.328881
C74	C	0.709263	-0.073876	0.662215
C75	C	1.042596	0.259458	0.995548
C76	C	0.302304	-0.404032	0.331850
C77	C	0.635637	-0.070698	0.665184
C78	C	0.968970	0.262635	0.998517
C79	C	0.305863	-0.501085	0.241522
C80	C	0.639196	-0.167751	0.574856
C81	C	0.972530	0.165582	0.908189
C82	C	0.379485	-0.504256	0.238550
C83	C	0.712818	-0.170922	0.571883
C84	C	1.046152	0.162411	0.905216
C85	C	0.414514	-0.457322	0.282232
C86	C	0.747848	-0.123988	0.615565
C87	C	1.081181	0.209345	0.948899
N88	N	0.521049	-0.418668	0.318184
N89	N	0.854383	-0.085335	0.651517
N90	N	1.187716	0.247999	0.984850
N91	N	0.489767	-0.460574	0.279193
N92	N	0.823100	-0.127241	0.612526
N93	N	1.156433	0.206093	0.945859
C94	C	1.004979	-0.644954	0.298666
C95	C	1.338312	-0.311621	0.631999
C96	C	1.671646	0.021712	0.965332
C97	C	1.005011	-0.732813	0.298677
C98	C	1.338345	-0.399479	0.632010
C99	C	1.671678	-0.066146	0.965344
C100	C	0.958105	-0.774098	0.345537
C101	C	1.291438	-0.440765	0.678870
C102	C	1.624772	-0.107432	1.012203
C103	C	1.051952	-0.774083	0.251832
C104	C	1.385285	-0.440750	0.585165
C105	C	1.718619	-0.107416	0.918498
C106	C	1.051986	-0.856631	0.251843
C107	C	1.385320	-0.523298	0.585176
C108	C	1.718653	-0.189964	0.918510
C109	C	1.005080	-0.897916	0.298703
C110	C	1.338414	-0.564583	0.632036
C111	C	1.671747	-0.231250	0.965369
C112	C	0.958139	-0.856654	0.345551
C113	C	1.291473	-0.523321	0.678884
C114	C	1.624806	-0.189987	1.012218
C115	C	1.098931	-0.897900	0.205000
C116	C	1.432265	-0.564567	0.538334
C117	C	1.765598	-0.231233	0.871667
C118	C	1.098968	-0.980453	0.205010
C119	C	1.432301	-0.647120	0.538344
C120	C	1.765635	-0.313786	0.871677
C121	C	1.052058	-1.021740	0.251867
C122	C	1.385391	-0.688406	0.585201
C123	C	1.718724	-0.355073	0.918534
C124	C	1.005115	-0.980472	0.298717
C125	C	1.338448	-0.647139	0.632050
C126	C	1.671781	-0.313805	0.965384
C127	C	0.958208	-1.021758	0.345576
C128	C	1.291542	-0.688424	0.678910
C129	C	1.624875	-0.355091	1.012243
C130	C	0.911261	-0.980491	0.392423
C131	C	1.244595	-0.647158	0.725757
C132	C	1.577928	-0.313824	1.059090
C133	C	0.911229	-0.897941	0.392408
C134	C	1.244562	-0.564607	0.725741
C135	C	1.577896	-0.231274	1.059074
C136	C	1.052090	-1.104290	0.251883
C137	C	1.385423	-0.770957	0.585216
C138	C	1.718756	-0.437624	0.918549
C139	C	0.958243	-1.104313	0.345591
C140	C	1.291576	-0.770980	0.678924
C141	C	1.624909	-0.437647	1.012257
C142	C	1.188920	-0.447568	0.291317
C143	C	1.522253	-0.114235	0.624650
C144	C	1.855586	0.219098	0.957984
C145	C	1.267273	-0.450967	0.288175
C146	C	1.600606	-0.117634	0.621509
C147	C	1.933939	0.215699	0.954842
C148	C	0.997699	-0.447506	0.482559
C149	C	1.331033	-0.114173	0.815892
C150	C	1.664366	0.219160	1.149225
C151	C	0.994566	-0.450879	0.560913
C152	C	1.327899	-0.117545	0.894246
C153	C	1.661233	0.215788	1.227580
C154	C	1.005144	-0.233430	0.298726
C155	C	1.338478	0.099904	0.632060
C156	C	1.671811	0.433237	0.965393
C157	C	1.005184	-0.145576	0.298742
C158	C	1.338517	0.187758	0.632076
C159	C	1.671850	0.521091	0.965409
C160	C	1.012417	-0.431654	0.115533
C161	C	1.345750	-0.098320	0.448866
C162	C	1.679084	0.235013	0.782199
C163	C	1.015687	-0.428064	0.037173
C164	C	1.349020	-0.094731	0.370507
C165	C	1.682354	0.238602	0.703840
C166	C	1.038196	-0.403873	0.595927
C167	C	1.371529	-0.070539	0.929260
C168	C	1.704863	0.262794	1.262594
C169	C	1.035243	-0.407038	0.669549
C170	C	1.368577	-0.073705	1.002883
C171	C	1.701910	0.259628	1.336216
C172	C	0.988664	-0.457214	0.708157
C173	C	1.321997	-0.123881	1.041490
C174	C	1.655330	0.209452	1.374823
C175	C	0.945029	-0.504222	0.673138
C176	C	1.278362	-0.170889	1.006471
C177	C	1.611695	0.162444	1.339804
C178	C	0.947978	-0.501052	0.599516
C179	C	1.281312	-0.167719	0.932850
C180	C	1.614645	0.165614	1.266183
C181	C	0.975002	-0.471902	0.928533
C182	C	1.308335	-0.138569	1.261866
C183	C	1.641669	0.194765	1.595200
C184	C	0.972057	-0.475070	1.002159
C185	C	1.305390	-0.141737	1.335493
C186	C	1.638724	0.191596	1.668826
C187	C	1.062271	-0.377885	0.998566
C188	C	1.395604	-0.044552	1.331899
C189	C	1.728938	0.288782	1.665233
C190	C	1.065220	-0.374723	0.924944
C191	C	1.398553	-0.041389	1.258277
C192	C	1.731886	0.291944	1.591610
C193	C	1.021582	-0.421727	0.889931
C194	C	1.354916	-0.088394	1.223264
C195	C	1.688249	0.244939	1.556598
N196	N	0.985646	-0.460453	0.783411
N197	N	1.318979	-0.127120	1.116744
N198	N	1.652312	0.206214	1.450077
N199	N	1.024597	-0.418484	0.814678
N200	N	1.357930	-0.085151	1.148012
N201	N	1.691263	0.248183	1.481345
H202	H	0.733481	-0.339937	0.391412
H203	H	1.066814	-0.006604	0.724745
H204	H	1.400147	0.326730	1.058078
H205	H	0.277334	-0.539297	0.205960
H206	H	0.610667	-0.205964	0.539293
H207	H	0.944001	0.127370	0.872627
C208	C	1.110260	-0.326173	1.037086
C209	C	1.443594	0.007160	1.370419
C210	C	1.776927	0.340494	1.703753
N211	N	1.146404	-0.287217	1.066100
N212	N	1.479737	0.046116	1.399433
N213	N	1.813071	0.379449	1.732766
H214	H	0.920045	-1.137922	0.383750
H215	H	1.253379	-0.804589	0.717083
H216	H	1.586712	-0.471255	1.050417
H217	H	0.599913	-0.334178	0.396807
H218	H	0.933246	-0.000845	0.730140
H219	H	1.266580	0.332489	1.063473
C220	C	0.859665	-1.025916	0.443967
C221	C	1.192999	-0.692582	0.777300
C222	C	1.526332	-0.359249	1.110633
N223	N	0.820803	-1.060133	0.482787
N224	N	1.154136	-0.726799	0.816120
N225	N	1.487470	-0.393466	1.149453
H226	H	0.934124	-0.515932	1.033591
H227	H	1.267457	-0.182598	1.366925
H228	H	1.600791	0.150735	1.700258
C229	C	1.150524	-0.852481	0.153458
C230	C	1.483858	-0.519148	0.486792
C231	C	1.817191	-0.185815	0.820125
N232	N	1.189384	-0.818268	0.114633
N233	N	1.522718	-0.484935	0.447966
N234	N	1.856051	-0.151601	0.781300
H235	H	1.103152	-0.333866	0.893514
H236	H	1.436485	-0.000533	1.226848
H237	H	1.769818	0.332801	1.560181
H238	H	0.606374	-0.510250	0.232928
H239	H	0.939708	-0.176916	0.566261
H240	H	1.273041	0.156417	0.899594
H241	H	0.873007	-0.864336	0.430549
H242	H	1.206340	-0.531003	0.763883
H243	H	1.539674	-0.197670	1.097216
H244	H	0.919879	-0.740497	0.383677
H245	H	1.253213	-0.407164	0.717010
H246	H	1.586546	-0.073830	1.050343
C247	C	1.103546	-0.728666	0.200289
C248	C	1.436879	-0.395333	0.533622
C249	C	1.770213	-0.062000	0.866956
N250	N	1.142407	-0.694455	0.161463
N251	N	1.475740	-0.361121	0.494797
N252	N	1.809074	-0.027788	0.828130
H253	H	1.090318	-1.137886	0.213745
H254	H	1.423651	-0.804553	0.547078
H255	H	1.756984	-0.471219	0.880412
H256	H	0.404441	-0.368993	0.364451
H257	H	0.737775	-0.035659	0.697785
H258	H	1.071108	0.297674	1.031118
C259	C	0.421929	-0.559385	0.187232
C260	C	0.755262	-0.226052	0.520565
C261	C	1.088595	0.107282	0.853899
N262	N	0.453897	-0.600907	0.148577
N263	N	0.787231	-0.267574	0.481910
N264	N	1.120564	0.065759	0.815244
H265	H	1.137195	-1.014045	0.166864
H266	H	1.470528	-0.680712	0.500197
H267	H	1.803861	-0.347378	0.833531
C268	C	1.089437	-0.348674	0.553466
C269	C	1.422771	-0.015340	0.886799
C270	C	1.756104	0.317993	1.220132
N271	N	1.128031	-0.307093	0.521486
N272	N	1.461364	0.026240	0.854819
N273	N	1.794698	0.359574	1.188153
H274	H	0.939480	-0.510189	0.900035
H275	H	1.272813	-0.176855	1.233368
H276	H	1.606146	0.156478	1.566701
H277	H	1.070773	-0.368763	0.698054
H278	H	1.404107	-0.035429	1.031388
H279	H	1.737440	0.297904	1.364721
H280	H	0.907100	-0.545074	0.704577
H281	H	1.240433	-0.211741	1.037911
H282	H	1.573767	0.121593	1.371244
C283	C	0.259856	-0.348903	0.383173
C284	C	0.593189	-0.015570	0.716506
C285	C	0.926522	0.317763	1.049840
N286	N	0.227884	-0.307383	0.421827
N287	N	0.561217	0.025950	0.755161
N288	N	0.894551	0.359284	1.088494
H289	H	0.912443	-0.539321	0.571009
H290	H	1.245776	-0.205988	0.904343
H291	H	1.579110	0.127345	1.237676
H292	H	0.739930	-0.516010	0.227526
H293	H	1.073264	-0.182676	0.560860
H294	H	1.406597	0.150657	0.894193
