data_functionalizedCrystal
_audit_creation_method	'MofGen! by Chris Wilmer'
_symmetry_space_group_name_H-M	'P1'
_symmetry_Int_Tables_number	1
_symmetry_cell_setting	triclinic
loop_
_symmetry_equiv_pos_as_xyz
  x,y,z
_cell_length_a	11.169417
_cell_length_b	13.897447
_cell_length_c	13.897449
_cell_angle_alpha	90.007994
_cell_angle_beta	90.001373
_cell_angle_gamma	90.020779
loop_
_atom_site_label
_atom_site_type_symbol
_atom_site_fract_x
_atom_site_fract_y
_atom_site_fract_z
Zn1	Zn	1.834671	-0.384155	0.545325
Zn2	Zn	1.834591	-0.545417	0.384030
Zn3	Zn	1.634020	-0.384141	0.384050
Zn4	Zn	1.633932	-0.545413	0.545290
O5	O	1.734304	-0.464782	0.464674
O6	O	2.002610	-0.405554	0.523935
O7	O	1.807989	-0.524019	0.249051
O8	O	1.660707	-0.249161	0.405467
O9	O	2.002552	-0.524032	0.405432
O10	O	1.808124	-0.249172	0.523955
O11	O	1.660630	-0.405530	0.249066
O12	O	1.466059	-0.405527	0.405433
O13	O	1.660557	-0.524027	0.680276
O14	O	1.465994	-0.524013	0.523895
O15	O	1.808039	-0.405551	0.680302
O16	O	1.807903	-0.680398	0.405398
O17	O	1.660480	-0.680395	0.523875
C18	C	1.422479	-0.464769	0.464663
C19	C	1.289079	-0.464786	0.464681
C20	C	1.734206	-0.715396	0.464651
C21	C	1.734274	-0.822610	0.464674
C22	C	1.734332	-0.909680	0.464696
C23	C	1.734416	-1.018912	0.464721
C24	C	2.047346	-0.464795	0.464685
C25	C	2.180746	-0.464801	0.464690
C26	C	1.734297	-0.464790	0.716267
C27	C	1.734294	-0.464794	0.823481
C28	C	1.734434	-0.213189	0.464717
C29	C	1.734490	-0.105975	0.464736
C30	C	1.734290	-0.464797	0.910550
C31	C	1.734290	-0.464793	1.019783
C32	C	1.734299	-0.464793	1.214059
C33	C	1.734295	-0.464784	1.106845
