data_functionalizedCrystal
_audit_creation_method	'MofGen! by Chris Wilmer'
_symmetry_space_group_name_H-M	'P1'
_symmetry_Int_Tables_number	1
_symmetry_cell_setting	triclinic
loop_
_symmetry_equiv_pos_as_xyz
  x,y,z
_cell_length_a	23.096457
_cell_length_b	23.096457
_cell_length_c	14.560432
_cell_angle_alpha	60.000841
_cell_angle_beta	89.999109
_cell_angle_gamma	59.998275
loop_
_atom_site_label
_atom_site_type_symbol
_atom_site_fract_x
_atom_site_fract_y
_atom_site_fract_z
Zr1	Zr	0.557749	0.633763	-0.120540
O2	O	0.465296	0.754553	-0.267181
O3	O	0.586093	0.512972	-0.075590
O4	O	0.586087	0.633765	-0.267191
O5	O	0.465304	0.633758	0.075563
O6	O	0.681368	0.633767	-0.267197
O7	O	0.465302	0.633760	-0.075579
O8	O	0.681378	0.417690	0.075544
O9	O	0.465294	0.849835	-0.267178
O10	O	0.669286	0.562656	-0.056420
O11	O	0.598181	0.562653	0.056380
O12	O	0.598174	0.704871	-0.169207
O13	O	0.527070	0.704868	-0.056407
Zr14	Zr	0.709715	0.633761	0.120504
Zr15	Zr	0.709711	0.633765	-0.120549
Zr16	Zr	0.557753	0.633759	0.120513
Zr17	Zr	0.557746	0.785725	-0.120536
Zr18	Zr	0.709718	0.481799	0.120500
O19	O	0.681371	0.754552	0.075554
O20	O	0.681365	0.754557	-0.267193
O21	O	0.465302	0.754548	0.075566
O22	O	0.802168	0.512970	0.267145
O23	O	0.802162	0.512976	-0.075602
O24	O	0.586099	0.512967	0.267157
O25	O	0.802160	0.633766	-0.075598
O26	O	0.681376	0.633758	0.267155
O27	O	0.586096	0.633757	0.267161
O28	O	0.802162	0.633764	0.075543
O29	O	0.586083	0.849837	-0.267185
O30	O	0.681381	0.417687	0.267149
O31	O	0.802170	0.417689	0.267142
O32	O	0.802167	0.417692	0.075537
O33	O	0.465297	0.849832	-0.075572
O34	O	0.586086	0.849834	-0.075579
O35	O	0.669290	0.562652	0.169171
O36	O	0.740394	0.562655	0.056371
O37	O	0.669283	0.704871	-0.056415
O38	O	0.598178	0.704868	0.056384
C39	C	0.633736	0.443680	-0.000024
C40	C	0.633737	0.379168	-0.000025
C41	C	0.670849	-0.081349	-0.058879
C42	C	0.670848	-0.020729	-0.058889
C43	C	0.633733	0.009582	-0.000009
C44	C	0.596602	-0.020717	0.058862
C45	C	0.596599	-0.081330	0.058862
N46	N	0.638887	0.071974	0.095809
N47	N	0.638893	0.129553	0.095808
C48	C	0.633738	0.192208	-0.000006
N49	N	0.628589	0.195101	-0.095816
N50	N	0.628587	0.137515	-0.095813
C51	C	0.633731	0.075308	-0.000003
C52	C	0.670860	0.288235	-0.058891
C53	C	0.670854	0.348860	-0.058905
C54	C	0.596613	0.348865	0.058858
C55	C	0.596615	0.288247	0.058860
C56	C	0.633743	0.257933	-0.000012
C57	C	0.443652	0.633759	-0.000007
C58	C	0.379140	0.633758	-0.000003
C59	C	0.385954	0.559525	0.058860
C60	C	0.325338	0.559524	0.058865
C61	C	0.257910	0.633760	-0.000015
C62	C	0.251098	0.708002	-0.058881
C63	C	0.311714	0.708001	-0.058875
N64	N	0.135111	0.689018	-0.095841
N65	N	0.077532	0.689014	-0.095845
C66	C	0.075277	0.633767	-0.000035
N67	N	0.132783	0.578512	0.095777
N68	N	0.190369	0.578513	0.095778
C69	C	0.192178	0.633769	-0.000028
C70	C	0.016367	0.559528	0.058838
C71	C	-0.044251	0.559530	0.058846
C72	C	-0.118491	0.708010	-0.058910
C73	C	-0.057873	0.708006	-0.058907
C74	C	0.009553	0.633763	-0.000036
C75	C	0.823812	0.633765	-0.000029
C76	C	0.888324	0.633766	-0.000033
C77	C	0.633727	0.633767	-0.301539
C78	C	0.633725	0.633769	-0.403872
C79	C	0.633728	0.823844	-0.000012
C80	C	0.633727	0.888356	-0.000010
C81	C	0.559477	0.782243	-0.521640
C82	C	0.522353	0.856477	-0.628597
C83	C	0.522355	0.856474	-0.724744
C84	C	0.559487	0.782228	-0.713930
C85	C	0.596612	0.707993	-0.606973
C86	C	0.596604	0.708005	-0.510831
C87	C	0.670863	0.559521	-0.489207
C88	C	0.670858	0.559522	-0.393058
C89	C	0.707996	0.485275	-0.478393
C90	C	0.745117	0.411038	-0.371434
C91	C	0.745113	0.411045	-0.275284
C92	C	0.707983	0.485288	-0.286102
C93	C	0.633737	0.633757	0.301503
C94	C	0.633738	0.633755	0.403837
C95	C	0.823816	0.443683	-0.000035
C96	C	0.888329	0.379172	-0.000040
C97	C	0.633741	0.443675	0.301497
C98	C	0.633744	0.379161	0.403829
C99	C	0.823821	0.443678	0.301486
C100	C	0.888336	0.379165	0.403814
C101	C	0.443643	0.823846	-0.301522
C102	C	0.379128	0.888358	-0.403850
C103	C	0.443648	0.823841	-0.000001
C104	C	0.379135	0.888352	0.000004
C105	C	0.633723	0.823849	-0.301533
C106	C	0.633720	0.888363	-0.403865
C107	C	0.881507	0.348877	-0.058929
C108	C	0.942118	0.288271	-0.058957
C109	C	1.009550	0.257956	-0.000089
C110	C	1.016371	0.288257	0.058802
C111	C	0.955761	0.348866	0.058822
C112	C	0.670863	0.348864	0.510771
C113	C	0.670863	0.288255	0.606931
C114	C	0.633748	0.257940	0.596148
C115	C	0.596624	0.288243	0.489194
C116	C	0.596620	0.348855	0.393036
C117	C	0.955755	0.348871	0.392988
C118	C	1.016379	0.288263	0.489127
C119	C	1.009582	0.257946	0.596090
C120	C	0.942156	0.288246	0.606914
C121	C	0.881534	0.348858	0.510776
C122	C	0.311709	0.918660	-0.393024
C123	C	0.251085	0.979287	-0.489163
C124	C	0.257882	1.009607	-0.596126
C125	C	0.325308	0.979303	-0.606950
C126	C	0.385930	0.918681	-0.510812
C127	C	0.385957	0.918653	0.058883
C128	C	0.325346	0.979276	0.058884
C129	C	0.257914	1.009593	0.000013
C130	C	0.251093	0.979290	-0.058873
C131	C	0.311703	0.918672	-0.058880
C132	C	0.670843	0.918659	-0.393045
C133	C	0.670854	0.979268	-0.489187
C134	C	0.633738	1.009585	-0.596148
C135	C	0.596614	0.979283	-0.606966
C136	C	0.596607	0.918670	-0.510824
H137	H	0.566389	0.373547	0.106793
H138	H	0.633757	0.208586	0.674455
Br139	Br	1.091801	0.175699	-0.000128
Br140	Br	1.107892	0.247104	0.138692
H141	H	0.701096	0.263590	0.694008
H142	H	0.330833	1.003997	-0.694051
Br143	Br	0.159588	1.020400	-0.474447
Br144	Br	0.964998	0.390006	0.247836
H145	H	0.440852	0.499070	0.106790
Br146	Br	0.159589	0.808752	-0.138780
Br147	Br	0.546215	0.877568	-0.525529
H148	H	0.306160	0.768452	-0.106805
Br149	Br	0.334580	0.458772	0.138752
Br150	Br	0.175663	1.091862	0.000034
Br151	Br	0.302466	0.877523	-0.247871
Br152	Br	0.790000	0.390008	-0.138834
Br153	Br	0.721232	0.020395	-0.138788
H154	H	0.961325	0.373524	0.106783
Br155	Br	0.721236	1.020383	-0.474479
Br156	Br	0.559502	0.782225	-0.844417
H157	H	0.701090	0.263555	-0.106833
H158	H	1.058951	0.208593	0.674362
Br159	Br	0.471966	0.957235	-0.643267
H160	H	0.440858	0.893973	0.106831
Br161	Br	0.932944	0.247094	0.752088
Br162	Br	0.471979	0.957221	-0.869904
H163	H	0.196182	1.003983	-0.106804
Br164	Br	0.546225	0.020424	0.138763
H165	H	0.566389	0.263577	0.106804
Br166	Br	0.708004	0.485268	-0.608878
Br167	Br	0.795511	0.310287	-0.356770
H168	H	0.208513	1.058969	-0.674398
H169	H	0.566395	1.003976	-0.694066
H170	H	0.707972	0.485300	-0.207821
Br171	Br	0.477426	0.877561	-0.525525
Br172	Br	0.795509	0.310292	-0.130132
Br173	Br	0.302432	0.877552	-0.138789
Br174	Br	0.790038	0.389960	0.525489
Br175	Br	-0.035001	0.458776	0.138757
H176	H	1.071275	0.263599	0.480294
H177	H	0.330913	1.003939	0.106840
H178	H	0.701067	0.893985	-0.305961
H179	H	0.633748	1.058940	-0.674423
Br180	Br	0.546256	0.247091	0.474578
Br181	Br	0.546213	-0.122447	0.138760
H182	H	0.701079	-0.106027	-0.106819
Br183	Br	0.932845	0.247159	-0.138882
H184	H	0.701080	0.373530	-0.106850
Br185	Br	-0.209996	0.808761	-0.138807
Br186	Br	0.107876	0.458772	0.138737
H187	H	0.701087	0.373541	0.519573
H188	H	-0.063425	0.768455	-0.106848
Br189	Br	0.559456	0.782253	-0.391158
H190	H	0.566395	0.373514	0.305963
