data_functionalizedCrystal
_audit_creation_method	'MofGen! by Chris Wilmer'
_symmetry_space_group_name_H-M	'P1'
_symmetry_Int_Tables_number	1
_symmetry_cell_setting	triclinic
loop_
_symmetry_equiv_pos_as_xyz
  x,y,z
_cell_length_a	12.759401
_cell_length_b	29.839131
_cell_length_c	29.839126
_cell_angle_alpha	90.021998
_cell_angle_beta	90.022822
_cell_angle_gamma	90.041581
loop_
_atom_site_label
_atom_site_type_symbol
_atom_site_fract_x
_atom_site_fract_y
_atom_site_fract_z
Zn1	Zn	1.606105	-0.178895	0.253970
Zn2	Zn	2.106105	0.321105	0.753970
Zn3	Zn	1.605904	-0.254013	0.178840
Zn4	Zn	2.105904	0.245987	0.678840
Zn5	Zn	1.430394	-0.178898	0.178857
Zn6	Zn	1.930394	0.321102	0.678857
Zn7	Zn	1.430314	-0.253999	0.253946
Zn8	Zn	1.930314	0.246001	0.753946
O9	O	1.518179	-0.216451	0.216403
O10	O	2.018179	0.283549	0.716403
O11	O	1.753099	-0.188865	0.244008
O12	O	2.253099	0.311135	0.744008
O13	O	1.582572	-0.244056	0.115975
O14	O	2.082572	0.255944	0.615975
O15	O	1.453820	-0.116031	0.188838
O16	O	1.953820	0.383969	0.688838
O17	O	1.752952	-0.244053	0.188810
O18	O	2.252952	0.255947	0.688810
O19	O	1.582914	-0.116029	0.244024
O20	O	2.082914	0.383971	0.744024
O21	O	1.453625	-0.188869	0.115987
O22	O	1.953625	0.311131	0.615987
O23	O	1.283362	-0.188856	0.188814
O24	O	1.783362	0.311144	0.688814
O25	O	1.453683	-0.244030	0.316816
O26	O	1.953683	0.255970	0.816816
O27	O	1.283303	-0.244032	0.243981
O28	O	1.783303	0.255968	0.743981
O29	O	1.582837	-0.188851	0.316834
O30	O	2.082837	0.311149	0.816834
O31	O	1.582494	-0.316878	0.188786
O32	O	2.082494	0.183122	0.688786
O33	O	1.453489	-0.316868	0.243965
O34	O	1.953489	0.183132	0.743965
C35	C	1.245212	-0.216443	0.216397
C36	C	1.745212	0.283557	0.716397
C37	C	1.128435	-0.216450	0.216405
C38	C	1.628435	0.283550	0.716405
C39	C	1.517989	-0.333174	0.216381
C40	C	2.017989	0.166826	0.716381
C41	C	1.518004	-0.383108	0.216386
C42	C	2.018004	0.116892	0.716386
C43	C	1.073570	-0.245227	0.245083
C44	C	1.573570	0.254773	0.745083
C45	C	0.963846	-0.245233	0.245088
C46	C	1.463846	0.254767	0.745088
C47	C	0.963862	-0.187684	0.187733
C48	C	1.463862	0.312316	0.687733
C49	C	1.073584	-0.187677	0.187731
C50	C	1.573584	0.312323	0.687731
C51	C	1.073560	-0.278453	0.278196
C52	C	1.573560	0.221547	0.778196
C53	C	0.963836	-0.278459	0.278200
C54	C	1.463836	0.221541	0.778200
C55	C	1.585475	-0.692744	0.187713
C56	C	2.085475	-0.192744	0.687713
C57	C	1.585604	-0.880417	0.187731
C58	C	2.085604	-0.380417	0.687731
O59	O	1.642819	-0.904676	0.163334
O60	O	2.142819	-0.404676	0.663334
N61	N	1.518397	-0.903893	0.216437
N62	N	2.018397	-0.403893	0.716437
C63	C	1.451158	-0.880448	0.245143
C64	C	1.951158	-0.380448	0.745143
O65	O	1.394004	-0.904722	0.269564
O66	O	1.894004	-0.404722	0.769564
C67	C	1.451034	-0.692776	0.245128
C68	C	1.951034	-0.192776	0.745128
C69	C	1.518238	-0.669303	0.216416
C70	C	2.018238	-0.169303	0.716416
C71	C	1.652674	-0.669271	0.159004
C72	C	2.152674	-0.169271	0.659004
C73	C	1.652637	-0.622355	0.158998
C74	C	2.152637	-0.122355	0.658998
C75	C	1.585400	-0.598914	0.187702
C76	C	2.085400	-0.098914	0.687702
C77	C	1.518201	-0.622387	0.216410
C78	C	2.018201	-0.122387	0.716410
C79	C	1.383800	-0.669332	0.273836
C80	C	1.883800	-0.169332	0.773836
C81	C	1.383777	-0.622411	0.273830
C82	C	1.883777	-0.122411	0.773830
C83	C	1.450981	-0.598937	0.245119
C84	C	1.950981	-0.098937	0.745119
C85	C	1.450927	-0.552030	0.245108
C86	C	1.950927	-0.052030	0.745108
N87	N	1.518134	-0.528554	0.216401
N88	N	2.018134	-0.028554	0.716401
C89	C	1.585371	-0.551996	0.187698
C90	C	2.085371	-0.051996	0.687698
C91	C	1.451226	-0.978979	0.245149
C92	C	1.951226	-0.478979	0.745149
C93	C	1.451255	-1.025897	0.245152
C94	C	1.951255	-0.525897	0.745152
C95	C	1.585703	-1.025863	0.187740
C96	C	2.085703	-0.525863	0.687740
C97	C	1.585668	-0.978944	0.187735
C98	C	2.085668	-0.478944	0.687735
C99	C	1.518433	-0.955503	0.216442
C100	C	2.018433	-0.455503	0.716442
C101	C	1.585287	-0.453470	0.187688
C102	C	2.085287	0.046530	0.687688
C103	C	1.585241	-0.406550	0.187683
C104	C	2.085241	0.093450	0.687683
C105	C	1.450797	-0.406588	0.245097
C106	C	1.950797	0.093412	0.745097
C107	C	1.450839	-0.453504	0.245100
C108	C	1.950839	0.046496	0.745100
C109	C	1.518092	-0.476944	0.216394
C110	C	2.018092	0.023056	0.716394
O111	O	1.393750	-0.527742	0.269495
O112	O	1.893750	-0.027742	0.769495
O113	O	1.642532	-0.527714	0.163289
O114	O	2.142532	-0.027714	0.663289
C115	C	1.585512	-0.739660	0.187719
C116	C	2.085512	-0.239660	0.687719
C117	C	1.518312	-0.763133	0.216428
C118	C	2.018312	-0.263133	0.716428
C119	C	1.451076	-0.739692	0.245131
C120	C	1.951076	-0.239692	0.745131
C121	C	1.518342	-0.810051	0.216431
C122	C	2.018342	-0.310051	0.716431
C123	C	1.585578	-0.833493	0.187728
C124	C	2.085578	-0.333493	0.687728
C125	C	1.652785	-0.810017	0.159022
C126	C	2.152785	-0.310017	0.659022
C127	C	1.652748	-0.763102	0.159016
C128	C	2.152748	-0.263102	0.659016
C129	C	1.383869	-0.763168	0.273837
C130	C	1.883869	-0.263168	0.773837
C131	C	1.383910	-0.810083	0.273840
C132	C	1.883910	-0.310083	0.773840
C133	C	1.451147	-0.833525	0.245137
C134	C	1.951147	-0.333525	0.745137
C135	C	1.792212	-0.216460	0.216410
C136	C	2.292212	0.283540	0.716410
C137	C	1.908989	-0.216464	0.216412
C138	C	2.408989	0.283536	0.716412
C139	C	1.518273	-0.216439	0.333582
C140	C	2.018273	0.283561	0.833582
C141	C	1.518314	-0.216433	0.383516
C142	C	2.018314	0.283567	0.883516
C143	C	1.518398	-0.099273	0.216435
C144	C	2.018398	0.400727	0.716435
C145	C	1.518492	-0.049339	0.216449
C146	C	2.018492	0.450661	0.716449
C147	C	1.518146	-0.216432	0.099681
C148	C	2.018146	0.283568	0.599681
C149	C	1.518309	-0.216311	0.049746
C150	C	2.018309	0.283689	0.549746
C151	C	1.585442	-0.245109	0.740100
C152	C	2.085442	0.254891	1.240100
C153	C	1.585444	-0.245140	0.552427
C154	C	2.085444	0.254860	1.052427
O155	O	1.642508	-0.269592	0.528159
O156	O	2.142508	0.230408	1.028159
N157	N	1.518309	-0.216411	0.528961
N158	N	2.018309	0.283589	1.028961
C159	C	1.451164	-0.187675	0.552417
C160	C	1.951164	0.312325	1.052417
O161	O	1.394054	-0.163243	0.528151
O162	O	1.894054	0.336757	1.028151
C163	C	1.451158	-0.187646	0.740089
C164	C	1.951158	0.312354	1.240089
C165	C	1.518304	-0.216374	0.763552
C166	C	2.018304	0.283626	1.263552
C167	C	1.652582	-0.273834	0.763563
C168	C	2.152582	0.226166	1.263563
C169	C	1.652585	-0.273825	0.810479
C170	C	2.152585	0.226175	1.310479
C171	C	1.585448	-0.245089	0.833931
C172	C	2.085448	0.254911	1.333931
C173	C	1.518307	-0.216364	0.810468
C174	C	2.018307	0.283636	1.310468
C175	C	1.384008	-0.158912	0.763544
C176	C	1.884008	0.341088	1.263544
C177	C	1.384011	-0.158909	0.810465
C178	C	1.884011	0.341091	1.310465
C179	C	1.451157	-0.187636	0.833928
C180	C	1.951157	0.312364	1.333928
C181	C	1.451173	-0.187619	0.880835
C182	C	1.951173	0.312381	1.380835
N183	N	1.518308	-0.216347	0.904301
N184	N	2.018308	0.283653	1.404301
C185	C	1.585445	-0.245083	0.880849
C186	C	2.085445	0.254917	1.380849
C187	C	1.451173	-0.187691	0.453886
C188	C	1.951173	0.312309	0.953886
C189	C	1.451176	-0.187698	0.406968
C190	C	1.951176	0.312302	0.906968
C191	C	1.585455	-0.245164	0.406982
C192	C	2.085455	0.254836	0.906982
C193	C	1.585457	-0.245155	0.453900
C194	C	2.085457	0.254845	0.953900
C195	C	1.518308	-0.216420	0.477352
C196	C	2.018308	0.283580	0.977352
C197	C	1.585447	-0.245060	0.979375
C198	C	2.085447	0.254940	1.479375
C199	C	1.585447	-0.245046	1.026294
C200	C	2.085447	0.254954	1.526294
C201	C	1.451165	-0.187582	1.026277
C202	C	1.951165	0.312418	1.526277
C203	C	1.451168	-0.187594	0.979361
C204	C	1.951168	0.312406	1.479361
C205	C	1.518313	-0.216336	0.955911
C206	C	2.018313	0.283664	1.455911
O207	O	1.394130	-0.163183	0.905132
O208	O	1.894130	0.336817	1.405132
O209	O	1.642530	-0.269518	0.905122
O210	O	2.142530	0.230482	1.405122
C211	C	1.585439	-0.245119	0.693185
C212	C	2.085439	0.254881	1.193185
C213	C	1.518299	-0.216393	0.669721
C214	C	2.018299	0.283607	1.169721
C215	C	1.451161	-0.187658	0.693173
C216	C	1.951161	0.312342	1.193173
C217	C	1.518301	-0.216400	0.622803
C218	C	2.018301	0.283600	1.122803
C219	C	1.585439	-0.245135	0.599351
C220	C	2.085439	0.254865	1.099351
C221	C	1.652574	-0.273864	0.622817
C222	C	2.152574	0.226136	1.122817
C223	C	1.652577	-0.273854	0.669732
C224	C	2.152577	0.226146	1.169732
C225	C	1.384026	-0.158929	0.669708
C226	C	1.884026	0.341071	1.169708
C227	C	1.384029	-0.158941	0.622792
C228	C	1.884029	0.341059	1.122792
C229	C	1.451167	-0.187676	0.599340
C230	C	1.951167	0.312324	1.099340
H231	H	1.118251	-0.164241	0.164381
H232	H	1.618251	0.335759	0.664381
H233	H	1.329328	-0.135520	0.744448
H234	H	1.829328	0.364480	1.244448
H235	H	1.640392	-0.959835	0.164355
H236	H	2.140392	-0.459835	0.664355
F237	F	1.724030	-0.304444	0.597849
F238	F	2.224030	0.195556	1.097849
H239	H	0.919189	-0.164257	0.164387
H240	H	1.419189	0.335743	0.664387
F241	F	1.379246	-0.381632	0.275645
F242	F	1.879246	0.118368	0.775645
F243	F	1.312563	-0.128361	0.597826
F244	F	1.812563	0.371639	1.097826
H245	H	1.396510	-0.164300	0.387868
H246	H	1.896510	0.335700	0.887868
H247	H	1.640133	-0.268547	0.473001
H248	H	2.140133	0.231453	0.973001
H249	H	1.707260	-0.297219	0.829578
H250	H	2.207260	0.202781	1.329578
F251	F	1.379718	-0.157000	1.051245
F252	F	1.879718	0.343000	1.551245
H253	H	0.934001	-0.313242	0.268818
H254	H	1.434001	0.186758	0.768818
H255	H	1.329028	-0.603327	0.297209
H256	H	1.829028	-0.103327	0.797209
F257	F	1.657260	-1.050819	0.157191
F258	F	2.157260	-0.550819	0.657191
F259	F	1.724042	-0.304431	0.694698
F260	F	2.224042	0.195569	1.194698
F261	F	1.312547	-0.128351	0.694661
F262	F	1.812547	0.371649	1.194661
H263	H	1.396490	-0.164291	0.472976
H264	H	1.896490	0.335709	0.972976
H265	H	1.329329	-0.135509	0.829556
H266	H	1.829329	0.364491	1.329556
H267	H	1.707255	-0.297236	0.744473
H268	H	2.207255	0.202764	1.244473
H269	H	1.640123	-0.268560	0.387879
H270	H	2.140123	0.231440	0.887879
F271	F	1.656771	-0.381571	0.157123
F272	F	2.156771	0.118429	0.657123
H273	H	1.103384	-0.269184	0.313007
H274	H	1.603384	0.230816	0.813007
F275	F	1.117974	-0.321638	0.261857
F276	F	1.617974	0.178362	0.761857
F277	F	1.379715	-0.157014	0.954389
F278	F	1.879715	0.342986	1.454389
H279	H	0.929857	-0.266049	0.311278
H280	H	1.429857	0.233951	0.811278
F281	F	1.656866	-0.478409	0.157136
F282	F	2.156866	0.021591	0.657136
H283	H	1.396521	-1.045005	0.268528
H284	H	1.896521	-0.545005	0.768528
F285	F	1.724177	-0.597379	0.128445
F286	F	2.224177	-0.097379	0.628445
H287	H	1.707432	-0.688352	0.135631
H288	H	2.207432	-0.188352	0.635631
F289	F	1.379659	-0.954037	0.275705
F290	F	1.879659	-0.454037	0.775705
H291	H	1.329071	-0.688436	0.297214
H292	H	1.829071	-0.188436	0.797214
F293	F	1.379294	-0.478487	0.275650
F294	F	1.879294	0.021513	0.775650
H295	H	1.707529	-0.829112	0.135649
H296	H	2.207529	-0.329112	0.635649
F297	F	1.312374	-0.835060	0.304400
F298	F	1.812374	-0.335060	0.804400
F299	F	1.724280	-0.738125	0.128458
F300	F	2.224280	-0.238125	0.628458
F301	F	1.312303	-0.738225	0.304389
F302	F	1.812303	-0.238225	0.804389
F303	F	1.656918	-0.275622	1.051263
F304	F	2.156918	0.224378	1.551263
F305	F	1.656909	-0.275651	0.954424
F306	F	2.156909	0.224349	1.454424
