data_functionalizedCrystal
_audit_creation_method	'MofGen! by Chris Wilmer'
_symmetry_space_group_name_H-M	'P1'
_symmetry_Int_Tables_number	1
_symmetry_cell_setting	triclinic
loop_
_symmetry_equiv_pos_as_xyz
  x,y,z
_cell_length_a	10.654544
_cell_length_b	19.188924
_cell_length_c	17.666332
_cell_angle_alpha	89.992709
_cell_angle_beta	89.989690
_cell_angle_gamma	83.813408
loop_
_atom_site_label
_atom_site_type_symbol
_atom_site_fract_x
_atom_site_fract_y
_atom_site_fract_z
O1	O	1.665772	0.098062	-0.062971
O2	O	1.300095	0.107405	-0.062969
O3	O	1.493490	0.001146	-0.062961
O4	O	1.472376	0.204320	-0.062979
O5	O	1.493456	0.001143	0.062936
O6	O	1.300061	0.107401	0.062928
O7	O	1.665738	0.098058	0.062926
Cu8	Cu	1.482896	0.102729	0.074422
Cu9	Cu	1.482936	0.102733	-0.074465
O10	O	1.472342	0.204317	0.062918
C11	C	1.253294	0.106717	-0.000020
C12	C	1.113894	0.104665	-0.000019
C13	C	1.113832	0.104669	0.137238
C14	C	1.048312	0.103709	0.205863
C15	C	0.917334	0.101780	0.205860
C16	C	0.851875	0.100808	0.137224
C17	C	0.917395	0.101768	0.068598
C18	C	1.048375	0.103700	0.068609
C19	C	0.917458	0.101758	-0.068657
C20	C	1.048435	0.103693	-0.068655
C21	C	0.851999	0.100787	-0.137293
C22	C	0.917518	0.101752	-0.205921
C23	C	1.048503	0.103682	-0.205915
C24	C	1.113955	0.104653	-0.137281
C25	C	1.492791	-0.024871	-0.000012
C26	C	1.490743	-0.102389	-0.000010
C27	C	1.489805	-0.138793	-0.068637
C28	C	1.487863	-0.211628	-0.068642
C29	C	1.486883	-0.248059	-0.000018
C30	C	1.487814	-0.211646	0.068618
C31	C	1.489744	-0.138812	0.068622
N32	N	1.555303	-0.367276	0.051058
N33	N	1.553472	-0.436466	0.051049
C34	C	1.481067	-0.467506	-0.000025
N35	N	1.410577	-0.426743	-0.051102
N36	N	1.412413	-0.357547	-0.051096
C37	C	1.484790	-0.327036	-0.000014
C38	C	1.478021	-0.582886	-0.068662
C39	C	1.476071	-0.655722	-0.068665
C40	C	1.476035	-0.655740	0.068597
C41	C	1.477972	-0.582904	0.068598
C42	C	1.478971	-0.546482	-0.000034
C43	C	1.712538	0.098746	-0.000025
C44	C	1.851938	0.100798	-0.000031
C45	C	1.473041	0.230334	-0.000033
C46	C	1.475090	0.307852	-0.000040
N47	N	1.482877	0.102726	0.179142
N48	N	1.482965	0.102731	-0.179185
C49	C	1.558792	0.145468	0.218741
C50	C	1.558812	0.145466	0.297988
C51	C	1.482894	0.102730	0.337634
C52	C	1.406974	0.059980	0.298025
C53	C	1.406965	0.059978	0.218779
N54	N	1.372912	0.100291	0.462074
N55	N	1.372923	0.100297	0.537355
C56	C	1.482917	0.102733	0.576398
N57	N	1.592899	0.105176	0.537316
N58	N	1.592886	0.105174	0.462029
C59	C	1.482895	0.102728	0.423563
C60	C	1.558860	0.145475	0.701926
C61	C	1.558883	0.145468	0.781175
C62	C	1.407033	0.059986	0.781211
C63	C	1.407022	0.059989	0.701963
C64	C	1.482933	0.102737	0.662325
H65	H	1.101843	0.104462	-0.261799
H66	H	1.220603	0.106229	-0.137270
N67	N	1.640684	0.191566	0.175992
H68	H	1.702313	0.161482	0.143112
H69	H	1.585732	0.225449	0.143157
H70	H	0.863986	0.101003	0.261741
H71	H	1.101624	0.104498	0.261746
H72	H	1.345198	0.025186	0.669721
H73	H	1.220479	0.106250	0.137247
H74	H	1.620632	0.180274	0.330236
H75	H	1.345162	0.025183	0.330310
N76	N	1.640737	0.191572	0.659161
H77	H	1.615687	0.242243	0.672949
H78	H	1.732154	0.178211	0.672953
N79	N	1.325084	0.013874	0.176063
H80	H	1.276995	-0.013203	0.213200
H81	H	1.263520	0.043998	0.143189
N82	N	0.710608	0.098724	0.137214
H83	H	0.689498	0.055053	0.110274
H84	H	0.679125	0.098287	0.191121
N85	N	1.486769	-0.250935	0.142636
H86	H	1.408146	-0.275875	0.145696
H87	H	1.563856	-0.286398	0.145645
N88	N	1.640814	0.191545	0.823890
H89	H	1.688909	0.218618	0.786751
H90	H	1.585908	0.225397	0.856787
H91	H	1.490502	-0.109172	0.124507
N92	N	0.710732	0.098700	-0.137294
H93	H	0.668750	0.141442	-0.110361
H94	H	0.679312	0.098204	-0.191204
N95	N	1.479012	-0.543640	0.142619
H96	H	1.480385	-0.491972	0.132208
H97	H	1.400838	-0.551089	0.172590
H98	H	0.864211	0.100956	-0.261799
N99	N	1.479094	-0.543595	-0.142681
H100	H	1.478195	-0.577711	-0.186159
H101	H	1.402069	-0.508087	-0.145669
H102	H	1.345220	0.025188	0.813489
H103	H	1.490615	-0.109142	-0.124522
H104	H	1.487092	-0.241273	-0.124528
N105	N	1.475144	-0.694975	-0.142700
H106	H	1.397696	-0.677016	-0.172738
H107	H	1.553406	-0.687540	-0.172594
H108	H	1.475227	-0.685401	0.124472
