data_functionalizedCrystal
_audit_creation_method	'MofGen! by Chris Wilmer'
_symmetry_space_group_name_H-M	'P1'
_symmetry_Int_Tables_number	1
_symmetry_cell_setting	triclinic
loop_
_symmetry_equiv_pos_as_xyz
  x,y,z
_cell_length_a	14.908183
_cell_length_b	18.101398
_cell_length_c	14.908308
_cell_angle_alpha	86.717290
_cell_angle_beta	89.779152
_cell_angle_gamma	86.686603
loop_
_atom_site_label
_atom_site_type_symbol
_atom_site_fract_x
_atom_site_fract_y
_atom_site_fract_z
Zn1	Zn	-0.387346	-1.090733	-0.487620
Zn2	Zn	0.112654	-0.590733	0.012380
Zn3	Zn	-0.529056	-1.091479	-0.328583
Zn4	Zn	-0.029056	-0.591479	0.171417
Zn5	Zn	-0.378703	-0.974425	-0.337289
Zn6	Zn	0.121297	-0.474425	0.162711
Zn7	Zn	-0.537669	-0.960163	-0.478907
Zn8	Zn	-0.037669	-0.460163	0.021093
O9	O	-0.458193	-1.029200	-0.408100
O10	O	0.041807	-0.529200	0.091900
O11	O	-0.406157	-1.194465	-0.466526
O12	O	0.093843	-0.694465	0.033474
O13	O	-0.501889	-1.082233	-0.203913
O14	O	-0.001889	-0.582233	0.296087
O15	O	-0.254015	-0.995510	-0.364521
O16	O	0.245985	-0.495510	0.135479
O17	O	-0.510271	-1.195013	-0.349682
O18	O	-0.010271	-0.695013	0.150318
O19	O	-0.260366	-1.080961	-0.474969
O20	O	0.239634	-0.580961	0.025031
O21	O	-0.391425	-0.996233	-0.210309
O22	O	0.108575	-0.496233	0.289691
O23	O	-0.399777	-0.868901	-0.356072
O24	O	0.100223	-0.368901	0.143928
O25	O	-0.524950	-0.971202	-0.605887
O26	O	-0.024950	-0.471202	-0.105887
O27	O	-0.516568	-0.858422	-0.460118
O28	O	-0.016568	-0.358422	0.039882
O29	O	-0.414509	-1.067132	-0.612289
O30	O	0.085491	-0.567132	-0.112289
O31	O	-0.656032	-1.068403	-0.341233
O32	O	-0.156032	-0.568403	0.158767
O33	O	-0.662360	-0.971926	-0.451676
O34	O	-0.162360	-0.471926	0.048324
C35	C	-0.458170	-0.836791	-0.408095
C36	C	0.041830	-0.336791	0.091905
C37	C	-0.458183	-0.754475	-0.408113
C38	C	0.041817	-0.254475	0.091887
C39	C	-0.458201	-0.603766	-0.408110
C40	C	0.041799	-0.103766	0.091890
C41	C	-0.531784	-0.565845	-0.473459
C42	C	-0.031784	-0.065845	0.026541
C43	C	-0.532055	-0.480225	-0.473237
C44	C	-0.032055	0.019775	0.026763
C45	C	-0.458219	-0.455383	-0.408109
C46	C	0.041781	0.044617	0.091891
C47	C	-0.478036	-0.490066	-0.311776
C48	C	0.021964	0.009934	0.188224
C49	C	-0.478554	-0.575669	-0.312149
C50	C	0.021446	-0.075669	0.187851
C51	C	-0.364580	-0.575233	-0.438276
C52	C	0.135420	-0.075233	0.061724
C53	C	-0.365222	-0.489455	-0.440335
C54	C	0.134778	0.010545	0.059665
C55	C	-0.458227	-0.371523	-0.408103
C56	C	0.041773	0.128477	0.091897
C57	C	-0.458194	-0.687626	-0.408110
C58	C	0.041806	-0.187626	0.091890
C59	C	-0.691825	-1.018717	-0.394584
C60	C	-0.191825	-0.518717	0.105416
C61	C	-0.791775	-1.014298	-0.388832
C62	C	-0.291775	-0.514298	0.111168
C63	C	-0.929416	-0.963622	-0.323173
C64	C	-0.429416	-0.463622	0.176827
C65	C	-0.835504	-0.967771	-0.328576
C66	C	-0.335504	-0.467771	0.171424
C67	C	-0.841965	-1.056678	-0.443691
C68	C	-0.341965	-0.556678	0.056309
C69	C	-0.935877	-1.052530	-0.438288
C70	C	-0.435877	-0.552530	0.061712
C71	C	-0.979599	-1.006001	-0.378026
C72	C	-0.479599	-0.506001	0.121974
C73	C	-1.073513	-1.001856	-0.372620
C74	C	-0.573513	-0.501856	0.127380
C75	C	-1.079972	-1.090759	-0.487738
C76	C	-0.579972	-0.590759	0.012262
C77	C	-0.986060	-1.094908	-0.493141
C78	C	-0.486060	-0.594908	0.006859
C79	C	-0.223651	-1.039743	-0.421688
C80	C	0.276349	-0.539743	0.078312
C81	C	-0.123703	-1.044236	-0.427479
C82	C	0.376297	-0.544236	0.072521
C83	C	-0.471654	-1.017493	-0.642626
C84	C	0.028346	-0.517493	-0.142626
C85	C	-0.477390	-1.012504	-0.742566
C86	C	0.022610	-0.512504	-0.242566
C87	C	-0.458220	-0.222360	-0.408105
C88	C	0.041780	0.277640	0.091895
C89	C	-0.458237	-0.304674	-0.408106
C90	C	0.041763	0.195326	0.091894
C91	C	-0.373146	-1.103020	-0.937035
C92	C	0.126854	-0.603020	-0.437035
C93	C	-0.378532	-1.098335	-1.030939
C94	C	0.121468	-0.598335	-0.530939
C95	C	-0.493545	-0.998446	-1.024279
C96	C	0.006455	-0.498446	-0.524279
C97	C	-0.488158	-1.003131	-0.930376
C98	C	0.011842	-0.503131	-0.430376
C99	C	-0.427958	-1.055421	-0.886757
C100	C	0.072042	-0.555421	-0.386757
C101	C	-0.422576	-1.060109	-0.792851
C102	C	0.077424	-0.560109	-0.292851
C103	C	-0.537583	-0.960217	-0.786194
C104	C	-0.037583	-0.460217	-0.286194
C105	C	-0.542970	-0.955532	-0.880097
C106	C	-0.042970	-0.455532	-0.380097
C107	C	-0.444720	-1.040907	-0.174490
C108	C	0.055280	-0.540907	0.325510
C109	C	-0.438731	-1.046051	-0.074564
C110	C	0.061269	-0.546051	0.425436
H111	H	-0.307944	-0.472846	-0.396687
H112	H	0.192056	0.027154	0.103313
O113	O	-0.408904	-0.469541	-0.245188
O114	O	0.091096	0.030459	0.254812
H115	H	-0.410412	-0.408329	-0.242521
H116	H	0.089588	0.091671	0.257479
O117	O	-1.134099	-1.136467	-0.546912
O118	O	-0.634099	-0.636467	-0.046912
H119	H	-1.174559	-1.174287	-0.504248
H120	H	-0.674559	-0.674287	-0.004248
O121	O	-0.976570	-0.913446	-0.258168
O122	O	-0.476570	-0.413446	0.241832
H123	H	-1.016706	-0.947024	-0.209995
H124	H	-0.516706	-0.447024	0.290005
H125	H	-0.333896	-1.137094	-1.071872
H126	H	0.166104	-0.637094	-0.571872
H127	H	-0.545519	-0.466595	-0.286596
H128	H	-0.045519	0.033405	0.213404
O129	O	-0.308230	-1.159423	-0.889981
O130	O	0.191770	-0.659423	-0.389981
H131	H	-0.260026	-1.130472	-0.849838
H132	H	0.239974	-0.630472	-0.349838
O133	O	-0.357646	-1.116505	-0.745807
O134	O	0.142354	-0.616505	-0.245807
H135	H	-0.395441	-1.154517	-0.700703
H136	H	0.104559	-0.654517	-0.200703
H137	H	-0.806354	-1.094555	-0.492760
H138	H	-0.306354	-0.594555	0.007240
H139	H	-0.350172	-0.466512	-0.511258
H140	H	0.149828	0.033488	-0.011258
H141	H	-0.591982	-0.912958	-0.915625
H142	H	-0.091982	-0.412958	-0.415625
O143	O	-0.339170	-0.600726	-0.530136
O144	O	0.160830	-0.100726	-0.030136
H145	H	-0.330777	-0.551700	-0.576974
H146	H	0.169223	-0.051700	-0.076974
O147	O	-0.558457	-0.942040	-1.071332
O148	O	-0.058457	-0.442040	-0.571332
H149	H	-0.552988	-0.946780	-1.145076
H150	H	-0.052988	-0.446780	-0.645076
O151	O	-0.596706	-0.908869	-0.731968
O152	O	-0.096706	-0.408869	-0.231968
H153	H	-0.582845	-0.920906	-0.659342
H154	H	-0.082845	-0.420906	-0.159342
H155	H	-0.520335	-0.456406	-0.544483
H156	H	-0.020335	0.043594	-0.044483
O157	O	-0.781378	-0.922070	-0.269401
O158	O	-0.281378	-0.422070	0.230599
H159	H	-0.800343	-0.862371	-0.283713
H160	H	-0.300343	-0.362371	0.216287
O161	O	-0.516530	-0.589387	-0.568114
O162	O	-0.016530	-0.089387	-0.068114
H163	H	-0.456344	-0.628372	-0.569598
H164	H	0.043656	-0.128372	-0.069598
H165	H	-0.309829	-0.600346	-0.390751
H166	H	0.190171	-0.100346	0.109249
H167	H	-0.600879	-0.585031	-0.453241
H168	H	-0.100879	-0.085031	0.046759
H169	H	-0.601543	-0.457392	-0.452798
H170	H	-0.101543	0.042608	0.047202
H171	H	-0.426956	-0.601244	-0.261493
H172	H	0.073044	-0.101244	0.238507
O173	O	-0.568971	-0.599388	-0.279216
O174	O	-0.068971	-0.099388	0.220784
H175	H	-0.611917	-0.549730	-0.263178
H176	H	-0.111917	-0.049730	0.236822
H177	H	-1.109110	-0.963971	-0.323550
H178	H	-0.609110	-0.463971	0.176450
O179	O	-0.938902	-1.145097	-0.558130
O180	O	-0.438902	-0.645097	-0.058130
H181	H	-0.865167	-1.140868	-0.552667
H182	H	-0.365167	-0.640868	-0.052667
