data_functionalizedCrystal
_audit_creation_method	'MofGen! by Chris Wilmer'
_symmetry_space_group_name_H-M	'P1'
_symmetry_Int_Tables_number	1
_symmetry_cell_setting	triclinic
loop_
_symmetry_equiv_pos_as_xyz
  x,y,z
_cell_length_a	35.288094
_cell_length_b	35.277682
_cell_length_c	35.288113
_cell_angle_alpha	90.000425
_cell_angle_beta	59.999036
_cell_angle_gamma	119.999756
loop_
_atom_site_label
_atom_site_type_symbol
_atom_site_fract_x
_atom_site_fract_y
_atom_site_fract_z
O1	O	-0.334256	-0.323096	0.594222
O2	O	-0.256658	-0.267971	0.461516
O3	O	-0.334254	-0.267971	0.539112
O4	O	-0.256660	-0.323097	0.516625
O5	O	-0.271226	-0.204925	0.539112
O6	O	-0.193630	-0.204926	0.461516
O7	O	-0.271228	-0.260051	0.594222
Cu8	Cu	-0.226674	-0.226732	0.527869
Cu9	Cu	-0.301212	-0.301290	0.527869
O10	O	-0.193631	-0.260052	0.516625
C11	C	-0.466045	-0.027642	0.562000
C12	C	-0.511972	-0.050665	0.562321
C13	C	-0.466045	-0.096285	0.562000
C14	C	-0.511972	-0.119203	0.562321
C15	C	-0.534667	-0.096285	0.562000
C16	C	-0.443454	-0.050665	0.562321
C17	C	-0.342466	0.137889	0.549576
C18	C	-0.317202	0.184765	0.546064
C19	C	-0.338887	0.208281	0.544300
C20	C	-0.311491	0.259111	0.540483
C21	C	-0.385840	0.184916	0.546053
C22	C	-0.411104	0.138041	0.549572
C23	C	-0.389415	0.114527	0.551334
C24	C	-0.687726	-0.138200	0.549576
C25	C	-0.731076	-0.159806	0.546064
C26	C	-0.752821	-0.205011	0.544298
C27	C	-0.799819	-0.228438	0.540483
C28	C	-0.731216	-0.228613	0.546052
C29	C	-0.687874	-0.207011	0.549572
C30	C	-0.666129	-0.161800	0.551332
C31	C	-0.342466	-0.138202	0.549576
C32	C	-0.317198	-0.159805	0.546058
C33	C	-0.338883	-0.205012	0.544294
C34	C	-0.311487	-0.228438	0.540477
C35	C	-0.385832	-0.228612	0.546046
C36	C	-0.411096	-0.207007	0.549562
C37	C	-0.389411	-0.161801	0.551332
C38	C	-0.416811	0.063700	0.555145
C39	C	-0.438649	0.023185	0.558185
C40	C	-0.438649	-0.119709	0.558185
C41	C	-0.416811	-0.138380	0.555145
C42	C	-0.581664	-0.119708	0.558185
C43	C	-0.619128	-0.138379	0.555145
O44	O	-0.925420	-0.323096	0.516626
O45	O	-0.815203	-0.267968	0.539112
O46	O	-0.815201	-0.267969	0.461516
O47	O	-0.925421	-0.323094	0.594222
O48	O	-0.815203	-0.204924	0.461516
O49	O	-0.815205	-0.204923	0.539112
O50	O	-0.925421	-0.260050	0.516625
Cu51	Cu	-0.870313	-0.226730	0.527869
Cu52	Cu	-0.870311	-0.301289	0.527869
O53	O	-0.925423	-0.260049	0.594222
C54	C	0.006463	-0.027628	0.089478
C55	C	-0.016229	-0.050652	0.135083
C56	C	-0.062153	-0.096274	0.089475
C57	C	-0.084741	-0.119194	0.135081
C58	C	-0.062152	-0.096275	0.158097
C59	C	-0.016230	-0.050652	0.066566
C60	C	0.159503	0.137910	-0.021669
C61	C	0.202848	0.184789	-0.043418
C62	C	0.224592	0.208305	-0.019969
C63	C	0.271583	0.259137	-0.043545
C64	C	0.202990	0.184939	0.025230
C65	C	0.159653	0.138062	0.046973
C66	C	0.137909	0.114548	0.023521
C67	C	-0.116474	-0.138196	0.323578
C68	C	-0.141583	-0.159803	0.370440
C69	C	-0.188536	-0.205011	0.393949
C70	C	-0.215769	-0.228440	0.444760
C71	C	-0.210375	-0.228613	0.370590
C72	C	-0.185262	-0.207010	0.323727
C73	C	-0.138309	-0.161796	0.300224
C74	C	-0.116480	-0.138194	-0.021679
C75	C	-0.141595	-0.159799	-0.043429
C76	C	-0.188548	-0.205009	-0.019982
C77	C	-0.215782	-0.228436	-0.043561
C78	C	-0.210386	-0.228610	0.025214
C79	C	-0.185271	-0.207003	0.046962
C80	C	-0.138315	-0.161795	0.023509
C81	C	0.090913	0.063718	0.047104
C82	C	0.053455	0.023201	0.065899
C83	C	-0.089384	-0.119699	0.065894
C84	C	-0.111088	-0.138372	0.047096
C85	C	-0.089381	-0.119700	0.208909
C86	C	-0.111084	-0.138373	0.249411
C87	C	-0.071285	-0.364527	0.504322
C88	C	-0.024517	-0.341136	0.507540
C89	C	-0.093980	-0.410147	0.504001
C90	C	-0.139908	-0.364528	0.504322
C91	C	-0.166511	-0.341137	0.507540
C92	C	-0.162499	-0.410148	0.504001
C93	C	-0.139907	-0.433170	0.504322
C94	C	-0.166510	-0.483172	0.507540
C95	C	-0.093981	-0.341609	0.504001
C96	C	-0.188002	-0.523569	0.510141
C97	C	0.013267	-0.322238	0.510141
C98	C	-0.188004	-0.322239	0.510141
C99	C	-0.214965	-0.574248	0.513403
C100	C	0.060669	-0.298530	0.513403
C101	C	-0.214968	-0.298532	0.513403
O102	O	-0.256656	0.408616	0.516625
O103	O	-0.334254	0.275872	0.539112
O104	O	-0.256656	0.353491	0.461516
O105	O	-0.334254	0.330997	0.594221
O106	O	-0.193629	0.353489	0.461516
O107	O	-0.271227	0.275870	0.539112
O108	O	-0.193629	0.408614	0.516625
Cu109	Cu	-0.226673	0.342242	0.527869
Cu110	Cu	-0.301210	0.342244	0.527869
O111	O	-0.271227	0.330995	0.594222
O112	O	-0.271238	-0.260053	-0.137564
O113	O	-0.193644	-0.204921	-0.082456
O114	O	-0.271249	-0.204934	-0.082448
O115	O	-0.193633	-0.260040	-0.137571
O116	O	-0.334270	-0.267983	-0.019423
O117	O	-0.256664	-0.267971	-0.019431
O118	O	-0.334259	-0.323102	-0.074538
Cu119	Cu	-0.301216	-0.301294	-0.041230
Cu120	Cu	-0.226687	-0.226730	-0.115764
O121	O	-0.256653	-0.323090	-0.074546
O122	O	0.397168	0.408645	-0.074511
O123	O	0.286967	0.275898	-0.019411
O124	O	0.286950	0.353508	-0.019400
O125	O	0.397186	0.331035	-0.074522
O126	O	0.286949	0.353509	-0.082428
O127	O	0.286966	0.275899	-0.082438
O128	O	0.397168	0.408645	-0.137539
Cu129	Cu	0.342067	0.342272	-0.115743
Cu130	Cu	0.342068	0.342271	-0.041206
O131	O	0.397185	0.331035	-0.137549
C132	C	-0.456606	-0.433171	0.821015
C133	C	-0.503376	-0.483173	0.844399
C134	C	-0.433911	-0.410149	0.843927
C135	C	-0.387982	-0.364529	0.752392
C136	C	-0.361378	-0.341137	0.702404
C137	C	-0.365391	-0.341611	0.775408
C138	C	-0.387983	-0.364530	0.821015
C139	C	-0.361381	-0.341139	0.844400
C140	C	-0.433910	-0.410149	0.775408
C141	C	-0.339889	-0.322242	0.863292
C142	C	-0.541160	-0.523569	0.863291
C143	C	-0.339884	-0.322239	0.662019
C144	C	-0.312926	-0.298535	0.886994
C145	C	-0.588563	-0.574248	0.886993
C146	C	-0.312920	-0.298531	0.611354
C147	C	-1.139916	-0.364531	0.821016
C148	C	-1.166520	-0.341141	0.844402
C149	C	-1.162505	-0.410151	0.843927
C150	C	-1.071290	-0.364529	0.752392
C151	C	-1.024520	-0.341137	0.702404
C152	C	-1.093984	-0.410149	0.775407
C153	C	-1.139912	-0.433172	0.821014
C154	C	-1.166513	-0.483174	0.844398
C155	C	-1.093987	-0.341612	0.775409
C156	C	-1.188005	-0.523570	0.863290
C157	C	-1.188015	-0.322245	0.863294
C158	C	-0.986736	-0.322238	0.662019
C159	C	-1.214967	-0.574249	0.886990
C160	C	-1.214980	-0.298538	0.886997
C161	C	-0.939333	-0.298529	0.611354
C162	C	-0.387969	0.318701	0.821011
C163	C	-0.361373	0.321908	0.844398
C164	C	-0.433886	0.318397	0.843919
C165	C	-0.387967	0.318707	0.752387
C166	C	-0.361367	0.321920	0.702401
C167	C	-0.433884	0.318403	0.775399
C168	C	-0.456575	0.318729	0.821004
C169	C	-0.503331	0.321966	0.844384
C170	C	-0.365382	0.318375	0.775406
C171	C	-0.541105	0.324582	0.863273
C172	C	-0.339885	0.324499	0.863292
C173	C	-0.339877	0.324518	0.662017
C174	C	-0.588494	0.327863	0.886969
C175	C	-0.312928	0.327750	0.886995
C176	C	-0.312917	0.327775	0.611354
C177	C	-0.466036	-0.027646	0.089464
C178	C	-0.443445	-0.050669	0.066553
C179	C	-0.534660	-0.096288	0.158088
C180	C	-0.511964	-0.119206	0.135073
C181	C	-0.466036	-0.096288	0.089466
C182	C	-0.511964	-0.050668	0.135072
C183	C	-0.411710	0.137885	0.047558
C184	C	-0.386598	0.184761	0.025958
C185	C	-0.339640	0.208276	-0.019237
C186	C	-0.312404	0.259106	-0.042656
C187	C	-0.317798	0.184911	-0.042831
C188	C	-0.342913	0.138036	-0.021233
C189	C	-0.389871	0.114523	0.023963
C190	C	-0.342454	-0.138205	-0.021689
C191	C	-0.317189	-0.159810	-0.043440
C192	C	-0.338870	-0.205015	-0.019992
C193	C	-0.311477	-0.228443	-0.043569
C194	C	-0.385824	-0.228617	0.025208
C195	C	-0.411093	-0.207015	0.046955
C196	C	-0.389400	-0.161804	0.023502
C197	C	-0.687722	-0.138202	0.323572
C198	C	-0.731069	-0.159805	0.370437
C199	C	-0.752814	-0.205012	0.393947
C200	C	-0.799813	-0.228437	0.444762
C201	C	-0.731209	-0.228612	0.370591
C202	C	-0.687861	-0.207007	0.323727
C203	C	-0.666124	-0.161802	0.300220
C204	C	-0.417099	0.063696	0.047381
C205	C	-0.438804	0.023181	0.066047
C206	C	-0.581658	-0.119711	0.208901
C207	C	-0.619122	-0.138381	0.249405
C208	C	-0.438639	-0.119712	0.065885
C209	C	-0.416801	-0.138383	0.047088
O210	O	-1.271218	-0.724128	0.917535
O211	O	-1.193628	-0.591385	0.862430
O212	O	-1.271221	-0.669004	0.862428
O213	O	-1.193625	-0.646509	0.917537
O214	O	-1.334252	-0.669008	0.925458
O215	O	-1.256660	-0.591389	0.925460
O216	O	-1.334249	-0.724132	0.980565
Cu217	Cu	-1.301210	-0.657761	0.958767
Cu218	Cu	-1.226668	-0.657756	0.884227
O219	O	-1.256657	-0.646513	0.980567
C220	C	0.006499	0.376383	0.089466
C221	C	-0.016194	0.376704	0.066553
C222	C	-0.062124	0.376384	0.158088
C223	C	-0.084713	0.376706	0.135071
C224	C	-0.062121	0.376385	0.089464
C225	C	-0.016197	0.376703	0.135073
C226	C	0.159555	0.363951	0.047566
C227	C	0.202906	0.360436	0.025968
C228	C	0.224652	0.358672	-0.019227
C229	C	0.271649	0.354852	-0.042644
C230	C	0.203049	0.360427	-0.042823
C231	C	0.159707	0.363948	-0.021227
C232	C	0.137960	0.365710	0.023970
C233	C	-0.116442	0.363961	-0.021696
C234	C	-0.141552	0.360448	-0.043448
C235	C	-0.188509	0.358684	-0.020002
C236	C	-0.215743	0.354869	-0.043580
C237	C	-0.210352	0.360438	0.025198
C238	C	-0.185238	0.363958	0.046947
C239	C	-0.138281	0.365717	0.023495
C240	C	-0.116458	0.363955	0.323573
C241	C	-0.141576	0.360436	0.370439
C242	C	-0.188533	0.358673	0.393947
C243	C	-0.215770	0.354855	0.444762
C244	C	-0.210372	0.360426	0.370589
C245	C	-0.185255	0.363944	0.323726
C246	C	-0.138294	0.365712	0.300220
C247	C	0.090959	0.369523	0.047385
C248	C	0.053496	0.372565	0.066050
C249	C	-0.089358	0.372567	0.208901
C250	C	-0.111064	0.369527	0.249405
C251	C	-0.089351	0.372570	0.065882
C252	C	-0.111055	0.369530	0.047083
H253	H	-0.324803	-0.101392	0.551013
H254	H	-0.199456	-0.428630	0.503486
C255	C	0.226665	0.358503	0.051921
H256	H	0.255597	0.356159	0.032584
H257	H	0.199795	0.332225	0.079459
H258	H	0.239271	0.385941	0.059723
H259	H	-0.530960	-0.156685	0.562830
H260	H	-0.530958	-0.156689	0.153554
H261	H	0.142126	0.365383	-0.040443
H262	H	-0.452908	-0.428635	0.881399
H263	H	-0.328432	-0.304128	0.756927
H264	H	-0.406487	-0.032183	0.029080
C265	C	-0.064806	0.365897	0.297717
H266	H	-0.052971	0.368249	0.266460
H267	H	-0.071768	0.338466	0.312477
H268	H	-0.037807	0.392182	0.298254
H269	H	-0.670024	-0.101394	0.304435
C270	C	0.135642	0.365895	0.097276
H271	H	0.154719	0.364352	0.108233
H272	H	0.098994	0.340412	0.117001
H273	H	0.138470	0.394128	0.097260
H274	H	-0.670026	-0.101390	0.551012
H275	H	-0.530965	-0.032180	0.562838
C276	C	-0.068488	-0.435203	0.503551
H277	H	-0.088642	-0.465750	0.503476
H278	H	-0.068441	-0.436729	0.530402
H279	H	-0.032702	-0.418615	0.476561
C280	C	-0.117570	-0.133836	0.396134
H281	H	-0.086016	-0.103814	0.375426
H282	H	-0.108950	-0.150695	0.407302
H283	H	-0.142931	-0.130971	0.421524
H284	H	0.002810	0.377230	0.029077
C285	C	-0.068322	-0.290973	0.503301
H286	H	-0.037663	-0.280559	0.503157
H287	H	-0.093514	-0.289201	0.530071
H288	H	-0.057950	-0.271918	0.476234
C289	C	-1.212431	-0.435124	0.894547
H290	H	-1.222705	-0.414872	0.904956
H291	H	-1.204424	-0.443810	0.913600
H292	H	-1.240971	-0.462093	0.896311
H293	H	-0.452903	-0.428635	0.756930
H294	H	-0.324802	0.118747	0.551012
C295	C	-0.262017	-0.278342	0.396441
H296	H	-0.271424	-0.289306	0.375818
H297	H	-0.290230	-0.278337	0.421841
H298	H	-0.256254	-0.298068	0.407608
C299	C	-0.664110	-0.232969	0.551501
H300	H	-0.635183	-0.213628	0.553851
H301	H	-0.651507	-0.240776	0.524075
H302	H	-0.690980	-0.260516	0.577775
H303	H	-0.278959	-0.140590	-0.080240
H304	H	0.220762	0.358994	-0.079621
C305	C	-0.117572	-0.133838	-0.093143
H306	H	-0.086008	-0.103822	-0.103995
H307	H	-0.142921	-0.130968	-0.093186
H308	H	-0.108954	-0.150708	-0.112921
C309	C	-1.068329	-0.290977	0.750446
H310	H	-1.088437	-0.280565	0.770695
H311	H	-1.068137	-0.289208	0.723483
H312	H	-1.032584	-0.271919	0.741766
H313	H	-0.452846	0.317933	0.756904
C314	C	-0.459541	0.317706	0.894538
H315	H	-0.439437	0.317561	0.904948
H316	H	-0.495290	0.290644	0.913591
H317	H	-0.459714	0.344497	0.896298
H318	H	-1.074983	-0.428628	0.756928
H319	H	0.002766	-0.032166	0.029093
C320	C	-0.315473	0.317656	0.750448
H321	H	-0.305210	0.317506	0.770698
H322	H	-0.286925	0.344431	0.723482
H323	H	-0.323501	0.290579	0.741774
C324	C	-0.537629	-0.025702	0.160032
H325	H	-0.517524	0.004822	0.139783
H326	H	-0.537825	-0.024123	0.186997
H327	H	-0.573373	-0.042403	0.168709
C328	C	-0.755125	-0.278340	0.396447
H329	H	-0.736046	-0.289298	0.375825
H330	H	-0.791773	-0.298070	0.407618
H331	H	-0.752298	-0.278325	0.421844
C332	C	-0.754835	-0.133847	0.396125
H333	H	-0.735682	-0.103833	0.375411
H334	H	-0.752008	-0.130971	0.421517
H335	H	-0.791479	-0.150721	0.407287
C336	C	-0.463364	0.112022	0.097268
H337	H	-0.472778	0.132648	0.108224
H338	H	-0.457613	0.100848	0.116994
H339	H	-0.491572	0.086617	0.097252
C340	C	-0.064817	-0.088475	-0.047484
H341	H	-0.055406	-0.077513	-0.077516
H342	H	-0.036618	-0.088503	-0.050293
H343	H	-0.070555	-0.068735	-0.030565
H344	H	-0.404384	0.203781	0.045172
H345	H	-0.279566	0.204060	-0.079629
C346	C	-0.064825	-0.088468	0.297725
H347	H	-0.055412	-0.077509	0.318345
H348	H	-0.070581	-0.068740	0.286556
H349	H	-0.036614	-0.088480	0.272325
H350	H	-0.325127	0.119016	-0.040446
H351	H	-0.403478	-0.265424	0.044300
C352	C	-0.262001	0.358499	0.050990
H353	H	-0.273833	0.356148	0.031567
H354	H	-0.255040	0.385929	0.058789
H355	H	-0.289000	0.332213	0.078525
C356	C	-0.318598	-0.088481	-0.047488
H357	H	-0.287022	-0.077522	-0.077522
H358	H	-0.310046	-0.068749	-0.030565
H359	H	-0.344011	-0.088497	-0.050299
H360	H	-0.449324	-0.226235	0.083755
C361	C	0.009469	0.377415	0.160032
H362	H	0.040131	0.377562	0.139782
H363	H	-0.015717	0.350642	0.186999
H364	H	0.019839	0.404494	0.168704
H365	H	-0.670273	-0.226227	0.304714
C366	C	-0.134637	0.377404	0.160031
H367	H	-0.144905	0.377546	0.190547
H368	H	-0.163177	0.350626	0.161607
H369	H	-0.126621	0.404478	0.143337
H370	H	0.141804	0.118768	-0.040769
H371	H	-0.123789	0.359010	0.389453
H372	H	-0.078207	0.365396	-0.040794
H373	H	-0.248618	-0.265424	0.044305
C374	C	0.009398	-0.025668	0.160062
H375	H	0.040040	0.004865	0.139821
H376	H	0.019778	-0.042343	0.168761
H377	H	-0.015826	-0.024103	0.187016
H378	H	-0.123764	0.359021	-0.080249
C379	C	-0.265557	-0.133846	0.544131
H380	H	-0.256264	-0.103831	0.545691
H381	H	-0.237292	-0.130971	0.515911
H382	H	-0.271261	-0.150718	0.569612
H383	H	-0.203024	0.365388	0.083747
H384	H	-0.248610	0.358989	0.389733
C385	C	-0.393529	-0.025697	0.563015
H386	H	-0.383261	0.004828	0.563158
H387	H	-0.364990	-0.024120	0.536244
H388	H	-0.401542	-0.042394	0.590081
C389	C	-0.265554	0.210465	0.544127
H390	H	-0.256254	0.189749	0.545674
H391	H	-0.271246	0.221637	0.569601
H392	H	-0.237295	0.235861	0.515901
C393	C	-0.209274	0.365876	0.298032
H394	H	-0.187593	0.368219	0.266757
H395	H	-0.210542	0.392154	0.298630
H396	H	-0.244507	0.338438	0.312856
C397	C	-0.409690	0.210782	0.544113
H398	H	-0.387917	0.242047	0.541763
H399	H	-0.444912	0.196018	0.571535
H400	H	-0.410947	0.210246	0.517835
C401	C	-0.209283	-0.232971	0.298036
H402	H	-0.240844	-0.262989	0.318746
H403	H	-0.183930	-0.235838	0.272642
H404	H	-0.217903	-0.216104	0.286876
C405	C	-0.462746	0.112344	0.551499
H406	H	-0.472041	0.133062	0.549941
H407	H	-0.491009	0.086944	0.579717
H408	H	-0.457040	0.101179	0.526017
H409	H	-0.748927	-0.265423	0.544620
C410	C	-0.754832	-0.133843	0.544128
H411	H	-0.735670	-0.103823	0.545676
H412	H	-0.791475	-0.150708	0.569603
H413	H	-0.751995	-0.130971	0.515903
H414	H	-0.403486	-0.265422	0.544605
C415	C	-0.462746	-0.232971	0.551503
H416	H	-0.472048	-0.262991	0.549957
H417	H	-0.457059	-0.216109	0.526031
H418	H	-0.491004	-0.235842	0.579730
H419	H	-0.121692	-0.156680	0.153555
C420	C	-0.209289	-0.232963	0.096674
H421	H	-0.187610	-0.213619	0.106269
H422	H	-0.210552	-0.260507	0.097341
H423	H	-0.244523	-0.240772	0.117083
C424	C	0.226604	0.210491	-0.093129
H425	H	0.255532	0.241776	-0.102722
H426	H	0.199731	0.209887	-0.093794
H427	H	0.239215	0.195667	-0.113541
C428	C	0.226902	0.210807	0.051023
H429	H	0.255803	0.242074	0.031602
H430	H	0.239569	0.196048	0.058821
H431	H	0.200082	0.210265	0.078559
H432	H	0.142070	0.119040	0.083771
