data_functionalizedCrystal
_audit_creation_method	'MofGen! by Chris Wilmer'
_symmetry_space_group_name_H-M	'P1'
_symmetry_Int_Tables_number	1
_symmetry_cell_setting	triclinic
loop_
_symmetry_equiv_pos_as_xyz
  x,y,z
_cell_length_a	10.654550
_cell_length_b	16.109301
_cell_length_c	14.586319
_cell_angle_alpha	90.005770
_cell_angle_beta	90.007659
_cell_angle_gamma	83.973192
loop_
_atom_site_label
_atom_site_type_symbol
_atom_site_fract_x
_atom_site_fract_y
_atom_site_fract_z
O1	O	-1.666256	-0.116773	-0.076319
O2	O	-1.300627	-0.127899	-0.076305
O3	O	-1.493486	-0.001365	-0.076303
O4	O	-1.473398	-0.243307	-0.076321
O5	O	-1.493470	-0.001362	0.076178
O6	O	-1.300612	-0.127896	0.076176
O7	O	-1.666241	-0.116770	0.076162
Cu8	Cu	-1.483425	-0.122333	0.090092
Cu9	Cu	-1.483443	-0.122336	-0.090234
O10	O	-1.473382	-0.243304	0.076160
C11	C	-1.253832	-0.127080	-0.000062
C12	C	-1.114422	-0.124636	-0.000056
C13	C	-1.492665	0.029616	-0.000062
C14	C	-1.490225	0.121926	-0.000061
C15	C	-1.713036	-0.117589	-0.000083
C16	C	-1.852446	-0.120033	-0.000094
C17	C	-1.033926	-0.199138	-0.000075
C18	C	-0.902936	-0.196836	-0.000091
C19	C	-0.932952	-0.045526	-0.000073
C20	C	-1.063939	-0.047828	-0.000050
C21	C	-1.084409	-0.275946	-0.000081
C22	C	-1.003911	-0.350453	-0.000101
C23	C	-0.872921	-0.348152	-0.000117
C24	C	-0.822430	-0.271343	-0.000113
C25	C	-1.474204	-0.274286	-0.000083
C26	C	-1.476643	-0.366595	-0.000090
N27	N	-1.483421	-0.122330	0.216923
C28	C	-1.598991	0.343552	-0.000079
C29	C	-1.596689	0.430286	-0.000087
C30	C	-1.367868	0.411772	-0.000074
C31	C	-1.370172	0.325040	-0.000073
C32	C	-1.485737	0.290932	-0.000071
C33	C	-1.481131	0.464399	-0.000080
C34	C	-1.478634	0.558440	-0.000088
C35	C	-1.488234	0.196885	-0.000065
N36	N	-1.483457	-0.122333	-0.217066
C37	C	-1.568852	-0.066319	0.547918
C38	C	-1.568849	-0.066319	0.451937
C39	C	-1.398022	-0.178350	0.451946
C40	C	-1.398032	-0.178353	0.547925
C41	C	-1.483446	-0.122333	0.595909
C42	C	-1.483432	-0.122330	0.403948
C43	C	-1.483428	-0.122331	0.299881
C44	C	-1.483451	-0.122333	0.699983
H45	H	-1.191065	-0.277828	-0.000073
Cl46	Cl	-1.227783	0.258884	-0.000071
H47	H	-1.045031	-0.412988	-0.000097
H48	H	-1.328483	-0.223969	0.587002
H49	H	-1.328478	-0.223959	0.412868
H50	H	-1.638403	-0.020705	0.586984
Cl51	Cl	-0.657755	-0.268453	-0.000119
Cl52	Cl	-0.771728	-0.441816	-0.000133
Cl53	Cl	-1.676225	0.004099	0.391608
Cl54	Cl	-1.739073	0.496434	-0.000099
Cl55	Cl	-0.869475	0.051027	-0.000072
H56	H	-1.273779	0.439553	-0.000074
H57	H	-1.129482	0.012837	-0.000038
H58	H	-1.693091	0.315785	-0.000080
