data_functionalizedCrystal
_audit_creation_method	'MofGen! by Chris Wilmer'
_symmetry_space_group_name_H-M	'P1'
_symmetry_Int_Tables_number	1
_symmetry_cell_setting	triclinic
loop_
_symmetry_equiv_pos_as_xyz
  x,y,z
_cell_length_a	18.050589
_cell_length_b	12.594517
_cell_length_c	12.594509
_cell_angle_alpha	89.972809
_cell_angle_beta	90.027696
_cell_angle_gamma	89.976724
loop_
_atom_site_label
_atom_site_type_symbol
_atom_site_fract_x
_atom_site_fract_y
_atom_site_fract_z
Zn1	Zn	-0.295735	-1.627177	0.602030
Zn2	Zn	-0.419939	-1.627030	0.424054
Zn3	Zn	-0.295756	-1.449181	0.424041
Zn4	Zn	-0.419877	-1.449125	0.601965
O5	O	-0.357827	-1.538128	0.513023
O6	O	-0.312228	-1.776103	0.578454
O7	O	-0.403501	-1.603400	0.275106
O8	O	-0.191829	-1.472877	0.447674
O9	O	-0.403480	-1.775995	0.447695
O10	O	-0.191813	-1.603650	0.578442
O11	O	-0.312264	-1.472735	0.275097
O12	O	-0.312204	-1.300228	0.447611
O13	O	-0.403374	-1.472782	0.750920
O14	O	-0.403395	-1.300187	0.578331
O15	O	-0.312168	-1.603596	0.750968
O16	O	-0.523855	-1.603346	0.447632
O17	O	-0.523810	-1.472640	0.578343
C18	C	-0.357796	-1.261587	0.512963
C19	C	-0.357801	-1.143282	0.512963
C20	C	-0.308140	-1.003257	0.442014
C21	C	-0.290049	-1.074121	0.539146
C22	C	-0.375858	-1.073989	0.415841
C23	C	-0.339693	-1.003361	0.610206
C24	C	-0.425533	-1.003223	0.486835
C25	C	-0.407468	-1.074055	0.584034
C26	C	-0.550779	-1.538000	0.513005
C27	C	-0.633325	-1.538042	0.513033
C28	C	-0.832778	-1.467034	0.584089
C29	C	-0.882221	-1.441086	0.486961
C30	C	-0.784455	-1.538147	0.513047
C31	C	-0.882093	-1.564147	0.610186
C32	C	-0.930440	-1.538246	0.513069
C33	C	-0.832812	-1.512147	0.415868
C34	C	-0.832679	-1.635254	0.539158
C35	C	-0.882100	-1.609343	0.441963
C36	C	-0.700357	-1.538087	0.513036
C37	C	-1.014537	-1.538306	0.513069
C38	C	-0.164121	-1.538286	0.513064
C39	C	-0.081575	-1.538354	0.513081
C40	C	-0.357762	-1.538200	0.790644
C41	C	-0.357734	-1.538230	0.908949
C42	C	-0.357845	-0.815749	0.513061
C43	C	-0.357818	-0.934055	0.513022
C44	C	-0.357838	-1.538119	0.236482
C45	C	-0.357657	-1.538294	0.118177
C46	C	-0.407313	-1.467103	0.978176
C47	C	-0.425464	-1.564218	1.048977
C48	C	-0.339538	-1.441191	1.048948
C49	C	-0.375921	-1.635396	0.978192
C50	C	-0.289963	-1.512303	0.978156
C51	C	-0.308088	-1.609485	1.048925
H52	H	-0.391123	-1.105018	0.333682
O53	O	-0.493873	-0.966215	0.460338
C54	C	-0.541652	-1.052569	0.440812
H55	H	-0.507515	-1.125491	0.418861
H56	H	-0.575465	-1.070076	0.515215
C57	C	-0.636206	-0.935177	0.375592
C58	C	-0.594279	-1.024739	0.348622
H59	H	-0.668672	-0.918010	0.318728
H60	H	-0.604018	-0.876998	0.388750
H61	H	-0.664377	-0.949778	0.437595
H62	H	-0.566102	-1.010133	0.286628
H63	H	-0.626464	-1.082916	0.335451
O64	O	-0.258023	-1.681437	1.085576
C65	C	-0.223503	-1.732210	0.998970
H66	H	-0.260826	-1.726573	0.926140
H67	H	-0.168313	-1.691854	0.981501
C68	C	-0.164093	-1.856725	1.115796
C69	C	-0.209936	-1.849810	1.026348
H70	H	-0.155720	-1.929265	1.132684
H71	H	-0.187346	-1.822516	1.174146
H72	H	-0.118106	-1.823089	1.101227
H73	H	-0.255924	-1.883433	1.040923
H74	H	-0.186689	-1.884027	0.968001
O75	O	-0.457671	-1.110790	0.655650
C76	C	-0.528811	-1.073092	0.628771
H77	H	-0.523406	-0.998134	0.578603
H78	H	-0.559621	-1.136481	0.581628
C79	C	-0.578841	-1.139607	0.792479
C80	C	-0.572202	-1.047536	0.730869
H81	H	-0.605608	-1.123847	0.855457
H82	H	-0.530913	-1.165008	0.810587
H83	H	-0.604514	-1.192422	0.753181
H84	H	-0.546521	-0.994728	0.770162
H85	H	-0.620127	-1.022125	0.712770
H86	H	-0.391344	-1.717512	0.947241
O87	O	-0.806810	-1.395273	0.655649
C88	C	-0.728707	-1.396835	0.655325
H89	H	-0.708484	-1.476556	0.623766
H90	H	-0.707142	-1.330316	0.602280
C91	C	-0.724678	-1.282792	0.808019
C92	C	-0.699840	-1.380711	0.769266
H93	H	-0.706870	-1.272841	0.878301
H94	H	-0.777297	-1.281736	0.808236
H95	H	-0.706705	-1.227371	0.763805
H96	H	-0.717820	-1.436130	0.813472
H97	H	-0.647223	-1.381775	0.769059
H98	H	-0.903999	-1.359012	0.464896
H99	H	-0.811253	-1.490100	0.333705
H100	H	-0.903621	-1.669523	0.381825
H101	H	-0.324361	-0.972464	0.692389
O102	O	-0.806785	-1.733226	0.565409
C103	C	-0.832994	-1.808371	0.491450
H104	H	-0.885414	-1.776872	0.451923
H105	H	-0.788802	-1.823000	0.428489
C106	C	-0.786128	-1.951929	0.597653
C107	C	-0.850514	-1.913245	0.549112
H108	H	-0.796932	-2.016623	0.633218
H109	H	-0.768468	-1.901304	0.647479
H110	H	-0.749307	-1.964112	0.545176
H111	H	-0.887330	-1.901051	0.601589
H112	H	-0.868181	-1.963872	0.499295
H113	H	-0.903741	-1.586100	0.692326
H114	H	-0.449306	-1.407000	0.947113
O115	O	-0.221673	-1.485883	0.941053
C116	C	-0.202735	-1.383441	0.977061
H117	H	-0.255349	-1.337485	0.996942
H118	H	-0.166677	-1.390210	1.051099
C119	C	-0.095063	-1.380918	0.865107
C120	C	-0.159685	-1.324471	0.889516
H121	H	-0.068505	-1.344542	0.811108
H122	H	-0.107820	-1.449937	0.840850
H123	H	-0.065024	-1.386554	0.926812
H124	H	-0.189727	-1.318847	0.827814
H125	H	-0.146932	-1.255449	0.913760
O126	O	-0.493841	-1.590247	1.086048
C127	C	-0.545990	-1.515043	1.049987
H128	H	-0.516455	-1.437558	1.030108
H129	H	-0.574850	-1.546651	0.975937
C130	C	-0.640142	-1.590032	1.161895
C131	C	-0.603867	-1.494861	1.137488
H132	H	-0.675846	-1.577586	1.215867
H133	H	-0.605010	-1.640701	1.186188
H134	H	-0.664186	-1.616363	1.100179
H135	H	-0.579817	-1.468540	1.199200
H136	H	-0.638997	-1.444187	1.113208
H137	H	-0.324180	-1.359099	1.080029
H138	H	-0.232774	-1.105243	0.561290
O139	O	-0.257895	-0.966211	0.370618
C140	C	-0.186569	-1.002362	0.398588
H141	H	-0.185241	-1.022286	0.486872
H142	H	-0.172596	-1.076403	0.350552
C143	C	-0.130957	-0.890448	0.266339
C144	C	-0.129324	-0.914910	0.374774
H145	H	-0.095644	-0.836507	0.251645
H146	H	-0.179011	-0.866095	0.247492
H147	H	-0.119315	-0.952156	0.226322
H148	H	-0.140975	-0.853206	0.414787
H149	H	-0.081271	-0.939251	0.393627
