data_functionalizedCrystal
_audit_creation_method	'MofGen! by Chris Wilmer'
_symmetry_space_group_name_H-M	'P1'
_symmetry_Int_Tables_number	1
_symmetry_cell_setting	triclinic
loop_
_symmetry_equiv_pos_as_xyz
  x,y,z
_cell_length_a	21.295418
_cell_length_b	19.077068
_cell_length_c	19.077271
_cell_angle_alpha	90.123862
_cell_angle_beta	92.263831
_cell_angle_gamma	87.656381
loop_
_atom_site_label
_atom_site_type_symbol
_atom_site_fract_x
_atom_site_fract_y
_atom_site_fract_z
Zn1	Zn	0.938165	0.263493	-0.408879
Zn2	Zn	1.438165	0.763493	0.091121
Zn3	Zn	0.937747	0.385726	-0.296085
Zn4	Zn	1.437747	0.885726	0.203915
Zn5	Zn	0.836953	0.268268	-0.291349
Zn6	Zn	1.336953	0.768268	0.208651
Zn7	Zn	0.828474	0.381002	-0.413513
Zn8	Zn	1.328474	0.881002	0.086487
O9	O	0.885335	0.324622	-0.352457
O10	O	1.385335	0.824622	0.147543
O11	O	1.026198	0.279686	-0.393960
O12	O	1.526198	0.779686	0.106040
O13	O	0.927749	0.374120	-0.197127
O14	O	1.427749	0.874120	0.302873
O15	O	0.854102	0.169300	-0.303019
O16	O	1.354102	0.669300	0.196981
O17	O	1.025891	0.369490	-0.311091
O18	O	1.525891	0.869490	0.188909
O19	O	0.928462	0.165791	-0.389367
O20	O	1.428462	0.665791	0.110633
O21	O	0.853696	0.287824	-0.193647
O22	O	1.353696	0.787824	0.306353
O23	O	0.747739	0.283244	-0.307512
O24	O	1.247739	0.783244	0.192488
O25	O	0.839652	0.361439	-0.511228
O26	O	1.339652	0.861439	-0.011228
O27	O	0.741510	0.366069	-0.397264
O28	O	1.241510	0.866069	0.102736
O29	O	0.920241	0.275105	-0.507824
O30	O	1.420241	0.775105	-0.007824
O31	O	0.919528	0.483434	-0.315584
O32	O	1.419528	0.983434	0.184416
O33	O	0.839246	0.479964	-0.401857
O34	O	1.339246	0.979964	0.098143
C35	C	0.721784	0.324662	-0.352377
C36	C	1.221784	0.824662	0.147623
C37	C	0.651816	0.324696	-0.352361
C38	C	1.151816	0.824696	0.147639
C39	C	0.878438	0.507195	-0.359752
C40	C	1.378438	1.007195	0.140248
C41	C	0.875544	0.585300	-0.362897
C42	C	1.375544	1.085300	0.137103
C43	C	0.879047	0.317213	-0.535735
C44	C	1.379047	0.817213	-0.035735
C45	C	0.876368	0.314055	-0.613837
C46	C	1.376368	0.814055	-0.113837
C47	C	0.615722	0.367885	-0.399030
C48	C	1.115722	0.867885	0.100970
C49	C	0.549979	0.367867	-0.399061
C50	C	1.049979	0.867867	0.100939
C51	C	0.520332	0.324667	-0.352410
C52	C	1.020332	0.824667	0.147590
C53	C	0.556434	0.281469	-0.305737
C54	C	1.056434	0.781469	0.194263
C55	C	0.622176	0.281483	-0.305712
C56	C	1.122176	0.781483	0.194288
N57	N	0.419388	0.321646	-0.290731
N58	N	0.919388	0.821646	0.209269
N59	N	0.356936	0.321636	-0.290756
N60	N	0.856936	0.821636	0.209244
C61	C	0.322257	0.324619	-0.352483
C62	C	0.822257	0.824619	0.147517
N63	N	0.352389	0.327625	-0.414185
N64	N	0.852389	0.827625	0.085815
N65	N	0.414846	0.327639	-0.414158
N66	N	0.914846	0.827639	0.085842
C67	C	0.449047	0.324646	-0.352432
C68	C	0.949047	0.824646	0.147568
C69	C	0.214877	0.367790	-0.399190
C70	C	0.714877	0.867790	0.100810
C71	C	0.149133	0.367767	-0.399222
C72	C	0.649133	0.867767	0.100778
C73	C	0.155590	0.281373	-0.305891
C74	C	0.655590	0.781373	0.194109
C75	C	0.221332	0.281392	-0.305866
C76	C	0.721332	0.781392	0.194134
C77	C	0.250972	0.324605	-0.352514
C78	C	0.750972	0.824605	0.147486
C79	C	1.049523	0.324582	-0.352537
C80	C	1.549523	0.824582	0.147463
C81	C	1.119491	0.324565	-0.352571
C82	C	1.619491	0.824565	0.147429
C83	C	0.892275	0.141336	-0.345148
C84	C	1.392275	0.641336	0.154852
C85	C	0.895232	0.063230	-0.342033
C86	C	1.395232	0.563230	0.157967
C87	C	0.916013	0.623776	-0.319494
C88	C	1.416013	1.123776	0.180506
C89	C	0.913295	0.697163	-0.322456
C90	C	1.413295	1.197163	0.177544
C91	C	0.870105	0.732073	-0.368818
C92	C	1.370105	1.232073	0.131182
C93	C	0.829634	0.693592	-0.412225
C94	C	1.329634	1.193592	0.087775
C95	C	0.832356	0.620206	-0.409267
C96	C	1.332356	1.120206	0.090733
C97	C	0.857483	0.951363	-0.382483
C98	C	1.357483	1.451363	0.117517
C99	C	0.854763	1.024754	-0.385437
C100	C	1.354763	1.524754	0.114563
C101	C	0.938426	1.028320	-0.295667
C102	C	1.438426	1.528320	0.204333
C103	C	0.941141	0.954932	-0.292710
C104	C	1.441141	1.454932	0.207290
C105	C	0.900672	0.916457	-0.336120
C106	C	1.400672	1.416457	0.163880
N107	N	0.867324	0.807087	-0.371845
N108	N	1.367324	1.307087	0.128155
N109	N	0.903456	0.841445	-0.333096
N110	N	1.403456	1.341445	0.166904
C111	C	0.857150	0.291464	-1.053277
C112	C	1.357150	0.791464	-0.553277
C113	C	0.859670	0.294429	-0.979892
C114	C	1.359670	0.794429	-0.479892
C115	C	0.899482	0.340844	-0.945010
C116	C	1.399482	0.840844	-0.445010
C117	C	0.936781	0.384293	-0.983517
C118	C	1.436781	0.884293	-0.483517
C119	C	0.934263	0.381325	-1.056901
C120	C	1.434263	0.881325	-0.556901
C121	C	0.911149	0.354536	-0.725729
C122	C	1.411149	0.854536	-0.225729
C123	C	0.913662	0.357502	-0.652340
C124	C	1.413662	0.857502	-0.152340
C125	C	0.836552	0.267637	-0.648719
C126	C	1.336552	0.767637	-0.148719
C127	C	0.834035	0.264676	-0.722105
C128	C	1.334035	0.764676	-0.222105
C129	C	0.871336	0.308122	-0.760606
C130	C	1.371336	0.808122	-0.260606
N131	N	0.902058	0.343877	-0.869998
N132	N	1.402058	0.843877	-0.369998
N133	N	0.868763	0.305085	-0.835616
N134	N	1.368763	0.805085	-0.335616
C135	C	0.891636	0.331952	-0.169889
C136	C	1.391636	0.831952	0.330111
C137	C	0.894444	0.334912	-0.091779
C138	C	1.394444	0.834912	0.408221
H139	H	0.520586	0.403036	-0.437068
H140	H	1.020586	0.903036	0.062932
O141	O	0.647685	0.414486	-0.449351
O142	O	1.147685	0.914486	0.050649
H143	H	0.677328	0.451475	-0.419261
H144	H	1.177328	0.951475	0.080739
O145	O	0.788700	0.578710	-0.456079
O146	O	1.288700	1.078710	0.043921
H147	H	0.816861	0.543784	-0.490525
H148	H	1.316861	1.043784	0.009475
O149	O	0.974487	0.428193	-1.098426
O150	O	1.474487	0.928193	-0.598426
H151	H	1.006564	0.395385	-1.130616
H152	H	1.506564	0.895385	-0.630616
H153	H	0.532292	0.246293	-0.267755
H154	H	1.032292	0.746293	0.232245
H155	H	0.651563	0.246311	-0.267708
H156	H	1.151563	0.746311	0.232292
O157	O	0.246853	0.414385	-0.449508
O158	O	0.746853	0.914385	0.050492
H159	H	0.210707	0.444406	-0.481976
H160	H	0.710707	0.944406	0.018024
H161	H	0.119746	0.402935	-0.437230
H162	H	0.619746	0.902935	0.062770
H163	H	0.829300	0.259050	-0.948546
H164	H	1.329300	0.759050	-0.448546
O165	O	0.814220	0.241391	-1.090899
O166	O	1.314220	0.741391	-0.590899
H167	H	0.779848	0.271486	-1.125573
H168	H	1.279848	0.771486	-0.625573
H169	H	0.969200	0.422082	-0.955111
H170	H	1.469200	0.922082	-0.455111
H171	H	0.806185	0.232264	-0.617364
H172	H	1.306185	0.732264	-0.117364
O173	O	0.123625	0.234782	-0.255567
O174	O	0.623625	0.734782	0.244433
H175	H	0.071846	0.242032	-0.263419
H176	H	0.571846	0.742032	0.236581
H177	H	0.824531	0.920042	-0.417828
H178	H	1.324531	1.420042	0.082172
O179	O	0.982079	1.069810	-0.248850
O180	O	1.482079	1.569810	0.251150
H181	H	1.031581	1.055157	-0.260403
H182	H	1.531581	1.555157	0.239597
H183	H	0.250720	0.246226	-0.267859
H184	H	0.750720	0.746226	0.232141
H185	H	0.801613	0.226882	-0.750500
H186	H	1.301613	0.726882	-0.250500
O187	O	0.951375	0.401409	-0.767238
O188	O	1.451375	0.901409	-0.267238
H189	H	0.983459	0.368610	-0.799429
H190	H	1.483459	0.868610	-0.299429
H191	H	0.951181	0.595357	-0.281738
H192	H	1.451181	1.095357	0.218262
H193	H	0.946249	0.728487	-0.287112
H194	H	1.446249	1.228487	0.212888
H195	H	0.976310	0.926510	-0.254958
H196	H	1.476310	1.426510	0.245042
H197	H	0.946097	0.395287	-0.623941
H198	H	1.446097	0.895287	-0.123941
H199	H	0.819599	1.053175	-0.423202
H200	H	1.319599	1.553175	0.076798
H201	H	0.794470	0.722022	-0.449977
H202	H	1.294470	1.222022	0.050023
