data_functionalizedCrystal
_audit_creation_method	'MofGen! by Chris Wilmer'
_symmetry_space_group_name_H-M	'P1'
_symmetry_Int_Tables_number	1
_symmetry_cell_setting	triclinic
loop_
_symmetry_equiv_pos_as_xyz
  x,y,z
_cell_length_a	21.395362
_cell_length_b	13.032721
_cell_length_c	21.395355
_cell_angle_alpha	97.165964
_cell_angle_beta	89.956060
_cell_angle_gamma	97.222741
loop_
_atom_site_label
_atom_site_type_symbol
_atom_site_fract_x
_atom_site_fract_y
_atom_site_fract_z
Zn1	Zn	0.926247	-0.415745	-0.386233
Zn2	Zn	1.426247	0.084255	0.113767
Zn3	Zn	0.912862	-0.590486	-0.294757
Zn4	Zn	1.412862	-0.090486	0.205243
Zn5	Zn	0.821458	-0.415794	-0.281438
Zn6	Zn	1.321458	0.084206	0.218562
Zn7	Zn	0.808142	-0.590507	-0.399463
Zn8	Zn	1.308142	-0.090507	0.100537
O9	O	0.867177	-0.503133	-0.340473
O10	O	1.367177	-0.003133	0.159527
O11	O	1.012151	-0.438895	-0.374135
O12	O	1.512151	0.061105	0.125865
O13	O	0.900708	-0.567324	-0.205313
O14	O	1.400708	-0.067324	0.294687
O15	O	0.846533	-0.269539	-0.284228
O16	O	1.346533	0.230461	0.215772
O17	O	1.002318	-0.567277	-0.306928
O18	O	1.502318	-0.067277	0.193072
O19	O	0.923520	-0.269504	-0.361220
O20	O	1.423520	0.230496	0.138780
O21	O	0.833554	-0.438978	-0.195527
O22	O	1.333554	0.061022	0.304473
O23	O	0.732011	-0.438999	-0.297057
O24	O	1.232011	0.061001	0.202943
O25	O	0.823837	-0.567313	-0.485385
O26	O	1.323837	-0.067313	0.014615
O27	O	0.722228	-0.567361	-0.383770
O28	O	1.222228	-0.067361	0.116230
O29	O	0.910608	-0.438916	-0.475665
O30	O	1.410608	0.061084	0.024335
O31	O	0.887796	-0.736737	-0.319757
O32	O	1.387796	-0.236737	0.180243
O33	O	0.810859	-0.736753	-0.396685
O34	O	1.310859	-0.236753	0.103315
C35	C	0.704385	-0.503188	-0.340404
C36	C	1.204385	-0.003188	0.159596
C37	C	0.634740	-0.503237	-0.340392
C38	C	1.134740	-0.003237	0.159608
C39	C	0.596943	-0.570163	-0.385490
C40	C	1.096943	-0.070163	0.114510
C41	C	0.531509	-0.570138	-0.385516
C42	C	1.031509	-0.070138	0.114484
C43	C	0.503875	-0.503197	-0.340433
C44	C	1.003875	-0.003197	0.159567
C45	C	0.541681	-0.436257	-0.295331
C46	C	1.041681	0.063743	0.204669
C47	C	0.607114	-0.436278	-0.295311
C48	C	1.107114	0.063722	0.204689
C49	C	0.400790	-0.494778	-0.283387
C50	C	0.900790	0.005222	0.216613
C51	C	0.335358	-0.494765	-0.283407
C52	C	0.835358	0.005235	0.216593
C53	C	0.302059	-0.503129	-0.340497
C54	C	0.802059	-0.003129	0.159503
C55	C	0.334199	-0.511527	-0.397570
C56	C	0.834199	-0.011527	0.102430
C57	C	0.399631	-0.511547	-0.397549
C58	C	0.899631	-0.011547	0.102451
C59	C	0.432925	-0.503167	-0.340451
C60	C	0.932925	-0.003167	0.159549
C61	C	0.193311	-0.570031	-0.385627
C62	C	0.693311	-0.070031	0.114373
C63	C	0.127877	-0.569998	-0.385654
C64	C	0.627877	-0.069998	0.114346
C65	C	0.138050	-0.436123	-0.295464
C66	C	0.638050	0.063877	0.204536
C67	C	0.203483	-0.436150	-0.295443
C68	C	0.703483	0.063850	0.204557
C69	C	0.231110	-0.503110	-0.340524
C70	C	0.731110	-0.003110	0.159476
C71	C	0.846447	-0.774665	-0.361116
C72	C	1.346447	-0.274665	0.138884
C73	C	0.837636	-0.890828	-0.369968
C74	C	1.337636	-0.390828	0.130032
C75	C	0.871809	-0.942574	-0.335881
C76	C	1.371809	-0.442574	0.164119
C77	C	0.862703	-1.062634	-0.345029
C78	C	1.362703	-0.562634	0.154971
C79	C	1.030605	-0.503078	-0.340542
C80	C	1.530605	-0.003078	0.159458
C81	C	1.100248	-0.503055	-0.340571
C82	C	1.600248	-0.003055	0.159429
C83	C	0.867231	-0.503112	-0.503894
C84	C	1.367231	-0.003112	-0.003894
C85	C	0.867254	-0.503103	-0.573535
C86	C	1.367254	-0.003103	-0.073535
C87	C	0.888005	-0.230541	-0.319763
C88	C	1.388005	0.269459	0.180237
C89	C	0.896880	-0.114378	-0.310937
C90	C	1.396880	0.385622	0.189063
C91	C	0.912434	-0.436244	-0.601188
C92	C	1.412434	0.063756	-0.101188
C93	C	0.912436	-0.436199	-0.666620
C94	C	1.412436	0.063801	-0.166620
C95	C	0.867264	-0.503032	-0.704398
C96	C	1.367264	-0.003032	-0.204398
C97	C	0.822076	-0.569895	-0.676738
C98	C	1.322076	-0.069895	-0.176738
C99	C	0.822070	-0.569931	-0.611306
C100	C	1.322070	-0.069931	-0.111306
C101	C	0.855132	-0.597135	-0.815225
C102	C	1.355132	-0.097135	-0.315225
C103	C	0.855142	-0.597102	-0.880656
C104	C	1.355142	-0.097102	-0.380656
C105	C	0.867276	-0.502921	-0.906210
C106	C	1.367276	-0.002921	-0.406210
C107	C	0.879414	-0.408772	-0.866327
C108	C	1.379414	0.091228	-0.366327
C109	C	0.879409	-0.408807	-0.800895
C110	C	1.379409	0.091193	-0.300895
C111	C	0.867264	-0.503000	-0.775348
C112	C	1.367264	-0.003000	-0.275348
C113	C	0.912462	-0.436008	-1.004811
C114	C	1.412462	0.063992	-0.504811
C115	C	0.912460	-0.435961	-1.070245
C116	C	1.412460	0.064039	-0.570245
C117	C	0.822102	-0.569667	-1.080362
C118	C	1.322102	-0.069667	-0.580362
C119	C	0.822101	-0.569704	-1.014930
C120	C	1.322101	-0.069704	-0.514930
C121	C	0.867284	-0.502876	-0.977158
C122	C	1.367284	-0.002876	-0.477158
C123	C	0.867165	-0.503079	-0.177681
C124	C	1.367165	-0.003079	0.322319
C125	C	0.867286	-0.502793	-0.108018
C126	C	1.367286	-0.002793	0.391982
H127	H	0.427897	-0.487962	-0.236894
H128	H	0.927897	0.012038	0.263106
C129	C	0.920441	-0.882363	-0.287306
C130	C	1.420441	-0.382363	0.212694
H131	H	0.940703	-0.930397	-0.267110
H132	H	1.440703	-0.430397	0.232890
H133	H	0.899690	-0.839843	-0.256761
H134	H	1.399690	-0.339843	0.243239
H135	H	0.950943	-0.839715	-0.308087
H136	H	1.450943	-0.339715	0.191913
C137	C	0.814070	-1.122846	-0.393606
C138	C	1.314070	-0.622846	0.106394
H139	H	0.814327	-1.195641	-0.393380
H140	H	1.314327	-0.695641	0.106620
H141	H	0.824564	-1.104959	-0.434362
H142	H	1.324564	-0.604959	0.065638
H143	H	0.773311	-1.105097	-0.383036
H144	H	1.273311	-0.605097	0.116964
C145	C	0.962140	-0.362659	-0.697045
C146	C	1.462140	0.137341	-0.197045
H147	H	0.989051	-0.322870	-0.665179
H148	H	1.489051	0.177130	-0.165179
H149	H	0.941660	-0.317115	-0.719090
H150	H	1.441660	0.182885	-0.219090
H151	H	0.986385	-0.402634	-0.725630
H152	H	1.486385	0.097366	-0.225630
H153	H	0.949225	-0.381825	-0.570438
H154	H	1.449225	0.118175	-0.070438
C155	C	0.297583	-0.520718	-0.460374
C156	C	0.797583	-0.020718	0.039626
H157	H	0.326094	-0.525726	-0.494359
H158	H	0.826094	-0.025726	0.005641
H159	H	0.276657	-0.460824	-0.461394
H160	H	0.776657	0.039176	0.038606
H161	H	0.267411	-0.581291	-0.464117
H162	H	0.767411	-0.081291	0.035883
C163	C	0.772378	-0.643494	-0.580888
C164	C	1.272378	-0.143494	-0.080888
H165	H	0.745477	-0.683299	-0.612757
H166	H	1.245477	-0.183299	-0.112757
H167	H	0.748130	-0.603550	-0.552296
H168	H	1.248130	-0.103550	-0.052296
H169	H	0.792875	-0.689039	-0.558854
H170	H	1.292875	-0.189039	-0.058854
H171	H	0.637889	-0.381775	-0.258586
H172	H	1.137889	0.118225	0.241414
H173	H	0.845085	-0.673809	-0.794423
H174	H	1.345085	-0.173809	-0.294423
H175	H	0.500729	-0.624637	-0.422242
H176	H	1.000729	-0.124637	0.077758
C177	C	0.434984	-0.520770	-0.460323
C178	C	0.934984	-0.020770	0.039677
H179	H	0.405786	-0.525741	-0.494329
H180	H	0.905786	-0.025741	0.005671
H181	H	0.455869	-0.581352	-0.464049
H182	H	0.955869	-0.081352	0.035951
H183	H	0.465102	-0.460885	-0.461322
H184	H	0.965102	0.039115	0.038678
H185	H	0.115552	-0.381613	-0.258760
H186	H	0.615552	0.118387	0.241240
C187	C	0.945516	-1.054173	-0.262360
C188	C	1.445516	-0.554173	0.237640
H189	H	0.965777	-1.102209	-0.242165
H190	H	1.465777	-0.602209	0.257835
H191	H	0.924766	-1.011653	-0.231814
H192	H	1.424766	-0.511653	0.268186
H193	H	0.976018	-1.011525	-0.283141
H194	H	1.476018	-0.511525	0.216859
C195	C	0.511286	-0.362625	-0.245742
C196	C	1.011286	0.137375	0.254258
H197	H	0.466903	-0.372204	-0.252209
H198	H	0.966903	0.127796	0.247791
H199	H	0.527399	-0.292431	-0.249641
H200	H	1.027399	0.207569	0.250359
H201	H	0.520800	-0.377824	-0.204779
H202	H	1.020800	0.122176	0.295221
H203	H	0.215806	-0.624548	-0.422338
H204	H	0.715806	-0.124548	0.077662
H205	H	0.801641	-0.935409	-0.405926
H206	H	1.301641	-0.435409	0.094074
H207	H	0.097103	-0.624495	-0.422382
H208	H	0.597103	-0.124495	0.077618
H209	H	0.889291	-0.332148	-0.768424
H210	H	1.389291	0.167852	-0.268424
C211	C	0.245062	-0.362544	-0.245827
C212	C	0.745062	0.137456	0.254173
H213	H	0.219234	-0.322678	-0.218977
H214	H	0.719234	0.177322	0.281023
H215	H	0.274101	-0.317074	-0.266371
H216	H	0.774101	0.182926	0.233629
H217	H	0.267494	-0.402474	-0.221514
H218	H	0.767494	0.097526	0.278486
H219	H	0.619432	-0.624686	-0.422199
H220	H	1.119432	-0.124686	0.077801
C221	C	0.893165	-0.305229	-0.894431
C222	C	1.393165	0.194771	-0.394431
H223	H	0.891546	-0.318706	-0.939113
H224	H	1.391546	0.181294	-0.439113
H225	H	0.933927	-0.272263	-0.881075
H226	H	1.433927	0.227737	-0.381075
H227	H	0.862616	-0.260866	-0.880455
H228	H	1.362616	0.239134	-0.380455
C229	C	0.300003	-0.485601	-0.220634
C230	C	0.800003	0.014399	0.279366
H231	H	0.256262	-0.486822	-0.228823
H232	H	0.756262	0.013178	0.271177
H233	H	0.315565	-0.421946	-0.195793
H234	H	0.815565	0.078054	0.304207
H235	H	0.306360	-0.542420	-0.198564
H236	H	0.806360	-0.042420	0.301436
C237	C	0.962151	-0.362484	-0.963259
C238	C	1.462151	0.137516	-0.463259
H239	H	0.989053	-0.322643	-0.989101
H240	H	1.489053	0.177357	-0.489101
H241	H	0.986398	-0.402458	-0.940795
H242	H	1.486398	0.097542	-0.440795
H243	H	0.941651	-0.316971	-0.934253
H244	H	1.441651	0.183029	-0.434253
C245	C	0.962161	-0.362413	-1.100662
C246	C	1.462161	0.137587	-0.600662
H247	H	0.989071	-0.322628	-1.068794
H248	H	1.489071	0.177372	-0.568794
H249	H	0.941678	-0.316865	-1.122703
H250	H	1.441678	0.183135	-0.622703
H251	H	0.986407	-0.402379	-1.129251
H252	H	1.486407	0.097621	-0.629251
H253	H	0.785316	-0.624073	-1.111120
H254	H	1.285316	-0.124073	-0.611120
C255	C	0.772406	-0.643258	-0.984511
C256	C	1.272406	-0.143258	-0.484511
H257	H	0.745505	-0.683061	-1.016380
H258	H	1.245505	-0.183061	-0.516380
H259	H	0.748159	-0.603303	-0.955923
H260	H	1.248159	-0.103303	-0.455923
H261	H	0.792897	-0.688805	-0.962471
H262	H	1.292897	-0.188805	-0.462471
C263	C	0.772390	-0.643415	-0.718291
C264	C	1.272390	-0.143415	-0.218291
H265	H	0.778868	-0.633827	-0.761222
H266	H	1.278868	-0.133827	-0.261222
H267	H	0.731458	-0.628143	-0.706377
H268	H	1.231458	-0.128143	-0.206377
H269	H	0.776199	-0.713639	-0.712918
H270	H	1.276199	-0.213639	-0.212918
C271	C	0.841798	-0.700658	-0.924524
C272	C	1.341798	-0.200658	-0.424524
H273	H	0.843549	-0.687151	-0.967153
H274	H	1.343549	-0.187151	-0.467153
H275	H	0.801100	-0.734097	-0.916322
H276	H	1.301100	-0.234097	-0.416322
H277	H	0.872527	-0.744610	-0.917167
H278	H	1.372527	-0.244610	-0.417167
