data_functionalizedCrystal
_audit_creation_method	'MofGen! by Chris Wilmer'
_symmetry_space_group_name_H-M	'P1'
_symmetry_Int_Tables_number	1
_symmetry_cell_setting	triclinic
loop_
_symmetry_equiv_pos_as_xyz
  x,y,z
_cell_length_a	16.959455
_cell_length_b	19.120786
_cell_length_c	16.959447
_cell_angle_alpha	87.526619
_cell_angle_beta	89.983056
_cell_angle_gamma	92.462118
loop_
_atom_site_label
_atom_site_type_symbol
_atom_site_fract_x
_atom_site_fract_y
_atom_site_fract_z
Zn1	Zn	1.194948	-0.279673	-0.433464
Zn2	Zn	1.694948	0.220327	0.066536
Zn3	Zn	1.189213	-0.397141	-0.295639
Zn4	Zn	1.689213	0.102859	0.204361
Zn5	Zn	1.062770	-0.279695	-0.301301
Zn6	Zn	1.562770	0.220305	0.198699
Zn7	Zn	1.057092	-0.397089	-0.427780
Zn8	Zn	1.557092	0.102911	0.072220
O9	O	1.126006	-0.338400	-0.364546
O10	O	1.626006	0.161600	0.135454
O11	O	1.304798	-0.295268	-0.415191
O12	O	1.804798	0.204732	0.084809
O13	O	1.172416	-0.381593	-0.185777
O14	O	1.672416	0.118407	0.314223
O15	O	1.085080	-0.181402	-0.323581
O16	O	1.585080	0.318598	0.176419
O17	O	1.300584	-0.381572	-0.313931
O18	O	1.800584	0.118428	0.186069
O19	O	1.182191	-0.181386	-0.420681
O20	O	1.682191	0.318614	0.079319
O21	O	1.079518	-0.295306	-0.189937
O22	O	1.579518	0.204694	0.310063
O23	O	0.951406	-0.295255	-0.318069
O24	O	1.451406	0.204745	0.181931
O25	O	1.075403	-0.381482	-0.539146
O26	O	1.575403	0.118518	-0.039146
O27	O	0.947235	-0.381503	-0.410993
O28	O	1.447235	0.118497	0.089007
O29	O	1.176685	-0.295217	-0.543323
O30	O	1.676685	0.204783	-0.043323
O31	O	1.166910	-0.495425	-0.308419
O32	O	1.666910	0.004575	0.191581
O33	O	1.069842	-0.495386	-0.405503
O34	O	1.569842	0.004614	0.094497
C35	C	0.920640	-0.338376	-0.364529
C36	C	1.420640	0.161624	0.135471
C37	C	0.832784	-0.338383	-0.364540
C38	C	1.332784	0.161617	0.135460
C39	C	0.463456	-0.293453	-0.316268
C40	C	0.963456	0.206547	0.183732
C41	C	0.459155	-0.383404	-0.412866
C42	C	0.959155	0.116596	0.087134
C43	C	0.541701	-0.383394	-0.412862
C44	C	1.041701	0.116606	0.087138
C45	C	0.585129	-0.338413	-0.364559
C46	C	1.085129	0.161587	0.135441
C47	C	0.546011	-0.293443	-0.316260
C48	C	1.046011	0.206557	0.183740
C49	C	0.580826	-0.428368	-0.461154
C50	C	1.080826	0.071632	0.038846
C51	C	0.663377	-0.428360	-0.461151
C52	C	1.163377	0.071640	0.038849
C53	C	0.706807	-0.383376	-0.412851
C54	C	1.206807	0.116624	0.087149
C55	C	0.667683	-0.338403	-0.364551
C56	C	1.167683	0.161597	0.135449
C57	C	0.711111	-0.293423	-0.316248
C58	C	1.211111	0.206577	0.183752
C59	C	0.671989	-0.248447	-0.267952
C60	C	1.171989	0.251553	0.232048
C61	C	0.589440	-0.248459	-0.267961
C62	C	1.089440	0.251541	0.232039
C63	C	0.789356	-0.383364	-0.412843
C64	C	1.289356	0.116636	0.087157
C65	C	0.793665	-0.293413	-0.316241
C66	C	1.293665	0.206587	0.183759
C67	C	1.117159	-0.520891	-0.355747
C68	C	1.617159	-0.020891	0.144253
C69	C	1.113447	-0.598961	-0.352009
C70	C	1.613447	-0.098961	0.147991
C71	C	1.162226	-0.635570	-0.400849
C72	C	1.662226	-0.135570	0.099151
C73	C	1.158734	-0.708926	-0.397338
C74	C	1.658734	-0.208926	0.102662
C75	C	1.106468	-0.745671	-0.344983
C76	C	1.606468	-0.245671	0.155017
C77	C	1.057684	-0.709057	-0.296141
C78	C	1.557684	-0.209057	0.203859
C79	C	1.061171	-0.635703	-0.299656
C80	C	1.561171	-0.135703	0.200344
C81	C	1.093406	-0.967157	-0.331842
C82	C	1.593406	-0.467157	0.168158
C83	C	1.089923	-1.040516	-0.328328
C84	C	1.589923	-0.540516	0.171672
C85	C	1.190973	-1.040380	-0.429527
C86	C	1.690973	-0.540380	0.070473
C87	C	1.194460	-0.967024	-0.433034
C88	C	1.694460	-0.467024	0.066966
C89	C	1.145673	-0.930417	-0.384195
C90	C	1.645673	-0.430417	0.115805
C91	C	1.102900	-0.820652	-0.341392
C92	C	1.602900	-0.320652	0.158608
C93	C	1.149238	-0.855437	-0.387791
C94	C	1.649238	-0.355437	0.112209
C95	C	1.332173	-0.338423	-0.364563
C96	C	1.832173	0.161577	0.135437
C97	C	1.420029	-0.338433	-0.364571
C98	C	1.920029	0.161567	0.135429
C99	C	1.126051	-0.338341	-0.570717
C100	C	1.626051	0.161659	-0.070717
C101	C	1.126070	-0.338316	-0.658575
C102	C	1.626070	0.161684	-0.158575
C103	C	1.134908	-0.155196	-0.373397
C104	C	1.634908	0.344804	0.126603
C105	C	1.138702	-0.077125	-0.377168
C106	C	1.638702	0.422875	0.122832
C107	C	1.077776	-0.293317	-1.032226
C108	C	1.577776	0.206683	-0.532226
C109	C	1.174511	-0.383168	-1.027882
C110	C	1.674511	0.116832	-0.527882
C111	C	1.174496	-0.383184	-0.945335
C112	C	1.674496	0.116816	-0.445335
C113	C	1.126120	-0.338267	-0.906230
C114	C	1.626120	0.161733	-0.406230
C115	C	1.077758	-0.293333	-0.949672
C116	C	1.577758	0.206667	-0.449672
C117	C	1.222851	-0.428123	-0.901887
C118	C	1.722851	0.071877	-0.401887
C119	C	1.222838	-0.428141	-0.819336
C120	C	1.722838	0.071859	-0.319336
C121	C	1.174465	-0.383220	-0.780229
C122	C	1.674465	0.116780	-0.280229
C123	C	1.126102	-0.338283	-0.823676
C124	C	1.626102	0.161717	-0.323676
C125	C	1.077726	-0.293366	-0.784571
C126	C	1.577726	0.206634	-0.284571
C127	C	1.029367	-0.248426	-0.828016
C128	C	1.529367	0.251574	-0.328016
C129	C	1.029386	-0.248411	-0.910565
C130	C	1.529386	0.251589	-0.410565
C131	C	1.174446	-0.383234	-0.697680
C132	C	1.674446	0.116766	-0.197680
C133	C	1.077708	-0.293382	-0.702016
C134	C	1.577708	0.206618	-0.202016
C135	C	1.126009	-0.338407	-0.159179
C136	C	1.626009	0.161593	0.340821
C137	C	1.126152	-0.338234	-0.071331
C138	C	1.626152	0.161766	0.428669
H139	H	1.204790	-0.605657	-0.443478
H140	H	1.704790	-0.105657	0.056522
H141	H	1.230692	-1.070193	-0.469289
H142	H	1.730692	-0.570193	0.030711
H143	H	0.423791	-0.420029	-0.452188
H144	H	0.923791	0.079971	0.047812
H145	H	1.038405	-0.256725	-1.067603
H146	H	1.538405	0.243275	-0.567603
H147	H	1.213825	-0.419819	-0.662311
H148	H	1.713825	0.080181	-0.162311
H149	H	0.990013	-0.211824	-0.945946
H150	H	1.490013	0.288176	-0.445946
H151	H	1.053683	-0.937357	-0.292074
H152	H	1.553683	-0.437357	0.207926
O153	O	1.013901	-0.600063	-0.252177
O154	O	1.513901	-0.100063	0.247823
C155	C	1.060948	-0.557641	-0.203183
C156	C	1.560948	-0.057641	0.296817
H157	H	1.121358	-0.546590	-0.231642
H158	H	1.621358	-0.046590	0.268358
H159	H	1.031206	-0.506088	-0.195034
H160	H	1.531206	-0.006088	0.304966
H161	H	1.068321	-0.585939	-0.143258
H162	H	1.568321	-0.085939	0.356742
H163	H	1.038318	-0.256801	-0.670183
H164	H	1.538318	0.243199	-0.170183
O165	O	0.701467	-0.471945	-0.508115
O166	O	1.201467	0.028055	-0.008115
C167	C	0.751144	-0.432000	-0.561177
C168	C	1.251144	0.068000	-0.061177
H169	H	0.766073	-0.378740	-0.535960
H170	H	1.266073	0.121260	-0.035960
H171	H	0.807815	-0.460612	-0.570341
H172	H	1.307815	0.039388	-0.070341
H173	H	0.719716	-0.424347	-0.620135
H174	H	1.219716	0.075653	-0.120135
H175	H	0.989975	-0.211857	-0.796166
H176	H	1.489975	0.288143	-0.296166
H177	H	0.431600	-0.256832	-0.276948
H178	H	0.931600	0.243168	0.223052
O179	O	1.199901	-0.819668	-0.438689
O180	O	1.699901	-0.319668	0.061311
C181	C	1.156882	-0.777252	-0.491746
C182	C	1.656882	-0.277252	0.008254
H183	H	1.097513	-0.766331	-0.464341
H184	H	1.597513	-0.266331	0.035659
H185	H	1.191520	-0.725636	-0.504833
H186	H	1.691520	-0.225636	-0.004833
H187	H	1.146828	-0.805490	-0.548965
H188	H	1.646828	-0.305490	-0.048965
O189	O	1.039075	-1.076104	-0.277451
O190	O	1.539075	-0.576104	0.222549
C191	C	0.996774	-1.028064	-0.235085
C192	C	1.496774	-0.528064	0.264915
H193	H	0.996503	-0.975757	-0.269963
H194	H	1.496503	-0.475757	0.230037
H195	H	0.933493	-1.049313	-0.225586
H196	H	1.433493	-0.549313	0.274414
H197	H	1.026120	-1.020277	-0.175450
H198	H	1.526120	-0.520277	0.324550
H199	H	1.213890	-0.419743	-1.059726
H200	H	1.713890	0.080257	-0.559726
H201	H	1.237020	-0.937107	-0.475666
H202	H	1.737020	-0.437107	0.024334
H203	H	0.829018	-0.256780	-0.276911
H204	H	1.329018	0.243220	0.223089
H205	H	1.015124	-0.738981	-0.253516
H206	H	1.515124	-0.238981	0.246484
H207	H	1.262227	-0.464700	-0.933733
H208	H	1.762227	0.035300	-0.433733
H209	H	1.262214	-0.464735	-0.783969
H210	H	1.762214	0.035265	-0.283969
H211	H	0.707358	-0.211827	-0.228620
H212	H	1.207358	0.288173	0.271380
H213	H	0.821205	-0.419985	-0.452162
H214	H	1.321205	0.080015	0.047838
O215	O	0.538605	-0.471954	-0.508160
O216	O	1.038605	0.028046	-0.008160
C217	C	0.492795	-0.432016	-0.561198
C218	C	0.992795	0.067984	-0.061198
H219	H	0.520359	-0.376704	-0.568847
H220	H	1.020359	0.123296	-0.068847
H221	H	0.490640	-0.457485	-0.620754
H222	H	0.990640	0.042515	-0.120754
H223	H	0.430344	-0.429566	-0.536881
H224	H	0.930344	0.070434	-0.036881
O225	O	1.052023	-0.856318	-0.290616
O226	O	1.552023	-0.356318	0.209384
C227	C	0.974081	-0.838431	-0.308655
C228	C	1.474081	-0.338431	0.191345
H229	H	0.971005	-0.818225	-0.372762
H230	H	1.471005	-0.318225	0.127238
H231	H	0.932745	-0.886708	-0.299501
H232	H	1.432745	-0.386708	0.200499
H233	H	0.955466	-0.795899	-0.268289
H234	H	1.455466	-0.295899	0.231711
H235	H	0.557579	-0.211842	-0.228639
H236	H	1.057579	0.288158	0.271361
H237	H	1.198461	-0.738729	-0.437103
H238	H	1.698461	-0.238729	0.062897
