data_functionalizedCrystal
_audit_creation_method	'MofGen! by Chris Wilmer'
_symmetry_space_group_name_H-M	'P1'
_symmetry_Int_Tables_number	1
_symmetry_cell_setting	triclinic
loop_
_symmetry_equiv_pos_as_xyz
  x,y,z
_cell_length_a	21.606444
_cell_length_b	20.016444
_cell_length_c	21.606444
_cell_angle_alpha	60.001998
_cell_angle_beta	90.002531
_cell_angle_gamma	59.999748
loop_
_atom_site_label
_atom_site_type_symbol
_atom_site_fract_x
_atom_site_fract_y
_atom_site_fract_z
Zr1	Zr	0.596232	0.731252	-0.081180
O2	O	0.497402	0.870630	-0.180001
O3	O	0.626528	0.591878	-0.050890
O4	O	0.626522	0.731257	-0.180006
O5	O	0.497414	0.731246	0.050969
O6	O	0.728374	0.731257	-0.180004
O7	O	0.497409	0.731251	-0.050885
O8	O	0.728385	0.481934	0.050961
O9	O	0.497403	0.980569	-0.179996
O10	O	0.715460	0.649203	-0.037965
O11	O	0.639453	0.649200	0.038046
O12	O	0.639446	0.813300	-0.113971
O13	O	0.563439	0.813297	-0.037960
Zr14	Zr	0.758682	0.731245	0.081269
Zr15	Zr	0.758674	0.731252	-0.081177
Zr16	Zr	0.596240	0.731245	0.081266
Zr17	Zr	0.596232	0.906593	-0.081171
Zr18	Zr	0.758682	0.555904	0.081260
O19	O	0.728386	0.870619	0.050979
O20	O	0.728374	0.870629	-0.179998
O21	O	0.497414	0.870619	0.050975
O22	O	0.857512	0.591867	0.180090
O23	O	0.857500	0.591878	-0.050886
O24	O	0.626540	0.591867	0.180087
O25	O	0.857500	0.731251	-0.050880
O26	O	0.728392	0.731240	0.180095
O27	O	0.626540	0.731240	0.180093
O28	O	0.857505	0.731246	0.050974
O29	O	0.626522	0.980569	-0.179994
O30	O	0.728392	0.481928	0.180083
O31	O	0.857511	0.481928	0.180085
O32	O	0.857505	0.481934	0.050963
O33	O	0.497409	0.980563	-0.050874
O34	O	0.626529	0.980563	-0.050872
O35	O	0.715468	0.649196	0.114060
O36	O	0.791475	0.649200	0.038049
O37	O	0.715461	0.813297	-0.037957
O38	O	0.639454	0.813293	0.038054
C39	C	0.677456	0.511924	0.000034
C40	C	0.677456	0.437487	0.000031
C41	C	0.717134	0.266219	-0.039634
C42	C	0.717136	0.196271	-0.039628
C43	C	0.637779	0.196281	0.039728
C44	C	0.637782	0.266222	0.039726
C45	C	0.677457	0.301193	0.000041
C46	C	0.677457	0.161304	0.000048
C47	C	0.677459	0.085464	0.000055
C48	C	0.677456	0.377037	0.000035
C49	C	0.474267	0.731249	0.000041
C50	C	0.405306	0.731249	0.000040
C51	C	0.372905	0.731254	-0.056074
C52	C	0.308111	0.731249	-0.056071
C53	C	0.275716	0.731246	0.000043
C54	C	0.308123	0.731238	0.056163
C55	C	0.372919	0.731236	0.056163
C56	C	0.046809	0.731245	0.056166
C57	C	-0.017992	0.731249	0.056161
C58	C	-0.017999	0.731258	-0.056068
C59	C	0.046797	0.731256	-0.056069
C60	C	0.079201	0.731243	0.000053
C61	C	0.149458	0.731246	0.000051
C62	C	0.205456	0.731249	0.000044
C63	C	0.880647	0.731248	0.000048
C64	C	0.949608	0.731248	0.000049
C65	C	0.677447	0.731258	-0.203150
C66	C	0.677443	0.731261	-0.272113
C67	C	0.677457	0.950573	0.000055
C68	C	0.677458	1.025010	0.000058
C69	C	0.637764	0.816917	-0.344186
C70	C	0.637771	0.816915	-0.408980
C71	C	0.677452	0.731255	-0.401701
C72	C	0.717136	0.645592	-0.329620
C73	C	0.717134	0.645595	-0.264827
C74	C	0.717148	0.645575	-0.590923
C75	C	0.717146	0.645578	-0.655724
C76	C	0.637785	0.816895	-0.735077
C77	C	0.637783	0.816898	-0.670283
C78	C	0.677470	0.731236	-0.598209
C79	C	0.677463	0.731240	-0.527951
C80	C	0.677455	0.731250	-0.471956
C81	C	0.677467	0.731239	0.203239
C82	C	0.677471	0.731236	0.272201
C83	C	0.880647	0.511923	0.000037
C84	C	0.949608	0.437486	0.000035
C85	C	0.677467	0.511914	0.203229
C86	C	0.677470	0.437474	0.272188
C87	C	0.880657	0.511914	0.203232
C88	C	0.949621	0.437474	0.272192
C89	C	0.474257	0.950583	-0.203143
C90	C	0.405293	1.025023	-0.272103
C91	C	0.474267	0.950573	0.000052
C92	C	0.405306	1.025010	0.000054
C93	C	0.677447	0.950583	-0.203140
C94	C	0.677444	1.025023	-0.272099
C95	C	0.942313	0.402532	-0.039651
C96	C	1.007103	0.332600	-0.039669
C97	C	1.079186	0.297619	0.000005
C98	C	1.086479	0.332581	0.039693
C99	C	1.021690	0.402516	0.039705
C100	C	0.717151	0.402514	0.344257
C101	C	0.717151	0.332580	0.409057
C102	C	0.677475	0.297602	0.401787
C103	C	0.637789	0.332568	0.329710
C104	C	0.637785	0.402506	0.264912
C105	C	1.021690	0.402518	0.264899
C106	C	1.086495	0.332583	0.329688
C107	C	1.079231	0.297601	0.401769
C108	C	1.007155	0.332564	0.409061
C109	C	0.942351	0.402502	0.344272
C110	C	0.333224	1.059988	-0.264810
C111	C	0.268419	1.129944	-0.329599
C112	C	0.275683	1.164930	-0.401680
C113	C	0.347759	1.129962	-0.408972
C114	C	0.412563	1.060012	-0.344183
C115	C	0.412601	1.059972	0.039734
C116	C	0.347811	1.129923	0.039733
C117	C	0.275728	1.164906	0.000057
C118	C	0.268435	1.129942	-0.039627
C119	C	0.333224	1.059997	-0.039631
C120	C	0.717128	1.059979	-0.264804
C121	C	0.717140	1.129914	-0.329592
C122	C	0.677462	1.164896	-0.401674
C123	C	0.637777	1.129933	-0.408967
C124	C	0.637770	1.059995	-0.344180
H125	H	0.605476	0.167801	0.072037
Cl126	Cl	0.413654	0.731224	0.126712
H127	H	0.677474	1.221845	-0.454422
H128	H	0.605472	0.294698	0.072037
H129	H	-0.044387	0.731265	-0.101764
Cl130	Cl	0.324072	1.016020	-0.174202
H131	H	0.471289	1.031494	0.072048
H132	H	0.353764	1.158380	0.072052
Cl133	Cl	0.194285	1.252836	0.000071
Cl134	Cl	0.177810	1.173927	-0.089499
Cl135	Cl	0.767024	0.537904	-0.320468
Cl136	Cl	0.767027	0.537909	-0.174218
Cl137	Cl	0.177819	1.173885	-0.320416
H138	H	1.132004	0.240653	0.454518
H139	H	0.883673	0.430954	0.350221
H140	H	0.605473	1.158427	-0.467665
H141	H	0.605445	0.886672	-0.350122
H142	H	0.749438	1.031507	-0.206117
Cl143	Cl	1.177104	0.288591	0.089569
Cl144	Cl	0.998036	0.288575	0.499683
H145	H	0.605461	0.886665	-0.467664
Cl146	Cl	0.587894	0.924586	-0.825690
Cl147	Cl	0.324040	1.016047	-0.089513
Cl148	Cl	0.767028	1.173858	-0.320406
Cl149	Cl	0.587868	1.016067	-0.353364
H150	H	0.749441	0.294688	-0.071946
Cl151	Cl	0.767037	0.537883	-0.646567
H152	H	0.749445	0.167796	-0.071933
H153	H	1.027640	0.430967	0.072027
H154	H	0.399273	0.731263	-0.101772
H155	H	0.749464	0.575824	-0.532245
H156	H	0.749470	0.304118	0.467739
H157	H	0.281730	0.731253	-0.101763
H158	H	0.073168	0.731263	-0.101764
H159	H	0.471242	1.031544	-0.350130
Cl160	Cl	0.194207	1.252867	-0.483122
Cl161	Cl	0.356878	1.173951	-0.499594
H162	H	0.073186	0.731236	0.101861
Cl163	Cl	0.267403	0.731227	0.126712
Cl164	Cl	-0.058716	0.731243	0.126711
Cl165	Cl	0.997918	0.288659	-0.089562
Cl166	Cl	0.587884	0.924589	-0.679441
Cl167	Cl	0.851702	0.446497	-0.089537
H168	H	0.677484	0.240654	0.454557
Cl169	Cl	1.160629	0.209698	-0.000016
Cl170	Cl	0.587916	0.288583	0.320583
Cl171	Cl	0.767038	0.446470	0.353417
Cl172	Cl	1.177095	0.288640	0.320505
H173	H	0.605475	0.430961	0.206232
Cl174	Cl	1.030842	0.446487	0.174291
