data_functionalizedCrystal
_audit_creation_method	'MofGen! by Chris Wilmer'
_symmetry_space_group_name_H-M	'P1'
_symmetry_Int_Tables_number	1
_symmetry_cell_setting	triclinic
loop_
_symmetry_equiv_pos_as_xyz
  x,y,z
_cell_length_a	16.098538
_cell_length_b	11.792241
_cell_length_c	11.792241
_cell_angle_alpha	84.193416
_cell_angle_beta	87.249802
_cell_angle_gamma	92.758820
loop_
_atom_site_label
_atom_site_type_symbol
_atom_site_fract_x
_atom_site_fract_y
_atom_site_fract_z
O1	O	0.069176	-1.501853	-0.160603
O2	O	0.069196	-1.171511	-0.176637
O3	O	0.069180	-1.344699	-0.003449
O4	O	0.069192	-1.328665	-0.333791
O5	O	-0.069334	-1.354806	0.006638
O6	O	-0.069318	-1.181618	-0.166550
O7	O	-0.069338	-1.511961	-0.150516
Zn8	Zn	-0.091320	-1.348394	-0.156932
Zn9	Zn	0.091178	-1.335077	-0.170221
O10	O	-0.069321	-1.338773	-0.323704
C11	C	-0.000059	-1.134273	-0.170587
C12	C	-0.000051	-1.008259	-0.167573
N13	N	-0.215870	-1.357491	-0.147861
N14	N	0.215728	-1.325990	-0.179283
C15	C	0.259306	-1.399640	-0.105917
C16	C	0.346496	-1.393281	-0.112253
C17	C	0.390106	-1.313264	-0.191951
C18	C	0.346521	-1.239610	-0.265325
C19	C	0.259333	-1.245976	-0.258993
C20	C	0.653358	-1.290203	-0.214903
C21	C	0.740552	-1.283840	-0.221227
C22	C	0.740521	-1.437513	-0.068156
C23	C	0.653331	-1.443868	-0.061827
C24	C	0.609754	-1.370218	-0.135205
C25	C	0.479227	-1.306759	-0.198427
C26	C	0.520634	-1.376729	-0.128733
C27	C	-0.000077	-1.348746	0.043886
C28	C	-0.000076	-1.345731	0.169899
C29	C	-0.000081	-1.549198	-0.156566
C30	C	-0.000083	-1.675212	-0.159581
C31	C	-0.000076	-0.777549	-0.162028
C32	C	-0.000062	-0.905933	-0.165109
C33	C	-0.000063	-1.334726	-0.371038
C34	C	-0.000059	-1.337740	-0.497052
C35	C	-0.000062	-1.340187	0.400610
C36	C	-0.000069	-1.343268	0.272226
H37	H	0.223805	-1.464794	-0.041014
H38	H	0.776009	-1.497477	-0.008417
H39	H	0.776055	-1.218676	-0.286130
O40	O	0.521685	-1.229173	-0.275890
C41	C	0.620121	-1.198484	-0.437903
C42	C	0.572100	-1.286466	-0.350231
H43	H	0.660880	-1.244772	-0.498046
H44	H	0.660991	-1.138635	-0.391416
H45	H	0.573988	-1.146901	-0.489202
H46	H	0.618173	-1.338128	-0.298907
H47	H	0.531217	-1.346237	-0.396787
O48	O	0.388698	-1.464873	-0.040864
C49	C	0.379466	-1.618005	0.111590
C50	C	0.331569	-1.536973	0.030825
H51	H	0.333298	-1.676335	0.169555
H52	H	0.420258	-1.565854	0.165838
H53	H	0.420312	-1.671871	0.059103
H54	H	0.290679	-1.483090	0.083223
H55	H	0.290831	-1.589192	-0.023426
H56	H	0.617826	-1.509024	0.003069
H57	H	0.617884	-1.230232	-0.274648
H58	H	0.382033	-1.174462	-0.330222
H59	H	0.223853	-1.186003	-0.318736
H60	H	0.485124	-1.441883	-0.063847
