data_functionalizedCrystal
_audit_creation_method	'MofGen! by Chris Wilmer'
_symmetry_space_group_name_H-M	'P1'
_symmetry_Int_Tables_number	1
_symmetry_cell_setting	triclinic
loop_
_symmetry_equiv_pos_as_xyz
  x,y,z
_cell_length_a	16.625546
_cell_length_b	19.077142
_cell_length_c	19.077271
_cell_angle_alpha	90.085571
_cell_angle_beta	87.715040
_cell_angle_gamma	92.282081
loop_
_atom_site_label
_atom_site_type_symbol
_atom_site_fract_x
_atom_site_fract_y
_atom_site_fract_z
Zn1	Zn	-0.390225	-1.058199	0.440438
Zn2	Zn	0.109775	-0.558199	0.940438
Zn3	Zn	-0.519834	-1.062865	0.322929
Zn4	Zn	-0.019834	-0.562865	0.822929
Zn5	Zn	-0.379386	-0.945440	0.318229
Zn6	Zn	0.120614	-0.445440	0.818229
Zn7	Zn	-0.519379	-0.940666	0.435677
Zn8	Zn	-0.019379	-0.440666	0.935677
O9	O	-0.452206	-1.001793	0.379318
O10	O	0.047794	-0.501793	0.879318
O11	O	-0.412145	-1.157149	0.428810
O12	O	0.087855	-0.657149	0.928810
O13	O	-0.496858	-1.051239	0.223975
O14	O	0.003142	-0.551239	0.723975
O15	O	-0.267995	-0.960443	0.334467
O16	O	0.232005	-0.460443	0.834467
O17	O	-0.507368	-1.160577	0.342476
O18	O	-0.007368	-0.660577	0.842476
O19	O	-0.275958	-1.043287	0.424253
O20	O	0.224042	-0.543287	0.924253
O21	O	-0.393671	-0.964967	0.220522
O22	O	0.106329	-0.464967	0.720522
O23	O	-0.393229	-0.846475	0.329849
O24	O	0.106771	-0.346475	0.829849
O25	O	-0.506592	-0.952307	0.534639
O26	O	-0.006592	-0.452307	1.034639
O27	O	-0.496081	-0.842968	0.416137
O28	O	0.003919	-0.342968	0.916137
O29	O	-0.411703	-1.038658	0.538137
O30	O	0.088297	-0.538658	1.038137
O31	O	-0.632603	-1.046610	0.337859
O32	O	-0.132603	-0.546610	0.837859
O33	O	-0.632268	-0.956831	0.420694
O34	O	-0.132268	-0.456831	0.920694
C35	C	-0.661692	-1.001727	0.379286
C36	C	-0.161692	-0.501727	0.879286
C37	C	-0.751316	-1.001763	0.379299
C38	C	-0.251316	-0.501763	0.879299
C39	C	-0.443430	-0.819226	0.371967
C40	C	0.056570	-0.319226	0.871967
C41	C	-0.439696	-0.741122	0.368839
C42	C	0.060304	-0.241122	0.868839
C43	C	-0.460306	-0.994429	0.562597
C44	C	0.039694	-0.494429	1.062597
C45	C	-0.463758	-0.991292	0.640699
C46	C	0.036242	-0.491292	1.140699
C47	C	-1.079500	-1.001882	0.379377
C48	C	-0.579500	-0.501882	0.879377
C49	C	-0.988189	-1.001847	0.379357
C50	C	-0.488189	-0.501847	0.879357
C51	C	-0.915411	-1.001822	0.379337
C52	C	-0.415411	-0.501822	0.879337
C53	C	-0.824094	-1.001787	0.379318
C54	C	-0.324094	-0.501787	0.879318
C55	C	-0.241903	-1.001877	0.379367
C56	C	0.258097	-0.501877	0.879367
C57	C	-0.152285	-1.001913	0.379387
C58	C	0.347715	-0.501913	0.879387
C59	C	-0.491566	-0.702624	0.412224
C60	C	0.008434	-0.202624	0.912224
C61	C	-0.488047	-0.629237	0.409288
C62	C	0.011953	-0.129237	0.909288
C63	C	-0.432662	-0.594350	0.362963
C64	C	0.067338	-0.094350	0.862963
C65	C	-0.380786	-0.632853	0.319576
C66	C	0.119214	-0.132853	0.819576
C67	C	-0.384302	-0.706239	0.322516
C68	C	0.115698	-0.206239	0.822516
C69	C	-0.416393	-0.375065	0.349364
C70	C	0.083607	0.124935	0.849364
C71	C	-0.412883	-0.301675	0.346425
C72	C	0.087117	0.198325	0.846425
C73	C	-0.520143	-0.298064	0.436139
C74	C	-0.020143	0.201936	0.936139
C75	C	-0.523657	-0.371451	0.439072
C76	C	-0.023657	0.128549	0.939072
C77	C	-0.471779	-0.409947	0.395687
C78	C	0.028221	0.090053	0.895687
N79	N	-0.429065	-0.519337	0.359959
N80	N	0.070935	-0.019337	0.859959
N81	N	-0.475372	-0.484959	0.398695
N82	N	0.024628	0.015041	0.898695
C83	C	-0.461012	-0.185073	0.386690
C84	C	0.038988	0.314927	0.886690
C85	C	-0.464753	-0.263177	0.389811
C86	C	0.035247	0.236823	0.889811
C87	C	-0.415978	-1.034774	0.679214
C88	C	0.084022	-0.534774	1.179214
C89	C	-0.419218	-1.031817	0.752599
C90	C	0.080782	-0.531817	1.252599
C91	C	-0.470242	-0.985381	0.787468
C92	C	0.029758	-0.485381	1.287468
C93	C	-0.518023	-0.941894	0.748947
C94	C	-0.018023	-0.441894	1.248947
C95	C	-0.514779	-0.944848	0.675563
C96	C	-0.014779	-0.444848	1.175563
C97	C	-0.485239	-0.971723	1.006746
C98	C	0.014761	-0.471723	1.506746
C99	C	-0.488482	-0.968774	1.080135
C100	C	0.011518	-0.468774	1.580135
C101	C	-0.389675	-1.058696	1.083782
C102	C	0.110325	-0.558696	1.583782
C103	C	-0.386438	-1.061649	1.010397
C104	C	0.113562	-0.561649	1.510397
C105	C	-0.434216	-1.018159	0.971882
C106	C	0.065784	-0.518159	1.471882
N107	N	-0.473556	-0.982359	0.862479
N108	N	0.026444	-0.482359	1.362479
N109	N	-0.430897	-1.021178	0.896872
N110	N	0.069103	-0.521178	1.396872
C111	C	-0.444155	-1.009121	1.196753
C112	C	0.055845	-0.509121	1.696753
C113	C	-0.440702	-1.012256	1.118650
C114	C	0.059298	-0.512256	1.618650
H115	H	-0.536670	-0.731024	0.449945
H116	H	-0.036670	-0.231024	0.949945
F117	F	-0.565630	-0.898567	0.634573
F118	F	-0.065630	-0.398567	1.134573
H119	H	-0.530286	-0.597895	0.444616
H120	H	-0.030286	-0.097895	0.944616
H121	H	-0.568760	-0.399851	0.476793
H122	H	-0.068760	0.100149	0.976793
H123	H	-0.562378	-0.266712	0.471461
H124	H	-0.062378	0.233288	0.971461
F125	F	-0.353936	-0.264547	0.297113
F126	F	0.146064	0.235453	0.797113
F127	F	-0.361177	-0.416027	0.303191
F128	F	0.138823	0.083973	0.803191
H129	H	-0.335687	-0.604442	0.281860
H130	H	0.164313	-0.104442	0.781860
F131	F	-0.332132	-1.111072	0.973292
F132	F	0.167868	-0.611072	1.473292
F133	F	-0.329093	-0.747211	0.276341
F134	F	0.170907	-0.247211	0.776341
H135	H	-0.350776	-1.094102	1.115148
H136	H	0.149224	-0.594102	1.615148
F137	F	-0.361675	-1.084201	0.642111
F138	F	0.138325	-0.584201	1.142111
H139	H	-0.380313	-1.067226	0.783955
H140	H	0.119687	-0.567226	1.283955
H141	H	-0.530033	-0.930958	1.108523
H142	H	-0.030033	-0.430958	1.608523
F143	F	-0.536089	-0.925437	0.965766
F144	F	-0.036089	-0.425437	1.465766
H145	H	-0.559565	-0.904083	0.777343
H146	H	-0.059565	-0.404083	1.277343
