data_functionalizedCrystal
_audit_creation_method	'MofGen! by Chris Wilmer'
_symmetry_space_group_name_H-M	'P1'
_symmetry_Int_Tables_number	1
_symmetry_cell_setting	triclinic
loop_
_symmetry_equiv_pos_as_xyz
  x,y,z
_cell_length_a	16.992695
_cell_length_b	10.654550
_cell_length_c	9.730223
_cell_angle_alpha	90.000043
_cell_angle_beta	89.995280
_cell_angle_gamma	92.423423
loop_
_atom_site_label
_atom_site_type_symbol
_atom_site_fract_x
_atom_site_fract_y
_atom_site_fract_z
O1	O	0.110190	-1.677361	-0.114188
O2	O	0.610190	-1.177361	0.385812
O3	O	0.120688	-1.312790	-0.114214
O4	O	0.620688	-0.812790	0.385786
O5	O	0.001288	-1.493614	-0.114190
O6	O	0.501288	-0.993614	0.385810
O7	O	0.229590	-1.496537	-0.114212
O8	O	0.729590	-0.996537	0.385788
O9	O	0.001285	-1.493601	0.114390
O10	O	0.501285	-0.993601	0.614390
O11	O	0.120685	-1.312777	0.114366
O12	O	0.620685	-0.812777	0.614366
O13	O	0.110187	-1.677349	0.114391
O14	O	0.610187	-1.177349	0.614391
Zn15	Zn	0.115435	-1.495061	0.150671
Zn16	Zn	0.615435	-0.995061	0.650671
Zn17	Zn	0.115439	-1.495078	-0.150493
Zn18	Zn	0.615439	-0.995078	0.349507
O19	O	0.229586	-1.496525	0.114368
O20	O	0.729586	-0.996525	0.614368
C21	C	0.119916	-1.265919	0.000073
C22	C	0.619916	-0.765919	0.500073
C23	C	0.117609	-1.126277	0.000064
C24	C	0.617609	-0.626277	0.500064
C25	C	-0.027946	-1.489848	0.000099
C26	C	0.472054	-0.989848	0.500099
C27	C	-0.115051	-1.478628	0.000098
C28	C	0.384949	-0.978628	0.500098
C29	C	0.110959	-1.724220	0.000102
C30	C	0.610959	-1.224220	0.500102
C31	C	0.113265	-1.863862	0.000102
C32	C	0.613265	-1.363862	0.500102
C33	C	-0.164703	-1.586879	0.000107
C34	C	0.335297	-1.086879	0.500107
C35	C	-0.246547	-1.576330	0.000093
C36	C	0.253453	-1.076330	0.500093
C37	C	-0.278738	-1.457529	0.000080
C38	C	0.221262	-0.957529	0.500080
C39	C	-0.229080	-1.349270	0.000067
C40	C	0.270920	-0.849270	0.500067
C41	C	-0.147237	-1.359820	0.000071
C42	C	0.352763	-0.859820	0.500071
C43	C	-0.522573	-1.413802	0.000058
C44	C	-0.022573	-0.913802	0.500058
C45	C	-0.604422	-1.403260	0.000059
C46	C	-0.104422	-0.903260	0.500059
C47	C	-0.621884	-1.630321	0.000082
C48	C	-0.121884	-1.130321	0.500082
C49	C	-0.540039	-1.640861	0.000094
C50	C	-0.040039	-1.140861	0.500094
C51	C	-0.490388	-1.532602	0.000074
C52	C	0.009612	-1.032602	0.500074
N53	N	-0.362395	-1.446743	0.000071
N54	N	0.137605	-0.946743	0.500071
N55	N	-0.406733	-1.543389	0.000074
N56	N	0.093267	-1.043389	0.500074
C57	C	0.258821	-1.500291	0.000075
C58	C	0.758821	-1.000291	0.500075
C59	C	0.345926	-1.511510	0.000068
C60	C	0.845926	-1.011510	0.500068
N61	N	0.115432	-1.495059	0.356207
N62	N	0.615432	-0.995059	0.856207
C63	C	0.187910	-1.052866	0.000061
C64	C	0.687910	-0.552866	0.500061
C65	C	0.185738	-0.921658	0.000085
C66	C	0.685738	-0.421658	0.500085
C67	C	0.042959	-0.937282	0.000109
C68	C	0.542959	-0.437282	0.500109
C69	C	0.045132	-1.068488	0.000095
C70	C	0.545132	-0.568488	0.500095
N71	N	0.115437	-1.495089	-0.356030
N72	N	0.615437	-0.995089	0.143970
C73	C	0.062584	-1.575159	0.428144
C74	C	0.562584	-1.075159	0.928144
C75	C	0.062584	-1.575171	0.572026
C76	C	0.562584	-1.075171	1.072026
C77	C	0.168287	-1.414980	0.572024
C78	C	0.668287	-0.914980	1.072024
C79	C	0.168282	-1.414962	0.428144
C80	C	0.668282	-0.914962	0.928144
H81	H	-0.138501	-1.683620	0.000126
H82	H	0.361499	-1.183620	0.500126
H83	H	-0.016050	-0.890215	0.000142
H84	H	0.483950	-0.390215	0.500142
H85	H	0.242984	-0.861892	0.000086
H86	H	0.742984	-0.361892	0.500086
Br87	Br	-0.050283	-1.168126	0.000116
Br88	Br	0.449717	-0.668126	0.500116
Br89	Br	-0.009143	-1.683858	0.330520
Br90	Br	0.490857	-1.183858	0.830520
Br91	Br	-0.009144	-1.683876	0.669652
Br92	Br	0.490856	-1.183876	1.169652
Br93	Br	0.240011	-1.306285	0.669657
Br94	Br	0.740011	-0.806285	1.169657
H95	H	-0.662318	-1.718458	0.000096
H96	H	-0.162318	-1.218458	0.500096
Br97	Br	-0.496358	-1.802097	0.000068
Br98	Br	0.003642	-1.302097	0.500068
H99	H	-0.630628	-1.306513	0.000070
H100	H	-0.130628	-0.806513	0.500070
H101	H	0.211317	-1.349729	0.369569
H102	H	0.711317	-0.849729	0.869569
H103	H	-0.286971	-1.664480	0.000104
H104	H	0.213029	-1.164480	0.500104
H105	H	0.246926	-1.099913	0.000046
H106	H	0.746926	-0.599913	0.500046
Br107	Br	-0.455200	-1.266878	0.000022
Br108	Br	0.044800	-0.766878	0.500022
H109	H	-0.255296	-1.252539	0.000048
H110	H	0.244704	-0.752539	0.500048
H111	H	-0.106811	-1.271671	0.000064
H112	H	0.393189	-0.771671	0.500064
