data_functionalizedCrystal
_audit_creation_method	'MofGen! by Chris Wilmer'
_symmetry_space_group_name_H-M	'P1'
_symmetry_Int_Tables_number	1
_symmetry_cell_setting	triclinic
loop_
_symmetry_equiv_pos_as_xyz
  x,y,z
_cell_length_a	8.497366
_cell_length_b	19.805407
_cell_length_c	19.805405
_cell_angle_alpha	90.026410
_cell_angle_beta	90.055859
_cell_angle_gamma	90.035379
loop_
_atom_site_label
_atom_site_type_symbol
_atom_site_fract_x
_atom_site_fract_y
_atom_site_fract_z
Zn1	Zn	-0.892013	-1.034841	0.269301
Zn2	Zn	-0.628189	-1.034725	0.382542
Zn3	Zn	-0.628227	-0.921625	0.269373
Zn4	Zn	-0.891908	-0.921619	0.382454
O5	O	-0.760084	-0.978203	0.325918
O6	O	-0.857044	-1.129542	0.284330
O7	O	-0.407431	-1.019675	0.367597
O8	O	-0.663278	-0.936694	0.174647
O9	O	-0.663214	-1.129457	0.367528
O10	O	-0.857081	-1.019874	0.174594
O11	O	-0.407459	-0.936581	0.284452
O12	O	-0.663177	-0.826907	0.284366
O13	O	-1.112685	-0.936685	0.367377
O14	O	-0.856902	-0.826904	0.367446
O15	O	-1.112762	-1.019869	0.284245
O16	O	-0.663112	-1.019670	0.477247
O17	O	-0.856866	-0.936572	0.477182
C18	C	-0.760033	-0.802347	0.325905
C19	C	-0.760049	-0.727115	0.325915
C20	C	-0.171565	-0.978242	0.325856
C21	C	-0.350208	-0.978152	0.325997
C22	C	-0.760008	-0.978126	0.501774
C23	C	-0.760028	-0.978156	0.577006
C24	C	-0.760136	-1.154745	0.325931
C25	C	-0.760158	-1.229977	0.325937
C26	C	-0.760195	-0.978298	0.149375
C27	C	-0.760243	-0.978338	0.074143
C28	C	-0.860758	-0.691786	0.369240
C29	C	-0.860781	-0.621098	0.369242
C30	C	-0.760084	-0.585739	0.325921
C31	C	-0.659370	-0.621072	0.282591
C32	C	-0.659357	-0.691760	0.282587
C33	C	-0.659422	-0.335999	0.282606
C34	C	-0.659440	-0.265307	0.282615
C35	C	-0.860846	-0.265337	0.369261
C36	C	-0.860833	-0.336024	0.369257
C37	C	-0.760125	-0.371352	0.325925
C38	C	-0.760105	-0.448000	0.325923
C39	C	-0.760096	-0.509092	0.325925
C40	C	-0.659246	-1.021467	0.612361
C41	C	-0.659281	-1.021496	0.683049
C42	C	-0.760091	-0.978209	0.718381
C43	C	-0.860884	-0.934896	0.683021
C44	C	-0.860856	-0.934871	0.612334
C45	C	-0.861001	-0.934996	0.968094
C46	C	-0.861018	-0.935023	1.038786
C47	C	-0.659426	-1.021620	1.038810
C48	C	-0.659398	-1.021596	0.968123
C49	C	-0.760196	-0.978285	0.932768
C50	C	-0.760159	-0.978256	0.856120
C51	C	-0.760121	-0.978235	0.795028
H52	H	-0.942752	-0.720570	0.404520
H53	H	-0.942825	-0.364810	0.404535
O54	O	-0.561337	-0.586800	0.240541
C55	C	-0.404035	-0.604007	0.255284
H56	H	-0.400642	-0.655320	0.281297
H57	H	-0.350759	-0.564194	0.290067
C58	C	-0.312926	-0.544243	0.157314
C59	C	-0.308758	-0.607270	0.189258
H60	H	-0.254151	-0.546253	0.116587
H61	H	-0.418903	-0.532648	0.147383
H62	H	-0.268532	-0.511073	0.186307
H63	H	-0.353169	-0.640437	0.160269
H64	H	-0.202786	-0.618870	0.199183
H65	H	-0.942787	-0.592336	0.404522
O66	O	-0.958677	-0.892889	0.933679
C67	C	-0.868741	-0.849162	0.892882
H68	H	-0.749238	-0.873050	0.882332
H69	H	-0.851303	-0.799015	0.920173
C70	C	-1.102262	-0.807532	0.838662
C71	C	-0.955490	-0.836873	0.825699
H72	H	-1.155774	-0.799948	0.797221
H73	H	-1.162855	-0.836989	0.866149
H74	H	-1.087709	-0.765746	0.861406
H75	H	-0.970045	-0.878662	0.802963
H76	H	-0.894902	-0.807422	0.798207
O77	O	-0.958810	-0.892737	0.578092
C78	C	-1.047826	-0.854549	0.624432
H79	H	-0.983218	-0.852226	0.674852
H80	H	-1.167689	-0.879328	0.631875
C81	C	-1.149772	-0.785356	0.534961
C82	C	-1.070413	-0.782498	0.596886
H83	H	-1.163712	-0.740912	0.517969
H84	H	-1.089805	-0.811085	0.503740
H85	H	-1.249650	-0.806008	0.541172
H86	H	-0.970530	-0.761854	0.590673
H87	H	-1.130363	-0.756763	0.628106
O88	O	-0.958639	-0.230915	0.411286
C89	C	-0.937043	-0.160942	0.402014
H90	H	-0.885607	-0.151291	0.349760
H91	H	-0.852864	-0.140839	0.442131
C92	C	-1.159823	-0.136554	0.472460
C93	C	-1.096661	-0.124700	0.408278
H94	H	-1.258280	-0.114197	0.476327
H95	H	-1.174370	-0.183695	0.478709
H96	H	-1.089659	-0.119801	0.505883
H97	H	-1.166815	-0.141459	0.374857
H98	H	-1.082130	-0.077560	0.402024
H99	H	-0.577440	-0.236520	0.247333
H100	H	-0.577213	-1.056764	0.711833
O101	O	-0.561422	-1.063708	0.933907
C102	C	-0.472448	-1.101932	0.980271
H103	H	-0.537087	-1.104284	1.030627
H104	H	-0.352580	-1.077167	0.987867
C105	C	-0.370476	-1.171074	0.890788
C106	C	-0.449872	-1.173968	0.952634
H107	H	-0.356542	-1.215508	0.873739
H108	H	-0.430414	-1.145321	0.859550
H109	H	-0.270594	-1.150434	0.897126
H110	H	-0.549759	-1.194600	0.946294
H111	H	-0.389950	-1.199726	0.983870
H112	H	-0.577408	-0.364754	0.247327
O113	O	-0.561446	-0.726156	0.240597
C114	C	-0.459359	-0.766986	0.279094
H115	H	-0.514778	-0.777570	0.330408
H116	H	-0.342420	-0.739708	0.286489
C117	C	-0.362881	-0.821141	0.178816
C118	C	-0.430955	-0.834145	0.241839
H119	H	-0.345353	-0.862566	0.155834
H120	H	-0.431654	-0.793631	0.152879
H121	H	-0.265440	-0.798407	0.184987
H122	H	-0.528403	-0.856870	0.235666
H123	H	-0.362197	-0.861660	0.267774
H124	H	-0.577149	-1.056713	0.583599
O125	O	-0.561694	-1.063688	1.073259
C126	C	-0.583317	-1.054428	1.143225
H127	H	-0.705008	-1.032235	1.152837
H128	H	-0.489654	-1.018418	1.163371
C129	C	-0.419612	-1.150193	1.167651
C130	C	-0.569081	-1.122940	1.179456
H131	H	-0.410824	-1.192453	1.190002
H132	H	-0.405038	-1.156430	1.120514
H133	H	-0.341577	-1.120178	1.184440
H134	H	-0.647112	-1.152951	1.162660
H135	H	-0.583668	-1.116709	1.226592
O136	O	-0.959108	-0.892954	1.073004
C137	C	-1.048046	-0.854711	1.026642
H138	H	-1.053551	-0.882414	0.976228
H139	H	-0.990175	-0.803308	1.019195
C140	C	-1.209174	-0.810926	1.116082
C141	C	-1.215946	-0.844955	1.054163
H142	H	-1.312740	-0.804905	1.133058
H143	H	-1.149251	-0.836689	1.147317
H144	H	-1.160941	-0.768094	1.109867
H145	H	-1.264160	-0.887789	1.060380
H146	H	-1.275881	-0.819199	1.022930
H147	H	-0.942972	-0.899655	0.711793
