data_functionalizedCrystal
_audit_creation_method	'MofGen! by Chris Wilmer'
_symmetry_space_group_name_H-M	'P1'
_symmetry_Int_Tables_number	1
_symmetry_cell_setting	triclinic
loop_
_symmetry_equiv_pos_as_xyz
  x,y,z
_cell_length_a	18.215407
_cell_length_b	12.594516
_cell_length_c	18.215399
_cell_angle_alpha	90.023782
_cell_angle_beta	90.017368
_cell_angle_gamma	90.009259
loop_
_atom_site_label
_atom_site_type_symbol
_atom_site_fract_x
_atom_site_fract_y
_atom_site_fract_z
Zn1	Zn	1.125139	-0.423826	0.416089
Zn2	Zn	1.125075	-0.601823	0.293031
Zn3	Zn	1.002071	-0.423851	0.293041
Zn4	Zn	1.002065	-0.601755	0.416062
O5	O	1.063588	-0.512814	0.354556
O6	O	1.228115	-0.447455	0.399772
O7	O	1.108734	-0.578254	0.190048
O8	O	1.018426	-0.274902	0.309379
O9	O	1.228068	-0.578229	0.309362
O10	O	1.108843	-0.274883	0.399782
O11	O	1.018364	-0.447499	0.190056
O12	O	0.899086	-0.447432	0.309353
O13	O	1.018415	-0.578113	0.519050
O14	O	0.899082	-0.578137	0.399736
O15	O	1.108837	-0.447389	0.519069
O16	O	1.108729	-0.750760	0.309336
O17	O	1.018354	-0.750709	0.399726
C18	C	0.872381	-0.512781	0.354543
C19	C	0.790583	-0.512793	0.354555
C20	C	0.602412	-0.444839	0.401706
C21	C	0.525553	-0.444848	0.401708
C22	C	0.525515	-0.580818	0.307419
C23	C	0.602373	-0.580803	0.307413
C24	C	0.640819	-0.512815	0.354561
C25	C	0.487103	-0.512839	0.354569
C26	C	0.403769	-0.512850	0.354571
C27	C	0.724158	-0.512803	0.354558
C28	C	1.063554	-0.789355	0.354543
C29	C	1.063606	-0.907660	0.354562
C30	C	1.112818	-0.976902	0.305452
C31	C	1.130801	-1.047606	0.372622
C32	C	1.045716	-1.047754	0.287435
C33	C	1.081623	-0.976806	0.421768
C34	C	0.996507	-0.976948	0.336535
C35	C	1.014464	-1.047621	0.403752
C36	C	1.255541	-0.512847	0.354569
C37	C	1.337339	-0.512862	0.354575
C38	C	1.063632	-0.512740	0.546509
C39	C	1.063652	-0.512709	0.628308
C40	C	1.063642	-0.235193	0.354585
C41	C	1.063665	-0.116887	0.354597
C42	C	1.063585	-0.512810	0.163350
C43	C	1.063709	-0.512541	0.081551
C44	C	1.110751	-0.444578	0.816513
C45	C	1.110760	-0.444546	0.893372
C46	C	1.016604	-0.580676	0.893340
C47	C	1.016592	-0.580701	0.816483
C48	C	1.063670	-0.512653	0.778071
C49	C	1.063691	-0.512597	0.931788
C50	C	1.063700	-0.512564	1.015121
C51	C	1.063660	-0.512685	0.694732
H52	H	0.633645	-0.636159	0.269019
H53	H	1.187571	-1.078646	0.387889
C54	C	0.483223	-0.655613	0.255566
C55	C	0.398683	-0.655640	0.255573
C56	C	0.356392	-0.730439	0.203721
C57	C	0.398641	-0.805212	0.151861
C58	C	0.483186	-0.805188	0.151852
C59	C	0.525477	-0.730388	0.203704
H60	H	0.367403	-0.600286	0.293964
H61	H	0.293806	-0.730457	0.203728
H62	H	0.367335	-0.860583	0.113477
H63	H	0.514465	-0.860541	0.113461
H64	H	0.588063	-0.730370	0.203697
C65	C	0.644705	-0.370045	0.453560
C66	C	0.634167	-0.378876	0.537212
C67	C	0.676458	-0.304077	0.589065
C68	C	0.729286	-0.220449	0.557266
C69	C	0.739826	-0.211615	0.473609
C70	C	0.697535	-0.286413	0.421756
H71	H	0.595059	-0.440786	0.560756
H72	H	0.668655	-0.310617	0.650994
H73	H	0.760592	-0.165078	0.595651
H74	H	0.778934	-0.149705	0.450065
H75	H	0.705337	-0.279874	0.359827
C76	C	1.162553	-0.369666	0.935658
C77	C	1.162567	-0.369627	1.020199
C78	C	1.214362	-0.294742	1.062484
C79	C	1.266142	-0.219896	1.020230
C80	C	1.266130	-0.219932	0.935685
C81	C	1.214335	-0.294817	0.893400
H82	H	1.124234	-0.425035	1.051482
H83	H	1.214370	-0.294716	1.125070
H84	H	1.304484	-0.164461	1.051533
H85	H	1.304463	-0.164523	0.904402
H86	H	1.214327	-0.294843	0.830814
C87	C	0.483307	-0.370078	0.453574
C88	C	0.430490	-0.416318	0.511300
C89	C	0.388245	-0.341545	0.563169
C90	C	0.398818	-0.220533	0.557312
C91	C	0.451637	-0.174287	0.499583
C92	C	0.493882	-0.249060	0.447714
H93	H	0.422661	-0.505904	0.515639
H94	H	0.349144	-0.375780	0.605904
H95	H	0.367546	-0.165181	0.595708
H96	H	0.459466	-0.084700	0.495244
H97	H	0.532983	-0.214825	0.404979
H98	H	0.978248	-0.636135	0.785182
C99	C	0.919838	-0.934974	0.315885
C100	C	0.910231	-0.863503	0.247986
C101	C	0.833561	-0.821527	0.227326
C102	C	0.766498	-0.851022	0.274564
C103	C	0.776103	-0.922497	0.342467
C104	C	0.852773	-0.964473	0.363127
H105	H	0.959876	-0.841665	0.213014
H106	H	0.826452	-0.768616	0.177060
H107	H	0.709743	-0.819949	0.259270
H108	H	0.726457	-0.944335	0.377439
H109	H	0.859882	-1.017384	0.413393
H110	H	1.096723	-0.945775	0.478600
H111	H	1.149083	-0.389166	0.785241
H112	H	1.030559	-1.078918	0.230651
H113	H	0.978277	-0.636080	0.924624
H114	H	0.972872	-1.078476	0.445346
C115	C	1.169044	-0.934940	0.249396
C116	C	1.250923	-0.962833	0.257797
C117	C	1.307150	-0.920870	0.201747
C118	C	1.281496	-0.851013	0.137295
C119	C	1.199613	-0.823117	0.128891
C120	C	1.143386	-0.865080	0.184942
H121	H	1.269917	-1.014548	0.305511
H122	H	1.367766	-0.941521	0.207968
H123	H	1.323118	-0.819949	0.095803
H124	H	1.180619	-0.771402	0.081177
H125	H	1.082771	-0.844429	0.178720
