data_functionalizedCrystal
_audit_creation_method	'MofGen! by Chris Wilmer'
_symmetry_space_group_name_H-M	'P1'
_symmetry_Int_Tables_number	1
_symmetry_cell_setting	triclinic
loop_
_symmetry_equiv_pos_as_xyz
  x,y,z
_cell_length_a	29.839134
_cell_length_b	16.625545
_cell_length_c	16.625539
_cell_angle_alpha	89.971766
_cell_angle_beta	89.967978
_cell_angle_gamma	90.019384
loop_
_atom_site_label
_atom_site_type_symbol
_atom_site_fract_x
_atom_site_fract_y
_atom_site_fract_z
Zn1	Zn	-0.686811	0.321100	0.456156
Zn2	Zn	-0.686755	0.455943	0.321323
Zn3	Zn	-0.611683	0.321117	0.321310
Zn4	Zn	-0.611664	0.455884	0.456086
O5	O	-0.649228	0.388511	0.388719
O6	O	-0.749671	0.339005	0.438305
O7	O	-0.676781	0.438091	0.208489
O8	O	-0.621680	0.208283	0.339221
O9	O	-0.749629	0.438074	0.339244
O10	O	-0.676876	0.208270	0.438292
O11	O	-0.621626	0.339035	0.208479
O12	O	-0.548813	0.338977	0.339153
O13	O	-0.621648	0.437972	0.568928
O14	O	-0.548800	0.437989	0.438173
O15	O	-0.676858	0.338947	0.568979
O16	O	-0.676763	0.568768	0.339177
O17	O	-0.621594	0.568724	0.438186
C18	C	-0.532506	0.388479	0.388655
C19	C	-0.482571	0.388484	0.388646
C20	C	-0.172930	0.440150	0.440190
C21	C	0.014743	0.440176	0.440216
O22	O	0.039006	0.484062	0.484019
N23	N	0.038214	0.388551	0.388743
C24	C	0.014764	0.336913	0.337264
O25	O	0.039034	0.292997	0.293489
C26	C	-0.172908	0.336884	0.337242
C27	C	-0.196377	0.388517	0.388713
C28	C	-0.196399	0.491779	0.491657
C29	C	-0.243314	0.491775	0.491647
C30	C	-0.266761	0.440143	0.440170
C31	C	-0.243292	0.388514	0.388703
C32	C	-0.196358	0.285242	0.285768
C33	C	-0.243279	0.285238	0.285769
C34	C	-0.266747	0.336871	0.337239
C35	C	-0.313655	0.336877	0.337216
N36	N	-0.337126	0.388502	0.388689
C37	C	-0.313679	0.440134	0.440166
C38	C	0.113294	0.336933	0.337277
C39	C	0.160212	0.336941	0.337281
C40	C	0.160188	0.440203	0.440235
C41	C	0.113269	0.440198	0.440226
C42	C	0.089823	0.388557	0.388750
C43	C	-0.412205	0.440123	0.440140
C44	C	-0.459124	0.440117	0.440123
C45	C	-0.459096	0.336852	0.337173
C46	C	-0.412181	0.336861	0.337187
C47	C	-0.388736	0.388499	0.388677
O48	O	-0.337946	0.293007	0.293442
O49	O	-0.337957	0.484030	0.483946
C50	C	-0.126015	0.440154	0.440200
C51	C	-0.102546	0.388525	0.388733
C52	C	-0.125993	0.336892	0.337256
C53	C	-0.055628	0.388533	0.388737
C54	C	-0.032181	0.440166	0.440214
C55	C	-0.055652	0.491791	0.491687
C56	C	-0.102568	0.491787	0.491677
C57	C	-0.102522	0.285268	0.285783
C58	C	-0.055606	0.285276	0.285797
C59	C	-0.032160	0.336909	0.337274
C60	C	-0.649182	0.598002	0.388693
C61	C	-0.649204	0.687623	0.388709
C62	C	0.233593	0.388548	0.388771
C63	C	0.183659	0.388574	0.388758
C64	C	-0.649277	1.015799	0.388805
C65	C	-0.649256	0.924490	0.388781
C66	C	-0.649240	0.851714	0.388757
C67	C	-0.649219	0.760399	0.388733
C68	C	-0.649257	0.388451	0.599028
C69	C	-0.649270	0.388425	0.688649
C70	C	-0.649282	1.178202	0.388772
C71	C	-0.649296	1.088581	0.388819
C72	C	-0.649225	0.388513	0.179228
C73	C	-0.649300	0.388311	0.089607
C74	C	-0.649291	0.388335	1.016825
C75	C	-0.649284	0.388363	0.925516
C76	C	-0.649280	0.388381	0.852740
C77	C	-0.649273	0.388407	0.761426
H78	H	-0.262418	0.533819	0.533561
H79	H	-0.036554	0.533834	0.533599
C80	C	0.087458	0.496994	0.496851
N81	N	0.068020	0.539774	0.539506
H82	H	-0.393122	0.482170	0.482070
C83	C	-0.170615	0.548593	0.548282
N84	N	-0.151197	0.591396	0.590929
H85	H	0.179286	0.482245	0.482149
H86	H	-0.478230	0.482166	0.482037
C87	C	0.186022	0.280145	0.280655
N88	N	0.205461	0.237359	0.238006
C89	C	0.087510	0.280125	0.280641
N90	N	0.068091	0.237340	0.237978
H91	H	-0.177258	0.243198	0.243853
H92	H	-0.036502	0.243231	0.243876
H93	H	-0.262366	0.243179	0.243855
C94	C	-0.386364	0.280068	0.280561
N95	N	-0.366923	0.237284	0.237914
C96	C	-0.484897	0.280049	0.280561
N97	N	-0.504331	0.237258	0.237927
H98	H	-0.121672	0.533832	0.533590
C99	C	-0.128307	0.228468	0.229148
N100	N	-0.147726	0.185686	0.186482
