data_functionalizedCrystal
_audit_creation_method	'MofGen! by Chris Wilmer'
_symmetry_space_group_name_H-M	'P1'
_symmetry_Int_Tables_number	1
_symmetry_cell_setting	triclinic
loop_
_symmetry_equiv_pos_as_xyz
  x,y,z
_cell_length_a	21.295417
_cell_length_b	21.295418
_cell_length_c	21.295411
_cell_angle_alpha	89.952143
_cell_angle_beta	90.021644
_cell_angle_gamma	89.951286
loop_
_atom_site_label
_atom_site_type_symbol
_atom_site_fract_x
_atom_site_fract_y
_atom_site_fract_z
Zn1	Zn	-0.250375	-0.962356	0.356303
Zn2	Zn	0.249625	-0.462356	0.856303
Zn3	Zn	-0.355627	-0.962258	0.251028
Zn4	Zn	0.144373	-0.462258	0.751028
Zn5	Zn	-0.250409	-0.857079	0.251005
Zn6	Zn	0.249591	-0.357079	0.751005
Zn7	Zn	-0.355644	-0.857048	0.356217
Zn8	Zn	0.144356	-0.357048	0.856217
O9	O	-0.303014	-0.909685	0.303638
O10	O	0.196986	-0.409685	0.803638
O11	O	-0.264316	-1.050432	0.342383
O12	O	0.235684	-0.550432	0.842383
O13	O	-0.341677	-0.948278	0.162936
O14	O	0.158323	-0.448278	0.662936
O15	O	-0.162315	-0.871098	0.264999
O16	O	0.337685	-0.371098	0.764999
O17	O	-0.341644	-1.050361	0.265039
O18	O	0.158356	-0.550361	0.765039
O19	O	-0.162290	-0.948444	0.342361
O20	O	0.337710	-0.448444	0.842361
O21	O	-0.264373	-0.871003	0.162919
O22	O	0.235627	-0.371003	0.662919
O23	O	-0.264390	-0.768986	0.264916
O24	O	0.235610	-0.268986	0.764916
O25	O	-0.341672	-0.871046	0.444318
O26	O	0.158328	-0.371046	0.944318
O27	O	-0.341705	-0.768963	0.342215
O28	O	0.158295	-0.268963	0.842215
O29	O	-0.264332	-0.948415	0.444381
O30	O	0.235668	-0.448415	0.944381
O31	O	-0.443718	-0.948248	0.264956
O32	O	0.056282	-0.448248	0.764956
O33	O	-0.443731	-0.870951	0.342237
O34	O	0.056269	-0.370951	0.842237
C35	C	-0.303054	-0.746134	0.303554
C36	C	0.196946	-0.246134	0.803554
C37	C	-0.303086	-0.676166	0.303533
C38	C	0.196914	-0.176166	0.803533
C39	C	-0.343399	-0.643304	0.343720
C40	C	0.156601	-0.143304	0.843720
C41	C	-0.343386	-0.577561	0.343743
C42	C	0.156614	-0.077561	0.843743
C43	C	-0.303067	-0.544683	0.303569
C44	C	0.196933	-0.044683	0.803569
C45	C	-0.262746	-0.577553	0.263379
C46	C	0.237254	-0.077553	0.763379
C47	C	-0.262756	-0.643294	0.263361
C48	C	0.237244	-0.143294	0.763361
N49	N	-0.298144	-0.441407	0.248504
N50	N	0.201856	0.058593	0.748504
N51	N	-0.298139	-0.378956	0.248523
N52	N	0.201861	0.121044	0.748523
C53	C	-0.303035	-0.346608	0.303621
C54	C	0.196965	0.153392	0.803621
N55	N	-0.307949	-0.379072	0.358702
N56	N	0.192051	0.120928	0.858702
N57	N	-0.307958	-0.441529	0.358682
N58	N	0.192042	0.058471	0.858682
C59	C	-0.303052	-0.473398	0.303584
C60	C	0.196948	0.026602	0.803584
C61	C	-0.343336	-0.242461	0.343837
C62	C	0.156664	0.257539	0.843837
C63	C	-0.343319	-0.176717	0.343862
C64	C	0.156681	0.323283	0.843862
C65	C	-0.262683	-0.176710	0.263492
C66	C	0.237317	0.323290	0.763492
C67	C	-0.262696	-0.242453	0.263473
C68	C	0.237304	0.257547	0.763473
C69	C	-0.303027	-0.275324	0.303645
C70	C	0.196973	0.224676	0.803645
C71	C	-0.466565	-0.909603	0.303603
C72	C	0.033435	-0.409603	0.803603
C73	C	-0.536533	-0.909625	0.303610
C74	C	-0.036533	-0.409625	0.803610
C75	C	-0.569373	-0.949910	0.263410
C76	C	-0.069373	-0.449910	0.763410
C77	C	-0.635115	-0.949939	0.263424
C78	C	-0.135115	-0.449939	0.763424
C79	C	-0.668016	-0.909673	0.303631
C80	C	-0.168016	-0.409673	0.803631
C81	C	-0.635169	-0.869386	0.343838
C82	C	-0.135169	-0.369386	0.843838
C83	C	-0.569427	-0.869362	0.343828
C84	C	-0.069427	-0.369362	0.843828
N85	N	-0.771300	-0.854606	0.308402
N86	N	-0.271300	-0.354606	0.808402
N87	N	-0.833751	-0.854630	0.308408
N88	N	-0.333751	-0.354630	0.808408
C89	C	-0.866090	-0.909743	0.303667
C90	C	-0.366090	-0.409743	0.803667
N91	N	-0.833619	-0.964832	0.298907
N92	N	-0.333619	-0.464832	0.798907
N93	N	-0.771162	-0.964807	0.298897
N94	N	-0.271162	-0.464807	0.798897
C95	C	-0.739301	-0.909695	0.303648
C96	C	-0.239301	-0.409695	0.803648
C97	C	-0.970215	-0.950063	0.263481
C98	C	-0.470215	-0.450063	0.763481
C99	C	-1.035959	-0.950094	0.263500
C100	C	-0.535959	-0.450094	0.763500
C101	C	-1.036011	-0.869535	0.343911
C102	C	-0.536011	-0.369535	0.843911
C103	C	-0.970269	-0.869510	0.343895
C104	C	-0.470269	-0.369510	0.843895
C105	C	-0.937375	-0.909773	0.303677
C106	C	-0.437375	-0.409773	0.803677
C107	C	-0.138823	-0.909785	0.303687
C108	C	0.361177	-0.409785	0.803687
C109	C	-0.068855	-0.909828	0.303708
C110	C	0.431145	-0.409828	0.803708
C111	C	-0.303000	-0.909738	0.467829
C112	C	0.197000	-0.409738	0.967829
C113	C	-0.302995	-0.909760	0.537797
C114	C	0.197005	-0.409760	1.037797
C115	C	-0.302984	-0.073876	0.303705
C116	C	0.197016	0.426124	0.803705
C117	C	-0.302999	-0.143844	0.303687
C118	C	0.197001	0.356156	0.803687
C119	C	-0.302981	-0.909670	0.140087
C120	C	0.197019	-0.409670	0.640087
C121	C	-0.302810	-0.909769	0.070119
C122	C	0.197190	-0.409769	0.570119
C123	C	-0.262722	-0.950044	0.570697
C124	C	0.237278	-0.450044	1.070697
C125	C	-0.262694	-0.950043	0.636440
C126	C	0.237306	-0.450043	1.136440
C127	C	-0.302951	-0.909765	0.669279
C128	C	0.197049	-0.409765	1.169279
C129	C	-0.343227	-0.869473	0.636371
C130	C	0.156773	-0.369473	1.136371
C131	C	-0.343249	-0.869470	0.570630
C132	C	0.156751	-0.369470	1.070630
N133	N	-0.358021	-0.904908	0.772493
N134	N	0.141979	-0.404908	1.272493
N135	N	-0.357998	-0.904914	0.834944
N136	N	0.142002	-0.404914	1.334944
C137	C	-0.302887	-0.909769	0.867354
C138	C	0.197113	-0.409769	1.367354
N139	N	-0.247799	-0.914630	0.834953
N140	N	0.252201	-0.414630	1.334953
N141	N	-0.247822	-0.914627	0.772496
N142	N	0.252178	-0.414627	1.272496
C143	C	-0.302932	-0.909763	0.740565
C144	C	0.197068	-0.409763	1.240565
C145	C	-0.262581	-0.950054	0.971540
C146	C	0.237419	-0.450054	1.471540
C147	C	-0.262553	-0.950049	1.037284
C148	C	0.237447	-0.450049	1.537284
C149	C	-0.343092	-0.869482	1.037214
C150	C	0.156908	-0.369482	1.537214
C151	C	-0.343114	-0.869484	0.971471
C152	C	0.156886	-0.369484	1.471471
C153	C	-0.302860	-0.909773	0.938639
C154	C	0.197140	-0.409773	1.438639
H155	H	-0.376213	-0.550800	0.376471
H156	H	0.123787	-0.050800	0.876471
O157	O	-0.382542	-0.144890	0.382921
O158	O	0.117458	0.355110	0.882921
C159	C	-0.462507	-0.151838	0.462648
C160	C	0.037493	0.348162	0.962648
C161	C	-0.418128	-0.187961	0.418437
C162	C	0.081872	0.312039	0.918437
H163	H	-0.491281	-0.186645	0.491384
H164	H	0.008719	0.313355	0.991384
H165	H	-0.495412	-0.121011	0.433721
H166	H	0.004588	0.378989	0.933721
H167	H	-0.433643	-0.121109	0.495603
H168	H	0.066357	0.378891	0.995603
H169	H	-0.446941	-0.218724	0.385473
H170	H	0.053059	0.281276	0.885473
H171	H	-0.385221	-0.218749	0.447403
H172	H	0.114779	0.281251	0.947403
O173	O	-0.223673	-0.545592	0.224282
O174	O	0.276327	-0.045592	0.724282
C175	C	-0.215073	-0.471260	0.139348
C176	C	0.284927	0.028740	0.639348
C177	C	-0.259398	-0.507426	0.183576
C178	C	0.240602	-0.007426	0.683576
H179	H	-0.243938	-0.440385	0.106435
H180	H	0.256062	0.059615	0.606435
H181	H	-0.186273	-0.506017	0.110574
H182	H	0.313727	-0.006017	0.610574
H183	H	-0.182183	-0.440571	0.168327
H184	H	0.317817	0.059429	0.668327
H185	H	-0.292326	-0.538116	0.154646
H186	H	0.207674	-0.038116	0.654646
H187	H	-0.288153	-0.472635	0.212352
H188	H	0.211847	0.027365	0.712352
O189	O	-0.382267	-0.830258	0.668241
O190	O	0.117733	-0.330258	1.168241
C191	C	-0.412869	-0.723165	0.688244
C192	C	0.087131	-0.223165	1.188244
C193	C	-0.368609	-0.767507	0.652125
C194	C	0.131391	-0.267507	1.152125
H195	H	-0.401851	-0.672423	0.675218
H196	H	0.098149	-0.172423	1.175218
H197	H	-0.405935	-0.730034	0.740890
H198	H	0.094065	-0.230034	1.240890
H199	H	-0.463625	-0.734220	0.675330
H200	H	0.036375	-0.234220	1.175330
H201	H	-0.317836	-0.756480	0.664986
H202	H	0.182164	-0.256480	1.164986
H203	H	-0.375597	-0.760631	0.599487
H204	H	0.124403	-0.260631	1.099487
H205	H	-0.943432	-0.982850	0.230735
H206	H	-0.443432	-0.482850	0.730735
H207	H	-0.229926	-0.670050	0.230636
H208	H	0.270074	-0.170050	0.730636
O209	O	-0.223487	-0.989149	0.668340
O210	O	0.276513	-0.489149	1.168340
C211	C	-0.116400	-1.019761	0.688526
C212	C	0.383600	-0.519761	1.188526
C213	C	-0.160729	-0.975445	0.652351
C214	C	0.339271	-0.475445	1.152351
H215	H	-0.065651	-1.008689	0.675622
H216	H	0.434349	-0.508689	1.175622
H217	H	-0.127401	-1.070522	0.675628
H218	H	0.372599	-0.570522	1.175628
H219	H	-0.123335	-1.012852	0.741149
H220	H	0.376665	-0.512852	1.241149
H221	H	-0.153819	-0.982298	0.599719
H222	H	0.346181	-0.482298	1.099719
H223	H	-0.149718	-0.924701	0.665301
H224	H	0.350282	-0.424701	1.165301
O225	O	-1.067895	-0.830333	0.382938
O226	O	-0.567895	-0.330333	0.882938
C227	C	-1.088156	-0.723248	0.413333
C228	C	-0.588156	-0.223248	0.913333
C229	C	-1.051994	-0.767571	0.369102
C230	C	-0.551994	-0.267571	0.869102
H231	H	-1.075324	-0.672494	0.402154
H232	H	-0.575324	-0.172494	0.902154
H233	H	-1.075176	-0.734221	0.464114
H234	H	-0.575176	-0.234221	0.964114
H235	H	-1.140782	-0.730219	0.406448
H236	H	-0.640782	-0.230219	0.906448
H237	H	-0.999361	-0.760624	0.375931
H238	H	-0.499361	-0.260624	0.875931
H239	H	-1.065027	-0.756586	0.318337
H240	H	-0.565027	-0.256586	0.818337
O241	O	-0.938435	-0.830401	0.383027
O242	O	-0.438435	-0.330401	0.883027
C243	C	-0.918270	-0.799804	0.490061
C244	C	-0.418270	-0.299804	0.990061
C245	C	-0.954370	-0.844125	0.445812
C246	C	-0.454370	-0.344125	0.945812
H247	H	-0.931130	-0.810892	0.540832
H248	H	-0.431130	-0.310892	1.040832
H249	H	-0.931277	-0.749046	0.478991
H250	H	-0.431277	-0.249046	0.978991
H251	H	-0.865635	-0.806691	0.483115
H252	H	-0.365635	-0.306691	0.983115
H253	H	-1.007013	-0.837293	0.452733
H254	H	-0.507013	-0.337293	0.952733
H255	H	-0.941311	-0.894866	0.456893
H256	H	-0.441311	-0.394866	0.956893
H257	H	-0.375913	-0.836684	0.944684
H258	H	0.124087	-0.336684	1.444684
O259	O	-0.223514	-0.989209	1.069317
O260	O	0.276486	-0.489209	1.569317
C261	C	-0.214999	-1.074221	1.143592
C262	C	0.285001	-0.574221	1.643592
C263	C	-0.259283	-1.029905	1.107362
C264	C	0.240717	-0.529905	1.607362
H265	H	-0.243901	-1.107143	1.174350
H266	H	0.256099	-0.607143	1.674350
H267	H	-0.182090	-1.045372	1.174386
H268	H	0.317910	-0.545372	1.674386
H269	H	-0.186218	-1.102986	1.108821
H270	H	0.313782	-0.602986	1.608821
H271	H	-0.288105	-1.001130	1.142088
H272	H	0.211895	-0.501130	1.642088
H273	H	-0.292151	-1.058790	1.076558
H274	H	0.207849	-0.558790	1.576558
H275	H	-1.062696	-0.982902	0.230766
H276	H	-0.562696	-0.482902	0.730766
O277	O	-0.382466	-0.830408	0.538694
O278	O	0.117534	-0.330408	1.038694
C279	C	-0.489557	-0.799765	0.518578
C280	C	0.010443	-0.299765	1.018578
C281	C	-0.445214	-0.844049	0.554775
C282	C	0.054786	-0.344049	1.054775
H283	H	-0.540298	-0.810769	0.531575
H284	H	-0.040298	-0.310769	1.031575
H285	H	-0.482714	-0.806688	0.465944
H286	H	0.017286	-0.306688	0.965944
H287	H	-0.478479	-0.749016	0.531451
H288	H	0.021521	-0.249016	1.031451
H289	H	-0.456264	-0.894815	0.541954
H290	H	0.043736	-0.394815	1.041954
H291	H	-0.452066	-0.837071	0.607400
H292	H	0.047934	-0.337071	1.107400
H293	H	-0.376172	-0.269226	0.376551
H294	H	0.123828	0.230774	0.876551
H295	H	-0.542592	-0.982696	0.230664
H296	H	-0.042592	-0.482696	0.730664
H297	H	-0.229851	-0.149942	0.230784
H298	H	0.270149	0.350058	0.730784
H299	H	-0.229801	-0.982857	0.944806
H300	H	0.270199	-0.482857	1.444806
H301	H	-0.229943	-0.982850	0.543969
H302	H	0.270057	-0.482850	1.043969
H303	H	-0.229872	-0.269209	0.230745
H304	H	0.270128	0.230791	0.730745
H305	H	-0.375863	-0.836680	1.063951
H306	H	0.124137	-0.336680	1.563951
H307	H	-0.661858	-0.982746	0.230689
H308	H	-0.161858	-0.482746	0.730689
H309	H	-0.661961	-0.836602	0.376576
H310	H	-0.161961	-0.336602	0.876576
H311	H	-0.542689	-0.836557	0.376564
H312	H	-0.042689	-0.336557	0.876564
O313	O	-0.382590	-0.675136	0.382805
O314	O	0.117410	-0.175136	0.882805
C315	C	-0.462598	-0.668202	0.462491
C316	C	0.037402	-0.168202	0.962491
C317	C	-0.418236	-0.632072	0.418270
C318	C	0.081764	-0.132072	0.918270
H319	H	-0.491438	-0.633401	0.491167
H320	H	0.008562	-0.133401	0.991167
H321	H	-0.433781	-0.699027	0.495496
H322	H	0.066219	-0.199027	0.995496
H323	H	-0.495447	-0.698934	0.433511
H324	H	0.004553	-0.198934	0.933511
H325	H	-0.385378	-0.601306	0.447199
H326	H	0.114622	-0.101306	0.947199
H327	H	-0.447092	-0.601287	0.385263
H328	H	0.052908	-0.101287	0.885263
