data_functionalizedCrystal
_audit_creation_method	'MofGen! by Chris Wilmer'
_symmetry_space_group_name_H-M	'P1'
_symmetry_Int_Tables_number	1
_symmetry_cell_setting	triclinic
loop_
_symmetry_equiv_pos_as_xyz
  x,y,z
_cell_length_a	29.839131
_cell_length_b	12.645331
_cell_length_c	12.645323
_cell_angle_alpha	90.022676
_cell_angle_beta	90.032712
_cell_angle_gamma	90.040399
loop_
_atom_site_label
_atom_site_type_symbol
_atom_site_fract_x
_atom_site_fract_y
_atom_site_fract_z
Zn1	Zn	-0.178862	1.620556	0.599388
Zn2	Zn	-0.253994	1.620365	0.422104
Zn3	Zn	-0.178877	1.443271	0.422133
Zn4	Zn	-0.253964	1.443179	0.599320
O5	O	-0.216424	1.531843	0.510736
O6	O	-0.188834	1.768878	0.575888
O7	O	-0.244048	1.596831	0.273761
O8	O	-0.116008	1.466907	0.445687
O9	O	-0.244033	1.768737	0.445638
O10	O	-0.115997	1.597158	0.575916
O11	O	-0.188860	1.466721	0.273782
O12	O	-0.188832	1.294912	0.445620
O13	O	-0.243983	1.466751	0.747676
O14	O	-0.243998	1.294844	0.575799
O15	O	-0.188806	1.597069	0.747727
O16	O	-0.316857	1.596742	0.445571
O17	O	-0.316835	1.466565	0.575771
C18	C	-0.216414	1.256413	0.510706
C19	C	-0.216420	1.138583	0.510718
C20	C	-0.333147	1.531651	0.510684
C21	C	-0.383081	1.531667	0.510697
C22	C	-0.181555	0.971026	0.429274
C23	C	-0.181645	1.093586	0.428915
C24	C	-0.263746	1.094017	0.480188
C25	C	-0.263555	0.971418	0.479632
C26	C	-0.204409	0.971445	0.623006
C27	C	-0.203352	1.094052	0.622382
C28	C	-0.692723	1.599749	0.443041
C29	C	-0.880396	1.599880	0.443082
O30	O	-0.904660	1.657615	0.385518
N31	N	-0.903866	1.532063	0.510816
C32	C	-0.880415	1.464212	0.578550
O33	O	-0.904684	1.406540	0.636171
C34	C	-0.692743	1.464088	0.578514
C35	C	-0.669275	1.531902	0.510767
C36	C	-0.669256	1.667559	0.375300
C37	C	-0.622340	1.667522	0.375287
C38	C	-0.598892	1.599674	0.443013
C39	C	-0.622360	1.531865	0.510753
C40	C	-0.669293	1.396244	0.646252
C41	C	-0.622372	1.396220	0.646239
C42	C	-0.598904	1.464035	0.578492
C43	C	-0.551997	1.463980	0.578466
N44	N	-0.528527	1.531798	0.510732
C45	C	-0.551975	1.599645	0.443005
C46	C	-0.978946	1.464281	0.578563
C47	C	-1.025864	1.464311	0.578571
C48	C	-1.025842	1.599980	0.443104
C49	C	-0.978923	1.599945	0.443091
C50	C	-0.955476	1.532099	0.510829
C51	C	-0.453449	1.599560	0.442981
C52	C	-0.406529	1.599514	0.442970
C53	C	-0.406555	1.463849	0.578441
C54	C	-0.453471	1.463891	0.578448
C55	C	-0.476916	1.531755	0.510715
O56	O	-0.527704	1.406284	0.636009
O57	O	-0.527697	1.657325	0.385409
C58	C	-0.739639	1.599787	0.443054
C59	C	-0.763106	1.531977	0.510794
C60	C	-0.739659	1.464130	0.578521
C61	C	-0.810024	1.532007	0.510802
C62	C	-0.833472	1.599854	0.443076
C63	C	-0.810002	1.667672	0.375341
C64	C	-0.763087	1.667634	0.375328
C65	C	-0.763129	1.396312	0.646256
C66	C	-0.810044	1.396354	0.646263
C67	C	-0.833492	1.464202	0.578536
C68	C	-0.099246	1.532064	0.510812
C69	C	-0.049312	1.532158	0.510845
C70	C	-0.216390	1.531921	0.787242
C71	C	-0.216375	1.531954	0.905072
C72	C	-0.216435	1.808348	0.510768
C73	C	-0.216440	1.926178	0.510781
C74	C	-0.216427	1.531826	0.235307
C75	C	-0.216315	1.531998	0.117477
C76	C	-0.250923	1.449718	1.072604
C77	C	-0.251094	1.449934	0.950044
C78	C	-0.229224	1.643641	0.949588
C79	C	-0.229441	1.643190	1.072186
C80	C	-0.168784	1.503559	1.072285
C81	C	-0.169069	1.501067	0.949679
H82	H	-0.146356	0.941597	0.448207
N83	N	-0.477399	1.668876	0.373801
N84	N	-0.503539	1.736438	0.411152
H85	H	-0.520455	1.785388	0.362290
H86	H	-0.744041	1.341064	0.701408
N87	N	-0.240928	1.345513	1.109578
N88	N	-0.208182	1.330667	1.169436
H89	H	-0.201122	1.257069	1.195559
N90	N	-0.191410	0.932294	0.325566
N91	N	-0.191301	0.835034	0.307879
H92	H	-0.198263	0.807674	0.234636
H93	H	-0.170502	0.940582	0.650768
N94	N	-0.191621	1.130298	0.324585
N95	N	-0.198542	1.065374	0.251812
H96	H	-0.205589	1.091300	0.178124
H97	H	-0.829101	1.722912	0.320193
H98	H	-0.168526	1.123190	0.645403
H99	H	-0.743983	1.722855	0.320162
N100	N	-0.198601	1.722612	0.913065
N101	N	-0.157830	1.715382	0.934610
H102	H	-0.136201	1.771155	0.908816
H103	H	-0.226907	1.124687	0.686360
N104	N	-0.294856	1.473007	1.111235
N105	N	-0.315609	1.405992	1.164907
H106	H	-0.346638	1.422441	1.192189
N107	N	-0.276356	0.935479	0.376709
N108	N	-0.285366	1.000941	0.305788
H109	H	-0.294407	0.975565	0.233095
H110	H	-0.829147	1.341122	0.701429
H111	H	-0.205328	1.706571	1.101872
H112	H	-0.290427	0.941747	0.536408
H113	H	-0.959858	1.409030	0.633725
H114	H	-0.229818	0.942442	0.683735
H115	H	-0.286331	1.468704	0.920719
N116	N	-0.297221	1.130577	0.552329
N117	N	-0.286546	1.190031	0.627226
H118	H	-0.310187	1.215854	0.678180
H119	H	-0.603236	1.722745	0.320125
N120	N	-0.276757	1.132447	0.378362
N121	N	-0.253248	1.112223	0.299118
H122	H	-0.262434	1.139363	0.227200
N123	N	-0.273029	1.673447	1.108055
N124	N	-0.303079	1.694746	1.042544
H125	H	-0.333864	1.716117	1.067871
H126	H	-0.263606	1.668166	0.918888
N127	N	-0.693250	1.326964	0.715461
N128	N	-0.672300	1.266404	0.775926
H129	H	-0.689218	1.217472	0.824811
N130	N	-0.382565	1.668789	0.373753
N131	N	-0.403510	1.729361	0.313290
H132	H	-0.386587	1.778286	0.264406
H133	H	-0.243054	1.367112	0.919945
H134	H	-0.157071	1.423538	1.103193
H135	H	-0.688342	1.722814	0.320149
N136	N	-0.954960	1.669219	0.373881
N137	N	-0.975907	1.729783	0.313415
H138	H	-0.958986	1.778713	0.264532
H139	H	-0.159379	1.418876	0.920582
N140	N	-0.135014	1.570762	0.911268
N141	N	-0.145099	1.644666	0.850124
H142	H	-0.121049	1.693897	0.822996
H143	H	-1.044941	1.655225	0.387958
H144	H	-1.044967	1.409080	0.633727
N145	N	-0.136441	1.578746	1.108694
N146	N	-0.148283	1.652983	1.167667
H147	H	-0.125445	1.706088	1.193387
N148	N	-0.598429	1.326915	0.715447
N149	N	-0.619392	1.266380	0.775926
H150	H	-0.602483	1.217432	0.824804
H151	H	-0.472579	1.408674	0.633616
H152	H	-0.146552	1.123721	0.448053
N153	N	-0.382591	1.394563	0.647619
N154	N	-0.356373	1.431824	0.715187
H155	H	-0.339446	1.382896	0.764048
