data_functionalizedCrystal
_audit_creation_method	'MofGen! by Chris Wilmer'
_symmetry_space_group_name_H-M	'P1'
_symmetry_Int_Tables_number	1
_symmetry_cell_setting	triclinic
loop_
_symmetry_equiv_pos_as_xyz
  x,y,z
_cell_length_a	14.908979
_cell_length_b	25.639240
_cell_length_c	14.909227
_cell_angle_alpha	86.664687
_cell_angle_beta	90.167388
_cell_angle_gamma	93.335017
loop_
_atom_site_label
_atom_site_type_symbol
_atom_site_fract_x
_atom_site_fract_y
_atom_site_fract_z
Zn1	Zn	1.403906	-0.146796	-0.429144
Zn2	Zn	1.395089	-0.239561	-0.278762
Zn3	Zn	1.244861	-0.156879	-0.287461
Zn4	Zn	1.253477	-0.238950	-0.437739
O5	O	1.324333	-0.195546	-0.358277
O6	O	1.528562	-0.155137	-0.401958
O7	O	1.367865	-0.233068	-0.154089
O8	O	1.266043	-0.082372	-0.306300
O9	O	1.522084	-0.223291	-0.291473
O10	O	1.382893	-0.074964	-0.410394
O11	O	1.257494	-0.172322	-0.160480
O12	O	1.120179	-0.171730	-0.314633
O13	O	1.280728	-0.222250	-0.562426
O14	O	1.126509	-0.232027	-0.425041
O15	O	1.391247	-0.154545	-0.556111
O16	O	1.376219	-0.312649	-0.299807
O17	O	1.272178	-0.312200	-0.416606
C18	C	1.090719	-0.202907	-0.371714
C19	C	0.990778	-0.206067	-0.377484
C20	C	0.853231	-0.241970	-0.442997
C21	C	0.947134	-0.239000	-0.437583
C22	C	0.940513	-0.176103	-0.322793
C23	C	0.846610	-0.179073	-0.328207
C24	C	0.802972	-0.212007	-0.388312
C25	C	0.709067	-0.214973	-0.393730
C26	C	0.702448	-0.152079	-0.278935
C27	C	0.796351	-0.149109	-0.273522
C28	C	1.324202	-0.331395	-0.358214
C29	C	1.324230	-0.389508	-0.358212
C30	C	1.385211	-0.745965	-0.412580
C31	C	1.385239	-0.800568	-0.412597
O32	O	1.436932	-0.825491	-0.458760
N33	N	1.324463	-0.831778	-0.358356
C34	C	1.263650	-0.808383	-0.304102
O35	O	1.211957	-0.839943	-0.257968
C36	C	1.263619	-0.753781	-0.304091
C37	C	1.324404	-0.722574	-0.358328
C38	C	1.445992	-0.714758	-0.466814
C39	C	1.445965	-0.660159	-0.466796
C40	C	1.385158	-0.636767	-0.412544
C41	C	1.324378	-0.667975	-0.358310
C42	C	1.202802	-0.730386	-0.249842
C43	C	1.202775	-0.675780	-0.249836
C44	C	1.263561	-0.644573	-0.304073
C45	C	1.263544	-0.589984	-0.304040
N46	N	1.324320	-0.558774	-0.358281
C47	C	1.385127	-0.582166	-0.412533
C48	C	1.263719	-0.923050	-0.304131
C49	C	1.263753	-0.977651	-0.304137
C50	C	1.385342	-0.969833	-0.412634
C51	C	1.385311	-0.915231	-0.412622
C52	C	1.324495	-0.891840	-0.358372
C53	C	1.385067	-0.467504	-0.412490
C54	C	1.385037	-0.412900	-0.412464
C55	C	1.263446	-0.420723	-0.303971
C56	C	1.263478	-0.475322	-0.303993
C57	C	1.324292	-0.498711	-0.358260
O58	O	1.211875	-0.565024	-0.257904
O59	O	1.436803	-0.550599	-0.458668
C60	C	1.558860	-0.188157	-0.344787
C61	C	1.658802	-0.185009	-0.339038
C62	C	1.337932	-0.187204	-0.592806
C63	C	1.343727	-0.183650	-0.692749
C64	C	1.324491	-0.059165	-0.358358
C65	C	1.324558	-0.001048	-0.358393
C66	C	1.409430	-0.143393	-0.830327
C67	C	1.403990	-0.146731	-0.736422
C68	C	1.288903	-0.217234	-0.742987
C69	C	1.294343	-0.213896	-0.836892
C70	C	1.354608	-0.176974	-0.880559
C71	C	1.360043	-0.173634	-0.974466
C72	C	1.244961	-0.244139	-0.981029
C73	C	1.239521	-0.247477	-0.887124
C74	C	1.310839	-0.203816	-0.124657
C75	C	1.305218	-0.207218	-0.024705
H76	H	0.988051	-0.263400	-0.482113
H77	H	0.673540	-0.241788	-0.442673
N78	N	1.201351	-0.396815	-0.248551
N79	N	1.201345	-0.348063	-0.248549
H80	H	1.157489	-0.331175	-0.209410
N81	N	0.985110	-0.142475	-0.261395
N82	N	1.068951	-0.139835	-0.256566
H83	H	1.100450	-0.116086	-0.213201
N84	N	1.177951	-0.285182	-0.842515
N85	N	1.095593	-0.283949	-0.857770
H86	H	1.052105	-0.310577	-0.826266
N87	N	1.421596	-0.135913	-1.019059
N88	N	1.470538	-0.105933	-0.974194
H89	H	1.514012	-0.079291	-1.005685
N90	N	0.808665	-0.275606	-0.504403
N91	N	0.853551	-0.302352	-0.553233
H92	H	0.822079	-0.326108	-0.596603
H93	H	0.831893	-0.122297	-0.224584
H94	H	1.448632	-0.119385	-0.695526
N95	N	1.508126	-0.738637	-0.522232
N96	N	1.590751	-0.730078	-0.511551
H97	H	1.634643	-0.746938	-0.550689
H98	H	0.661517	-0.127678	-0.234410
H99	H	1.434539	-0.387492	-0.456630
H100	H	1.214197	-0.904009	-0.259946
N101	N	1.447190	-0.491381	-0.467928
N102	N	1.501449	-0.463503	-0.516342
H103	H	1.545327	-0.480365	-0.555493
H104	H	1.495459	-0.634753	-0.510964
H105	H	1.434807	-0.889825	-0.456788
N106	N	1.447454	-0.993741	-0.468044
N107	N	1.447465	-1.042493	-0.468041
H108	H	1.491331	-1.059381	-0.507169
N109	N	1.201671	-1.009517	-0.248712
N110	N	1.147391	-0.988618	-0.200275
H111	H	1.103541	-1.011122	-0.161131
N112	N	1.140652	-0.651880	-0.194429
N113	N	1.085147	-0.622115	-0.229309
H114	H	1.041274	-0.605235	-0.190178
H115	H	1.153303	-0.755786	-0.205675
H116	H	1.213988	-0.500733	-0.259821
N117	N	1.188956	-0.278436	-1.032355
N118	N	1.193814	-0.275449	-1.116198
H119	H	1.154258	-0.299668	-1.152448
N120	N	1.470975	-0.105669	-0.874924
N121	N	1.519911	-0.075683	-0.830063
H122	H	1.563377	-0.049038	-0.861558
H123	H	1.239845	-0.247298	-0.707417
