data_functionalizedCrystal
_audit_creation_method	'MofGen! by Chris Wilmer'
_symmetry_space_group_name_H-M	'P1'
_symmetry_Int_Tables_number	1
_symmetry_cell_setting	triclinic
loop_
_symmetry_equiv_pos_as_xyz
  x,y,z
_cell_length_a	12.837943
_cell_length_b	23.532407
_cell_length_c	11.295483
_cell_angle_alpha	94.064566
_cell_angle_beta	85.461227
_cell_angle_gamma	88.838809
loop_
_atom_site_label
_atom_site_type_symbol
_atom_site_fract_x
_atom_site_fract_y
_atom_site_fract_z
O1	O	1.380948	0.144513	-0.099028
O2	O	1.079219	0.137204	-0.099034
O3	O	1.239181	0.058450	-0.099009
O4	O	1.220986	0.223267	-0.099053
O5	O	1.225131	0.065355	0.099039
O6	O	1.065169	0.144109	0.099014
O7	O	1.366899	0.151419	0.099020
Cu8	Cu	1.214751	0.148394	0.117101
Cu9	Cu	1.231366	0.140228	-0.117115
O10	O	1.206937	0.230173	0.098995
C11	C	1.033599	0.138187	-0.000010
C12	C	0.918597	0.130823	-0.000012
C13	C	0.676728	0.219356	-0.000018
C14	C	0.568673	0.212439	-0.000018
C15	C	0.594431	0.110073	-0.000004
C16	C	0.702485	0.116990	-0.000004
C17	C	0.743630	0.171633	-0.000013
C18	C	0.851687	0.178549	-0.000021
C19	C	0.877442	0.076184	0.000002
C20	C	0.769387	0.069267	0.000002
C21	C	1.231692	0.040660	0.000018
C22	C	1.230298	-0.022637	0.000027
C23	C	1.316228	-0.416812	-0.000037
C24	C	1.314934	-0.476287	-0.000046
O25	O	1.394590	-0.508463	-0.000088
N26	N	1.219836	-0.504370	-0.000047
C27	C	1.126025	-0.472975	-0.000051
O28	O	1.045018	-0.502323	-0.000053
C29	C	1.127321	-0.413501	-0.000050
C30	C	1.222424	-0.385421	-0.000037
C31	C	1.411324	-0.388732	-0.000025
C32	C	1.412617	-0.329261	-0.000014
C33	C	1.318814	-0.297871	-0.000014
C34	C	1.223717	-0.325951	-0.000026
C35	C	1.033512	-0.382108	-0.000063
C36	C	1.034816	-0.322631	-0.000063
C37	C	1.129920	-0.294551	-0.000050
C38	C	1.131207	-0.235089	-0.000015
N39	N	1.226306	-0.207006	-0.000014
C40	C	1.320109	-0.238397	-0.000013
C41	C	1.123313	-0.597873	-0.000054
C42	C	1.122016	-0.657345	-0.000046
C43	C	1.310925	-0.660653	-0.000043
C44	C	1.312220	-0.601180	-0.000043
C45	C	1.218411	-0.569790	-0.000053
C46	C	1.322817	-0.113504	0.000011
C47	C	1.324101	-0.054028	0.000027
C48	C	1.135193	-0.050725	0.000019
C49	C	1.133908	-0.110196	0.000009
C50	C	1.227729	-0.141584	0.000001
O51	O	1.051593	-0.202877	0.000023
O52	O	1.401104	-0.209042	-0.000026
C53	C	1.412519	0.150435	-0.000006
C54	C	1.527521	0.157799	-0.000013
C55	C	1.214425	0.247962	-0.000035
C56	C	1.215820	0.311259	-0.000052
N57	N	1.203072	0.154138	0.281835
N58	N	1.243053	0.134480	-0.281849
C59	C	1.327124	0.093101	0.531144
C60	C	1.318306	0.097446	0.655806
C61	C	1.176612	0.167170	0.655824
C62	C	1.185431	0.162825	0.531162
C63	C	1.260690	0.125790	0.468826
C64	C	1.269513	0.121448	0.344162
C65	C	1.127815	0.191169	0.344182
C66	C	1.118997	0.195514	0.468844
H67	H	0.514204	0.251300	-0.000020
H68	H	0.560905	0.065588	0.000102
H69	H	0.735871	0.024778	0.000023
H70	H	0.885184	0.223042	-0.000026
H71	H	1.387305	-0.686223	-0.000047
H72	H	0.956070	-0.404961	-0.000080
H73	H	1.073723	0.217788	0.293429
O74	O	1.041536	-0.137493	0.000217
C75	C	0.923180	-0.199179	0.102752
C76	C	1.027806	-0.168292	0.102693
H77	H	0.912056	-0.224098	0.185583
H78	H	0.856315	-0.166545	0.102836
H79	H	0.923747	-0.229794	0.019820
H80	H	1.027342	-0.137678	0.185611
H81	H	1.094626	-0.200959	0.102548
O82	O	1.502361	-0.419308	-0.000076
C83	C	1.584121	-0.512385	0.000009
C84	C	1.480940	-0.477835	0.000029
H85	H	1.566837	-0.559709	0.000120
H86	H	1.636848	-0.504431	-0.082889
H87	H	1.625065	-0.498582	0.082877
H88	H	1.439908	-0.491616	-0.082783
H89	H	1.428289	-0.485790	0.082982
O90	O	1.044023	-0.020292	-0.000147
C91	C	0.890292	-0.002798	-0.102821
C92	C	0.993501	-0.037314	-0.102753
H93	H	0.849426	-0.016538	-0.185781
H94	H	0.837497	-0.010797	-0.020004
H95	H	0.907587	0.044530	-0.102761
H96	H	0.976303	-0.084652	-0.102855
H97	H	1.046264	-0.029266	-0.185563
H98	H	0.710228	0.263848	-0.000027
O99	O	1.414031	-0.143933	-0.000149
C100	C	1.582359	-0.168540	-0.102772
C101	C	1.479122	-0.134041	-0.102735
H102	H	1.635004	-0.160564	-0.185716
H103	H	1.623378	-0.154768	-0.019939
H104	H	1.565087	-0.215868	-0.102723
H105	H	1.496302	-0.086705	-0.102826
H106	H	1.438133	-0.147861	-0.185561
H107	H	1.115331	0.197319	0.706594
O108	O	1.045805	0.231496	0.529217
C109	C	0.906236	0.300218	0.516076
C110	C	0.989065	0.259481	0.447560
H111	H	0.860354	0.322864	0.450086
H112	H	0.850533	0.274878	0.574420
H113	H	0.946559	0.333103	0.574461
H114	H	0.948832	0.226588	0.389111
H115	H	1.044761	0.284859	0.389291
H116	H	0.931927	0.037324	-0.000001
H117	H	1.401549	-0.031168	0.000041
H118	H	1.044571	-0.680202	-0.000036
O119	O	1.505097	-0.302080	-0.000064
C120	C	1.692324	-0.311659	0.000004
C121	C	1.587661	-0.342508	0.000037
H122	H	1.759103	-0.344330	0.000110
H123	H	1.703612	-0.286800	-0.082898
H124	H	1.691730	-0.280998	0.082868
H125	H	1.588180	-0.373196	-0.082772
H126	H	1.576414	-0.367330	0.082993
H127	H	1.389662	-0.578321	-0.000033
O128	O	1.342641	0.085427	0.283790
C129	C	1.482285	0.016750	0.296936
C130	C	1.399499	0.057515	0.365449
H131	H	1.528292	-0.005819	0.362927
H132	H	1.442028	-0.016193	0.238622
H133	H	1.537876	0.042119	0.238522
H134	H	1.343884	0.032194	0.423928
H135	H	1.439827	0.090458	0.423688
H136	H	1.046916	-0.572319	-0.000052
O137	O	0.943729	-0.292122	-0.000280
C138	C	0.842857	-0.226597	-0.102846
C139	C	0.946048	-0.261128	-0.102765
H140	H	0.844707	-0.201521	-0.185683
H141	H	0.774634	-0.256863	-0.102932
H142	H	0.832864	-0.195813	-0.019921
H143	H	0.956142	-0.291914	-0.185676
H144	H	1.014218	-0.230828	-0.102617
H145	H	1.388410	0.062950	0.480389
O146	O	1.382952	0.065670	0.716158
C147	C	1.524374	-0.003976	0.702979
C148	C	1.451246	0.031992	0.634484
H149	H	1.579593	-0.031222	0.636975
H150	H	1.571826	0.025427	0.761294
H151	H	1.475783	-0.032789	0.761391
H152	H	1.499757	0.060809	0.576007
H153	H	1.403791	0.002556	0.576244
