data_functionalizedCrystal
_audit_creation_method	'MofGen! by Chris Wilmer'
_symmetry_space_group_name_H-M	'P1'
_symmetry_Int_Tables_number	1
_symmetry_cell_setting	triclinic
loop_
_symmetry_equiv_pos_as_xyz
  x,y,z
_cell_length_a	16.109301
_cell_length_b	14.586319
_cell_length_c	16.109301
_cell_angle_alpha	89.994786
_cell_angle_beta	83.461481
_cell_angle_gamma	89.999213
loop_
_atom_site_label
_atom_site_type_symbol
_atom_site_fract_x
_atom_site_fract_y
_atom_site_fract_z
O1	O	-1.103131	0.076185	-0.106866
O2	O	-0.603131	0.576185	0.393134
O3	O	-0.861069	0.076200	-0.120165
O4	O	-0.361069	0.576200	0.379835
O5	O	-0.988749	0.076183	0.007515
O6	O	-0.488749	0.576183	0.507515
O7	O	-0.975450	0.076203	-0.234547
O8	O	-0.475450	0.576203	0.265453
O9	O	-0.988741	-0.076298	0.007517
O10	O	-0.488741	0.423702	0.507517
O11	O	-0.861060	-0.076281	-0.120164
O12	O	-0.361060	0.423719	0.379836
O13	O	-1.103122	-0.076295	-0.106864
O14	O	-0.603122	0.423705	0.393136
Cu15	Cu	-0.982090	-0.090211	-0.113514
Cu16	Cu	-0.482090	0.409789	0.386486
Cu17	Cu	-0.982101	0.090115	-0.113516
Cu18	Cu	-0.482101	0.590115	0.386484
O19	O	-0.975441	-0.076278	-0.234545
O20	O	-0.475441	0.423722	0.265455
C21	C	-0.830090	-0.000038	-0.119626
C22	C	-0.330090	0.499962	0.380374
C23	C	-0.737794	-0.000033	-0.118011
C24	C	-0.237794	0.499967	0.381989
N25	N	-0.982089	-0.217042	-0.113512
N26	N	-0.482089	0.282958	0.386488
C27	C	-0.988206	-0.000058	0.038491
C28	C	-0.488206	0.499942	0.538491
C29	C	-0.986591	-0.000059	0.130786
C30	C	-0.486591	0.499941	0.630786
C31	C	-1.134101	-0.000055	-0.107404
C32	C	-0.634101	0.499945	0.392596
C33	C	-1.226397	-0.000054	-0.109019
C34	C	-0.726397	0.499946	0.390981
C35	C	-0.515522	-0.000038	-0.190018
C36	C	-0.015522	0.499962	0.309982
C37	C	-0.428801	-0.000044	-0.188494
C38	C	0.071199	0.499956	0.311506
C39	C	-0.448676	-0.000052	-0.037006
C40	C	0.051324	0.499948	0.462994
C41	C	-0.535394	-0.000053	-0.038530
C42	C	-0.035394	0.499947	0.461470
C43	C	-0.568815	-0.000041	-0.115039
C44	C	-0.068815	0.499959	0.384961
C45	C	-0.395376	-0.000046	-0.111990
C46	C	0.104624	0.499954	0.388010
C47	C	-0.301350	-0.000053	-0.110337
C48	C	0.198650	0.499947	0.389663
C49	C	-0.662847	-0.000036	-0.116693
C50	C	-0.162847	0.499964	0.383307
C51	C	-1.038644	-0.452057	-0.056994
C52	C	-0.538644	0.047943	0.443006
C53	C	-1.038647	-0.548038	-0.056992
C54	C	-0.538647	-0.048038	0.443008
C55	C	-0.925547	-0.548032	-0.170032
C56	C	-0.425547	-0.048032	0.329968
C57	C	-0.925541	-0.452052	-0.170030
C58	C	-0.425541	0.047948	0.329970
C59	C	-0.982095	-0.404067	-0.113511
C60	C	-0.482095	0.095933	0.386489
C61	C	-0.982103	-0.596028	-0.113512
C62	C	-0.482103	-0.096028	0.386488
C63	C	-0.982105	-0.700095	-0.113510
C64	C	-0.482105	-0.200095	0.386490
C65	C	-0.982092	-0.299993	-0.113512
C66	C	-0.482092	0.200007	0.386488
N67	N	-0.982109	0.216947	-0.113511
N68	N	-0.482109	0.716947	0.386489
C69	C	-0.975984	-0.000035	-0.265521
C70	C	-0.475984	0.499965	0.234479
C71	C	-0.977600	-0.000028	-0.357816
C72	C	-0.477600	0.499972	0.142184
C73	C	-1.058599	-0.000049	0.353059
C74	C	-0.558599	0.499951	0.853059
C75	C	-1.057075	-0.000041	0.439779
C76	C	-0.557075	0.499959	0.939779
C77	C	-0.905586	-0.000036	0.419905
C78	C	-0.405586	0.499964	0.919905
C79	C	-0.907111	-0.000037	0.333186
C80	C	-0.407111	0.499963	0.833186
C81	C	-0.983620	-0.000048	0.299766
C82	C	-0.483620	0.499952	0.799766
C83	C	-0.980571	-0.000039	0.473205
C84	C	-0.480571	0.499961	0.973205
C85	C	-0.978918	-0.000031	0.567231
C86	C	-0.478918	0.499969	1.067231
C87	C	-0.985273	-0.000055	0.205734
C88	C	-0.485273	0.499945	0.705734
H89	H	-0.542730	-0.000035	-0.252317
H90	H	-0.042730	0.499965	0.247683
C91	C	-0.821431	-0.000041	0.456676
C92	C	-0.321431	0.499959	0.956676
N93	N	-0.758043	-0.000052	0.484371
N94	N	-0.258043	0.499948	0.984371
C95	C	-0.863340	-0.600825	-0.232197
C96	C	-0.363340	-0.100825	0.267803
N97	N	-0.816484	-0.640587	-0.279021
N98	N	-0.316484	-0.140587	0.220979
C99	C	-0.370182	-0.000045	-0.270977
C100	C	0.129818	0.499955	0.229023
N101	N	-0.326030	-0.000048	-0.333108
N102	N	0.173970	0.499952	0.166892
C103	C	-0.411905	-0.000057	0.047150
C104	C	0.088095	0.499943	0.547150
N105	N	-0.384210	-0.000056	0.110538
N106	N	0.115790	0.499944	0.610538
H107	H	-0.578788	-0.000058	0.022530
H108	H	-0.078788	0.499942	0.522530
H109	H	-1.084693	-0.412989	-0.010972
H110	H	-0.584693	0.087011	0.489028
C111	C	-0.863366	-0.399261	-0.232244
C112	C	-0.363366	0.100739	0.267756
N113	N	-0.816551	-0.359499	-0.279115
N114	N	-0.316551	0.140501	0.220885
H115	H	-1.120897	-0.000056	0.325851
H116	H	-0.620897	0.499944	0.825851
H117	H	-1.084694	-0.587108	-0.010969
H118	H	-0.584694	-0.087108	0.489031
C119	C	-0.824624	-0.000031	0.274560
C120	C	-0.324624	0.499969	0.774560
N121	N	-0.762497	-0.000024	0.230402
N122	N	-0.262497	0.499976	0.730402
H123	H	-1.118130	-0.000040	0.483168
H124	H	-0.618130	0.499960	0.983168
