data_functionalizedCrystal
_audit_creation_method	'MofGen! by Chris Wilmer'
_symmetry_space_group_name_H-M	'P1'
_symmetry_Int_Tables_number	1
_symmetry_cell_setting	triclinic
loop_
_symmetry_equiv_pos_as_xyz
  x,y,z
_cell_length_a	9.065215
_cell_length_b	17.038272
_cell_length_c	8.140239
_cell_angle_alpha	89.996147
_cell_angle_beta	89.997810
_cell_angle_gamma	88.063127
loop_
_atom_site_label
_atom_site_type_symbol
_atom_site_fract_x
_atom_site_fract_y
_atom_site_fract_z
O1	O	1.971909	0.114731	-0.136597
O2	O	2.471909	0.614731	0.363403
O3	O	1.543568	0.124145	-0.136604
O4	O	2.043568	0.624145	0.363396
O5	O	1.755193	0.005604	-0.136587
O6	O	2.255193	0.505604	0.363413
O7	O	1.760285	0.233272	-0.136613
O8	O	2.260285	0.733272	0.363387
O9	O	1.755180	0.005603	0.136640
O10	O	2.255180	0.505603	0.636640
O11	O	1.543556	0.124144	0.136623
O12	O	2.043556	0.624144	0.636623
O13	O	1.971897	0.114729	0.136631
O14	O	2.471897	0.614729	0.636631
Zn15	Zn	1.757724	0.119436	0.180007
Zn16	Zn	2.257724	0.619436	0.680007
Zn17	Zn	1.757741	0.119438	-0.179981
Zn18	Zn	2.257741	0.619438	0.320019
O19	O	1.760272	0.233270	0.136614
O20	O	2.260272	0.733270	0.636614
C21	C	1.488485	0.123240	0.000009
C22	C	1.988485	0.623240	0.500009
C23	C	1.324370	0.120536	0.000006
C24	C	1.824370	0.620536	0.500006
C25	C	1.750556	-0.023558	0.000026
C26	C	2.250556	0.476442	0.500026
C27	C	1.736740	-0.110451	0.000025
C28	C	2.236740	0.389549	0.500025
C29	C	1.863588	-0.159650	0.000029
C30	C	2.363588	0.340350	0.500029
C31	C	1.850597	-0.241294	0.000013
C32	C	2.350597	0.258706	0.500013
C33	C	1.710758	-0.273738	0.000005
C34	C	2.210758	0.226262	0.500005
C35	C	1.583900	-0.224532	-0.000004
C36	C	2.083900	0.275468	0.499996
C37	C	1.596892	-0.142890	0.000000
C38	C	2.096892	0.357110	0.500000
C39	C	1.664860	-0.519827	-0.000018
C40	C	2.164860	-0.019827	0.499982
C41	C	1.651877	-0.601476	-0.000017
C42	C	2.151877	-0.101476	0.499983
C43	C	1.918576	-0.618232	-0.000003
C44	C	2.418576	-0.118232	0.499997
C45	C	1.931556	-0.536587	0.000011
C46	C	2.431556	-0.036587	0.500011
C47	C	1.804698	-0.487389	-0.000007
C48	C	2.304698	0.012611	0.499993
C49	C	1.697476	-0.357191	-0.000006
C50	C	2.197476	0.142809	0.499994
C51	C	1.817981	-0.403937	-0.000008
C52	C	2.317981	0.096063	0.499992
C53	C	2.026980	0.115634	0.000014
C54	C	2.526980	0.615634	0.500014
C55	C	2.191095	0.118338	0.000006
C56	C	2.691095	0.618338	0.500006
C57	C	1.764909	0.262433	-0.000003
C58	C	2.264909	0.762433	0.499997
C59	C	1.778725	0.349325	-0.000013
C60	C	2.278725	0.849325	0.499987
N61	N	1.757724	0.119435	0.425690
N62	N	2.257724	0.619435	0.925690
N63	N	1.757752	0.119434	-0.425664
N64	N	2.257752	0.619434	0.074336
H65	H	1.953891	-0.281349	0.000020
H66	H	2.453891	0.218651	0.500020
N67	N	1.460064	-0.089832	0.000024
N68	N	1.960064	0.410168	0.500024
H69	H	1.459508	-0.055592	0.101315
H70	H	1.959508	0.444408	0.601315
H71	H	1.459576	-0.055628	-0.101323
H72	H	1.959576	0.444372	0.398677
N73	N	2.014419	-0.124663	0.000042
N74	N	2.514419	0.375337	0.500042
H75	H	2.003407	-0.065477	0.000053
H76	H	2.503407	0.434523	0.500053
H77	H	2.070364	-0.142601	0.101335
H78	H	2.570364	0.357399	0.601335
H79	H	1.583617	-0.383616	-0.000009
H80	H	2.083617	0.116384	0.499991
H81	H	1.470039	-0.250954	-0.000021
H82	H	1.970039	0.249046	0.499979
N83	N	1.968806	-0.368950	0.000015
N84	N	2.468806	0.131050	0.500015
H85	H	1.980153	-0.335443	-0.101263
H86	H	2.480153	0.164557	0.398737
H87	H	1.980015	-0.335495	0.101375
H88	H	2.480015	0.164505	0.601375
N89	N	2.082383	-0.501595	0.000029
N90	N	2.582383	-0.001595	0.500029
H91	H	2.160772	-0.545152	0.000030
H92	H	2.660772	-0.045152	0.500030
H93	H	2.093591	-0.468080	-0.101255
H94	H	2.593591	0.031920	0.398745
N95	N	2.055394	-0.671294	0.000018
N96	N	2.555394	-0.171294	0.500018
H97	H	2.025951	-0.727938	0.000015
H98	H	2.525951	-0.227938	0.500015
H99	H	2.115902	-0.660679	-0.101267
H100	H	2.615902	-0.160679	0.398733
N101	N	1.501041	-0.636468	-0.000043
N102	N	2.001041	-0.136468	0.499957
H103	H	1.512066	-0.695654	-0.000034
H104	H	2.012066	-0.195654	0.499966
H105	H	1.445068	-0.618541	0.101239
H106	H	1.945068	-0.118541	0.601239
N107	N	1.528041	-0.466769	-0.000030
N108	N	2.028041	0.033231	0.499970
H109	H	1.437486	-0.499713	-0.000027
H110	H	1.937486	0.000287	0.499973
H111	H	1.527615	-0.432533	0.101258
H112	H	2.027615	0.067467	0.601258
