data_functionalizedCrystal
_audit_creation_method	'MofGen! by Chris Wilmer'
_symmetry_space_group_name_H-M	'P1'
_symmetry_Int_Tables_number	1
_symmetry_cell_setting	triclinic
loop_
_symmetry_equiv_pos_as_xyz
  x,y,z
_cell_length_a	6.817900
_cell_length_b	16.255699
_cell_length_c	10.943624
_cell_angle_alpha	93.777027
_cell_angle_beta	108.838799
_cell_angle_gamma	103.489404
loop_
_atom_site_label
_atom_site_type_symbol
_atom_site_fract_x
_atom_site_fract_y
_atom_site_fract_z
V1	V	-4.088274	-0.117067	-0.402979
O2	O	-4.074517	0.005648	-0.394868
O3	O	-4.039465	-0.232147	-0.400647
O4	O	-4.066657	-0.115256	-0.578539
O5	O	-4.047137	-0.112051	-0.215744
V6	V	-4.568484	-0.102390	-0.380533
O7	O	-4.356799	-0.149263	-0.452217
O8	O	-4.750157	-0.070195	-0.331295
O9	O	-4.394086	0.012689	-0.382865
O10	O	-4.699637	-0.225106	-0.388645
O11	O	-4.727018	-0.107407	-0.567768
O12	O	-4.366894	-0.104201	-0.204973
C13	C	-3.883500	-0.260201	-0.394399
C14	C	-3.925058	-0.354280	-0.393663
C15	C	-3.918185	-0.111095	-0.621317
C16	C	-3.981792	-0.110376	-0.764840
C17	C	-3.827748	-0.105534	-0.841970
C18	C	-4.000395	-0.177404	-0.948223
C19	C	-3.922507	-0.037233	-0.914324
C20	C	-4.153634	-0.182313	-0.869217
C21	C	-4.075681	-0.042078	-0.835294
C22	C	-4.248459	-0.113969	-0.941517
C23	C	-3.834349	-0.577106	-0.385222
C24	C	-3.902111	-0.624731	-0.281183
C25	C	-4.001262	-0.526534	-0.392376
C26	C	-4.007577	-0.646542	-0.495116
C27	C	-4.074860	-0.692923	-0.391139
C28	C	-4.068434	-0.572910	-0.288259
C29	C	-4.173918	-0.594725	-0.502287
C30	C	-4.241795	-0.642325	-0.398227
C31	C	-3.958858	-0.430680	-0.393088
C32	C	-4.117274	-0.788774	-0.390419
C33	C	-4.213393	0.040739	-0.389109
C34	C	-4.151074	0.134817	-0.389855
C35	C	-4.178707	-0.108365	-0.162189
C36	C	-4.094339	-0.109080	-0.018664
H37	H	-3.649354	-0.102063	-0.798509
H38	H	-4.288314	-0.581092	-0.595776
H39	H	-4.414463	-0.670658	-0.403692
O40	O	-3.806801	0.035860	-0.938999
C41	C	-3.870307	0.035913	-1.075038
H42	H	-3.945071	-0.032714	-1.128075
H43	H	-3.723736	0.066090	-1.101472
H44	H	-3.993461	0.074407	-1.105572
O45	O	-3.976995	-0.684670	-0.599349
C46	C	-3.762509	-0.651252	-0.592024
H47	H	-3.693316	-0.585314	-0.529409
H48	H	-3.758258	-0.645543	-0.694462
H49	H	-3.662515	-0.695875	-0.546282
O50	O	-3.765266	-0.640943	-0.169740
C51	C	-3.551178	-0.607579	-0.163204
H52	H	-3.548189	-0.601287	-0.265766
H53	H	-3.451340	-0.652559	-0.118781
H54	H	-3.480888	-0.541916	-0.099783
O55	O	-4.269236	-0.255517	-0.844761
C56	C	-4.207357	-0.255336	-0.708711
H57	H	-4.038491	-0.210971	-0.658453
H58	H	-4.208474	-0.323030	-0.686928
H59	H	-4.325066	-0.231862	-0.670739
O60	O	-3.628306	-0.542976	-0.378350
C61	C	-3.519827	-0.480671	-0.265792
H62	H	-3.642162	-0.455775	-0.234565
H63	H	-3.405837	-0.425387	-0.288330
H64	H	-3.423764	-0.510468	-0.183465
H65	H	-3.969230	-0.234614	-0.997381
H66	H	-4.106762	0.015135	-0.786101
O67	O	-4.098388	-0.534646	-0.183888
C68	C	-4.058458	-0.445727	-0.185801
H69	H	-3.949401	-0.425840	-0.244796
H70	H	-3.976436	-0.410098	-0.081550
H71	H	-4.217245	-0.429341	-0.232603
O72	O	-4.461471	-0.118392	-0.993111
C73	C	-4.583181	-0.194918	-0.970573
H74	H	-4.485080	-0.243786	-0.954867
H75	H	-4.737395	-0.221430	-1.058646
H76	H	-4.625485	-0.181420	-0.879983
