data_functionalizedCrystal
_audit_creation_method	'MofGen! by Chris Wilmer'
_symmetry_space_group_name_H-M	'P1'
_symmetry_Int_Tables_number	1
_symmetry_cell_setting	triclinic
loop_
_symmetry_equiv_pos_as_xyz
  x,y,z
_cell_length_a	15.995350
_cell_length_b	11.026607
_cell_length_c	10.065908
_cell_angle_alpha	100.698292
_cell_angle_beta	98.792069
_cell_angle_gamma	83.960804
loop_
_atom_site_label
_atom_site_type_symbol
_atom_site_fract_x
_atom_site_fract_y
_atom_site_fract_z
O1	O	0.340990	-1.627918	-0.113481
O2	O	0.301065	-1.274612	-0.113484
O3	O	0.200596	-1.460923	-0.113481
O4	O	0.441459	-1.441607	-0.113484
O5	O	0.219853	-1.425394	0.113507
O6	O	0.320322	-1.239083	0.113504
O7	O	0.360248	-1.592389	0.113508
Zn8	Zn	0.343343	-1.410095	0.149545
Zn9	Zn	0.317970	-1.456906	-0.149522
O10	O	0.460717	-1.406078	0.113504
C11	C	0.303328	-1.211637	0.000010
C12	C	0.281371	-1.076923	0.000008
C13	C	0.178909	-1.442360	0.000011
C14	C	0.085597	-1.439967	0.000003
N15	N	0.360660	-1.378156	0.353650
C16	C	-0.253446	-1.431369	0.000007
C17	C	-0.226055	-1.298762	-0.000503
C18	C	-0.128960	-1.301076	0.000009
C19	C	-0.085243	-1.435634	0.000004
C20	C	-0.105459	-1.480791	0.129624
C21	C	-0.202588	-1.477441	0.129732
C22	C	-0.224432	-1.520585	-0.128396
C23	C	-0.127637	-1.520822	-0.130109
C24	C	0.009819	-1.438051	0.000007
C25	C	-0.348507	-1.428955	0.000014
C26	C	0.482403	-1.424641	0.000010
C27	C	0.575714	-1.427036	0.000009
C28	C	0.357984	-1.655365	0.000011
C29	C	0.379940	-1.790080	0.000003
C30	C	0.341997	-1.003118	0.000007
C31	C	0.319305	-0.863884	0.000005
C32	C	0.323991	-1.445781	0.421430
C33	C	0.337327	-1.421210	0.578597
N34	N	0.300653	-1.488844	0.646373
H35	H	-0.116175	-1.264175	-0.092908
H36	H	-0.076024	-1.578893	0.134441
H37	H	0.282721	-1.521864	0.363107
C38	C	0.472763	-0.843957	0.000001
N39	N	0.542677	-0.884538	-0.000003
H40	H	0.250594	-0.824003	-0.000029
H41	H	0.401922	-1.302065	0.411975
C42	C	0.244904	-1.591648	0.567592
N43	N	0.202918	-1.669082	0.508253
C44	C	0.188553	-1.023038	0.000009
N45	N	0.118640	-0.982454	0.000008
H46	H	0.378592	-1.345113	0.636917
H47	H	-0.219654	-1.573938	0.135610
C48	C	-0.272552	-1.246758	-0.126068
N49	N	-0.307583	-1.207587	-0.220645
C50	C	-0.272271	-1.482749	-0.261120
N51	N	-0.308302	-1.454235	-0.361081
H52	H	-0.101005	-1.234717	0.093083
H53	H	-0.245765	-1.231495	0.091931
H54	H	-0.219862	-1.414551	0.226628
C55	C	-0.087806	-1.655045	-0.140682
N56	N	-0.057807	-1.756147	-0.148633
C57	C	-0.065325	-1.398980	0.259942
N58	N	-0.035099	-1.337351	0.358094
C59	C	-0.247525	-1.652931	-0.129583
N60	N	-0.264924	-1.752608	-0.130469
H61	H	-0.115736	-1.487981	-0.225998
H62	H	0.410702	-1.043008	0.000014
