data_functionalizedCrystal
_audit_creation_method	'MofGen! by Chris Wilmer'
_symmetry_space_group_name_H-M	'P1'
_symmetry_Int_Tables_number	1
_symmetry_cell_setting	triclinic
loop_
_symmetry_equiv_pos_as_xyz
  x,y,z
_cell_length_a	6.817900
_cell_length_b	11.102291
_cell_length_c	16.015572
_cell_angle_alpha	76.744367
_cell_angle_beta	104.485554
_cell_angle_gamma	108.605753
loop_
_atom_site_label
_atom_site_type_symbol
_atom_site_fract_x
_atom_site_fract_y
_atom_site_fract_z
V1	V	-3.999221	-0.051261	-0.269393
O2	O	-3.960390	0.130656	-0.264264
O3	O	-3.976766	-0.224933	-0.267551
O4	O	-3.927019	0.005776	-0.386885
O5	O	-4.010482	-0.101651	-0.144105
V6	V	-4.482571	-0.036148	-0.254408
O7	O	-4.260858	-0.084413	-0.302265
O8	O	-4.671130	-0.002996	-0.221536
O9	O	-4.281818	0.137524	-0.256249
O10	O	-4.638798	-0.218065	-0.259536
O11	O	-4.588706	0.014242	-0.379696
O12	O	-4.331566	-0.093185	-0.136916
C13	C	-3.828849	-0.269028	-0.263302
C14	C	-3.891618	-0.410646	-0.262579
C15	C	-4.007243	-0.591798	-0.340688
C16	C	-3.948285	-0.458735	-0.341366
C17	C	-3.893931	-0.495628	-0.183110
C18	C	-3.952902	-0.628689	-0.182433
C19	C	-4.063888	-0.639879	-0.419480
C20	C	-4.061583	-0.554906	-0.498950
C21	C	-4.002626	-0.421843	-0.499627
C22	C	-3.945973	-0.373753	-0.420835
C23	C	-3.765391	0.025266	-0.415522
C24	C	-3.787813	0.070751	-0.511572
C25	C	-4.136762	-0.332975	-0.889206
C26	C	-4.157830	-0.290193	-0.979455
C27	C	-4.047776	-0.068856	-0.954748
C28	C	-4.026688	-0.111619	-0.864494
C29	C	-4.071187	-0.243680	-0.831731
C30	C	-3.961113	-0.022324	-0.807019
C31	C	-3.940038	-0.065084	-0.716774
C32	C	-3.984538	-0.197140	-0.684004
C33	C	-4.050113	-0.286440	-0.741486
C34	C	-3.916629	0.109736	-0.839784
C35	C	-3.851054	0.199031	-0.782309
C36	C	-3.829963	0.156272	-0.692062
C37	C	-3.874463	0.024216	-0.659292
C38	C	-3.764389	0.245572	-0.634580
C39	C	-3.743314	0.202812	-0.544335
C40	C	-3.853388	-0.018544	-0.569047
C41	C	-4.093079	0.181612	-0.260497
C42	C	-4.009547	0.323230	-0.261225
C43	C	-4.156538	-0.112681	-0.108274
C44	C	-4.113353	-0.158160	-0.012224
H45	H	-4.111891	-0.748224	-0.418937
H46	H	-3.954774	-0.697876	-0.117727
O47	O	-4.122701	-0.606763	-0.583931
H48	H	-4.164073	-0.713564	-0.570113
O49	O	-3.832794	-0.443755	-0.098133
H50	H	-3.844313	-0.525198	-0.042762
O51	O	-4.000133	-0.330187	-0.585334
H52	H	-4.049413	-0.385981	-0.640005
H53	H	-4.011557	0.038668	-0.981436
H54	H	-3.897987	-0.265402	-0.421394
O55	O	-4.098098	-0.428878	-0.706135
H56	H	-4.147245	-0.483795	-0.761262
H57	H	-3.728183	0.353096	-0.661270
H58	H	-3.967381	-0.231953	-0.610520
O59	O	-3.901357	-0.160981	-0.533693
H60	H	-4.068011	-0.209078	-0.560213
H61	H	-4.172971	-0.440511	-0.862528
H62	H	-4.211222	-0.362918	-1.026250
O63	O	-3.939365	0.155890	-0.937118
H64	H	-3.832444	0.122645	-0.962977
H65	H	-3.814835	0.306556	-0.808998
H66	H	-3.689917	0.275525	-0.497537
