data_functionalizedCrystal
_audit_creation_method	'MofGen! by Chris Wilmer'
_symmetry_space_group_name_H-M	'P1'
_symmetry_Int_Tables_number	1
_symmetry_cell_setting	triclinic
loop_
_symmetry_equiv_pos_as_xyz
  x,y,z
_cell_length_a	27.732048
_cell_length_b	27.731996
_cell_length_c	12.503572
_cell_angle_alpha	93.487301
_cell_angle_beta	86.516589
_cell_angle_gamma	82.632022
loop_
_atom_site_label
_atom_site_type_symbol
_atom_site_fract_x
_atom_site_fract_y
_atom_site_fract_z
O1	O	0.643721	0.054705	-0.089195
O2	O	0.502927	0.063450	-0.089229
O3	O	0.577709	-0.011320	-0.089188
O4	O	0.568939	0.129475	-0.089236
O5	O	0.572085	-0.005688	0.089451
O6	O	0.497303	0.069082	0.089410
O7	O	0.638097	0.060337	0.089444
Cu8	Cu	0.567187	0.065224	0.105738
Cu9	Cu	0.573838	0.058563	-0.105523
O10	O	0.563315	0.135108	0.089403
C11	C	0.482108	0.066082	0.000086
C12	C	0.428454	0.065529	0.000074
C13	C	0.089630	0.106235	0.000107
C14	C	-0.112029	0.104184	0.000117
O15	O	-0.143293	0.141407	0.000151
N16	N	-0.131145	0.059848	0.000130
C17	C	-0.099843	0.016022	0.000148
O18	O	-0.120730	-0.021735	0.000171
C19	C	0.101816	0.018074	0.000146
C20	C	0.120929	0.062412	0.000121
C21	C	0.108744	0.150570	0.000084
C22	C	0.159156	0.151082	0.000075
C23	C	0.190455	0.107259	0.000090
C24	C	0.171341	0.062924	0.000113
C25	C	0.133117	-0.025752	0.000171
C26	C	0.183534	-0.025235	0.000173
C27	C	0.202647	0.019103	0.000149
C28	C	0.253051	0.019613	0.000119
N29	N	0.272167	0.063949	0.000106
C30	C	0.240869	0.107772	0.000091
C31	C	-0.205717	0.014948	0.000147
C32	C	-0.256131	0.014435	0.000146
C33	C	-0.268314	0.102597	0.000117
C34	C	-0.217898	0.103110	0.000110
C35	C	-0.186601	0.059284	0.000134
C36	C	0.346738	0.108844	0.000072
C37	C	0.397156	0.109352	0.000059
C38	C	0.409334	0.021190	0.000094
C39	C	0.358921	0.020682	0.000102
C40	C	0.327624	0.064513	0.000094
O41	O	0.284343	-0.017589	0.000097
O42	O	0.261764	0.145524	0.000092
C43	C	0.039218	0.105723	0.000115
C44	C	0.020105	0.061388	0.000138
C45	C	0.051403	0.017565	0.000153
C46	C	-0.030310	0.060875	0.000137
C47	C	-0.061608	0.104698	0.000122
C48	C	-0.042492	0.149034	0.000109
C49	C	0.007920	0.149546	0.000100
C50	C	0.032287	-0.026771	0.000166
C51	C	-0.018126	-0.027279	0.000173
C52	C	-0.049424	0.016544	0.000159
C53	C	0.574717	-0.026511	0.000135
C54	C	0.574174	-0.080167	0.000146
C55	C	0.573827	-0.415956	-0.097283
C56	C	0.571766	-0.617614	-0.097302
O57	O	0.574086	-0.646296	-0.180118
N58	N	0.568445	-0.639761	0.000073
C59	C	0.565635	-0.611490	0.097459
O60	O	0.562757	-0.634954	0.180282
C61	C	0.567692	-0.409831	0.097478
C62	C	0.571018	-0.387688	0.000096
C63	C	0.577153	-0.393812	-0.194657
C64	C	0.577670	-0.343400	-0.194651
C65	C	0.574862	-0.315133	-0.097271
C66	C	0.571536	-0.337277	0.000102
C67	C	0.564878	-0.381560	0.194863
C68	C	0.565392	-0.331143	0.194859
C69	C	0.568718	-0.308999	0.097478
C70	C	0.569245	-0.258598	0.097487
N71	N	0.572567	-0.236451	0.000112
C72	C	0.575375	-0.264718	-0.097267
C73	C	0.564556	-0.717364	0.097443
C74	C	0.564042	-0.767778	0.097439
C75	C	0.570173	-0.773899	-0.097324
C76	C	0.570690	-0.723484	-0.097318
C77	C	0.567878	-0.695217	0.000068
C78	C	0.576463	-0.158851	-0.097248
C79	C	0.576982	-0.108435	-0.097233
C80	C	0.570849	-0.102318	0.097529
C81	C	0.570332	-0.152730	0.097515
C82	C	0.573138	-0.180995	0.000118
O83	O	0.566922	-0.229886	0.180259
O84	O	0.578242	-0.241244	-0.180078
C85	C	0.573309	-0.466367	-0.097289
C86	C	0.569983	-0.488511	0.000085
C87	C	0.567175	-0.460243	0.097464
C88	C	0.569470	-0.538925	0.000080
C89	C	0.572278	-0.567193	-0.097299
C90	C	0.575600	-0.545046	-0.194674
C91	C	0.576117	-0.494634	-0.194668
C92	C	0.563853	-0.482390	0.194839
C93	C	0.563336	-0.532802	0.194825
C94	C	0.566144	-0.561069	0.097446
C95	C	0.658916	0.057705	0.000126
C96	C	0.712571	0.058258	0.000131
C97	C	0.566307	0.150299	0.000077
C98	C	0.566851	0.203954	0.000059
N99	N	0.562512	0.069909	0.254328
N100	N	0.578516	0.053875	-0.254113
C101	C	0.555636	0.076804	0.473439
C102	C	0.585391	0.046981	0.526783
C103	C	0.581565	0.050818	0.648704
C104	C	0.559461	0.072968	0.351507
H105	H	-0.033682	-0.063388	0.000185
N106	N	0.217289	-0.072507	0.000188
H107	H	0.252128	-0.065458	0.000181
H108	H	0.209055	-0.089755	0.066422
N109	N	0.622943	0.009343	0.465999
H110	H	0.620390	0.011901	0.386256
H111	H	0.656600	0.015241	0.485587
N112	N	0.066041	-0.074039	0.000190
H113	H	0.046276	-0.102200	0.000202
H114	H	0.089304	-0.077838	-0.066036
H115	H	0.562170	-0.399581	0.274162
H116	H	0.579693	-0.090409	-0.176536
N117	N	0.579502	-0.189334	-0.202294
H118	H	0.581693	-0.167651	-0.263970
H119	H	0.609403	-0.214525	-0.206512
N120	N	-0.171968	-0.032328	0.000160
H121	H	-0.148697	-0.036171	-0.066061
H122	H	-0.152893	-0.031971	0.066426
H123	H	0.527290	0.105216	0.519331
H124	H	-0.293806	0.138280	0.000105
N125	N	0.112508	-0.073573	0.000207
H126	H	0.126029	-0.094847	-0.066001
H127	H	0.121873	-0.090619	0.066486
N128	N	0.417766	0.157178	0.000027
H129	H	0.404248	0.178448	0.066242
H130	H	0.454451	0.150817	-0.000021
N131	N	0.312986	0.156118	0.000090
H132	H	0.332751	0.184278	0.000080
H133	H	0.293878	0.155748	-0.066124
H134	H	0.563094	-0.308129	0.274165
H135	H	0.174713	0.187187	0.000055
H136	H	0.083265	0.186258	0.000075
H137	H	-0.202341	0.139214	0.000097
H138	H	-0.271688	-0.021670	0.000149
H139	H	0.343359	-0.015423	0.000106
H140	H	0.568565	-0.079294	0.176812
N141	N	0.443096	-0.026074	0.000111
H142	H	0.477932	-0.019018	0.000109
H143	H	0.434864	-0.043322	0.066347
N144	N	0.028531	0.197368	0.000067
H145	H	0.001048	0.225048	0.000057
H146	H	0.047102	0.201595	0.066286
N147	N	-0.076255	0.196300	0.000086
H148	H	-0.111091	0.189243	0.000094
H149	H	-0.072186	0.217728	0.066303
H150	H	0.579438	-0.416822	-0.273959
N151	N	0.581256	-0.319520	-0.299684
H152	H	0.582955	-0.345083	-0.361365
H153	H	0.551625	-0.294593	-0.303936
H154	H	0.573398	-0.705459	-0.176615
H155	H	0.572460	-0.796923	-0.176614
H156	H	0.561341	-0.785804	0.176736
H157	H	0.578826	-0.476610	-0.273966
H158	H	0.562268	-0.694353	0.176751
H159	H	0.567628	-0.170760	0.176811
H160	H	0.577888	-0.568070	-0.273964
N161	N	0.559753	-0.556683	0.299865
H162	H	0.558052	-0.531121	0.361550
H163	H	0.529426	-0.573318	0.304098
N164	N	0.560826	-0.451906	0.299875
H165	H	0.558644	-0.473590	0.361552
H166	H	0.590886	-0.435004	0.304126
