data_functionalizedCrystal
_audit_creation_method	'MofGen! by Chris Wilmer'
_symmetry_space_group_name_H-M	'P1'
_symmetry_Int_Tables_number	1
_symmetry_cell_setting	triclinic
loop_
_symmetry_equiv_pos_as_xyz
  x,y,z
_cell_length_a	10.489711
_cell_length_b	27.732048
_cell_length_c	8.965430
_cell_angle_alpha	89.995481
_cell_angle_beta	89.994616
_cell_angle_gamma	83.584832
loop_
_atom_site_label
_atom_site_type_symbol
_atom_site_fract_x
_atom_site_fract_y
_atom_site_fract_z
O1	O	1.691081	0.068119	-0.124111
O2	O	1.319599	0.074535	-0.124104
O3	O	1.516878	0.001002	-0.124080
O4	O	1.493803	0.141651	-0.124136
O5	O	1.516861	0.001007	0.123999
O6	O	1.319582	0.074539	0.123975
O7	O	1.691065	0.068124	0.123968
Cu8	Cu	1.505322	0.071332	0.146623
Cu9	Cu	1.505342	0.071326	-0.146759
O10	O	1.493786	0.141656	0.123943
C11	C	1.272080	0.074055	-0.000063
C12	C	1.130512	0.072615	-0.000059
C13	C	1.516385	-0.017005	-0.000036
C14	C	1.514926	-0.070669	-0.000024
C15	C	0.946181	0.116835	-0.000094
C16	C	1.039306	0.094744	-0.122399
C17	C	1.039263	0.094737	0.122187
C18	C	0.971412	0.047933	-0.122496
C19	C	0.971360	0.047932	0.122200
C20	C	1.064458	0.025807	-0.000134
C21	C	1.622323	-0.408811	-0.000102
C22	C	1.616911	-0.610504	-0.000123
O23	O	1.715118	-0.641144	-0.000190
N24	N	1.499933	-0.630362	-0.000119
C25	C	1.384300	-0.599792	-0.000120
O26	O	1.284679	-0.621310	-0.000133
C27	C	1.389713	-0.398100	-0.000110
C28	C	1.506698	-0.378245	-0.000099
C29	C	1.739299	-0.388956	-0.000093
C30	C	1.740651	-0.338536	-0.000079
C31	C	1.625026	-0.307970	-0.000076
C32	C	1.508050	-0.327825	-0.000086
C33	C	1.274081	-0.367531	-0.000122
C34	C	1.275444	-0.317105	-0.000123
C35	C	1.392430	-0.297251	-0.000112
C36	C	1.393777	-0.246839	-0.000069
N37	N	1.510755	-0.226982	-0.000072
C38	C	1.626380	-0.257547	-0.000076
C39	C	1.381466	-0.705684	-0.000123
C40	C	1.380113	-0.756107	-0.000123
C41	C	1.612725	-0.766816	-0.000128
C42	C	1.614077	-0.716392	-0.000118
C43	C	1.498444	-0.685827	-0.000126
C44	C	1.629210	-0.151660	-0.000047
C45	C	1.630551	-0.101235	-0.000027
C46	C	1.397940	-0.090531	-0.000030
C47	C	1.396597	-0.140951	-0.000041
C48	C	1.512243	-0.171516	-0.000055
O49	O	1.295623	-0.216170	-0.000018
O50	O	1.725987	-0.236020	-0.000096
C51	C	1.620971	-0.459231	-0.000116
C52	C	1.503995	-0.479086	-0.000126
C53	C	1.388371	-0.448521	-0.000122
C54	C	1.502642	-0.529509	-0.000125
C55	C	1.618266	-0.560075	-0.000129
C56	C	1.735244	-0.540217	-0.000133
C57	C	1.736596	-0.489797	-0.000119
C58	C	1.271393	-0.468378	-0.000118
C59	C	1.270050	-0.518799	-0.000130
C60	C	1.385675	-0.549364	-0.000133
C61	C	1.738584	0.068603	-0.000077
C62	C	1.880152	0.070043	-0.000090
C63	C	1.494279	0.159663	-0.000104
C64	C	1.495737	0.213327	-0.000126
N65	N	1.505318	0.071336	0.352972
N66	N	1.505356	0.071319	-0.353108
C67	C	1.414055	0.105331	0.450266
C68	C	1.529124	0.115106	0.549673
C69	C	1.390298	0.061565	0.549692
C70	C	1.620444	0.081133	0.450190
C71	C	1.481542	0.027573	0.450200
C72	C	1.596694	0.037330	0.549562
H73	H	0.894801	0.155294	-0.000231
Cl74	Cl	1.716000	-0.007069	0.616466
H75	H	1.069437	0.114542	-0.225810
H76	H	1.069342	0.114546	0.225587
Cl77	Cl	1.758081	-0.805250	-0.000140
Cl78	Cl	0.925209	0.017386	-0.282317
H79	H	0.941200	0.028152	0.225621
Cl80	Cl	1.777630	-0.076279	-0.000016
Cl81	Cl	1.450397	-0.029538	0.382680
H82	H	1.293011	0.053308	0.593403
Cl83	Cl	1.774595	-0.190076	-0.000061
H84	H	1.115608	-0.012687	-0.000181
H85	H	1.835913	-0.322375	-0.000076
Cl86	Cl	1.126020	-0.429960	-0.000117
Cl87	Cl	1.560215	0.172233	0.617135
H88	H	1.833460	-0.413838	-0.000101
H89	H	1.301338	-0.157118	-0.000009
Cl90	Cl	1.770681	0.093948	0.383003
H91	H	1.284851	-0.772268	-0.000106
H92	H	1.709337	-0.700230	-0.000109
H93	H	1.287299	-0.680802	-0.000130
H94	H	1.178819	-0.383687	-0.000140
H95	H	1.181280	-0.292221	-0.000133
H96	H	1.303801	-0.065635	-0.000022
H97	H	1.831858	-0.473636	-0.000110
Cl98	Cl	1.880599	-0.578652	-0.000130
H99	H	1.336947	0.134106	0.406668
Cl100	Cl	1.122967	-0.543752	-0.000137
