data_functionalizedCrystal
_audit_creation_method	'MofGen! by Chris Wilmer'
_symmetry_space_group_name_H-M	'P1'
_symmetry_Int_Tables_number	1
_symmetry_cell_setting	triclinic
loop_
_symmetry_equiv_pos_as_xyz
  x,y,z
_cell_length_a	12.759394
_cell_length_b	19.077105
_cell_length_c	19.076919
_cell_angle_alpha	90.076224
_cell_angle_beta	92.274121
_cell_angle_gamma	87.711291
loop_
_atom_site_label
_atom_site_type_symbol
_atom_site_fract_x
_atom_site_fract_y
_atom_site_fract_z
Zn1	Zn	-0.508276	1.058327	-0.440432
Zn2	Zn	-0.008276	1.558327	0.059568
Zn3	Zn	-0.677203	1.062986	-0.322930
Zn4	Zn	-0.177203	1.562986	0.177070
Zn5	Zn	-0.494202	0.945543	-0.318225
Zn6	Zn	0.005798	1.445543	0.181775
Zn7	Zn	-0.676569	0.940807	-0.435682
Zn8	Zn	-0.176569	1.440807	0.064318
O9	O	-0.589062	1.001916	-0.379317
O10	O	-0.089062	1.501916	0.120683
O11	O	-0.536840	1.157277	-0.428802
O12	O	-0.036840	1.657277	0.071198
O13	O	-0.647302	1.051338	-0.223974
O14	O	-0.147302	1.551338	0.276026
O15	O	-0.349050	0.960536	-0.334454
O16	O	0.150950	1.460536	0.165546
O17	O	-0.660950	1.160700	-0.342473
O18	O	-0.160950	1.660700	0.157527
O19	O	-0.359391	1.043398	-0.424239
O20	O	0.140609	1.543398	0.075761
O21	O	-0.512852	0.965054	-0.220517
O22	O	-0.012852	1.465054	0.279483
O23	O	-0.512238	0.846582	-0.329849
O24	O	-0.012238	1.346582	0.170151
O25	O	-0.659870	0.952465	-0.534644
O26	O	-0.159870	1.452465	-0.034644
O27	O	-0.646222	0.843103	-0.416144
O28	O	-0.146222	1.343103	0.083856
O29	O	-0.536225	1.038806	-0.538133
O30	O	-0.036225	1.538806	-0.038133
O31	O	-0.824137	1.046746	-0.337868
O32	O	-0.324137	1.546746	0.162132
O33	O	-0.823671	0.956982	-0.420707
O34	O	-0.323671	1.456982	0.079293
C35	C	-0.577635	0.819346	-0.371971
C36	C	-0.077635	1.319346	0.128029
C37	C	-0.572772	0.741242	-0.368845
C38	C	-0.072772	1.241242	0.131155
C39	C	-0.640344	0.702757	-0.412235
C40	C	-0.140344	1.202757	0.087765
C41	C	-0.635761	0.629370	-0.409302
C42	C	-0.135761	1.129370	0.090698
C43	C	-0.563612	0.594467	-0.362974
C44	C	-0.063612	1.094467	0.137026
C45	C	-0.496033	0.632957	-0.319582
C46	C	0.003967	1.132957	0.180418
C47	C	-0.500611	0.706343	-0.322520
C48	C	-0.000611	1.206343	0.177480
C49	C	-0.542424	0.375178	-0.349381
C50	C	-0.042424	0.875178	0.150619
C51	C	-0.537853	0.301786	-0.346444
C52	C	-0.037853	0.801786	0.153556
C53	C	-0.677581	0.298204	-0.436166
C54	C	-0.177581	0.798204	0.063834
C55	C	-0.682157	0.371592	-0.439096
C56	C	-0.182157	0.871592	0.060904
C57	C	-0.614574	0.410075	-0.395707
C58	C	-0.114574	0.910075	0.104293
N59	N	-0.558928	0.519453	-0.359972
N60	N	-0.058928	1.019453	0.140028
N61	N	-0.619253	0.485088	-0.398713
N62	N	-0.119253	0.985088	0.101287
C63	C	-0.862026	1.001874	-0.379298
C64	C	-0.362026	1.501874	0.120702
C65	C	-0.978807	1.001920	-0.379316
C66	C	-0.478807	1.501920	0.120684
C67	C	-0.979246	1.095456	-0.293126
C68	C	-0.479246	1.595456	0.206874
C69	C	-1.034328	1.142242	-0.250040
C70	C	-0.534328	1.642242	0.249960
C71	C	-1.144054	1.142282	-0.250061
C72	C	-0.644054	1.642282	0.249939
C73	C	-1.198699	1.095533	-0.293174
C74	C	-0.698699	1.595533	0.206826
C75	C	-1.143617	1.048747	-0.336260
C76	C	-0.643617	1.548747	0.163740
C77	C	-1.033889	1.048710	-0.336233
C78	C	-0.533889	1.548710	0.163767
C79	C	-1.143178	0.955216	-0.422453
C80	C	-0.643178	1.455216	0.077547
C81	C	-1.033453	0.955171	-0.422429
C82	C	-0.533453	1.455171	0.077571
C83	C	-1.197824	0.908467	-0.465566
C84	C	-0.697824	1.408467	0.034434
C85	C	-1.142741	0.861676	-0.508649
C86	C	-0.642741	1.361676	-0.008649
C87	C	-1.033009	0.861637	-0.508626
C88	C	-0.533009	1.361637	-0.008626
C89	C	-0.978370	0.908385	-0.465515
C90	C	-0.478370	1.408385	0.034485
C91	C	-0.315035	1.001976	-0.379352
C92	C	0.184965	1.501976	0.120648
C93	C	-0.198260	1.002002	-0.379367
C94	C	0.301740	1.502002	0.120633
C95	C	-0.600535	1.185198	-0.386692
C96	C	-0.100535	1.685198	0.113308
C97	C	-0.605424	1.263302	-0.389835
C98	C	-0.105424	1.763302	0.110165
C99	C	-0.599547	0.994587	-0.562597
C100	C	-0.099547	1.494587	-0.062597
C101	C	-0.604015	0.991465	-0.640701
C102	C	-0.104015	1.491465	-0.140701
C103	C	-0.541742	1.034948	-0.679212
C104	C	-0.041742	1.534948	-0.179212
C105	C	-0.545935	1.032006	-0.752598
C106	C	-0.045935	1.532006	-0.252598
C107	C	-0.612408	0.985582	-0.787471
C108	C	-0.112408	1.485582	-0.287471
C109	C	-0.674683	0.942093	-0.748955
C110	C	-0.174683	1.442093	-0.248955
C111	C	-0.670484	0.945033	-0.675570
C112	C	-0.170484	1.445033	-0.175570
C113	C	-0.631866	0.971966	-1.006753
C114	C	-0.131866	1.471966	-0.506753
C115	C	-0.636063	0.969031	-1.080143
C116	C	-0.136063	1.469031	-0.580143
C117	C	-0.507313	1.058943	-1.083780
C118	C	-0.007313	1.558943	-0.583780
C119	C	-0.503124	1.061881	-1.010394
C120	C	-0.003124	1.561881	-0.510394
C121	C	-0.565395	1.018390	-0.971884
C122	C	-0.065395	1.518390	-0.471884
N123	N	-0.616698	0.982574	-0.862484
N124	N	-0.116698	1.482574	-0.362484
N125	N	-0.561098	1.021395	-0.896873
N126	N	-0.061098	1.521395	-0.396873
C127	C	-0.578545	1.009256	-0.196751
C128	C	-0.078545	1.509256	0.303249
C129	C	-0.573790	1.012515	-0.118654
C130	C	-0.073790	1.512515	0.381346
H131	H	-0.740911	0.400005	-0.476820
H132	H	-0.240911	0.900005	0.023180
H133	H	-0.487401	0.406502	-0.314044
H134	H	0.012599	0.906502	0.185956
C135	C	-0.429988	1.112944	-0.972038
C136	C	0.070012	1.612944	-0.472038
N137	N	-0.374899	1.151404	-0.943149
N138	N	0.125101	1.651404	-0.443149
C139	C	-0.751909	0.255867	-0.483896
C140	C	-0.251909	0.755867	0.016104
N141	N	-0.807892	0.223979	-0.519851
N142	N	-0.307892	0.723979	-0.019851
C143	C	-0.416665	0.594562	-0.268622
C144	C	0.083335	1.094562	0.231378
N145	N	-0.356885	0.565643	-0.230236
N146	N	0.143115	1.065643	0.269764
H147	H	-0.487616	1.072754	-0.650823
H148	H	0.012384	1.572754	-0.150823
H149	H	-1.187243	0.823620	-0.543752
H150	H	-0.687243	1.323620	-0.043752
C151	C	-0.972428	0.810173	-0.556031
C152	C	-0.472428	1.310173	-0.056031
N153	N	-0.926803	0.771410	-0.591738
N154	N	-0.426803	1.271410	-0.091738
C155	C	-0.709188	0.917957	-1.118502
C156	C	-0.209188	1.417957	-0.618502
N157	N	-0.764264	0.879491	-1.147395
N158	N	-0.264264	1.379491	-0.647395
H159	H	-0.495228	1.067416	-0.783950
H160	H	0.004772	1.567416	-0.283950
H161	H	-0.445582	0.737676	-0.287190
H162	H	0.054418	1.237676	0.212810
C163	C	-1.204646	1.193748	-0.202664
C164	C	-0.704646	1.693748	0.297336
N165	N	-1.250283	1.232512	-0.166964
N166	N	-0.750283	1.732512	0.333036
C167	C	-0.719715	0.741143	-0.463200
C168	C	-0.219715	1.241143	0.036800
N169	N	-0.779497	0.770053	-0.501590
N170	N	-0.279497	1.270053	-0.001590
C171	C	-0.858545	1.095409	-0.293093
C172	C	-0.358545	1.595409	0.206907
N173	N	-0.767631	1.095376	-0.293066
N174	N	-0.267631	1.595376	0.206934
C175	C	-0.458478	0.263395	-0.295479
C176	C	0.041522	0.763395	0.204521
N177	N	-0.398697	0.234479	-0.257092
N178	N	0.101303	0.734479	0.242908
C179	C	-0.974210	1.193661	-0.202616
C180	C	-0.474210	1.693661	0.297384
N181	N	-0.928931	1.232391	-0.166896
N182	N	-0.428931	1.732391	0.333104
C183	C	-0.700363	0.924122	-0.964401
C184	C	-0.200363	1.424122	-0.464401
N185	N	-0.751957	0.888082	-0.932500
N186	N	-0.251957	1.388082	-0.432500
C187	C	-0.857670	0.908350	-0.465489
C188	C	-0.357670	1.408350	0.034511
N189	N	-0.766757	0.908328	-0.465471
N190	N	-0.266757	1.408328	0.034529
C191	C	-0.438806	1.106771	-1.126147
C192	C	0.061194	1.606771	-0.626147
N193	N	-0.387197	1.142794	-1.158057
N194	N	0.112803	1.642794	-0.658057
H195	H	-0.721182	0.909617	-0.644215
H196	H	-0.221182	1.409617	-0.144215
H197	H	-1.288044	1.095576	-0.293193
H198	H	-0.788044	1.595576	0.206807
H199	H	-1.287168	0.908506	-0.465583
H200	H	-0.787168	1.408506	0.034417
C201	C	-0.747794	0.891020	-0.787319
C202	C	-0.247794	1.391020	-0.287319
N203	N	-0.802862	0.852550	-0.816213
N204	N	-0.302862	1.352550	-0.316213
H205	H	-0.690786	0.598039	-0.444634
H206	H	-0.190786	1.098039	0.055366
