data_functionalizedCrystal
_audit_creation_method	'MofGen! by Chris Wilmer'
_symmetry_space_group_name_H-M	'P1'
_symmetry_Int_Tables_number	1
_symmetry_cell_setting	triclinic
loop_
_symmetry_equiv_pos_as_xyz
  x,y,z
_cell_length_a	31.640172
_cell_length_b	14.809374
_cell_length_c	14.809374
_cell_angle_alpha	88.612464
_cell_angle_beta	52.853732
_cell_angle_gamma	52.844782
loop_
_atom_site_label
_atom_site_type_symbol
_atom_site_fract_x
_atom_site_fract_y
_atom_site_fract_z
Zr1	Zr	0.361770	-0.010919	0.989756
O2	O	0.488616	-0.198708	0.802001
O3	O	0.261748	0.046645	1.047291
O4	O	0.375182	-0.171384	1.019999
O5	O	0.355248	0.191311	0.850846
O6	O	0.355248	-0.149826	1.191983
O7	O	0.375182	0.019321	0.829294
O8	O	0.152336	0.240188	1.240805
O9	O	0.558161	-0.198703	0.802025
O10	O	0.278077	0.087288	1.200205
O11	O	0.278077	0.199554	1.087940
O12	O	0.411631	-0.057147	1.055806
O13	O	0.411631	0.055118	0.943541
Zr14	Zr	0.298185	0.297768	1.298425
Zr15	Zr	0.329977	0.023464	1.264051
Zr16	Zr	0.329977	0.263385	1.024130
Zr17	Zr	0.472685	-0.010911	0.989794
Zr18	Zr	0.187269	0.297760	1.298387
O19	O	0.398206	0.240205	1.240889
O20	O	0.443411	-0.149820	1.192013
O21	O	0.443411	0.191317	0.850877
O22	O	0.171338	0.485557	1.486180
O23	O	0.216543	0.095533	1.437304
O24	O	0.216543	0.436669	1.096167
O25	O	0.304706	0.095539	1.437334
O26	O	0.284772	0.458234	1.268182
O27	O	0.304706	0.436675	1.096198
O28	O	0.284772	0.267529	1.458887
O29	O	0.532890	-0.171373	1.020053
O30	O	0.127065	0.458223	1.268128
O31	O	0.101794	0.485552	1.486156
O32	O	0.127065	0.267518	1.458833
O33	O	0.532890	0.019332	0.829348
O34	O	0.507619	0.046662	1.047376
O35	O	0.248324	0.343996	1.232374
O36	O	0.248324	0.231731	1.344640
O37	O	0.381878	0.087296	1.200241
O38	O	0.381878	0.199561	1.087975
C39	C	0.191239	0.143415	1.144043
C40	C	0.144152	0.143412	1.144027
C41	C	0.369745	0.100417	0.800989
C42	C	0.383242	0.085820	0.684543
C43	C	0.290210	0.486537	1.187087
C44	C	0.276713	0.602986	1.201680
C45	C	-0.147902	0.084838	1.202719
C46	C	-0.324901	0.084842	1.202745
O47	O	-0.347816	0.035056	1.252636
N48	N	-0.347029	0.143441	1.144142
C49	C	-0.324910	0.202051	1.085536
O50	O	-0.347800	0.251904	1.035703
C51	C	-0.147916	0.202054	1.085518
C52	C	-0.125783	0.143440	1.144114
C53	C	-0.125769	0.026230	1.261311
C54	C	-0.081519	0.026223	1.261297
C55	C	-0.059400	0.084825	1.202692
C56	C	-0.081533	0.143433	1.144100
C57	C	-0.125803	0.260671	1.026921
C58	C	-0.081553	0.260670	1.026925
C59	C	-0.059420	0.202056	1.085520
C60	C	-0.015164	0.202028	1.085481
N61	N	0.006965	0.143429	1.144084
C62	C	-0.015153	0.084828	1.202690
C63	C	-0.417832	0.202042	1.085547
C64	C	-0.462079	0.202039	1.085549
C65	C	-0.462068	0.084833	1.202761
C66	C	-0.417816	0.084828	1.202750
C67	C	-0.395704	0.143444	1.144150
C68	C	0.077777	0.084817	1.202656
C69	C	0.122034	0.084810	1.202632
C70	C	0.122016	0.202022	1.085426
C71	C	0.077766	0.202023	1.085444
C72	C	0.055645	0.143419	1.144067
O73	O	0.007772	0.251801	1.035630
O74	O	0.007729	0.035007	1.252541
C75	C	-0.192152	0.084845	1.202732
C76	C	-0.214285	0.143454	1.144141
C77	C	-0.192166	0.202055	1.085535
C78	C	-0.258532	0.143451	1.144143
C79	C	-0.280650	0.084849	1.202748
C80	C	-0.258521	0.026251	1.261351
C81	C	-0.214271	0.026244	1.261338
C82	C	-0.214295	0.260653	1.026932
C83	C	-0.258545	0.260654	1.026949
C84	C	-0.280663	0.202053	1.085555
C85	C	0.468716	0.143434	1.144138
C86	C	0.515802	0.143438	1.144154
C87	C	0.369745	-0.199688	1.101093
C88	C	0.383242	-0.316137	1.086500
C89	C	0.336947	0.583253	1.136554
C90	C	0.322999	0.703608	1.151635
C91	C	0.323007	0.150963	0.704260
C92	C	0.336956	0.135878	0.583909
C93	C	0.290210	0.186433	1.487192
C94	C	0.276713	0.201029	1.603637
C95	C	0.151471	0.186423	1.487144
C96	C	0.090888	0.201016	1.603573
C97	C	0.151471	0.486527	1.187040
C98	C	0.090888	0.602973	1.201616
C99	C	0.111704	0.529535	1.530141
C100	C	0.037623	0.660577	1.661163
C101	C	0.548251	-0.242686	0.758039
C102	C	0.622331	-0.373728	0.627017
C103	C	0.508483	0.100427	0.801036
C104	C	0.569067	0.085833	0.684607
C105	C	0.508483	-0.199678	1.101141
C106	C	0.569067	-0.316124	1.086564
C107	C	0.077970	0.132460	1.582855
C108	C	0.021055	0.146145	1.692239
C109	C	-0.022943	0.228394	1.822341
C110	C	-0.010021	0.296952	1.843057
C111	C	0.046897	0.283259	1.733674
C112	C	0.046905	0.733066	1.283856
C113	C	-0.010014	0.842489	1.297549
C114	C	-0.022953	0.821817	1.229008
C115	C	0.021037	0.691710	1.146758
C116	C	0.077959	0.582289	1.133059
C117	C	0.002833	0.663516	1.781305
C118	C	-0.066767	0.786635	1.904424
C119	C	-0.101578	0.906814	1.907397
C120	C	-0.066782	0.903871	1.787242
C121	C	0.002820	0.780753	1.664126
C122	C	0.657127	-0.376667	0.506875
C123	C	0.726740	-0.499786	0.383757
C124	C	0.761554	-0.619964	0.380784
C125	C	0.726755	-0.617021	0.500939
C126	C	0.657146	-0.493904	0.624054
C127	C	0.581991	0.154378	0.705324
C128	C	0.638921	0.140663	0.595936
C129	C	0.682922	0.058410	0.465834
C130	C	0.669996	-0.010142	0.445118
C131	C	0.613071	0.003566	0.554504
C132	C	0.581985	-0.295409	1.155123
C133	C	0.638900	-0.404808	1.141453
C134	C	0.682899	-0.534923	1.059216
C135	C	0.669976	-0.555635	0.990655
C136	C	0.613058	-0.446236	1.004333
H137	H	0.140055	0.037075	1.250345
H138	H	0.546167	0.221364	0.811252
Cl139	Cl	0.596834	-0.472303	0.918119
H140	H	-0.095136	1.001737	1.789683
Cl141	Cl	-0.065307	1.006038	1.400959
Cl142	Cl	0.004760	0.665745	1.060604
H143	H	0.057431	0.749923	1.339674
Cl144	Cl	0.133242	0.418747	1.029671
Cl145	Cl	0.227439	0.254341	0.867884
Cl146	Cl	0.432514	0.419605	1.033216
H147	H	0.818235	-0.720205	0.280526
H148	H	0.031167	0.565674	1.778910
H149	H	-0.069304	0.910927	1.240175
H150	H	-0.045852	0.363918	1.949001
Cl151	Cl	0.227431	0.867254	1.254957
H152	H	0.398855	0.068938	0.477929
H153	H	0.705830	-0.077113	0.339174
H154	H	0.729242	-0.623991	1.048090
H155	H	0.628817	-0.491526	0.721875
H156	H	-0.276557	0.308379	0.979221
Cl157	Cl	-0.110499	0.790304	2.055456
H158	H	-0.158252	1.007055	2.007655
H159	H	0.031138	0.778378	1.566307
Cl160	Cl	0.478812	0.520217	0.983166
H161	H	0.649433	0.196494	0.612830
H162	H	0.705808	-0.661589	0.923698
H163	H	0.628787	-0.278824	0.509271
Cl164	Cl	0.133276	0.029046	1.419309
H165	H	0.059770	0.037098	1.250394
H166	H	0.214812	0.267978	0.709618
H167	H	0.445137	0.018885	0.578564
H168	H	0.214819	0.708981	1.268595
H169	H	-0.196293	0.308379	0.979212
H170	H	0.602552	-0.052250	0.537617
Cl171	Cl	0.770471	-0.503454	0.232724
H172	H	0.649413	-0.387918	1.197285
Cl173	Cl	0.526681	-0.131848	1.258519
H174	H	0.755110	-0.714885	0.498502
H175	H	-0.063503	-0.021500	1.309015
H176	H	-0.143777	-0.021488	1.309040
H177	H	0.010543	0.090314	1.675346
Cl178	Cl	0.063123	0.369465	1.759745
H179	H	-0.399798	0.037100	1.250464
H180	H	-0.069287	0.239533	1.911397
H181	H	-0.480083	0.037115	1.250477
H182	H	-0.480086	0.249750	1.037816
H183	H	-0.399834	0.249778	1.037826
H184	H	-0.063550	0.308401	0.979203
Cl185	Cl	-0.153619	0.334369	0.953259
H186	H	0.059755	0.249732	1.037711
H187	H	0.140035	0.249729	1.037707
H188	H	-0.276534	-0.021471	1.309064
Cl189	Cl	-0.186454	-0.047446	1.335006
H190	H	0.729271	0.047260	0.376776
