data_functionalizedCrystal
_audit_creation_method	'MofGen! by Chris Wilmer'
_symmetry_space_group_name_H-M	'P1'
_symmetry_Int_Tables_number	1
_symmetry_cell_setting	triclinic
loop_
_symmetry_equiv_pos_as_xyz
  x,y,z
_cell_length_a	14.971506
_cell_length_b	15.995292
_cell_length_c	14.048226
_cell_angle_alpha	89.996759
_cell_angle_beta	89.993237
_cell_angle_gamma	83.545502
loop_
_atom_site_label
_atom_site_type_symbol
_atom_site_fract_x
_atom_site_fract_y
_atom_site_fract_z
O1	O	1.186787	0.109200	-0.079160
O2	O	1.686787	0.609200	0.420840
O3	O	0.926371	0.122249	-0.079160
O4	O	1.426371	0.622249	0.420840
O5	O	1.063725	-0.006159	-0.079162
O6	O	1.563725	0.493841	0.420838
O7	O	1.049433	0.237608	-0.079159
O8	O	1.549433	0.737608	0.420841
O9	O	1.063708	-0.006166	0.079160
O10	O	1.563708	0.493834	0.579160
O11	O	0.926355	0.122242	0.079161
O12	O	1.426355	0.622242	0.579161
O13	O	1.186770	0.109192	0.079161
O14	O	1.686770	0.609192	0.579161
Zn15	Zn	1.056560	0.115716	0.104298
Zn16	Zn	1.556560	0.615716	0.604298
Zn17	Zn	1.056582	0.115726	-0.104297
Zn18	Zn	1.556582	0.615726	0.395703
O19	O	1.049417	0.237600	0.079163
O20	O	1.549417	0.737600	0.579163
C21	C	1.063135	-0.037359	-0.000003
C22	C	1.563135	0.462641	0.499997
C23	C	1.061391	-0.130314	-0.000011
C24	C	1.561391	0.369686	0.499989
C25	C	0.893039	0.121659	0.000001
C26	C	1.393039	0.621659	0.500001
C27	C	0.793746	0.119901	0.000000
C28	C	1.293746	0.619901	0.500000
C29	C	1.054980	-0.468059	-0.000002
C30	C	1.554980	0.031941	0.499998
C31	C	1.154118	-0.444641	0.000352
C32	C	1.654118	0.055359	0.500352
C33	C	1.156003	-0.347963	-0.000009
C34	C	1.656003	0.152037	0.499991
C35	C	1.058161	-0.300499	-0.000006
C36	C	1.558161	0.199501	0.499994
C37	C	1.008606	-0.329649	-0.090412
C38	C	1.508606	0.170351	0.409588
C39	C	1.007413	-0.426441	-0.090484
C40	C	1.507413	0.073559	0.409516
C41	C	1.005370	-0.426309	0.089557
C42	C	1.505370	0.073691	0.589557
C43	C	1.009043	-0.329812	0.090748
C44	C	1.509043	0.170188	0.590748
C45	C	1.059954	-0.205801	-0.000011
C46	C	1.559954	0.294199	0.499989
C47	C	1.053185	-0.562757	-0.000003
C48	C	1.553185	-0.062757	0.499997
C49	C	0.355369	0.188630	-0.000008
C50	C	0.855369	0.688630	0.499992
C51	C	0.448667	0.190275	-0.000013
C52	C	0.948667	0.690275	0.499987
C53	C	0.505990	0.114830	-0.000009
C54	C	1.005990	0.614830	0.499991
C55	C	0.470011	0.037735	-0.000011
C56	C	0.970011	0.537735	0.499989
C57	C	0.376715	0.036091	-0.000014
C58	C	0.876715	0.536091	0.499986
C59	C	0.664469	0.041168	-0.000003
C60	C	1.164469	0.541168	0.499997
C61	C	0.757772	0.042812	0.000001
C62	C	1.257772	0.542812	0.500001
C63	C	0.736422	0.195352	-0.000002
C64	C	1.236422	0.695352	0.499998
C65	C	0.643126	0.193708	-0.000005
C66	C	1.143126	0.693708	0.499995
C67	C	0.607153	0.116612	-0.000005
C68	C	1.107153	0.616612	0.499995
C69	C	1.220102	0.109783	-0.000002
C70	C	1.720102	0.609783	0.499998
C71	C	1.319396	0.111541	-0.000008
C72	C	1.819396	0.611541	0.499992
N73	N	1.056552	0.115708	0.246659
N74	N	1.556552	0.615708	0.746659
C75	C	1.050007	0.268800	0.000002
C76	C	1.550007	0.768800	0.500002
C77	C	1.051751	0.361755	0.000003
C78	C	1.551751	0.861755	0.500003
N79	N	1.056597	0.115727	-0.246658
N80	N	1.556597	0.615727	0.253342
C81	C	1.117391	0.058873	0.296476
C82	C	1.617391	0.558873	0.796476
C83	C	1.117397	0.058872	0.396134
C84	C	1.617397	0.558872	0.896134
C85	C	1.056567	0.115712	0.445972
C86	C	1.556567	0.615712	0.945972
C87	C	0.995722	0.172551	0.396148
C88	C	1.495722	0.672551	0.896148
C89	C	0.995712	0.172546	0.296492
C90	C	1.495712	0.672546	0.796492
C91	C	0.995747	0.172557	0.603862
C92	C	1.495747	0.672557	1.103862
C93	C	0.995758	0.172562	0.703525
C94	C	1.495758	0.672562	1.203525
C95	C	1.117432	0.058883	0.703504
C96	C	1.617432	0.558883	1.203504
C97	C	1.117423	0.058879	0.603848
C98	C	1.617423	0.558879	1.103848
C99	C	1.056578	0.115718	0.554031
C100	C	1.556578	0.615718	1.054031
H101	H	1.194813	-0.328899	0.064797
H102	H	1.694813	0.171101	0.564797
Br103	Br	1.065983	-0.296153	-0.202557
Br104	Br	1.565983	0.203847	0.297443
Br105	Br	0.888605	-0.276662	-0.096020
Br106	Br	1.388605	0.223338	0.403980
H107	H	1.192125	-0.473615	-0.064119
H108	H	1.692125	0.026385	0.435881
H109	H	0.596455	0.255141	-0.000001
H110	H	1.096455	0.755141	0.499999
H111	H	0.946198	0.218839	0.563304
H112	H	1.446198	0.718839	1.063304
Br113	Br	0.497485	0.294900	-0.000023
Br114	Br	0.997485	0.794900	0.499977
Br115	Br	0.785240	0.299981	0.000014
Br116	Br	1.285240	0.799981	0.500014
H117	H	0.308703	0.250066	-0.000004
H118	H	0.808703	0.750066	0.499996
Br119	Br	1.199957	-0.018266	0.228849
Br120	Br	1.699957	0.481734	0.728849
H121	H	0.804443	-0.018622	-0.000004
H122	H	1.304443	0.481378	0.499996
Br123	Br	1.199962	-0.018266	0.463746
Br124	Br	1.699962	0.481734	0.963746
Br125	Br	0.913200	0.249705	0.771156
Br126	Br	1.413200	0.749705	1.271156
Br127	Br	1.217803	-0.491238	0.108416
Br128	Br	1.717803	0.008762	0.608416
H129	H	1.195056	-0.329514	-0.064929
H130	H	1.695056	0.170486	0.435071
H131	H	1.041746	-0.453217	-0.158066
H132	H	1.541746	0.046783	0.341934
Br133	Br	0.913158	0.249686	0.463782
Br134	Br	1.413158	0.749686	0.963782
H135	H	1.166959	0.012600	0.563270
H136	H	1.666959	0.512600	1.063270
H137	H	0.635184	-0.021611	-0.000009
H138	H	1.135184	0.478389	0.499991
H139	H	0.516691	-0.023693	-0.000014
H140	H	1.016691	0.476307	0.499986
H141	H	0.946169	0.218827	0.255932
H142	H	1.446169	0.718827	0.755932
Br143	Br	0.327893	-0.068534	-0.000017
Br144	Br	0.827893	0.431466	0.499983
Br145	Br	0.886266	-0.450828	-0.097325
Br146	Br	1.386266	0.049172	0.402675
H147	H	1.166974	0.012602	0.744071
H148	H	1.666974	0.512602	1.244071
H149	H	1.036583	-0.454367	0.158085
H150	H	1.536583	0.045633	0.658085
H151	H	0.937628	-0.296920	0.096210
H152	H	1.437628	0.203080	0.596210
Br153	Br	1.069176	-0.298804	0.202227
Br154	Br	1.569176	0.201196	0.702227
H155	H	0.932396	-0.440377	0.090168
H156	H	1.432396	0.059623	0.590168
