data_functionalizedCrystal
_audit_creation_method	'MofGen! by Chris Wilmer'
_symmetry_space_group_name_H-M	'P1'
_symmetry_Int_Tables_number	1
_symmetry_cell_setting	triclinic
loop_
_symmetry_equiv_pos_as_xyz
  x,y,z
_cell_length_a	19.288867
_cell_length_b	15.072220
_cell_length_c	19.288857
_cell_angle_alpha	90.003306
_cell_angle_beta	83.135089
_cell_angle_gamma	90.010994
loop_
_atom_site_label
_atom_site_type_symbol
_atom_site_fract_x
_atom_site_fract_y
_atom_site_fract_z
O1	O	0.921354	0.073756	0.086650
O2	O	0.719093	0.073765	0.098337
O3	O	0.826070	0.073749	-0.008637
O4	O	0.814376	0.073771	0.193624
O5	O	0.826044	-0.073816	-0.008631
O6	O	0.719066	-0.073800	0.098343
O7	O	0.921327	-0.073810	0.086656
Zn8	Zn	0.820193	-0.097234	0.092501
Zn9	Zn	0.820227	0.097189	0.092493
O10	O	0.814350	-0.073794	0.193630
C11	C	0.693203	-0.000017	0.097964
C12	C	0.616100	-0.000014	0.096834
N13	N	0.820174	-0.229923	0.092506
C14	C	0.060549	0.080413	0.088695
C15	C	0.132996	0.080416	0.089752
C16	C	0.169211	-0.000021	0.090287
C17	C	0.132974	-0.080468	0.089747
C18	C	0.060529	-0.080469	0.088683
C19	C	0.278526	-0.061642	0.132657
C20	C	0.350969	-0.061638	0.133726
C21	C	0.392656	-0.000021	0.093566
C22	C	0.361890	0.061606	0.052347
C23	C	0.289445	0.061605	0.051283
C24	C	0.247765	-0.000029	0.091441
C25	C	0.507441	0.080425	0.095248
C26	C	0.579890	0.080425	0.096301
C27	C	0.579865	-0.080462	0.096303
C28	C	0.507418	-0.080460	0.095243
C29	C	0.471210	-0.000014	0.094719
C30	C	0.820226	-0.589124	0.092490
C31	C	0.762793	-0.551509	0.149539
C32	C	0.762924	-0.448683	0.149746
C33	C	0.820200	-0.410920	0.092498
C34	C	0.892624	-0.448213	0.108101
C35	C	0.892302	-0.551071	0.108506
C36	C	0.805881	-0.551232	0.019667
C37	C	0.804217	-0.448368	0.020158
C38	C	0.820189	-0.310207	0.092501
C39	C	0.820241	-0.689838	0.092488
C40	C	0.947217	-0.000026	0.087029
C41	C	1.024320	-0.000023	0.088159
N42	N	0.820252	0.229878	0.092482
C43	C	0.825682	-0.000034	-0.034511
C44	C	0.824555	-0.000037	-0.111614
C45	C	0.824043	0.080401	-0.147828
C46	C	0.822975	0.080408	-0.220274
C47	C	0.822431	-0.000028	-0.256506
C48	C	0.822939	-0.080476	-0.220282
C49	C	0.824001	-0.080481	-0.147837
C50	C	0.861422	-0.061648	-0.376734
C51	C	0.860365	-0.061641	-0.449179
C52	C	0.819154	-0.000018	-0.479951
C53	C	0.779009	0.061612	-0.438271
C54	C	0.780071	0.061608	-0.365826
C55	C	0.821280	-0.000032	-0.335061
C56	C	0.817482	0.080433	-0.594719
C57	C	0.816409	0.080436	-0.667166
C58	C	0.816381	-0.080450	-0.667174
C59	C	0.817447	-0.080451	-0.594727
C60	C	0.818001	-0.000007	-0.558505
C61	C	0.814738	-0.000009	0.219504
C62	C	0.815865	-0.000000	0.296608
H63	H	0.162499	0.145919	0.090192
C64	C	0.232676	-0.129421	0.176840
H65	H	0.261372	-0.166112	0.201549
H66	H	0.208337	-0.165064	0.147099
H67	H	0.200039	-0.098894	0.209140
H68	H	0.936373	-0.423750	0.067645
H69	H	0.894980	-0.111836	-0.351686
H70	H	0.477959	0.145928	0.094819
C71	C	0.857074	-0.413651	-0.039861
H72	H	0.846156	-0.437326	-0.082899
H73	H	0.902827	-0.431478	-0.032384
H74	H	0.854842	-0.350725	-0.041334
C75	C	0.818084	0.168916	-0.554871
H76	H	0.817615	0.216824	-0.586816
H77	H	0.858996	0.172258	-0.532036
H78	H	0.777998	0.172258	-0.521183
H79	H	0.708777	-0.576269	0.140432
H80	H	0.376011	-0.111800	0.167306
H81	H	0.609387	0.145928	0.096732
C82	C	0.732250	-0.415445	0.004146
H83	H	0.722881	-0.438323	-0.039677
H84	H	0.732180	-0.352452	0.002587
H85	H	0.697287	-0.435260	0.039648
H86	H	0.771802	-0.577342	0.203280
C87	C	0.467528	-0.168938	0.094901
H88	H	0.419188	-0.157418	0.094258
H89	H	0.474049	-0.201792	0.135645
H90	H	0.484724	-0.202186	0.054646
C91	C	0.690178	-0.414615	0.137282
H92	H	0.690158	-0.351583	0.137403
H93	H	0.656337	-0.435748	0.173326
H94	H	0.679160	-0.435488	0.093431
C95	C	0.735914	0.129389	-0.319977
H96	H	0.742455	0.120562	-0.272426
H97	H	0.687997	0.121639	-0.325453
H98	H	0.750060	0.187789	-0.333761
H99	H	0.904977	-0.575047	0.161608
H100	H	0.893055	-0.111820	-0.483110
C101	C	0.775270	-0.415418	0.222754
H102	H	0.780232	-0.464768	0.252400
H103	H	0.736637	-0.380436	0.241746
H104	H	0.816572	-0.380538	0.219158
C105	C	0.815781	-0.168931	-0.707016
H106	H	0.816235	-0.216839	-0.675068
H107	H	0.855860	-0.172279	-0.740704
H108	H	0.774863	-0.172268	-0.729848
H109	H	0.162464	-0.145961	0.090182
H110	H	0.031031	-0.145972	0.088249
H111	H	0.822554	0.145912	-0.249765
H112	H	0.905608	-0.422439	0.160597
C113	C	0.951749	-0.584688	0.054493
H114	H	0.975994	-0.535480	0.032405
H115	H	0.932759	-0.619721	0.020421
H116	H	0.983180	-0.619590	0.077340
C117	C	0.736088	-0.586303	-0.000663
H118	H	0.715042	-0.624387	0.035076
H119	H	0.744336	-0.618342	-0.043261
H120	H	0.705817	-0.537809	-0.006329
H121	H	0.264398	0.111782	0.017720
H122	H	0.847767	-0.575556	-0.022784
H123	H	0.817869	-0.145953	-0.565243
H124	H	0.824492	0.145905	-0.118340
C125	C	0.733673	0.129400	-0.472110
H126	H	0.738782	0.120571	-0.521224
H127	H	0.748162	0.187795	-0.462152
H128	H	0.686103	0.121639	-0.453839
H129	H	0.395830	0.111783	0.019647
C130	C	0.815843	0.168923	-0.707001
H131	H	0.816331	0.216828	-0.675051
H132	H	0.774932	0.172275	-0.729835
H133	H	0.855929	0.172262	-0.740689
C134	C	0.822343	-0.168953	-0.260134
H135	H	0.821645	-0.157431	-0.308468
H136	H	0.782015	-0.202004	-0.242840
H137	H	0.863012	-0.202006	-0.253686
C138	C	0.824565	-0.168964	-0.107997
H139	H	0.825272	-0.157445	-0.059662
H140	H	0.864879	-0.202022	-0.125296
H141	H	0.783881	-0.202007	-0.114444
C142	C	0.020721	0.168897	0.088112
H143	H	-0.027615	0.157379	0.087406
H144	H	0.038026	0.201949	0.047792
H145	H	0.027172	0.201946	0.128789
C146	C	0.619692	-0.168942	0.096891
H147	H	0.668027	-0.157422	0.097605
H148	H	0.613239	-0.201997	0.056222
H149	H	0.602389	-0.201989	0.137219
