data_functionalizedCrystal
_audit_creation_method	'MofGen! by Chris Wilmer'
_symmetry_space_group_name_H-M	'P1'
_symmetry_Int_Tables_number	1
_symmetry_cell_setting	triclinic
loop_
_symmetry_equiv_pos_as_xyz
  x,y,z
_cell_length_a	29.839134
_cell_length_b	29.839125
_cell_length_c	21.295417
_cell_angle_alpha	90.018987
_cell_angle_beta	89.974633
_cell_angle_gamma	89.978020
loop_
_atom_site_label
_atom_site_type_symbol
_atom_site_fract_x
_atom_site_fract_y
_atom_site_fract_z
Zn1	Zn	0.686754	-0.254121	0.250784
Zn2	Zn	0.936754	-0.004121	0.500784
Zn3	Zn	1.186754	0.245879	0.750784
Zn4	Zn	1.436754	0.495879	1.000784
Zn5	Zn	0.686700	-0.178989	0.356031
Zn6	Zn	0.936700	0.071011	0.606031
Zn7	Zn	1.186700	0.321011	0.856031
Zn8	Zn	1.436700	0.571011	1.106031
Zn9	Zn	0.611636	-0.178991	0.250770
Zn10	Zn	0.861636	0.071009	0.500770
Zn11	Zn	1.111636	0.321009	0.750770
Zn12	Zn	1.361636	0.571009	1.000770
Zn13	Zn	0.611599	-0.254078	0.356010
Zn14	Zn	0.861599	-0.004078	0.606010
Zn15	Zn	1.111599	0.245922	0.856010
Zn16	Zn	1.361599	0.495922	1.106010
O17	O	0.649172	-0.216545	0.303398
O18	O	0.899172	0.033455	0.553398
O19	O	1.149172	0.283455	0.803398
O20	O	1.399172	0.533455	1.053398
O21	O	0.749614	-0.244172	0.264760
O22	O	0.999614	0.005828	0.514760
O23	O	1.249614	0.255828	0.764760
O24	O	1.499614	0.505828	1.014760
O25	O	0.676736	-0.116122	0.342071
O26	O	0.926736	0.133878	0.592071
O27	O	1.176736	0.383878	0.842071
O28	O	1.426736	0.633878	1.092071
O29	O	0.621639	-0.188975	0.162682
O30	O	0.871639	0.061025	0.412682
O31	O	1.121639	0.311025	0.662682
O32	O	1.371639	0.561025	0.912682
O33	O	0.749574	-0.188973	0.342084
O34	O	0.999574	0.061027	0.592084
O35	O	1.249574	0.311027	0.842084
O36	O	1.499574	0.561027	1.092084
O37	O	0.676828	-0.244174	0.162693
O38	O	0.926828	0.005826	0.412693
O39	O	1.176828	0.255826	0.662693
O40	O	1.426828	0.505826	0.912693
O41	O	0.621587	-0.116123	0.264736
O42	O	0.871587	0.133877	0.514736
O43	O	1.121587	0.383877	0.764736
O44	O	1.371587	0.633877	1.014736
O45	O	0.548764	-0.188933	0.264716
O46	O	0.798764	0.061067	0.514716
O47	O	1.048764	0.311067	0.764716
O48	O	1.298764	0.561067	1.014716
O49	O	0.621575	-0.316951	0.342048
O50	O	0.871575	-0.066951	0.592048
O51	O	1.121575	0.183049	0.842048
O52	O	1.371575	0.433049	1.092048
O53	O	0.548736	-0.244100	0.342035
O54	O	0.798736	0.005900	0.592035
O55	O	1.048736	0.255900	0.842035
O56	O	1.298736	0.505900	1.092035
O57	O	0.676791	-0.316982	0.264739
O58	O	0.926791	-0.066982	0.514739
O59	O	1.176791	0.183018	0.764739
O60	O	1.426791	0.433018	1.014739
O61	O	0.676699	-0.188931	0.444117
O62	O	0.926699	0.061069	0.694117
O63	O	1.176699	0.311069	0.944117
O64	O	1.426699	0.561069	1.194117
O65	O	0.621523	-0.244098	0.444102
O66	O	0.871523	0.005902	0.694102
O67	O	1.121523	0.255902	0.944102
O68	O	1.371523	0.505902	1.194102
C69	C	0.532450	-0.216512	0.303372
C70	C	0.782450	0.033488	0.553372
C71	C	1.032450	0.283488	0.803372
C72	C	1.282450	0.533488	1.053372
C73	C	0.482515	-0.216509	0.303375
C74	C	0.732515	0.033491	0.553375
C75	C	0.982515	0.283491	0.803375
C76	C	1.232515	0.533491	1.053375
C77	C	0.172867	-0.245234	0.343718
C78	C	0.422867	0.004766	0.593718
C79	C	0.672867	0.254766	0.843718
C80	C	0.922867	0.504766	1.093718
C81	C	-0.014806	-0.245254	0.343736
C82	C	0.235194	0.004746	0.593736
C83	C	0.485194	0.254746	0.843736
C84	C	0.735194	0.504746	1.093736
O85	O	-0.039075	-0.269659	0.378007
O86	O	0.210925	-0.019659	0.628007
O87	O	0.460925	0.230341	0.878007
O88	O	0.710925	0.480341	1.128007
N89	N	-0.038270	-0.216578	0.303422
N90	N	0.211730	0.033422	0.553422
N91	N	0.461730	0.283422	0.803422
N92	N	0.711730	0.533422	1.053422
C93	C	-0.014812	-0.187898	0.263097
C94	C	0.235188	0.062102	0.513097
C95	C	0.485188	0.312102	0.763097
C96	C	0.735188	0.562102	1.013097
O97	O	-0.039076	-0.163511	0.228803
O98	O	0.210924	0.086489	0.478803
O99	O	0.460924	0.336489	0.728803
O100	O	0.710924	0.586489	0.978803
C101	C	0.172860	-0.187880	0.263077
C102	C	0.422860	0.062120	0.513077
C103	C	0.672860	0.312120	0.763077
C104	C	0.922860	0.562120	1.013077
C105	C	0.196321	-0.216555	0.303398
C106	C	0.446321	0.033445	0.553398
C107	C	0.696321	0.283445	0.803398
C108	C	0.946321	0.533445	1.053398
C109	C	0.196328	-0.273907	0.384036
C110	C	0.446328	-0.023907	0.634036
C111	C	0.696328	0.226093	0.884036
C112	C	0.946328	0.476093	1.134036
C113	C	0.243243	-0.273900	0.384033
C114	C	0.493243	-0.023900	0.634033
C115	C	0.743243	0.226100	0.884033
C116	C	0.993243	0.476100	1.134033
C117	C	0.266698	-0.245220	0.343713
C118	C	0.516698	0.004780	0.593713
C119	C	0.766698	0.254780	0.843713
C120	C	1.016698	0.504780	1.093713
C121	C	0.243236	-0.216548	0.303396
C122	C	0.493236	0.033452	0.553396
C123	C	0.743236	0.283452	0.803396
C124	C	0.993236	0.533452	1.053396
C125	C	0.196317	-0.159202	0.222749
C126	C	0.446317	0.090798	0.472749
C127	C	0.696317	0.340798	0.722749
C128	C	0.946317	0.590798	0.972749
C129	C	0.243238	-0.159201	0.222747
C130	C	0.493238	0.090799	0.472747
C131	C	0.743238	0.340799	0.722747
C132	C	0.993238	0.590799	0.972747
C133	C	0.266699	-0.187876	0.263068
C134	C	0.516699	0.062124	0.513068
C135	C	0.766699	0.312124	0.763068
C136	C	1.016699	0.562124	1.013068
C137	C	0.313606	-0.187861	0.263073
C138	C	0.563606	0.062139	0.513073
C139	C	0.813606	0.312139	0.763073
C140	C	1.063606	0.562139	1.013073
N141	N	0.337070	-0.216537	0.303387
N142	N	0.587070	0.033463	0.553387
N143	N	0.837070	0.283463	0.803387
N144	N	1.087070	0.533463	1.053387
C145	C	0.313616	-0.245217	0.343707
C146	C	0.563616	0.004783	0.593707
C147	C	0.813616	0.254783	0.843707
C148	C	1.063616	0.504783	1.093707
C149	C	-0.113343	-0.187908	0.263112
C150	C	0.136657	0.062092	0.513112
C151	C	0.386657	0.312092	0.763112
C152	C	0.636657	0.562092	1.013112
C153	C	-0.160261	-0.187912	0.263117
C154	C	0.089739	0.062088	0.513117
C155	C	0.339739	0.312088	0.763117
C156	C	0.589739	0.562088	1.013117
C157	C	-0.160251	-0.245269	0.343755
C158	C	0.089749	0.004731	0.593755
C159	C	0.339749	0.254731	0.843755
C160	C	0.589749	0.504731	1.093755
C161	C	-0.113333	-0.245263	0.343752
C162	C	0.136667	0.004737	0.593752
C163	C	0.386667	0.254737	0.843752
C164	C	0.636667	0.504737	1.093752
C165	C	-0.089879	-0.216584	0.303426
C166	C	0.160121	0.033416	0.553426
C167	C	0.410121	0.283416	0.803426
C168	C	0.660121	0.533416	1.053426
C169	C	0.412141	-0.245200	0.343700
C170	C	0.662141	0.004800	0.593700
C171	C	0.912141	0.254800	0.843700
C172	C	1.162141	0.504800	1.093700
C173	C	0.459061	-0.245189	0.343696
C174	C	0.709061	0.004811	0.593696
C175	C	0.959061	0.254811	0.843696
C176	C	1.209061	0.504811	1.093696
C177	C	0.459048	-0.187833	0.263055
C178	C	0.709048	0.062167	0.513055
C179	C	0.959048	0.312167	0.763055
C180	C	1.209048	0.562167	1.013055
C181	C	0.412132	-0.187842	0.263062
C182	C	0.662132	0.062158	0.513062
C183	C	0.912132	0.312158	0.763062
C184	C	1.162132	0.562158	1.013062
C185	C	0.388680	-0.216529	0.303386
C186	C	0.638680	0.033471	0.553386
C187	C	0.888680	0.283471	0.803386
C188	C	1.138680	0.533471	1.053386
O189	O	0.337904	-0.163473	0.228815
O190	O	0.587904	0.086527	0.478815
O191	O	0.837904	0.336527	0.728815
O192	O	1.087904	0.586527	0.978815
O193	O	0.337887	-0.269607	0.377986
O194	O	0.587887	-0.019607	0.627986
O195	O	0.837887	0.230393	0.877986
O196	O	1.087887	0.480393	1.127986
C197	C	0.125951	-0.245242	0.343721
C198	C	0.375951	0.004758	0.593721
C199	C	0.625951	0.254758	0.843721
C200	C	0.875951	0.504758	1.093721
C201	C	0.102490	-0.216569	0.303403
C202	C	0.352490	0.033431	0.553403
C203	C	0.602490	0.283431	0.803403
C204	C	0.852490	0.533431	1.053403
C205	C	0.125944	-0.187889	0.263083
C206	C	0.375944	0.062111	0.513083
C207	C	0.625944	0.312111	0.763083
C208	C	0.875944	0.562111	1.013083
C209	C	0.055572	-0.216573	0.303409
C210	C	0.305572	0.033427	0.553409
C211	C	0.555572	0.283427	0.803409
C212	C	0.805572	0.533427	1.053409
C213	C	0.032118	-0.245252	0.343729
C214	C	0.282118	0.004748	0.593729
C215	C	0.532118	0.254748	0.843729
C216	C	0.782118	0.504748	1.093729
C217	C	0.055582	-0.273928	0.384043
C218	C	0.305582	-0.023928	0.634043
C219	C	0.555582	0.226072	0.884043
C220	C	0.805582	0.476072	1.134043
C221	C	0.102497	-0.273921	0.384041
C222	C	0.352497	-0.023921	0.634041
C223	C	0.602497	0.226079	0.884041
C224	C	0.852497	0.476079	1.134041
C225	C	0.102481	-0.159213	0.222769
C226	C	0.352481	0.090787	0.472769
C227	C	0.602481	0.340787	0.722769
C228	C	0.852481	0.590787	0.972769
C229	C	0.055565	-0.159222	0.222775
C230	C	0.305565	0.090778	0.472775
C231	C	0.555565	0.340778	0.722775
C232	C	0.805565	0.590778	0.972775
C233	C	0.032111	-0.187902	0.263095
C234	C	0.282111	0.062098	0.513095
C235	C	0.532111	0.312098	0.763095
C236	C	0.782111	0.562098	1.013095
C237	C	0.649184	-0.333723	0.303393
C238	C	0.899184	-0.083723	0.553393
C239	C	1.149184	0.166277	0.803393
C240	C	1.399184	0.416277	1.053393
C241	C	0.649190	-0.383657	0.303390
C242	C	0.899190	-0.133657	0.553390
C243	C	1.149190	0.116343	0.803390
C244	C	1.399190	0.366343	1.053390
C245	C	0.677971	-0.693321	0.263030
C246	C	0.927971	-0.443321	0.513030
C247	C	1.177971	-0.193321	0.763030
C248	C	1.427971	0.056679	1.013030
C249	C	0.677993	-0.880994	0.262977
C250	C	0.927993	-0.630994	0.512977
C251	C	1.177993	-0.380994	0.762977
C252	C	1.427993	-0.130994	1.012977
O253	O	0.702431	-0.905275	0.228720
O254	O	0.952431	-0.655275	0.478720
O255	O	1.202431	-0.405275	0.728720
O256	O	1.452431	-0.155275	0.978720
N257	N	0.649249	-0.904443	0.303222
N258	N	0.899249	-0.654443	0.553222
N259	N	1.149249	-0.404443	0.803222
N260	N	1.399249	-0.154443	1.053222
C261	C	0.620495	-0.880971	0.343480
C262	C	0.870495	-0.630971	0.593480
C263	C	1.120495	-0.380971	0.843480
C264	C	1.370495	-0.130971	1.093480
O265	O	0.596044	-0.905222	0.377706
O266	O	0.846044	-0.655222	0.627706
O267	O	1.096044	-0.405222	0.877706
O268	O	1.346044	-0.155222	1.127706
C269	C	0.620471	-0.693298	0.343531
C270	C	0.870471	-0.443298	0.593531
C271	C	1.120471	-0.193298	0.843531
C272	C	1.370471	0.056702	1.093531
C273	C	0.649220	-0.669852	0.303287
C274	C	0.899220	-0.419852	0.553287
C275	C	1.149220	-0.169852	0.803287
C276	C	1.399220	0.080148	1.053287
C277	C	0.706717	-0.669874	0.222790
C278	C	0.956717	-0.419874	0.472790
C279	C	1.206717	-0.169874	0.722790
C280	C	1.456717	0.080126	0.972790
C281	C	0.706713	-0.622958	0.222806
C282	C	0.956713	-0.372958	0.472806
C283	C	1.206713	-0.122958	0.722806
C284	C	1.456713	0.127042	0.972806
C285	C	0.677963	-0.599490	0.263063
C286	C	0.927963	-0.349490	0.513063
C287	C	1.177963	-0.099490	0.763063
C288	C	1.427963	0.150510	1.013063
C289	C	0.649216	-0.622936	0.303303
C290	C	0.899216	-0.372936	0.553303
C291	C	1.149216	-0.122936	0.803303
C292	C	1.399216	0.127064	1.053303
C293	C	0.591716	-0.669827	0.383786
C294	C	0.841716	-0.419827	0.633786
C295	C	1.091716	-0.169827	0.883786
C296	C	1.341716	0.080173	1.133786
C297	C	0.591711	-0.622906	0.383793
C298	C	0.841711	-0.372906	0.633793
C299	C	1.091711	-0.122906	0.883793
C300	C	1.341711	0.127094	1.133793
C301	C	0.620460	-0.599460	0.343550
C302	C	0.870460	-0.349460	0.593550
C303	C	1.120460	-0.099460	0.843550
C304	C	1.370460	0.150540	1.093550
C305	C	0.620461	-0.552552	0.343576
C306	C	0.870461	-0.302552	0.593576
C307	C	1.120461	-0.052552	0.843576
C308	C	1.370461	0.197448	1.093576
N309	N	0.649205	-0.529103	0.303331
N310	N	0.899205	-0.279103	0.553331
N311	N	1.149205	-0.029103	0.803331
N312	N	1.399205	0.220897	1.053331
C313	C	0.677956	-0.552572	0.263074
C314	C	0.927956	-0.302572	0.513074
C315	C	1.177956	-0.052572	0.763074
C316	C	1.427956	0.197428	1.013074
C317	C	0.620511	-0.979501	0.343452
C318	C	0.870511	-0.729501	0.593452
C319	C	1.120511	-0.479501	0.843452
C320	C	1.370511	-0.229501	1.093452
C321	C	0.620517	-1.026419	0.343441
C322	C	0.870517	-0.776419	0.593441
C323	C	1.120517	-0.526419	0.843441
C324	C	1.370517	-0.276419	1.093441
C325	C	0.678015	-1.026439	0.262936
C326	C	0.928015	-0.776439	0.512936
C327	C	1.178015	-0.526439	0.762936
C328	C	1.428015	-0.276439	1.012936
C329	C	0.678010	-0.979520	0.262951
C330	C	0.928010	-0.729520	0.512951
C331	C	1.178010	-0.479520	0.762951
C332	C	1.428010	-0.229520	1.012951
C333	C	0.649255	-0.956052	0.303207
C334	C	0.899255	-0.706052	0.553207
C335	C	1.149255	-0.456052	0.803207
C336	C	1.399255	-0.206052	1.053207
C337	C	0.677945	-0.454046	0.263112
C338	C	0.927945	-0.204046	0.513112
C339	C	1.177945	0.045954	0.763112
C340	C	1.427945	0.295954	1.013112
C341	C	0.677940	-0.407126	0.263134
C342	C	0.927940	-0.157126	0.513134
C343	C	1.177940	0.092874	0.763134
C344	C	1.427940	0.342874	1.013134
C345	C	0.620441	-0.407111	0.343636
C346	C	0.870441	-0.157111	0.593636
C347	C	1.120441	0.092889	0.843636
C348	C	1.370441	0.342889	1.093636
C349	C	0.620448	-0.454026	0.343617
C350	C	0.870448	-0.204026	0.593617
C351	C	1.120448	0.045974	0.843617
C352	C	1.370448	0.295974	1.093617
C353	C	0.649202	-0.477493	0.303350
C354	C	0.899202	-0.227493	0.553350
C355	C	1.149202	0.022507	0.803350
C356	C	1.399202	0.272507	1.053350
O357	O	0.596033	-0.528242	0.377810
O358	O	0.846033	-0.278242	0.627810
O359	O	1.096033	-0.028242	0.877810
O360	O	1.346033	0.221758	1.127810
O361	O	0.702397	-0.528313	0.228844
O362	O	0.952397	-0.278313	0.478844
O363	O	1.202397	-0.028313	0.728844
O364	O	1.452397	0.221687	0.978844
C365	C	0.677975	-0.740236	0.263014
C366	C	0.927975	-0.490236	0.513014
C367	C	1.177975	-0.240236	0.763014
C368	C	1.427975	0.009764	1.013014
C369	C	0.649229	-0.763683	0.303255
C370	C	0.899229	-0.513683	0.553255
C371	C	1.149229	-0.263683	0.803255
C372	C	1.399229	-0.013683	1.053255
C373	C	0.620478	-0.740214	0.343511
C374	C	0.870478	-0.490214	0.593511
C375	C	1.120478	-0.240214	0.843511
C376	C	1.370478	0.009786	1.093511
C377	C	0.649235	-0.810601	0.303243
C378	C	0.899235	-0.560601	0.553243
C379	C	1.149235	-0.310601	0.803243
C380	C	1.399235	-0.060601	1.053243
C381	C	0.677986	-0.834069	0.262986
C382	C	0.927986	-0.584069	0.512986
C383	C	1.177986	-0.334069	0.762986
C384	C	1.427986	-0.084069	1.012986
C385	C	0.706730	-0.810620	0.222741
C386	C	0.956730	-0.560620	0.472741
C387	C	1.206730	-0.310620	0.722741
C388	C	1.456730	-0.060620	0.972741
C389	C	0.706726	-0.763705	0.222757
C390	C	0.956726	-0.513705	0.472757
C391	C	1.206726	-0.263705	0.722757
C392	C	1.456726	-0.013705	0.972757
C393	C	0.591734	-0.763663	0.383757
C394	C	0.841734	-0.513663	0.633757
C395	C	1.091734	-0.263663	0.883757
C396	C	1.341734	-0.013663	1.133757
C397	C	0.591741	-0.810579	0.383738
C398	C	0.841741	-0.560579	0.633738
C399	C	1.091741	-0.310579	0.883738
C400	C	1.341741	-0.060579	1.133738
C401	C	0.620491	-0.834047	0.343481
C402	C	0.870491	-0.584047	0.593481
C403	C	1.120491	-0.334047	0.843481
C404	C	1.370491	-0.084047	1.093481
C405	C	0.766351	-0.216577	0.303426
C406	C	1.016351	0.033423	0.553426
C407	C	1.266351	0.283423	0.803426
C408	C	1.516351	0.533423	1.053426
C409	C	0.816285	-0.216591	0.303437
C410	C	1.066285	0.033409	0.553437
C411	C	1.316285	0.283409	0.803437
C412	C	1.566285	0.533409	1.053437
C413	C	0.649113	-0.216520	0.466950
C414	C	0.899113	0.033480	0.716950
C415	C	1.149113	0.283480	0.966950
C416	C	1.399113	0.533480	1.216950
C417	C	0.649129	-0.216524	0.536918
C418	C	0.899129	0.033476	0.786918
C419	C	1.149129	0.283476	1.036918
C420	C	1.399129	0.533476	1.286918
C421	C	0.649186	-0.099822	0.303359
C422	C	0.899186	0.150178	0.553359
C423	C	1.149186	0.400178	0.803359
C424	C	1.399186	0.650178	1.053359
C425	C	0.649268	-0.049888	0.303184
C426	C	0.899268	0.200112	0.553184
C427	C	1.149268	0.450112	0.803184
C428	C	1.399268	0.700112	1.053184
C429	C	0.649244	-0.216579	0.139208
C430	C	0.899244	0.033421	0.389208
C431	C	1.149244	0.283421	0.639208
C432	C	1.399244	0.533421	0.889208
C433	C	0.649274	-0.216594	0.069240
C434	C	0.899274	0.033406	0.319240
C435	C	1.149274	0.283406	0.569240
C436	C	1.399274	0.533406	0.819240
C437	C	0.677885	-0.187828	0.569772
C438	C	0.927885	0.062172	0.819772
C439	C	1.177885	0.312172	1.069772
C440	C	1.427885	0.562172	1.319772
C441	C	0.677906	-0.187838	0.635515
C442	C	0.927906	0.062162	0.885515
C443	C	1.177906	0.312162	1.135515
C444	C	1.427906	0.562162	1.385515
C445	C	0.649163	-0.216540	0.668401
C446	C	0.899163	0.033460	0.918401
C447	C	1.149163	0.283460	1.168401
C448	C	1.399163	0.533460	1.418401
C449	C	0.620405	-0.245241	0.635539
C450	C	0.870405	0.004759	0.885539
C451	C	1.120405	0.254759	1.135539
C452	C	1.370405	0.504759	1.385539
C453	C	0.620388	-0.245234	0.569798
C454	C	0.870388	0.004766	0.819798
C455	C	1.120388	0.254766	1.069798
C456	C	1.370388	0.504766	1.319798
N457	N	0.609863	-0.219954	0.771663
N458	N	0.859863	0.030046	1.021663
N459	N	1.109863	0.280046	1.271663
N460	N	1.359863	0.530046	1.521663
N461	N	0.609880	-0.219958	0.834114
N462	N	0.859880	0.030042	1.084114
N463	N	1.109880	0.280042	1.334114
N464	N	1.359880	0.530042	1.584114
C465	C	0.649214	-0.216565	0.866475
C466	C	0.899214	0.033435	1.116475
C467	C	1.149214	0.283435	1.366475
C468	C	1.399214	0.533435	1.616475
N469	N	0.688530	-0.213159	0.834026
N470	N	0.938530	0.036841	1.084026
N471	N	1.188530	0.286841	1.334026
N472	N	1.438530	0.536841	1.584026
N473	N	0.688512	-0.213152	0.771569
N474	N	0.938512	0.036848	1.021569
N475	N	1.188512	0.286848	1.271569
N476	N	1.438512	0.536848	1.521569
C477	C	0.649179	-0.216551	0.739686
C478	C	0.899179	0.033449	0.989686
C479	C	1.149179	0.283449	1.239686
C480	C	1.399179	0.533449	1.489686
C481	C	0.677995	-0.187879	0.970615
C482	C	0.927995	0.062121	1.220615
C483	C	1.177995	0.312121	1.470615
C484	C	1.427995	0.562121	1.720615
C485	C	0.678017	-0.187892	1.036358
C486	C	0.928017	0.062108	1.286358
C487	C	1.178017	0.312108	1.536358
C488	C	1.428017	0.562108	1.786358
C489	C	0.620512	-0.245293	1.036382
C490	C	0.870512	0.004707	1.286382
C491	C	1.120512	0.254707	1.536382
C492	C	1.370512	0.504707	1.786382
C493	C	0.620494	-0.245282	0.970639
C494	C	0.870494	0.004718	1.220639
C495	C	1.120494	0.254718	1.470639
C496	C	1.370494	0.504718	1.720639
C497	C	0.649235	-0.216572	0.937760
C498	C	0.899235	0.033428	1.187760
C499	C	1.149235	0.283428	1.437760
C500	C	1.399235	0.533428	1.687760
H501	H	0.478161	-0.268539	0.376532
H502	H	0.728161	-0.018539	0.626532
H503	H	0.978161	0.231461	0.876532
H504	H	1.228161	0.481461	1.126532
H505	H	0.478153	-0.164481	0.230230
H506	H	0.728153	0.085519	0.480230
H507	H	0.978153	0.335519	0.730230
H508	H	1.228153	0.585519	0.980230
H509	H	-0.094251	-0.164552	0.230272
H510	H	0.155749	0.085448	0.480272
H511	H	0.405749	0.335448	0.730272
H512	H	0.655749	0.585448	0.980272
H513	H	0.701353	-0.388038	0.230362
H514	H	0.951353	-0.138038	0.480362
H515	H	1.201353	0.111962	0.730362
H516	H	1.451353	0.361962	0.980362
H517	H	0.262341	-0.297251	0.416866
H518	H	0.512341	-0.047251	0.666866
H519	H	0.762341	0.202749	0.916866
H520	H	1.012341	0.452749	1.166866
H521	H	0.597043	-0.473117	0.376392
H522	H	0.847043	-0.223117	0.626392
H523	H	1.097043	0.026883	0.876392
H524	H	1.347043	0.276883	1.126392
H525	H	0.597112	-1.045506	0.376218
H526	H	0.847112	-0.795506	0.626218
H527	H	1.097112	-0.545506	0.876218
H528	H	1.347112	-0.295506	1.126218
H529	H	0.701399	-0.164503	0.943843
H530	H	0.951399	0.085497	1.193843
H531	H	1.201399	0.335497	1.443843
H532	H	1.451399	0.585497	1.693843
H533	H	0.701289	-0.164452	0.543003
H534	H	0.951289	0.085548	0.793003
H535	H	1.201289	0.335548	1.043003
H536	H	1.451289	0.585548	1.293003
H537	H	0.597095	-0.960398	0.376238
H538	H	0.847095	-0.710398	0.626238
H539	H	1.097095	-0.460398	0.876238
H540	H	1.347095	-0.210398	1.126238
H541	H	0.568305	-0.688909	0.416556
H542	H	0.818305	-0.438909	0.666556
H543	H	1.068305	-0.188909	0.916556
H544	H	1.318305	0.061091	1.166556
H545	H	-0.094234	-0.268613	0.376585
H546	H	0.155766	-0.018613	0.626585
H547	H	0.405766	0.231387	0.876585
H548	H	0.655766	0.481387	1.126585
H549	H	0.596971	-0.268602	0.543047
H550	H	0.846971	-0.018602	0.793047
H551	H	1.096971	0.231398	1.043047
H552	H	1.346971	0.481398	1.293047
H553	H	0.177237	-0.297264	0.416869
H554	H	0.427237	-0.047264	0.666869
H555	H	0.677237	0.202736	0.916869
H556	H	0.927237	0.452736	1.166869
H557	H	0.701436	-0.164525	1.063107
H558	H	0.951436	0.085475	1.313107
H559	H	1.201436	0.335475	1.563107
H560	H	1.451436	0.585475	1.813107
H561	H	0.730123	-0.603872	0.190034
H562	H	0.980123	-0.353872	0.440034
H563	H	1.230123	-0.103872	0.690034
H564	H	1.480123	0.146128	0.940034
H565	H	0.701325	-0.164471	0.662269
H566	H	0.951325	0.085529	0.912269
H567	H	1.201325	0.335529	1.162269
H568	H	1.451325	0.585529	1.412269
H569	H	0.393029	-0.164492	0.230230
H570	H	0.643029	0.085508	0.480230
H571	H	0.893029	0.335508	0.730230
H572	H	1.143029	0.585508	0.980230
H573	H	0.597003	-0.268611	0.662319
H574	H	0.847003	-0.018611	0.912319
H575	H	1.097003	0.231389	1.162319
H576	H	1.347003	0.481389	1.412319
H577	H	-0.179356	-0.268622	0.376586
H578	H	0.070644	-0.018622	0.626586
H579	H	0.320644	0.231378	0.876586
H580	H	0.570644	0.481378	1.126586
H581	H	0.597110	-0.268664	1.063157
H582	H	0.847110	-0.018664	1.313157
H583	H	1.097110	0.231336	1.563157
H584	H	1.347110	0.481336	1.813157
H585	H	0.393052	-0.268560	0.376534
H586	H	0.643052	-0.018560	0.626534
H587	H	0.893052	0.231440	0.876534
H588	H	1.143052	0.481440	1.126534
H589	H	-0.179359	-0.164558	0.230290
H590	H	0.070641	0.085442	0.480290
H591	H	0.320641	0.335442	0.730290
H592	H	0.570641	0.585442	0.980290
H593	H	0.701425	-1.045555	0.230157
H594	H	0.951425	-0.795555	0.480157
H595	H	1.201425	-0.545555	0.730157
H596	H	1.451425	-0.295555	0.980157
H597	H	0.177223	-0.135851	0.189917
H598	H	0.427223	0.114149	0.439917
H599	H	0.677223	0.364149	0.689917
H600	H	0.927223	0.614149	0.939917
H601	H	0.121595	-0.297271	0.416874
H602	H	0.371595	-0.047271	0.666874
H603	H	0.621595	0.202729	0.916874
H604	H	0.871595	0.452729	1.166874
H605	H	0.568290	-0.603801	0.416569
H606	H	0.818290	-0.353801	0.666569
H607	H	1.068290	-0.103801	0.916569
H608	H	1.318290	0.146199	1.166569
H609	H	0.597035	-0.387994	0.376414
H610	H	0.847035	-0.137994	0.626414
H611	H	1.097035	0.112006	0.876414
H612	H	1.347035	0.362006	1.126414
H613	H	0.597076	-0.268647	0.943888
H614	H	0.847076	-0.018647	1.193888
H615	H	1.097076	0.231353	1.443888
H616	H	1.347076	0.481353	1.693888
H617	H	0.701419	-0.960433	0.230180
H618	H	0.951419	-0.710433	0.480180
H619	H	1.201419	-0.460433	0.730180
H620	H	1.451419	-0.210433	0.980180
H621	H	0.262331	-0.135849	0.189904
H622	H	0.512331	0.114151	0.439904
H623	H	0.762331	0.364151	0.689904
H624	H	1.012331	0.614151	0.939904
H625	H	0.036467	-0.135868	0.189941
H626	H	0.286467	0.114132	0.439941
H627	H	0.536467	0.364132	0.689941
H628	H	0.786467	0.614132	0.939941
H629	H	0.121572	-0.135858	0.189934
H630	H	0.371572	0.114142	0.439934
H631	H	0.621572	0.364142	0.689934
H632	H	0.871572	0.614142	0.939934
H633	H	0.036477	-0.297279	0.416875
H634	H	0.286477	-0.047279	0.666875
H635	H	0.536477	0.202721	0.916875
H636	H	0.786477	0.452721	1.166875
H637	H	0.701358	-0.473147	0.230320
H638	H	0.951358	-0.223147	0.480320
H639	H	1.201358	0.026853	0.730320
H640	H	1.451358	0.276853	0.980320
H641	H	0.730129	-0.688977	0.190004
H642	H	0.980129	-0.438977	0.440004
H643	H	1.230129	-0.188977	0.690004
H644	H	1.480129	0.061023	0.940004
H645	H	0.730141	-0.829737	0.189964
H646	H	0.980141	-0.579737	0.439964
H647	H	1.230141	-0.329737	0.689964
H648	H	1.480141	-0.079737	0.939964
H649	H	0.568331	-0.829665	0.416515
H650	H	0.818331	-0.579665	0.666515
H651	H	1.068331	-0.329665	0.916515
H652	H	1.318331	-0.079665	1.166515
H653	H	0.730136	-0.744619	0.189986
H654	H	0.980136	-0.494619	0.439986
H655	H	1.230136	-0.244619	0.689986
H656	H	1.480136	0.005381	0.939986
H657	H	0.568322	-0.744559	0.416540
H658	H	0.818322	-0.494559	0.666540
H659	H	1.068322	-0.244559	0.916540
H660	H	1.318322	0.005441	1.166540
