data_functionalizedCrystal
_audit_creation_method	'MofGen! by Chris Wilmer'
_symmetry_space_group_name_H-M	'P1'
_symmetry_Int_Tables_number	1
_symmetry_cell_setting	triclinic
loop_
_symmetry_equiv_pos_as_xyz
  x,y,z
_cell_length_a	17.640280
_cell_length_b	12.759401
_cell_length_c	12.759393
_cell_angle_alpha	90.019003
_cell_angle_beta	78.768143
_cell_angle_gamma	101.203341
loop_
_atom_site_label
_atom_site_type_symbol
_atom_site_fract_x
_atom_site_fract_y
_atom_site_fract_z
Zn1	Zn	-0.314712	-1.690830	-0.509538
Zn2	Zn	-0.446911	-1.726259	-0.298368
Zn3	Zn	-0.314744	-1.515144	-0.333864
Zn4	Zn	-0.446840	-1.550633	-0.474023
O5	O	-0.380802	-1.620716	-0.403948
O6	O	-0.332265	-1.842555	-0.481534
O7	O	-0.429422	-1.698229	-0.156044
O8	O	-0.204131	-1.508769	-0.386886
O9	O	-0.429391	-1.868585	-0.326388
O10	O	-0.204108	-1.637845	-0.515953
O11	O	-0.332320	-1.543124	-0.182123
O12	O	-0.332251	-1.372826	-0.352449
O13	O	-0.429270	-1.569255	-0.625767
O14	O	-0.429301	-1.398900	-0.455423
O15	O	-0.332196	-1.672257	-0.651860
O16	O	-0.557511	-1.732642	-0.291950
O17	O	-0.557458	-1.603610	-0.421004
C18	C	-0.380772	-1.347741	-0.403934
C19	C	-0.380779	-1.230966	-0.403948
C20	C	-0.330298	-1.162569	-0.484810
C21	C	-0.330309	-1.052847	-0.484811
C22	C	-0.431287	-1.079933	-0.323083
C23	C	-0.431272	-1.189651	-0.323079
C24	C	-0.272001	-1.146931	-0.578186
C25	C	-0.272012	-1.037209	-0.578186
C26	C	-0.586164	-1.675850	-0.348794
C27	C	-0.674019	-1.699532	-0.325234
C28	C	-0.962964	-1.441235	-0.583313
C29	C	-1.045517	-1.463490	-0.561142
C30	C	-1.045506	-1.597934	-0.426894
C31	C	-0.962951	-1.575694	-0.449058
C32	C	-0.921687	-1.497342	-0.527268
C33	C	-0.921674	-1.631802	-0.393013
C34	C	-0.839126	-1.609559	-0.415172
C35	C	-0.797856	-1.531208	-0.493376
C36	C	-0.839139	-1.475100	-0.549427
C37	C	-0.962940	-1.710148	-0.314798
C38	C	-0.921663	-1.766255	-0.258753
C39	C	-0.839114	-1.744018	-0.280917
C40	C	-0.797843	-1.665668	-0.359121
C41	C	-0.797831	-1.800127	-0.224866
C42	C	-0.715283	-1.777884	-0.247024
C43	C	-0.715296	-1.643425	-0.381279
C44	C	-0.174638	-1.565396	-0.459341
C45	C	-0.086783	-1.541822	-0.482946
C46	C	-0.380721	-1.620763	-0.678003
C47	C	-0.380687	-1.620783	-0.794789
C48	C	-0.380822	-0.894755	-0.403959
C49	C	-0.380805	-1.011527	-0.403953
C50	C	-0.330116	-1.540045	-0.863239
C51	C	-0.330093	-1.540071	-0.972970
C52	C	-0.431213	-1.701581	-0.945790
C53	C	-0.431240	-1.701550	-0.836061
C54	C	-0.271733	-1.446801	-0.878933
C55	C	-0.271710	-1.446827	-0.988663
C56	C	-0.380825	-1.620715	-0.130975
C57	C	-0.380637	-1.620839	-0.014249
H58	H	-0.213835	-0.987532	-0.564804
H59	H	-0.210484	-1.452188	-1.034898
N60	N	-0.301126	-1.199880	-0.672682
H61	H	-0.258373	-1.232965	-0.716618
H62	H	-0.349321	-1.257340	-0.646318
N63	N	-0.842335	-1.884631	-0.140511
H64	H	-0.828004	-1.864493	-0.069279
H65	H	-0.900879	-1.890172	-0.135062
N66	N	-0.190890	-1.164577	-0.571268
H67	H	-0.169285	-1.202776	-0.636302
H68	H	-0.154761	-1.093274	-0.568146
H69	H	-0.805540	-1.411305	-0.613121
H70	H	-0.288483	-1.011890	-0.655100
H71	H	-1.079122	-1.417807	-0.606799
N72	N	-0.293436	-1.344825	-0.833661
H73	H	-0.347657	-1.340012	-0.845448
H74	H	-0.293414	-1.344814	-0.754513
N75	N	-0.708823	-1.507215	-0.517274
H76	H	-0.688897	-1.521113	-0.594713
H77	H	-0.689053	-1.429810	-0.503158
N78	N	-1.051973	-1.734137	-0.290901
H79	H	-1.071811	-1.811545	-0.304946
H80	H	-1.071835	-1.720166	-0.213466
H81	H	-0.472371	-1.767340	-0.979407
H82	H	-0.681697	-1.579630	-0.444974
N83	N	-0.918448	-1.356740	-0.667681
H84	H	-0.957121	-1.324572	-0.699832
H85	H	-0.884241	-1.298926	-0.634056
N86	N	-0.300728	-1.352243	-1.025950
H87	H	-0.299656	-1.355721	-1.105295
H88	H	-0.356465	-1.353885	-0.986464
N89	N	-1.090014	-1.682427	-0.342531
H90	H	-1.148571	-1.688002	-0.336993
H91	H	-1.075543	-1.753555	-0.362833
H92	H	-0.472431	-1.767282	-0.780328
N93	N	-0.966171	-1.850748	-0.174390
H94	H	-1.024728	-1.856323	-0.168852
H95	H	-0.951700	-1.921876	-0.194692
H96	H	-0.681675	-1.823572	-0.201385
H97	H	-0.213596	-1.460340	-0.860525
H98	H	-0.472371	-1.245335	-0.257225
H99	H	-0.472398	-1.046280	-0.257242
