data_functionalizedCrystal
_audit_creation_method	'MofGen! by Chris Wilmer'
_symmetry_space_group_name_H-M	'P1'
_symmetry_Int_Tables_number	1
_symmetry_cell_setting	triclinic
loop_
_symmetry_equiv_pos_as_xyz
  x,y,z
_cell_length_a	9.065218
_cell_length_b	14.971491
_cell_length_c	13.448316
_cell_angle_alpha	89.990854
_cell_angle_beta	89.995634
_cell_angle_gamma	84.316060
loop_
_atom_site_label
_atom_site_type_symbol
_atom_site_fract_x
_atom_site_fract_y
_atom_site_fract_z
O1	O	0.192297	1.188378	-0.082730
O2	O	0.215313	0.928150	-0.082723
O3	O	-0.010947	1.063643	-0.082725
O4	O	0.418556	1.052886	-0.082728
O5	O	-0.010959	1.063624	0.082659
O6	O	0.215300	0.928132	0.082661
O7	O	0.192285	1.188360	0.082653
Cu8	Cu	0.203791	1.058244	0.097758
Cu9	Cu	0.203806	1.058266	-0.097827
O10	O	0.418544	1.052867	0.082655
C11	C	0.214276	0.894809	-0.000030
C12	C	0.211187	0.795489	-0.000027
C13	C	0.197866	0.367694	-0.090200
C14	C	0.200764	0.461016	-0.090197
C15	C	0.202216	0.507663	-0.000043
C16	C	0.200755	0.460983	0.090114
C17	C	0.197847	0.367664	0.090109
C18	C	0.206820	0.655490	0.090117
C19	C	0.209731	0.748816	0.090123
C20	C	0.209737	0.748842	-0.090188
C21	C	0.206829	0.655523	-0.090193
C22	C	0.205371	0.608850	-0.000036
C23	C	-0.065918	1.062600	-0.000034
C24	C	-0.229699	1.059509	-0.000039
C25	C	0.473516	1.053910	-0.000037
C26	C	0.637296	1.057001	-0.000039
C27	C	0.193321	1.221701	-0.000042
C28	C	0.196410	1.321021	-0.000051
N29	N	0.203780	1.058235	0.235322
C30	C	0.103635	1.118250	0.287362
C31	C	0.103635	1.118254	0.391465
C32	C	0.203788	1.058248	0.443527
C33	C	0.303939	0.998226	0.391480
C34	C	0.303931	0.998218	0.287379
C35	C	0.303951	0.998249	0.608460
C36	C	0.303962	0.998258	0.712569
C37	C	0.103655	1.118285	0.712547
C38	C	0.103647	1.118277	0.608445
C39	C	0.203800	1.058257	0.556406
N40	N	0.203816	1.058273	0.764608
H41	H	0.196676	0.329663	0.163518
F42	F	0.205296	0.605879	-0.186145
H43	H	0.022084	1.167118	0.244980
H44	H	0.385502	0.949371	0.566093
F45	F	-0.002953	1.182128	0.446850
H46	H	0.022101	1.167143	0.566057
F47	F	0.211303	0.798515	-0.186141
F48	F	0.205252	0.605821	0.186073
H49	H	0.385481	0.949363	0.433875
H50	H	0.022107	1.167156	0.754923
F51	F	0.202307	0.510685	-0.186146
H52	H	0.201928	0.498971	0.163519
F53	F	0.410558	0.934389	0.767970
H54	H	0.385478	0.949347	0.245009
H55	H	0.196695	0.329721	-0.163615
H56	H	0.210921	0.786792	0.163534
