data_functionalizedCrystal
_audit_creation_method	'MofGen! by Chris Wilmer'
_symmetry_space_group_name_H-M	'P1'
_symmetry_Int_Tables_number	1
_symmetry_cell_setting	triclinic
loop_
_symmetry_equiv_pos_as_xyz
  x,y,z
_cell_length_a	17.699083
_cell_length_b	17.038272
_cell_length_c	16.776229
_cell_angle_alpha	89.993292
_cell_angle_beta	89.998886
_cell_angle_gamma	87.197286
loop_
_atom_site_label
_atom_site_type_symbol
_atom_site_fract_x
_atom_site_fract_y
_atom_site_fract_z
O1	O	1.010620	0.098861	-0.066177
O2	O	0.791093	0.111723	-0.066203
O3	O	0.899552	-0.008521	-0.066184
O4	O	0.902161	0.219105	-0.066196
O5	O	0.899536	-0.008529	0.066393
O6	O	0.791077	0.111716	0.066374
O7	O	1.010604	0.098854	0.066400
Zn8	Zn	0.900838	0.105283	0.087436
Zn9	Zn	0.900859	0.105293	-0.087239
O10	O	0.902145	0.219098	0.066381
C11	C	0.762857	0.111258	0.000082
C12	C	0.678748	0.109876	0.000072
C13	C	0.897170	-0.037649	0.000104
C14	C	0.890090	-0.124431	0.000103
C15	C	0.634797	0.180457	0.000069
C16	C	0.555767	0.179153	0.000079
C17	C	0.520690	0.107267	0.000087
C18	C	0.564647	0.036681	0.000093
C19	C	0.643675	0.037986	0.000089
C20	C	0.245935	0.031418	0.000113
C21	C	0.166901	0.030119	0.000116
C22	C	0.158028	0.172585	0.000104
C23	C	0.237056	0.173890	0.000099
C24	C	0.281006	0.103304	0.000109
C25	C	0.366699	0.104719	0.000100
C26	C	0.434999	0.105852	0.000091
C27	C	0.955100	-0.174651	0.000112
C28	C	0.948442	-0.256191	0.000103
C29	C	0.876773	-0.287509	0.000092
C30	C	0.811758	-0.237282	0.000081
C31	C	0.818417	-0.155744	0.000084
C32	C	0.853251	-0.533228	0.000079
C33	C	0.846597	-0.614773	0.000078
C34	C	0.983282	-0.633676	0.000099
C35	C	0.989934	-0.552135	0.000106
C36	C	0.924919	-0.501916	0.000091
C37	C	0.869967	-0.370855	0.000086
C38	C	0.931726	-0.418571	0.000092
C39	C	1.038840	0.099318	0.000113
C40	C	1.122949	0.100701	0.000118
C41	C	0.904526	0.248226	0.000091
C42	C	0.911607	0.335007	0.000087
N43	N	0.900829	0.105276	0.206647
N44	N	0.900873	0.105294	-0.206450
C45	C	0.948872	0.052054	0.248373
C46	C	0.948876	0.052053	0.331825
C47	C	0.900841	0.105279	0.373550
C48	C	0.852793	0.158504	0.331819
C49	C	0.852785	0.158501	0.248368
C50	C	0.852821	0.158520	0.668366
C51	C	0.852834	0.158521	0.751823
C52	C	0.948912	0.052072	0.751823
C53	C	0.948904	0.052069	0.668372
C54	C	0.900854	0.105290	0.626648
C55	C	0.900849	0.105289	0.536160
C56	C	0.900849	0.105285	0.464037
H57	H	0.663351	0.238994	0.000061
H58	H	0.519986	0.236627	0.000075
H59	H	0.265612	0.232426	0.000089
F60	F	1.000050	-0.004574	0.796235
F61	F	1.000007	-0.004593	0.376233
H62	H	0.679459	-0.019489	0.000091
F63	F	0.770314	-0.648101	0.000070
F64	F	0.801685	0.215163	0.623967
H65	H	0.138344	-0.028422	0.000123
F66	F	1.031380	-0.141328	0.000132
H67	H	0.122235	0.230060	0.000100
H68	H	0.990079	-0.393068	0.000083
F69	F	0.801649	0.215145	0.203962
F70	F	0.749223	-0.102296	0.000072
F71	F	1.000032	-0.004579	0.623969
H72	H	0.281710	-0.026057	0.000122
F73	F	1.017636	-0.309636	0.000114
F74	F	0.801665	0.215149	0.376226
H75	H	0.536080	-0.021849	0.000112
F76	F	1.066213	-0.518811	0.000098
F77	F	0.801705	0.215173	0.796228
H78	H	0.800310	-0.492349	0.000066
F79	F	1.052470	-0.687128	0.000114
H80	H	0.753404	-0.262788	0.000067
F81	F	0.793693	-0.404193	0.000071
F82	F	1.000003	-0.004594	0.203974
