data_functionalizedCrystal
_audit_creation_method	'MofGen! by Chris Wilmer'
_symmetry_space_group_name_H-M	'P1'
_symmetry_Int_Tables_number	1
_symmetry_cell_setting	triclinic
loop_
_symmetry_equiv_pos_as_xyz
  x,y,z
_cell_length_a	19.121063
_cell_length_b	12.759401
_cell_length_c	12.759393
_cell_angle_alpha	90.018496
_cell_angle_beta	92.402917
_cell_angle_gamma	87.530983
loop_
_atom_site_label
_atom_site_type_symbol
_atom_site_fract_x
_atom_site_fract_y
_atom_site_fract_z
Zn1	Zn	-0.279568	-1.588321	-0.611771
Zn2	Zn	-0.397037	-1.580680	-0.443567
Zn3	Zn	-0.279605	-1.412621	-0.436113
Zn4	Zn	-0.396983	-1.405080	-0.619205
O5	O	-0.338298	-1.496676	-0.527664
O6	O	-0.295158	-1.734328	-0.589467
O7	O	-0.381497	-1.558345	-0.295559
O8	O	-0.181316	-1.442282	-0.453184
O9	O	-0.381462	-1.728714	-0.465888
O10	O	-0.181289	-1.571368	-0.582240
O11	O	-0.295221	-1.434872	-0.290083
O12	O	-0.295168	-1.264600	-0.460392
O13	O	-0.381370	-1.429429	-0.765237
O14	O	-0.381405	-1.259060	-0.594909
O15	O	-0.295106	-1.564056	-0.759776
O16	O	-0.495314	-1.551032	-0.473095
O17	O	-0.495274	-1.422020	-0.602136
C18	C	-0.338285	-1.223709	-0.527649
C19	C	-0.338297	-1.106932	-0.527668
C20	C	-0.520778	-1.484907	-0.539254
C21	C	-0.598844	-1.479969	-0.544247
C22	C	-0.338227	-1.496754	-0.801693
C23	C	-0.338197	-1.496787	-0.918468
C24	C	-0.635516	-1.544871	-0.479464
C25	C	-0.708867	-1.540233	-0.484167
C26	C	-0.745544	-1.470686	-0.553648
C27	C	-0.708866	-1.405781	-0.618438
C28	C	-0.635517	-1.410426	-0.613740
C29	C	-0.967013	-1.453305	-0.571195
C30	C	-1.040368	-1.448663	-0.575886
C31	C	-1.040364	-1.583116	-0.441616
C32	C	-0.967013	-1.587750	-0.436920
C33	C	-0.930341	-1.522849	-0.501714
C34	C	-0.820521	-1.465941	-0.558454
C35	C	-0.855366	-1.527600	-0.496912
C36	C	-0.155106	-1.508518	-0.516052
C37	C	-0.077040	-1.513565	-0.511103
C38	C	-0.338312	-1.770708	-0.527680
C39	C	-0.338318	-1.887484	-0.527686
C40	C	-0.383272	-1.049208	-0.597605
C41	C	-0.383281	-0.939483	-0.597616
C42	C	-0.293337	-0.945216	-0.457747
C43	C	-0.293325	-1.054939	-0.457741
C44	C	-0.435203	-1.045897	-0.678354
C45	C	-0.435212	-0.936172	-0.678366
C46	C	-0.293275	-1.566897	-0.970488
C47	C	-0.293250	-1.566923	-1.080210
C48	C	-0.383075	-1.426727	-1.085884
C49	C	-0.383096	-1.426696	-0.976163
C50	C	-0.241418	-1.647841	-0.967213
C51	C	-0.241392	-1.647867	-1.076936
C52	C	-0.338318	-1.496661	-0.254698
C53	C	-0.338151	-1.496844	-0.137911
H54	H	-0.605659	-1.601498	-0.422881
N55	N	-0.247394	-0.892106	-0.386333
N56	N	-0.202672	-0.833777	-0.420579
H57	H	-0.170223	-0.796269	-0.370141
H58	H	-0.189711	-1.622069	-1.107695
H59	H	-0.419628	-1.369660	-1.132872
N60	N	-0.858000	-1.394896	-0.629405
N61	N	-0.898991	-1.325385	-0.594995
H62	H	-0.925465	-1.275211	-0.645104
N63	N	-0.416992	-1.084487	-0.779302
N64	N	-0.413900	-1.181011	-0.796382
H65	H	-0.401036	-1.208269	-0.867673
H66	H	-0.260917	-1.723862	-0.934418
H67	H	-0.255961	-1.728304	-1.107641
H68	H	-0.187026	-1.629561	-0.933996
N69	N	-0.746317	-1.606552	-0.418001
N70	N	-0.713561	-1.668647	-0.355974
H71	H	-0.740009	-1.715494	-0.309246
N72	N	-1.077834	-1.649398	-0.375441
N73	N	-1.143324	-1.645245	-0.379640
H74	H	-1.169788	-1.692060	-0.332902
N75	N	-0.929555	-1.387028	-0.637387
N76	N	-0.888577	-1.426561	-0.701750
H77	H	-0.862121	-1.379753	-0.748506
H78	H	-0.419673	-1.369603	-0.933812
N79	N	-1.077836	-1.377607	-0.646848
N80	N	-1.069704	-1.281179	-0.639276
H81	H	-1.096168	-1.230995	-0.689385
N82	N	-0.929561	-1.658793	-0.365937
N83	N	-0.962314	-1.716737	-0.308098
H84	H	-0.935864	-1.766910	-0.257961
H85	H	-0.486846	-1.076598	-0.652356
N86	N	-0.247369	-1.113902	-0.386322
N87	N	-0.182569	-1.105815	-0.389349
H88	H	-0.150109	-1.147458	-0.338908
N89	N	-0.746339	-1.334756	-0.689415
N90	N	-0.811829	-1.330617	-0.693602
H91	H	-0.838295	-1.280453	-0.743730
H92	H	-0.415796	-0.903420	-0.754482
H93	H	-0.489594	-0.902888	-0.659894
H94	H	-0.825502	-1.584229	-0.440345
N95	N	-0.598065	-1.344129	-0.679928
N96	N	-0.630818	-1.282040	-0.741963
H97	H	-0.604369	-1.235219	-0.788716
