data_functionalizedCrystal
_audit_creation_method	'MofGen! by Chris Wilmer'
_symmetry_space_group_name_H-M	'P1'
_symmetry_Int_Tables_number	1
_symmetry_cell_setting	triclinic
loop_
_symmetry_equiv_pos_as_xyz
  x,y,z
_cell_length_a	6.817900
_cell_length_b	19.551900
_cell_length_c	16.306216
_cell_angle_alpha	95.875883
_cell_angle_beta	103.467292
_cell_angle_gamma	101.664829
loop_
_atom_site_label
_atom_site_type_symbol
_atom_site_fract_x
_atom_site_fract_y
_atom_site_fract_z
V1	V	-4.017396	-0.097223	-0.263425
O2	O	-4.014320	0.004109	-0.258002
O3	O	-3.960098	-0.192235	-0.262015
O4	O	-3.968962	-0.095974	-0.378134
O5	O	-4.005395	-0.092818	-0.141079
V6	V	-4.502181	-0.085073	-0.248744
O7	O	-4.275885	-0.123874	-0.295629
O8	O	-4.693889	-0.058422	-0.216539
O9	O	-4.336273	0.009940	-0.250153
O10	O	-4.622654	-0.186405	-0.254166
O11	O	-4.631580	-0.089478	-0.371089
O12	O	-4.327409	-0.086322	-0.134034
C13	C	-3.802935	-0.215390	-0.257961
C14	C	-3.837373	-0.293065	-0.257574
C15	C	-4.267580	-0.856425	-0.259810
C16	C	-4.235238	-0.783440	-0.260168
C17	C	-4.036892	-0.743270	-0.255332
C18	C	-3.870867	-0.776088	-0.250114
C19	C	-3.903210	-0.849070	-0.249747
C20	C	-3.870073	-0.631321	-0.301712
C21	C	-3.837741	-0.558340	-0.302084
C22	C	-3.937127	-0.518166	-0.256459
C23	C	-4.068888	-0.550984	-0.210473
C24	C	-4.101231	-0.623967	-0.210106
C25	C	-4.001801	-0.664132	-0.255728
C26	C	-4.068072	-0.406218	-0.262059
C27	C	-4.035719	-0.333230	-0.262412
C28	C	-3.671348	-0.325881	-0.252366
C29	C	-3.703701	-0.398866	-0.252004
C30	C	-3.902069	-0.439030	-0.256855
C31	C	-3.814241	-0.092598	-0.406081
C32	C	-3.855865	-0.092206	-0.499859
C33	C	-4.006953	-0.090798	-0.840606
C34	C	-4.210942	-0.095433	-0.810176
C35	C	-4.167659	-0.095573	-0.712585
C36	C	-3.931998	-0.091497	-0.671557
C37	C	-3.802734	-0.022193	-0.691480
C38	C	-3.847401	-0.021762	-0.789076
C39	C	-3.914376	-0.155220	-0.814753
C40	C	-3.875684	-0.156588	-0.717441
C41	C	-3.889624	-0.091889	-0.576018
C42	C	-4.049319	-0.090401	-0.936144
C43	C	-4.156778	0.033090	-0.254205
C44	C	-4.101577	0.110765	-0.254598
C45	C	-4.145472	-0.089700	-0.106083
C46	C	-4.083086	-0.090089	-0.012304
H47	H	-4.170905	-0.306518	-0.266652
O48	O	-3.713911	-0.151585	-0.840367
H49	H	-3.601099	-0.101567	-0.807468
H50	H	-4.217679	-0.049171	-0.682029
O51	O	-4.243304	-0.659358	-0.160496
H52	H	-4.372515	-0.699985	-0.204796
O53	O	-4.282004	-0.449544	-0.267269
H54	H	-4.391085	-0.444850	-0.327501
H55	H	-3.709370	-0.743376	-0.246174
O56	O	-3.651839	-0.158005	-0.681145
H57	H	-3.617334	-0.204569	-0.714931
O58	O	-4.176090	-0.507666	-0.161251
H59	H	-4.131447	-0.451401	-0.169219
O60	O	-3.645640	-0.013490	-0.814524
H61	H	-3.654519	-0.059955	-0.861619
H62	H	-4.022793	-0.207298	-0.850810
O63	O	-3.724167	-0.884467	-0.244138
H64	H	-3.580809	-0.844277	-0.240840
H65	H	-4.268355	-0.145388	-0.699922
O66	O	-3.457415	-0.282567	-0.247153
H67	H	-3.462812	-0.226305	-0.248289
H68	H	-3.629518	-0.016689	-0.663968
O69	O	-3.524659	-0.434260	-0.246392
H70	H	-3.558603	-0.474893	-0.303743
H71	H	-4.282036	-0.049160	-0.827538
H72	H	-3.730466	-0.531627	-0.339533
O73	O	-4.002597	-0.224455	-0.701918
H74	H	-4.098310	-0.256014	-0.763962
O75	O	-4.481521	-0.899739	-0.265023
H76	H	-4.590588	-0.895045	-0.325258
O77	O	-3.853420	0.041844	-0.648792
H78	H	-3.710405	0.075476	-0.603672
H79	H	-4.333313	-0.145083	-0.844941
H80	H	-4.370418	-0.756720	-0.264407
H81	H	-3.789105	-0.664023	-0.338858
H82	H	-3.908218	0.026970	-0.804036
