data_functionalizedCrystal
_audit_creation_method	'MofGen! by Chris Wilmer'
_symmetry_space_group_name_H-M	'P1'
_symmetry_Int_Tables_number	1
_symmetry_cell_setting	triclinic
loop_
_symmetry_equiv_pos_as_xyz
  x,y,z
_cell_length_a	15.711784
_cell_length_b	15.538191
_cell_length_c	14.185569
_cell_angle_alpha	82.127072
_cell_angle_beta	107.179161
_cell_angle_gamma	83.430448
loop_
_atom_site_label
_atom_site_type_symbol
_atom_site_fract_x
_atom_site_fract_y
_atom_site_fract_z
O1	O	0.976908	0.479423	-0.083419
O2	O	0.745554	0.414692	-0.083417
O3	O	0.906265	0.325448	-0.083423
O4	O	0.816197	0.568667	-0.083413
O5	O	0.953738	0.299089	0.083410
O6	O	0.793028	0.388333	0.083416
O7	O	1.024382	0.453064	0.083414
Cu8	Cu	0.913040	0.418291	0.098648
Cu9	Cu	0.856896	0.449464	-0.098651
O10	O	0.863671	0.542308	0.083420
C11	C	0.740405	0.390938	-0.000000
C12	C	0.654335	0.359420	0.000000
C13	C	0.566614	0.240767	-0.000004
C14	C	0.647486	0.270391	-0.000004
C15	C	0.580307	0.418861	-0.000001
C16	C	0.499427	0.389250	-0.000007
C17	C	0.492588	0.300201	-0.000007
C18	C	0.425400	0.448684	-0.000009
C19	C	0.344529	0.419074	-0.000009
C20	C	0.337684	0.330029	-0.000006
C21	C	0.411717	0.270591	-0.000006
C22	C	0.432242	0.537731	-0.000002
C23	C	0.358216	0.597166	-0.000005
C24	C	0.277341	0.567557	-0.000012
C25	C	0.270496	0.478512	-0.000009
C26	C	0.203308	0.626995	-0.000012
C27	C	0.122436	0.597385	-0.000011
C28	C	0.189624	0.448902	-0.000009
C29	C	0.939424	0.280421	-0.000010
C30	C	0.967491	0.185522	-0.000020
C31	C	0.688629	-0.198371	0.000004
C32	C	0.715026	-0.287541	0.000006
C33	C	0.863495	-0.258821	0.000004
C34	C	0.837110	-0.169646	-0.000003
C35	C	0.749676	-0.139429	-0.000002
C36	C	0.898157	-0.110703	-0.000008
C37	C	0.871775	-0.021537	-0.000010
C38	C	0.784346	0.008687	-0.000006
C39	C	0.723294	-0.050262	-0.000003
C40	C	0.985592	-0.140923	-0.000002
C41	C	1.046639	-0.081981	-0.000008
C42	C	1.020256	0.007189	-0.000017
C43	C	0.932827	0.037413	-0.000013
C44	C	1.081307	0.066138	-0.000019
C45	C	1.054925	0.155305	-0.000021
C46	C	0.906444	0.126579	-0.000014
C47	C	1.029531	0.476818	-0.000005
C48	C	1.115598	0.508337	-0.000011
C49	C	0.830511	0.587335	0.000005
C50	C	0.802442	0.682235	0.000009
N51	N	0.952534	0.396367	0.237418
N52	N	0.817410	0.471384	-0.237420
C53	C	0.701388	0.535759	0.605077
C54	C	0.731308	0.519160	0.710098
C55	C	0.873625	0.440184	0.710053
C56	C	0.843715	0.456774	0.605031
C57	C	0.757597	0.504562	0.552551
C58	C	0.899924	0.425577	0.552504
C59	C	0.870018	0.442169	0.447491
C60	C	0.783904	0.489958	0.395004
C61	C	0.727691	0.521154	0.447538
C62	C	0.986045	0.377794	0.604986
C63	C	1.042253	0.346597	0.552460
C64	C	1.012345	0.363183	0.447445
C65	C	0.926231	0.410972	0.394957
C66	C	1.068558	0.331987	0.394911
C67	C	1.038653	0.348579	0.289898
C68	C	0.896325	0.427564	0.289944
H69	H	0.585888	0.491364	0.000002
Br70	Br	0.748542	0.129698	0.000005
Br71	Br	0.227933	0.289838	0.000006
H72	H	1.084424	0.323176	0.247130
H73	H	1.104636	0.203297	-0.000024
H74	H	0.685529	0.544569	0.752859
Br75	Br	0.542029	0.577900	0.000108
Br76	Br	0.990500	0.375335	0.781282
Br77	Br	0.982155	-0.299840	0.000015
Br78	Br	1.165299	-0.123000	0.000003
Br79	Br	1.185437	0.267148	0.466143
Br80	Br	1.159128	0.281748	0.623688
Br81	Br	0.402428	0.149738	-0.000007
H82	H	0.184055	0.376392	-0.000019
H83	H	1.152499	0.041519	-0.000010
H84	H	1.010392	0.364290	0.690495
H85	H	1.007067	-0.213528	-0.000010
Br86	Br	0.779440	0.492407	0.218716
H87	H	0.617430	-0.173766	-0.000003
Br88	Br	0.610806	0.585997	0.376310
H89	H	0.759557	0.503470	0.309495
H90	H	0.561045	0.168257	-0.000015
H91	H	0.707760	0.221986	-0.000005
Br92	Br	0.632169	-0.367537	0.000025
H93	H	0.363798	0.669669	-0.000001
Br94	Br	0.584503	0.600602	0.533849
Br95	Br	0.212605	0.747839	0.000003
H96	H	0.835245	0.151184	-0.000021
H97	H	0.062162	0.645782	-0.000010
Br98	Br	0.604628	-0.009242	-0.000017
