data_functionalizedCrystal
_audit_creation_method	'MofGen! by Chris Wilmer'
_symmetry_space_group_name_H-M	'P1'
_symmetry_Int_Tables_number	1
_symmetry_cell_setting	triclinic
loop_
_symmetry_equiv_pos_as_xyz
  x,y,z
_cell_length_a	14.519731
_cell_length_b	14.519709
_cell_length_c	13.596369
_cell_angle_alpha	89.994278
_cell_angle_beta	89.993626
_cell_angle_gamma	96.315501
loop_
_atom_site_label
_atom_site_type_symbol
_atom_site_fract_x
_atom_site_fract_y
_atom_site_fract_z
O1	O	1.223841	-0.120986	0.081796
O2	O	1.557174	0.212347	0.415129
O3	O	1.890507	0.545680	0.748462
O4	O	0.955366	-0.135202	0.081797
O5	O	1.288700	0.198131	0.415131
O6	O	1.622033	0.531464	0.748464
O7	O	1.096722	0.006143	0.081788
O8	O	1.430055	0.339477	0.415121
O9	O	1.763388	0.672810	0.748454
O10	O	1.082485	-0.262332	0.081805
O11	O	1.415819	0.071001	0.415139
O12	O	1.749152	0.404334	0.748472
O13	O	1.096739	0.006151	-0.081795
O14	O	1.430072	0.339485	0.251538
O15	O	1.763406	0.672818	0.584871
O16	O	0.955384	-0.135195	-0.081785
O17	O	1.288717	0.198139	0.251548
O18	O	1.622050	0.531472	0.584881
O19	O	1.223858	-0.120979	-0.081787
O20	O	1.557191	0.212355	0.251546
O21	O	1.890525	0.545688	0.584879
Zn22	Zn	1.089624	-0.128085	-0.107759
Zn23	Zn	1.422957	0.205248	0.225575
Zn24	Zn	1.756290	0.538581	0.558908
Zn25	Zn	1.089601	-0.128096	0.107769
Zn26	Zn	1.422934	0.205238	0.441102
Zn27	Zn	1.756267	0.538571	0.774436
O28	O	1.082503	-0.262325	-0.081777
O29	O	1.415836	0.071009	0.251556
O30	O	1.749169	0.404342	0.584889
C31	C	0.921016	-0.134532	0.000006
C32	C	1.254349	0.198801	0.333339
C33	C	1.587682	0.532134	0.666673
C34	C	0.818635	-0.132536	0.000007
C35	C	1.151969	0.200797	0.333340
C36	C	1.485302	0.534130	0.666673
C37	C	0.735491	-0.130915	0.000010
C38	C	1.068825	0.202419	0.333344
C39	C	1.402158	0.535752	0.666677
C40	C	0.631182	-0.128888	0.000011
C41	C	0.964516	0.204445	0.333344
C42	C	1.297849	0.537779	0.666677
C43	C	0.548043	-0.127280	0.000010
C44	C	0.881377	0.206054	0.333344
C45	C	1.214710	0.539387	0.666677
C46	C	0.443728	-0.125253	0.000012
C47	C	0.777061	0.208080	0.333346
C48	C	1.110395	0.541414	0.666679
C49	C	1.096067	0.040507	-0.000004
C50	C	1.429400	0.373840	0.333329
C51	C	1.762734	0.707174	0.666663
C52	C	1.094079	0.142889	-0.000005
C53	C	1.427412	0.476222	0.333329
C54	C	1.760745	0.809555	0.666662
C55	C	1.258209	-0.121649	0.000006
C56	C	1.591542	0.211685	0.333340
C57	C	1.924875	0.545018	0.666673
C58	C	1.360589	-0.123645	0.000012
C59	C	1.693922	0.209689	0.333346
C60	C	2.027256	0.543022	0.666679
N61	N	1.089586	-0.128096	0.254861
N62	N	1.422919	0.205237	0.588194
N63	N	1.756252	0.538571	0.921527
C64	C	1.083157	-0.296688	0.000016
C65	C	1.416491	0.036645	0.333350
C66	C	1.749824	0.369978	0.666683
C67	C	1.085146	-0.399070	0.000023
C68	C	1.418479	-0.065736	0.333357
C69	C	1.751812	0.267597	0.666690
C70	C	1.086759	0.517785	0.000021
C71	C	1.420093	0.851118	0.333354
C72	C	1.753426	1.184452	0.666688
C73	C	1.088792	0.413477	0.000014
C74	C	1.422125	0.746810	0.333347
C75	C	1.755459	1.080143	0.666680
C76	C	1.090419	0.330340	0.000007
C77	C	1.423752	0.663673	0.333341
C78	C	1.757085	0.997007	0.666674
C79	C	1.092452	0.226025	0.000002
C80	C	1.425785	0.559359	0.333335
C81	C	1.759118	0.892692	0.666668
N82	N	1.089646	-0.128078	-0.254851
N83	N	1.422979	0.205255	0.078483
N84	N	1.756313	0.538589	0.411816
C85	C	1.089589	-0.128097	0.343859
C86	C	1.422922	0.205237	0.677192
C87	C	1.756256	0.538570	1.010525
C88	C	1.089602	-0.128095	0.455510
C89	C	1.422935	0.205239	0.788843
C90	C	1.756269	0.538572	1.122177
C91	C	1.089618	-0.128088	0.544500
C92	C	1.422951	0.205245	0.877834
C93	C	1.756285	0.538579	1.211167
C94	C	1.089630	-0.128085	0.656159
C95	C	1.422964	0.205249	0.989492
C96	C	1.756297	0.538582	1.322826
