data_functionalizedCrystal
_audit_creation_method	'MofGen! by Chris Wilmer'
_symmetry_space_group_name_H-M	'P1'
_symmetry_Int_Tables_number	1
_symmetry_cell_setting	triclinic
loop_
_symmetry_equiv_pos_as_xyz
  x,y,z
_cell_length_a	16.992694
_cell_length_b	10.654550
_cell_length_c	16.053810
_cell_angle_alpha	92.602971
_cell_angle_beta	92.738518
_cell_angle_gamma	92.423423
loop_
_atom_site_label
_atom_site_type_symbol
_atom_site_fract_x
_atom_site_fract_y
_atom_site_fract_z
O1	O	1.045103	-0.261459	0.069324
O2	O	0.816802	-0.258535	0.069349
O3	O	0.936201	-0.077712	0.069330
O4	O	0.925704	-0.442282	0.069342
O5	O	0.929656	-0.087664	-0.069527
O6	O	0.810257	-0.268487	-0.069509
O7	O	1.038558	-0.271412	-0.069534
Zn8	Zn	0.923368	-0.271530	-0.091568
Zn9	Zn	0.931992	-0.258417	0.091383
O10	O	0.919159	-0.452235	-0.069516
C11	C	0.784297	-0.259750	-0.000077
C12	C	0.697192	-0.248530	-0.000068
N13	N	0.917489	-0.280478	-0.216427
C14	C	0.932158	-0.035823	-0.000098
C15	C	0.929852	0.103819	-0.000096
C16	C	0.647541	-0.356781	-0.000065
C17	C	0.565696	-0.346233	-0.000077
C18	C	0.533505	-0.227432	-0.000086
C19	C	0.583163	-0.119174	-0.000091
C20	C	0.665006	-0.129724	-0.000085
C21	C	0.289669	-0.183707	-0.000109
C22	C	0.207820	-0.173165	-0.000113
C23	C	0.190358	-0.400225	-0.000100
C24	C	0.272204	-0.410764	-0.000089
C25	C	0.321854	-0.302506	-0.000099
N26	N	0.449847	-0.216647	-0.000095
N27	N	0.405510	-0.313293	-0.000096
C28	C	1.071063	-0.270196	-0.000106
C29	C	1.158168	-0.281415	-0.000110
C30	C	0.923202	-0.494123	-0.000086
C31	C	0.925509	-0.633765	-0.000082
C32	C	1.000152	0.177229	-0.000104
C33	C	0.997981	0.308438	-0.000093
C34	C	0.855203	0.292815	-0.000072
C35	C	0.857375	0.161609	-0.000076
C36	C	0.887060	-0.326378	-0.740055
C37	C	0.891190	-0.320144	-0.652649
C38	C	0.946142	-0.236996	-0.608947
C39	C	0.996961	-0.160068	-0.652656
C40	C	0.992826	-0.166297	-0.740061
C41	C	0.964174	-0.209779	-0.347541
C42	C	0.968306	-0.203559	-0.260130
C43	C	0.862534	-0.363634	-0.260129
C44	C	0.858408	-0.369861	-0.347535
C45	C	0.909224	-0.292928	-0.391236
N46	N	0.950366	-0.230624	-0.519604
N47	N	0.904995	-0.299294	-0.480578
N48	N	0.937877	-0.249459	0.216242
H49	H	0.673744	-0.453521	-0.000057
C50	C	0.548066	0.009703	-0.000059
C51	C	0.465766	-0.004222	-0.000039
C52	C	0.433411	0.114474	0.000004
H53	H	0.562704	0.051255	-0.048470
H54	H	0.567301	0.058110	0.048382
H55	H	0.446539	-0.052609	-0.048475
H56	H	0.451106	-0.045753	0.048368
H57	H	0.452645	0.162881	0.048445
H58	H	0.448055	0.156017	-0.048408
H59	H	0.377567	0.105043	0.000025
H60	H	0.181613	-0.076419	-0.000119
H61	H	0.330085	-0.095555	-0.000118
H62	H	0.149924	-0.488363	-0.000094
H63	H	1.005552	-0.147140	-0.383116
H64	H	0.800125	0.101836	-0.000068
H65	H	0.705432	-0.041574	-0.000087
H66	H	1.041700	-0.092361	-0.617070
C67	C	0.776503	0.355508	0.000115
C68	C	0.737341	0.324020	0.071571
C69	C	0.664844	0.381760	0.071776
H70	H	0.745150	0.327379	-0.048247
H71	H	0.785247	0.444175	0.000160
H72	H	0.728594	0.235371	0.071519
H73	H	0.768670	0.352150	0.119945
H74	H	0.673588	0.470427	0.071821
H75	H	0.633498	0.353626	0.023411
H76	H	0.638267	0.360413	0.120261
H77	H	1.055227	0.368204	-0.000097
C78	C	0.827315	-0.416688	-0.787347
C79	C	0.783680	-0.482688	-0.730362
C80	C	0.728625	-0.565877	-0.773894
H81	H	0.854106	-0.474401	-0.821466
H82	H	0.792763	-0.370625	-0.821407
H83	H	0.818227	-0.528748	-0.696317
H84	H	0.756872	-0.425008	-0.696241
H85	H	0.694073	-0.519814	-0.807953
H86	H	0.755423	-0.623582	-0.808011
H87	H	0.699007	-0.610660	-0.735236
H88	H	0.821161	-0.426267	-0.224539
C89	C	1.027995	-0.113147	-0.212832
C90	C	1.071599	-0.047081	-0.269810
C91	C	1.126583	0.036221	-0.226269
H92	H	1.062581	-0.159092	-0.178752
H93	H	1.001123	-0.055491	-0.178733
H94	H	1.098470	-0.104729	-0.303894
H95	H	1.037035	-0.001110	-0.303891
H96	H	1.099710	0.093878	-0.192170
H97	H	1.161163	-0.009734	-0.192191
H98	H	1.156170	0.081065	-0.264922
H99	H	0.298407	-0.507503	-0.000073
C100	C	1.048091	-0.082720	-0.787362
C101	C	1.097112	-0.008588	-0.730385
C102	C	1.148035	0.068416	-0.773927
H103	H	1.018063	-0.029873	-0.821440
H104	H	1.079422	-0.133625	-0.821463
H105	H	1.065785	0.042312	-0.696299
H106	H	1.127157	-0.061401	-0.696305
H107	H	1.179366	0.017511	-0.808028
H108	H	1.118000	0.121254	-0.808004
H109	H	1.181307	0.118715	-0.735275
C110	C	0.836154	-0.403742	-0.605098
C111	C	0.880734	-0.481295	-0.554932
C112	C	0.830060	-0.558318	-0.511111
H113	H	0.802825	-0.454271	-0.643552
H114	H	0.804874	-0.352845	-0.570935
H115	H	0.912000	-0.532187	-0.589092
H116	H	0.914061	-0.430800	-0.516463
H117	H	0.798781	-0.507421	-0.476947
H118	H	0.796734	-0.608839	-0.549570
H119	H	0.860301	-0.610939	-0.477062
H120	H	1.059167	0.130181	-0.000118
C121	C	0.511739	-0.463729	-0.000236
C122	C	0.460899	-0.469457	-0.071689
C123	C	0.411189	-0.577688	-0.071868
H124	H	0.481649	-0.460966	0.048128
H125	H	0.542600	-0.536032	-0.000269
H126	H	0.430041	-0.397173	-0.071649
H127	H	0.490968	-0.472240	-0.120065
H128	H	0.442050	-0.649991	-0.071901
H129	H	0.381104	-0.574915	-0.023501
H130	H	0.376693	-0.581595	-0.120351
H131	H	0.813662	-0.437566	-0.383115
