data_functionalizedCrystal
_audit_creation_method	'MofGen! by Chris Wilmer'
_symmetry_space_group_name_H-M	'P1'
_symmetry_Int_Tables_number	1
_symmetry_cell_setting	triclinic
loop_
_symmetry_equiv_pos_as_xyz
  x,y,z
_cell_length_a	16.109301
_cell_length_b	16.109301
_cell_length_c	14.586319
_cell_angle_alpha	90.004358
_cell_angle_beta	90.001418
_cell_angle_gamma	83.461532
loop_
_atom_site_label
_atom_site_type_symbol
_atom_site_fract_x
_atom_site_fract_y
_atom_site_fract_z
O1	O	1.103132	0.106867	0.076182
O2	O	1.603132	0.606867	0.576182
O3	O	0.861070	0.120166	0.076197
O4	O	1.361070	0.620166	0.576197
O5	O	0.988750	-0.007515	0.076183
O6	O	1.488750	0.492485	0.576183
O7	O	0.975451	0.234547	0.076196
O8	O	1.475451	0.734547	0.576196
O9	O	0.988740	-0.007518	-0.076298
O10	O	1.488740	0.492482	0.423702
O11	O	0.861059	0.120163	-0.076284
O12	O	1.361059	0.620163	0.423716
O13	O	1.103121	0.106864	-0.076298
O14	O	1.603121	0.606864	0.423702
Cu15	Cu	0.982089	0.113513	-0.090214
Cu16	Cu	1.482089	0.613513	0.409786
Cu17	Cu	0.982102	0.113517	0.090112
Cu18	Cu	1.482102	0.613517	0.590112
O19	O	0.975441	0.234544	-0.076285
O20	O	1.475441	0.734544	0.423715
C21	C	0.830090	0.119626	-0.000042
C22	C	1.330090	0.619626	0.499958
C23	C	0.737794	0.118011	-0.000036
C24	C	1.237794	0.618011	0.499964
C25	C	0.988206	-0.038491	-0.000057
C26	C	1.488206	0.461509	0.499943
C27	C	0.986591	-0.130786	-0.000055
C28	C	1.486591	0.369214	0.499945
C29	C	0.515522	0.190018	-0.000043
C30	C	1.015522	0.690018	0.499957
C31	C	0.428802	0.188494	-0.000049
C32	C	0.928802	0.688494	0.499951
C33	C	0.448676	0.037006	-0.000053
C34	C	0.948676	0.537006	0.499947
C35	C	0.535395	0.038530	-0.000054
C36	C	1.035395	0.538530	0.499946
C37	C	0.568815	0.115039	-0.000044
C38	C	1.068815	0.615039	0.499956
C39	C	0.395376	0.111990	-0.000049
C40	C	0.895376	0.611990	0.499951
C41	C	0.301350	0.110337	-0.000056
C42	C	0.801350	0.610337	0.499944
C43	C	0.662847	0.116693	-0.000039
C44	C	1.162847	0.616693	0.499961
C45	C	1.134101	0.107404	-0.000058
C46	C	1.634101	0.607404	0.499942
C47	C	1.226397	0.109019	-0.000057
C48	C	1.726397	0.609019	0.499943
C49	C	1.057074	-0.439785	-0.000044
C50	C	1.557074	0.060215	0.499956
C51	C	1.058600	-0.353064	-0.000049
C52	C	1.558600	0.146936	0.499951
C53	C	0.907111	-0.333191	-0.000052
C54	C	1.407111	0.166809	0.499948
C55	C	0.905586	-0.419910	-0.000053
C56	C	1.405586	0.080090	0.499947
C57	C	0.980571	-0.473205	-0.000045
C58	C	1.480571	0.026795	0.499955
C59	C	0.983620	-0.299766	-0.000049
C60	C	1.483620	0.200234	0.499951
C61	C	0.985274	-0.205740	-0.000055
C62	C	1.485274	0.294260	0.499945
C63	C	0.978917	-0.567237	-0.000041
C64	C	1.478917	-0.067237	0.499959
C65	C	0.975985	0.265521	-0.000043
C66	C	1.475985	0.765521	0.499957
C67	C	0.977600	0.357816	-0.000038
C68	C	1.477600	0.857816	0.499962
N69	N	0.982087	0.113510	-0.217046
N70	N	1.482087	0.613510	0.282954
C71	C	1.038646	0.056991	-0.548045
C72	C	1.538646	0.556991	-0.048045
C73	C	1.038644	0.056992	-0.452064
C74	C	1.538644	0.556992	0.047936
C75	C	0.925549	0.170038	-0.452063
C76	C	1.425549	0.670038	0.047937
C77	C	0.925556	0.170040	-0.548042
C78	C	1.425556	0.670040	-0.048042
C79	C	0.982103	0.113513	-0.596031
C80	C	1.482103	0.613513	-0.096031
C81	C	0.982094	0.113510	-0.404070
C82	C	1.482094	0.613510	0.095930
C83	C	0.982092	0.113511	-0.300003
C84	C	1.482092	0.613511	0.199997
C85	C	0.982107	0.113513	-0.700105
C86	C	1.482107	0.613513	-0.200105
N87	N	0.982111	0.113513	0.216944
N88	N	1.482111	0.613513	0.716944
H89	H	0.542730	0.252317	-0.000042
H90	H	1.042730	0.752317	0.499958
H91	H	0.879511	0.216071	-0.587115
H92	H	1.379511	0.716071	-0.087115
H93	H	0.385413	0.249550	-0.000050
H94	H	0.885413	0.749550	0.499950
H95	H	0.846062	-0.289788	-0.000057
H96	H	1.346062	0.210212	0.499943
Cl97	Cl	0.406655	-0.059172	-0.000059
Cl98	Cl	0.906655	0.440828	0.499941
Cl99	Cl	0.854461	0.241095	-0.391730
Cl100	Cl	1.354461	0.741095	0.108270
H101	H	1.118131	-0.483175	-0.000037
H102	H	1.618131	0.016825	0.499963
Cl103	Cl	0.602397	-0.055737	-0.000063
Cl104	Cl	1.102397	0.444263	0.499937
H105	H	1.120896	-0.325859	-0.000050
H106	H	1.620896	0.174141	0.499950
H107	H	1.084691	0.010964	-0.587116
H108	H	1.584691	0.510964	-0.087116
H109	H	1.084687	0.010968	-0.412997
H110	H	1.584687	0.510968	0.087003
Cl111	Cl	0.809402	-0.461927	-0.000060
Cl112	Cl	1.309402	0.038073	0.499940
