data_functionalizedCrystal
_audit_creation_method	'MofGen! by Chris Wilmer'
_symmetry_space_group_name_H-M	'P1'
_symmetry_Int_Tables_number	1
_symmetry_cell_setting	triclinic
loop_
_symmetry_equiv_pos_as_xyz
  x,y,z
_cell_length_a	9.065215
_cell_length_b	7.540329
_cell_length_c	14.971486
_cell_angle_alpha	90.003400
_cell_angle_beta	95.685587
_cell_angle_gamma	89.996713
loop_
_atom_site_label
_atom_site_type_symbol
_atom_site_fract_x
_atom_site_fract_y
_atom_site_fract_z
O1	O	1.957743	-0.147463	-0.131139
O2	O	1.528240	-0.147471	-0.141900
O3	O	1.754503	-0.147454	-0.006405
O4	O	1.731480	-0.147480	-0.266634
O5	O	1.754486	0.147511	-0.006405
O6	O	1.528223	0.147494	-0.141899
O7	O	1.957726	0.147502	-0.131139
Cu8	Cu	1.742973	0.174431	-0.136519
Cu9	Cu	1.742993	-0.174400	-0.136520
O10	O	1.731463	0.147485	-0.266633
C11	C	1.473265	0.000010	-0.140866
C12	C	1.309485	0.000008	-0.137776
N13	N	1.742969	0.419779	-0.136518
C14	C	2.012700	0.000016	-0.132173
C15	C	2.176481	0.000008	-0.135263
C16	C	1.753465	0.000028	0.026928
C17	C	1.750380	0.000026	0.126248
N18	N	1.742995	0.580252	-0.136518
C19	C	1.732501	-0.000001	-0.299966
C20	C	1.735586	-0.000011	-0.399286
C21	C	1.883303	0.000030	0.182483
C22	C	1.880395	0.000012	0.275804
C23	C	1.744562	0.000003	0.312888
C24	C	1.611628	-0.000006	0.256645
C25	C	1.614538	-0.000001	0.163326
C26	C	1.605573	-0.000013	0.451153
C27	C	1.602663	-0.000015	0.544479
C28	C	1.871431	0.000000	0.563631
C29	C	1.874340	0.000005	0.470312
C30	C	1.741406	-0.000000	0.414075
H31	H	1.993914	0.000048	0.152297
H32	H	1.988635	0.000019	0.321588
Br33	Br	2.058687	0.000013	0.419984
H34	H	1.979671	-0.000001	0.609423
Br35	Br	1.434134	-0.000020	0.087004
H36	H	1.492055	0.000007	0.574669
H37	H	1.501030	-0.000025	0.286846
Br38	Br	1.425160	-0.000027	0.374832
