data_functionalizedCrystal
_audit_creation_method	'MofGen! by Chris Wilmer'
_symmetry_space_group_name_H-M	'P1'
_symmetry_Int_Tables_number	1
_symmetry_cell_setting	triclinic
loop_
_symmetry_equiv_pos_as_xyz
  x,y,z
_cell_length_a	19.188925
_cell_length_b	19.188930
_cell_length_c	16.053802
_cell_angle_alpha	92.551696
_cell_angle_beta	87.426601
_cell_angle_gamma	83.143665
loop_
_atom_site_label
_atom_site_type_symbol
_atom_site_fract_x
_atom_site_fract_y
_atom_site_fract_z
O1	O	0.929103	0.084200	-0.069456
O2	O	1.429103	0.584200	0.430544
O3	O	0.725791	0.095938	-0.069455
O4	O	1.225791	0.595938	0.430545
O5	O	0.833313	-0.011586	-0.069439
O6	O	1.333313	0.488414	0.430561
O7	O	0.821580	0.191724	-0.069472
O8	O	1.321580	0.691724	0.430528
O9	O	0.827395	-0.005692	0.069419
O10	O	1.327395	0.494308	0.569419
O11	O	0.719873	0.101832	0.069403
O12	O	1.219873	0.601832	0.569403
O13	O	0.923185	0.090094	0.069402
O14	O	1.423185	0.590094	0.569402
Zn15	Zn	0.820589	0.096899	0.091449
Zn16	Zn	1.320589	0.596899	0.591449
Zn17	Zn	0.828387	0.089133	-0.091502
Zn18	Zn	1.328387	0.589133	0.408498
O19	O	0.815662	0.197618	0.069386
O20	O	1.315662	0.697618	0.569386
C21	C	0.696821	0.098505	-0.000026
C22	C	1.196821	0.598505	0.499974
C23	C	0.619316	0.097366	-0.000025
C24	C	1.119316	0.597366	0.499975
C25	C	0.057546	0.152830	-0.000036
C26	C	0.557546	0.652830	0.499964
C27	C	0.130370	0.153906	-0.000040
C28	C	0.630370	0.653906	0.499960
C29	C	0.175304	0.090815	-0.000029
C30	C	0.675304	0.590815	0.499971
C31	C	0.147410	0.026641	-0.000034
C32	C	0.647410	0.526641	0.499966
C33	C	0.074588	0.025566	-0.000038
C34	C	0.574588	0.525566	0.499962
N35	N	0.293966	0.047145	0.047247
N36	N	0.793966	0.547145	0.547247
N37	N	0.363143	0.048170	0.047252
N38	N	0.863143	0.548170	0.547252
C39	C	0.394712	0.094049	-0.000019
C40	C	0.894712	0.594049	0.499981
N41	N	0.354490	0.138874	-0.047286
N42	N	0.854490	0.638874	0.452714
N43	N	0.285306	0.137851	-0.047287
N44	N	0.785306	0.637851	0.452713
C45	C	0.254268	0.091973	-0.000025
C46	C	0.754268	0.591973	0.499975
C47	C	0.501562	0.159385	-0.000025
C48	C	1.001562	0.659385	0.499975
C49	C	0.574387	0.160459	-0.000035
C50	C	1.074387	0.660459	0.499965
C51	C	0.591426	0.033192	-0.000020
C52	C	1.091426	0.533192	0.499980
C53	C	0.518602	0.032120	-0.000019
C54	C	1.018602	0.532120	0.499981
C55	C	0.473674	0.095219	-0.000017
C56	C	0.973674	0.595219	0.499983
C57	C	0.829974	-0.034650	-0.000008
C58	C	1.329974	0.465350	0.499992
C59	C	0.828833	-0.112154	-0.000001
C60	C	1.328833	0.387846	0.499999
C61	C	0.891924	-0.157079	0.000003
C62	C	1.391924	0.342921	0.500003
C63	C	0.890853	-0.229904	-0.000011
C64	C	1.390853	0.270096	0.499989
C65	C	0.826687	-0.257799	-0.000011
C66	C	1.326687	0.242201	0.499989
C67	C	0.763588	-0.212864	-0.000019
C68	C	1.263588	0.287136	0.499981
C69	C	0.764661	-0.140042	-0.000014
C70	C	1.264661	0.359958	0.499986
N71	N	0.775625	-0.363797	0.047245
N72	N	1.275625	0.136203	0.547245
N73	N	0.774610	-0.432976	0.047242
N74	N	1.274610	0.067024	0.547242
C75	C	0.823449	-0.477208	-0.000028
C76	C	1.323449	0.022792	0.499972
N77	N	0.873353	-0.449650	-0.047284
N78	N	1.373353	0.050350	0.452716
N79	N	0.874370	-0.380465	-0.047278
N80	N	1.374370	0.119535	0.452722
C81	C	0.825516	-0.336762	-0.000017
C82	C	1.325516	0.163238	0.499983
C83	C	0.885383	-0.601098	-0.000040
C84	C	1.385383	-0.101098	0.499960
C85	C	0.884310	-0.673924	-0.000058
C86	C	1.384310	-0.173924	0.499942
C87	C	0.757042	-0.656883	-0.000059
C88	C	1.257042	-0.156883	0.499941
C89	C	0.758118	-0.584059	-0.000048
C90	C	1.258118	-0.084059	0.499952
C91	C	0.822290	-0.556171	-0.000035
C92	C	1.322290	-0.056171	0.499965
C93	C	0.952155	0.087526	-0.000029
C94	C	1.452155	0.587526	0.499971
C95	C	1.029660	0.088665	-0.000036
C96	C	1.529660	0.588665	0.499964
C97	C	0.819002	0.220682	-0.000047
C98	C	1.319002	0.720682	0.499953
C99	C	0.820143	0.298186	-0.000060
C100	C	1.320143	0.798186	0.499940
N101	N	0.815273	0.102198	0.216309
N102	N	1.315273	0.602198	0.716309
N103	N	0.833709	0.083828	-0.216362
N104	N	1.333709	0.583828	0.283638
C105	C	0.861040	0.056463	0.260009
C106	C	1.361040	0.556463	0.760009
C107	C	0.857328	0.060176	0.347415
C108	C	1.357328	0.560176	0.847415
C109	C	0.807850	0.109629	0.391119
C110	C	1.307850	0.609629	0.891119
C111	C	0.762078	0.155367	0.347413
C112	C	1.262078	0.655367	0.847413
C113	C	0.765788	0.151649	0.260008
C114	C	1.265788	0.651649	0.760008
C115	C	0.791646	0.125848	0.652527
C116	C	1.291646	0.625848	1.152527
C117	C	0.787941	0.129563	0.739937
C118	C	1.287941	0.629563	1.239937
C119	C	0.883190	0.034371	0.739934
C120	C	1.383190	0.534371	1.239934
C121	C	0.886898	0.030661	0.652528
C122	C	1.386898	0.530661	1.152528
C123	C	0.841124	0.076396	0.608829
C124	C	1.341124	0.576396	1.108829
N125	N	0.804056	0.113428	0.480463
N126	N	1.304056	0.613428	0.980463
N127	N	0.844915	0.072594	0.519487
N128	N	1.344915	0.572594	1.019487
H129	H	0.464979	0.210764	-0.000026
H130	H	0.964979	0.710764	0.499974
H131	H	0.704797	-0.679594	-0.000063
H132	H	1.204797	-0.179594	0.499937
H133	H	0.713283	-0.103463	-0.000017
H134	H	1.213283	0.396537	0.499983
H135	H	0.894595	0.022934	0.382996
H136	H	1.394595	0.522934	0.882996
C137	C	1.003773	-0.152208	-0.071375
C138	C	1.503773	0.347792	0.428625
C139	C	0.962462	-0.126427	0.000007
C140	C	1.462462	0.373573	0.500007
H141	H	1.047319	-0.133280	-0.071374
H142	H	1.547319	0.366720	0.428626
H143	H	1.012159	-0.202002	-0.071370
H144	H	1.512159	0.297998	0.428630
H145	H	0.979862	-0.138815	-0.119792
H146	H	1.479862	0.361185	0.380208
H147	H	0.986371	-0.139825	0.048425
H148	H	1.486371	0.360175	0.548425
H149	H	0.954078	-0.076622	0.000010
H150	H	1.454078	0.423378	0.500010
C151	C	0.637901	-0.188708	-0.000028
C152	C	1.137901	0.311292	0.499972
C153	C	0.693054	-0.243523	-0.000022
C154	C	1.193054	0.256477	0.499978
H155	H	0.594357	-0.207636	-0.000039
H156	H	1.094357	0.292364	0.499961
H157	H	0.638900	-0.158612	0.048394
H158	H	1.138900	0.341388	0.548394
H159	H	0.643039	-0.162707	-0.048452
H160	H	1.143039	0.337293	0.451548
H161	H	0.687919	-0.269521	0.048405
H162	H	1.187919	0.230479	0.548405
H163	H	0.692055	-0.273631	-0.048449
H164	H	1.192055	0.226369	0.451551
C165	C	0.995504	-0.713875	-0.071428
C166	C	1.495504	-0.213875	0.428572
C167	C	0.953667	-0.723307	-0.000055
C168	C	1.453667	-0.223307	0.499945
H169	H	1.038324	-0.744359	-0.071421
H170	H	1.538324	-0.244359	0.428579
H171	H	0.971252	-0.724360	-0.119846
H172	H	1.471252	-0.224360	0.380154
H173	H	1.005318	-0.666510	-0.071410
H174	H	1.505318	-0.166510	0.428590
H175	H	0.943849	-0.770671	-0.000076
H176	H	1.443849	-0.270671	0.499924
H177	H	0.977924	-0.712827	0.048376
H178	H	1.477924	-0.212827	0.548376
H179	H	0.597090	0.212711	-0.000042
H180	H	1.097090	0.712711	0.499958
C181	C	0.768312	0.228812	0.838199
C182	C	1.268312	0.728812	1.338199
C183	C	0.733548	0.183926	0.787973
C184	C	1.233548	0.683926	1.287973
H185	H	0.734733	0.262374	0.867848
H186	H	1.234733	0.762374	1.367848
H187	H	0.795034	0.202108	0.876733
H188	H	1.295034	0.702108	1.376733
H189	H	0.798738	0.252403	0.804074
H190	H	1.298738	0.752403	1.304074
H191	H	0.703125	0.160331	0.822099
H192	H	1.203125	0.660331	1.322099
H193	H	0.706814	0.210633	0.749435
H194	H	1.206814	0.710633	1.249435
H195	H	0.706742	-0.547480	-0.000047
H196	H	1.206742	-0.047480	0.499953
H197	H	0.184000	-0.024729	-0.000027
H198	H	0.684000	0.475271	0.499973
H199	H	0.901332	0.016196	0.224431
H200	H	1.401332	0.516196	0.724431
H201	H	0.754375	0.163089	0.616954
H202	H	1.254375	0.663089	1.116954
C203	C	0.686245	-0.042454	-0.071390
C204	C	1.186245	0.457546	0.428610
C205	C	0.640809	-0.036161	-0.000010
C206	C	1.140809	0.463839	0.499990
H207	H	0.716736	-0.085270	-0.071383
H208	H	1.216736	0.414730	0.428617
H209	H	0.659545	-0.042283	-0.119804
H210	H	1.159545	0.457717	0.380196
H211	H	0.713275	-0.004081	-0.071384
H212	H	1.213275	0.495919	0.428616
H213	H	0.613775	-0.074531	-0.000020
H214	H	1.113775	0.425469	0.499980
H215	H	0.667512	-0.036338	0.048416
H216	H	1.167512	0.463662	0.548416
H217	H	0.051884	-0.026686	-0.000038
H218	H	0.551884	0.473314	0.499962
C219	C	0.963455	-0.532095	-0.071412
C220	C	1.463455	-0.032095	0.428588
C221	C	0.955917	-0.570434	-0.000037
C222	C	1.455917	-0.070434	0.499963
H223	H	1.006998	-0.513162	-0.071406
H224	H	1.506998	-0.013162	0.428594
H225	H	0.962459	-0.562197	-0.119829
H226	H	1.462459	-0.062197	0.380171
H227	H	0.926027	-0.494918	-0.071396
H228	H	1.426027	0.005082	0.428604
H229	H	0.993343	-0.607615	-0.000056
H230	H	1.493343	-0.107615	0.499944
H231	H	0.956920	-0.540331	0.048393
H232	H	1.456920	-0.040331	0.548393
C233	C	0.980669	-0.063066	0.661308
C234	C	1.480669	0.436934	1.161308
C235	C	0.941282	-0.023703	0.604491
C236	C	1.441282	0.476297	1.104491
H237	H	1.014240	-0.096630	0.631650
H238	H	1.514240	0.403370	1.131650
H239	H	1.004246	-0.032617	0.695380
H240	H	1.504246	0.467383	1.195380
H241	H	0.950230	-0.086657	0.695417
H242	H	1.450230	0.413343	1.195417
H243	H	0.971720	-0.000108	0.570386
H244	H	1.471720	0.499892	1.070386
H245	H	0.917703	-0.054157	0.570404
H246	H	1.417703	0.445843	1.070404
C247	C	0.714104	0.203338	0.481397
C248	C	1.214104	0.703338	0.981397
C249	C	0.707693	0.209729	0.395450
C250	C	1.207693	0.709729	0.895450
H251	H	0.680531	0.236905	0.511051
H252	H	1.180531	0.736905	1.011051
H253	H	0.706055	0.157375	0.495736
H254	H	1.206055	0.657375	0.995736
H255	H	0.760071	0.211414	0.495695
H256	H	1.260071	0.711414	0.995695
H257	H	0.661726	0.201648	0.381152
H258	H	1.161726	0.701648	0.881152
H259	H	0.715736	0.255703	0.381106
H260	H	1.215736	0.755703	0.881106
H261	H	0.942231	-0.266489	-0.000011
H262	H	1.442231	0.233511	0.499989
H263	H	0.495897	-0.020130	-0.000014
H264	H	0.995897	0.479870	0.499986
C265	C	0.671273	0.246121	0.268785
C266	C	1.171273	0.746121	0.768785
C267	C	0.715482	0.201927	0.211969
C268	C	1.215482	0.701927	0.711969
H269	H	0.640218	0.277162	0.239126
H270	H	1.140218	0.777162	0.739126
H271	H	0.644803	0.218571	0.302890
H272	H	1.144803	0.718571	0.802890
H273	H	0.698818	0.272612	0.302861
H274	H	1.198818	0.772612	0.802861
H275	H	0.687937	0.175432	0.177896
H276	H	1.187937	0.675432	0.677896
H277	H	0.741954	0.229480	0.177849
H278	H	1.241954	0.729480	0.677849
H279	H	0.020970	0.204210	-0.000038
H280	H	0.520970	0.704210	0.499962
C281	C	0.141321	0.259696	-0.071411
C282	C	0.641321	0.759696	0.428589
C283	C	0.161033	0.224441	-0.000032
C284	C	0.661033	0.724441	0.499968
H285	H	0.160248	0.303242	-0.071400
H286	H	0.660248	0.803242	0.428600
H287	H	0.158825	0.231680	-0.119825
H288	H	0.658825	0.731680	0.380175
H289	H	0.091520	0.268084	-0.071407
H290	H	0.591520	0.768084	0.428593
H291	H	0.210834	0.216048	-0.000039
H292	H	0.710834	0.716048	0.499961
H293	H	0.143533	0.252463	0.048395
H294	H	0.643533	0.752463	0.548395
H295	H	0.920457	-0.002865	0.775522
H296	H	1.420457	0.497135	1.275522
