data_functionalizedCrystal
_audit_creation_method	'MofGen! by Chris Wilmer'
_symmetry_space_group_name_H-M	'P1'
_symmetry_Int_Tables_number	1
_symmetry_cell_setting	triclinic
loop_
_symmetry_equiv_pos_as_xyz
  x,y,z
_cell_length_a	25.639242
_cell_length_b	25.639240
_cell_length_c	12.759393
_cell_angle_alpha	90.039120
_cell_angle_beta	89.969545
_cell_angle_gamma	89.961311
loop_
_atom_site_label
_atom_site_type_symbol
_atom_site_fract_x
_atom_site_fract_y
_atom_site_fract_z
Zn1	Zn	0.799252	0.208182	-0.594261
Zn2	Zn	0.799156	0.295629	-0.418558
Zn3	Zn	0.711815	0.208203	-0.418564
Zn4	Zn	0.711766	0.295582	-0.594163
O5	O	0.755497	0.251899	-0.506387
O6	O	0.872404	0.219794	-0.570993
O7	O	0.787550	0.284060	-0.271538
O8	O	0.723475	0.135035	-0.441914
O9	O	0.872334	0.284040	-0.441904
O10	O	0.787714	0.135020	-0.570998
O11	O	0.723381	0.219828	-0.271542
O12	O	0.638644	0.219782	-0.441819
O13	O	0.723391	0.283960	-0.741197
O14	O	0.638608	0.283979	-0.570831
O15	O	0.787666	0.219748	-0.741269
O16	O	0.787502	0.368788	-0.441809
O17	O	0.723298	0.368753	-0.570825
C18	C	0.619655	0.251878	-0.506315
C19	C	0.561541	0.251882	-0.506310
C20	C	0.201168	0.285382	-0.573499
C21	C	0.146563	0.285385	-0.573516
O22	O	0.118318	0.313843	-0.630583
N23	N	0.119258	0.251913	-0.506455
C24	C	0.146560	0.218432	-0.439381
O25	O	0.118321	0.189961	-0.382343
C26	C	0.201163	0.218427	-0.439370
C27	C	0.228466	0.251905	-0.506428
C28	C	0.228470	0.318857	-0.640552
C29	C	0.283071	0.318854	-0.640534
C30	C	0.310369	0.285377	-0.573463
C31	C	0.283066	0.251902	-0.506410
C32	C	0.228464	0.184943	-0.372302
C33	C	0.283071	0.184940	-0.372298
C34	C	0.310374	0.218418	-0.439356
C35	C	0.364965	0.218422	-0.439320
N36	N	0.392270	0.251894	-0.506381
C37	C	0.364972	0.285371	-0.573452
C38	C	0.031889	0.218445	-0.439409
C39	C	-0.022713	0.218453	-0.439414
C40	C	-0.022706	0.285406	-0.573550
C41	C	0.031897	0.285400	-0.573540
C42	C	0.059195	0.251917	-0.506470
C43	C	0.479637	0.285364	-0.573408
C44	C	0.534242	0.285360	-0.573381
C45	C	0.534231	0.218405	-0.439249
C46	C	0.479630	0.218411	-0.439272
C47	C	0.452335	0.251892	-0.506360
O48	O	0.393245	0.189977	-0.382286
O49	O	0.393218	0.313833	-0.630491
C50	C	0.755399	0.387741	-0.506329
C51	C	0.755404	0.445856	-0.506339
C52	C	0.788972	0.806224	-0.439282
C53	C	0.788988	0.860828	-0.439292
O54	O	0.817460	0.889070	-0.382246
N55	N	0.755539	0.888138	-0.506410
C56	C	0.722076	0.860840	-0.573530
O57	O	0.693627	0.889083	-0.630620
C58	C	0.722063	0.806237	-0.573524
C59	C	0.755510	0.778930	-0.506394
C60	C	0.822418	0.778917	-0.372159
C61	C	0.822401	0.724317	-0.372148
C62	C	0.788939	0.697023	-0.439260
C63	C	0.755494	0.724330	-0.506383
C64	C	0.688602	0.778940	-0.640648
C65	C	0.688593	0.724333	-0.640637
C66	C	0.722040	0.697027	-0.573508
C67	C	0.722015	0.642436	-0.573484
N68	N	0.755464	0.615126	-0.506366
C69	C	0.788926	0.642420	-0.439254
C70	C	0.722106	0.975511	-0.573538
C71	C	0.722116	1.030113	-0.573539
C72	C	0.789030	1.030098	-0.439302
C73	C	0.789017	0.975494	-0.439297
C74	C	0.755555	0.948201	-0.506420
C75	C	0.788888	0.527755	-0.439235
C76	C	0.788866	0.473149	-0.439227
C77	C	0.721955	0.473170	-0.573466
C78	C	0.721974	0.527770	-0.573471
C79	C	0.755445	0.555061	-0.506352
O80	O	0.693559	0.614159	-0.630505
O81	O	0.817375	0.614170	-0.382183
C82	C	0.891870	0.251920	-0.506459
C83	C	0.949984	0.251929	-0.506489
C84	C	0.755591	1.115526	-0.506450
C85	C	0.755580	1.057412	-0.506430
C86	C	0.755534	0.251846	-0.780420
C87	C	0.755549	0.251824	-0.897197
C88	C	0.789022	0.218385	-0.952098
C89	C	0.789035	0.218366	-1.061822
C90	C	0.722100	0.285229	-1.061734
C91	C	0.722085	0.285245	-0.952012
C92	C	0.822486	0.184964	-0.897283
C93	C	0.855962	0.151524	-0.952184
C94	C	0.855974	0.151505	-1.061909
C95	C	0.822511	0.184927	-1.116731
C96	C	0.755491	0.251914	-0.233419
C97	C	0.755577	0.251789	-0.116643
H98	H	0.556470	0.312623	-0.627988
C99	C	0.622474	0.773448	-0.773352
C100	C	0.651839	0.808946	-0.714448
H101	H	0.599780	0.791973	-0.818920
H102	H	0.602481	0.752190	-0.727528
H103	H	0.645249	0.752112	-0.813568
H104	H	0.629064	0.830280	-0.674226
H105	H	0.671833	0.830213	-0.760277
H106	H	0.822518	0.184902	-1.206076
C107	C	-0.084142	0.211122	-0.298098
C108	C	-0.052714	0.181664	-0.365670
H109	H	-0.102657	0.188408	-0.252563
H110	H	-0.108222	0.231046	-0.338042
H111	H	-0.062859	0.233883	-0.257848
H112	H	-0.073997	0.158905	-0.405925
H113	H	-0.028631	0.161730	-0.325721
C114	C	0.858910	0.148587	-0.740151
C115	C	0.822471	0.184982	-0.776674
H116	H	0.858898	0.148598	-0.665693
H117	H	0.892640	0.157635	-0.764982
H118	H	0.849899	0.114842	-0.764998
H119	H	0.831485	0.218728	-0.751833
H120	H	0.788734	0.175937	-0.751832
H121	H	0.883228	0.124272	-1.106606
H122	H	0.206250	0.346119	-0.695176
H123	H	0.054123	0.312660	-0.628146
C124	C	0.277575	0.118761	-0.239707
C125	C	0.313075	0.148139	-0.298560
H126	H	0.296099	0.096046	-0.194179
H127	H	0.256310	0.098789	-0.285565
H128	H	0.256248	0.141526	-0.199450
H129	H	0.334401	0.125374	-0.338823
H130	H	0.334350	0.168112	-0.252697
C131	C	0.692410	0.314897	-1.229894
C132	C	0.685325	0.321970	-1.121993
H133	H	0.669709	0.337584	-1.267092
H134	H	0.684787	0.279769	-1.247896
H135	H	0.727538	0.322551	-1.247873
H136	H	0.650198	0.314312	-1.104014
H137	H	0.692944	0.357106	-1.103985
H138	H	0.849669	0.801134	-0.317508
H139	H	0.694821	0.312465	-0.907310
H140	H	0.694875	1.052342	-0.628192
C141	C	0.485144	0.351545	-0.705992
C142	C	0.449639	0.322167	-0.647151
H143	H	0.466623	0.374269	-0.751509
H144	H	0.506467	0.328785	-0.746251
H145	H	0.506413	0.371513	-0.660119
H146	H	0.428372	0.302196	-0.693024
H147	H	0.428307	0.344930	-0.606889
C148	C	0.344509	0.326193	-0.781830
C149	C	0.313076	0.355648	-0.714261
H150	H	0.363032	0.348908	-0.827347
H151	H	0.323232	0.303438	-0.822089
H152	H	0.368586	0.306261	-0.741875
H153	H	0.288996	0.375576	-0.754216
H154	H	0.334355	0.378412	-0.673998
H155	H	0.694854	0.953292	-0.628194
C156	C	-0.084071	0.292747	-0.714866
C157	C	-0.052718	0.322202	-0.647289
H158	H	-0.102596	0.315463	-0.760389
H159	H	-0.108141	0.272817	-0.674924
H160	H	-0.062735	0.269991	-0.755127
H161	H	-0.074054	0.344955	-0.607022
H162	H	-0.028645	0.342142	-0.687235
C163	C	0.093251	0.211093	-0.298086
C164	C	0.061894	0.181645	-0.365667
H165	H	0.111774	0.188373	-0.252567
H166	H	0.071922	0.233850	-0.257829
H167	H	0.117328	0.231023	-0.338032
H168	H	0.037814	0.161719	-0.325721
H169	H	0.083224	0.158879	-0.405928
C170	C	0.167079	0.114625	-0.357931
C171	C	0.198449	0.148163	-0.298571
H172	H	0.148543	0.091926	-0.312401
H173	H	0.188400	0.094636	-0.403751
H174	H	0.143012	0.134569	-0.397887
H175	H	0.222518	0.128219	-0.258621
H176	H	0.177126	0.168154	-0.252732
C177	C	0.485111	0.152231	-0.306682
C178	C	0.449616	0.181614	-0.365557
H179	H	0.466583	0.129510	-0.261184
H180	H	0.506375	0.174988	-0.266401
H181	H	0.506440	0.132261	-0.352535
H182	H	0.428289	0.201587	-0.319705
H183	H	0.428342	0.158854	-0.405841
C184	C	0.796308	0.914138	-0.297973
C185	C	0.825785	0.945481	-0.365511
H186	H	0.819010	0.895614	-0.252417
H187	H	0.776386	0.890066	-0.337941
H188	H	0.773544	0.935479	-0.257746
H189	H	0.848547	0.924139	-0.405744
H190	H	0.845716	0.969556	-0.325538
C191	C	0.617936	0.188673	-0.379693
C192	C	0.564244	0.181605	-0.365532
H193	H	0.636464	0.165948	-0.334192
H194	H	0.626854	0.223788	-0.364174
H195	H	0.626902	0.181066	-0.450318
H196	H	0.555277	0.189215	-0.294909
H197	H	0.555323	0.146482	-0.381044
C198	C	0.881500	0.063000	-0.918478
C199	C	0.892741	0.114785	-0.891929
H200	H	0.904204	0.040319	-0.881275
H201	H	0.886299	0.058208	-0.991673
H202	H	0.846373	0.055352	-0.900474
H203	H	0.927866	0.122434	-0.909940
H204	H	0.887946	0.119579	-0.818717
H205	H	0.816103	0.450918	-0.384558
C206	C	0.888549	0.729803	-0.239482
C207	C	0.859176	0.694306	-0.298371
H208	H	0.911257	0.711277	-0.193943
H209	H	0.865785	0.751132	-0.199246
H210	H	0.908533	0.751067	-0.285325
H211	H	0.839189	0.673044	-0.252529
H212	H	0.881943	0.672967	-0.338611
C213	C	0.859261	0.589074	-0.424801
C214	C	0.825687	0.557742	-0.365464
H215	H	0.881981	0.607582	-0.379256
H216	H	0.839348	0.613160	-0.464753
H217	H	0.879229	0.567728	-0.470625
H218	H	0.805715	0.579089	-0.319645
H219	H	0.845602	0.533653	-0.325494
C220	C	0.618239	0.662992	-0.655095
C221	C	0.651809	0.694334	-0.714422
H222	H	0.595533	0.644471	-0.700648
H223	H	0.598259	0.684331	-0.609291
H224	H	0.638159	0.638913	-0.615124
H225	H	0.631889	0.718416	-0.754388
H226	H	0.671791	0.672994	-0.760245
H227	H	0.816278	1.052330	-0.384659
C228	C	0.655835	0.522298	-0.706163
C229	C	0.685209	0.557789	-0.647260
H230	H	0.633143	0.540829	-0.751728
H231	H	0.635839	0.501044	-0.660339
H232	H	0.678604	0.500958	-0.746384
H233	H	0.662440	0.579127	-0.607033
H234	H	0.705207	0.579052	-0.693090
H235	H	0.694709	0.450939	-0.628105
