data_functionalizedCrystal
_audit_creation_method	'MofGen! by Chris Wilmer'
_symmetry_space_group_name_H-M	'P1'
_symmetry_Int_Tables_number	1
_symmetry_cell_setting	triclinic
loop_
_symmetry_equiv_pos_as_xyz
  x,y,z
_cell_length_a	27.732048
_cell_length_b	27.731996
_cell_length_c	13.101039
_cell_angle_alpha	93.327690
_cell_angle_beta	86.675896
_cell_angle_gamma	82.632022
loop_
_atom_site_label
_atom_site_type_symbol
_atom_site_fract_x
_atom_site_fract_y
_atom_site_fract_z
O1	O	0.643592	0.054834	-0.085094
O2	O	0.502798	0.063579	-0.085127
O3	O	0.577580	-0.011191	-0.085088
O4	O	0.568810	0.129605	-0.085134
O5	O	0.572215	-0.005818	0.085339
O6	O	0.497433	0.068953	0.085300
O7	O	0.638227	0.060208	0.085333
Zn8	Zn	0.566978	0.065433	0.112375
Zn9	Zn	0.574047	0.058354	-0.112170
O10	O	0.563444	0.134978	0.085293
C11	C	0.482109	0.066082	0.000082
C12	C	0.428454	0.065529	0.000071
C13	C	0.574717	-0.026512	0.000129
C14	C	0.574174	-0.080168	0.000140
C15	C	0.089631	0.106235	0.000102
C16	C	-0.112029	0.104184	0.000112
O17	O	-0.143293	0.141407	0.000144
N18	N	-0.131145	0.059848	0.000124
C19	C	-0.099843	0.016022	0.000141
O20	O	-0.120729	-0.021735	0.000163
C21	C	0.101816	0.018073	0.000139
C22	C	0.120929	0.062412	0.000116
C23	C	0.108744	0.150570	0.000080
C24	C	0.159156	0.151082	0.000072
C25	C	0.190455	0.107259	0.000086
C26	C	0.171341	0.062924	0.000108
C27	C	0.133117	-0.025752	0.000163
C28	C	0.183534	-0.025235	0.000165
C29	C	0.202647	0.019103	0.000142
C30	C	0.253052	0.019613	0.000114
N31	N	0.272167	0.063949	0.000101
C32	C	0.240869	0.107772	0.000087
C33	C	-0.205716	0.014948	0.000141
C34	C	-0.256131	0.014435	0.000139
C35	C	-0.268314	0.102597	0.000112
C36	C	-0.217898	0.103109	0.000105
C37	C	-0.186601	0.059284	0.000128
C38	C	0.346739	0.108844	0.000069
C39	C	0.397156	0.109352	0.000057
C40	C	0.409334	0.021190	0.000090
C41	C	0.358922	0.020681	0.000097
C42	C	0.327624	0.064512	0.000090
O43	O	0.284343	-0.017589	0.000093
O44	O	0.261764	0.145524	0.000088
C45	C	0.039218	0.105723	0.000110
C46	C	0.020105	0.061388	0.000132
C47	C	0.051403	0.017565	0.000146
C48	C	-0.030310	0.060875	0.000131
C49	C	-0.061608	0.104698	0.000117
C50	C	-0.042492	0.149034	0.000104
C51	C	0.007920	0.149546	0.000096
C52	C	0.032287	-0.026771	0.000159
C53	C	-0.018125	-0.027280	0.000165
C54	C	-0.049424	0.016543	0.000151
C55	C	0.573686	-0.415815	-0.092811
C56	C	0.571625	-0.617473	-0.092830
O57	O	0.573826	-0.646035	-0.171838
N58	N	0.568445	-0.639761	0.000069
C59	C	0.565776	-0.611631	0.092979
O60	O	0.563018	-0.635215	0.171995
C61	C	0.567833	-0.409973	0.092997
C62	C	0.571019	-0.387688	0.000092
C63	C	0.576871	-0.393530	-0.185708
C64	C	0.577389	-0.343118	-0.185703
C65	C	0.574721	-0.314992	-0.092800
C66	C	0.571536	-0.337277	0.000097
C67	C	0.565160	-0.381843	0.185906
C68	C	0.565674	-0.331425	0.185902
C69	C	0.568859	-0.309141	0.092997
C70	C	0.569387	-0.258739	0.093006
N71	N	0.572567	-0.236451	0.000107
C72	C	0.575235	-0.264577	-0.092796
C73	C	0.564697	-0.717505	0.092964
C74	C	0.564184	-0.767919	0.092960
C75	C	0.570032	-0.773758	-0.092850
C76	C	0.570549	-0.723343	-0.092845
C77	C	0.567878	-0.695217	0.000065
C78	C	0.576322	-0.158710	-0.092777
C79	C	0.576842	-0.108294	-0.092763
C80	C	0.570990	-0.102459	0.093045
C81	C	0.570473	-0.152871	0.093032
C82	C	0.573138	-0.180995	0.000113
O83	O	0.567183	-0.230147	0.171973
O84	O	0.577981	-0.240983	-0.171800
C85	C	0.573168	-0.466226	-0.092817
C86	C	0.569983	-0.488511	0.000081
C87	C	0.567316	-0.460384	0.092984
C88	C	0.569470	-0.538925	0.000077
C89	C	0.572137	-0.567052	-0.092826
C90	C	0.575318	-0.544764	-0.185725
C91	C	0.575836	-0.494352	-0.185720
C92	C	0.564135	-0.482673	0.185882
C93	C	0.563618	-0.533084	0.185869
C94	C	0.566285	-0.561211	0.092966
C95	C	0.658916	0.057705	0.000121
C96	C	0.712571	0.058258	0.000125
C97	C	0.566308	0.150298	0.000074
C98	C	0.566851	0.203954	0.000057
N99	N	0.562157	0.070265	0.265621
N100	N	0.578872	0.053518	-0.265416
C101	C	0.555597	0.076843	0.474660
C102	C	0.585430	0.046942	0.525552
C103	C	0.581780	0.050602	0.641868
C104	C	0.559246	0.073183	0.358333
H105	H	0.412715	0.145459	0.000037
H106	H	0.527318	0.105188	0.518442
H107	H	-0.067984	0.184716	0.000088
H108	H	0.613712	0.018595	0.481764
O109	O	0.340292	-0.022354	0.000248
C110	C	0.308737	-0.022511	0.088538
H111	H	0.294968	0.016612	0.117953
H112	H	0.329236	-0.042116	0.150347
C113	C	0.282085	-0.097100	0.025626
C114	C	0.265171	-0.049049	0.061748
H115	H	0.255212	-0.113472	0.009104
H116	H	0.303346	-0.096996	-0.033855
H117	H	0.299168	-0.113431	0.077140
H118	H	0.248094	-0.032718	0.010231
H119	H	0.243906	-0.049151	0.121221
H120	H	0.561964	-0.459777	0.261537
H121	H	-0.033682	-0.063388	0.000176
O122	O	0.578908	-0.472783	-0.276060
C123	C	0.581162	-0.508428	-0.358048
H124	H	0.564629	-0.541390	-0.330805
H125	H	0.620801	-0.520054	-0.386604
C126	C	0.572721	-0.446651	-0.479293
C127	C	0.552410	-0.487133	-0.445835
H128	H	0.554988	-0.433516	-0.533447
H129	H	0.571204	-0.422636	-0.424057
H130	H	0.605753	-0.456345	-0.503082
H131	H	0.519381	-0.477438	-0.422035
H132	H	0.553921	-0.511147	-0.501069
H133	H	0.573143	-0.705203	-0.168496
O134	O	0.316411	0.151463	0.000010
C135	C	0.344101	0.190700	0.000012
H136	H	0.382837	0.177117	-0.032248
H137	H	0.345021	0.206889	0.081767
C138	C	0.273200	0.246721	-0.027224
C139	C	0.320776	0.230039	-0.066854
H140	H	0.258812	0.270989	-0.068466
H141	H	0.254545	0.220287	-0.027222
H142	H	0.273974	0.260209	0.040904
H143	H	0.320001	0.216547	-0.134976
H144	H	0.339431	0.256472	-0.066870
H145	H	0.209015	-0.060924	0.000184
H146	H	0.083265	0.186258	0.000072
O147	O	0.177637	0.194197	0.000107
C148	C	0.139194	0.232760	0.000074
H149	H	0.104032	0.220481	0.032339
H150	H	0.134528	0.243684	-0.081691
C151	C	0.194190	0.291796	0.027276
C152	C	0.151004	0.276716	0.066913
H153	H	0.201476	0.318911	0.068501
H154	H	0.220090	0.265815	0.027295
H155	H	0.190296	0.300896	-0.040860
H156	H	0.154901	0.267610	0.135043
H157	H	0.125105	0.302696	0.066908
H158	H	-0.202340	0.139214	0.000092
H159	H	-0.271687	-0.021671	0.000142
O160	O	-0.298792	0.145125	0.000145
C161	C	-0.347384	0.135158	0.000122
H162	H	-0.350041	0.098219	0.032392
H163	H	-0.359410	0.134526	-0.081641
C164	C	-0.377367	0.220391	0.027319
C165	C	-0.380631	0.175024	0.066962
H166	H	-0.397875	0.244983	0.068545
H167	H	-0.344629	0.227107	0.027331
H168	H	-0.387387	0.219858	-0.040815
H169	H	-0.370604	0.175556	0.135090
H170	H	-0.413368	0.168309	0.066963
H171	H	0.434826	-0.014490	0.000098
H172	H	0.567883	-0.171017	0.168683
H173	H	0.057766	-0.062458	0.000172
H174	H	-0.180237	-0.020742	0.000159
O175	O	0.568310	-0.075096	0.183256
C176	C	0.526559	-0.039963	0.188762
H177	H	0.498797	-0.052775	0.136030
H178	H	0.537204	-0.003852	0.163789
C179	C	0.538170	-0.017322	0.364507
C180	C	0.504071	-0.033060	0.299748
H181	H	0.524299	-0.013062	0.432968
H182	H	0.566300	-0.040990	0.360797
H183	H	0.547038	0.012769	0.343684
H184	H	0.495208	-0.063153	0.320563
H185	H	0.475939	-0.009397	0.303464
H186	H	0.023477	0.185651	0.000078
O187	O	0.114637	-0.068864	0.000241
C188	C	0.153082	-0.107427	0.000237
H189	H	0.186217	-0.093112	0.032485
H190	H	0.162888	-0.123510	-0.081517
C191	C	0.096377	-0.164747	0.027499
C192	C	0.137072	-0.147165	0.067115
H193	H	0.086501	-0.189260	0.068748
H194	H	0.070476	-0.138767	0.027497
H195	H	0.104554	-0.178146	-0.040629
H196	H	0.128893	-0.133761	0.135236
H197	H	0.162972	-0.173144	0.067129
O198	O	0.579915	-0.086722	-0.183107
C199	C	0.582169	-0.122363	-0.265103
H200	H	0.565633	-0.155325	-0.237870
H201	H	0.621808	-0.133990	-0.293660
C202	C	0.573732	-0.060579	-0.386334
C203	C	0.553418	-0.101062	-0.352887
H204	H	0.555999	-0.047439	-0.440485
H205	H	0.572215	-0.036567	-0.331092
H206	H	0.606763	-0.070274	-0.410123
H207	H	0.520390	-0.091366	-0.329086
H208	H	0.554929	-0.125072	-0.408126
O209	O	0.572533	-0.801094	-0.183071
C210	C	0.530534	-0.824647	-0.188608
H211	H	0.499762	-0.803746	-0.135890
H212	H	0.538828	-0.863378	-0.163639
C213	C	0.552817	-0.851965	-0.364348
C214	C	0.515021	-0.826290	-0.299605
H215	H	0.543249	-0.852981	-0.432817
H216	H	0.581114	-0.836098	-0.360617
H217	H	0.559725	-0.884238	-0.343528
H218	H	0.508118	-0.794017	-0.320417
H219	H	0.486723	-0.842152	-0.303342
O220	O	0.561071	-0.789484	0.183299
C221	C	0.558838	-0.753844	0.265291
H222	H	0.544754	-0.716648	0.238045
H223	H	0.596788	-0.752946	0.293867
C224	C	0.541460	-0.812054	0.386522
C225	C	0.524157	-0.766370	0.353060
H226	H	0.520069	-0.819782	0.440664
H227	H	0.542966	-0.836066	0.331283
H228	H	0.573084	-0.811300	0.410328
H229	H	0.492536	-0.767126	0.329242
H230	H	0.522645	-0.742358	0.408296
O231	O	0.580458	-0.321548	-0.276043
C232	C	0.582712	-0.357194	-0.358031
H233	H	0.566180	-0.390156	-0.330786
H234	H	0.622350	-0.368818	-0.386593
C235	C	0.574264	-0.295416	-0.479274
C236	C	0.553956	-0.335899	-0.445814
H237	H	0.556528	-0.282281	-0.533425
H238	H	0.572747	-0.271401	-0.424039
H239	H	0.607295	-0.305109	-0.503069
H240	H	0.520927	-0.326205	-0.422009
H241	H	0.555466	-0.359913	-0.501048
O242	O	0.562174	-0.690144	0.183156
C243	C	0.604182	-0.666608	0.188741
H244	H	0.620758	-0.663517	0.108083
H245	H	0.631869	-0.688654	0.234582
C246	C	0.569920	-0.619091	0.340938
C247	C	0.590277	-0.615290	0.241872
H248	H	0.561344	-0.587436	0.373715
H249	H	0.541619	-0.634948	0.337178
H250	H	0.592996	-0.637465	0.379125
H251	H	0.567199	-0.596922	0.203682
H252	H	0.618574	-0.599428	0.245626
O253	O	0.563145	-0.304064	0.276095
C254	C	0.605154	-0.280529	0.281698
H255	H	0.621736	-0.277437	0.201046
H256	H	0.632835	-0.302576	0.327549
C257	C	0.570880	-0.233012	0.433886
C258	C	0.591245	-0.229211	0.334828
H259	H	0.562301	-0.201358	0.466663
H260	H	0.542578	-0.248869	0.430114
H261	H	0.593951	-0.251386	0.472082
H262	H	0.568171	-0.210842	0.296630
H263	H	0.619542	-0.213349	0.338595
O264	O	0.577819	-0.572102	-0.275942
C265	C	0.535818	-0.595653	-0.281475
H266	H	0.505046	-0.574747	-0.228764
H267	H	0.544108	-0.634382	-0.256496
C268	C	0.558103	-0.622982	-0.457209
C269	C	0.520307	-0.597302	-0.392474
H270	H	0.548535	-0.624001	-0.525678
H271	H	0.586401	-0.607117	-0.453481
H272	H	0.565007	-0.655254	-0.436380
H273	H	0.513407	-0.565029	-0.413295
H274	H	0.492007	-0.613161	-0.396209
H275	H	0.579041	-0.416425	-0.261365
H276	H	0.578489	-0.181602	-0.168441
H277	H	0.562567	-0.399978	0.261559
H278	H	0.561027	-0.551224	0.261529
