data_functionalizedCrystal
_audit_creation_method	'MofGen! by Chris Wilmer'
_symmetry_space_group_name_H-M	'P1'
_symmetry_Int_Tables_number	1
_symmetry_cell_setting	triclinic
loop_
_symmetry_equiv_pos_as_xyz
  x,y,z
_cell_length_a	15.186229
_cell_length_b	16.109301
_cell_length_c	16.109301
_cell_angle_alpha	96.538519
_cell_angle_beta	89.986602
_cell_angle_gamma	90.005196
loop_
_atom_site_label
_atom_site_type_symbol
_atom_site_fract_x
_atom_site_fract_y
_atom_site_fract_z
O1	O	-0.073176	-1.103135	0.106875
O2	O	0.426824	-0.603135	0.606875
O3	O	-0.073190	-0.861073	0.120175
O4	O	0.426810	-0.361073	0.620175
O5	O	-0.073174	-0.988754	-0.007506
O6	O	0.426826	-0.488754	0.492494
O7	O	-0.073192	-0.975454	0.234556
O8	O	0.426808	-0.475454	0.734556
O9	O	0.073284	-0.988736	-0.007526
O10	O	0.573284	-0.488736	0.492474
O11	O	0.073267	-0.861056	0.120154
O12	O	0.573267	-0.361056	0.620154
O13	O	0.073282	-1.103118	0.106855
O14	O	0.573282	-0.603118	0.606855
Zn15	Zn	0.096528	-0.982084	0.113501
Zn16	Zn	0.596528	-0.482084	0.613501
Zn17	Zn	-0.096436	-0.982107	0.113528
Zn18	Zn	0.403564	-0.482107	0.613528
O19	O	0.073265	-0.975437	0.234535
O20	O	0.573265	-0.475437	0.734535
C21	C	0.000037	-0.830090	0.119626
C22	C	0.500037	-0.330090	0.619626
C23	C	0.000032	-0.737794	0.118011
C24	C	0.500032	-0.237794	0.618011
N25	N	0.228220	-0.982074	0.113482
N26	N	0.728220	-0.482074	0.613482
C27	C	0.000056	-0.988206	-0.038491
C28	C	0.500056	-0.488206	0.461509
C29	C	0.000057	-0.986591	-0.130786
C30	C	0.500057	-0.486591	0.369214
N31	N	-0.228129	-0.982123	0.113541
N32	N	0.271871	-0.482123	0.613541
C33	C	0.546173	-0.931693	0.063079
C34	C	1.046173	-0.431693	0.563079
C35	C	0.453984	-0.931686	0.063067
C36	C	0.953984	-0.431686	0.563067
C37	C	0.453925	-1.032510	0.163946
C38	C	0.953925	-0.532510	0.663946
C39	C	0.546113	-1.032521	0.163953
C40	C	1.046113	-0.532521	0.663953
C41	C	0.592235	-0.982108	0.113521
C42	C	1.092235	-0.482108	0.613521
C43	C	0.407857	-0.982090	0.113502
C44	C	0.907857	-0.482090	0.613502
C45	C	0.307901	-0.982082	0.113489
C46	C	0.807901	-0.482082	0.613489
C47	C	0.692197	-0.982116	0.113532
C48	C	1.192197	-0.482116	0.613532
C49	C	0.000053	-1.134101	0.107404
C50	C	0.500053	-0.634101	0.607404
C51	C	0.000052	-1.226397	0.109019
C52	C	0.500052	-0.726397	0.609019
C53	C	0.000036	-0.515522	0.190018
C54	C	0.500036	-0.015522	0.690018
C55	C	0.000042	-0.428801	0.188494
C56	C	0.500042	0.071199	0.688494
C57	C	0.000050	-0.448676	0.037006
C58	C	0.500050	0.051324	0.537006
C59	C	0.000051	-0.535394	0.038530
C60	C	0.500051	-0.035394	0.538530
C61	C	0.000039	-0.568815	0.115039
C62	C	0.500039	-0.068815	0.615039
C63	C	0.000045	-0.395376	0.111990
C64	C	0.500045	0.104624	0.611990
C65	C	0.000051	-0.301350	0.110337
C66	C	0.500051	0.198650	0.610337
C67	C	0.000035	-0.662847	0.116693
C68	C	0.500035	-0.162847	0.616693
C69	C	0.000047	-1.058599	-0.353059
C70	C	0.500047	-0.558599	0.146941
C71	C	0.000040	-1.057075	-0.439779
C72	C	0.500040	-0.557075	0.060221
C73	C	0.000034	-0.905586	-0.419905
C74	C	0.500034	-0.405586	0.080095
C75	C	0.000035	-0.907111	-0.333186
C76	C	0.500035	-0.407111	0.166814
C77	C	0.000046	-0.983620	-0.299766
C78	C	0.500046	-0.483620	0.200234
C79	C	0.000038	-0.980571	-0.473205
C80	C	0.500038	-0.480571	0.026795
C81	C	0.000030	-0.978918	-0.567231
C82	C	0.500030	-0.478918	-0.067231
C83	C	0.000052	-0.985273	-0.205734
C84	C	0.500052	-0.485273	0.294266
C85	C	0.000034	-0.975984	0.265521
C86	C	0.500034	-0.475984	0.765521
C87	C	0.000027	-0.977600	0.357816
C88	C	0.500027	-0.477600	0.857816
H89	H	0.583723	-0.890645	0.022014
H90	H	1.083723	-0.390645	0.522014
H91	H	0.000034	-0.542730	0.252317
H92	H	0.500034	-0.042730	0.752317
N93	N	0.000035	-0.589838	-0.038064
N94	N	0.500035	-0.089838	0.461936
N95	N	-0.061700	-0.640450	-0.054100
N96	N	0.438300	-0.140450	0.445900
H97	H	-0.061710	-0.678902	-0.108192
H98	H	0.438290	-0.178902	0.391808
N99	N	0.406919	-0.880198	0.011544
N100	N	0.906919	-0.380198	0.511544
N101	N	0.355491	-0.912672	-0.043423
N102	N	0.855491	-0.412672	0.456577
H103	H	0.322250	-0.876308	-0.079815
H104	H	0.822250	-0.376308	0.420185
N105	N	0.406797	-1.083998	0.215452
N106	N	0.906797	-0.583998	0.715452
N107	N	0.324487	-1.083982	0.215440
N108	N	0.824487	-0.583982	0.715440
H109	H	0.291202	-1.120346	0.251819
H110	H	0.791202	-0.620346	0.751819
H111	H	0.583617	-1.073578	0.205029
H112	H	1.083617	-0.573578	0.705029
H113	H	0.000041	-0.385413	0.249550
H114	H	0.500041	0.114587	0.749550
N115	N	0.000062	-0.414522	-0.041135
N116	N	0.500062	0.085478	0.458865
N117	N	0.000060	-0.337094	-0.042488
N118	N	0.500060	0.162906	0.457512
H119	H	0.000067	-0.312972	-0.097676
H120	H	0.500067	0.187028	0.402324
N121	N	0.000026	-0.830525	-0.278730
N122	N	0.500026	-0.330525	0.221270
N123	N	-0.061712	-0.814488	-0.228110
N124	N	0.438288	-0.314488	0.271890
H125	H	-0.061722	-0.760403	-0.189649
H126	H	0.438278	-0.260403	0.310351
H127	H	0.000027	-0.843295	-0.447127
H128	H	0.500027	-0.343295	0.052873
H129	H	0.000039	-1.118130	-0.483168
H130	H	0.500039	-0.618130	0.016832
N131	N	0.000061	-1.136755	-0.318933
N132	N	0.500061	-0.636755	0.181067
N133	N	0.000062	-1.203694	-0.366530
N134	N	0.500062	-0.703694	0.133470
H135	H	0.000071	-1.258895	-0.342433
H136	H	0.500071	-0.758895	0.157567
