data_functionalizedCrystal
_audit_creation_method	'MofGen! by Chris Wilmer'
_symmetry_space_group_name_H-M	'P1'
_symmetry_Int_Tables_number	1
_symmetry_cell_setting	triclinic
loop_
_symmetry_equiv_pos_as_xyz
  x,y,z
_cell_length_a	14.971496
_cell_length_b	14.971486
_cell_length_c	13.448316
_cell_angle_alpha	89.999879
_cell_angle_beta	89.995435
_cell_angle_gamma	83.616127
loop_
_atom_site_label
_atom_site_type_symbol
_atom_site_fract_x
_atom_site_fract_y
_atom_site_fract_z
O1	O	-0.116561	-1.186950	0.082580
O2	O	0.216773	-0.853616	0.415913
O3	O	0.550106	-0.520283	0.749246
O4	O	-0.130519	-0.926550	0.082607
O5	O	0.202814	-0.593217	0.415940
O6	O	0.536147	-0.259883	0.749274
O7	O	0.006659	-1.063725	0.082584
O8	O	0.339993	-0.730391	0.415917
O9	O	0.673326	-0.397058	0.749250
O10	O	-0.253739	-1.049775	0.082603
O11	O	0.079594	-0.716442	0.415936
O12	O	0.412927	-0.383108	0.749269
O13	O	0.006661	-1.063711	-0.082800
O14	O	0.339994	-0.730378	0.250533
O15	O	0.673327	-0.397044	0.583867
O16	O	-0.130518	-0.926536	-0.082777
O17	O	0.202815	-0.593203	0.250556
O18	O	0.536149	-0.259870	0.583890
O19	O	-0.116559	-1.186936	-0.082804
O20	O	0.216774	-0.853603	0.250529
O21	O	0.550107	-0.520269	0.583862
Cu22	Cu	-0.123539	-1.056735	-0.097891
Cu23	Cu	0.209795	-0.723402	0.235442
Cu24	Cu	0.543128	-0.390068	0.568775
Cu25	Cu	-0.123540	-1.056751	0.097694
Cu26	Cu	0.209793	-0.723418	0.431027
Cu27	Cu	0.543127	-0.390084	0.764361
O28	O	-0.253738	-1.049761	-0.082781
O29	O	0.079595	-0.716428	0.250552
O30	O	0.412928	-0.383095	0.583886
C31	C	-0.129895	-0.893218	-0.000082
C32	C	0.203439	-0.559885	0.333252
C33	C	0.536772	-0.226552	0.666585
C34	C	-0.128024	-0.793921	-0.000071
C35	C	0.205310	-0.460588	0.333262
C36	C	0.538643	-0.127255	0.666595
C37	C	0.039985	-1.063092	-0.000108
C38	C	0.373318	-0.729759	0.333225
C39	C	0.706651	-0.396426	0.666558
C40	C	0.139281	-1.061218	-0.000109
C41	C	0.472615	-0.727885	0.333225
C42	C	0.805948	-0.394552	0.666558
C43	C	-0.117184	-1.220268	-0.000114
C44	C	0.216149	-0.886934	0.333220
C45	C	0.549482	-0.553601	0.666553
C46	C	-0.119055	-1.319565	-0.000117
C47	C	0.214278	-0.986231	0.333216
C48	C	0.547612	-0.652898	0.666549
C49	C	-0.287063	-1.050394	-0.000087
C50	C	0.046270	-0.717060	0.333247
C51	C	0.379603	-0.383727	0.666580
C52	C	-0.386360	-1.052268	-0.000080
C53	C	-0.053027	-0.718934	0.333253
C54	C	0.280307	-0.385601	0.666587
C55	C	0.566985	-1.053158	0.090069
C56	C	0.900318	-0.719824	0.423402
C57	C	1.233651	-0.386491	0.756736
C58	C	0.473685	-1.054924	0.090064
C59	C	0.807019	-0.721590	0.423398
C60	C	1.140352	-0.388257	0.756731
C61	C	0.427043	-1.055793	-0.000090
C62	C	0.760376	-0.722460	0.333243
C63	C	1.093709	-0.389126	0.666576
C64	C	0.473705	-1.054906	-0.090246
C65	C	0.807038	-0.721572	0.243087
C66	C	1.140372	-0.388239	0.576421
C67	C	0.567003	-1.053146	-0.090241
C68	C	0.900336	-0.719813	0.243093
C69	C	1.233670	-0.386480	0.576426
C70	C	0.279242	-1.058570	-0.090252
C71	C	0.612575	-0.725237	0.243082
C72	C	0.945908	-0.391904	0.576415
C73	C	0.185937	-1.060328	-0.090258
C74	C	0.519270	-0.726995	0.243076
C75	C	0.852603	-0.393662	0.576409
C76	C	0.185924	-1.060348	0.090053
C77	C	0.519257	-0.727015	0.423387
C78	C	0.852591	-0.393681	0.756720
C79	C	0.279222	-1.058588	0.090059
C80	C	0.612555	-0.725255	0.423392
C81	C	0.945889	-0.391922	0.756726
C82	C	0.325878	-1.057700	-0.000097
C83	C	0.659211	-0.724366	0.333236
C84	C	0.992544	-0.391033	0.666569
N85	N	-0.123537	-1.056730	-0.235456
N86	N	0.209796	-0.723397	0.097878
N87	N	0.543130	-0.390063	0.431211
C88	C	-0.208613	-0.736699	-0.000067
C89	C	0.124721	-0.403365	0.333266
C90	C	0.458054	-0.070032	0.666600
C91	C	-0.206850	-0.643399	-0.000082
C92	C	0.126484	-0.310066	0.333251
C93	C	0.459817	0.023267	0.666585
C94	C	-0.124497	-0.607324	-0.000094
C95	C	0.208837	-0.273991	0.333239
C96	C	0.542170	0.059343	0.666572
C97	C	-0.043902	-0.664554	-0.000102
C98	C	0.289432	-0.331221	0.333232
C99	C	0.622765	0.002113	0.666565
C100	C	-0.045666	-0.757852	-0.000094
C101	C	0.287668	-0.424518	0.333239
C102	C	0.621001	-0.091185	0.666573
C103	C	-0.040231	-0.470091	-0.000116
C104	C	0.293103	-0.136758	0.333218
C105	C	0.626436	0.196575	0.666551
C106	C	-0.038466	-0.376787	-0.000122
C107	C	0.294867	-0.043454	0.333212
C108	C	0.628201	0.289879	0.666545
C109	C	-0.201414	-0.355639	-0.000104
C110	C	0.131919	-0.022306	0.333230
C111	C	0.465252	0.311028	0.666563
C112	C	-0.203179	-0.448937	-0.000096
C113	C	0.130155	-0.115603	0.333237
C114	C	0.463488	0.217730	0.666571
C115	C	-0.122583	-0.506160	-0.000101
C116	C	0.210750	-0.172827	0.333232
C117	C	0.544084	0.160507	0.666565
C118	C	-0.177878	-1.111034	-0.287494
C119	C	0.155455	-0.777701	0.045840
C120	C	0.488789	-0.444368	0.379173
C121	C	-0.177874	-1.111045	-0.391597
C122	C	0.155459	-0.777712	-0.058263
C123	C	0.488793	-0.444379	0.275070
C124	C	-0.123533	-1.056747	-0.443660
C125	C	0.209800	-0.723414	-0.110327
C126	C	0.543133	-0.390080	0.223006
C127	C	-0.069186	-1.002441	-0.391615
C128	C	0.264147	-0.669107	-0.058282
C129	C	0.597480	-0.335774	0.275051
C130	C	-0.069186	-1.002435	-0.287514
C131	C	0.264147	-0.669101	0.045819
C132	C	0.597481	-0.335768	0.379153
C133	C	-0.069192	-1.002455	-0.608595
C134	C	0.264141	-0.669121	-0.275262
C135	C	0.597474	-0.335788	0.058071
C136	C	-0.069194	-1.002459	-0.712704
C137	C	0.264140	-0.669126	-0.379370
C138	C	0.597473	-0.335792	-0.046037
C139	C	-0.177880	-1.111065	-0.712678
C140	C	0.155453	-0.777732	-0.379345
C141	C	0.488786	-0.444399	-0.046012
C142	C	-0.177880	-1.111060	-0.608577
C143	C	0.155453	-0.777726	-0.275244
C144	C	0.488787	-0.444393	0.058090
C145	C	-0.123534	-1.056752	-0.556539
C146	C	0.209799	-0.723418	-0.223206
C147	C	0.543133	-0.390085	0.110128
N148	N	-0.123535	-1.056763	0.235258
N149	N	0.209799	-0.723430	0.568592
N150	N	0.543132	-0.390096	0.901925
H151	H	0.604953	-1.052442	0.163483
H152	H	0.938287	-0.719108	0.496817
H153	H	1.271620	-0.385775	0.830150
Cl154	Cl	-0.312148	-0.782041	-0.000045
Cl155	Cl	0.021185	-0.448707	0.333288
Cl156	Cl	0.354519	-0.115374	0.666622
Cl157	Cl	0.059629	-0.619202	-0.000124
Cl158	Cl	0.392962	-0.285869	0.333210
Cl159	Cl	0.726295	0.047465	0.666543
Cl160	Cl	0.065065	-0.331437	-0.000171
Cl161	Cl	0.398398	0.001897	0.333163
Cl162	Cl	0.731731	0.335230	0.666496
Cl163	Cl	0.061091	-0.542028	-0.000125
Cl164	Cl	0.394425	-0.208695	0.333209
Cl165	Cl	0.727758	0.124639	0.666542
H166	H	0.019958	-0.804442	-0.000097
H167	H	0.353292	-0.471109	0.333236
H168	H	0.686625	-0.137775	0.666570
H169	H	-0.024936	-0.958214	-0.245146
H170	H	0.308397	-0.624881	0.088187
H171	H	0.641730	-0.291548	0.421521
Cl172	Cl	-0.246216	-1.179300	-0.543127
Cl173	Cl	0.087117	-0.845967	-0.209793
Cl174	Cl	0.420451	-0.512634	0.123540
Cl175	Cl	-0.246197	-1.179342	-0.778096
Cl176	Cl	0.087136	-0.846008	-0.444763
Cl177	Cl	0.420469	-0.512675	-0.111430
H178	H	-0.024937	-0.958233	-0.566229
H179	H	0.308396	-0.624899	-0.232896
H180	H	0.641730	-0.291566	0.100437
Cl181	Cl	-0.302735	-0.283702	-0.000099
Cl182	Cl	0.030599	0.049632	0.333235
Cl183	Cl	0.363932	0.382965	0.666568
Cl184	Cl	-0.246197	-1.179298	-0.222053
Cl185	Cl	0.087136	-0.845965	0.111281
Cl186	Cl	0.420469	-0.512632	0.444614
Cl187	Cl	0.337857	-1.057489	0.203398
Cl188	Cl	0.671190	-0.724156	0.536731
Cl189	Cl	1.004524	-0.390822	0.870065
Cl190	Cl	-0.000870	-0.934180	-0.457067
Cl191	Cl	0.332463	-0.600847	-0.123733
Cl192	Cl	0.665796	-0.267514	0.209600
H193	H	-0.222122	-1.155267	-0.433961
H194	H	0.111211	-0.821934	-0.100628
H195	H	0.444544	-0.488600	0.232705
Cl196	Cl	0.415069	-1.056004	-0.203584
Cl197	Cl	0.748402	-0.722670	0.129749
Cl198	Cl	1.081735	-0.389337	0.463082
H199	H	0.604989	-1.052421	-0.163649
H200	H	0.938322	-0.719088	0.169684
H201	H	1.271655	-0.385754	0.503018
Cl202	Cl	-0.000873	-0.934202	-0.778154
Cl203	Cl	0.332460	-0.600869	-0.444821
Cl204	Cl	0.665793	-0.267536	-0.111487
H205	H	0.435703	-1.055650	0.163473
H206	H	0.769036	-0.722317	0.496806
H207	H	1.102370	-0.388983	0.830139
Cl208	Cl	0.127266	-1.061420	0.203393
Cl209	Cl	0.460599	-0.728087	0.536726
Cl210	Cl	0.793933	-0.394754	0.870059
H211	H	0.147959	-1.061008	-0.163669
H212	H	0.481292	-0.727674	0.169664
H213	H	0.814626	-0.394341	0.502997
H214	H	0.317226	-1.057848	-0.163666
H215	H	0.650559	-0.724515	0.169667
H216	H	0.983893	-0.391181	0.503000
Cl217	Cl	-0.308166	-0.571466	-0.000070
Cl218	Cl	0.025167	-0.238132	0.333263
Cl219	Cl	0.358500	0.095201	0.666597
H220	H	-0.270237	-0.478306	-0.000076
H221	H	0.063096	-0.144972	0.333257
H222	H	0.396429	0.188361	0.666590
