data_functionalizedCrystal
_audit_creation_method	'MofGen! by Chris Wilmer'
_symmetry_space_group_name_H-M	'P1'
_symmetry_Int_Tables_number	1
_symmetry_cell_setting	triclinic
loop_
_symmetry_equiv_pos_as_xyz
  x,y,z
_cell_length_a	12.759401
_cell_length_b	12.759399
_cell_length_c	12.759393
_cell_angle_alpha	90.032031
_cell_angle_beta	90.019465
_cell_angle_gamma	90.013324
loop_
_atom_site_label
_atom_site_type_symbol
_atom_site_fract_x
_atom_site_fract_y
_atom_site_fract_z
Zn1	Zn	-1.606252	0.418254	-0.594007
Zn2	Zn	-1.606145	0.593973	-0.418326
Zn3	Zn	-1.430554	0.418303	-0.418343
Zn4	Zn	-1.430541	0.593886	-0.593964
O5	O	-1.518373	0.506104	-0.506160
O6	O	-1.753259	0.441579	-0.570713
O7	O	-1.582813	0.570727	-0.271307
O8	O	-1.453911	0.271276	-0.441670
O9	O	-1.753180	0.570679	-0.441641
O10	O	-1.582995	0.271240	-0.570730
O11	O	-1.453807	0.441663	-0.271320
O12	O	-1.283531	0.441579	-0.441629
O13	O	-1.453889	0.570531	-0.740991
O14	O	-1.283522	0.570579	-0.570657
O15	O	-1.582983	0.441495	-0.741022
O16	O	-1.582801	0.740983	-0.441599
O17	O	-1.453785	0.740919	-0.570640
C18	C	-1.245406	0.506075	-0.506141
C19	C	-1.128629	0.506088	-0.506157
C20	C	-1.073809	0.438985	-0.573468
C21	C	-0.964085	0.438992	-0.573473
C22	C	-0.964011	0.573213	-0.438854
C23	C	-1.073733	0.573201	-0.438845
C24	C	-0.814165	0.315148	-0.611240
C25	C	-0.759341	0.248054	-0.678567
C26	C	-0.794998	0.232041	-0.781107
C27	C	-0.885477	0.283137	-0.816340
C28	C	-0.940295	0.350238	-0.749018
C29	C	-0.904640	0.366232	-0.646464
C30	C	-1.223654	0.697046	-0.401088
C31	C	-1.278475	0.764154	-0.333771
C32	C	-1.242820	0.780178	-0.231230
C33	C	-1.152338	0.729101	-0.196001
C34	C	-1.097517	0.661993	-0.263318
C35	C	-1.133179	0.645967	-0.365858
C36	C	-1.518309	0.779071	-0.506136
C37	C	-1.518377	0.895848	-0.506161
C38	C	-1.518446	0.505998	-0.780193
C39	C	-1.518478	0.505953	-0.896970
C40	C	-0.792406	0.506124	-0.506176
C41	C	-0.909183	0.506107	-0.506172
C42	C	-1.518466	0.232071	-0.506207
C43	C	-1.518506	0.115294	-0.506227
C44	C	-1.585632	0.950708	-0.439046
C45	C	-1.585700	1.060432	-0.439081
C46	C	-1.451248	1.060426	-0.573349
C47	C	-1.451187	0.950704	-0.573319
C48	C	-1.709709	1.210316	-0.401693
C49	C	-1.776955	1.265180	-0.334561
C50	C	-1.793119	1.229642	-0.232051
C51	C	-1.742023	1.139242	-0.196651
C52	C	-1.674769	1.084384	-0.263777
C53	C	-1.658625	1.119920	-0.366302
C54	C	-1.327176	0.800819	-0.610696
C55	C	-1.259916	0.745958	-0.677818
C56	C	-1.243741	0.781494	-0.780330
C57	C	-1.294819	0.871897	-0.815725
C58	C	-1.362079	0.926758	-0.748604
C59	C	-1.378256	0.891215	-0.646093
C60	C	-1.451328	0.438737	-0.951838
C61	C	-1.451353	0.438704	-1.061562
C62	C	-1.585685	0.573107	-1.061540
C63	C	-1.585654	0.573143	-0.951818
C64	C	-1.327503	0.401100	-1.211513
C65	C	-1.260363	0.333868	-1.266385
C66	C	-1.244259	0.231364	-1.230796
C67	C	-1.295311	0.196071	-1.140337
C68	C	-1.362459	0.263297	-1.085471
C69	C	-1.378542	0.365816	-1.121058
C70	C	-1.709506	0.610737	-0.801865
C71	C	-1.776660	0.677959	-0.746997
C72	C	-1.792774	0.780465	-0.782584
C73	C	-1.741741	0.815754	-0.873046
C74	C	-1.674587	0.748532	-0.927915
C75	C	-1.658471	0.646027	-0.892320
C76	C	-1.518360	0.506134	-0.233192
C77	C	-1.518533	0.505883	-0.116416
H78	H	-0.750352	0.177411	-0.835925
C79	C	-1.418598	0.224493	-0.985965
H80	H	-1.399388	0.153815	-0.972622
H81	H	-1.492278	0.228746	-0.995772
H82	H	-1.398736	0.266973	-0.928100
C83	C	-1.377334	1.120771	-0.647206
H84	H	-1.386994	1.193975	-0.637605
H85	H	-1.392658	1.102721	-0.717806
H86	H	-1.306740	1.102854	-0.631753
C87	C	-1.618443	0.787345	-1.027420
H88	H	-1.576149	0.732627	-1.055003
H89	H	-1.575516	0.845791	-1.010482
H90	H	-1.669037	0.807546	-1.078174
H91	H	-1.754866	0.899222	-0.902026
C92	C	-1.832804	0.639145	-0.647492
H93	H	-1.875114	0.693857	-0.619920
H94	H	-1.782219	0.618941	-0.596740
H95	H	-1.875735	0.580697	-0.664438
C96	C	-0.924690	0.265526	-0.929138
H97	H	-0.879089	0.218239	-0.964183
H98	H	-0.925749	0.330496	-0.965441
H99	H	-0.993429	0.236955	-0.927376
C100	C	-1.277646	0.083292	-1.101231
H101	H	-1.230352	0.048306	-1.146867
H102	H	-1.342606	0.046920	-1.100216
H103	H	-1.249073	0.085071	-1.032489
C104	C	-1.170405	0.157412	-1.291152
H105	H	-1.142306	0.193112	-1.350117
H106	H	-1.208425	0.097645	-1.314136
H107	H	-1.114903	0.135876	-1.246438
H108	H	-1.218796	0.362613	-1.340038
H109	H	-1.340596	0.484572	-1.240491
C110	C	-0.659827	0.191844	-0.639810
H111	H	-0.646451	0.210973	-0.569089
H112	H	-0.601977	0.211707	-0.682231
H113	H	-0.669670	0.118167	-0.644187
C114	C	-1.418271	1.026198	-0.787534
H115	H	-1.460637	1.053784	-0.732875
H116	H	-1.461132	1.009194	-0.846012
H117	H	-1.367701	1.076976	-0.807715
C118	C	-1.618561	0.984956	-0.224853
H119	H	-1.576192	0.957377	-0.279513
H120	H	-1.669115	0.934179	-0.204651
H121	H	-1.575683	1.001977	-0.166386
C122	C	-1.691621	0.498041	-0.762607
H123	H	-1.644261	0.463085	-0.808198
H124	H	-1.756487	0.461506	-0.761484
H125	H	-1.663016	0.500031	-0.693884
C126	C	-1.303116	0.854001	-0.157181
H127	H	-1.268915	0.856228	-0.091068
H128	H	-1.372649	0.828897	-0.148359
H129	H	-1.304960	0.922429	-0.186430
C130	C	-1.659537	0.890365	-0.365179
H131	H	-1.649862	0.817161	-0.374762
H132	H	-1.730131	0.908275	-0.380615
H133	H	-1.644197	0.908423	-0.294578
C134	C	-1.659583	0.647000	-1.121877
H135	H	-1.649993	0.637345	-1.195082
H136	H	-1.644181	0.717596	-1.103881
H137	H	-1.730177	0.631630	-1.103899
H138	H	-1.352161	0.805730	-0.362458
H139	H	-1.847467	0.835193	-0.737906
C140	C	-1.759786	1.100163	-0.083881
H141	H	-1.719716	1.038477	-0.072411
H142	H	-1.832005	1.085052	-0.073955
H143	H	-1.738571	1.152852	-0.035699
C144	C	-1.134191	0.365157	-0.647500
H145	H	-1.085823	0.325188	-0.687581
H146	H	-1.177009	0.405392	-0.693205
H147	H	-1.176980	0.319324	-0.607379
H148	H	-1.188969	0.736817	-0.834978
C149	C	-1.039818	0.406433	-0.787759
H150	H	-1.053207	0.387285	-0.858472
H151	H	-1.029997	0.480107	-0.783384
H152	H	-1.097661	0.386551	-0.745329
H153	H	-0.785132	0.328169	-0.527741
C154	C	-1.113107	0.746721	-0.083209
H155	H	-1.051363	0.706697	-0.071873
H156	H	-1.165704	0.725404	-0.035046
H157	H	-1.098033	0.818944	-0.073129
H158	H	-0.919301	0.627855	-0.384052
H159	H	-1.218332	0.672343	-0.648992
C160	C	-0.997992	0.605801	-0.224565
H161	H	-0.984609	0.624948	-0.153851
H162	H	-0.940149	0.625659	-0.266998
H163	H	-1.007830	0.532123	-0.228924
C164	C	-1.277033	0.910989	-0.928489
H165	H	-1.229670	0.865363	-0.963398
H166	H	-1.248514	0.979744	-0.926681
H167	H	-1.341946	0.911956	-0.964966
C168	C	-1.867092	1.289987	-0.158211
H169	H	-1.895210	1.348909	-0.193975
H170	H	-1.829146	1.313036	-0.098419
H171	H	-1.922575	1.245245	-0.136704
C172	C	-1.262876	0.679415	-0.513885
H173	H	-1.217275	0.632124	-0.548927
H174	H	-1.263935	0.744381	-0.550196
H175	H	-1.331614	0.650844	-0.512119
H176	H	-1.818558	1.338783	-0.363393
C177	C	-1.377421	0.364847	-0.891508
H178	H	-1.337424	0.324821	-0.939905
H179	H	-1.417603	0.319085	-0.848713
H180	H	-1.331617	0.405061	-0.848700
H181	H	-1.696564	1.239252	-0.485168
H182	H	-1.340349	0.771871	-0.527225
