data_functionalizedCrystal
_audit_creation_method	'MofGen! by Chris Wilmer'
_symmetry_space_group_name_H-M	'P1'
_symmetry_Int_Tables_number	1
_symmetry_cell_setting	triclinic
loop_
_symmetry_equiv_pos_as_xyz
  x,y,z
_cell_length_a	25.639242
_cell_length_b	19.805405
_cell_length_c	19.805399
_cell_angle_alpha	89.970699
_cell_angle_beta	89.972605
_cell_angle_gamma	90.021937
loop_
_atom_site_label
_atom_site_type_symbol
_atom_site_fract_x
_atom_site_fract_y
_atom_site_fract_z
Zn1	Zn	0.799297	-0.269560	-0.382853
Zn2	Zn	1.132630	0.063774	-0.049519
Zn3	Zn	1.465963	0.397107	0.283814
Zn4	Zn	0.799231	-0.382748	-0.269661
Zn5	Zn	1.132564	-0.049415	0.063672
Zn6	Zn	1.465898	0.283919	0.397006
Zn7	Zn	0.711865	-0.269569	-0.269662
Zn8	Zn	1.045198	0.063764	0.063671
Zn9	Zn	1.378532	0.397097	0.397005
Zn10	Zn	0.711837	-0.382703	-0.382792
Zn11	Zn	1.045170	-0.049370	-0.049459
Zn12	Zn	1.378503	0.283964	0.283874
O13	O	0.755557	-0.326145	-0.326242
O14	O	1.088891	0.007188	0.007091
O15	O	1.422224	0.340522	0.340425
O16	O	0.872453	-0.284589	-0.367863
O17	O	1.205786	0.048744	-0.034529
O18	O	1.539120	0.382078	0.298804
O19	O	0.787626	-0.367757	-0.174945
O20	O	1.120959	-0.034424	0.158389
O21	O	1.454293	0.298909	0.491722
O22	O	0.723502	-0.174852	-0.284703
O23	O	1.056836	0.158482	0.048631
O24	O	1.390169	0.491815	0.381964
O25	O	0.872405	-0.367748	-0.284701
O26	O	1.205738	-0.034415	0.048632
O27	O	1.539071	0.298919	0.381966
O28	O	0.787738	-0.174844	-0.367863
O29	O	1.121071	0.158489	-0.034530
O30	O	1.454405	0.491822	0.298803
O31	O	0.723439	-0.284606	-0.174945
O32	O	1.056772	0.048728	0.158388
O33	O	1.390105	0.382061	0.491721
O34	O	0.638696	-0.284562	-0.284644
O35	O	0.972029	0.048771	0.048689
O36	O	1.305363	0.382104	0.382023
O37	O	0.723454	-0.367672	-0.477517
O38	O	1.056788	-0.034338	-0.144184
O39	O	1.390121	0.298995	0.189150
O40	O	0.638675	-0.367681	-0.367760
O41	O	0.972009	-0.034348	-0.034427
O42	O	1.305342	0.298986	0.298906
O43	O	0.787711	-0.284545	-0.477561
O44	O	1.121044	0.048788	-0.144228
O45	O	1.454377	0.382121	0.189105
O46	O	0.787599	-0.477459	-0.284643
O47	O	1.120932	-0.144125	0.048691
O48	O	1.454265	0.189208	0.382024
O49	O	0.723391	-0.477426	-0.367760
O50	O	1.056724	-0.144092	-0.034426
O51	O	1.390057	0.189241	0.298907
C52	C	0.755499	-0.502001	-0.326209
C53	C	1.088832	-0.168668	0.007124
C54	C	1.422165	0.164666	0.340457
C55	C	0.755521	-0.577233	-0.326218
C56	C	1.088855	-0.243900	0.007115
C57	C	1.422188	0.089434	0.340449
C58	C	0.619715	-0.326118	-0.326196
C59	C	0.953048	0.007215	0.007137
C60	C	1.286381	0.340548	0.340470
C61	C	0.561601	-0.326123	-0.326193
C62	C	0.894934	0.007210	0.007141
C63	C	1.228267	0.340543	0.340474
C64	C	0.788987	-0.612572	-0.282984
C65	C	1.122320	-0.279239	0.050349
C66	C	1.455653	0.054095	0.383682
C67	C	0.789009	-0.683260	-0.282999
C68	C	1.122342	-0.349927	0.050334
C69	C	1.455676	-0.016594	0.383668
C70	C	0.755563	-0.718609	-0.326245
C71	C	1.088896	-0.385275	0.007088
C72	C	1.422229	-0.051942	0.340422
C73	C	0.722095	-0.683265	-0.369483
C74	C	1.055429	-0.349931	-0.036150
C75	C	1.388762	-0.016598	0.297183
C76	C	0.722076	-0.612578	-0.369471
C77	C	1.055410	-0.279244	-0.036138
C78	C	1.388743	0.054089	0.297195
C79	C	0.722173	-0.968338	-0.369534
C80	C	1.055506	-0.635005	-0.036200
C81	C	1.388839	-0.301671	0.297133
C82	C	0.722193	-1.039030	-0.369541
C83	C	1.055527	-0.705697	-0.036208
C84	C	1.388860	-0.372363	0.297126
C85	C	0.789105	-1.039021	-0.283061
C86	C	1.122439	-0.705687	0.050272
C87	C	1.455772	-0.372354	0.383605
C88	C	0.789086	-0.968334	-0.283049
C89	C	1.122419	-0.635000	0.050284
C90	C	1.455753	-0.301667	0.383617
C91	C	0.755621	-0.932996	-0.326290
C92	C	1.088955	-0.599663	0.007043
C93	C	1.422288	-0.266329	0.340377
C94	C	0.755598	-0.856348	-0.326274
C95	C	1.088932	-0.523014	0.007059
C96	C	1.422265	-0.189681	0.340392
C97	C	0.755583	-0.795256	-0.326258
C98	C	1.088916	-0.461922	0.007075
C99	C	1.422249	-0.128589	0.340409
C100	C	0.201236	-0.369497	-0.369480
C101	C	0.534569	-0.036164	-0.036146
C102	C	0.867902	0.297169	0.297187
C103	C	0.146631	-0.369502	-0.369490
C104	C	0.479965	-0.036168	-0.036157
C105	C	0.813298	0.297165	0.297176
O106	O	0.118393	-0.406347	-0.406256
O107	O	0.451726	-0.073013	-0.072923
O108	O	0.785060	0.260320	0.260411
N109	N	0.119318	-0.326164	-0.326286
N110	N	0.452652	0.007170	0.007047
N111	N	0.785985	0.340503	0.340380
C112	C	0.146612	-0.282814	-0.283073
C113	C	0.479946	0.050519	0.050260
C114	C	0.813279	0.383853	0.383593
O115	O	0.118366	-0.245952	-0.246326
O116	O	0.451700	0.087382	0.087007
O117	O	0.785033	0.420715	0.420341
C118	C	0.201216	-0.282807	-0.283067
C119	C	0.534549	0.050526	0.050267
C120	C	0.867882	0.383860	0.383600
C121	C	0.228526	-0.326152	-0.326269
C122	C	0.561859	0.007181	0.007065
C123	C	0.895193	0.340514	0.340398
C124	C	0.228546	-0.412839	-0.412679
C125	C	0.561880	-0.079505	-0.079346
C126	C	0.895213	0.253828	0.253988
C127	C	0.283147	-0.412835	-0.412667
C128	C	0.616480	-0.079502	-0.079334
C129	C	0.949813	0.253831	0.253999
C130	C	0.310437	-0.369491	-0.369456
C131	C	0.643770	-0.036157	-0.036123
C132	C	0.977104	0.297176	0.297210
C133	C	0.283126	-0.326149	-0.326257
C134	C	0.616460	0.007184	0.007076
C135	C	0.949793	0.340518	0.340410
C136	C	0.228508	-0.239454	-0.239858
C137	C	0.561842	0.093879	0.093476
C138	C	0.895175	0.427212	0.426809
C139	C	0.283116	-0.239451	-0.239855
C140	C	0.616449	0.093883	0.093478
C141	C	0.949782	0.427216	0.426812
C142	C	0.310426	-0.282796	-0.283057
C143	C	0.643759	0.050537	0.050276
C144	C	0.977093	0.383870	0.383610
C145	C	0.365017	-0.282801	-0.283034
C146	C	0.698350	0.050533	0.050299
C147	C	1.031684	0.383866	0.383632
N148	N	0.392330	-0.326139	-0.326239
N149	N	0.725664	0.007195	0.007095
N150	N	1.058997	0.340528	0.340428
C151	C	0.365040	-0.369483	-0.369450
C152	C	0.698374	-0.036150	-0.036116
C153	C	1.031707	0.297183	0.297217
C154	C	0.031942	-0.282831	-0.283092
C155	C	0.365275	0.050502	0.050242
C156	C	0.698608	0.383835	0.383575
C157	C	-0.022661	-0.282841	-0.283094
C158	C	0.310673	0.050492	0.050239
C159	C	0.644006	0.383825	0.383572
C160	C	-0.022638	-0.369528	-0.369513
C161	C	0.310696	-0.036195	-0.036179
C162	C	0.644029	0.297139	0.297154
C163	C	0.031966	-0.369521	-0.369506
C164	C	0.365299	-0.036188	-0.036173
C165	C	0.698632	0.297146	0.297161
C166	C	0.059255	-0.326169	-0.326296
C167	C	0.392588	0.007164	0.007037
C168	C	0.725921	0.340498	0.340371
C169	C	0.479705	-0.369473	-0.369421
C170	C	0.813039	-0.036140	-0.036088
C171	C	1.146372	0.297193	0.297245
C172	C	0.534311	-0.369468	-0.369404
C173	C	0.867644	-0.036135	-0.036070
C174	C	1.200977	0.297199	0.297263
C175	C	0.534283	-0.282779	-0.282988
C176	C	0.867616	0.050554	0.050345
C177	C	1.200950	0.383888	0.383678
C178	C	0.479682	-0.282787	-0.283003
C179	C	0.813016	0.050547	0.050330
C180	C	1.146349	0.383880	0.383664
C181	C	0.452395	-0.326136	-0.326225
C182	C	0.785728	0.007197	0.007108
C183	C	1.119061	0.340531	0.340442
O184	O	0.393290	-0.245973	-0.246290
O185	O	0.726623	0.087361	0.087044
O186	O	1.059957	0.420694	0.420377
O187	O	0.393293	-0.406333	-0.406197
O188	O	0.726626	-0.073000	-0.072863
O189	O	1.059960	0.260333	0.260470
C190	C	0.891930	-0.326172	-0.326289
C191	C	1.225264	0.007161	0.007045
C192	C	1.558597	0.340494	0.340378
C193	C	0.950044	-0.326184	-0.326308
C194	C	1.283378	0.007149	0.007025
C195	C	1.616711	0.340483	0.340358
C196	C	0.755587	-0.326102	-0.502785
C197	C	1.088920	0.007231	-0.169452
C198	C	1.422253	0.340564	0.163882
C199	C	0.755599	-0.326084	-0.578017
C200	C	1.088933	0.007249	-0.244684
C201	C	1.422266	0.340582	0.088650
C202	C	0.755631	-0.149602	-0.326290
C203	C	1.088964	0.183731	0.007044
C204	C	1.422297	0.517064	0.340377
C205	C	0.755662	-0.074370	-0.326310
C206	C	1.088995	0.258963	0.007023
C207	C	1.422329	0.592296	0.340357
C208	C	0.789058	-0.282798	-0.613385
C209	C	1.122392	0.050535	-0.280052
C210	C	1.455725	0.383868	0.053281
C211	C	0.789064	-0.282779	-0.684074
C212	C	1.122397	0.050555	-0.350740
C213	C	1.455730	0.383888	-0.017407
C214	C	0.755612	-0.326049	-0.719393
C215	C	1.088945	0.007284	-0.386059
C216	C	1.422279	0.340618	-0.052726
C217	C	0.722149	-0.369337	-0.684019
C218	C	1.055483	-0.036003	-0.350686
C219	C	1.388816	0.297330	-0.017353
C220	C	0.722142	-0.369352	-0.613332
C221	C	1.055475	-0.036019	-0.279999
C222	C	1.388808	0.297314	0.053335
C223	C	0.722179	-0.369274	-0.969093
C224	C	1.055512	-0.035940	-0.635759
C225	C	1.388846	0.297393	-0.302426
C226	C	0.722190	-0.369256	-1.039785
C227	C	1.055524	-0.035923	-0.706452
C228	C	1.388857	0.297411	-0.373118
C229	C	0.789101	-0.282700	-1.039834
C230	C	1.122434	0.050633	-0.706501
C231	C	1.455767	0.383967	-0.373168
C232	C	0.789093	-0.282716	-0.969147
C233	C	1.122426	0.050618	-0.635814
C234	C	1.455760	0.383951	-0.302480
C235	C	0.755629	-0.326001	-0.933780
C236	C	1.088962	0.007333	-0.600447
C237	C	1.422295	0.340666	-0.267113
C238	C	0.755623	-0.326020	-0.857132
C239	C	1.088956	0.007313	-0.523798
C240	C	1.422289	0.340646	-0.190465
C241	C	0.755621	-0.326033	-0.796040
C242	C	1.088954	0.007300	-0.462706
C243	C	1.422287	0.340634	-0.129373
C244	C	0.755558	-0.326139	-0.150386
C245	C	1.088892	0.007195	0.182947
C246	C	1.422225	0.340528	0.516281
C247	C	0.755647	-0.325966	-0.075154
C248	C	1.088980	0.007367	0.258179
C249	C	1.422314	0.340701	0.591512
H250	H	0.816220	-0.583796	-0.247766
H251	H	1.149554	-0.250463	0.085568
H252	H	1.482887	0.082871	0.418901
H253	H	0.816300	-0.247565	-0.584634
H254	H	1.149633	0.085769	-0.251300
H255	H	1.482967	0.419102	0.082033
F256	F	0.824693	-0.236731	-0.721712
F257	F	1.158027	0.096602	-0.388379
F258	F	1.491360	0.429936	-0.055046
F259	F	0.686546	-0.415386	-0.721610
F260	F	1.019879	-0.082052	-0.388277
F261	F	1.353212	0.251281	-0.054943
F262	F	0.686563	-0.415341	-0.931461
F263	F	1.019896	-0.082008	-0.598128
F264	F	1.353230	0.251325	-0.264795
F265	F	0.824629	-0.720867	-0.236986
F266	F	1.157963	-0.387534	0.096348
F267	F	1.491296	-0.054201	0.429681
F268	F	0.199510	-0.458976	-0.458675
F269	F	0.532844	-0.125643	-0.125342
F270	F	0.866177	0.207691	0.207992
H271	H	0.694826	-0.583805	-0.404678
H272	H	1.028159	-0.250472	-0.071344
H273	H	1.361493	0.082861	0.261989
H274	H	0.556544	-0.404768	-0.404585
H275	H	0.889878	-0.071434	-0.071251
H276	H	1.223211	0.261899	0.262082
F277	F	0.199454	-0.193316	-0.193878
F278	F	0.532788	0.140017	0.139455
F279	F	0.866121	0.473351	0.472788
F280	F	0.061026	-0.415654	-0.415488
F281	F	0.394360	-0.082320	-0.082155
F282	F	0.727693	0.251013	0.251179
F283	F	0.312206	-0.458967	-0.458652
F284	F	0.645539	-0.125634	-0.125319
F285	F	0.978872	0.207699	0.208014
H286	H	0.305332	-0.204144	-0.204671
H287	H	0.638665	0.129190	0.128662
H288	H	0.971998	0.462523	0.461995
H289	H	0.816334	-0.247483	-0.940394
H290	H	1.149668	0.085851	-0.607061
H291	H	1.483001	0.419184	-0.273727
F292	F	0.450672	-0.415611	-0.415423
F293	F	0.784005	-0.082277	-0.082090
F294	F	1.117338	0.251056	0.251244
H295	H	-0.044892	-0.247552	-0.247908
H296	H	0.288441	0.085782	0.085425
H297	H	0.621774	0.419115	0.418759
F298	F	0.060980	-0.236691	-0.237094
F299	F	0.394313	0.096642	0.096239
F300	F	0.727647	0.429975	0.429573
F301	F	-0.051691	-0.415655	-0.415507
F302	F	0.281642	-0.082321	-0.082174
F303	F	0.614975	0.251012	0.251159
H304	H	0.694891	-0.404593	-0.584536
H305	H	1.028224	-0.071260	-0.251203
H306	H	1.361557	0.262073	0.082131
F307	F	0.450616	-0.236664	-0.237013
F308	F	0.783949	0.096669	0.096321
F309	F	1.117282	0.430003	0.429654
F310	F	0.824684	-0.930717	-0.237021
F311	F	1.158017	-0.597384	0.096312
F312	F	1.491350	-0.264050	0.429646
H313	H	0.694865	-0.712051	-0.404698
H314	H	1.028198	-0.378718	-0.071365
H315	H	1.361532	-0.045384	0.261969
F316	F	0.686556	-0.930738	-0.415554
F317	F	1.019889	-0.597405	-0.082220
F318	F	1.353222	-0.264071	0.251113
F319	F	0.824724	-1.076635	-0.237043
F320	F	1.158058	-0.743302	0.096290
F321	F	1.491391	-0.409968	0.429623
F322	F	0.563337	-0.236651	-0.237002
F323	F	0.896670	0.096682	0.096331
F324	F	1.230003	0.430016	0.429665
F325	F	0.824715	-0.236629	-1.077480
F326	F	1.158049	0.096704	-0.744147
F327	F	1.491382	0.430037	-0.410813
F328	F	0.686594	-1.076649	-0.415572
F329	F	1.019927	-0.743316	-0.082239
F330	F	1.353261	-0.409982	0.251094
F331	F	0.686584	-0.415312	-1.077372
F332	F	1.019918	-0.081979	-0.744039
F333	F	1.353251	0.251355	-0.410706
