data_functionalizedCrystal
_audit_creation_method	'MofGen! by Chris Wilmer'
_symmetry_space_group_name_H-M	'P1'
_symmetry_Int_Tables_number	1
_symmetry_cell_setting	triclinic
loop_
_symmetry_equiv_pos_as_xyz
  x,y,z
_cell_length_a	18.215407
_cell_length_b	17.637651
_cell_length_c	18.215399
_cell_angle_alpha	78.756317
_cell_angle_beta	89.980167
_cell_angle_gamma	101.219162
loop_
_atom_site_label
_atom_site_type_symbol
_atom_site_fract_x
_atom_site_fract_y
_atom_site_fract_z
Zn1	Zn	1.065883	-0.314761	-0.356812
Zn2	Zn	1.040928	-0.446980	-0.208835
Zn3	Zn	0.942810	-0.314787	-0.233755
Zn4	Zn	0.917926	-0.446936	-0.331868
O5	O	0.991887	-0.380866	-0.282817
O6	O	1.165555	-0.332308	-0.337193
O7	O	1.027883	-0.429474	-0.109150
O8	O	0.979994	-0.204144	-0.270947
O9	O	1.147221	-0.429449	-0.228474
O10	O	1.070415	-0.204125	-0.361357
O11	O	0.955796	-0.332352	-0.127459
O12	O	0.836527	-0.332309	-0.246759
O13	O	0.937583	-0.429374	-0.438167
O14	O	0.818244	-0.429399	-0.318843
O15	O	1.046286	-0.332265	-0.456493
O16	O	1.003754	-0.557614	-0.204287
O17	O	0.913385	-0.557581	-0.294679
C18	C	0.800683	-0.380852	-0.282799
C19	C	0.718882	-0.380866	-0.282805
C20	C	0.521173	-0.431500	-0.320264
C21	C	0.444313	-0.431502	-0.320273
C22	C	0.463351	-0.330246	-0.245384
C23	C	0.540209	-0.330241	-0.245380
C24	C	0.569117	-0.380872	-0.282818
C25	C	0.415400	-0.380880	-0.282831
C26	C	0.332065	-0.380882	-0.282840
C27	C	0.652457	-0.380869	-0.282810
C28	C	0.953181	-0.586285	-0.244088
C29	C	0.936690	-0.674164	-0.227544
C30	C	1.117646	-0.962843	-0.408732
C31	C	1.102127	-1.045419	-0.393174
C32	C	1.008035	-1.045546	-0.298939
C33	C	1.023549	-0.962969	-0.314487
C34	C	1.078355	-0.921624	-0.369385
C35	C	0.984257	-0.921749	-0.275140
C36	C	0.999767	-0.839179	-0.290690
C37	C	1.054569	-0.797828	-0.345586
C38	C	1.093865	-0.839054	-0.384935
C39	C	0.929448	-0.963096	-0.220246
C40	C	0.890156	-0.921876	-0.180899
C41	C	0.905670	-0.839304	-0.196444
C42	C	0.960471	-0.797954	-0.251341
C43	C	0.866374	-0.798079	-0.157096
C44	C	0.881884	-0.715509	-0.172646
C45	C	0.975982	-0.715383	-0.266891
C46	C	1.183837	-0.380880	-0.282836
C47	C	1.265635	-0.380886	-0.282844
C48	C	0.991942	-0.380811	-0.474781
C49	C	0.991965	-0.380788	-0.556584
C50	C	1.030764	-0.174645	-0.321714
C51	C	1.047331	-0.086766	-0.338290
C52	C	1.048593	-0.330176	-0.754331
C53	C	1.048606	-0.330153	-0.831194
C54	C	0.935413	-0.431278	-0.812098
C55	C	0.935398	-0.431296	-0.735237
C56	C	0.991992	-0.380747	-0.706355
C57	C	0.992020	-0.380705	-0.860079
C58	C	0.992034	-0.380681	-0.943418
C59	C	0.991977	-0.380770	-0.623012
C60	C	0.991885	-0.380863	-0.091612
C61	C	0.992046	-0.380664	-0.009851
H62	H	0.405280	-0.472727	-0.350767
H63	H	1.067197	-0.730594	-0.358246
H64	H	0.439804	-0.289026	-0.214901
H65	H	0.889338	-0.472435	-0.835623
H66	H	1.134117	-1.078977	-0.425230
C67	C	0.823514	-0.531263	-0.724074
C68	C	0.873179	-0.486891	-0.682495
H69	H	0.785107	-0.565585	-0.691512
H70	H	0.801861	-0.496810	-0.760544
H71	H	0.849891	-0.561499	-0.748355
H72	H	0.846803	-0.456651	-0.658219
H73	H	0.894833	-0.521349	-0.646012
C74	C	1.160474	-0.230211	-0.780930
C75	C	1.110794	-0.274605	-0.722584
H76	H	1.198871	-0.195898	-0.761332
H77	H	1.182138	-0.264650	-0.804413
H78	H	1.134105	-0.199965	-0.816609
H79	H	1.137162	-0.304856	-0.686908
H80	H	1.089128	-0.240161	-0.699090
C81	C	1.078893	-0.223772	-0.937683
C82	C	1.110824	-0.274561	-0.883926
H83	H	1.117306	-0.189446	-0.970234
H84	H	1.045203	-0.253873	-0.965886
H85	H	1.052523	-0.193544	-0.913385
H86	H	1.137189	-0.304794	-0.908224
H87	H	1.144526	-0.244457	-0.855720
C88	C	1.121488	-0.746115	-0.501431
C89	C	1.154111	-0.793592	-0.445276
H90	H	1.158681	-0.718045	-0.538679
H91	H	1.083369	-0.778334	-0.523487
H92	H	1.100302	-0.709758	-0.480212
H93	H	1.175293	-0.829954	-0.466495
H94	H	1.192244	-0.761371	-0.423218
H95	H	0.544707	-0.472725	-0.350751
H96	H	0.579248	-0.289008	-0.214887
H97	H	1.162281	-0.929179	-0.453430
C98	C	1.016552	-0.689842	-0.396354
C99	C	1.036223	-0.669923	-0.327237
H100	H	1.053737	-0.661770	-0.433608
H101	H	1.012951	-0.744908	-0.392724
H102	H	0.969630	-0.676342	-0.409608
H103	H	1.083142	-0.683428	-0.313981
H104	H	1.039832	-0.614844	-0.330866
C105	C	0.888429	-1.081343	-0.267972
C106	C	0.912389	-1.053859	-0.203154
H107	H	0.877900	-1.137376	-0.257420
H108	H	0.844444	-1.062683	-0.284163
H109	H	0.926703	-1.062618	-0.306287
H110	H	0.874113	-1.072580	-0.164840
H111	H	0.956379	-1.072527	-0.186953
C112	C	0.824602	-1.048507	-0.115210
C113	C	0.829919	-0.967327	-0.120552
H114	H	0.787418	-1.076564	-0.077949
H115	H	0.811258	-1.062011	-0.162097
H116	H	0.871524	-1.062002	-0.101950
H117	H	0.782998	-0.953831	-0.133818
H118	H	0.843259	-0.953818	-0.073656
C119	C	0.736980	-0.823615	-0.116329
C120	C	0.806128	-0.843534	-0.096759
H121	H	0.699787	-0.851681	-0.079081
H122	H	0.740599	-0.768547	-0.119949
H123	H	0.723654	-0.837122	-0.163226
H124	H	0.819457	-0.830021	-0.049865
H125	H	0.802510	-0.898614	-0.093131
C126	C	0.800331	-0.622727	-0.179806
C127	C	0.838697	-0.670192	-0.129398
H128	H	0.773664	-0.594754	-0.153106
H129	H	0.835190	-0.586293	-0.214719
H130	H	0.766110	-0.654949	-0.205770
H131	H	0.872922	-0.637969	-0.103438
H132	H	0.803833	-0.706630	-0.094472
H133	H	0.963410	-1.079221	-0.254243
