data_functionalizedCrystal
_audit_creation_method	'MofGen! by Chris Wilmer'
_symmetry_space_group_name_H-M	'P1'
_symmetry_Int_Tables_number	1
_symmetry_cell_setting	triclinic
loop_
_symmetry_equiv_pos_as_xyz
  x,y,z
_cell_length_a	16.098538
_cell_length_b	10.654550
_cell_length_c	10.654551
_cell_angle_alpha	95.514868
_cell_angle_beta	87.247833
_cell_angle_gamma	87.231384
loop_
_atom_site_label
_atom_site_type_symbol
_atom_site_fract_x
_atom_site_fract_y
_atom_site_fract_z
O1	O	0.069319	-1.673422	0.170830
O2	O	0.069306	-1.307942	0.187637
O3	O	0.069313	-1.499084	-0.003506
O4	O	0.069312	-1.482279	0.361973
O5	O	-0.069200	-1.487918	0.007616
O6	O	-0.069208	-1.296776	0.198758
O7	O	-0.069194	-1.662256	0.181951
Zn8	Zn	-0.091193	-1.477743	0.192121
Zn9	Zn	0.091305	-1.492455	0.177468
O10	O	-0.069202	-1.471113	0.373094
C11	C	0.000047	-1.255561	0.191964
C12	C	0.000042	-1.116117	0.188272
N13	N	-0.215742	-1.467712	0.202120
C14	C	0.000058	-1.492267	-0.044743
C15	C	0.000064	-1.488575	-0.184187
C16	C	-0.259324	-1.548870	0.121021
C17	C	-0.346513	-1.541865	0.128028
C18	C	-0.390119	-1.453706	0.216142
C19	C	-0.346531	-1.372539	0.297244
C20	C	-0.259344	-1.379539	0.290230
C21	C	-0.653370	-1.428329	0.241547
C22	C	-0.740564	-1.421337	0.248558
C23	C	-0.740540	-1.590663	0.079339
C24	C	-0.653351	-1.597660	0.072337
C25	C	-0.609770	-1.516489	0.153436
C26	C	-0.479241	-1.446546	0.223309
C27	C	-0.520651	-1.523643	0.146262
N28	N	0.215854	-1.502496	0.167458
C29	C	0.000066	-1.714637	0.177624
C30	C	0.000077	-1.854081	0.181315
C31	C	0.000054	-1.036633	0.300813
C32	C	0.000068	-0.905613	0.297335
C33	C	0.000063	-0.933575	0.068766
C34	C	0.000042	-1.064592	0.072246
C35	C	0.000054	-1.088158	0.416840
C36	C	0.000066	-1.008673	0.529389
C37	C	0.000081	-0.877653	0.525912
C38	C	0.000082	-0.826119	0.409884
C39	C	0.075566	-1.492930	-0.255761
C40	C	0.075562	-1.489449	-0.386781
C41	C	-0.075453	-1.477265	-0.374641
C42	C	-0.075448	-1.480736	-0.243623
C43	C	0.151078	-1.500768	-0.196325
C44	C	0.226586	-1.505125	-0.267900
C45	C	0.226582	-1.501644	-0.398920
C46	C	0.151070	-1.493807	-0.458365
C47	C	0.000055	-1.477931	0.414331
C48	C	0.000055	-1.481623	0.553774
H49	H	-0.223826	-1.620664	0.049275
N50	N	0.000025	-1.221991	0.420372
N51	N	0.000008	-1.292948	0.319879
H52	H	-0.000012	-1.387468	0.322369
N53	N	-0.152589	-1.469281	-0.435342
N54	N	-0.219998	-1.465397	-0.371421
H55	H	-0.274478	-1.459761	-0.414288
N56	N	0.303715	-1.513153	-0.207186
N57	N	0.354269	-1.605219	-0.236695
H58	H	0.408744	-1.610891	-0.193818
H59	H	-0.776031	-1.656747	0.013311
H60	H	0.000082	-0.812938	0.617556
N61	N	-0.785100	-1.331253	0.338550
N62	N	-0.775390	-1.215940	0.334944
H63	H	-0.806845	-1.152318	0.398495
N64	N	-0.608890	-1.687788	-0.017684
N65	N	-0.560254	-1.651338	-0.100027
H66	H	-0.528883	-1.715029	-0.163602
N67	N	0.303714	-1.506075	-0.472012
N68	N	0.371125	-1.513066	-0.418923
H69	H	0.425604	-1.516199	-0.470541
H70	H	0.151073	-1.490955	-0.565049
H71	H	-0.136928	-1.477164	-0.185342
N72	N	-0.608875	-1.345403	0.324389
N73	N	-0.647822	-1.266697	0.403053
H74	H	-0.616394	-1.208125	0.461564
N75	N	0.000103	-0.692289	0.406307
N76	N	0.000113	-0.646297	0.302708
H77	H	0.000132	-0.551781	0.300180
N78	N	-0.391018	-1.624771	0.045172
N79	N	-0.352075	-1.703482	-0.033491
H80	H	-0.383505	-1.762038	-0.092015
N81	N	-0.391084	-1.282484	0.387234
N82	N	-0.468929	-1.276244	0.393487
H83	H	-0.500394	-1.212642	0.457046
H84	H	0.000078	-0.891606	-0.025699
H85	H	-0.485144	-1.595418	0.074515
N86	N	-0.214836	-1.296623	0.373076
N87	N	-0.253777	-1.217914	0.451743
H88	H	-0.222345	-1.159347	0.510253
N89	N	0.000043	-1.061306	0.647904
N90	N	-0.058356	-1.126564	0.680031
H91	H	-0.058376	-1.163734	0.763736
H92	H	-0.514752	-1.374767	0.295055
N93	N	0.000025	-1.145813	-0.042695
N94	N	-0.058375	-1.217309	-0.061549
H95	H	-0.058391	-1.274676	-0.142727
N96	N	0.151103	-1.504306	-0.062493
N97	N	0.184823	-1.420209	0.004078
H98	H	0.184843	-1.422707	0.098598
