data_functionalizedCrystal
_audit_creation_method	'MofGen! by Chris Wilmer'
_symmetry_space_group_name_H-M	'P1'
_symmetry_Int_Tables_number	1
_symmetry_cell_setting	triclinic
loop_
_symmetry_equiv_pos_as_xyz
  x,y,z
_cell_length_a	23.532407
_cell_length_b	23.532407
_cell_length_c	22.010155
_cell_angle_alpha	90.003069
_cell_angle_beta	89.999577
_cell_angle_gamma	97.151322
loop_
_atom_site_label
_atom_site_type_symbol
_atom_site_fract_x
_atom_site_fract_y
_atom_site_fract_z
O1	O	0.069127	-0.755264	-0.050455
O2	O	0.402460	-0.421930	0.282878
O3	O	0.735794	-0.088597	0.616211
O4	O	0.079130	-0.589400	-0.050474
O5	O	0.412463	-0.256067	0.282859
O6	O	0.745797	0.077266	0.616193
O7	O	-0.008803	-0.677334	-0.050453
O8	O	0.324530	-0.344000	0.282880
O9	O	0.657863	-0.010667	0.616214
O10	O	0.157060	-0.667330	-0.050476
O11	O	0.490393	-0.333997	0.282857
O12	O	0.823727	-0.000664	0.616190
O13	O	-0.008790	-0.677318	0.050597
O14	O	0.324543	-0.343984	0.383931
O15	O	0.657877	-0.010651	0.717264
O16	O	0.079143	-0.589384	0.050576
O17	O	0.412477	-0.256051	0.383910
O18	O	0.745810	0.077282	0.717243
O19	O	0.069140	-0.755248	0.050595
O20	O	0.402473	-0.421914	0.383928
O21	O	0.735807	-0.088581	0.717262
Cu22	Cu	0.074143	-0.672315	0.059812
Cu23	Cu	0.407476	-0.338981	0.393146
Cu24	Cu	0.740810	-0.005648	0.726479
Cu25	Cu	0.074127	-0.672333	-0.059691
Cu26	Cu	0.407461	-0.339000	0.273642
Cu27	Cu	0.740794	-0.005667	0.606975
O28	O	0.157073	-0.667314	0.050574
O29	O	0.490407	-0.333981	0.383907
O30	O	0.823740	-0.000648	0.717241
C31	C	0.078882	-0.568176	0.000049
C32	C	0.412215	-0.234843	0.333382
C33	C	0.745549	0.098490	0.666715
C34	C	0.078116	-0.504959	0.000042
C35	C	0.411449	-0.171626	0.333375
C36	C	0.744783	0.161707	0.666709
C37	C	-0.030013	-0.677071	0.000074
C38	C	0.303321	-0.343738	0.333407
C39	C	0.636654	-0.010404	0.666740
C40	C	-0.093230	-0.676305	0.000078
C41	C	0.240104	-0.342972	0.333412
C42	C	0.573437	-0.009638	0.666745
N43	N	0.074153	-0.672305	0.143865
N44	N	0.407487	-0.338972	0.477198
N45	N	0.740820	-0.005639	0.810531
C46	C	-0.492333	-0.723539	0.000050
C47	C	-0.158999	-0.390205	0.333384
C48	C	0.174334	-0.056872	0.666717
C49	C	-0.551733	-0.722827	0.000046
C50	C	-0.218400	-0.389494	0.333379
C51	C	0.114934	-0.056160	0.666712
O52	O	-0.588478	-0.766613	0.000028
O53	O	-0.255144	-0.433280	0.333361
O54	O	0.078189	-0.099946	0.666695
N55	N	-0.574359	-0.670551	0.000040
N56	N	-0.241026	-0.337217	0.333373
N57	N	0.092307	-0.003884	0.666707
C58	C	-0.537582	-0.618983	0.000033
C59	C	-0.204248	-0.285649	0.333366
C60	C	0.129085	0.047684	0.666700
O61	O	-0.562281	-0.574452	0.000027
O62	O	-0.228948	-0.241119	0.333361
O63	O	0.104385	0.092215	0.666694
C64	C	-0.478182	-0.619695	0.000033
C65	C	-0.144849	-0.286361	0.333367
C66	C	0.188484	0.046972	0.666700
C67	C	-0.455560	-0.671974	0.000045
C68	C	-0.122227	-0.338641	0.333378
C69	C	0.211107	-0.005308	0.666712
C70	C	-0.469710	-0.775814	0.000061
C71	C	-0.136376	-0.442481	0.333394
C72	C	0.196957	-0.109147	0.666728
C73	C	-0.410313	-0.776525	0.000067
C74	C	-0.076980	-0.443192	0.333400
C75	C	0.256353	-0.109859	0.666734
C76	C	-0.373540	-0.724961	0.000062
C77	C	-0.040207	-0.391628	0.333395
C78	C	0.293126	-0.058294	0.666729
C79	C	-0.396164	-0.672685	0.000051
C80	C	-0.062830	-0.339352	0.333384
C81	C	0.270503	-0.006019	0.666718
C82	C	-0.441406	-0.568127	0.000022
C83	C	-0.108073	-0.234794	0.333356
C84	C	0.225261	0.098540	0.666689
C85	C	-0.382004	-0.568844	0.000022
C86	C	-0.048670	-0.235510	0.333355
C87	C	0.284663	0.097823	0.666689
C88	C	-0.359381	-0.621123	0.000034
C89	C	-0.026048	-0.287790	0.333367
C90	C	0.307286	0.045543	0.666700
C91	C	-0.299995	-0.621832	0.000052
C92	C	0.033339	-0.288499	0.333385
C93	C	0.366672	0.044834	0.666718
N94	N	-0.277368	-0.674109	0.000057
N95	N	0.055965	-0.340775	0.333390
N96	N	0.389298	-0.007442	0.666724
C97	C	-0.314141	-0.725673	0.000062
C98	C	0.019192	-0.392340	0.333396
C99	C	0.352525	-0.059006	0.666729
C100	C	-0.662324	-0.617491	0.000031
C101	C	-0.328991	-0.284158	0.333365
C102	C	0.004343	0.049176	0.666698
C103	C	-0.721722	-0.616778	0.000035
C104	C	-0.388389	-0.283445	0.333369
C105	C	-0.055055	0.049888	0.666702
C106	C	-0.735869	-0.720623	0.000047
C107	C	-0.402536	-0.387290	0.333380
C108	C	-0.069203	-0.053957	0.666713
C109	C	-0.676470	-0.721335	0.000047
C110	C	-0.343137	-0.388002	0.333380
C111	C	-0.009804	-0.054669	0.666714
C112	C	-0.639698	-0.669767	0.000037
C113	C	-0.306365	-0.336434	0.333370
C114	C	0.026969	-0.003101	0.666703
C115	C	-0.189405	-0.727163	0.000075
C116	C	0.143929	-0.393829	0.333408
C117	C	0.477262	-0.060496	0.666742
C118	C	-0.130003	-0.727869	0.000083
C119	C	0.203331	-0.394536	0.333417
C120	C	0.536664	-0.061203	0.666750
C121	C	-0.115860	-0.624025	0.000069
C122	C	0.217473	-0.290692	0.333402
C123	C	0.550806	0.042642	0.666736
C124	C	-0.175257	-0.623318	0.000064
C125	C	0.158076	-0.289985	0.333397
C126	C	0.491409	0.043349	0.666730
C127	C	-0.212029	-0.674891	0.000065
C128	C	0.121305	-0.341558	0.333398
C129	C	0.454638	-0.008225	0.666731
O130	O	-0.263215	-0.578070	0.000067
O131	O	0.070118	-0.244736	0.333400
O132	O	0.403451	0.088597	0.666733
O133	O	-0.289433	-0.770196	0.000060
O134	O	0.043900	-0.436863	0.333393
O135	O	0.377233	-0.103529	0.666727
C136	C	0.178283	-0.667577	0.000046
C137	C	0.511616	-0.334244	0.333379
C138	C	0.844949	-0.000910	0.666712
C139	C	0.241500	-0.668343	0.000037
C140	C	0.574833	-0.335010	0.333371
C141	C	0.908167	-0.001676	0.666704
C142	C	0.069388	-0.776472	0.000071
C143	C	0.402722	-0.443138	0.333404
C144	C	0.736055	-0.109805	0.666737
C145	C	0.070154	-0.839689	0.000073
C146	C	0.403487	-0.506355	0.333407
C147	C	0.736821	-0.173022	0.666740
C148	C	0.125350	-0.105856	0.000063
C149	C	0.458683	0.227477	0.333396
C150	C	0.792016	0.560810	0.666730
C151	C	0.124638	-0.046456	0.000067
C152	C	0.457971	0.286877	0.333400
C153	C	0.791305	0.620211	0.666733
O154	O	0.168424	-0.009711	0.000083
O155	O	0.501757	0.323622	0.333416
O156	O	0.835091	0.656955	0.666749
N157	N	0.072362	-0.023830	0.000073
N158	N	0.405695	0.309504	0.333407
N159	N	0.739028	0.642837	0.666740
C160	C	0.020794	-0.060607	0.000082
C161	C	0.354127	0.272726	0.333415
C162	C	0.687460	0.606059	0.666749
O163	O	-0.023737	-0.035908	0.000088
O164	O	0.309596	0.297426	0.333422
O165	O	0.642930	0.630759	0.666755
C166	C	0.021506	-0.120006	0.000082
C167	C	0.354839	0.213327	0.333416
C168	C	0.688172	0.546660	0.666749
C169	C	0.073785	-0.142629	0.000070
C170	C	0.407119	0.190704	0.333403
C171	C	0.740452	0.524038	0.666737
C172	C	0.177625	-0.128479	0.000051
C173	C	0.510958	0.204854	0.333385
C174	C	0.844292	0.538187	0.666718
C175	C	0.178336	-0.187876	0.000046
C176	C	0.511670	0.145458	0.333380
C177	C	0.845003	0.478791	0.666713
C178	C	0.126772	-0.224649	0.000053
C179	C	0.460105	0.108685	0.333386
C180	C	0.793439	0.442018	0.666720
C181	C	0.074497	-0.202025	0.000065
C182	C	0.407830	0.131308	0.333398
C183	C	0.741163	0.464641	0.666732
C184	C	-0.030062	-0.156783	0.000096
C185	C	0.303271	0.176550	0.333429
C186	C	0.636605	0.509884	0.666762
C187	C	-0.029345	-0.216185	0.000097
C188	C	0.303988	0.117148	0.333430
C189	C	0.637321	0.450481	0.666763
C190	C	0.022934	-0.238808	0.000084
C191	C	0.356268	0.094525	0.333417
C192	C	0.689601	0.427859	0.666751
C193	C	0.023643	-0.298194	0.000067
C194	C	0.356977	0.035139	0.333400
C195	C	0.690310	0.368472	0.666734
N196	N	0.075920	-0.320820	0.000061
N197	N	0.409253	0.012513	0.333394
N198	N	0.742586	0.345846	0.666727
C199	C	0.127484	-0.284048	0.000054
C200	C	0.460817	0.049286	0.333387
C201	C	0.794151	0.382619	0.666720
C202	C	0.019302	0.064135	0.000082
C203	C	0.352635	0.397468	0.333415
C204	C	0.685969	0.730802	0.666749
C205	C	0.018589	0.123533	0.000077
C206	C	0.351923	0.456866	0.333410
C207	C	0.685256	0.790200	0.666744
C208	C	0.122434	0.137680	0.000063
C209	C	0.455768	0.471014	0.333396
C210	C	0.789101	0.804347	0.666730
C211	C	0.123146	0.078281	0.000064
C212	C	0.456480	0.411615	0.333397
C213	C	0.789813	0.744948	0.666730
C214	C	0.071578	0.041509	0.000076
C215	C	0.404912	0.374842	0.333409
C216	C	0.738245	0.708176	0.666742
C217	C	0.128974	-0.408784	0.000043
C218	C	0.462307	-0.075451	0.333376
C219	C	0.795640	0.257882	0.666709
C220	C	0.129680	-0.468186	0.000035
C221	C	0.463014	-0.134853	0.333369
C222	C	0.796347	0.198480	0.666702
C223	C	0.025836	-0.482329	0.000052
C224	C	0.359169	-0.148995	0.333386
C225	C	0.692503	0.184338	0.666719
C226	C	0.025129	-0.422932	0.000057
C227	C	0.358462	-0.089598	0.333390
C228	C	0.691796	0.243735	0.666723
C229	C	0.076702	-0.386160	0.000054
C230	C	0.410036	-0.052827	0.333387
C231	C	0.743369	0.280506	0.666721
O232	O	-0.020119	-0.334974	0.000054
O233	O	0.313214	-0.001640	0.333387
O234	O	0.646547	0.331693	0.666720
O235	O	0.172007	-0.308755	0.000055
O236	O	0.505340	0.024578	0.333389
O237	O	0.838674	0.357911	0.666722
N238	N	0.074112	-0.672347	-0.143744
N239	N	0.407445	-0.339014	0.189589
N240	N	0.740779	-0.005680	0.522923
C241	C	0.035196	-0.711273	0.563653
C242	C	0.368529	-0.377939	0.896987
C243	C	0.701863	-0.044606	1.230320
C244	C	0.035192	-0.711275	0.627261
C245	C	0.368525	-0.377942	0.960594
C246	C	0.701859	-0.044609	1.293928
O247	O	0.002076	-0.744384	0.660160
O248	O	0.335410	-0.411050	0.993494
O249	O	0.668743	-0.077717	1.326827
N250	N	0.074115	-0.672333	0.659072
N251	N	0.407449	-0.339000	0.992405
N252	N	0.740782	-0.005667	1.325739
C253	C	0.113041	-0.633382	0.627272
C254	C	0.446375	-0.300049	0.960605
C255	C	0.779708	0.033285	1.293938
O256	O	0.146148	-0.600259	0.660170
O257	O	0.479481	-0.266925	0.993503
O258	O	0.812815	0.066408	1.326837
C259	C	0.113042	-0.633377	0.563665
C260	C	0.446375	-0.300044	0.896999
C261	C	0.779709	0.033289	1.230332
C262	C	0.074120	-0.672326	0.531858
C263	C	0.407453	-0.338992	0.865191
C264	C	0.740787	-0.005659	1.198524
C265	C	-0.003723	-0.750217	0.531846
C266	C	0.329610	-0.416884	0.865179
C267	C	0.662943	-0.083551	1.198513
C268	C	-0.003719	-0.750215	0.468243
C269	C	0.329615	-0.416882	0.801576
C270	C	0.662948	-0.083549	1.134909
C271	C	0.035205	-0.711268	0.436447
C272	C	0.368539	-0.377935	0.769780
C273	C	0.701872	-0.044602	1.103114
C274	C	0.074125	-0.672324	0.468255
C275	C	0.407458	-0.338990	0.801588
C276	C	0.740791	-0.005657	1.134921
C277	C	0.151965	-0.594424	0.531866
C278	C	0.485298	-0.261091	0.865200
C279	C	0.818632	0.072243	1.198533
C280	C	0.151962	-0.594422	0.468256
C281	C	0.485295	-0.261089	0.801589
C282	C	0.818629	0.072245	1.134922
C283	C	0.113040	-0.633370	0.436448
C284	C	0.446373	-0.300037	0.769781
C285	C	0.779707	0.033296	1.103115
C286	C	0.113054	-0.633374	0.372856
C287	C	0.446387	-0.300041	0.706189
C288	C	0.779720	0.033292	1.039522
N289	N	0.074130	-0.672317	0.341045
N290	N	0.407464	-0.338983	0.674378
N291	N	0.740797	-0.005650	1.007712
C292	C	0.035206	-0.711263	0.372841
C293	C	0.368540	-0.377930	0.706174
C294	C	0.701873	-0.044597	1.039507
C295	C	0.113036	-0.633395	0.760850
C296	C	0.446369	-0.300061	1.094183
C297	C	0.779703	0.033272	1.427516
C298	C	0.113039	-0.633402	0.824455
C299	C	0.446372	-0.300069	1.157788
C300	C	0.779705	0.033265	1.491122
C301	C	0.035188	-0.711294	0.824440
C302	C	0.368522	-0.377961	1.157773
C303	C	0.701855	-0.044628	1.491106
C304	C	0.035189	-0.711290	0.760833
C305	C	0.368522	-0.377956	1.094167
C306	C	0.701856	-0.044623	1.427500
C307	C	0.074113	-0.672337	0.729039
C308	C	0.407446	-0.339003	1.062372
C309	C	0.740779	-0.005670	1.395705
C310	C	0.035220	-0.711256	0.239269
C311	C	0.368553	-0.377923	0.572603
C312	C	0.701886	-0.044590	0.905936
C313	C	0.035229	-0.711252	0.175660
C314	C	0.368563	-0.377919	0.508994
C315	C	0.701896	-0.044586	0.842327
C316	C	0.113077	-0.633358	0.175681
C317	C	0.446411	-0.300025	0.509014
C318	C	0.779744	0.033309	0.842348
C319	C	0.113070	-0.633364	0.239284
C320	C	0.446403	-0.300031	0.572618
C321	C	0.779736	0.033303	0.905951
C322	C	0.074136	-0.672315	0.271077
C323	C	0.407469	-0.338982	0.604410
C324	C	0.740803	-0.005649	0.937744
O325	O	0.146151	-0.600282	0.339916
O326	O	0.479484	-0.266948	0.673249
O327	O	0.812818	0.066385	1.006583
O328	O	0.002100	-0.744376	0.339935
O329	O	0.335433	-0.411043	0.673268
O330	O	0.668767	-0.077710	1.006601
H331	H	-0.111587	-0.770443	0.000094
H332	H	0.221746	-0.437110	0.333428
H333	H	0.555080	-0.103777	0.666761
F334	F	0.183864	-0.369658	0.000040
F335	F	0.517198	-0.036324	0.333374
F336	F	0.850531	0.297009	0.666707
H337	H	-0.740136	-0.574207	0.000036
H338	H	-0.406802	-0.240874	0.333370
H339	H	-0.073469	0.092460	0.666703
H340	H	0.003534	-0.742971	0.149765
H341	H	0.336868	-0.409638	0.483098
H342	H	0.670201	-0.076304	0.816431
F343	F	-0.030513	-0.398854	0.000070
F344	F	0.302821	-0.065521	0.333404
F345	F	0.636154	0.267812	0.666737
F346	F	-0.085706	-0.132720	0.000100
F347	F	0.247627	0.200614	0.333434
F348	F	0.580961	0.533947	0.666767
F349	F	-0.775016	-0.775503	0.000049
F350	F	-0.441683	-0.442170	0.333382
F351	F	-0.108350	-0.108836	0.666716
H352	H	-0.499645	-0.817806	0.000063
H353	H	-0.166312	-0.484473	0.333396
H354	H	0.167022	-0.151140	0.666730
F355	F	0.232512	-0.089351	0.000044
F356	F	0.565845	0.243983	0.333377
F357	F	0.899179	0.577316	0.666710
F358	F	-0.652399	-0.776978	0.000059
F359	F	-0.319066	-0.443644	0.333393
F360	F	0.014267	-0.110311	0.666726
H361	H	-0.023982	0.141947	0.000078
H362	H	0.309352	0.475280	0.333411
H363	H	0.642685	0.808613	0.666744
F364	F	-0.199335	-0.567676	0.000062
F365	F	0.133999	-0.234343	0.333396
F366	F	0.467332	0.098990	0.666729
H367	H	-0.071339	-0.246123	0.000107
H368	H	0.261994	0.087210	0.333440
H369	H	0.595327	0.420543	0.666773
F370	F	0.233980	-0.211944	0.000036
F371	F	0.567313	0.121389	0.333369
F372	F	0.900647	0.454722	0.666702
F373	F	-0.623192	-0.562602	0.000026
F374	F	-0.289859	-0.229268	0.333359
F375	F	0.043474	0.104065	0.666693
F376	F	-0.342871	-0.513956	0.000010
F377	F	-0.009537	-0.180623	0.333343
F378	F	0.323796	0.152710	0.666677
F379	F	-0.076714	-0.569149	0.000064
F380	F	0.256619	-0.235816	0.333397
F381	F	0.589953	0.097517	0.666730
F382	F	-0.465469	-0.512483	0.000007
F383	F	-0.132136	-0.179150	0.333341
F384	F	0.201197	0.154184	0.666674
H385	H	0.165717	0.059867	0.000057
H386	H	0.499050	0.393200	0.333390
H387	H	0.832384	0.726533	0.666723
H388	H	0.183658	-0.562708	0.557755
H389	H	0.516992	-0.229375	0.891089
H390	H	0.850325	0.103958	1.224422
F391	F	0.154472	-0.591955	0.858300
F392	F	0.487805	-0.258622	1.191634
F393	F	0.821138	0.074712	1.524967
F394	F	0.185326	-0.492259	0.000020
F395	F	0.518659	-0.158926	0.333353
F396	F	0.851993	0.174408	0.666687
F397	F	0.177314	0.176828	0.000058
F398	F	0.510647	0.510161	0.333391
F399	F	0.843981	0.843494	0.666725
H400	H	-0.022693	0.034198	0.000086
H401	H	0.310640	0.367531	0.333420
H402	H	0.643973	0.700864	0.666753
H403	H	-0.016146	-0.512280	0.000056
H404	H	0.317187	-0.178946	0.333389
H405	H	0.650520	0.154387	0.666722
F406	F	-0.386245	-0.832169	0.000066
F407	F	-0.052911	-0.498835	0.333400
F408	F	0.280422	-0.165502	0.666733
F409	F	-0.006237	-0.752743	0.726987
F410	F	0.327096	-0.419409	1.060321
F411	F	0.660429	-0.086076	1.393654
H412	H	0.003516	-0.742973	0.265148
H413	H	0.336849	-0.409640	0.598481
H414	H	0.670182	-0.076307	0.931814
H415	H	-0.035414	-0.781929	0.442349
H416	H	0.297919	-0.448595	0.775682
H417	H	0.631253	-0.115262	1.109015
H418	H	-0.035423	-0.781933	0.557728
H419	H	0.297911	-0.448599	0.891062
H420	H	0.631244	-0.115266	1.224395
H421	H	0.144737	-0.601676	0.734966
H422	H	0.478070	-0.268343	1.068299
H423	H	0.811404	0.064991	1.401632
H424	H	0.003493	-0.743006	0.850339
H425	H	0.336827	-0.409673	1.183673
H426	H	0.670160	-0.076340	1.517006
F427	F	0.193390	-0.552960	0.434422
F428	F	0.526724	-0.219627	0.767755
F429	F	0.860057	0.113706	1.101088
H430	H	0.144769	-0.601654	0.265183
H431	H	0.478102	-0.268321	0.598516
H432	H	0.811436	0.065013	0.931849
H433	H	-0.219337	-0.769159	0.000073
H434	H	0.113996	-0.435826	0.333407
H435	H	0.447329	-0.102492	0.666740
F436	F	0.154503	-0.591911	0.141832
F437	F	0.487836	-0.258577	0.475165
F438	F	0.821169	0.074756	0.808499
