data_functionalizedCrystal
_audit_creation_method	'MofGen! by Chris Wilmer'
_symmetry_space_group_name_H-M	'P1'
_symmetry_Int_Tables_number	1
_symmetry_cell_setting	triclinic
loop_
_symmetry_equiv_pos_as_xyz
  x,y,z
_cell_length_a	29.839131
_cell_length_b	12.645331
_cell_length_c	12.645323
_cell_angle_alpha	89.977324
_cell_angle_beta	90.032712
_cell_angle_gamma	89.959601
loop_
_atom_site_label
_atom_site_type_symbol
_atom_site_fract_x
_atom_site_fract_y
_atom_site_fract_z
Zn1	Zn	-0.178862	-1.620556	0.599388
Zn2	Zn	-0.253994	-1.620365	0.422104
Zn3	Zn	-0.178877	-1.443271	0.422133
Zn4	Zn	-0.253964	-1.443179	0.599320
O5	O	-0.216424	-1.531843	0.510736
O6	O	-0.188834	-1.768878	0.575888
O7	O	-0.244048	-1.596831	0.273761
O8	O	-0.116008	-1.466907	0.445687
O9	O	-0.244033	-1.768737	0.445638
O10	O	-0.115997	-1.597158	0.575916
O11	O	-0.188860	-1.466721	0.273782
O12	O	-0.188832	-1.294912	0.445620
O13	O	-0.243983	-1.466751	0.747676
O14	O	-0.243998	-1.294844	0.575799
O15	O	-0.188806	-1.597069	0.747727
O16	O	-0.316857	-1.596742	0.445571
O17	O	-0.316835	-1.466565	0.575771
C18	C	-0.216414	-1.256413	0.510706
C19	C	-0.216420	-1.138583	0.510718
C20	C	-0.333147	-1.531651	0.510684
C21	C	-0.383081	-1.531667	0.510697
C22	C	-0.216390	-1.531921	0.787242
C23	C	-0.216375	-1.531954	0.905072
C24	C	-0.692723	-1.599749	0.443041
C25	C	-0.880396	-1.599880	0.443082
O26	O	-0.904660	-1.657615	0.385518
N27	N	-0.903866	-1.532063	0.510816
C28	C	-0.880415	-1.464212	0.578550
O29	O	-0.904684	-1.406540	0.636171
C30	C	-0.692743	-1.464088	0.578514
C31	C	-0.669275	-1.531902	0.510767
C32	C	-0.669256	-1.667559	0.375300
C33	C	-0.622340	-1.667522	0.375287
C34	C	-0.598892	-1.599674	0.443013
C35	C	-0.622360	-1.531865	0.510753
C36	C	-0.669293	-1.396244	0.646252
C37	C	-0.622372	-1.396220	0.646239
C38	C	-0.598904	-1.464035	0.578492
C39	C	-0.551997	-1.463980	0.578466
N40	N	-0.528527	-1.531798	0.510732
C41	C	-0.551975	-1.599645	0.443005
C42	C	-0.978946	-1.464281	0.578563
C43	C	-1.025864	-1.464311	0.578571
C44	C	-1.025842	-1.599980	0.443104
C45	C	-0.978923	-1.599945	0.443091
C46	C	-0.955476	-1.532099	0.510829
C47	C	-0.453449	-1.599560	0.442981
C48	C	-0.406529	-1.599514	0.442970
C49	C	-0.406555	-1.463849	0.578441
C50	C	-0.453471	-1.463891	0.578448
C51	C	-0.476916	-1.531755	0.510715
O52	O	-0.527704	-1.406284	0.636009
O53	O	-0.527697	-1.657325	0.385409
C54	C	-0.739639	-1.599787	0.443054
C55	C	-0.763106	-1.531977	0.510794
C56	C	-0.739659	-1.464130	0.578521
C57	C	-0.810024	-1.532007	0.510802
C58	C	-0.833472	-1.599854	0.443076
C59	C	-0.810002	-1.667672	0.375341
C60	C	-0.763087	-1.667634	0.375328
C61	C	-0.763129	-1.396312	0.646256
C62	C	-0.810044	-1.396354	0.646263
C63	C	-0.833492	-1.464202	0.578536
C64	C	-0.099246	-1.532064	0.510812
C65	C	-0.049312	-1.532158	0.510845
C66	C	-0.216435	-1.808348	0.510768
C67	C	-0.216440	-1.926178	0.510781
C68	C	-0.181555	-0.971026	0.429274
C69	C	-0.181645	-1.093586	0.428915
C70	C	-0.263746	-1.094017	0.480188
C71	C	-0.263555	-0.971418	0.479632
C72	C	-0.204409	-0.971445	0.623006
C73	C	-0.203352	-1.094052	0.622382
C74	C	-0.216427	-1.531826	0.235307
C75	C	-0.216315	-1.531998	0.117477
C76	C	-0.250923	-1.449718	1.072604
C77	C	-0.251094	-1.449934	0.950044
C78	C	-0.229224	-1.643641	0.949588
C79	C	-0.229441	-1.643190	1.072186
C80	C	-0.168784	-1.503559	1.072285
C81	C	-0.169069	-1.501067	0.949679
H82	H	-0.387423	-1.654736	0.387799
H83	H	-0.229818	-0.942442	0.683735
C84	C	-0.277764	-1.135405	0.370536
N85	N	-0.288320	-1.166576	0.287943
C86	C	-0.240230	-1.338046	0.909379
N87	N	-0.232049	-1.253767	0.878755
C88	C	-0.737278	-1.742232	0.300797
N89	N	-0.717842	-1.798423	0.244655
C90	C	-0.192172	-0.929326	0.317588
N91	N	-0.200169	-0.897913	0.233467
C92	C	-0.277333	-0.932703	0.368793
N93	N	-0.287708	-0.903548	0.285304
C94	C	-0.299860	-0.931331	0.556326
N95	N	-0.327205	-0.901143	0.614088
H96	H	-0.688342	-1.722814	0.320149
C97	C	-0.276382	-1.675754	1.110825
N98	N	-0.311740	-1.700278	1.139923
H99	H	-0.290432	-1.123160	0.537689
H100	H	-0.744041	-1.341064	0.701408
C101	C	-0.596532	-1.742115	0.300751
N102	N	-0.577096	-1.798300	0.244603
H103	H	-0.205328	-1.706571	1.101872
C104	C	-0.240163	-1.337493	1.112415
N105	N	-0.232058	-1.252963	1.142408
C106	C	-0.133950	-1.584523	1.111489
N107	N	-0.107717	-1.645509	1.141020
H108	H	-1.044941	-1.655225	0.387958
C109	C	-0.152963	-1.395447	1.114029
N110	N	-0.141053	-1.314011	1.145469
C111	C	-0.196250	-1.728684	0.910233
N112	N	-0.171414	-1.792736	0.880588
H113	H	-0.189597	-1.122856	0.345753
H114	H	-0.286331	-1.468704	0.920719
H115	H	-1.044967	-1.409080	0.633727
H116	H	-0.146552	-1.123721	0.448053
C117	C	-0.835804	-1.742303	0.300841
N118	N	-0.855240	-1.798515	0.244734
H119	H	-0.263606	-1.668166	0.918888
C120	C	-0.235177	-1.135429	0.708815
N121	N	-0.259152	-1.166590	0.773913
C122	C	-0.134001	-0.931264	0.454845
N123	N	-0.098182	-0.901307	0.474107
C124	C	-0.835853	-1.321746	0.720793
N125	N	-0.855291	-1.265559	0.776935
C126	C	-0.158599	-0.929761	0.660507
N127	N	-0.124093	-0.898366	0.688739
H128	H	-0.285940	-1.468306	1.103412
H129	H	-0.168526	-1.123190	0.645403
C130	C	-0.155967	-1.390052	0.910328
N131	N	-0.146096	-1.306442	0.880667
H132	H	-0.141920	-1.556621	0.919066
H133	H	-0.472579	-1.408674	0.633616
C134	C	-0.479232	-1.674208	0.368464
N135	N	-0.498652	-1.730427	0.312332
C136	C	-0.380754	-1.389224	0.652941
N137	N	-0.361319	-1.333024	0.709061
H138	H	-0.959858	-1.409030	0.633725
C139	C	-0.695097	-1.321644	0.720783
N140	N	-0.714532	-1.265453	0.776927
C141	C	-0.953113	-1.674548	0.368569
N142	N	-0.933675	-1.730745	0.312437
C143	C	-0.596583	-1.321583	0.720758
N144	N	-0.577160	-1.265364	0.776884
