data_functionalizedCrystal
_audit_creation_method	'MofGen! by Chris Wilmer'
_symmetry_space_group_name_H-M	'P1'
_symmetry_Int_Tables_number	1
_symmetry_cell_setting	triclinic
loop_
_symmetry_equiv_pos_as_xyz
  x,y,z
_cell_length_a	18.050591
_cell_length_b	12.759400
_cell_length_c	12.759393
_cell_angle_alpha	89.968436
_cell_angle_beta	90.027698
_cell_angle_gamma	89.989309
loop_
_atom_site_label
_atom_site_type_symbol
_atom_site_fract_x
_atom_site_fract_y
_atom_site_fract_z
Zn1	Zn	1.135412	0.418316	0.594239
Zn2	Zn	1.135337	0.594035	0.418559
Zn3	Zn	1.011217	0.418358	0.418550
Zn4	Zn	1.011209	0.593941	0.594173
O5	O	1.073294	0.506163	0.506380
O6	O	1.239327	0.441647	0.570967
O7	O	1.118845	0.570788	0.271537
O8	O	1.027726	0.271332	0.441880
O9	O	1.239272	0.570747	0.441895
O10	O	1.118972	0.271301	0.570958
O11	O	1.027654	0.441719	0.271531
O12	O	0.907291	0.441628	0.441815
O13	O	1.027712	0.570587	0.741203
O14	O	0.907285	0.570628	0.570844
O15	O	1.118964	0.441556	0.741252
O16	O	1.118837	0.741044	0.441831
O17	O	1.027640	0.740975	0.570853
C18	C	0.880342	0.506124	0.506322
C19	C	0.797796	0.506132	0.506322
C20	C	1.073250	0.779130	0.506359
C21	C	1.073299	0.895907	0.506384
C22	C	1.073346	0.506057	0.780414
C23	C	1.073368	0.506012	0.897191
C24	C	0.598327	0.435901	0.436318
C25	C	0.548921	0.531731	0.410469
C26	C	0.646665	0.506164	0.506370
C27	C	0.548990	0.410366	0.532216
C28	C	0.500680	0.506186	0.506414
C29	C	0.598347	0.602045	0.480471
C30	C	0.598420	0.480616	0.602263
C31	C	0.549036	0.576513	0.576450
C32	C	0.730764	0.506150	0.506342
C33	C	0.416584	0.506211	0.506442
C34	C	1.266999	0.506203	0.506439
C35	C	1.349545	0.506220	0.506464
C36	C	1.073358	0.232129	0.506425
C37	C	1.073386	0.115353	0.506445
C38	C	1.120838	0.950770	0.439277
C39	C	1.120883	1.060494	0.439309
C40	C	1.025845	1.060482	0.573560
C41	C	1.025803	0.950760	0.573532
C42	C	1.175705	0.950777	0.361765
C43	C	1.175751	1.060501	0.361797
C44	C	1.073285	0.506193	0.233413
C45	C	1.073406	0.505942	0.116637
C46	C	1.120889	0.438819	0.952080
C47	C	1.120907	0.438781	1.061804
C48	C	1.025880	0.573138	1.061740
C49	C	1.025859	0.573170	0.952018
C50	C	1.175755	0.361252	0.952118
C51	C	1.175772	0.361214	1.061842
H52	H	0.619970	0.376545	0.377013
H53	H	0.987176	1.105157	0.628230
H54	H	1.155193	0.283903	1.095885
H55	H	1.233291	0.383012	1.091633
H56	H	0.987160	0.627881	0.907331
H57	H	1.233204	0.920925	0.383629
H58	H	0.527180	0.553357	0.329393
N59	N	1.156399	1.098008	0.259750
N60	N	1.095167	1.074450	0.220508
H61	H	1.081473	1.100958	0.148457
H62	H	0.987198	0.627813	1.106394
H63	H	1.160367	0.279886	0.922358
N64	N	0.522050	0.651161	0.650774
N65	N	0.481639	0.725004	0.621078
H66	H	0.462579	0.777729	0.673564
N67	N	1.149861	0.908191	0.264763
N68	N	1.085955	0.928858	0.233128
H69	H	1.067697	0.898785	0.164620
N70	N	1.244277	0.397853	0.909442
N71	N	1.295609	0.425235	0.969238
H72	H	1.344004	0.451089	0.939099
N73	N	1.244304	1.103080	0.398455
N74	N	1.303276	1.082489	0.351455
H75	H	1.351691	1.112560	0.377347
N76	N	0.625436	0.703710	0.452934
N77	N	0.665397	0.714961	0.373743
H78	H	0.684531	0.786758	0.354291
N79	N	0.625709	0.453443	0.703944
N80	N	0.609937	0.366501	0.743219
H81	H	0.629210	0.347299	0.815033
H82	H	0.527270	0.329353	0.554023
H83	H	0.987100	0.906092	0.628185
