data_functionalizedCrystal
_audit_creation_method	'MofGen! by Chris Wilmer'
_symmetry_space_group_name_H-M	'P1'
_symmetry_Int_Tables_number	1
_symmetry_cell_setting	triclinic
loop_
_symmetry_equiv_pos_as_xyz
  x,y,z
_cell_length_a	13.339070
_cell_length_b	19.188930
_cell_length_c	11.804365
_cell_angle_alpha	101.784974
_cell_angle_beta	74.875130
_cell_angle_gamma	99.387037
loop_
_atom_site_label
_atom_site_type_symbol
_atom_site_fract_x
_atom_site_fract_y
_atom_site_fract_z
O1	O	1.361237	0.339586	-0.099122
O2	O	1.066910	0.293684	-0.099108
O3	O	1.222562	0.216645	-0.099092
O4	O	1.205585	0.416625	-0.099138
O5	O	1.181585	0.236898	0.098959
O6	O	1.025933	0.313937	0.098944
O7	O	1.320260	0.359839	0.098929
Cu8	Cu	1.169355	0.338737	0.117020
Cu9	Cu	1.217815	0.314786	-0.117199
O10	O	1.164608	0.436878	0.098914
C11	C	1.008766	0.296057	-0.000080
C12	C	0.896565	0.272945	-0.000074
C13	C	0.530990	0.452652	-0.000134
C14	C	0.636408	0.474369	-0.000143
C15	C	0.701453	0.424015	-0.000126
C16	C	0.661068	0.351940	-0.000099
C17	C	0.555641	0.330220	-0.000098
C18	C	0.726104	0.301582	-0.000090
C19	C	0.685720	0.229508	-0.000064
C20	C	0.580303	0.207791	-0.000062
C21	C	0.515258	0.258146	-0.000080
C22	C	0.831531	0.323302	-0.000091
C23	C	0.856183	0.200870	-0.000056
C24	C	0.750764	0.179154	-0.000046
C25	C	1.201523	0.200653	-0.000063
C26	C	1.199870	0.122826	-0.000053
C27	C	1.291203	0.095789	-0.000051
C28	C	1.289655	0.022659	-0.000070
C29	C	1.196765	-0.023428	-0.000067
C30	C	1.105421	0.003617	-0.000075
C31	C	1.106973	0.076744	-0.000068
N32	N	1.111815	-0.138445	0.067337
N33	N	1.110346	-0.207912	0.067333
C34	C	1.192082	-0.243757	-0.000091
N35	N	1.275355	-0.207508	-0.067495
N36	N	1.276826	-0.138034	-0.067486
C37	C	1.195071	-0.102723	-0.000075
C38	C	1.281744	-0.350090	-0.000112
C39	C	1.280194	-0.423222	-0.000138
C40	C	1.095954	-0.442262	-0.000131
C41	C	1.097509	-0.369132	-0.000116
C42	C	1.190405	-0.323050	-0.000101
C43	C	1.378404	0.357466	-0.000101
C44	C	1.490607	0.380578	-0.000115
C45	C	1.185648	0.452870	-0.000118
C46	C	1.187303	0.530696	-0.000136
N47	N	1.135278	0.355585	0.281757
N48	N	1.251900	0.297935	-0.281936
C49	C	1.333731	0.257465	0.655726
C50	C	1.359509	0.244717	0.531067
C51	C	1.303453	0.272433	0.468734
C52	C	1.221616	0.312899	0.531071
C53	C	1.195840	0.325653	0.655743
C54	C	1.165562	0.340620	0.468750
C55	C	1.083725	0.381087	0.531088
C56	C	1.057953	0.393838	0.655747
C57	C	1.114009	0.366123	0.718080
C58	C	1.191338	0.327866	0.344079
C59	C	1.053447	0.396054	0.344095
C60	C	1.027669	0.408802	0.468754
H61	H	0.547428	0.149102	-0.000054
H62	H	1.007803	0.418625	0.293344
F63	F	1.000297	-0.340355	-0.000113
F64	F	0.403057	0.235036	-0.000067
F65	F	1.086570	0.379687	0.850759
H66	H	1.364033	0.000640	-0.000074
F67	F	1.377411	-0.451997	-0.000144
H68	H	1.426142	0.211771	0.480316
F69	F	1.390077	0.144826	-0.000061
H70	H	1.379370	0.234907	0.706486
F71	F	0.970865	0.436915	0.722092
H72	H	0.717870	0.120468	-0.000034
H73	H	1.029789	-0.033912	-0.000075
F74	F	0.925404	0.147275	-0.000044
F75	F	1.009759	0.105520	-0.000070
F76	F	0.997093	-0.491307	-0.000133
F77	F	0.679382	0.551072	-0.000177
H78	H	0.864400	0.381986	-0.000108
F79	F	0.813648	0.447130	-0.000134
H80	H	0.961035	0.441751	0.519525
H81	H	1.357387	-0.312568	-0.000105
F82	F	1.330889	0.258863	0.336060
F83	F	1.278432	0.284801	0.277749
H84	H	0.478024	0.493641	-0.000158
