data_functionalizedCrystal
_audit_creation_method	'MofGen! by Chris Wilmer'
_symmetry_space_group_name_H-M	'P1'
_symmetry_Int_Tables_number	1
_symmetry_cell_setting	triclinic
loop_
_symmetry_equiv_pos_as_xyz
  x,y,z
_cell_length_a	12.827893
_cell_length_b	16.120444
_cell_length_c	12.827885
_cell_angle_alpha	92.864671
_cell_angle_beta	89.980728
_cell_angle_gamma	92.926656
loop_
_atom_site_label
_atom_site_type_symbol
_atom_site_fract_x
_atom_site_fract_y
_atom_site_fract_z
Zn1	Zn	1.576496	-0.331863	-0.611900
Zn2	Zn	2.076496	0.168137	-0.111900
Zn3	Zn	1.567494	-0.471299	-0.446006
Zn4	Zn	2.067494	0.028701	0.053994
Zn5	Zn	1.401735	-0.331905	-0.437177
Zn6	Zn	1.901735	0.168095	0.062823
Zn7	Zn	1.392831	-0.471238	-0.620702
Zn8	Zn	1.892831	0.028762	-0.120702
O9	O	1.484639	-0.401576	-0.528946
O10	O	1.984639	0.098424	-0.028946
O11	O	1.721538	-0.350369	-0.589906
O12	O	2.221538	0.149631	-0.089906
O13	O	1.545465	-0.452851	-0.298601
O14	O	2.045465	0.047149	0.201399
O15	O	1.432411	-0.215233	-0.452976
O16	O	1.932411	0.284767	0.047024
O17	O	1.714924	-0.452811	-0.468024
O18	O	2.214924	0.047189	0.031976
O19	O	1.560808	-0.215203	-0.581344
O20	O	2.060808	0.284797	-0.081344
O21	O	1.423683	-0.350438	-0.292114
O22	O	1.923683	0.149562	0.207886
O23	O	1.254319	-0.350379	-0.461510
O24	O	1.754319	0.149621	0.038490
O25	O	1.417235	-0.452706	-0.765768
O26	O	1.917235	0.047294	-0.265768
O27	O	1.247777	-0.452746	-0.596345
O28	O	1.747777	0.047254	-0.096345
O29	O	1.552174	-0.350309	-0.759301
O30	O	2.052174	0.149691	-0.259301
O31	O	1.536831	-0.587957	-0.476558
O32	O	2.036831	-0.087957	0.023442
O33	O	1.408506	-0.587912	-0.604907
O34	O	1.908506	-0.087912	-0.104907
C35	C	1.213130	-0.401561	-0.528925
C36	C	1.713130	0.098439	-0.028925
C37	C	1.096976	-0.401574	-0.528942
C38	C	1.596976	0.098426	-0.028942
C39	C	1.048458	-0.350972	-0.589358
C40	C	1.548458	0.149028	-0.089358
C41	C	0.928407	-0.350985	-0.589377
C42	C	1.428407	0.149015	-0.089377
C43	C	1.470754	-0.618184	-0.542668
C44	C	1.970754	-0.118184	-0.042668
C45	C	1.464909	-0.710850	-0.548574
C46	C	1.964909	-0.210850	-0.048574
C47	C	1.515214	-0.921795	-0.498537
C48	C	2.015214	-0.421795	0.001463
C49	C	1.454258	-0.880507	-0.559366
C50	C	1.954258	-0.380507	-0.059366
C51	C	1.460186	-0.786101	-0.553359
C52	C	1.960186	-0.286101	-0.053359
C53	C	1.509287	-1.016209	-0.504542
C54	C	2.009287	-0.516209	-0.004542
C55	C	1.757208	-0.401592	-0.528968
C56	C	2.257208	0.098408	-0.028968
C57	C	1.873361	-0.401599	-0.528977
C58	C	2.373361	0.098401	-0.028977
C59	C	1.484715	-0.401496	-0.801511
C60	C	1.984715	0.098504	-0.301511
C61	C	1.484748	-0.401462	-0.917663
C62	C	1.984748	0.098538	-0.417663
C63	C	1.498607	-0.184122	-0.515193
C64	C	1.998607	0.315878	-0.015193
C65	C	1.504559	-0.091456	-0.509333
C66	C	2.004559	0.408544	-0.009333
C67	C	1.551527	-0.350783	-0.966247
C68	C	2.051527	0.149217	-0.466247
C69	C	1.551562	-0.350746	-1.086295
C70	C	2.051562	0.149254	-0.586295
C71	C	1.484627	-0.401596	-0.257438
C72	C	1.984627	0.098404	0.242562
C73	C	1.484812	-0.401395	-0.141272
C74	C	1.984812	0.098605	0.358728
H75	H	0.886670	-0.307666	-0.641105
H76	H	1.386670	0.192334	-0.141105
H77	H	1.427641	-0.444789	-1.099486
H78	H	1.927641	0.055211	-0.599486
F79	F	1.380225	-0.926975	-0.633330
F80	F	1.880225	-0.426975	-0.133330
H81	H	1.571847	-0.886246	-0.441951
H82	H	2.071847	-0.386246	0.058049
H83	H	1.608670	-0.307418	-0.918966
H84	H	2.108670	0.192582	-0.418966
F85	F	1.110329	-0.294330	-0.656946
F86	F	1.610329	0.205670	-0.156946
H87	H	1.427595	-0.444818	-0.964942
H88	H	1.927595	0.055182	-0.464942
H89	H	1.608738	-0.307360	-1.128089
H90	H	2.108738	0.192640	-0.628089
H91	H	1.049637	-0.444904	-0.477230
H92	H	1.549637	0.055096	0.022770
F93	F	0.927903	-0.458233	-0.461370
F94	F	1.427903	0.041767	0.038630
