data_functionalizedCrystal
_audit_creation_method	'MofGen! by Chris Wilmer'
_symmetry_space_group_name_H-M	'P1'
_symmetry_Int_Tables_number	1
_symmetry_cell_setting	triclinic
loop_
_symmetry_equiv_pos_as_xyz
  x,y,z
_cell_length_a	16.109318
_cell_length_b	17.699083
_cell_length_c	14.586319
_cell_angle_alpha	89.995320
_cell_angle_beta	90.000075
_cell_angle_gamma	83.375789
loop_
_atom_site_label
_atom_site_type_symbol
_atom_site_fract_x
_atom_site_fract_y
_atom_site_fract_z
O1	O	1.102954	0.097347	-0.076166
O2	O	0.860873	0.109440	-0.076185
O3	O	0.988753	-0.006785	-0.076167
O4	O	0.975074	0.213573	-0.076184
O5	O	0.988744	-0.006787	0.076314
O6	O	0.860864	0.109439	0.076296
O7	O	1.102945	0.097345	0.076315
Cu8	Cu	0.981904	0.103392	0.090228
Cu9	Cu	0.981915	0.103394	-0.090098
O10	O	0.975065	0.213571	0.076297
C11	C	0.829895	0.108947	0.000053
C12	C	0.737603	0.107472	0.000046
C13	C	0.988259	-0.034984	0.000074
C14	C	0.986788	-0.119004	0.000074
C15	C	0.438542	0.102707	-0.083054
C16	C	0.525261	0.104088	-0.083060
C17	C	0.525270	0.104076	0.083183
C18	C	0.438554	0.102689	0.083188
C19	C	0.395192	0.102009	0.000066
C20	C	0.568627	0.104777	0.000056
C21	C	0.662651	0.106275	0.000050
C22	C	0.301161	0.100509	0.000072
C23	C	1.061851	-0.167514	0.000081
C24	C	1.060464	-0.246459	0.000073
C25	C	0.984014	-0.276893	0.000064
C26	C	0.908946	-0.228378	0.000054
C27	C	0.910333	-0.149434	0.000056
C28	C	0.903349	-0.546749	0.000046
C29	C	0.901967	-0.625699	0.000048
C30	C	1.053480	-0.643774	0.000063
C31	C	1.054867	-0.564831	0.000065
C32	C	0.979799	-0.516322	0.000050
C33	C	0.981304	-0.430720	0.000058
C34	C	0.982509	-0.362493	0.000064
C35	C	1.133923	0.097838	0.000075
C36	C	1.226215	0.099314	0.000076
C37	C	0.975560	0.241770	0.000054
C38	C	0.977030	0.325790	0.000048
N39	N	0.981903	0.103390	0.217060
N40	N	0.981922	0.103390	-0.216930
C41	C	1.038547	0.051942	0.452074
C42	C	1.038549	0.051941	0.548056
C43	C	0.925273	0.154840	0.548049
C44	C	0.925267	0.154837	0.452070
C45	C	0.981909	0.103389	0.404085
C46	C	0.981917	0.103390	0.596045
C47	C	0.981919	0.103388	0.700113
C48	C	0.981906	0.103390	0.300011
H49	H	0.403239	0.102152	-0.150737
C50	C	1.100085	-0.003795	0.600276
C51	C	1.150881	0.036539	0.655390
C52	C	1.207571	-0.014782	0.703517
H53	H	1.133896	-0.034455	0.558055
H54	H	1.070268	-0.035302	0.637775
H55	H	1.180696	0.068033	0.617895
H56	H	1.117093	0.067197	0.697629
H57	H	1.177754	-0.046289	0.741016
H58	H	1.241376	-0.045439	0.661289
H59	H	1.242038	0.012577	0.740924
C60	C	1.141939	-0.299160	-0.000109
C61	C	1.145589	-0.344986	-0.078574
C62	C	1.220640	-0.393534	-0.078783
H63	H	1.144627	-0.330411	0.052998
H64	H	1.187689	-0.269751	-0.000150
H65	H	1.099852	-0.374392	-0.078525
H66	H	1.142915	-0.313755	-0.131694
H67	H	1.266390	-0.364125	-0.078823
H68	H	1.223322	-0.424780	-0.025672
H69	H	1.223130	-0.424628	-0.132024
C70	C	0.828862	-0.096726	-0.000139
C71	C	0.825230	-0.050886	-0.078600
C72	C	0.750185	-0.002330	-0.078822
H73	H	0.826169	-0.065484	0.052971
H74	H	0.783107	-0.126129	-0.000193
H75	H	0.870973	-0.021486	-0.078538
H76	H	0.827909	-0.082107	-0.131723
H77	H	0.704430	-0.031733	-0.078876
H78	H	0.747499	0.028906	-0.025709
H79	H	0.747708	0.028773	-0.132061
H80	H	0.560554	0.104656	-0.150745
C81	C	0.863687	0.210730	0.599984
C82	C	0.814067	0.255770	0.537409
C83	C	0.757317	0.307259	0.585215
H84	H	0.893431	0.242321	0.637423
H85	H	0.829093	0.183510	0.637411
H86	H	0.848657	0.282988	0.499998
H87	H	0.784306	0.224200	0.499968
H88	H	0.722724	0.280039	0.622643
H89	H	0.787068	0.338844	0.622653
H90	H	0.723639	0.337820	0.542766
H91	H	0.560586	0.104632	0.150857
C92	C	0.391625	0.101973	0.173535
C93	C	0.448154	0.102892	0.246328
C94	C	0.404952	0.102239	0.329564
H95	H	0.364222	0.057333	0.177120
H96	H	0.351382	0.145558	0.177040
H97	H	0.488382	0.059310	0.242824
H98	H	0.475559	0.147528	0.242773
H99	H	0.364709	0.145825	0.333069
H100	H	0.377550	0.057599	0.333139
H101	H	0.443299	0.102870	0.378964
C102	C	0.825917	-0.261377	-0.000147
C103	C	0.780565	-0.236732	-0.078612
C104	C	0.704078	-0.267122	-0.078833
H105	H	0.794910	-0.244749	0.052960
H106	H	0.835806	-0.315343	-0.000194
H107	H	0.770673	-0.182777	-0.078556
H108	H	0.811545	-0.253359	-0.131732
H109	H	0.713968	-0.321089	-0.078880
H110	H	0.673080	-0.250491	-0.025722
H111	H	0.673301	-0.250410	-0.132074
H112	H	1.124105	-0.142741	0.000094
C113	C	0.821914	-0.493997	0.000179
C114	C	0.818287	-0.448136	0.078613
C115	C	0.743285	-0.399519	0.078760
H116	H	0.776116	-0.523333	0.000224
H117	H	0.819303	-0.462779	-0.052968
H118	H	0.820890	-0.479350	0.131747
H119	H	0.864068	-0.418784	0.078585
H120	H	0.740674	-0.368301	0.025613
H121	H	0.697492	-0.428861	0.078803
H122	H	0.740818	-0.368392	0.131972
H123	H	0.879141	0.196732	0.412994
H124	H	1.114604	-0.683280	0.000071
C125	C	1.137956	-0.531935	0.000027
C126	C	1.203398	-0.591316	0.000005
C127	C	1.279952	-0.561043	-0.000046
H128	H	1.141763	-0.501529	0.053185
H129	H	1.141692	-0.501533	-0.053168
H130	H	1.199664	-0.621705	0.053195
H131	H	1.199619	-0.621727	-0.053149
H132	H	1.283688	-0.530642	-0.053241
H133	H	1.283751	-0.530638	0.053113
H134	H	1.324364	-0.601328	-0.000069
H135	H	0.839708	-0.650475	0.000042
H136	H	1.084667	0.010049	0.413007
