data_functionalizedCrystal
_audit_creation_method	'MofGen! by Chris Wilmer'
_symmetry_space_group_name_H-M	'P1'
_symmetry_Int_Tables_number	1
_symmetry_cell_setting	triclinic
loop_
_symmetry_equiv_pos_as_xyz
  x,y,z
_cell_length_a	23.532407
_cell_length_b	23.532407
_cell_length_c	13.448316
_cell_angle_alpha	89.992978
_cell_angle_beta	89.997365
_cell_angle_gamma	82.848712
loop_
_atom_site_label
_atom_site_type_symbol
_atom_site_fract_x
_atom_site_fract_y
_atom_site_fract_z
O1	O	0.755260	0.069133	-0.082639
O2	O	0.589397	0.079136	-0.082656
O3	O	0.677330	-0.008797	-0.082629
O4	O	0.667327	0.157066	-0.082666
O5	O	0.677321	-0.008795	0.082755
O6	O	0.589388	0.079138	0.082728
O7	O	0.755251	0.069135	0.082745
Cu8	Cu	0.672318	0.074136	0.097837
Cu9	Cu	0.672330	0.074135	-0.097749
O10	O	0.667318	0.157068	0.082717
C11	C	0.568176	0.078882	0.000034
C12	C	0.504959	0.078116	0.000028
C13	C	0.238792	0.022921	0.000067
C14	C	0.298192	0.023632	0.000067
O15	O	0.334937	-0.020153	0.000111
N16	N	0.320818	0.075909	0.000048
C17	C	0.284041	0.127477	0.000040
O18	O	0.308740	0.172007	0.000026
C19	C	0.224642	0.126765	0.000048
C20	C	0.202019	0.074485	0.000056
C21	C	0.216169	-0.029354	0.000077
C22	C	0.156772	-0.030066	0.000076
C23	C	0.119999	0.021499	0.000065
C24	C	0.142623	0.073774	0.000055
C25	C	0.187865	0.178333	0.000047
C26	C	0.128463	0.177616	0.000055
C27	C	0.105840	0.125336	0.000064
C28	C	0.046454	0.124627	0.000043
N29	N	0.023828	0.072351	0.000061
C30	C	0.060600	0.020787	0.000072
C31	C	0.408783	0.128968	0.000026
C32	C	0.468181	0.129681	0.000012
C33	C	0.482328	0.025836	0.000040
C34	C	0.422929	0.025124	0.000048
C35	C	0.386157	0.076692	0.000045
C36	C	-0.064136	0.019297	0.000068
C37	C	-0.123538	0.018590	0.000063
C38	C	-0.137680	0.122435	0.000040
C39	C	-0.078284	0.123142	0.000040
C40	C	-0.041512	0.071568	0.000058
O41	O	0.009675	0.168390	0.000002
O42	O	0.035892	-0.023737	0.000100
C43	C	0.677071	-0.030012	0.000065
C44	C	0.676305	-0.093229	0.000073
C45	C	0.723538	-0.492332	0.000023
C46	C	0.722827	-0.551733	0.000016
O47	O	0.766613	-0.588477	-0.000016
N48	N	0.670551	-0.574359	0.000011
C49	C	0.618982	-0.537581	0.000004
O50	O	0.574452	-0.562281	-0.000002
C51	C	0.619695	-0.478182	0.000004
C52	C	0.671974	-0.455559	0.000019
C53	C	0.775814	-0.469709	0.000037
C54	C	0.776525	-0.410313	0.000047
C55	C	0.724961	-0.373540	0.000042
C56	C	0.672685	-0.396163	0.000029
C57	C	0.568127	-0.441406	-0.000010
C58	C	0.568843	-0.382003	-0.000010
C59	C	0.621123	-0.359381	0.000005
C60	C	0.621832	-0.299994	0.000034
N61	N	0.674109	-0.277368	0.000039
C62	C	0.725673	-0.314141	0.000043
C63	C	0.617491	-0.662324	0.000001
C64	C	0.616778	-0.721722	0.000008
C65	C	0.720623	-0.735869	0.000018
C66	C	0.721335	-0.676470	0.000018
C67	C	0.669767	-0.639698	0.000006
C68	C	0.727163	-0.189404	0.000064
C69	C	0.727869	-0.130002	0.000077
C70	C	0.624025	-0.115860	0.000062
C71	C	0.623318	-0.175257	0.000054
C72	C	0.674891	-0.212028	0.000051
O73	O	0.578069	-0.263215	0.000062
O74	O	0.770196	-0.289433	0.000035
C75	C	0.776472	0.069389	0.000053
C76	C	0.839689	0.070155	0.000052
C77	C	0.667577	0.178283	0.000021
C78	C	0.668343	0.241500	0.000007
N79	N	0.672315	0.074137	0.235401
C80	C	0.637991	0.039765	0.712653
C81	C	0.637989	0.039763	0.608550
C82	C	0.672328	0.074132	0.556483
C83	C	0.706674	0.108501	0.608524
C84	C	0.706678	0.108500	0.712625
C85	C	0.706662	0.108503	0.391544
C86	C	0.706657	0.108505	0.287435
C87	C	0.637973	0.039766	0.287469
C88	C	0.637977	0.039765	0.391570
C89	C	0.672323	0.074135	0.443604
N90	N	0.672333	0.074133	0.764687
H91	H	0.486595	0.172252	-0.000009
C92	C	0.224170	-0.132068	0.000088
C93	C	0.256583	-0.086041	0.000080
H94	H	0.249119	-0.167065	0.000078
H95	H	0.200712	-0.130184	0.057763
H96	H	0.200702	-0.130173	-0.057584
H97	H	0.280048	-0.087934	0.057756
H98	H	0.280051	-0.087926	-0.057600
H99	H	0.734617	0.136493	0.245044
H100	H	-0.141954	-0.023984	0.000067
H101	H	-0.034204	-0.022699	0.000082
H102	H	0.575496	-0.632386	-0.000000
C103	C	0.542696	0.017889	0.255467
C104	C	0.600215	0.001985	0.230288
H105	H	0.519385	-0.005431	0.220161
H106	H	0.537793	0.012973	0.324911
H107	H	0.531902	0.056911	0.238388
H108	H	0.611010	-0.037036	0.247373
H109	H	0.605121	0.006896	0.160829
H110	H	0.098525	0.219610	0.000058
C111	C	0.465557	-0.421430	-0.000049
C112	C	0.510658	-0.466262	-0.000035
H113	H	0.430077	-0.436776	-0.000073
H114	H	0.467991	-0.398566	0.057625
H115	H	0.468012	-0.398551	-0.057722
H116	H	0.508206	-0.489138	0.057641
H117	H	0.508223	-0.489136	-0.057715
H118	H	0.206274	0.220904	0.000036
H119	H	0.734632	0.136489	0.433906
H120	H	0.512280	-0.016150	0.000049
H121	H	0.610025	0.011776	0.566189
H122	H	0.763906	-0.658055	0.000029
H123	H	0.610013	0.011781	0.433961
C124	C	0.709785	0.185088	0.491443
C125	C	0.744420	0.146282	0.551294
H126	H	0.733088	0.208415	0.456119
H127	H	0.689337	0.164620	0.445558
H128	H	0.683447	0.208554	0.532068
H129	H	0.770755	0.122813	0.510668
H130	H	0.764878	0.166752	0.597185
H131	H	0.580747	-0.193677	0.000069
H132	H	0.378846	0.170964	0.000017
H133	H	-0.059864	0.165712	0.000032
H134	H	0.762610	-0.765821	0.000017
H135	H	0.526850	-0.352065	-0.000022
H136	H	0.138359	-0.072637	0.000087
H137	H	0.404515	-0.017447	0.000055
C138	C	-0.212699	0.181871	-0.084978
C139	C	-0.178111	0.179111	0.000033
H140	H	-0.237662	0.216859	-0.084971
H141	H	-0.189234	0.180001	-0.142643
H142	H	-0.234665	0.150628	-0.084964
H143	H	-0.156141	0.210352	0.000015
H144	H	-0.201579	0.180987	0.057713
C145	C	0.774565	0.176449	0.702142
C146	C	0.744427	0.146279	0.769825
H147	H	0.797869	0.199773	0.737456
H148	H	0.798048	0.150122	0.661540
H149	H	0.748215	0.199919	0.661539
H150	H	0.770778	0.122806	0.810423
H151	H	0.720943	0.172609	0.810444
H152	H	0.574207	-0.740135	0.000013
C153	C	0.830446	-0.149962	0.000079
C154	C	0.785339	-0.105137	0.000085
H155	H	0.865924	-0.134611	0.000075
H156	H	0.828006	-0.172840	0.057745
H157	H	0.828005	-0.172830	-0.057601
H158	H	0.787778	-0.082271	0.057769
H159	H	0.787781	-0.082250	-0.057588
H160	H	0.769159	-0.219337	0.000058
H161	H	0.819097	-0.391900	0.000055
H162	H	0.582043	-0.085909	0.000062
C163	C	0.878527	-0.477710	0.000065
C164	C	0.832500	-0.510124	0.000050
H165	H	0.913525	-0.502659	0.000086
H166	H	0.876647	-0.454249	-0.057608
H167	H	0.876628	-0.454247	0.057739
H168	H	0.834397	-0.533584	-0.057628
H169	H	0.834381	-0.533596	0.057729
C170	C	0.570104	-0.028184	0.702221
C171	C	0.600245	0.001984	0.769882
H172	H	0.546805	-0.051513	0.737552
H173	H	0.546616	-0.001857	0.661621
H174	H	0.596452	-0.051651	0.661614
H175	H	0.573897	0.025454	0.810484
H176	H	0.623735	-0.024347	0.810499
