data_functionalizedCrystal
_audit_creation_method	'MofGen! by Chris Wilmer'
_symmetry_space_group_name_H-M	'P1'
_symmetry_Int_Tables_number	1
_symmetry_cell_setting	triclinic
loop_
_symmetry_equiv_pos_as_xyz
  x,y,z
_cell_length_a	9.065215
_cell_length_b	15.944545
_cell_length_c	8.140239
_cell_angle_alpha	89.994380
_cell_angle_beta	89.997810
_cell_angle_gamma	84.255435
loop_
_atom_site_label
_atom_site_type_symbol
_atom_site_fract_x
_atom_site_fract_y
_atom_site_fract_z
O1	O	1.957517	0.123149	-0.136603
O2	O	1.527995	0.133254	-0.136612
O3	O	1.754490	0.006015	-0.136588
O4	O	1.731022	0.250388	-0.136627
O5	O	1.754478	0.006014	0.136639
O6	O	1.527983	0.133253	0.136615
O7	O	1.957504	0.123148	0.136624
Zn8	Zn	1.742742	0.128200	0.180000
Zn9	Zn	1.742758	0.128202	-0.179988
O10	O	1.731009	0.250387	0.136600
C11	C	1.473025	0.132283	0.000001
C12	C	1.309250	0.129381	-0.000001
C13	C	1.753511	-0.025287	0.000027
C14	C	1.750595	-0.118555	0.000032
C15	C	1.601490	-0.390317	-0.000004
C16	C	1.673383	-0.339186	-0.134719
C17	C	1.740196	-0.454278	-0.000015
C18	C	1.673408	-0.339215	0.134662
C19	C	1.745298	-0.289326	0.000011
C20	C	1.812052	-0.404376	-0.134841
C21	C	1.812057	-0.404408	0.134661
C22	C	1.884051	-0.353309	-0.000087
C23	C	1.737253	-0.549302	-0.000031
C24	C	1.748252	-0.194304	0.000015
C25	C	2.012475	0.124119	0.000007
C26	C	2.176250	0.127021	-0.000001
C27	C	1.731988	0.281689	-0.000019
C28	C	1.734904	0.374957	-0.000034
N29	N	1.742741	0.128198	0.425683
N30	N	1.742770	0.128197	-0.425671
H31	H	1.482034	-0.406873	-0.000138
H32	H	1.870579	-0.432915	0.248559
C33	C	2.045555	-0.331158	-0.000182
N34	N	2.167198	-0.314473	-0.000260
H35	H	1.614799	-0.310745	0.248549
H36	H	1.614809	-0.310695	-0.248613
C37	C	1.891130	-0.442689	-0.288880
N38	N	1.950683	-0.471547	-0.404904
