data_functionalizedCrystal
_audit_creation_method	'MofGen! by Chris Wilmer'
_symmetry_space_group_name_H-M	'P1'
_symmetry_Int_Tables_number	1
_symmetry_cell_setting	triclinic
loop_
_symmetry_equiv_pos_as_xyz
  x,y,z
_cell_length_a	13.897449
_cell_length_b	13.897448
_cell_length_c	13.897441
_cell_angle_alpha	89.969401
_cell_angle_beta	89.973931
_cell_angle_gamma	90.017620
loop_
_atom_site_label
_atom_site_type_symbol
_atom_site_fract_x
_atom_site_fract_y
_atom_site_fract_z
Zn1	Zn	-1.474703	0.383986	0.545519
Zn2	Zn	-1.224703	0.633986	0.795519
Zn3	Zn	-0.974703	0.883986	1.045519
Zn4	Zn	-0.724703	1.133986	1.295519
Zn5	Zn	-1.474597	0.545308	0.384220
Zn6	Zn	-1.224597	0.795308	0.634220
Zn7	Zn	-0.974597	1.045308	0.884220
Zn8	Zn	-0.724597	1.295308	1.134220
Zn9	Zn	-1.313392	0.384028	0.384222
Zn10	Zn	-1.063392	0.634028	0.634222
Zn11	Zn	-0.813392	0.884028	0.884222
Zn12	Zn	-0.563392	1.134028	1.134222
Zn13	Zn	-1.313374	0.545240	0.545457
Zn14	Zn	-1.063374	0.795240	0.795457
Zn15	Zn	-0.813374	1.045240	1.045457
Zn16	Zn	-0.563374	1.295240	1.295457
O17	O	-1.394016	0.464641	0.464854
O18	O	-1.144016	0.714641	0.714854
O19	O	-0.894016	0.964641	0.964854
O20	O	-0.644016	1.214641	1.214854
O21	O	-1.609670	0.405396	0.524147
O22	O	-1.359670	0.655396	0.774147
O23	O	-1.109670	0.905396	1.024147
O24	O	-0.859670	1.155396	1.274147
O25	O	-1.453176	0.523959	0.249238
O26	O	-1.203176	0.773959	0.499238
O27	O	-0.953176	1.023959	0.749238
O28	O	-0.703176	1.273959	0.999238
O29	O	-1.334842	0.249041	0.405645
O30	O	-1.084842	0.499041	0.655645
O31	O	-0.834842	0.749041	0.905645
O32	O	-0.584842	0.999041	1.155645
O33	O	-1.609592	0.523918	0.405641
O34	O	-1.359592	0.773918	0.655641
O35	O	-1.109592	1.023918	0.905641
O36	O	-0.859592	1.273918	1.155641
O37	O	-1.453356	0.249010	0.524149
O38	O	-1.203356	0.499010	0.774149
O39	O	-0.953356	0.749010	1.024149
O40	O	-0.703356	0.999010	1.274149
O41	O	-1.334739	0.405468	0.249240
O42	O	-1.084739	0.655468	0.499240
O43	O	-0.834739	0.905468	0.749240
O44	O	-0.584739	1.155468	0.999240
O45	O	-1.178408	0.405403	0.405585
O46	O	-0.928408	0.655403	0.655585
O47	O	-0.678408	0.905403	0.905585
O48	O	-0.428408	1.155403	1.155585
O49	O	-1.334811	0.523804	0.680447
O50	O	-1.084811	0.773804	0.930447
O51	O	-0.834811	1.023804	1.180447
O52	O	-0.584811	1.273804	1.430447
O53	O	-1.178394	0.523845	0.524045
O54	O	-0.928394	0.773845	0.774045
O55	O	-0.678394	1.023845	1.024045
O56	O	-0.428394	1.273845	1.274045
O57	O	-1.453339	0.405331	0.680492
O58	O	-1.203339	0.655331	0.930492
O59	O	-0.953339	0.905331	1.180492
O60	O	-0.703339	1.155331	1.430492
O61	O	-1.453158	0.680280	0.405582
O62	O	-1.203158	0.930280	0.655582
O63	O	-0.953158	1.180280	0.905582
O64	O	-0.703158	1.430280	1.155582
O65	O	-1.334708	0.680231	0.524043
O66	O	-1.084708	0.930231	0.774043
O67	O	-0.834708	1.180231	1.024043
O68	O	-0.584708	1.430231	1.274043
C69	C	-1.143402	0.464622	0.464809
C70	C	-0.893402	0.714622	0.714809
C71	C	-0.643402	0.964622	0.964809
C72	C	-0.393402	1.214622	1.214809
C73	C	-1.036188	0.464637	0.464813
C74	C	-0.786188	0.714637	0.714813
C75	C	-0.536188	0.964637	0.964813
C76	C	-0.286188	1.214637	1.214813
C77	C	-0.949118	0.464639	0.464825
C78	C	-0.699118	0.714639	0.714825
C79	C	-0.449118	0.964639	0.964825
C80	C	-0.199118	1.214639	1.214825
C81	C	-0.839886	0.464644	0.464849
C82	C	-0.589886	0.714644	0.714849
C83	C	-0.339886	0.964644	0.964849
C84	C	-0.089886	1.214644	1.214849
C85	C	-1.393946	0.715255	0.464827
C86	C	-1.143946	0.965255	0.714827
C87	C	-0.893946	1.215255	0.964827
C88	C	-0.643946	1.465255	1.214827
C89	C	-1.394004	0.822469	0.464847
C90	C	-1.144004	1.072469	0.714847
C91	C	-0.894004	1.322469	0.964847
C92	C	-0.644004	1.572469	1.214847
C93	C	-1.394085	0.464555	0.716448
C94	C	-1.144085	0.714555	0.966448
C95	C	-0.894085	0.964555	1.216448
C96	C	-0.644085	1.214555	1.466448
C97	C	-1.394114	0.464519	0.823662
C98	C	-1.144114	0.714519	1.073662
C99	C	-0.894114	0.964519	1.323662
C100	C	-0.644114	1.214519	1.573662
C101	C	-0.645609	0.464656	0.464889
C102	C	-0.395609	0.714656	0.714889
C103	C	-0.145609	0.964656	0.964889
C104	C	0.104391	1.214656	1.214889
C105	C	-0.752823	0.464653	0.464873
C106	C	-0.502823	0.714653	0.714873
C107	C	-0.252823	0.964653	0.964873
C108	C	-0.002823	1.214653	1.214873
C109	C	-1.394113	0.213048	0.464904
C110	C	-1.144113	0.463048	0.714904
C111	C	-0.894113	0.713048	0.964904
C112	C	-0.644113	0.963048	1.214904
C113	C	-1.394154	0.105834	0.464925
C114	C	-1.144154	0.355834	0.714925
C115	C	-0.894154	0.605834	0.964925
C116	C	-0.644154	0.855834	1.214925
C117	C	-1.394105	1.018764	0.464907
C118	C	-1.144105	1.268764	0.714907
C119	C	-0.894105	1.518764	0.964907
C120	C	-0.644105	1.768764	1.214907
C121	C	-1.394046	0.909531	0.464877
C122	C	-1.144046	1.159531	0.714877
C123	C	-0.894046	1.409531	0.964877
C124	C	-0.644046	1.659531	1.214877
C125	C	-1.394004	0.464656	0.214240
C126	C	-1.144004	0.714656	0.464240
C127	C	-0.894004	0.964656	0.714240
C128	C	-0.644004	1.214656	0.964240
C129	C	-1.394161	0.464420	0.107027
C130	C	-1.144161	0.714420	0.357027
C131	C	-0.894161	0.964420	0.607027
C132	C	-0.644161	1.214420	0.857027
C133	C	-1.394140	0.464454	1.019957
C134	C	-1.144140	0.714454	1.269957
C135	C	-0.894140	0.964454	1.519957
C136	C	-0.644140	1.214454	1.769957
C137	C	-1.394122	0.464493	0.910724
C138	C	-1.144122	0.714493	1.160724
C139	C	-0.894122	0.964493	1.410724
C140	C	-0.644122	1.214493	1.660724
