data_functionalizedCrystal
_audit_creation_method	'MofGen! by Chris Wilmer'
_symmetry_space_group_name_H-M	'P1'
_symmetry_Int_Tables_number	1
_symmetry_cell_setting	triclinic
loop_
_symmetry_equiv_pos_as_xyz
  x,y,z
_cell_length_a	6.817900
_cell_length_b	17.982783
_cell_length_c	19.453114
_cell_angle_alpha	96.125467
_cell_angle_beta	101.709288
_cell_angle_gamma	102.448572
loop_
_atom_site_label
_atom_site_type_symbol
_atom_site_fract_x
_atom_site_fract_y
_atom_site_fract_z
V1	V	-4.001665	-0.106206	-0.219293
O2	O	-3.994950	0.004287	-0.214818
O3	O	-3.948263	-0.209804	-0.218081
O4	O	-3.944642	-0.104931	-0.314802
O5	O	-3.998596	-0.101312	-0.117428
V6	V	-4.487059	-0.092948	-0.207074
O7	O	-4.258820	-0.135290	-0.246096
O8	O	-4.680101	-0.063864	-0.180271
O9	O	-4.317255	0.010650	-0.208285
O10	O	-4.611171	-0.203441	-0.211548
O11	O	-4.607525	-0.097842	-0.308939
O12	O	-4.320876	-0.094223	-0.111564
C13	C	-3.792326	-0.235048	-0.214697
C14	C	-3.829892	-0.319743	-0.214343
C15	C	-3.787706	-0.101270	-0.338073
C16	C	-3.822334	-0.100913	-0.416154
C17	C	-3.813685	-0.348419	-0.149824
C18	C	-3.849002	-0.428000	-0.149494
C19	C	-3.900512	-0.478902	-0.213683
C20	C	-3.916726	-0.450221	-0.278208
C21	C	-3.881423	-0.370642	-0.278537
C22	C	-4.059102	-0.771155	-0.276881
C23	C	-4.094398	-0.850738	-0.276546
C24	C	-4.026680	-0.828512	-0.147837
C25	C	-3.991377	-0.748933	-0.148167
C26	C	-4.007604	-0.720259	-0.212691
C27	C	-3.969313	-0.633969	-0.213048
C28	C	-3.938789	-0.565191	-0.213327
C29	C	-4.020199	-0.104569	-0.456421
C30	C	-4.052736	-0.104234	-0.529787
C31	C	-3.887403	-0.100257	-0.562885
C32	C	-3.689508	-0.096596	-0.522608
C33	C	-3.656973	-0.096924	-0.449242
N34	N	-3.825717	-0.140493	-0.681785
N35	N	-3.856637	-0.140183	-0.751480
C36	C	-3.985417	-0.099267	-0.783930
N37	N	-4.082145	-0.058682	-0.744055
N38	N	-4.051230	-0.058995	-0.674355
C39	C	-3.922662	-0.099900	-0.642437
C40	C	-4.218575	-0.102558	-0.903749
C41	C	-4.251102	-0.102217	-0.977116
C42	C	-3.887872	-0.094587	-0.969936
C43	C	-3.855347	-0.094920	-0.896570
C44	C	-4.020708	-0.098909	-0.863482
C45	C	-4.136534	0.035890	-0.211668
C46	C	-4.078205	0.120584	-0.212026
C47	C	-4.141154	-0.097886	-0.088290
C48	C	-4.085765	-0.098239	-0.010208
H49	H	-3.771725	-0.306978	-0.097552
H50	H	-3.894644	-0.347297	-0.331076
H51	H	-4.154851	-0.107815	-0.429485
H52	H	-4.013478	-0.851867	-0.095299
H53	H	-4.072291	-0.747818	-0.329420
H54	H	-3.694229	-0.091951	-0.863785
H55	H	-4.412229	-0.105189	-1.009900
H56	H	-3.753251	-0.091342	-0.996882
H57	H	-3.554894	-0.093355	-0.549560
H58	H	-3.835807	-0.451343	-0.096956
H59	H	-3.958683	-0.491673	-0.330473
H60	H	-3.495842	-0.093941	-0.416456
H61	H	-4.213869	-0.107215	-0.562580
H62	H	-4.136344	-0.892183	-0.328820
H63	H	-3.949425	-0.707490	-0.095896
H64	H	-4.353220	-0.105804	-0.876807
