data_functionalizedCrystal
_audit_creation_method	'MofGen! by Chris Wilmer'
_symmetry_space_group_name_H-M	'P1'
_symmetry_Int_Tables_number	1
_symmetry_cell_setting	triclinic
loop_
_symmetry_equiv_pos_as_xyz
  x,y,z
_cell_length_a	16.625546
_cell_length_b	12.827893
_cell_length_c	12.827885
_cell_angle_alpha	90.021189
_cell_angle_beta	89.964876
_cell_angle_gamma	89.979323
loop_
_atom_site_label
_atom_site_type_symbol
_atom_site_fract_x
_atom_site_fract_y
_atom_site_fract_z
Zn1	Zn	-0.321001	-1.597618	-0.590863
Zn2	Zn	-0.455855	-1.597491	-0.416107
Zn3	Zn	-0.321036	-1.422860	-0.416131
Zn4	Zn	-0.455791	-1.422823	-0.590801
O5	O	-0.388421	-1.510198	-0.503476
O6	O	-0.338902	-1.743837	-0.567698
O7	O	-0.438013	-1.574287	-0.269874
O8	O	-0.208199	-1.446110	-0.439346
O9	O	-0.437979	-1.743744	-0.439305
O10	O	-0.208173	-1.574505	-0.567721
O11	O	-0.338962	-1.445987	-0.269892
O12	O	-0.338900	-1.276619	-0.439286
O13	O	-0.437869	-1.446048	-0.737046
O14	O	-0.437904	-1.276592	-0.567615
O15	O	-0.338840	-1.574469	-0.737091
O16	O	-0.568679	-1.574252	-0.439245
O17	O	-0.568632	-1.445925	-0.567592
C18	C	-0.388399	-1.238688	-0.503447
C19	C	-0.388409	-1.122535	-0.503459
C20	C	-0.339468	-1.070796	-0.567089
C21	C	-0.339477	-0.950746	-0.567103
C22	C	-0.597912	-1.510099	-0.503432
C23	C	-0.687533	-1.510152	-0.503448
C24	C	-1.015708	-1.510335	-0.503557
C25	C	-0.924400	-1.510281	-0.503530
C26	C	-0.851624	-1.510243	-0.503502
C27	C	-0.760309	-1.510190	-0.503476
C28	C	-0.178112	-1.510326	-0.503543
C29	C	-0.088491	-1.510380	-0.503571
C30	C	-0.388344	-1.510269	-0.776046
C31	C	-0.388311	-1.510299	-0.892199
C32	C	-0.388437	-0.782768	-0.503497
C33	C	-0.388427	-0.898921	-0.503485
C34	C	-0.339298	-1.573853	-0.944007
C35	C	-0.339263	-1.573886	-1.064057
C36	C	-0.388440	-1.510187	-0.231966
C37	C	-0.388246	-1.510359	-0.115813
H38	H	-0.430314	-1.077954	-0.448992
C39	C	-0.444963	-1.436819	-0.952343
N40	N	-0.487635	-1.381471	-0.997641
C41	C	-0.282640	-1.647327	-0.883863
N42	N	-0.239964	-1.702669	-0.838565
C43	C	-0.282570	-1.647393	-1.124243
N44	N	-0.239866	-1.702758	-1.169578
H45	H	-0.297559	-1.115378	-0.621551
H46	H	-0.297580	-0.906252	-0.621583
H47	H	-0.430334	-0.943409	-0.449012
H48	H	-0.430212	-1.455950	-1.071267
