data_functionalizedCrystal
_audit_creation_method	'MofGen! by Chris Wilmer'
_symmetry_space_group_name_H-M	'P1'
_symmetry_Int_Tables_number	1
_symmetry_cell_setting	triclinic
loop_
_symmetry_equiv_pos_as_xyz
  x,y,z
_cell_length_a	19.188930
_cell_length_b	15.944499
_cell_length_c	14.421503
_cell_angle_alpha	89.997978
_cell_angle_beta	89.978657
_cell_angle_gamma	96.688805
loop_
_atom_site_label
_atom_site_type_symbol
_atom_site_fract_x
_atom_site_fract_y
_atom_site_fract_z
O1	O	-0.926404	0.104859	0.077411
O2	O	-0.723127	0.118976	0.077347
O3	O	-0.830335	-0.010381	0.077374
O4	O	-0.819195	0.234216	0.077384
O5	O	-0.830318	-0.010366	-0.076850
O6	O	-0.723110	0.118991	-0.076876
O7	O	-0.926387	0.104874	-0.076813
Cu8	Cu	-0.824747	0.111934	-0.090926
Cu9	Cu	-0.824767	0.111916	0.091461
O10	O	-0.819178	0.234231	-0.076839
C11	C	-0.697106	0.118526	0.000227
C12	C	-0.619598	0.117154	0.000203
C13	C	-0.829870	-0.041667	0.000262
C14	C	-0.828503	-0.134910	0.000262
C15	C	-0.952407	0.105324	0.000309
C16	C	-1.029915	0.106696	0.000340
C17	C	-0.574859	0.193057	0.000221
C18	C	-0.502032	0.191767	0.000231
C19	C	-0.473948	0.114571	0.000242
C20	C	-0.518697	0.038659	0.000219
C21	C	-0.591522	0.039950	0.000199
N22	N	-0.365830	0.055559	0.052766
N23	N	-0.296648	0.054338	0.052786
C24	C	-0.254529	0.110676	0.000298
N25	N	-0.284204	0.168294	-0.052199
N26	N	-0.353392	0.169518	-0.052215
C27	C	-0.394982	0.113162	0.000262
C28	C	-0.130822	0.185185	0.000326
C29	C	-0.057994	0.183893	0.000330
C30	C	-0.074661	0.030782	0.000327
C31	C	-0.147487	0.032077	0.000314
C32	C	-0.175563	0.109281	0.000317
C33	C	-0.819643	0.265517	0.000275
C34	C	-0.821010	0.358760	0.000281
N35	N	-0.824737	0.111946	-0.219207
C36	C	-0.758725	0.650529	0.000252
C37	C	-0.791094	0.589386	-0.075780
C38	C	-0.825978	0.694378	0.000267
C39	C	-0.791129	0.589385	0.076272
C40	C	-0.823533	0.529478	0.000275
C41	C	-0.858365	0.634463	-0.075829
C42	C	-0.858391	0.634469	0.076292
C43	C	-0.890809	0.573343	0.000240
C44	C	-0.827384	0.789373	0.000261
C45	C	-0.822132	0.434485	0.000274
C46	C	-0.775573	0.172226	-0.530673
C47	C	-0.761458	0.096608	-0.468854
C48	C	-0.824766	0.111912	-0.591096
C49	C	-0.838835	0.187545	-0.468822
C50	C	-0.824750	0.111933	-0.408375
C51	C	-0.810619	0.036256	-0.530638
C52	C	-0.888024	0.127243	-0.530612
C53	C	-0.873935	0.051570	-0.468820
C54	C	-0.824774	0.111902	-0.696358
C55	C	-0.824743	0.111935	-0.303116
N56	N	-0.824781	0.111898	0.219742
H57	H	-0.597713	0.255922	0.000226
H58	H	-0.465598	0.253578	0.000243
H59	H	-0.707956	0.083647	-0.441719
C60	C	-0.752659	0.562386	-0.162635
H61	H	-0.705738	0.589083	-0.162557
H62	H	-0.776091	0.578577	-0.216625
H63	H	-0.752422	0.502839	-0.162291
C64	C	-0.196706	-0.051415	0.000308
H65	H	-0.244100	-0.039590	0.000289
H66	H	-0.188217	-0.083086	0.054091
H67	H	-0.188172	-0.083075	-0.053478
C68	C	-0.966268	0.528224	0.000205
H69	H	-0.990035	0.543643	-0.053853
H70	H	-0.990341	0.544341	0.053716
H71	H	-0.964976	0.468845	0.000708
H72	H	-0.021567	0.245705	0.000340
C73	C	-0.487807	-0.046255	0.000236
H74	H	-0.438027	-0.036153	0.000261
H75	H	-0.503139	-0.077495	-0.053548
H76	H	-0.503191	-0.077499	0.054021
C77	C	-0.896744	0.661311	-0.162764
H78	H	-0.897371	0.720801	-0.162254
H79	H	-0.943522	0.634187	-0.162975
H80	H	-0.872999	0.645522	-0.216701
H81	H	-0.733951	0.223165	-0.557830
C82	C	-0.794444	-0.050154	-0.567158
H83	H	-0.794523	-0.049624	-0.633032
H84	H	-0.829173	-0.093005	-0.545486
H85	H	-0.749643	-0.061132	-0.545499
H86	H	-0.915531	0.000518	-0.441835
H87	H	-0.762683	0.569420	0.140555
H88	H	-0.627950	-0.021861	0.000185
H89	H	-0.153683	0.248049	0.000315
H90	H	-0.941509	0.140232	-0.557763
C91	C	-0.683332	0.695846	0.000131
H92	H	-0.659542	0.680530	-0.053973
H93	H	-0.659207	0.679769	0.053594
H94	H	-0.684737	0.755205	0.000678
C95	C	-0.043777	-0.054132	0.000345
H96	H	0.006003	-0.044032	0.000366
H97	H	-0.059112	-0.085375	-0.053437
H98	H	-0.059159	-0.085374	0.054132
C99	C	-0.896794	0.661502	0.163150
H100	H	-0.872837	0.646254	0.217122
H101	H	-0.943452	0.634012	0.163711
H102	H	-0.897768	0.720930	0.162215
H103	H	-0.850751	0.251500	-0.441686
