data_functionalizedCrystal
_audit_creation_method	'MofGen! by Chris Wilmer'
_symmetry_space_group_name_H-M	'P1'
_symmetry_Int_Tables_number	1
_symmetry_cell_setting	triclinic
loop_
_symmetry_equiv_pos_as_xyz
  x,y,z
_cell_length_a	18.101395
_cell_length_b	19.077253
_cell_length_c	19.076919
_cell_angle_alpha	94.673785
_cell_angle_beta	92.272317
_cell_angle_gamma	87.737952
loop_
_atom_site_label
_atom_site_type_symbol
_atom_site_fract_x
_atom_site_fract_y
_atom_site_fract_z
Zn1	Zn	-0.354648	1.061621	-0.355187
Zn2	Zn	0.145352	1.561621	0.144813
Zn3	Zn	-0.473704	1.066263	-0.237309
Zn4	Zn	0.026296	1.566263	0.262691
Zn5	Zn	-0.345113	0.948479	-0.242064
Zn6	Zn	0.154887	1.448479	0.257936
Zn7	Zn	-0.473676	0.943693	-0.359902
Zn8	Zn	0.026324	1.443693	0.140098
O9	O	-0.411785	1.005014	-0.298616
O10	O	0.088215	1.505014	0.201384
O11	O	-0.374443	1.160883	-0.335587
O12	O	0.125557	1.660883	0.164413
O13	O	-0.452668	1.054584	-0.139292
O14	O	0.047332	1.554584	0.360708
O15	O	-0.242748	0.963548	-0.257087
O16	O	0.257252	1.463548	0.242913
O17	O	-0.461913	1.164293	-0.248983
O18	O	0.038087	1.664293	0.251017
O19	O	-0.249753	1.046673	-0.340198
O20	O	0.250247	1.546673	0.159802
O21	O	-0.358193	0.968048	-0.142786
O22	O	0.141807	1.468048	0.357214
O23	O	-0.358165	0.849198	-0.261659
O24	O	0.141835	1.349198	0.238341
O25	O	-0.461865	0.955391	-0.457925
O26	O	0.038135	1.455391	0.042075
O27	O	-0.452620	0.845681	-0.348234
O28	O	0.047380	1.345681	0.151766
O29	O	-0.374416	1.042032	-0.454461
O30	O	0.125584	1.542032	0.045539
O31	O	-0.577330	1.049943	-0.253554
O32	O	-0.077330	1.549943	0.246446
O33	O	-0.577310	0.959892	-0.343623
O34	O	-0.077310	1.459892	0.156377
C35	C	-0.604191	1.004920	-0.298599
C36	C	-0.104191	1.504920	0.201401
C37	C	-0.686507	1.004944	-0.298613
C38	C	-0.186507	1.504944	0.201387
C39	C	-0.404356	0.821862	-0.305975
C40	C	0.095644	1.321862	0.194025
C41	C	-0.401196	0.743508	-0.309140
C42	C	0.098804	1.243508	0.190860
C43	C	-0.419201	0.997660	-0.482486
C44	C	0.080799	1.497660	0.017514
C45	C	-0.422361	0.994526	-0.560841
C46	C	0.077639	1.494526	-0.060841
C47	C	-0.985606	1.005097	-0.298644
C48	C	-0.485606	1.505097	0.201356
C49	C	-0.954309	0.948560	-0.355443
C50	C	-0.454309	1.448560	0.144557
C51	C	-0.868674	0.948309	-0.355283
C52	C	-0.368674	1.448309	0.144717
C53	C	-0.837219	1.005021	-0.298629
C54	C	-0.337219	1.505021	0.201371
C55	C	-0.864539	0.987896	-0.225144
C56	C	-0.364539	1.487896	0.274856
C57	C	-0.950183	0.987533	-0.225485
C58	C	-0.450183	1.487533	0.274515
C59	C	-0.957741	1.078904	-0.314672
C60	C	-0.457741	1.578904	0.185328
C61	C	-0.872139	1.078400	-0.316319
C62	C	-0.372139	1.578400	0.183681
C63	C	-0.753358	1.004979	-0.298616
C64	C	-0.253358	1.504979	0.201384
C65	C	-1.069467	1.005137	-0.298653
C66	C	-0.569467	1.505137	0.201347
C67	C	-0.218630	1.005126	-0.298647
C68	C	0.281370	1.505126	0.201353
C69	C	-0.136318	1.005174	-0.298661
C70	C	0.363682	1.505174	0.201339
C71	C	-0.419245	1.188881	-0.291228
C72	C	0.080755	1.688881	0.208772
C73	C	-0.422424	1.267235	-0.288080
C74	C	0.077576	1.767235	0.211920
C75	C	-0.378379	1.302271	-0.331690
C76	C	0.121621	1.802271	0.168310
C77	C	-0.381375	1.375892	-0.328736
C78	C	0.118625	1.875892	0.171264
C79	C	-0.428413	1.414476	-0.282167
C80	C	0.071587	1.914476	0.217833
C81	C	-0.472463	1.379434	-0.238556
C82	C	0.027537	1.879434	0.261444
C83	C	-0.469470	1.305814	-0.241514
C84	C	0.030530	1.805814	0.258486
C85	C	-0.442252	1.634846	-0.268487
C86	C	0.057748	2.134846	0.231513
C87	C	-0.445241	1.708471	-0.265530
C88	C	0.054759	2.208471	0.234470
C89	C	-0.354153	1.704924	-0.355711
C90	C	0.145847	2.204924	0.144289
C91	C	-0.351161	1.631303	-0.358663
C92	C	0.148839	2.131303	0.141337
C93	C	-0.395214	1.596268	-0.315054
C94	C	0.104786	2.096268	0.184946
N95	N	-0.431476	1.489729	-0.279144
N96	N	0.068524	1.989729	0.220856
N97	N	-0.392155	1.521016	-0.318081
N98	N	0.107845	2.021016	0.181919
C99	C	-0.378317	1.038161	-0.595850
C100	C	0.121683	1.538161	-0.095850
C101	C	-0.381283	1.035208	-0.669473
C102	C	0.118717	1.535208	-0.169473
C103	C	-0.428297	0.988623	-0.708086
C104	C	0.071703	1.488623	-0.208086
C105	C	-0.472343	0.944984	-0.673072
C106	C	0.027657	1.444984	-0.173072
C107	C	-0.469372	0.947934	-0.599450
C108	C	0.030628	1.447934	-0.099450
C109	C	-0.442059	0.974960	-0.928464
C110	C	0.057941	1.474960	-0.428464
C111	C	-0.445028	0.972015	-1.002090
C112	C	0.054972	1.472015	-0.502090
C113	C	-0.353967	1.062239	-0.998486
C114	C	0.146033	1.562239	-0.498486
C115	C	-0.351004	1.065188	-0.924864
C116	C	0.148996	1.565188	-0.424864
C117	C	-0.395047	1.021546	-0.889856
C118	C	0.104953	1.521546	-0.389856
N119	N	-0.431332	0.985605	-0.783340
N120	N	0.068668	1.485605	-0.283340
N121	N	-0.392008	1.024561	-0.814603
N122	N	0.107992	1.524561	-0.314603
C123	C	-0.404347	1.012380	-0.115459
C124	C	0.095653	1.512380	0.384541
C125	C	-0.400984	1.015650	-0.037099
C126	C	0.099016	1.515650	0.462901
H127	H	-0.850356	0.958677	-0.409866
H128	H	-0.350356	1.458677	0.090134
O129	O	-0.489562	0.927872	-0.890735
O130	O	0.010438	1.427872	-0.390735
H131	H	-0.527177	0.960719	-0.855911
H132	H	-0.027177	1.460719	-0.355911
H133	H	-0.483548	1.739884	-0.227607
H134	H	0.016452	2.239884	0.272393
O135	O	-0.306645	1.742709	-0.402750
O136	O	0.193355	2.242709	0.097250
H137	H	-0.316631	1.800384	-0.392876
H138	H	0.183369	2.300384	0.107124
H139	H	-0.478121	1.606330	-0.232975
H140	H	0.021879	2.106330	0.267025
H141	H	-0.845501	0.893541	-0.344903
H142	H	-0.345501	1.393541	0.155097
O143	O	-0.979270	0.876445	-0.341887
O144	O	-0.479270	1.376445	0.158113
H145	H	-1.013869	0.880694	-0.294870
H146	H	-0.513869	1.380694	0.205130
O147	O	-0.985168	0.962115	-0.427990
O148	O	-0.485168	1.462115	0.072010
H149	H	-0.962281	0.921571	-0.467109
H150	H	-0.462281	1.421571	0.032891
H151	H	-0.967365	0.933669	-0.211559
H152	H	-0.467365	1.433669	0.288441
O153	O	-0.977402	1.039914	-0.167723
O154	O	-0.477402	1.539914	0.332277
H155	H	-0.929391	1.065388	-0.139667
H156	H	-0.429391	1.565388	0.360333
O157	O	-0.837365	1.040893	-0.167724
O158	O	-0.337365	1.540893	0.332276
H159	H	-0.804016	1.080092	-0.191009
H160	H	-0.304016	1.580092	0.308991
O161	O	-0.495733	0.921763	-1.043741
O162	O	0.004267	1.421763	-0.543741
H163	H	-0.525854	0.891906	-1.007031
H164	H	-0.025854	1.391906	-0.507031
H165	H	-0.312722	1.103124	-0.893430
H166	H	0.187278	1.603124	-0.393430
H167	H	-0.510620	0.907051	-0.704516
H168	H	-0.010620	1.407051	-0.204516
H169	H	-0.510766	1.410855	-0.200641
H170	H	-0.010766	1.910855	0.299359
O171	O	-0.832448	0.917326	-0.206277
O172	O	-0.332448	1.417326	0.293723
H173	H	-0.797041	0.894340	-0.249119
H174	H	-0.297041	1.394340	0.250881
O175	O	-0.327609	1.088407	-0.554204
O176	O	0.172391	1.588407	-0.054204
H177	H	-0.297476	1.118248	-0.590920
H178	H	0.202524	1.618248	-0.090920
O179	O	-0.516970	1.268020	-0.194474
O180	O	-0.016970	1.768020	0.305526
H181	H	-0.550175	1.307216	-0.161589
H182	H	-0.050175	1.807216	0.338411
H183	H	-0.345420	1.070742	-0.697974
H184	H	0.154580	1.570742	-0.197974
O185	O	-0.844095	1.136844	-0.265204
O186	O	-0.344095	1.636844	0.234796
H187	H	-0.891424	1.163690	-0.237539
H188	H	-0.391424	1.663690	0.262461
H189	H	-0.854610	1.091368	-0.370386
H190	H	-0.354610	1.591368	0.129614
O191	O	-0.327645	1.260656	-0.381918
O192	O	0.172355	1.760656	0.118082
H193	H	-0.297527	1.297391	-0.411751
H194	H	0.202473	1.797391	0.088249
H195	H	-0.318109	1.097769	-1.026997
H196	H	0.181891	1.597769	-0.526997
O197	O	-0.990119	1.100357	-0.384239
O198	O	-0.490119	1.600357	0.115761
H199	H	-1.051382	1.103504	-0.382437
H200	H	-0.551382	1.603504	0.117563
O201	O	-0.516865	0.900862	-0.561685
O202	O	-0.016865	1.400862	-0.061685
H203	H	-0.550057	0.867973	-0.600902
H204	H	-0.050057	1.367973	-0.100902
O205	O	-0.984594	1.134721	-0.259895
O206	O	-0.484594	1.634721	0.240105
H207	H	-1.019489	1.174880	-0.285952
H208	H	-0.519489	1.674880	0.214048
H209	H	-0.312860	1.599893	-0.396586
H210	H	0.187140	2.099893	0.103414
O211	O	-0.333859	1.413685	-0.375761
O212	O	0.166141	1.913685	0.124239
H213	H	-0.300637	1.374487	-0.408630
H214	H	0.199363	1.874487	0.091370
