data_functionalizedCrystal
_audit_creation_method	'MofGen! by Chris Wilmer'
_symmetry_space_group_name_H-M	'P1'
_symmetry_Int_Tables_number	1
_symmetry_cell_setting	triclinic
loop_
_symmetry_equiv_pos_as_xyz
  x,y,z
_cell_length_a	10.723024
_cell_length_b	10.723024
_cell_length_c	16.053802
_cell_angle_alpha	92.591250
_cell_angle_beta	87.394595
_cell_angle_gamma	84.467869
loop_
_atom_site_label
_atom_site_type_symbol
_atom_site_fract_x
_atom_site_fract_y
_atom_site_fract_z
O1	O	1.662408	0.169819	-0.069422
O2	O	2.162408	0.669819	0.430578
O3	O	1.299255	0.186572	-0.069424
O4	O	1.799255	0.686572	0.430576
O5	O	1.489208	-0.003381	-0.069420
O6	O	1.989208	0.496619	0.430580
O7	O	1.472455	0.359771	-0.069426
O8	O	1.972455	0.859771	0.430574
O9	O	1.478752	0.007031	0.069439
O10	O	1.978752	0.507031	0.569439
O11	O	1.288800	0.196984	0.069434
O12	O	1.788800	0.696984	0.569434
O13	O	1.651952	0.180231	0.069437
O14	O	2.151952	0.680231	0.569437
Zn15	Zn	1.468716	0.190261	0.091483
Zn16	Zn	1.968716	0.690261	0.591483
Zn17	Zn	1.482492	0.176542	-0.091470
Zn18	Zn	1.982492	0.676542	0.408530
O19	O	1.461999	0.370183	0.069433
O20	O	1.961999	0.870183	0.569433
C21	C	1.247528	0.190559	0.000005
C22	C	1.747528	0.690559	0.500005
C23	C	1.108974	0.186911	0.000004
C24	C	1.608974	0.686911	0.500004
C25	C	1.033991	0.293198	0.000001
C26	C	1.533991	0.793198	0.500001
C27	C	0.890788	0.289431	0.000000
C28	C	1.390788	0.789431	0.500000
C29	C	1.482761	-0.044674	0.000009
C30	C	1.982761	0.455326	0.500009
C31	C	1.479113	-0.183229	0.000006
C32	C	1.979113	0.316771	0.500006
C33	C	1.585401	-0.258211	0.000005
C34	C	2.085401	0.241789	0.500005
C35	C	1.581634	-0.401415	0.000002
C36	C	2.081634	0.098585	0.500002
C37	C	1.703679	0.176244	0.000006
C38	C	2.203679	0.676244	0.500006
C39	C	1.842234	0.179891	0.000002
C40	C	2.342234	0.679891	0.500002
C41	C	1.468446	0.411477	0.000002
C42	C	1.968446	0.911477	0.500002
C43	C	1.472094	0.550031	-0.000000
C44	C	1.972094	1.050031	0.500000
N45	N	1.459323	0.199622	0.216343
N46	N	1.959323	0.699622	0.716343
N47	N	1.491894	0.167171	-0.216330
N48	N	1.991894	0.667171	0.283670
C49	C	1.540178	0.118826	0.260038
C50	C	2.040178	0.618826	0.760038
C51	C	1.533619	0.125387	0.347445
C52	C	2.033619	0.625387	0.847445
C53	C	1.446211	0.212750	0.391154
C54	C	1.946211	0.712750	0.891154
C55	C	1.365347	0.293550	0.347452
C56	C	1.865347	0.793550	0.847452
C57	C	1.371901	0.286982	0.260047
C58	C	1.871901	0.786982	0.760047
C59	C	1.417584	0.241403	0.652563
C60	C	1.917584	0.741403	1.152563
C61	C	1.411039	0.247966	0.739974
C62	C	1.911039	0.747966	1.239974
C63	C	1.579310	0.079801	0.739961
C64	C	2.079310	0.579801	1.239961
C65	C	1.585861	0.073247	0.652554
C66	C	2.085861	0.573247	1.152554
C67	C	1.504993	0.154042	0.608860
C68	C	2.004993	0.654042	1.108860
N69	N	1.439507	0.219461	0.480498
N70	N	1.939507	0.719461	0.980498
N71	N	1.511691	0.147324	0.519518
N72	N	2.011691	0.647324	1.019518
H73	H	1.075813	0.386985	0.000005
H74	H	1.575813	0.886985	0.500005
H75	H	0.906659	0.088895	-0.000001
H76	H	1.406659	0.588895	0.499999
Br77	Br	0.783405	0.441097	-0.000013
Br78	Br	1.283405	0.941097	0.499987
H79	H	1.067153	0.093124	-0.000016
H80	H	1.567153	0.593124	0.499984
H81	H	1.611360	0.047691	0.224456
H82	H	2.111360	0.547691	0.724456
Br83	Br	1.246709	0.412108	0.406769
Br84	Br	1.746709	0.912108	0.906769
H85	H	1.679186	-0.216389	0.000011
H86	H	2.179186	0.283611	0.500011
H87	H	1.672624	-0.465847	0.000006
H88	H	2.172624	0.034153	0.500006
Br89	Br	1.320421	-0.342592	0.000011
Br90	Br	1.820421	0.157408	0.500011
Br91	Br	1.643348	0.015730	0.406750
Br92	Br	2.143348	0.515730	0.906750
Br93	Br	1.704492	-0.045313	0.593233
Br94	Br	2.204492	0.454687	1.093233
Br95	Br	1.262155	0.396631	0.200746
Br96	Br	1.762155	0.896631	0.700746
H97	H	1.385328	-0.225051	-0.000001
H98	H	1.885328	0.274949	0.499999
H99	H	1.645148	0.014021	0.775545
H100	H	2.145148	0.514021	1.275545
H101	H	1.339857	0.319113	0.775558
H102	H	1.839857	0.819113	1.275558
H103	H	1.351740	0.307191	0.616994
H104	H	1.851740	0.807191	1.116994
