data_functionalizedCrystal
_audit_creation_method	'MofGen! by Chris Wilmer'
_symmetry_space_group_name_H-M	'P1'
_symmetry_Int_Tables_number	1
_symmetry_cell_setting	triclinic
loop_
_symmetry_equiv_pos_as_xyz
  x,y,z
_cell_length_a	11.792241
_cell_length_b	17.699083
_cell_length_c	16.776229
_cell_angle_alpha	90.001114
_cell_angle_beta	89.993219
_cell_angle_gamma	96.261785
loop_
_atom_site_label
_atom_site_type_symbol
_atom_site_fract_x
_atom_site_fract_y
_atom_site_fract_z
O1	O	0.143527	-1.004843	-0.066177
O2	O	0.162200	-0.784565	-0.066203
O3	O	-0.012371	-0.900050	-0.066184
O4	O	0.318098	-0.889358	-0.066196
O5	O	-0.012382	-0.900034	0.066393
O6	O	0.162189	-0.784549	0.066374
O7	O	0.143516	-1.004828	0.066400
Zn8	Zn	0.152851	-0.894686	0.087436
Zn9	Zn	0.152865	-0.894706	-0.087239
O10	O	0.318087	-0.889343	0.066381
C11	C	-0.054660	-0.899370	0.000104
C12	C	-0.180649	-0.897360	0.000103
C13	C	0.161525	-0.756356	0.000082
C14	C	0.159518	-0.672328	0.000072
C15	C	0.144190	-1.033036	0.000113
C16	C	0.146198	-1.117065	0.000118
C17	C	-0.411317	-0.893664	0.000090
C18	C	-0.282956	-0.895718	0.000097
C19	C	0.360375	-0.890022	0.000091
C20	C	0.486365	-0.892032	0.000087
N21	N	0.152841	-0.894678	0.206647
C22	C	0.261988	-0.624253	0.000069
C23	C	0.260095	-0.545299	0.000079
C24	C	0.155731	-0.514422	0.000087
C25	C	0.053254	-0.562503	0.000093
C26	C	0.055148	-0.641455	0.000089
C27	C	0.045613	-0.244099	0.000113
C28	C	0.043727	-0.165141	0.000116
C29	C	0.250560	-0.147944	0.000104
C30	C	0.252454	-0.226896	0.000099
C31	C	0.149977	-0.274970	0.000109
C32	C	0.152031	-0.360580	0.000099
C33	C	0.153676	-0.428814	0.000091
N34	N	0.152866	-0.894721	-0.206450
C35	C	0.075572	-0.945830	0.248373
C36	C	0.075571	-0.945834	0.331825
C37	C	0.152845	-0.894689	0.373550
C38	C	0.230117	-0.843531	0.331819
C39	C	0.230112	-0.843524	0.248368
C40	C	0.230139	-0.843559	0.668366
C41	C	0.230141	-0.843571	0.751822
C42	C	0.075599	-0.945869	0.751823
C43	C	0.075593	-0.945862	0.668372
C44	C	0.152861	-0.894702	0.626648
C45	C	0.152860	-0.894697	0.536160
C46	C	0.152853	-0.894697	0.464037
H47	H	0.346973	-0.649386	0.000061
C48	C	0.363289	-0.095060	0.000102
C49	C	0.448867	-0.098816	-0.068751
C50	C	0.561593	-0.045934	-0.068756
C51	C	0.588740	0.010703	0.000090
C52	C	0.503160	0.014461	0.068948
C53	C	0.390435	-0.038420	0.068954
H54	H	0.428773	-0.140744	-0.119720
H55	H	0.624945	-0.048717	-0.119730
H56	H	0.672186	0.049849	0.000086
H57	H	0.523254	0.056389	0.119917
H58	H	0.327083	-0.035638	0.119927
C59	C	0.372814	-0.492417	0.000078
C60	C	0.487611	-0.526379	0.000066
C61	C	0.600335	-0.473496	0.000069
C62	C	0.598262	-0.386651	0.000085
C63	C	0.483460	-0.352685	0.000097
C64	C	0.370736	-0.405567	0.000094
H65	H	0.489150	-0.590671	0.000054
H66	H	0.685319	-0.498641	0.000060
H67	H	0.681707	-0.347505	0.000087
H68	H	0.481921	-0.288393	0.000109
H69	H	0.285752	-0.380423	0.000103
H70	H	0.337438	-0.252031	0.000089
C71	C	-0.009409	-1.002142	0.797721
C72	C	-0.009419	-1.002154	0.889513
C73	C	-0.094421	-1.058427	0.935408
C74	C	-0.179413	-1.114689	0.889510
C75	C	-0.179406	-1.114679	0.797713
C76	C	-0.094404	-1.058405	0.751818
H77	H	0.053500	-0.960504	0.923494
H78	H	-0.094426	-1.058434	1.003363
H79	H	-0.242337	-1.156345	0.923484
H80	H	-0.242326	-1.156328	0.763732
H81	H	-0.094400	-1.058398	0.683863
H82	H	-0.041263	-0.140005	0.000123
C83	C	-0.057570	-0.694341	0.000091
C84	C	-0.143153	-0.690583	0.068939
C85	C	-0.255874	-0.743469	0.068946
C86	C	-0.283012	-0.800113	0.000104
C87	C	-0.197426	-0.803874	-0.068750
C88	C	-0.084705	-0.750988	-0.068756
H89	H	-0.123067	-0.648649	0.119905
H90	H	-0.319230	-0.740685	0.119917
H91	H	-0.366455	-0.839262	0.000109
H92	H	-0.217513	-0.845808	-0.119715
H93	H	-0.021349	-0.753772	-0.119727
C94	C	-0.009410	-1.002121	0.622474
C95	C	0.034824	-1.060175	0.565090
C96	C	-0.050184	-1.116433	0.519193
C97	C	-0.179426	-1.114636	0.530680
C98	C	-0.223667	-1.056579	0.588066
C99	C	-0.138658	-1.000321	0.633964
H100	H	0.130502	-1.061508	0.556585
H101	H	-0.017434	-1.159410	0.476712
H102	H	-0.242355	-1.156281	0.496704
H103	H	-0.319345	-1.055246	0.596572
H104	H	-0.171409	-0.957344	0.676445
C105	C	-0.009433	-1.002092	0.202480
C106	C	-0.138674	-1.000296	0.213970
C107	C	-0.223684	-1.056557	0.168080
C108	C	-0.179453	-1.114616	0.110699
C109	C	-0.050205	-1.116415	0.099206
C110	C	0.034805	-1.060153	0.145097
H111	H	-0.171422	-0.957315	0.256449
H112	H	-0.319362	-1.055226	0.176588
H113	H	-0.242383	-1.156264	0.076728
H114	H	-0.017456	-1.159395	0.056727
H115	H	0.130483	-1.061485	0.136588
H116	H	0.293030	-0.801869	0.214396
H117	H	0.293069	-0.801920	0.785794
C118	C	0.315138	-0.787291	0.622472
C119	C	0.400175	-0.731056	0.668364
C120	C	0.485178	-0.674788	0.622464
C121	C	0.485144	-0.674755	0.530672
C122	C	0.400104	-0.730992	0.484774
C123	C	0.315101	-0.787261	0.530674
H124	H	0.400203	-0.731078	0.736319
H125	H	0.548130	-0.633157	0.656441
H126	H	0.548068	-0.633102	0.496694
H127	H	0.400076	-0.730970	0.416819
H128	H	0.252148	-0.828891	0.496697
H129	H	0.293031	-0.801884	0.365796
H130	H	-0.037830	-0.283232	0.000122
H131	H	-0.031721	-0.537357	0.000112
H132	H	0.012653	-0.987486	0.365798
