data_functionalizedCrystal
_audit_creation_method	'MofGen! by Chris Wilmer'
_symmetry_space_group_name_H-M	'P1'
_symmetry_Int_Tables_number	1
_symmetry_cell_setting	triclinic
loop_
_symmetry_equiv_pos_as_xyz
  x,y,z
_cell_length_a	16.959455
_cell_length_b	12.827893
_cell_length_c	12.827885
_cell_angle_alpha	89.974949
_cell_angle_beta	89.979870
_cell_angle_gamma	90.000267
loop_
_atom_site_label
_atom_site_type_symbol
_atom_site_fract_x
_atom_site_fract_y
_atom_site_fract_z
Zn1	Zn	1.208521	-0.416067	-0.590907
Zn2	Zn	1.208469	-0.590845	-0.416182
Zn3	Zn	1.076336	-0.416109	-0.416178
Zn4	Zn	1.076353	-0.590758	-0.590879
O5	O	1.142420	-0.503445	-0.503536
O6	O	1.319125	-0.439271	-0.567743
O7	O	1.190912	-0.567720	-0.269945
O8	O	1.093886	-0.269868	-0.439366
O9	O	1.319087	-0.567679	-0.439373
O10	O	1.191001	-0.269837	-0.567739
O11	O	1.093835	-0.439342	-0.269942
O12	O	0.965728	-0.439258	-0.439339
O13	O	1.093914	-0.567531	-0.737119
O14	O	0.965740	-0.567571	-0.567691
O15	O	1.191018	-0.439187	-0.737139
O16	O	1.190929	-0.737069	-0.439346
O17	O	1.093863	-0.737005	-0.567695
C18	C	0.937053	-0.503410	-0.503512
C19	C	0.849197	-0.503421	-0.503527
C20	C	1.142414	-0.774955	-0.503540
C21	C	1.142483	-0.891108	-0.503577
C22	C	1.142474	-0.503345	-0.776107
C23	C	1.142496	-0.503302	-0.892260
C24	C	0.477691	-0.436577	-0.436843
C25	C	0.477752	-0.570399	-0.570290
C26	C	0.560298	-0.570384	-0.570283
C27	C	0.601544	-0.503465	-0.503555
C28	C	0.560244	-0.436562	-0.436832
C29	C	0.601604	-0.637293	-0.636997
C30	C	0.684155	-0.637281	-0.636992
C31	C	0.725403	-0.570357	-0.570268
C32	C	0.684098	-0.503451	-0.503544
C33	C	0.725343	-0.436533	-0.436815
C34	C	0.684040	-0.369620	-0.370096
C35	C	0.601491	-0.369638	-0.370108
C36	C	0.807951	-0.570339	-0.570256
C37	C	0.807897	-0.436518	-0.436805
C38	C	1.348588	-0.503480	-0.503561
C39	C	1.436445	-0.503495	-0.503572
C40	C	1.142447	-0.230875	-0.503555
C41	C	1.142459	-0.114722	-0.503563
C42	C	1.094452	0.057139	-0.567078
C43	C	1.094439	-0.062911	-0.567071
C44	C	1.190552	-0.439780	-0.944055
C45	C	1.190576	-0.439735	-1.064105
C46	C	1.142412	-0.503469	-0.232027
C47	C	1.142542	-0.503218	-0.115874
H48	H	0.717633	-0.315140	-0.315761
C49	C	0.576004	-0.318523	-0.193241
C50	C	0.556086	-0.296099	-0.296773
H51	H	0.547971	-0.273119	-0.147971
H52	H	0.562479	-0.388714	-0.177844
H53	H	0.631069	-0.308924	-0.183693
H54	H	0.501021	-0.305705	-0.306323
H55	H	0.569605	-0.225891	-0.312176
C56	C	1.290506	-0.307659	-0.954794
C57	C	1.246069	-0.366403	-0.883949
H58	H	1.324777	-0.262353	-0.917687
H59	H	1.320774	-0.353140	-0.997362
H60	H	1.256101	-0.267629	-0.997370
H61	H	1.280474	-0.406439	-0.841378
H62	H	1.215798	-0.320916	-0.841363
H63	H	1.183592	0.064323	-0.449204
H64	H	1.053321	-0.107418	-0.621441
H65	H	1.183586	-0.070223	-0.449198
C66	C	0.351239	-0.629837	-0.629553
C67	C	0.432417	-0.643952	-0.643635
H68	H	0.323250	-0.675244	-0.674842
H69	H	0.337696	-0.645056	-0.559325
H70	H	0.337716	-0.559640	-0.644960
H71	H	0.445940	-0.714147	-0.628220
H72	H	0.445965	-0.628740	-0.713880
H73	H	1.101368	-0.557644	-0.936793
H74	H	1.231721	-0.385355	-1.108648
C75	C	1.131610	-0.643715	-0.992996
C76	C	1.086999	-0.576640	-1.055753
H77	H	1.097319	-0.689037	-0.955869
H78	H	1.166014	-0.683714	-1.035580
H79	H	1.161741	-0.603879	-0.944963
H80	H	1.056872	-0.616475	-1.103791
H81	H	1.052581	-0.536637	-1.013165
H82	H	0.841474	-0.382018	-0.382472
H83	H	0.444058	-0.382096	-0.382524
C84	C	1.056021	0.091024	-0.744000
C85	C	1.038955	0.117296	-0.640487
H86	H	1.021756	0.128158	-0.789320
H87	H	1.109142	0.108858	-0.759270
H88	H	1.048726	0.018239	-0.753614
H89	H	1.046256	0.190081	-0.630871
H90	H	0.985821	0.099470	-0.625212
C91	C	0.609951	-0.769551	-0.768921
C92	C	0.556268	-0.710829	-0.710359
H93	H	0.581957	-0.814948	-0.814214
H94	H	0.642165	-0.724061	-0.808945
H95	H	0.642128	-0.809482	-0.723315
H96	H	0.524094	-0.670892	-0.755964
H97	H	0.524040	-0.756325	-0.670331
C98	C	0.777028	-0.651940	-0.777531
C99	C	0.729553	-0.710819	-0.710338
H100	H	0.805058	-0.697338	-0.822809
H101	H	0.744829	-0.606472	-0.817572
H102	H	0.813405	-0.612090	-0.737779
H103	H	0.693172	-0.750663	-0.750090
H104	H	0.761755	-0.756305	-0.670293
H105	H	0.841577	-0.624821	-0.624574
