data_functionalizedCrystal
_audit_creation_method	'MofGen! by Chris Wilmer'
_symmetry_space_group_name_H-M	'P1'
_symmetry_Int_Tables_number	1
_symmetry_cell_setting	triclinic
loop_
_symmetry_equiv_pos_as_xyz
  x,y,z
_cell_length_a	11.792241
_cell_length_b	14.971486
_cell_length_c	14.048226
_cell_angle_alpha	90.006640
_cell_angle_beta	90.002244
_cell_angle_gamma	83.903772
loop_
_atom_site_label
_atom_site_type_symbol
_atom_site_fract_x
_atom_site_fract_y
_atom_site_fract_z
O1	O	-1.506121	-0.122599	-0.079069
O2	O	-1.006121	0.377401	0.420931
O3	O	-1.175698	-0.135234	-0.079091
O4	O	-0.675698	0.364766	0.420909
O5	O	-1.349766	0.001248	-0.079072
O6	O	-0.849766	0.501248	0.420928
O7	O	-1.332053	-0.259081	-0.079087
O8	O	-0.832053	0.240919	0.420913
O9	O	-1.349745	0.001256	0.079249
O10	O	-0.849745	0.501256	0.579249
O11	O	-1.175677	-0.135226	0.079230
O12	O	-0.675677	0.364774	0.579230
O13	O	-1.506100	-0.122591	0.079253
O14	O	-1.006100	0.377409	0.579253
Zn15	Zn	-1.340885	-0.128907	0.104378
Zn16	Zn	-0.840885	0.371093	0.604378
Zn17	Zn	-1.340913	-0.128918	-0.104217
Zn18	Zn	-0.840913	0.371082	0.395783
O19	O	-1.332032	-0.259073	0.079234
O20	O	-0.832032	0.240927	0.579234
C21	C	-1.348963	0.034580	0.000088
C22	C	-0.848963	0.534580	0.500088
C23	C	-1.346589	0.133887	0.000087
C24	C	-0.846589	0.633887	0.500087
C25	C	-1.133402	-0.134436	0.000067
C26	C	-0.633402	0.365564	0.500067
C27	C	-1.007404	-0.132061	0.000059
C28	C	-0.507404	0.367939	0.500059
C29	C	-1.548396	-0.123389	0.000093
C30	C	-1.048396	0.376611	0.500093
C31	C	-1.674395	-0.125764	0.000095
C32	C	-1.174395	0.374236	0.500095
C33	C	-0.776720	-0.127692	0.000086
C34	C	-0.276720	0.372308	0.500086
C35	C	-0.905089	-0.130120	0.000071
C36	C	-0.405089	0.369880	0.500071
C37	C	-1.332835	-0.292405	0.000072
C38	C	-0.832835	0.207595	0.500072
C39	C	-1.335209	-0.391711	0.000066
C40	C	-0.835209	0.108289	0.500066
N41	N	-1.340875	-0.128899	0.246739
N42	N	-0.840875	0.371101	0.746739
C43	C	-1.448849	0.190702	0.000094
C44	C	-0.948849	0.690702	0.500094
C45	C	-1.446612	0.284011	0.000085
C46	C	-0.946612	0.784011	0.500085
C47	C	-1.342114	0.320502	0.000074
C48	C	-0.842114	0.820502	0.500074
C49	C	-1.239846	0.263679	0.000064
C50	C	-0.739846	0.763679	0.500064
C51	C	-1.242084	0.170372	0.000067
C52	C	-0.742084	0.670372	0.500067
C53	C	-1.235188	0.458160	0.000060
C54	C	-0.735188	0.958160	0.500060
C55	C	-1.232949	0.551473	0.000059
C56	C	-0.732949	1.051473	0.500059
C57	C	-1.439715	0.571798	0.000078
C58	C	-0.939715	1.071798	0.500078
C59	C	-1.441954	0.478492	0.000081
C60	C	-0.941954	0.978492	0.500081
C61	C	-1.339685	0.421675	0.000072
C62	C	-0.839685	0.921675	0.500072
N63	N	-1.340932	-0.128919	-0.246577
N64	N	-0.840932	0.371081	0.253423
C65	C	-1.417976	-0.068490	0.296565
C66	C	-0.917976	0.431510	0.796565
C67	C	-1.417984	-0.068490	0.396223
C68	C	-0.917984	0.431510	0.896223
C69	C	-1.340895	-0.128903	0.446053
C70	C	-0.840895	0.371097	0.946053
C71	C	-1.263785	-0.189315	0.396219
C72	C	-0.763785	0.310685	0.896219
C73	C	-1.263773	-0.189311	0.296564
C74	C	-0.763773	0.310689	0.796564
C75	C	-1.263818	-0.189322	0.603934
C76	C	-0.763818	0.310678	1.103934
C77	C	-1.263831	-0.189328	0.703596
C78	C	-0.763831	0.310672	1.203596
C79	C	-1.418029	-0.068501	0.703593
C80	C	-0.918029	0.431499	1.203593
C81	C	-1.418016	-0.068496	0.603937
C82	C	-0.918016	0.431504	1.103937
C83	C	-1.340908	-0.128910	0.554111
C84	C	-0.840908	0.371090	1.054111
H85	H	-1.533944	0.160999	0.000109
H86	H	-1.033944	0.660999	0.500109
Br87	Br	-1.098025	0.313201	0.000034
Br88	Br	-0.598025	0.813201	0.500034
Br89	Br	-1.522618	0.013498	0.463848
Br90	Br	-1.022618	0.513498	0.963848
H91	H	-1.480793	-0.019307	0.563366
H92	H	-0.980793	0.480693	1.063366
H93	H	-1.480812	-0.019310	0.744167
H94	H	-0.980812	0.480690	1.244167
H95	H	-1.201056	-0.238522	0.744163
H96	H	-0.701056	0.261478	1.244163
Br97	Br	-1.103298	0.093263	0.000049
Br98	Br	-0.603298	0.593263	0.500049
Br99	Br	-1.159163	-0.271309	0.536315
Br100	Br	-0.659163	0.228691	1.036315
H101	H	-1.201012	-0.238502	0.436796
H102	H	-0.701012	0.261498	0.936796
H103	H	-1.151910	0.411902	0.000051
H104	H	-0.651910	0.911902	0.500051
Br105	Br	-1.159123	-0.271292	0.228942
Br106	Br	-0.659123	0.228708	0.728942
H107	H	-1.522986	0.618063	0.000082
H108	H	-1.022986	1.118063	0.500082
Br109	Br	-1.585400	0.361115	0.000095
Br110	Br	-1.085400	0.861115	0.500095
H111	H	-1.527045	0.448784	0.000096
H112	H	-1.027045	0.948784	0.500096
Br113	Br	-1.522612	0.013498	0.228950
Br114	Br	-1.022612	0.513498	0.728950
H115	H	-1.147857	0.581181	0.000066
H116	H	-0.647857	1.081181	0.500066
