data_functionalizedCrystal
_audit_creation_method	'MofGen! by Chris Wilmer'
_symmetry_space_group_name_H-M	'P1'
_symmetry_Int_Tables_number	1
_symmetry_cell_setting	triclinic
loop_
_symmetry_equiv_pos_as_xyz
  x,y,z
_cell_length_a	17.699083
_cell_length_b	26.809956
_cell_length_c	27.731996
_cell_angle_alpha	90.001656
_cell_angle_beta	97.047798
_cell_angle_gamma	89.997648
loop_
_atom_site_label
_atom_site_type_symbol
_atom_site_fract_x
_atom_site_fract_y
_atom_site_fract_z
O1	O	-1.003525	0.041411	0.061120
O2	O	-0.783074	0.041430	0.069073
O3	O	-0.900167	0.041409	-0.005277
O4	O	-0.886432	0.041432	0.135471
O5	O	-0.900145	-0.041550	-0.005266
O6	O	-0.783052	-0.041530	0.069085
O7	O	-1.003503	-0.041548	0.061132
Zn8	Zn	-0.893274	-0.054710	0.065110
Zn9	Zn	-0.893303	0.054592	0.065095
O10	O	-0.886410	-0.041527	0.135482
C11	C	-0.754869	-0.000048	0.068794
C12	C	-0.670858	-0.000041	0.067939
N13	N	-0.893260	-0.129306	0.065120
C14	C	-0.621840	-0.000034	0.111581
C15	C	-0.542904	-0.000040	0.110775
C16	C	-0.512988	-0.000050	0.066326
C17	C	-0.562013	-0.000059	0.022681
C18	C	-0.640947	-0.000056	0.023488
C19	C	-0.243679	-0.000070	0.019427
C20	C	-0.164739	-0.000071	0.018623
C21	C	-0.145636	-0.000054	0.106714
C22	C	-0.224571	-0.000052	0.107521
C23	C	-0.273588	-0.000063	0.063876
C24	C	-0.359180	-0.000057	0.064750
C25	C	-0.427398	-0.000052	0.065451
C26	C	-0.945145	-0.473941	0.032181
C27	C	-0.945163	-0.682819	0.032174
O28	O	-0.989247	-0.709831	0.004171
N29	N	-0.893307	-0.708933	0.065085
C30	C	-0.841440	-0.682825	0.097997
O31	O	-0.797329	-0.709830	0.125987
C32	C	-0.841419	-0.473948	0.098002
C33	C	-0.893283	-0.447837	0.065092
C34	C	-0.997005	-0.447830	-0.000727
C35	C	-0.997002	-0.395614	-0.000723
C36	C	-0.945140	-0.369509	0.032189
C37	C	-0.893281	-0.395620	0.065096
C38	C	-0.789549	-0.447841	0.130912
C39	C	-0.789547	-0.395618	0.130910
C40	C	-0.841411	-0.369507	0.098000
C41	C	-0.841417	-0.317300	0.098012
N42	N	-0.893273	-0.291185	0.065101
C43	C	-0.945135	-0.317290	0.032189
C44	C	-0.841456	-0.792488	0.097993
C45	C	-0.841462	-0.844707	0.097993
C46	C	-0.945184	-0.844698	0.032168
C47	C	-0.945181	-0.792478	0.032171
C48	C	-0.893311	-0.766374	0.065082
C49	C	-0.945126	-0.207632	0.032200
C50	C	-0.945121	-0.155411	0.032209
C51	C	-0.841397	-0.155425	0.098031
C52	C	-0.841404	-0.207641	0.098025
C53	C	-0.893272	-0.233744	0.065106
O54	O	-0.797350	-0.290256	0.125996
O55	O	-0.989228	-0.290276	0.004197
C56	C	-0.945147	-0.526158	0.032177
C57	C	-0.893288	-0.552269	0.065084
C58	C	-0.841426	-0.526165	0.097996
C59	C	-0.893294	-0.604488	0.065084
C60	C	-0.945156	-0.630593	0.032173
C61	C	-0.997011	-0.604479	-0.000738
C62	C	-0.997009	-0.552262	-0.000734
C63	C	-0.789570	-0.552279	0.130907
C64	C	-0.789578	-0.604495	0.130901
C65	C	-0.841439	-0.630600	0.097989
C66	C	-0.031708	-0.000068	0.061411
C67	C	-0.115719	-0.000068	0.062266
C68	C	-0.899874	-0.000072	-0.023280
C69	C	-0.899024	-0.000077	-0.076939
N70	N	-0.893323	0.129188	0.065081
C71	C	-0.893689	0.045169	-0.409681
C72	C	-0.890462	0.045178	-0.611350
O73	O	-0.890023	0.083637	-0.637428
N74	N	-0.890049	-0.000043	-0.636563
C75	C	-0.890438	-0.045269	-0.611354
O76	O	-0.890005	-0.083732	-0.637426
C77	C	-0.893660	-0.045278	-0.409685
C78	C	-0.894080	-0.000054	-0.384476
C79	C	-0.894109	0.090389	-0.384471
C80	C	-0.894920	0.090386	-0.334057
C81	C	-0.895311	0.045163	-0.308852
C82	C	-0.894891	-0.000057	-0.334062
C83	C	-0.894043	-0.090503	-0.384477
C84	C	-0.894847	-0.090501	-0.334056
C85	C	-0.895268	-0.045278	-0.308847
C86	C	-0.896093	-0.045282	-0.258443
N87	N	-0.896506	-0.000061	-0.233230
C88	C	-0.896115	0.045161	-0.258435
C89	C	-0.888748	-0.045261	-0.717234
C90	C	-0.887944	-0.045259	-0.767651
C91	C	-0.887967	0.045188	-0.767644
C92	C	-0.888776	0.045185	-0.717226
C93	C	-0.889161	-0.000041	-0.692021
C94	C	-0.897819	0.045152	-0.152562
C95	C	-0.898633	0.045145	-0.102144
C96	C	-0.898606	-0.045301	-0.102155
C97	C	-0.897796	-0.045295	-0.152569
C98	C	-0.897400	-0.000064	-0.177771
O99	O	-0.896525	-0.083721	-0.232333
O100	O	-0.896531	0.083618	-0.232354
C101	C	-0.892878	0.045171	-0.460095
C102	C	-0.892459	-0.000049	-0.485304
C103	C	-0.892850	-0.045271	-0.460099
C104	C	-0.891655	-0.000047	-0.535721
C105	C	-0.891264	0.045176	-0.560926
C106	C	-0.891676	0.090397	-0.535714
C107	C	-0.892487	0.090394	-0.485300
C108	C	-0.892437	-0.090492	-0.485312
C109	C	-0.891627	-0.090485	-0.535726
C110	C	-0.891236	-0.045263	-0.560931
C111	C	-0.886703	-0.000045	0.153485
C112	C	-0.887553	-0.000037	0.207144
H113	H	-0.646191	-0.000026	0.147777
H114	H	-0.799216	-0.771238	0.124795
H115	H	-0.893702	-0.127329	-0.404994
H116	H	-0.889118	0.082010	-0.696704
H117	H	-0.898928	-0.082120	-0.081625
H118	H	-0.502996	-0.000034	0.146313
H119	H	-0.799179	-0.228902	0.124828
H120	H	-0.891361	0.127219	-0.556245
H121	H	-0.799237	-0.865964	0.124796
H122	H	-0.248923	-0.000042	0.143716
H123	H	-1.039242	-0.625742	-0.027535
H124	H	-0.892757	-0.127318	-0.464795
H125	H	-0.897492	0.081983	-0.173075
H126	H	-0.747306	-0.374367	0.157710
H127	H	-0.537649	-0.000074	-0.013510
H128	H	-0.799174	-0.134163	0.124829
H129	H	-0.283581	-0.000080	-0.016112
H130	H	-0.987413	-0.865961	0.005371
H131	H	-0.105716	-0.000048	0.142252
H132	H	-0.680858	-0.000062	-0.012050
H133	H	-0.987361	-0.228878	0.005394
H134	H	-0.140385	-0.000080	-0.017574
H135	H	-0.987358	-0.134153	0.005409
H136	H	-0.898977	0.081973	-0.081621
H137	H	-1.039242	-0.531006	-0.027533
H138	H	-0.897461	-0.082120	-0.173096
H139	H	-0.895259	0.127212	-0.313536
H140	H	-1.039237	-0.469080	-0.027529
H141	H	-1.039232	-0.374357	-0.027522
H142	H	-0.987413	-0.771221	0.005373
H143	H	-0.887649	0.082010	-0.788174
H144	H	-0.747345	-0.625752	0.157704
H145	H	-0.747316	-0.469094	0.157710
H146	H	-0.747337	-0.531029	0.157707
H147	H	-0.892829	0.127220	-0.464779
H148	H	-0.893788	0.127216	-0.404988
H149	H	-0.887614	-0.082085	-0.788173
H150	H	-0.889066	-0.082092	-0.696717
H151	H	-0.895149	-0.127330	-0.313536
H152	H	-0.891291	-0.127315	-0.556247
