data_functionalizedCrystal
_audit_creation_method	'MofGen! by Chris Wilmer'
_symmetry_space_group_name_H-M	'P1'
_symmetry_Int_Tables_number	1
_symmetry_cell_setting	triclinic
loop_
_symmetry_equiv_pos_as_xyz
  x,y,z
_cell_length_a	13.897448
_cell_length_b	18.215407
_cell_length_c	18.215399
_cell_angle_alpha	89.982187
_cell_angle_beta	89.973672
_cell_angle_gamma	90.012205
loop_
_atom_site_label
_atom_site_type_symbol
_atom_site_fract_x
_atom_site_fract_y
_atom_site_fract_z
Zn1	Zn	-0.384166	1.125109	-0.416084
Zn2	Zn	-0.050833	1.458442	-0.082751
Zn3	Zn	0.282501	1.791775	0.250582
Zn4	Zn	-0.545476	1.125033	-0.293022
Zn5	Zn	-0.212142	1.458366	0.040312
Zn6	Zn	0.121191	1.791699	0.373645
Zn7	Zn	-0.384181	1.002041	-0.293036
Zn8	Zn	-0.050848	1.335375	0.040297
Zn9	Zn	0.282486	1.668708	0.373630
Zn10	Zn	-0.545405	1.002023	-0.416051
Zn11	Zn	-0.212072	1.335356	-0.082718
Zn12	Zn	0.121261	1.668689	0.250616
O13	O	-0.464807	1.063551	-0.354548
O14	O	-0.131474	1.396885	-0.021215
O15	O	0.201860	1.730218	0.312118
O16	O	-0.405587	1.228083	-0.399768
O17	O	-0.072254	1.561416	-0.066435
O18	O	0.261079	1.894750	0.266899
O19	O	-0.524115	1.108693	-0.190039
O20	O	-0.190782	1.442027	0.143294
O21	O	0.142551	1.775360	0.476627
O22	O	-0.249197	1.018406	-0.309379
O23	O	0.084136	1.351739	0.023954
O24	O	0.417469	1.685073	0.357288
O25	O	-0.524101	1.228027	-0.309354
O26	O	-0.190768	1.561360	0.023979
O27	O	0.142566	1.894694	0.357312
O28	O	-0.249186	1.108823	-0.399782
O29	O	0.084147	1.442157	-0.066449
O30	O	0.417480	1.775490	0.266885
O31	O	-0.405613	1.018332	-0.190050
O32	O	-0.072279	1.351666	0.143283
O33	O	0.261054	1.684999	0.476617
O34	O	-0.405544	0.899055	-0.309346
O35	O	-0.072211	1.232388	0.023987
O36	O	0.261122	1.565721	0.357320
O37	O	-0.523981	1.018374	-0.519040
O38	O	-0.190648	1.351708	-0.185706
O39	O	0.142686	1.685041	0.147627
O40	O	-0.523995	0.899041	-0.399725
O41	O	-0.190662	1.232374	-0.066391
O42	O	0.142671	1.565707	0.266942
O43	O	-0.405519	1.108805	-0.519064
O44	O	-0.072186	1.442138	-0.185731
O45	O	0.261148	1.775472	0.147602
O46	O	-0.680448	1.108675	-0.309322
O47	O	-0.347115	1.442009	0.024012
O48	O	-0.013781	1.775342	0.357345
O49	O	-0.680396	1.018300	-0.399711
O50	O	-0.347063	1.351634	-0.066377
O51	O	-0.013730	1.684967	0.266956
C52	C	-0.464765	0.872345	-0.354534
C53	C	-0.131431	1.205678	-0.021201
C54	C	0.201902	1.539012	0.312133
C55	C	-0.464770	0.790546	-0.354545
C56	C	-0.131436	1.123879	-0.021212
C57	C	0.201897	1.457213	0.312121
C58	C	-0.403216	0.525512	-0.401702
C59	C	-0.069882	0.858845	-0.068368
C60	C	0.263451	1.192179	0.264965
C61	C	-0.403200	0.602371	-0.401699
C62	C	-0.069867	0.935704	-0.068366
C63	C	0.263466	1.269037	0.264967
C64	C	-0.526429	0.602332	-0.307411
C65	C	-0.193096	0.935665	0.025922
C66	C	0.140237	1.268998	0.359256
C67	C	-0.526449	0.525474	-0.307417
C68	C	-0.193116	0.858808	0.025916
C69	C	0.140218	1.192141	0.359249
C70	C	-0.464837	0.487067	-0.354562
C71	C	-0.131504	0.820400	-0.021228
C72	C	0.201830	1.153733	0.312105
C73	C	-0.464801	0.640783	-0.354553
C74	C	-0.131468	0.974116	-0.021220
C75	C	0.201865	1.307449	0.312114
C76	C	-0.464785	0.724116	-0.354550
C77	C	-0.131452	1.057450	-0.021217
C78	C	0.201882	1.390783	0.312117
C79	C	-0.464854	0.403728	-0.354566
C80	C	-0.131521	0.737061	-0.021233
C81	C	0.201812	1.070394	0.312101
C82	C	-0.715421	1.063498	-0.354527
C83	C	-0.382088	1.396831	-0.021194
C84	C	-0.048755	1.730164	0.312140
C85	C	-0.822635	1.063542	-0.354542
C86	C	-0.489302	1.396875	-0.021209
C87	C	-0.155969	1.730209	0.312124
C88	C	-1.018930	1.063619	-0.354589
C89	C	-0.685597	1.396953	-0.021255
C90	C	-0.352264	1.730286	0.312078
C91	C	-0.909698	1.063574	-0.354565
C92	C	-0.576364	1.396907	-0.021232
C93	C	-0.243031	1.730241	0.312101
C94	C	-0.213214	1.063625	-0.354586
C95	C	0.120119	1.396959	-0.021252
C96	C	0.453453	1.730292	0.312081
C97	C	-0.106000	1.063657	-0.354602
C98	C	0.227333	1.396990	-0.021268
C99	C	0.560667	1.730323	0.312065
C100	C	-0.464740	1.063596	-0.546501
C101	C	-0.131407	1.396929	-0.213168
C102	C	0.201926	1.730263	0.120165
C103	C	-0.464712	1.063615	-0.628300
C104	C	-0.131379	1.396949	-0.294967
C105	C	0.201955	1.730282	0.038366
C106	C	-0.464850	1.255504	-0.354563
C107	C	-0.131517	1.588838	-0.021230
C108	C	0.201816	1.922171	0.312104
C109	C	-0.464869	1.337303	-0.354569
C110	C	-0.131535	1.670636	-0.021236
C111	C	0.201798	2.003970	0.312097
C112	C	-0.402971	1.110719	-0.816508
C113	C	-0.069638	1.444053	-0.483175
C114	C	0.263695	1.777386	-0.149842
C115	C	-0.402943	1.110728	-0.893367
C116	C	-0.069610	1.444062	-0.560034
C117	C	0.263723	1.777395	-0.226700
C118	C	-0.526304	1.016563	-0.893330
C119	C	-0.192970	1.349896	-0.559997
C120	C	0.140363	1.683230	-0.226663
C121	C	-0.526326	1.016551	-0.816473
C122	C	-0.192993	1.349884	-0.483139
C123	C	0.140340	1.683218	-0.149806
C124	C	-0.464662	1.063633	-0.778064
C125	C	-0.131328	1.396967	-0.444730
C126	C	0.202005	1.730300	-0.111397
C127	C	-0.464611	1.063654	-0.931780
C128	C	-0.131278	1.396988	-0.598447
C129	C	0.202056	1.730321	-0.265113
C130	C	-0.464581	1.063663	-1.015114
C131	C	-0.131248	1.396997	-0.681780
C132	C	0.202086	1.730330	-0.348447
C133	C	-0.464690	1.063624	-0.694725
C134	C	-0.131357	1.396957	-0.361391
C135	C	0.201977	1.730290	-0.028058
C136	C	-0.464804	1.063549	-0.163342
C137	C	-0.131470	1.396882	0.169991
C138	C	0.201863	1.730216	0.503325
C139	C	-0.464560	1.063672	-0.081544
C140	C	-0.131227	1.397006	0.251790
C141	C	0.202106	1.730339	0.585123
H142	H	-0.353023	0.633670	-0.440086
H143	H	-0.019690	0.967003	-0.106753
H144	H	0.313644	1.300336	0.226580
H145	H	-0.576590	0.633613	-0.269026
H146	H	-0.243257	0.966946	0.064307
H147	H	0.090077	1.300279	0.397640
C148	C	-0.594191	0.964748	-0.774181
C149	C	-0.260857	1.298081	-0.440848
C150	C	0.072476	1.631414	-0.107515
N151	N	-0.645302	0.925729	-0.742327
N152	N	-0.311968	1.259063	-0.408994
N153	N	0.021365	1.592396	-0.075661
H154	H	-0.353047	0.494243	-0.440089
H155	H	-0.019714	0.827576	-0.106756
H156	H	0.313620	1.160909	0.226577
H157	H	-0.576634	0.494171	-0.269030
H158	H	-0.243300	0.827505	0.064303
H159	H	0.090033	1.160838	0.397637
C160	C	-0.335130	1.162505	-0.774261
C161	C	-0.001797	1.495838	-0.440928
C162	C	0.331537	1.829172	-0.107595
N163	N	-0.284026	1.201509	-0.742443
N164	N	0.049307	1.534842	-0.409109
N165	N	0.382640	1.868175	-0.075776
H166	H	-0.352707	1.149069	-0.924665
H167	H	-0.019374	1.482403	-0.591332
H168	H	0.313959	1.815736	-0.257999
H169	H	-0.576511	0.978232	-0.924612
H170	H	-0.243178	1.311565	-0.591279
H171	H	0.090156	1.644898	-0.257945
