data_functionalizedCrystal
_audit_creation_method	'MofGen! by Chris Wilmer'
_symmetry_space_group_name_H-M	'P1'
_symmetry_Int_Tables_number	1
_symmetry_cell_setting	triclinic
loop_
_symmetry_equiv_pos_as_xyz
  x,y,z
_cell_length_a	17.640280
_cell_length_b	17.077404
_cell_length_c	17.077396
_cell_angle_alpha	89.981638
_cell_angle_beta	78.774396
_cell_angle_gamma	78.798554
loop_
_atom_site_label
_atom_site_type_symbol
_atom_site_fract_x
_atom_site_fract_y
_atom_site_fract_z
Zn1	Zn	-0.314709	1.263298	-0.380710
Zn2	Zn	0.185291	1.763298	0.119290
Zn3	Zn	-0.446890	1.289768	-0.222937
Zn4	Zn	0.053110	1.789768	0.277063
Zn5	Zn	-0.314731	1.132035	-0.249456
Zn6	Zn	0.185269	1.632035	0.250544
Zn7	Zn	-0.446838	1.158551	-0.354174
Zn8	Zn	0.053162	1.658551	0.145826
O9	O	-0.380792	1.210913	-0.301819
O10	O	0.119208	1.710913	0.198181
O11	O	-0.332255	1.376659	-0.359788
O12	O	0.167745	1.876659	0.140212
O13	O	-0.429390	1.268825	-0.116602
O14	O	0.070610	1.768825	0.383398
O15	O	-0.204123	1.127272	-0.289070
O16	O	0.295877	1.627272	0.210930
O17	O	-0.429368	1.396106	-0.243874
O18	O	0.070632	1.896106	0.256126
O19	O	-0.204106	1.223711	-0.385502
O20	O	0.295894	1.723711	0.114498
O21	O	-0.332294	1.152939	-0.136085
O22	O	0.167706	1.652939	0.363915
O23	O	-0.332243	1.025703	-0.263340
O24	O	0.167757	1.525703	0.236660
O25	O	-0.429280	1.172465	-0.467547
O26	O	0.070720	1.672465	0.032453
O27	O	-0.429302	1.045184	-0.340276
O28	O	0.070698	1.545184	0.159724
O29	O	-0.332205	1.249422	-0.487043
O30	O	0.167795	1.749422	0.012957
O31	O	-0.557489	1.294537	-0.218143
O32	O	-0.057489	1.794537	0.281857
O33	O	-0.557450	1.198132	-0.314562
O34	O	-0.057450	1.698132	0.185438
C35	C	-0.380770	1.006961	-0.301806
C36	C	0.119230	1.506961	0.198194
C37	C	-0.380779	0.919713	-0.301815
C38	C	0.119221	1.419713	0.198185
C39	C	-0.330302	0.868615	-0.362231
C40	C	0.169698	1.368615	0.137769
C41	C	-0.330307	0.786636	-0.362233
C42	C	0.169693	1.286636	0.137767
C43	C	-0.380794	0.755756	-0.301823
C44	C	0.119206	1.255756	0.198177
C45	C	-0.431273	0.806860	-0.241402
C46	C	0.068727	1.306860	0.258598
C47	C	-0.431263	0.888837	-0.241397
C48	C	0.068737	1.388837	0.258603
C49	C	-0.431291	0.635994	-0.241418
C50	C	0.068709	1.135994	0.258582
C51	C	-0.431302	0.554011	-0.241423
C52	C	0.068698	1.054011	0.258577
C53	C	-0.330335	0.533792	-0.362254
C54	C	0.169665	1.033792	0.137746
C55	C	-0.330325	0.615769	-0.362249
C56	C	0.169675	1.115769	0.137751
C57	C	-0.380806	0.666868	-0.301828
C58	C	0.119194	1.166868	0.198172
C59	C	-0.586148	1.252105	-0.260612
C60	C	-0.086148	1.752105	0.239388
C61	C	-0.674001	1.269800	-0.243010
C62	C	-0.174001	1.769800	0.256990
C63	C	-0.962973	1.076815	-0.435827
C64	C	-0.462973	1.576815	0.064173
C65	C	-1.045524	1.093443	-0.419262
C66	C	-0.545524	1.593443	0.080738
C67	C	-1.045498	1.193892	-0.318963
C68	C	-0.545498	1.693892	0.181037
C69	C	-0.962946	1.177275	-0.335522
C70	C	-0.462946	1.677275	0.164478
C71	C	-0.921690	1.118735	-0.393955
C72	C	-0.421690	1.618735	0.106045
C73	C	-0.921663	1.219195	-0.293649
C74	C	-0.421663	1.719195	0.206351
C75	C	-0.839118	1.202577	-0.310205
C76	C	-0.339118	1.702577	0.189795
C77	C	-0.797856	1.144038	-0.368633
C78	C	-0.297856	1.644038	0.131367
C79	C	-0.839145	1.102116	-0.410510
C80	C	-0.339145	1.602116	0.089490
C81	C	-0.962920	1.277731	-0.235213
C82	C	-0.462920	1.777731	0.264787
C83	C	-0.921637	1.319651	-0.193340
C84	C	-0.421637	1.819651	0.306660
C85	C	-0.839091	1.303037	-0.209899
C86	C	-0.339091	1.803037	0.290101
C87	C	-0.797829	1.244498	-0.268327
C88	C	-0.297829	1.744498	0.231673
C89	C	-0.797802	1.344958	-0.168022
C90	C	-0.297802	1.844958	0.331978
C91	C	-0.715257	1.328339	-0.184578
C92	C	-0.215257	1.828339	0.315422
C93	C	-0.715284	1.227879	-0.284883
C94	C	-0.215284	1.727879	0.215117
C95	C	-0.174634	1.169581	-0.343204
C96	C	0.325366	1.669581	0.156796
C97	C	-0.086782	1.151968	-0.360840
C98	C	0.413218	1.651968	0.139160
C99	C	-0.380734	1.210949	-0.506575
C100	C	0.119266	1.710949	-0.006575
C101	C	-0.380709	1.210964	-0.593830
C102	C	0.119291	1.710964	-0.093830
C103	C	-0.380815	1.415662	-0.301833
C104	C	0.119185	1.915662	0.198167
C105	C	-0.380825	1.502914	-0.301839
C106	C	0.119175	2.002914	0.198161
C107	C	-0.330158	1.251037	-0.644974
C108	C	0.169842	1.751037	-0.144974
C109	C	-0.330132	1.251041	-0.726960
C110	C	0.169868	1.751041	-0.226960
C111	C	-0.380661	1.210977	-0.757799
C112	C	0.119339	1.710977	-0.257799
C113	C	-0.431214	1.170899	-0.706649
C114	C	0.068786	1.670899	-0.206649
C115	C	-0.431236	1.170890	-0.624666
C116	C	0.068764	1.670890	-0.124666
C117	C	-0.431167	1.170921	-0.877529
C118	C	0.068833	1.670921	-0.377529
C119	C	-0.431146	1.170930	-0.959518
C120	C	0.068854	1.670930	-0.459518
C121	C	-0.330063	1.251071	-0.979823
C122	C	0.169937	1.751071	-0.479823
C123	C	-0.330084	1.251063	-0.897839
C124	C	0.169916	1.751063	-0.397839
C125	C	-0.380639	1.210986	-0.846695
C126	C	0.119361	1.710986	-0.346695
C127	C	-0.380793	1.210911	-0.097871
C128	C	0.119207	1.710911	0.402129
C129	C	-0.380595	1.211003	-0.010662
C130	C	0.119405	1.711003	0.489338
H131	H	-0.289192	0.893750	-0.411426
H132	H	0.210808	1.393750	0.088574
H133	H	-0.805553	1.054453	-0.458097
H134	H	-0.305553	1.554453	0.041903
O135	O	-0.281031	1.289837	-0.614943
O136	O	0.218969	1.789837	-0.114943
C137	C	-0.229976	1.234900	-0.577783
C138	C	0.270024	1.734900	-0.077783
H139	H	-0.257853	1.181001	-0.559892
H140	H	0.242147	1.681001	-0.059892
H141	H	-0.219397	1.264744	-0.522266
H142	H	0.280603	1.764744	-0.022266
H143	H	-0.171396	1.214530	-0.621140
H144	H	0.328604	1.714530	-0.121140
H145	H	-0.681692	1.180216	-0.332470
H146	H	-0.181692	1.680216	0.167530
O147	O	-0.480405	0.685526	-0.182688
O148	O	0.019595	1.185526	0.317312
C149	C	-0.524958	0.640693	-0.129360
C150	C	-0.024958	1.140693	0.370640
H151	H	-0.527738	0.582825	-0.160953
H152	H	-0.027738	1.082825	0.339047
H153	H	-0.587221	0.676871	-0.108397
H154	H	-0.087221	1.176871	0.391603
H155	H	-0.495945	0.626130	-0.075609
H156	H	0.004055	1.126130	0.424391
O157	O	-0.837921	1.401903	-0.111362
O158	O	-0.337921	1.901903	0.388638
C159	C	-0.885637	1.462166	-0.146519
C160	C	-0.385637	1.962166	0.353481
H161	H	-0.860732	1.461978	-0.213343
H162	H	-0.360732	1.961978	0.286657
H163	H	-0.886553	1.522773	-0.117991
H164	H	-0.386553	2.022773	0.382009
H165	H	-0.948208	1.450479	-0.136652
H166	H	-0.448208	1.950479	0.363348
H167	H	-0.730643	1.130503	-0.382105
H168	H	-0.230643	1.630503	0.117895
O169	O	-0.480426	0.776974	-0.182736
O170	O	0.019574	1.276974	0.317264
C171	C	-0.559222	0.812816	-0.183964
C172	C	-0.059222	1.312816	0.316036
H173	H	-0.560890	0.872687	-0.213794
H174	H	-0.060890	1.372687	0.286206
H175	H	-0.594592	0.822695	-0.120157
H176	H	-0.094592	1.322695	0.379843
H177	H	-0.585901	0.772051	-0.218931
H178	H	-0.085901	1.272051	0.281069
O179	O	-1.085537	1.250664	-0.262096
O180	O	-0.585537	1.750664	0.237904
C181	C	-1.065391	1.229513	-0.187889
C182	C	-0.565391	1.729513	0.312111
H183	H	-1.042751	1.162246	-0.188410
H184	H	-0.542751	1.662246	0.311590
H185	H	-1.119683	1.247233	-0.138218
H186	H	-0.619683	1.747233	0.361782
H187	H	-1.017450	1.261956	-0.177031
H188	H	-0.517450	1.761956	0.322969
H189	H	-1.079134	1.059311	-0.453374
H190	H	-0.579134	1.559311	0.046626
H191	H	-0.288943	1.283692	-0.872732
H192	H	0.211057	1.783692	-0.372732
H193	H	-0.472366	0.930441	-0.192200
H194	H	0.027634	1.430441	0.307800
H195	H	-0.472321	1.138271	-0.835891
H196	H	0.027679	1.638271	-0.335891
O197	O	-1.043105	1.293952	-0.219258
O198	O	-0.543105	1.793952	0.280742
C199	C	-1.070629	1.319597	-0.288992
C200	C	-0.570629	1.819597	0.211008
H201	H	-1.023014	1.344210	-0.331021
H202	H	-0.523014	1.844210	0.168979
H203	H	-1.125822	1.368359	-0.272335
H204	H	-0.625822	1.868359	0.227665
H205	H	-1.085308	1.266963	-0.320009
H206	H	-0.585308	1.766963	0.179991
O207	O	-0.961839	1.376504	-0.136621
O208	O	-0.461839	1.876504	0.363379
C209	C	-1.043548	1.382163	-0.130965
C210	C	-0.543548	1.882163	0.369035
H211	H	-1.054817	1.358697	-0.189263
H212	H	-0.554817	1.858697	0.310737
H213	H	-1.074885	1.447268	-0.119394
H214	H	-0.574885	1.947268	0.380606
H215	H	-1.067014	1.345101	-0.079664
H216	H	-0.567014	1.845101	0.420336
O217	O	-0.480408	1.132040	-0.736497
O218	O	0.019592	1.632040	-0.236497
C219	C	-0.559192	1.164999	-0.700664
C220	C	-0.059192	1.664999	-0.200664
H221	H	-0.560849	1.195496	-0.640813
H222	H	-0.060849	1.695496	-0.140813
H223	H	-0.594628	1.115451	-0.690738
H224	H	-0.094628	1.615451	-0.190738
H225	H	-0.585807	1.210701	-0.741465
H226	H	-0.085807	1.710701	-0.241465
H227	H	-0.288970	1.283675	-0.768598
H228	H	0.211030	1.783675	-0.268598
H229	H	-0.289206	0.745035	-0.411431
H230	H	0.210794	1.245035	0.088569
O231	O	-0.280968	1.289922	-1.029619
O232	O	0.219032	1.789922	-0.529619
C233	C	-0.291788	1.281348	-1.108591
C234	C	0.208212	1.781348	-0.608591
H235	H	-0.317669	1.225962	-1.114580
H236	H	0.182331	1.725962	-0.614580
H237	H	-0.232572	1.274796	-1.151630
H238	H	0.267428	1.774796	-0.651630
H239	H	-0.333869	1.336352	-1.123423
H240	H	0.166131	1.836352	-0.623423
H241	H	-0.472290	1.138304	-0.984625
H242	H	0.027710	1.638304	-0.484625
O243	O	-0.675271	1.369156	-0.143853
O244	O	-0.175271	1.869156	0.356147
C245	C	-0.729384	1.424373	-0.088716
C246	C	-0.229384	1.924373	0.411284
H247	H	-0.788208	1.438922	-0.109072
H248	H	-0.288208	1.938922	0.390928
H249	H	-0.705487	1.481412	-0.085188
H250	H	-0.205487	1.981412	0.414812
H251	H	-0.738215	1.397438	-0.027303
H252	H	-0.238215	1.897438	0.472697
H253	H	-0.472392	1.138249	-0.583026
H254	H	0.027608	1.638249	-0.083026
H255	H	-0.289219	0.640909	-0.411444
H256	H	0.210781	1.140909	0.088556
H257	H	-0.472413	0.528872	-0.192232
H258	H	0.027587	1.028872	0.307768
O259	O	-0.281405	0.484097	-0.420964
O260	O	0.218595	0.984097	0.079036
C261	C	-0.326477	0.445757	-0.462561
C262	C	0.173523	0.945757	0.037439
H263	H	-0.386338	0.445474	-0.422763
H264	H	0.113662	0.945474	0.077237
H265	H	-0.294300	0.381658	-0.479599
H266	H	0.205700	0.881658	0.020401
H267	H	-0.335240	0.479135	-0.518956
H268	H	0.164760	0.979135	-0.018956
H269	H	-0.929381	1.029151	-0.483415
H270	H	-0.429381	1.529151	0.016585
