data_functionalizedCrystal
_audit_creation_method	'MofGen! by Chris Wilmer'
_symmetry_space_group_name_H-M	'P1'
_symmetry_Int_Tables_number	1
_symmetry_cell_setting	triclinic
loop_
_symmetry_equiv_pos_as_xyz
  x,y,z
_cell_length_a	13.897449
_cell_length_b	18.050590
_cell_length_c	18.050583
_cell_angle_alpha	89.966777
_cell_angle_beta	89.980272
_cell_angle_gamma	90.019379
loop_
_atom_site_label
_atom_site_type_symbol
_atom_site_fract_x
_atom_site_fract_y
_atom_site_fract_z
Zn1	Zn	1.474662	-0.295618	-0.419938
Zn2	Zn	1.807995	0.037716	-0.086605
Zn3	Zn	2.141329	0.371049	0.246728
Zn4	Zn	1.474564	-0.419822	-0.295747
Zn5	Zn	1.807897	-0.086489	0.037587
Zn6	Zn	2.141231	0.246844	0.370920
Zn7	Zn	1.313361	-0.295653	-0.295759
Zn8	Zn	1.646695	0.037681	0.037574
Zn9	Zn	1.980028	0.371014	0.370908
Zn10	Zn	1.313330	-0.419772	-0.419892
Zn11	Zn	1.646664	-0.086439	-0.086559
Zn12	Zn	1.979997	0.246894	0.246775
O13	O	1.393979	-0.357716	-0.357834
O14	O	1.727313	-0.024383	-0.024501
O15	O	2.060646	0.308950	0.308833
O16	O	1.609631	-0.312100	-0.403478
O17	O	1.942964	0.021233	-0.070145
O18	O	2.276297	0.354566	0.263189
O19	O	1.453152	-0.403387	-0.191824
O20	O	1.786485	-0.070053	0.141510
O21	O	2.119819	0.263280	0.474843
O22	O	1.334812	-0.191723	-0.312256
O23	O	1.668146	0.141610	0.021077
O24	O	2.001479	0.474943	0.354410
O25	O	1.609558	-0.403353	-0.312235
O26	O	1.942892	-0.070020	0.021098
O27	O	2.276225	0.263314	0.354432
O28	O	1.453319	-0.191698	-0.403490
O29	O	1.786652	0.141636	-0.070157
O30	O	2.119986	0.474969	0.263176
O31	O	1.334717	-0.312160	-0.191833
O32	O	1.668051	0.021174	0.141501
O33	O	2.001384	0.354507	0.474834
O34	O	1.178376	-0.312111	-0.312211
O35	O	1.511709	0.021222	0.021122
O36	O	1.845042	0.354556	0.354455
O37	O	1.334759	-0.403267	-0.523823
O38	O	1.668093	-0.069934	-0.190489
O39	O	2.001426	0.263399	0.142844
O40	O	1.178353	-0.403301	-0.403411
O41	O	1.511686	-0.069968	-0.070078
O42	O	1.845020	0.263366	0.263255
O43	O	1.453289	-0.312052	-0.523857
O44	O	1.786622	0.021282	-0.190523
O45	O	2.119956	0.354615	0.142810
O46	O	1.453122	-0.523740	-0.312190
O47	O	1.786455	-0.190407	0.021143
O48	O	2.119789	0.142926	0.354477
O49	O	1.334664	-0.523703	-0.403399
O50	O	1.667998	-0.190370	-0.070066
O51	O	2.001331	0.142963	0.263268
C52	C	1.143365	-0.357705	-0.357808
C53	C	1.476698	-0.024372	-0.024475
C54	C	1.810032	0.308962	0.308859
C55	C	1.036151	-0.357718	-0.357815
C56	C	1.369484	-0.024385	-0.024481
C57	C	1.702818	0.308949	0.308852
C58	C	0.949081	-0.357720	-0.357827
C59	C	1.282415	-0.024387	-0.024494
C60	C	1.615748	0.308946	0.308840
C61	C	0.839849	-0.357726	-0.357850
C62	C	1.173182	-0.024392	-0.024516
C63	C	1.506516	0.308941	0.308817
C64	C	1.393905	-0.550668	-0.357804
C65	C	1.727239	-0.217335	-0.024471
C66	C	2.060572	0.115998	0.308862
C67	C	1.393962	-0.633214	-0.357817
C68	C	1.727295	-0.299881	-0.024483
C69	C	2.060628	0.033452	0.308850
C70	C	1.458513	-0.832658	-0.308286
C71	C	1.791846	-0.499325	0.025047
C72	C	2.125180	-0.165991	0.358380
C73	C	1.482073	-0.881985	-0.376067
C74	C	1.815407	-0.548651	-0.042734
C75	C	2.148740	-0.215318	0.290600
C76	C	1.394017	-0.784345	-0.357846
C77	C	1.727350	-0.451011	-0.024513
C78	C	2.060683	-0.117678	0.308821
C79	C	1.370555	-0.882099	-0.290096
C80	C	1.703888	-0.548766	0.043237
C81	C	2.037221	-0.215433	0.376571
C82	C	1.394071	-0.930330	-0.357869
C83	C	1.727405	-0.596996	-0.024535
C84	C	2.060738	-0.263663	0.308798
C85	C	1.417622	-0.832584	-0.425662
C86	C	1.750955	-0.499251	-0.092329
C87	C	2.084289	-0.165917	0.241004
C88	C	1.306062	-0.832695	-0.339646
C89	C	1.639396	-0.499361	-0.006312
C90	C	1.972729	-0.166028	0.327021
C91	C	1.329589	-0.881999	-0.407473
C92	C	1.662922	-0.548666	-0.074140
C93	C	1.996256	-0.215332	0.259194
C94	C	1.393987	-0.700246	-0.357832
C95	C	1.727321	-0.366913	-0.024499
C96	C	2.060654	-0.033580	0.308835
C97	C	1.394100	-1.014426	-0.357890
C98	C	1.727433	-0.681093	-0.024557
C99	C	2.060767	-0.347759	0.308776
C100	C	1.645572	-0.357728	-0.357860
C101	C	1.978906	-0.024395	-0.024527
C102	C	2.312239	0.308938	0.308806
C103	C	1.752786	-0.357733	-0.357872
C104	C	2.086120	-0.024400	-0.024538
C105	C	2.419453	0.308933	0.308795
C106	C	1.394032	-0.357650	-0.551540
C107	C	1.727365	-0.024317	-0.218206
C108	C	2.060698	0.309017	0.115127
C109	C	1.394054	-0.357622	-0.634085
C110	C	1.727387	-0.024288	-0.300752
C111	C	2.060721	0.309045	0.032581
C112	C	1.394080	-0.164011	-0.357880
C113	C	1.727413	0.169323	-0.024547
C114	C	2.060747	0.502656	0.308787
C115	C	1.394123	-0.081465	-0.357900
C116	C	1.727456	0.251868	-0.024566
C117	C	2.060790	0.585202	0.308767
C118	C	1.458571	-0.307968	-0.882930
C119	C	1.791904	0.025365	-0.549596
C120	C	2.125237	0.358698	-0.216263
C121	C	1.482123	-0.375731	-0.833515
C122	C	1.815456	-0.042398	-0.500182
C123	C	2.148790	0.290935	-0.166849
C124	C	1.394116	-0.357574	-0.931206
C125	C	1.727450	-0.024241	-0.597873
C126	C	2.060783	0.309092	-0.264539
C127	C	1.370579	-0.289839	-0.833539
C128	C	1.703912	0.043495	-0.500205
C129	C	2.037245	0.376828	-0.166872
C130	C	1.394088	-0.357594	-0.785221
C131	C	1.727421	-0.024261	-0.451888
C132	C	2.060755	0.309073	-0.118554
C133	C	1.417714	-0.425373	-0.882879
C134	C	1.751048	-0.092040	-0.549545
C135	C	2.084381	0.241294	-0.216212
C136	C	1.306129	-0.339435	-0.882907
C137	C	1.639463	-0.006101	-0.549573
C138	C	1.972796	0.327232	-0.216240
C139	C	1.329648	-0.407244	-0.833514
C140	C	1.662981	-0.073911	-0.500181
C141	C	1.996315	0.259422	-0.166848
C142	C	1.394135	-0.357562	-1.015304
C143	C	1.727468	-0.024229	-0.681971
C144	C	2.060802	0.309105	-0.348638
C145	C	1.394069	-0.357614	-0.701124
C146	C	1.727403	-0.024281	-0.367791
C147	C	2.060736	0.309053	-0.034458
C148	C	1.393983	-0.357729	-0.164882
C149	C	1.727316	-0.024395	0.168451
C150	C	2.060649	0.308938	0.501785
C151	C	1.394147	-0.357548	-0.082336
C152	C	1.727481	-0.024215	0.250997
C153	C	2.060814	0.309119	0.584330
H154	H	1.513074	-0.810992	-0.266418
H155	H	1.846407	-0.477659	0.066915
H156	H	2.179741	-0.144326	0.400248
H157	H	1.437718	-0.482676	-0.904462
H158	H	1.771051	-0.149343	-0.571128
H159	H	2.104385	0.183990	-0.237795
C160	C	1.255934	-0.911083	-0.464170
C161	C	1.589267	-0.577750	-0.130836
C162	C	1.922600	-0.244416	0.202497
N163	N	1.200459	-0.932989	-0.506875
N164	N	1.533793	-0.599656	-0.173542
N165	N	1.867126	-0.266323	0.159791
C166	C	1.582588	-0.911242	-0.396881
C167	C	1.915922	-0.577909	-0.063548
C168	C	2.249255	-0.244575	0.269786
N169	N	1.658298	-0.933278	-0.412553
N170	N	1.991632	-0.599944	-0.079219
N171	N	2.324965	-0.266611	0.254114
C172	C	1.256018	-0.463997	-0.804359
C173	C	1.589351	-0.130664	-0.471026
C174	C	1.922685	0.202670	-0.137693
N175	N	1.200572	-0.506746	-0.782389
N176	N	1.533906	-0.173413	-0.449056
N177	N	1.867239	0.159920	-0.115723
C178	C	1.444585	-0.803329	-0.503100
C179	C	1.777919	-0.469995	-0.169767
C180	C	2.111252	-0.136662	0.163566
N181	N	1.464898	-0.781292	-0.561424
N182	N	1.798232	-0.447958	-0.228091
N183	N	2.131565	-0.114625	0.105242
H184	H	1.231754	-0.324058	-0.904619
H185	H	1.565088	0.009275	-0.571286
H186	H	1.898421	0.342609	-0.237953
C187	C	1.343711	-0.911477	-0.212679
C188	C	1.677044	-0.578144	0.120654
C189	C	2.010377	-0.244810	0.453987
N190	N	1.323498	-0.933601	-0.154367
N191	N	1.656831	-0.600268	0.178966
N192	N	1.990165	-0.266934	0.512299
H193	H	1.231679	-0.811026	-0.324217
H194	H	1.565013	-0.477692	0.009116
H195	H	1.898346	-0.144359	0.342450
C196	C	1.532278	-0.251357	-0.912245
C197	C	1.865611	0.081977	-0.578912
C198	C	2.198944	0.415310	-0.245579
N199	N	1.587796	-0.208720	-0.934327
N200	N	1.921129	0.124613	-0.600994
N201	N	2.254462	0.457946	-0.267661
C202	C	1.343695	-0.212440	-0.804261
C203	C	1.677029	0.120893	-0.470928
C204	C	2.010362	0.454226	-0.137595
N205	N	1.323453	-0.154142	-0.782213
N206	N	1.656786	0.179191	-0.448880
N207	N	1.990120	0.512525	-0.115546
C208	C	1.582627	-0.396473	-0.804198
C209	C	1.915960	-0.063140	-0.470864
C210	C	2.249294	0.270194	-0.137531
N211	N	1.658328	-0.412089	-0.782116
N212	N	1.991662	-0.078756	-0.448783
N213	N	2.324995	0.254577	-0.115449
