data_functionalizedCrystal
_audit_creation_method	'MofGen! by Chris Wilmer'
_symmetry_space_group_name_H-M	'P1'
_symmetry_Int_Tables_number	1
_symmetry_cell_setting	triclinic
loop_
_symmetry_equiv_pos_as_xyz
  x,y,z
_cell_length_a	11.792254
_cell_length_b	10.723024
_cell_length_c	9.198806
_cell_angle_alpha	90.002012
_cell_angle_beta	90.003896
_cell_angle_gamma	84.333234
loop_
_atom_site_label
_atom_site_type_symbol
_atom_site_fract_x
_atom_site_fract_y
_atom_site_fract_z
O1	O	-1.507274	-0.171111	-0.120887
O2	O	-1.176973	-0.188722	-0.120890
O3	O	-1.349743	0.001679	-0.120883
O4	O	-1.334505	-0.361513	-0.120894
O5	O	-1.349729	0.001680	0.120902
O6	O	-1.176960	-0.188722	0.120895
O7	O	-1.507260	-0.171111	0.120898
Cu8	Cu	-1.342109	-0.179916	0.142973
Cu9	Cu	-1.342125	-0.179917	-0.142966
O10	O	-1.334491	-0.361512	0.120891
C11	C	-1.348627	0.048176	0.000008
C12	C	-1.345309	0.186722	0.000002
C13	C	-1.134673	-0.187612	0.000002
C14	C	-1.008653	-0.184292	0.000001
C15	C	-1.549560	-0.172220	0.000002
C16	C	-1.675581	-0.175541	-0.000006
C17	C	-0.906311	-0.181594	-0.000005
C18	C	-0.777917	-0.178220	-0.000006
C19	C	-1.335607	-0.408009	-0.000003
C20	C	-1.338925	-0.546555	-0.000007
N21	N	-1.342106	-0.179915	0.344087
C22	C	-1.441982	0.261956	0.000001
C23	C	-1.438555	0.405150	-0.000004
N24	N	-1.342137	-0.179908	-0.344080
C25	C	-1.414646	-0.099619	0.416287
C26	C	-1.414664	-0.099615	0.583699
H27	H	-1.521314	0.469797	0.000001
H28	H	-1.476735	-0.030873	0.354163
C29	C	-1.227109	0.366129	-0.000006
C30	C	-1.200957	0.272707	-0.125555
C31	C	-1.089142	0.185380	-0.125554
C32	C	-1.003480	0.191475	-0.000003
C33	C	-1.029630	0.284900	0.125556
C34	C	-1.141445	0.372227	0.125554
H35	H	-1.264372	0.268193	-0.218504
H36	H	-1.069785	0.116221	-0.218502
H37	H	-0.920708	0.126830	-0.000002
H38	H	-0.966215	0.289414	0.218504
H39	H	-1.160802	0.441386	0.218502
H40	H	-1.527284	0.220355	0.000011
C41	C	-1.498570	-0.006739	0.667566
C42	C	-1.498504	-0.006907	0.834971
C43	C	-1.582412	0.085972	0.918841
C44	C	-1.666387	0.179018	0.835305
C45	C	-1.666455	0.179189	0.667890
C46	C	-1.582547	0.086310	0.584020
H47	H	-1.436338	-0.075789	0.896818
H48	H	-1.582361	0.085844	1.042773
H49	H	-1.728501	0.247772	0.897390
H50	H	-1.728621	0.248071	0.606043
H51	H	-1.582598	0.086438	0.460088
C52	C	-1.258228	-0.272787	0.572063
C53	C	-1.171574	-0.223594	0.466535
C54	C	-1.087666	-0.316472	0.382665
C55	C	-1.090411	-0.458544	0.404324
C56	C	-1.177069	-0.507745	0.509858
C57	C	-1.260977	-0.414866	0.593728
H58	H	-1.169539	-0.118417	0.450497
H59	H	-1.023516	-0.280050	0.304542
H60	H	-1.028297	-0.527299	0.342239
H61	H	-1.179104	-0.612922	0.525896
H62	H	-1.325127	-0.451289	0.671851
H63	H	-1.260007	0.228323	-0.000008
H64	H	-1.280009	-0.248652	0.406213
