data_functionalizedCrystal
_audit_creation_method	'MofGen! by Chris Wilmer'
_symmetry_space_group_name_H-M	'P1'
_symmetry_Int_Tables_number	1
_symmetry_cell_setting	triclinic
loop_
_symmetry_equiv_pos_as_xyz
  x,y,z
_cell_length_a	17.699083
_cell_length_b	9.016244
_cell_length_c	17.699083
_cell_angle_alpha	89.996867
_cell_angle_beta	96.716985
_cell_angle_gamma	90.001304
loop_
_atom_site_label
_atom_site_type_symbol
_atom_site_fract_x
_atom_site_fract_y
_atom_site_fract_z
O1	O	1.004079	0.123135	-0.095708
O2	O	0.783701	0.123184	-0.108161
O3	O	0.900116	0.123145	0.008255
O4	O	0.887664	0.123174	-0.212123
O5	O	0.900099	-0.123535	0.008252
O6	O	0.783684	-0.123496	-0.108163
O7	O	1.004062	-0.123545	-0.095711
Cu8	Cu	0.893872	-0.146045	-0.101937
Cu9	Cu	0.893892	0.145684	-0.101934
O10	O	0.887647	-0.123506	-0.212126
C11	C	0.755495	-0.000150	-0.107716
C12	C	0.671477	-0.000132	-0.106377
N13	N	0.893863	-0.351231	-0.101939
C14	C	0.622856	-0.000123	-0.174710
C15	C	0.543913	-0.000143	-0.173448
C16	C	0.513592	-0.000160	-0.103852
C17	C	0.562219	-0.000173	-0.035513
C18	C	0.641161	-0.000164	-0.036776
C19	C	0.243856	-0.000210	-0.030418
C20	C	0.164908	-0.000214	-0.029160
C21	C	0.146608	-0.000189	-0.167090
C22	C	0.225550	-0.000180	-0.168353
C23	C	0.274170	-0.000201	-0.100015
C24	C	0.359769	-0.000182	-0.101384
C25	C	0.427995	-0.000167	-0.102481
C26	C	0.831402	-0.586243	-0.164009
C27	C	0.831536	-0.414352	-0.164237
C28	C	0.972805	-0.413584	-0.119044
C29	C	0.972463	-0.585529	-0.119482
C30	C	0.878170	-0.585781	-0.022555
C31	C	0.876349	-0.413826	-0.023090
C32	C	1.032268	-0.000208	-0.096156
C33	C	1.116286	-0.000216	-0.097494
C34	C	0.899662	-0.000195	0.036451
C35	C	0.898323	-0.000195	0.120469
N36	N	0.893906	0.350870	-0.101926
C37	C	0.888102	-0.000163	-0.240322
C38	C	0.889440	-0.000153	-0.324340
C39	C	0.966656	-0.000213	0.169090
C40	C	0.965394	-0.000199	0.248033
C41	C	0.895798	-0.000179	0.278354
C42	C	0.827459	-0.000158	0.229727
C43	C	0.828722	-0.000160	0.150785
C44	C	0.822364	-0.000144	0.548090
C45	C	0.821106	-0.000146	0.627038
C46	C	0.959036	-0.000183	0.645338
C47	C	0.960299	-0.000186	0.566396
C48	C	0.891961	-0.000157	0.517776
C49	C	0.893330	-0.000168	0.432177
C50	C	0.894427	-0.000178	0.363951
H51	H	0.647537	-0.000108	-0.231384
H52	H	0.250232	-0.000159	-0.225025
H53	H	0.772852	-0.372196	-0.154068
F54	F	0.492170	-0.000127	-0.246178
F55	F	0.094857	-0.000172	-0.239822
H56	H	0.923753	-0.626448	0.023644
H57	H	0.772532	-0.627625	-0.154007
H58	H	1.020419	-0.627127	-0.076039
F59	F	0.755992	-0.000137	0.099039
H60	H	0.764429	-0.000133	0.651721
F61	F	1.035040	-0.360147	-0.061507
H62	H	0.140225	-0.000230	0.027517
F63	F	1.038124	-0.000220	0.299776
F64	F	0.295592	-0.000232	0.042314
H65	H	0.537526	-0.000208	0.021154
F66	F	1.034373	-0.000206	0.534131
F67	F	0.753389	-0.000119	0.261998
F68	F	0.692907	-0.000178	0.035954
H69	H	0.841296	-0.629431	-0.222581
H70	H	0.841565	-0.373200	-0.223142
H71	H	0.986352	-0.625614	-0.177363
H72	H	0.987025	-0.370503	-0.176265
F73	F	0.804566	-0.642513	-0.001020
F74	F	0.749632	-0.000109	0.496354
H75	H	0.818279	-0.373073	-0.010106
F76	F	0.932002	-0.357689	0.040110
F77	F	1.040732	-0.000248	0.136828
F78	F	1.031768	-0.000210	0.697089
