data_functionalizedCrystal
_audit_creation_method	'MofGen! by Chris Wilmer'
_symmetry_space_group_name_H-M	'P1'
_symmetry_Int_Tables_number	1
_symmetry_cell_setting	triclinic
loop_
_symmetry_equiv_pos_as_xyz
  x,y,z
_cell_length_a	14.519731
_cell_length_b	14.519709
_cell_length_c	9.730223
_cell_angle_alpha	89.997715
_cell_angle_beta	89.999699
_cell_angle_gamma	83.684499
loop_
_atom_site_label
_atom_site_type_symbol
_atom_site_fract_x
_atom_site_fract_y
_atom_site_fract_z
O1	O	1.223850	0.120981	-0.114296
O2	O	1.557183	0.454314	0.219037
O3	O	1.890517	0.787647	0.552371
O4	O	0.955376	0.135197	-0.114298
O5	O	1.288709	0.468530	0.219035
O6	O	1.622043	0.801863	0.552368
O7	O	1.096731	-0.006149	-0.114285
O8	O	1.430065	0.327184	0.219049
O9	O	1.763398	0.660518	0.552382
O10	O	1.082495	0.262327	-0.114310
O11	O	1.415828	0.595660	0.219024
O12	O	1.749161	0.928993	0.552357
O13	O	1.096730	-0.006146	0.114295
O14	O	1.430063	0.327188	0.447629
O15	O	1.763396	0.660521	0.780962
O16	O	0.955374	0.135200	0.114282
O17	O	1.288708	0.468534	0.447615
O18	O	1.622041	0.801867	0.780948
O19	O	1.223848	0.120984	0.114284
O20	O	1.557182	0.454318	0.447617
O21	O	1.890515	0.787651	0.780951
Zn22	Zn	1.089611	0.128093	0.150575
Zn23	Zn	1.422944	0.461426	0.483908
Zn24	Zn	1.756278	0.794760	0.817242
Zn25	Zn	1.089613	0.128088	-0.150589
Zn26	Zn	1.422947	0.461422	0.182744
Zn27	Zn	1.756280	0.794755	0.516078
O28	O	1.082493	0.262330	0.114270
O29	O	1.415826	0.595664	0.447604
O30	O	1.749160	0.928997	0.780937
C31	C	0.921016	0.134532	-0.000009
C32	C	1.254349	0.467866	0.333325
C33	C	1.587682	0.801199	0.666658
C34	C	0.818635	0.132536	-0.000009
C35	C	1.151969	0.465870	0.333324
C36	C	1.485302	0.799203	0.666658
C37	C	1.096067	-0.040507	0.000006
C38	C	1.429400	0.292826	0.333339
C39	C	1.762734	0.626160	0.666672
C40	C	1.094079	-0.142889	0.000006
C41	C	1.427412	0.190445	0.333340
C42	C	1.760745	0.523778	0.666673
C43	C	0.735491	0.130915	-0.000015
C44	C	1.068825	0.464248	0.333319
C45	C	1.402158	0.797581	0.666652
C46	C	0.631182	0.128888	-0.000015
C47	C	0.964516	0.462221	0.333319
C48	C	1.297849	0.795555	0.666652
C49	C	0.548043	0.127280	-0.000015
C50	C	0.881377	0.460613	0.333319
C51	C	1.214710	0.793946	0.666652
C52	C	0.443728	0.125253	-0.000017
C53	C	0.777061	0.458586	0.333316
C54	C	1.110395	0.791920	0.666649
C55	C	1.086759	-0.517785	-0.000029
C56	C	1.420093	-0.184452	0.333304
C57	C	1.753426	0.148882	0.666637
C58	C	1.088792	-0.413477	-0.000019
C59	C	1.422125	-0.080143	0.333314
C60	C	1.755459	0.253190	0.666648
C61	C	1.090419	-0.330340	-0.000010
C62	C	1.423752	0.002993	0.333323
C63	C	1.757085	0.336327	0.666656
C64	C	1.092452	-0.226025	-0.000002
C65	C	1.425785	0.107308	0.333331
C66	C	1.759118	0.440641	0.666664
C67	C	1.258209	0.121649	-0.000009
C68	C	1.591542	0.454982	0.333325
C69	C	1.924875	0.788315	0.666658
C70	C	1.360589	0.123645	-0.000017
C71	C	1.693922	0.456978	0.333316
C72	C	2.027256	0.790311	0.666649
C73	C	1.083157	0.296688	-0.000023
C74	C	1.416491	0.630022	0.333311
C75	C	1.749824	0.963355	0.666644
C76	C	1.085146	0.399070	-0.000033
C77	C	1.418479	0.732403	0.333301
C78	C	1.751812	1.065736	0.666634
N79	N	1.089616	0.128096	0.356111
N80	N	1.422950	0.461429	0.689445
N81	N	1.756283	0.794762	1.022778
N82	N	1.089615	0.128078	-0.356125
N83	N	1.422949	0.461412	-0.022792
N84	N	1.756282	0.794745	0.310541
C85	C	1.152224	0.065529	0.428043
C86	C	1.485558	0.398862	0.761377
C87	C	1.818891	0.732195	1.094710
C88	C	1.152222	0.065518	0.571926
C89	C	1.485555	0.398851	0.905260
C90	C	1.818889	0.732184	1.238593
C91	C	1.027000	0.190648	0.571932
C92	C	1.360334	0.523981	0.905266
C93	C	1.693667	0.857315	1.238599
C94	C	1.026999	0.190654	0.428052
C95	C	1.360332	0.523988	0.761385
C96	C	1.693666	0.857321	1.094719
C97	C	1.224523	-0.006712	0.428041
C98	C	1.557856	0.326621	0.761374
C99	C	1.891190	0.659955	1.094708
C100	C	1.224521	-0.006723	0.571924
C101	C	1.557854	0.326610	0.905257
C102	C	1.891187	0.659944	1.238591
H103	H	0.976019	0.241581	0.630522
H104	H	1.309352	0.574914	0.963855
H105	H	1.642685	0.908248	1.297189
H106	H	1.209277	-0.077491	0.388993
H107	H	1.542610	0.255843	0.722327
H108	H	1.875944	0.589176	1.055660
H109	H	1.291325	0.015283	0.383413
H110	H	1.624658	0.348616	0.716746
H111	H	1.957991	0.681950	1.050080
H112	H	1.202586	-0.073556	0.616545
H113	H	1.535920	0.259777	0.949879
H114	H	1.869253	0.593111	1.283212
H115	H	1.295282	0.008584	0.610974
H116	H	1.628615	0.341917	0.944307
H117	H	1.961948	0.675251	1.277640
H118	H	0.976011	0.241593	0.369486
H119	H	1.309344	0.574926	0.702819
H120	H	1.642678	0.908260	1.036153
