data_functionalizedCrystal
_audit_creation_method	'MofGen! by Chris Wilmer'
_symmetry_space_group_name_H-M	'P1'
_symmetry_Int_Tables_number	1
_symmetry_cell_setting	triclinic
loop_
_symmetry_equiv_pos_as_xyz
  x,y,z
_cell_length_a	19.121274
_cell_length_b	12.759399
_cell_length_c	12.759393
_cell_angle_alpha	90.027929
_cell_angle_beta	87.582884
_cell_angle_gamma	87.573446
loop_
_atom_site_label
_atom_site_type_symbol
_atom_site_fract_x
_atom_site_fract_y
_atom_site_fract_z
Zn1	Zn	-1.073757	0.486765	-0.525594
Zn2	Zn	-0.573757	0.986765	-0.025594
Zn3	Zn	-1.073687	0.662480	-0.349929
Zn4	Zn	-0.573687	1.162480	0.150071
Zn5	Zn	-0.956306	0.479321	-0.357416
Zn6	Zn	-0.456306	0.979321	0.142584
Zn7	Zn	-0.956299	0.654903	-0.533050
Zn8	Zn	-0.456299	1.154903	-0.033050
O9	O	-1.015012	0.570867	-0.441497
O10	O	-0.515012	1.070867	0.058503
O11	O	-1.172029	0.516361	-0.496037
O12	O	-0.672029	1.016361	0.003963
O13	O	-1.058090	0.638239	-0.203903
O14	O	-0.558090	1.138239	0.296097
O15	O	-0.971918	0.333289	-0.379738
O16	O	-0.471918	0.833289	0.120262
O17	O	-1.171978	0.645458	-0.366978
O18	O	-0.671978	1.145458	0.133022
O19	O	-1.058209	0.338759	-0.503297
O20	O	-0.558209	0.838759	-0.003297
O21	O	-0.971851	0.503672	-0.209404
O22	O	-0.471851	1.003672	0.290596
O23	O	-0.858024	0.496325	-0.386969
O24	O	-0.358024	0.996325	0.113031
O25	O	-0.971907	0.632544	-0.679081
O26	O	-0.471907	1.132544	-0.179081
O27	O	-0.858019	0.625325	-0.516006
O28	O	-0.358019	1.125325	-0.016006
O29	O	-1.058202	0.509014	-0.673602
O30	O	-0.558202	1.009014	-0.173602
O31	O	-1.058084	0.808494	-0.374208
O32	O	-0.558084	1.308494	0.125792
O33	O	-0.971839	0.802927	-0.508746
O34	O	-0.471839	1.302927	-0.008746
C35	C	-0.832538	0.559196	-0.453110
C36	C	-0.332538	1.059196	0.046890
C37	C	-0.754475	0.554228	-0.458102
C38	C	-0.254475	1.054228	0.041898
C39	C	-0.717771	0.618999	-0.393153
C40	C	-0.217771	1.118999	0.106847
C41	C	-0.644422	0.614331	-0.397858
C42	C	-0.144422	1.114331	0.102142
C43	C	-0.607779	0.544887	-0.467508
C44	C	-0.107779	1.044887	0.032492
C45	C	-0.644488	0.480114	-0.532464
C46	C	-0.144488	0.980114	-0.032464
C47	C	-0.717835	0.484787	-0.527763
C48	C	-0.217835	0.984787	-0.027763
C49	C	-0.386319	0.527424	-0.485071
C50	C	0.113681	1.027424	0.014929
C51	C	-0.312966	0.522753	-0.489765
C52	C	0.187034	1.022753	0.010235
C53	C	-0.312906	0.656972	-0.355160
C54	C	0.187094	1.156972	0.144840
C55	C	-0.386255	0.661635	-0.350462
C56	C	0.113745	1.161635	0.149538
C57	C	-0.422957	0.596866	-0.415421
C58	C	0.077043	1.096866	0.084579
C59	C	-0.532805	0.540112	-0.472316
C60	C	-0.032805	1.040112	0.027684
C61	C	-0.497930	0.601647	-0.410617
C62	C	0.002070	1.101647	0.089383
C63	C	-1.014972	0.843832	-0.441496
C64	C	-0.514972	1.343832	0.058504
C65	C	-1.015019	0.960612	-0.441526
C66	C	-0.515019	1.460612	0.058474
C67	C	-0.198199	0.582571	-0.429826
C68	C	0.301801	1.082571	0.070174
C69	C	-0.276262	0.587523	-0.424816
C70	C	0.223738	1.087523	0.075184
C71	C	-1.059979	1.018341	-0.371549
C72	C	-0.559979	1.518341	0.128451
C73	C	-1.060025	1.128068	-0.371589
C74	C	-0.560025	1.628068	0.128411
C75	C	-0.970146	1.122326	-0.511587
C76	C	-0.470146	1.622326	-0.011587
C77	C	-0.970104	1.012602	-0.511551
C78	C	-0.470104	1.512602	-0.011551
C79	C	-1.142924	1.283240	-0.328927
C80	C	-0.642924	1.783240	0.171073
C81	C	-1.187878	1.340973	-0.258934
C82	C	-0.687878	1.840973	0.241066
C83	C	-1.198683	1.306124	-0.155733
C84	C	-0.698683	1.806124	0.344267
C85	C	-1.164525	1.213545	-0.122504
C86	C	-0.664525	1.713545	0.377496
C87	C	-1.119567	1.155818	-0.192492
C88	C	-0.619567	1.655818	0.307508
C89	C	-1.108775	1.190666	-0.295707
C90	C	-0.608775	1.690666	0.204293
C91	C	-0.887203	0.857427	-0.554202
C92	C	-0.387203	1.357427	-0.054202
C93	C	-0.842241	0.799698	-0.624185
C94	C	-0.342241	1.299698	-0.124185
C95	C	-0.831428	0.834543	-0.727389
C96	C	-0.331428	1.334543	-0.227389
C97	C	-0.865574	0.927125	-0.760615
C98	C	-0.365574	1.427125	-0.260615
C99	C	-0.910536	0.984855	-0.690631
C100	C	-0.410536	1.484855	-0.190631
C101	C	-0.921350	0.950002	-0.587428
C102	C	-0.421350	1.450002	-0.087428
C103	C	-1.015061	0.570764	-0.715528
C104	C	-0.515061	1.070764	-0.215528
C105	C	-1.015082	0.570720	-0.832303
C106	C	-0.515082	1.070720	-0.332303
C107	C	-1.015075	1.296838	-0.441539
C108	C	-0.515075	1.796838	0.058461
C109	C	-1.015108	1.180063	-0.441602
C110	C	-0.515108	1.680063	0.058398
C111	C	-0.970193	0.500640	-0.890028
C112	C	-0.470193	1.000640	-0.390028
C113	C	-0.970210	0.500609	-0.999751
C114	C	-0.470210	1.000609	-0.499751
C115	C	-1.060010	0.640741	-0.994015
C116	C	-0.560010	1.140741	-0.494015
C117	C	-1.059990	0.640776	-0.884294
C118	C	-0.559990	1.140776	-0.384294
C119	C	-0.887418	0.457722	-1.154977
C120	C	-0.387418	0.957722	-0.654977
C121	C	-0.842535	0.387626	-1.212705
C122	C	-0.342535	0.887626	-0.712705
C123	C	-0.831769	0.284435	-1.177795
C124	C	-0.331769	0.784435	-0.677795
C125	C	-0.865896	0.251319	-1.085158
C126	C	-0.365896	0.751319	-0.585158
C127	C	-0.910784	0.321410	-1.027435
C128	C	-0.410784	0.821410	-0.527435
C129	C	-0.921537	0.424615	-1.062344
C130	C	-0.421537	0.924615	-0.562344
C131	C	-1.142783	0.683652	-0.729066
C132	C	-0.642783	1.183652	-0.229066
C133	C	-1.187675	0.753739	-0.671341
C134	C	-0.687675	1.253739	-0.171341
C135	C	-1.198448	0.856932	-0.706249
C136	C	-0.698448	1.356932	-0.206249
C137	C	-1.164333	0.890045	-0.798888
C138	C	-0.664333	1.390045	-0.298888
C139	C	-1.119441	0.819958	-0.856613
C140	C	-0.619441	1.319958	-0.356613
C141	C	-1.108667	0.716766	-0.821698
C142	C	-0.608667	1.216766	-0.321698
C143	C	-1.015004	0.570897	-0.168531
C144	C	-0.515004	1.070897	0.331469
C145	C	-1.015119	0.570653	-0.051747
C146	C	-0.515119	1.070653	0.448253
H147	H	-0.614541	0.667074	-0.344970
H148	H	-0.114541	1.167074	0.155030
F149	F	-0.805880	0.701182	-0.588809
F150	F	-0.305880	1.201182	-0.088809
H151	H	-1.091665	0.846927	-0.932047
H152	H	-0.591665	1.346927	-0.432047
F153	F	-0.922346	1.177667	-0.586106
F154	F	-0.422346	1.677667	-0.086106
H155	H	-0.502961	0.483569	-0.529023
H156	H	-0.002961	0.983569	-0.029023
F157	F	-0.784002	0.209835	-1.239238
F158	F	-0.284002	0.709835	-0.739238
F159	F	-1.131437	1.320327	-0.438772
F160	F	-0.631437	1.820327	0.061228
H161	H	-0.747601	0.675544	-0.336433
H162	H	-0.247601	1.175544	0.163567
F163	F	-0.273969	0.448833	-0.563894
F164	F	0.226031	0.948833	-0.063894
F165	F	-0.425371	0.458490	-0.554209
F166	F	0.074629	0.958490	-0.054209
H167	H	-0.416085	0.718183	-0.293744
H168	H	0.083915	1.218183	0.206256
H169	H	-1.133995	0.599633	-0.700615
H170	H	-0.633995	1.099633	-0.200615
H171	H	-0.938342	1.060237	-0.717694
H172	H	-0.438342	1.560237	-0.217694
F173	F	-0.854067	0.964215	-0.870457
F174	F	-0.354067	1.464215	-0.370457
H175	H	-0.283015	0.709705	-0.302275
H176	H	0.216985	1.209705	0.197725
F177	F	-0.605487	0.406213	-0.606597
F178	F	-0.105487	0.906213	-0.106597
F179	F	-0.756898	0.415852	-0.596893
F180	F	-0.256898	0.915852	-0.096893
F181	F	-1.107782	0.963012	-0.297024
F182	F	-0.607782	1.463012	0.202976
F183	F	-0.783540	0.773132	-0.801851
F184	F	-0.283540	1.273132	-0.301851
H185	H	-0.527768	0.658193	-0.353914
H186	H	-0.027768	1.158193	0.146086
H187	H	-1.091757	1.080441	-0.165438
H188	H	-0.591757	1.580441	0.334562
H189	H	-0.896009	0.829041	-0.470167
H190	H	-0.396009	1.329041	0.029833
F191	F	-0.806216	0.422874	-1.311292
F192	F	-0.306216	0.922874	-0.811292
H193	H	-1.235010	0.913993	-0.659244
H194	H	-0.735010	1.413993	-0.159244
F195	F	-0.922397	0.426083	-0.834699
F196	F	-0.422397	0.926083	-0.334699
F197	F	-0.947104	0.286172	-0.928851
F198	F	-0.447104	0.786172	-0.428851
H199	H	-0.857133	0.167286	-1.056748
H200	H	-0.357133	0.667286	-0.556748
F201	F	-0.898861	0.567557	-1.192128
F202	F	-0.398861	1.067557	-0.692128
H203	H	-1.173321	1.185185	-0.038463
H204	H	-0.673321	1.685185	0.461537
H205	H	-1.096572	0.697777	-1.036359
H206	H	-0.596572	1.197777	-0.536359
F207	F	-1.175802	0.999874	-0.836047
F208	F	-0.675802	1.499874	-0.336047
F209	F	-1.224230	1.439499	-0.294302
F210	F	-0.724230	1.939499	0.205698
F211	F	-1.223986	0.718492	-0.572748
F212	F	-0.723986	1.218492	-0.072748
H213	H	-1.235286	1.353138	-0.098744
H214	H	-0.735286	1.853138	0.401256
