data_functionalizedCrystal
_audit_creation_method	'MofGen! by Chris Wilmer'
_symmetry_space_group_name_H-M	'P1'
_symmetry_Int_Tables_number	1
_symmetry_cell_setting	triclinic
loop_
_symmetry_equiv_pos_as_xyz
  x,y,z
_cell_length_a	18.050591
_cell_length_b	10.686285
_cell_length_c	10.685314
_cell_angle_alpha	89.696502
_cell_angle_beta	94.343341
_cell_angle_gamma	94.372862
loop_
_atom_site_label
_atom_site_type_symbol
_atom_site_fract_x
_atom_site_fract_y
_atom_site_fract_z
Zn1	Zn	1.130170	0.553844	-0.671289
Zn2	Zn	1.149048	0.747588	-0.445466
Zn3	Zn	1.014716	0.537823	-0.461512
Zn4	Zn	1.016178	0.763541	-0.655157
O5	O	1.077528	0.650699	-0.558356
O6	O	1.236598	0.579573	-0.641369
O7	O	1.138517	0.706380	-0.272046
O8	O	1.021518	0.364402	-0.502806
O9	O	1.250468	0.721916	-0.475458
O10	O	1.106342	0.376173	-0.656928
O11	O	1.039823	0.552267	-0.283835
O12	O	0.910985	0.567736	-0.487164
O13	O	1.024011	0.749105	-0.832846
O14	O	0.912060	0.733570	-0.629434
O15	O	1.107760	0.595042	-0.844698
O16	O	1.139935	0.925250	-0.459816
O17	O	1.042316	0.936971	-0.613875
C18	C	0.884576	0.650647	-0.558290
C19	C	0.802031	0.650657	-0.558290
C20	C	1.093352	0.976629	-0.533381
C21	C	1.100188	1.116067	-0.522739
C22	C	1.063943	0.675641	-0.885562
C23	C	1.058154	0.686269	-1.024998
C24	C	0.601962	0.560394	-0.481124
C25	C	0.559412	0.672455	-0.441501
C26	C	0.650900	0.650699	-0.558343
C27	C	0.546370	0.538678	-0.597960
C28	C	0.504914	0.650730	-0.558394
C29	C	0.609443	0.762816	-0.518656
C30	C	0.596400	0.628966	-0.675175
C31	C	0.553874	0.741109	-0.635589
C32	C	0.734999	0.650680	-0.558311
C33	C	0.420818	0.650763	-0.558425
C34	C	1.271233	0.650752	-0.558423
C35	C	1.353778	0.650775	-0.558451
C36	C	1.061661	0.323498	-0.583456
C37	C	1.054900	0.184064	-0.594152
C38	C	1.091098	0.625764	-0.232430
C39	C	1.097014	0.614782	-0.093022
H40	H	0.542961	0.690860	-0.342719
H41	H	0.636835	0.857584	-0.485061
C42	C	1.007228	0.779949	-1.090418
C43	C	1.040491	0.885238	-1.172979
C44	C	0.989565	0.978920	-1.238408
C45	C	0.905376	0.967312	-1.221278
C46	C	0.872109	0.862018	-1.138714
C47	C	0.923035	0.768337	-1.073284
H48	H	1.102816	0.893835	-1.185663
H49	H	1.014191	1.056865	-1.299528
H50	H	0.867677	1.036660	-1.269713
H51	H	0.809784	0.853421	-1.126029
H52	H	0.898409	0.690392	-1.012165
H53	H	0.623104	0.484097	-0.415739
H54	H	1.134707	0.545431	-1.044583
H55	H	1.010898	1.135607	-0.663437
H56	H	0.532879	0.817572	-0.700907
H57	H	1.144187	1.164531	-0.453442
H58	H	0.518857	0.443940	-0.631402
C59	C	0.618655	0.604057	-0.808585
C60	C	0.590601	0.480594	-0.876164
C61	C	0.612857	0.455668	-1.009575
C62	C	0.663167	0.554204	-1.075408
C63	C	0.691223	0.677675	-1.007829
C64	C	0.668967	0.702601	-0.874417
H65	H	0.553356	0.407644	-0.827431
H66	H	0.592087	0.364266	-1.059601
H67	H	0.679642	0.535753	-1.174167
H68	H	0.728468	0.750625	-1.056562
H69	H	0.689737	0.794003	-0.824391
