data_functionalizedCrystal
_audit_creation_method	'MofGen! by Chris Wilmer'
_symmetry_space_group_name_H-M	'P1'
_symmetry_Int_Tables_number	1
_symmetry_cell_setting	triclinic
loop_
_symmetry_equiv_pos_as_xyz
  x,y,z
_cell_length_a	27.731993
_cell_length_b	27.732048
_cell_length_c	26.210047
_cell_angle_alpha	89.999521
_cell_angle_beta	90.002578
_cell_angle_gamma	82.631525
loop_
_atom_site_label
_atom_site_type_symbol
_atom_site_fract_x
_atom_site_fract_y
_atom_site_fract_z
O1	O	0.640948	0.057384	-0.042297
O2	O	1.140948	0.557384	0.457703
O3	O	0.500151	0.066158	-0.042329
O4	O	1.000151	0.566158	0.457671
O5	O	0.574923	-0.008627	-0.042302
O6	O	1.074923	0.491373	0.457698
O7	O	0.566177	0.132169	-0.042324
O8	O	1.066177	0.632169	0.457676
O9	O	0.574908	-0.008615	0.042556
O10	O	1.074908	0.491385	0.542556
O11	O	0.500137	0.066169	0.042529
O12	O	1.000137	0.566169	0.542529
O13	O	0.640934	0.057396	0.042561
O14	O	1.140934	0.557396	0.542561
Cu15	Cu	0.570534	0.061784	0.050293
Cu16	Cu	1.070534	0.561784	0.550293
Cu17	Cu	0.570551	0.061770	-0.050061
Cu18	Cu	1.070551	0.561770	0.449939
O19	O	0.566163	0.132180	0.042534
O20	O	1.066163	0.632180	0.542534
C21	C	0.482137	0.065983	0.000096
C22	C	0.982137	0.565983	0.500096
C23	C	0.428480	0.065441	0.000084
C24	C	0.928480	0.565441	0.500084
C25	C	0.045328	0.061504	-0.046147
C26	C	0.545328	0.561504	0.453853
C27	C	0.246985	0.063571	-0.046161
C28	C	0.746985	0.563571	0.453839
O29	O	0.273065	0.063813	-0.085501
O30	O	0.773065	0.563813	0.414499
N31	N	0.272198	0.063836	0.000094
N32	N	0.772198	0.563836	0.500094
C33	C	0.246993	0.063581	0.046356
C34	C	0.746993	0.563581	0.546356
O35	O	0.273066	0.063849	0.085699
O36	O	0.773066	0.563849	0.585699
C37	C	0.045337	0.061511	0.046370
C38	C	0.545337	0.561511	0.546370
C39	C	0.020127	0.061251	0.000112
C40	C	0.520127	0.561251	0.500112
C41	C	0.020118	0.061243	-0.092401
C42	C	0.520118	0.561243	0.407599
C43	C	-0.030294	0.060729	-0.092397
C44	C	0.469706	0.560729	0.407603
C45	C	-0.055495	0.060476	-0.046139
C46	C	0.444505	0.560476	0.453861
C47	C	-0.030285	0.060736	0.000116
C48	C	0.469715	0.560736	0.500116
C49	C	0.020134	0.061252	0.092631
C50	C	0.520134	0.561252	0.592631
C51	C	-0.030283	0.060733	0.092630
C52	C	0.469717	0.560733	0.592630
C53	C	-0.055493	0.060473	0.046372
C54	C	0.444507	0.560473	0.546372
C55	C	-0.105898	0.059969	0.046378
C56	C	0.394102	0.559969	0.546378
N57	N	-0.131110	0.059704	0.000123
N58	N	0.368890	0.559704	0.500123
C59	C	-0.105909	0.059957	-0.046135
C60	C	0.394091	0.559957	0.453865
C61	C	0.352865	0.064669	0.046346
C62	C	0.852865	0.564669	0.546346
C63	C	0.403279	0.065188	0.046343
C64	C	0.903279	0.565188	0.546343
C65	C	0.403268	0.065177	-0.046175
C66	C	0.903268	0.565177	0.453825
C67	C	0.352853	0.064662	-0.046171
C68	C	0.852853	0.564662	0.453829
C69	C	0.327653	0.064404	0.000091
C70	C	0.827653	0.564404	0.500091
C71	C	-0.211777	0.058878	-0.046123
C72	C	0.288223	0.558878	0.453877
C73	C	-0.262194	0.058366	-0.046115
C74	C	0.237806	0.558366	0.453885
C75	C	-0.262178	0.058375	0.046402
C76	C	0.237822	0.558375	0.546402
C77	C	-0.211766	0.058889	0.046394
C78	C	0.288234	0.558889	0.546394
C79	C	-0.186567	0.059139	0.000127
C80	C	0.313433	0.559139	0.500127
O81	O	-0.132008	0.059721	0.085698
O82	O	0.367992	0.559721	0.585698
O83	O	-0.131989	0.059679	-0.085472
O84	O	0.368011	0.559679	0.414528
C85	C	0.095740	0.062018	-0.046151
C86	C	0.595740	0.562018	0.453849
C87	C	0.120950	0.062279	0.000104
C88	C	0.620950	0.562279	0.500104
C89	C	0.095749	0.062025	0.046362
C90	C	0.595749	0.562025	0.546362
C91	C	0.171364	0.062797	0.000101
C92	C	0.671364	0.562797	0.500101
C93	C	0.196565	0.063051	-0.046158
C94	C	0.696565	0.563051	0.453842
C95	C	0.171353	0.062786	-0.092413
C96	C	0.671353	0.562786	0.407587
C97	C	0.120941	0.062272	-0.092409
C98	C	0.620941	0.562272	0.407591
C99	C	0.120961	0.062290	0.092617
C100	C	0.620961	0.562290	0.592617
C101	C	0.171373	0.062805	0.092609
C102	C	0.671373	0.562805	0.592609
C103	C	0.196574	0.063058	0.046351
C104	C	0.696574	0.563058	0.546351
C105	C	0.574732	-0.026628	0.000128
C106	C	1.074732	0.473372	0.500128
C107	C	0.574179	-0.080282	0.000132
C108	C	1.074179	0.419718	0.500132
C109	C	0.614884	-0.419105	0.000115
C110	C	1.114884	0.080895	0.500115
C111	C	0.612833	-0.620765	0.000108
C112	C	1.112833	-0.120765	0.500108
O113	O	0.650055	-0.652028	0.000094
O114	O	1.150055	-0.152028	0.500094
N115	N	0.568497	-0.639880	0.000098
N116	N	1.068497	-0.139880	0.500098
C117	C	0.524670	-0.608576	0.000087
C118	C	1.024670	-0.108576	0.500087
O119	O	0.486912	-0.629462	0.000073
O120	O	0.986912	-0.129462	0.500073
C121	C	0.526721	-0.406918	0.000091
C122	C	1.026721	0.093082	0.500091
C123	C	0.571061	-0.387806	0.000106
C124	C	1.071061	0.112194	0.500106
C125	C	0.659220	-0.399993	0.000129
C126	C	1.159220	0.100007	0.500129
C127	C	0.659732	-0.349581	0.000134
C128	C	1.159732	0.150419	0.500134
C129	C	0.615909	-0.318282	0.000124
C130	C	1.115909	0.181718	0.500124
C131	C	0.571573	-0.337394	0.000110
C132	C	1.071573	0.162606	0.500110
C133	C	0.482895	-0.375616	0.000076
C134	C	0.982895	0.124384	0.500076
C135	C	0.483412	-0.325199	0.000076
C136	C	0.983412	0.174801	0.500076
C137	C	0.527751	-0.306087	0.000091
C138	C	1.027751	0.193913	0.500091
C139	C	0.528262	-0.255683	0.000105
C140	C	1.028262	0.244317	0.500105
N141	N	0.572598	-0.236568	0.000115
N142	N	1.072598	0.263432	0.500115
C143	C	0.616422	-0.267867	0.000124
C144	C	1.116422	0.232133	0.500124
C145	C	0.523596	-0.714450	0.000086
C146	C	1.023596	-0.214450	0.500086
C147	C	0.523083	-0.764865	0.000086
C148	C	1.023083	-0.264865	0.500086
C149	C	0.611246	-0.777049	0.000105
C150	C	1.111246	-0.277049	0.500105
C151	C	0.611759	-0.726634	0.000109
C152	C	1.111759	-0.226634	0.500109
C153	C	0.567932	-0.695335	0.000095
C154	C	1.067932	-0.195335	0.500095
C155	C	0.617494	-0.161998	0.000135
C156	C	1.117494	0.338002	0.500135
C157	C	0.618003	-0.111582	0.000142
C158	C	1.118003	0.388418	0.500142
C159	C	0.529839	-0.099401	0.000119
C160	C	1.029839	0.400599	0.500119
C161	C	0.529331	-0.149814	0.000115
C162	C	1.029331	0.350186	0.500115
C163	C	0.573162	-0.181112	0.000121
C164	C	1.073162	0.318888	0.500121
O165	O	0.491060	-0.224392	0.000114
O166	O	0.991060	0.275608	0.500114
O167	O	0.654174	-0.246972	0.000127
O168	O	1.154174	0.253028	0.500127
C169	C	0.614372	-0.469517	0.000110
C170	C	1.114372	0.030483	0.500110
C171	C	0.570036	-0.488630	0.000096
C172	C	1.070036	0.011370	0.500096
C173	C	0.526213	-0.457331	0.000087
C174	C	1.026213	0.042669	0.500087
C175	C	0.569523	-0.539044	0.000096
C176	C	1.069523	-0.039044	0.500096
C177	C	0.613346	-0.570343	0.000106
C178	C	1.113346	-0.070343	0.500106
C179	C	0.657683	-0.551228	0.000115
C180	C	1.157683	-0.051228	0.500115
C181	C	0.658195	-0.500817	0.000120
C182	C	1.158195	-0.000817	0.500120
C183	C	0.481876	-0.476446	0.000077
C184	C	0.981876	0.023554	0.500077
C185	C	0.481368	-0.526858	0.000073
C186	C	0.981368	-0.026858	0.500073
C187	C	0.525191	-0.558157	0.000083
C188	C	1.025191	-0.058157	0.500083
C189	C	0.658949	0.057570	0.000135
C190	C	1.158949	0.557570	0.500135
C191	C	0.712605	0.058113	0.000143
C192	C	1.212605	0.558113	0.500143
C193	C	0.566353	0.150181	0.000103
C194	C	1.066353	0.650181	0.500103
C195	C	0.566906	0.203836	0.000095
C196	C	1.066906	0.703836	0.500095
N197	N	0.570526	0.061793	0.120877
N198	N	1.070526	0.561793	0.620877
N199	N	0.570564	0.061757	-0.120645
N200	N	1.070564	0.561757	0.379355
C201	C	0.603657	0.028663	0.473403
C202	C	1.103657	0.528663	0.973403
C203	C	0.603667	0.028656	0.687062
C204	C	1.103667	0.528656	1.187062
O205	O	0.631818	0.000490	0.714693
O206	O	1.131818	0.500490	1.214693
N207	N	0.570554	0.061759	0.713771
N208	N	1.070554	0.561759	1.213771
C209	C	0.537433	0.094864	0.687063
C210	C	1.037433	0.594864	1.187063
O211	O	0.509265	0.123017	0.714683
O212	O	1.009265	0.623017	1.214683
C213	C	0.537421	0.094868	0.473405
C214	C	1.037421	0.594868	0.973405
C215	C	0.570540	0.061766	0.446698
C216	C	1.070540	0.561766	0.946698
C217	C	0.636772	-0.004437	0.446696
C218	C	1.136772	0.495563	0.946696
C219	C	0.636771	-0.004433	0.393285
C220	C	1.136771	0.495567	0.893285
C221	C	0.603654	0.028671	0.366580
C222	C	1.103654	0.528671	0.866580
C223	C	0.570538	0.061770	0.393287
C224	C	1.070538	0.561770	0.893287
C225	C	0.504298	0.127971	0.446697
C226	C	1.004298	0.627971	0.946697
C227	C	0.504297	0.127968	0.393280
C228	C	1.004297	0.627968	0.893280
C229	C	0.537416	0.094866	0.366573
C230	C	1.037416	0.594866	0.866573
C231	C	0.537420	0.094877	0.313171
C232	C	1.037420	0.594877	0.813171
N233	N	0.570533	0.061774	0.286461
N234	N	1.070533	0.561774	0.786461
C235	C	0.603650	0.028671	0.313166
C236	C	1.103650	0.528671	0.813166
C237	C	0.537443	0.094861	0.799236
C238	C	1.037443	0.594861	1.299236
C239	C	0.537446	0.094860	0.852650
C240	C	1.037446	0.594860	1.352650
C241	C	0.603680	0.028651	0.852645
C242	C	1.103680	0.528651	1.352645
C243	C	0.603678	0.028654	0.799230
C244	C	1.103678	0.528654	1.299230
C245	C	0.570556	0.061757	0.772526
C246	C	1.070556	0.561757	1.272526
C247	C	0.603646	0.028682	0.200998
C248	C	1.103646	0.528682	0.700998
C249	C	0.603643	0.028690	0.147582
C250	C	1.103643	0.528690	0.647582
C251	C	0.537408	0.094897	0.147591
C252	C	1.037408	0.594897	0.647591
C253	C	0.537412	0.094891	0.201003
C254	C	1.037412	0.594891	0.701003
C255	C	0.570533	0.061779	0.227705
C256	C	1.070533	0.561779	0.727705
O257	O	0.509281	0.123025	0.285506
O258	O	1.009281	0.623025	0.785506
O259	O	0.631807	0.000515	0.285536
O260	O	1.131807	0.500515	0.785536
C261	C	0.603658	0.028659	0.526814
C262	C	1.103658	0.528659	1.026814
C263	C	0.570542	0.061759	0.553521
C264	C	1.070542	0.561759	1.053521
C265	C	0.537425	0.094862	0.526816
C266	C	1.037425	0.594862	1.026816
C267	C	0.570546	0.061759	0.606935
C268	C	1.070546	0.561759	1.106935
C269	C	0.603663	0.028655	0.633640
C270	C	1.103663	0.528655	1.133640
C271	C	0.636776	-0.004448	0.606931
C272	C	1.136776	0.495552	1.106931
C273	C	0.636775	-0.004444	0.553519
C274	C	1.136775	0.495556	1.053519
C275	C	0.504311	0.127965	0.553526
C276	C	1.004311	0.627965	1.053526
C277	C	0.504316	0.127959	0.606937
C278	C	1.004316	0.627959	1.106937
C279	C	0.537433	0.094856	0.633642
C280	C	1.037433	0.594856	1.133642
H281	H	0.040652	0.061462	0.130300
H282	H	0.540652	0.561462	0.630300
H283	H	0.477343	0.154922	0.531787
H284	H	0.977343	0.654922	1.031787
C285	C	-0.058018	0.060431	-0.143281
C286	C	0.441982	0.560431	0.356719
H287	H	-0.035781	0.060649	-0.170827
H288	H	0.464219	0.560649	0.329173
H289	H	-0.081588	0.088425	-0.145217
H290	H	0.418412	0.588425	0.354783
H291	H	-0.073778	0.032023	-0.145196
H292	H	0.426222	0.532023	0.354804
C293	C	0.467884	0.164374	0.636311
C294	C	0.967884	0.664374	1.136311
H295	H	0.472626	0.159636	0.671949
H296	H	0.972626	0.659636	1.171949
H297	H	0.435665	0.159350	0.627552
H298	H	0.935665	0.659350	1.127552
H299	H	0.472892	0.196601	0.627559
H300	H	0.972892	0.696601	1.127559
C301	C	-0.058000	0.060453	0.143520
C302	C	0.442000	0.560453	0.643520
H303	H	-0.035763	0.060686	0.171065
H304	H	0.464237	0.560686	0.671065
H305	H	-0.073768	0.032054	0.145449
H306	H	0.426232	0.532054	0.645449
H307	H	-0.081565	0.088456	0.145442
H308	H	0.418435	0.588456	0.645442
H309	H	-0.191240	0.059111	0.084061
H310	H	0.308760	0.559111	0.584061
C311	C	0.665707	-0.196419	0.000146
C312	C	1.165707	0.303581	0.500146
H313	H	0.692182	-0.177810	0.000160
H314	H	1.192182	0.322190	0.500160
H315	H	0.667352	-0.216340	-0.029446
H316	H	1.167352	0.283660	0.470554
H317	H	0.667335	-0.216338	0.029742
H318	H	1.167335	0.283662	0.529742
H319	H	0.040631	0.061448	-0.130072
H320	H	0.540631	0.561448	0.369928
H321	H	0.654110	-0.096024	0.000155
H322	H	1.154110	0.403976	0.500155
C323	C	0.708505	-0.328564	0.000140
C324	C	1.208505	0.171436	0.500140
H325	H	0.734528	-0.354431	0.000140
H326	H	1.234528	0.145569	0.500140
H327	H	0.710541	-0.309150	0.029731
H328	H	1.210541	0.190850	0.529731
H329	H	0.710542	-0.309154	-0.029456
H330	H	1.210542	0.190846	0.470544
H331	H	-0.282718	0.058156	-0.083786
H332	H	0.217282	0.558156	0.416214
H333	H	-0.282706	0.058170	0.084064
H334	H	0.217294	0.558170	0.584064
C335	C	0.707430	-0.434415	0.000144
C336	C	1.207430	0.065585	0.500144
H337	H	0.733904	-0.415804	0.000156
H338	H	1.233904	0.084196	0.500156
H339	H	0.709076	-0.454339	-0.029445
H340	H	1.209076	0.045661	0.470555
H341	H	0.709057	-0.454331	0.029742
H342	H	1.209057	0.045669	0.529742
C343	C	0.430996	0.065454	-0.097058
C344	C	0.930996	0.565454	0.402942
H345	H	0.464630	0.065796	-0.090430
H346	H	0.964630	0.565796	0.409570
H347	H	0.418834	0.093564	-0.116073
H348	H	0.918834	0.593564	0.383927
H349	H	0.426636	0.037162	-0.116056
H350	H	0.926636	0.537162	0.383944
C351	C	0.673202	-0.040863	0.636313
C352	C	1.173202	0.459137	1.136313
H353	H	0.668453	-0.036123	0.671948
H354	H	1.168453	0.463877	1.171948
H355	H	0.705425	-0.035846	0.627564
H356	H	1.205425	0.464154	1.127564
H357	H	0.668190	-0.073089	0.627559
H358	H	1.168190	0.426911	1.127559
C359	C	0.660531	-0.705615	0.000121
C360	C	1.160531	-0.205615	0.500121
H361	H	0.686555	-0.731480	0.000124
H362	H	1.186555	-0.231480	0.500124
H363	H	0.662562	-0.686200	0.029711
H364	H	1.162562	-0.186200	0.529711
H365	H	0.662570	-0.686205	-0.029476
H366	H	1.162570	-0.186205	0.470524
H367	H	0.446789	-0.391168	0.000061
H368	H	0.946789	0.108832	0.500061
C369	C	0.640079	-0.007738	0.230363
C370	C	1.140079	0.492262	0.730363
H371	H	0.659802	-0.027445	0.206801
H372	H	1.159802	0.472555	0.706801
H373	H	0.622848	-0.027743	0.251199
H374	H	1.122848	0.472257	0.751199
H375	H	0.660074	0.009510	0.251199
H376	H	1.160074	0.509510	0.751199
H377	H	0.493226	-0.165375	0.000117
H378	H	0.993226	0.334625	0.500117
H379	H	0.694301	-0.485261	0.000132
H380	H	1.194301	0.014739	0.500132
H381	H	0.332330	0.064450	-0.083838
H382	H	0.832330	0.564450	0.416162
C383	C	-0.184066	0.059159	-0.097015
C384	C	0.315934	0.559159	0.402985
H385	H	-0.206307	0.058935	-0.124558
H386	H	0.293693	0.558935	0.375442
H387	H	-0.160499	0.031162	-0.098944
H388	H	0.339501	0.531162	0.401056
H389	H	-0.168303	0.087564	-0.098943
H390	H	0.331697	0.587564	0.401057
H391	H	0.477324	0.154924	0.371540
H392	H	0.977324	0.654924	0.871540
C393	C	0.093246	0.062016	0.143504
C394	C	0.593246	0.562016	0.643504
H395	H	0.115485	0.062252	0.171048
H396	H	0.615485	0.562252	0.671048
H397	H	0.077476	0.033618	0.145440
H398	H	0.577476	0.533618	0.645440
H399	H	0.069683	0.090020	0.145424
H400	H	0.569683	0.590020	0.645424
H401	H	0.646929	-0.802542	0.000113
H402	H	1.146929	-0.302542	0.500113
H403	H	0.445259	-0.542414	0.000065
H404	H	0.945259	-0.042414	0.500065
H405	H	0.630646	0.001698	0.874397
H406	H	1.130646	0.501698	1.374397
H407	H	0.486977	-0.780421	0.000083
H408	H	0.986977	-0.280421	0.500083
H409	H	0.423800	0.065407	0.084011
H410	H	0.923800	0.565407	0.584011
C411	C	0.475383	-0.680027	0.000078
C412	C	0.975383	-0.180027	0.500078
H413	H	0.448909	-0.698637	0.000078
H414	H	0.948909	-0.198637	0.500078
H415	H	0.473749	-0.660105	-0.029513
H416	H	0.973749	-0.160105	0.470487
H417	H	0.473746	-0.660110	0.029675
H418	H	0.973746	-0.160110	0.529675
H419	H	0.332353	0.064458	0.084020
H420	H	0.832353	0.564458	0.584020
H421	H	0.447722	-0.299717	0.000064
H422	H	0.947722	0.200283	0.500064
H423	H	0.494160	-0.073909	0.000113
H424	H	0.994160	0.426091	0.500113
C425	C	0.705887	-0.585664	0.000122
C426	C	1.205887	-0.085664	0.500122
H427	H	0.699227	-0.618425	0.000113
H428	H	1.199227	-0.118425	0.500113
H429	H	0.724084	-0.579912	0.029716
H430	H	1.224084	-0.079912	0.529716
H431	H	0.724085	-0.579905	-0.029471
H432	H	1.224085	-0.079905	0.470529
C433	C	0.433668	-0.442023	0.000072
C434	C	0.933668	0.057977	0.500072
H435	H	0.407193	-0.460632	0.000070
H436	H	0.907193	0.039368	0.500070
H437	H	0.432033	-0.422098	-0.029517
H438	H	0.932033	0.077902	0.470483
H439	H	0.432031	-0.422108	0.029671
H440	H	0.932031	0.077892	0.529671
C441	C	0.640073	-0.007726	0.118207
C442	C	1.140073	0.492274	0.618207
H443	H	0.659792	-0.027444	0.141765
H444	H	1.159792	0.472556	0.641765
H445	H	0.660064	0.009519	0.097371
H446	H	1.160064	0.509519	0.597371
H447	H	0.622832	-0.027727	0.097370
H448	H	1.122832	0.472273	0.597370
H449	H	0.663738	-0.031389	0.371543
H450	H	1.163738	0.468611	0.871543
C451	C	0.673207	-0.040851	0.476063
C452	C	1.173207	0.459149	0.976063
H453	H	0.692928	-0.060558	0.452500
H454	H	1.192928	0.439442	0.952500
H455	H	0.655979	-0.060856	0.496903
H456	H	1.155979	0.439144	0.996903
H457	H	0.693203	-0.023601	0.496896
H458	H	1.193203	0.476399	0.996896
C459	C	0.093216	0.061981	-0.143293
C460	C	0.593216	0.561981	0.356707
H461	H	0.115452	0.062202	-0.170839
H462	H	0.615452	0.562202	0.329161
H463	H	0.069649	0.089978	-0.145224
H464	H	0.569649	0.589978	0.354776
H465	H	0.077452	0.033576	-0.145213
H466	H	0.577452	0.533576	0.354787
H467	H	0.630646	0.001700	0.777489
H468	H	1.130646	0.501700	1.277489
C469	C	0.501016	0.131273	0.882022
C470	C	1.001016	0.631273	1.382022
H471	H	0.481290	0.150982	0.858463
H472	H	0.981290	0.650982	1.358463
H473	H	0.518247	0.151275	0.902861
H474	H	1.018247	0.651275	1.402861
H475	H	0.481025	0.114020	0.902855
H476	H	0.981025	0.614020	1.402855
C477	C	0.500964	0.131283	0.230381
C478	C	1.000964	0.631283	0.730381
H479	H	0.481234	0.150991	0.206825
H480	H	0.981234	0.650991	0.706825
H481	H	0.518177	0.151290	0.251235
H482	H	1.018177	0.651290	0.751235
H483	H	0.480980	0.114009	0.251200
H484	H	0.980980	0.614009	0.751200
H485	H	0.510470	0.121818	0.777497
H486	H	1.010470	0.621818	1.277497
H487	H	0.191880	0.062995	-0.130078
H488	H	0.691880	0.562995	0.369922
H489	H	0.477330	0.154925	0.468435
H490	H	0.977330	0.654925	0.968435
H491	H	0.510445	0.121851	0.125840
H492	H	1.010445	0.621851	0.625840
H493	H	0.191894	0.063021	0.130281
H494	H	0.691894	0.563021	0.630281
H495	H	0.663743	-0.031399	0.531778
H496	H	1.163743	0.468601	1.031778
