data_functionalizedCrystal
_audit_creation_method	'MofGen! by Chris Wilmer'
_symmetry_space_group_name_H-M	'P1'
_symmetry_Int_Tables_number	1
_symmetry_cell_setting	triclinic
loop_
_symmetry_equiv_pos_as_xyz
  x,y,z
_cell_length_a	23.532407
_cell_length_b	23.532407
_cell_length_c	15.186229
_cell_angle_alpha	89.999328
_cell_angle_beta	89.996194
_cell_angle_gamma	97.151289
loop_
_atom_site_label
_atom_site_type_symbol
_atom_site_fract_x
_atom_site_fract_y
_atom_site_fract_z
O1	O	-0.069135	0.755259	-0.073159
O2	O	0.180865	1.005259	0.176841
O3	O	0.430865	1.255259	0.426841
O4	O	0.680865	1.505259	0.676841
O5	O	-0.079138	0.589395	-0.073171
O6	O	0.170862	0.839395	0.176829
O7	O	0.420862	1.089395	0.426829
O8	O	0.670862	1.339395	0.676829
O9	O	0.008796	0.677329	-0.073176
O10	O	0.258796	0.927329	0.176824
O11	O	0.508796	1.177329	0.426824
O12	O	0.758796	1.427329	0.676824
O13	O	-0.157068	0.667325	-0.073154
O14	O	0.092932	0.917325	0.176846
O15	O	0.342932	1.167325	0.426846
O16	O	0.592932	1.417325	0.676846
O17	O	0.008797	0.677323	0.073281
O18	O	0.258797	0.927323	0.323281
O19	O	0.508797	1.177323	0.573281
O20	O	0.758797	1.427323	0.823281
O21	O	-0.079136	0.589389	0.073286
O22	O	0.170864	0.839389	0.323286
O23	O	0.420864	1.089389	0.573286
O24	O	0.670864	1.339389	0.823286
O25	O	-0.069133	0.755253	0.073298
O26	O	0.180867	1.005253	0.323298
O27	O	0.430867	1.255253	0.573298
O28	O	0.680867	1.505253	0.823298
Zn29	Zn	-0.074135	0.672320	0.096545
Zn30	Zn	0.175865	0.922320	0.346545
Zn31	Zn	0.425865	1.172320	0.596545
Zn32	Zn	0.675865	1.422320	0.846545
Zn33	Zn	-0.074136	0.672328	-0.096418
Zn34	Zn	0.175864	0.922328	0.153582
Zn35	Zn	0.425864	1.172328	0.403582
Zn36	Zn	0.675864	1.422328	0.653582
O37	O	-0.157067	0.667319	0.073303
O38	O	0.092933	0.917319	0.323303
O39	O	0.342933	1.167319	0.573303
O40	O	0.592933	1.417319	0.823303
C41	C	-0.078882	0.568176	0.000056
C42	C	0.171118	0.818176	0.250056
C43	C	0.421118	1.068176	0.500056
C44	C	0.671118	1.318176	0.750056
C45	C	-0.078116	0.504959	0.000051
C46	C	0.171884	0.754959	0.250051
C47	C	0.421884	1.004959	0.500051
C48	C	0.671884	1.254959	0.750051
C49	C	-0.022921	0.238792	0.000067
C50	C	0.227079	0.488792	0.250067
C51	C	0.477079	0.738792	0.500067
C52	C	0.727079	0.988792	0.750067
C53	C	-0.023632	0.298192	0.000067
C54	C	0.226368	0.548192	0.250067
C55	C	0.476368	0.798192	0.500067
C56	C	0.726368	1.048192	0.750067
O57	O	0.020153	0.334937	0.000092
O58	O	0.270153	0.584937	0.250092
O59	O	0.520153	0.834937	0.500092
O60	O	0.770153	1.084937	0.750092
N61	N	-0.075909	0.320818	0.000068
N62	N	0.174091	0.570818	0.250068
N63	N	0.424091	0.820818	0.500068
N64	N	0.674091	1.070818	0.750068
C65	C	-0.127477	0.284041	0.000078
C66	C	0.122523	0.534041	0.250078
C67	C	0.372523	0.784041	0.500078
C68	C	0.622523	1.034041	0.750078
O69	O	-0.172007	0.308740	0.000079
O70	O	0.077993	0.558740	0.250079
O71	O	0.327993	0.808740	0.500079
O72	O	0.577993	1.058740	0.750079
C73	C	-0.126765	0.224642	0.000084
C74	C	0.123235	0.474642	0.250084
C75	C	0.373235	0.724642	0.500084
C76	C	0.623235	0.974642	0.750084
C77	C	-0.074485	0.202019	0.000075
C78	C	0.175515	0.452019	0.250075
C79	C	0.425515	0.702019	0.500075
C80	C	0.675515	0.952019	0.750075
C81	C	0.029354	0.216169	0.000059
C82	C	0.279354	0.466169	0.250059
C83	C	0.529354	0.716169	0.500059
C84	C	0.779354	0.966169	0.750059
C85	C	0.030066	0.156772	0.000057
C86	C	0.280066	0.406772	0.250057
C87	C	0.530066	0.656772	0.500057
C88	C	0.780066	0.906772	0.750057
C89	C	-0.021499	0.119999	0.000064
C90	C	0.228501	0.369999	0.250064
C91	C	0.478501	0.619999	0.500064
C92	C	0.728501	0.869999	0.750064
C93	C	-0.073774	0.142623	0.000073
C94	C	0.176226	0.392623	0.250073
C95	C	0.426226	0.642623	0.500073
C96	C	0.676226	0.892623	0.750073
C97	C	-0.178333	0.187865	0.000101
C98	C	0.071667	0.437865	0.250101
C99	C	0.321667	0.687865	0.500101
C100	C	0.571667	0.937865	0.750101
C101	C	-0.177616	0.128463	0.000108
C102	C	0.072384	0.378463	0.250108
C103	C	0.322384	0.628463	0.500108
C104	C	0.572384	0.878463	0.750108
C105	C	-0.125336	0.105840	0.000098
C106	C	0.124664	0.355840	0.250098
C107	C	0.374664	0.605840	0.500098
C108	C	0.624664	0.855840	0.750098
C109	C	-0.124627	0.046454	0.000079
C110	C	0.125373	0.296454	0.250079
C111	C	0.375373	0.546454	0.500079
C112	C	0.625373	0.796454	0.750079
N113	N	-0.072351	0.023828	0.000078
N114	N	0.177649	0.273828	0.250078
N115	N	0.427649	0.523828	0.500078
N116	N	0.677649	0.773828	0.750078
C117	C	-0.020787	0.060600	0.000071
C118	C	0.229213	0.310600	0.250071
C119	C	0.479213	0.560600	0.500071
C120	C	0.729213	0.810600	0.750071
C121	C	-0.128968	0.408783	0.000066
C122	C	0.121032	0.658783	0.250066
C123	C	0.371032	0.908783	0.500066
C124	C	0.621032	1.158783	0.750066
C125	C	-0.129681	0.468181	0.000053
C126	C	0.120319	0.718181	0.250053
C127	C	0.370319	0.968181	0.500053
C128	C	0.620319	1.218181	0.750053
C129	C	-0.025836	0.482328	0.000044
C130	C	0.224164	0.732328	0.250044
C131	C	0.474164	0.982328	0.500044
C132	C	0.724164	1.232328	0.750044
C133	C	-0.025124	0.422929	0.000051
C134	C	0.224876	0.672929	0.250051
C135	C	0.474876	0.922929	0.500051
C136	C	0.724876	1.172929	0.750051
C137	C	-0.076692	0.386157	0.000065
C138	C	0.173308	0.636157	0.250065
C139	C	0.423308	0.886157	0.500065
C140	C	0.673308	1.136157	0.750065
C141	C	-0.019297	-0.064136	0.000067
C142	C	0.230703	0.185864	0.250067
C143	C	0.480703	0.435864	0.500067
C144	C	0.730703	0.685864	0.750067
C145	C	-0.018590	-0.123538	0.000062
C146	C	0.231410	0.126462	0.250062
C147	C	0.481410	0.376462	0.500062
C148	C	0.731410	0.626462	0.750062
C149	C	-0.122435	-0.137680	0.000075
C150	C	0.127565	0.112320	0.250075
C151	C	0.377565	0.362320	0.500075
C152	C	0.627565	0.612320	0.750075
C153	C	-0.123142	-0.078284	0.000076
C154	C	0.126858	0.171716	0.250076
C155	C	0.376858	0.421716	0.500076
C156	C	0.626858	0.671716	0.750076
C157	C	-0.071568	-0.041512	0.000075
C158	C	0.178432	0.208488	0.250075
C159	C	0.428432	0.458488	0.500075
C160	C	0.678432	0.708488	0.750075
O161	O	-0.168390	0.009675	0.000058
O162	O	0.081610	0.259675	0.250058
O163	O	0.331610	0.509675	0.500058
O164	O	0.581610	0.759675	0.750058
O165	O	0.023737	0.035892	0.000081
O166	O	0.273737	0.285892	0.250081
O167	O	0.523737	0.535892	0.500081
O168	O	0.773737	0.785892	0.750081
C169	C	-0.178283	0.667577	0.000077
C170	C	0.071717	0.917577	0.250077
C171	C	0.321717	1.167577	0.500077
C172	C	0.571717	1.417577	0.750077
C173	C	-0.241500	0.668343	0.000086
C174	C	0.008500	0.918343	0.250086
C175	C	0.258500	1.168343	0.500086
C176	C	0.508500	1.418343	0.750086
C177	C	-0.640603	0.621110	0.000037
C178	C	-0.390603	0.871110	0.250037
C179	C	-0.140603	1.121110	0.500037
C180	C	0.109397	1.371110	0.750037
C181	C	-0.700004	0.621821	0.000031
C182	C	-0.450004	0.871821	0.250031
C183	C	-0.200004	1.121821	0.500031
C184	C	0.049996	1.371821	0.750031
O185	O	-0.736748	0.578035	-0.000005
O186	O	-0.486748	0.828035	0.249995
O187	O	-0.236748	1.078035	0.499995
O188	O	0.013252	1.328035	0.749995
N189	N	-0.722630	0.674097	0.000036
N190	N	-0.472630	0.924097	0.250036
N191	N	-0.222630	1.174097	0.500036
N192	N	0.027370	1.424097	0.750036
C193	C	-0.685852	0.725666	0.000038
C194	C	-0.435852	0.975666	0.250038
C195	C	-0.185852	1.225666	0.500038
C196	C	0.064148	1.475666	0.750038
O197	O	-0.710552	0.770196	0.000041
O198	O	-0.460552	1.020196	0.250041
O199	O	-0.210552	1.270196	0.500041
O200	O	0.039448	1.520196	0.750041
C201	C	-0.626453	0.724953	0.000038
C202	C	-0.376453	0.974953	0.250038
C203	C	-0.126453	1.224953	0.500038
C204	C	0.123547	1.474953	0.750038
C205	C	-0.603830	0.672674	0.000042
C206	C	-0.353830	0.922674	0.250042
C207	C	-0.103830	1.172674	0.500042
C208	C	0.146170	1.422674	0.750042
C209	C	-0.617980	0.568834	0.000040
C210	C	-0.367980	0.818834	0.250040
C211	C	-0.117980	1.068834	0.500040
C212	C	0.132020	1.318834	0.750040
C213	C	-0.558584	0.568123	0.000048
C214	C	-0.308584	0.818123	0.250048
C215	C	-0.058584	1.068123	0.500048
C216	C	0.191416	1.318123	0.750048
C217	C	-0.521811	0.619687	0.000053
C218	C	-0.271811	0.869687	0.250053
C219	C	-0.021811	1.119687	0.500053
C220	C	0.228189	1.369687	0.750053
C221	C	-0.544434	0.671963	0.000050
C222	C	-0.294434	0.921963	0.250050
C223	C	-0.044434	1.171963	0.500050
C224	C	0.205566	1.421963	0.750050
C225	C	-0.589677	0.776521	0.000033
C226	C	-0.339677	1.026521	0.250033
C227	C	-0.089677	1.276521	0.500033
C228	C	0.160323	1.526521	0.750033
C229	C	-0.530274	0.775804	0.000033
C230	C	-0.280274	1.025804	0.250033
C231	C	-0.030274	1.275804	0.500033
C232	C	0.219726	1.525804	0.750033
C233	C	-0.507652	0.723525	0.000037
C234	C	-0.257652	0.973525	0.250037
C235	C	-0.007652	1.223525	0.500037
C236	C	0.242348	1.473525	0.750037
C237	C	-0.448265	0.722816	0.000062
C238	C	-0.198265	0.972816	0.250062
C239	C	0.051735	1.222816	0.500062
C240	C	0.301735	1.472816	0.750062
N241	N	-0.425639	0.670539	0.000057
N242	N	-0.175639	0.920539	0.250057
N243	N	0.074361	1.170539	0.500057
N244	N	0.324361	1.420539	0.750057
C245	C	-0.462412	0.618975	0.000052
C246	C	-0.212412	0.868975	0.250052
C247	C	0.037588	1.118975	0.500052
C248	C	0.287588	1.368975	0.750052
C249	C	-0.810595	0.727157	0.000037
C250	C	-0.560595	0.977157	0.250037
C251	C	-0.310595	1.227157	0.500037
C252	C	-0.060595	1.477157	0.750037
C253	C	-0.869993	0.727870	0.000043
C254	C	-0.619993	0.977870	0.250043
C255	C	-0.369993	1.227870	0.500043
C256	C	-0.119993	1.477870	0.750043
C257	C	-0.884140	0.624025	0.000035
C258	C	-0.634140	0.874025	0.250035
C259	C	-0.384140	1.124025	0.500035
C260	C	-0.134140	1.374025	0.750035
C261	C	-0.824741	0.623313	0.000034
C262	C	-0.574741	0.873313	0.250034
C263	C	-0.324741	1.123313	0.500034
C264	C	-0.074741	1.373313	0.750034
C265	C	-0.787969	0.674881	0.000032
C266	C	-0.537969	0.924881	0.250032
C267	C	-0.287969	1.174881	0.500032
C268	C	-0.037969	1.424881	0.750032
C269	C	-0.337675	0.617485	0.000069
C270	C	-0.087675	0.867485	0.250069
C271	C	0.162325	1.117485	0.500069
C272	C	0.412325	1.367485	0.750069
C273	C	-0.278273	0.616779	0.000081
C274	C	-0.028273	0.866779	0.250081
C275	C	0.221727	1.116779	0.500081
C276	C	0.471727	1.366779	0.750081
C277	C	-0.264131	0.720623	0.000085
C278	C	-0.014131	0.970623	0.250085
C279	C	0.235869	1.220623	0.500085
C280	C	0.485869	1.470623	0.750085
C281	C	-0.323528	0.721330	0.000078
C282	C	-0.073528	0.971330	0.250078
C283	C	0.176472	1.221330	0.500078
C284	C	0.426472	1.471330	0.750078
C285	C	-0.360299	0.669757	0.000067
C286	C	-0.110299	0.919757	0.250067
C287	C	0.139701	1.169757	0.500067
C288	C	0.389701	1.419757	0.750067
O289	O	-0.411486	0.766578	0.000094
O290	O	-0.161486	1.016578	0.250094
O291	O	0.088514	1.266578	0.500094
O292	O	0.338514	1.516578	0.750094
O293	O	-0.437704	0.574452	0.000038
O294	O	-0.187704	0.824452	0.250038
O295	O	0.062296	1.074452	0.500038
O296	O	0.312296	1.324452	0.750038
C297	C	0.030012	0.677071	0.000048
C298	C	0.280012	0.927071	0.250048
C299	C	0.530012	1.177071	0.500048
C300	C	0.780012	1.427071	0.750048
C301	C	0.093229	0.676305	0.000034
C302	C	0.343229	0.926305	0.250034
C303	C	0.593229	1.176305	0.500034
C304	C	0.843229	1.426305	0.750034
C305	C	-0.069389	0.776472	0.000069
C306	C	0.180611	1.026472	0.250069
C307	C	0.430611	1.276472	0.500069
C308	C	0.680611	1.526472	0.750069
C309	C	-0.070155	0.839689	0.000069
C310	C	0.179845	1.089689	0.250069
C311	C	0.429845	1.339689	0.500069
C312	C	0.679845	1.589689	0.750069
N313	N	-0.074133	0.672319	0.228238
N314	N	0.175867	0.922319	0.478238
N315	N	0.425867	1.172319	0.728238
N316	N	0.675867	1.422319	0.978238
N317	N	-0.074133	0.672333	-0.228111
N318	N	0.175867	0.922333	0.021889
N319	N	0.425867	1.172333	0.271889
N320	N	0.675867	1.422333	0.521889
C321	C	-0.035209	0.711269	0.453959
C322	C	0.214791	0.961269	0.703959
C323	C	0.464791	1.211269	0.953959
C324	C	0.714791	1.461269	1.203959
C325	C	-0.035208	0.711271	0.546149
C326	C	0.214792	0.961271	0.796149
C327	C	0.464792	1.211271	1.046149
C328	C	0.714792	1.461271	1.296149
C329	C	-0.113059	0.633379	0.546162
C330	C	0.136941	0.883379	0.796162
C331	C	0.386941	1.133379	1.046162
C332	C	0.636941	1.383379	1.296162
C333	C	-0.113057	0.633375	0.453974
C334	C	0.136943	0.883375	0.703974
C335	C	0.386943	1.133375	0.953974
C336	C	0.636943	1.383375	1.203974
C337	C	-0.074133	0.672323	0.407875
C338	C	0.175867	0.922323	0.657875
C339	C	0.425867	1.172323	0.907875
C340	C	0.675867	1.422323	1.157875
C341	C	-0.074133	0.672329	0.592252
C342	C	0.175867	0.922329	0.842252
C343	C	0.425867	1.172329	1.092252
C344	C	0.675867	1.422329	1.342252
C345	C	-0.074132	0.672331	0.692209
C346	C	0.175868	0.922331	0.942209
C347	C	0.425868	1.172331	1.192209
C348	C	0.675868	1.422331	1.442209
C349	C	-0.074133	0.672321	0.307912
C350	C	0.175867	0.922321	0.557912
C351	C	0.425867	1.172321	0.807912
C352	C	0.675867	1.422321	1.057912
H353	H	0.023984	-0.141954	0.000051
H354	H	0.273984	0.108046	0.250051
H355	H	0.523984	0.358046	0.500051
H356	H	0.773984	0.608046	0.750051
H357	H	-0.170964	0.378846	0.000071
H358	H	0.079036	0.628846	0.250071
H359	H	0.329036	0.878846	0.500071
H360	H	0.579036	1.128846	0.750071
C361	C	0.087572	0.131892	0.000050
C362	C	0.337572	0.381892	0.250050
C363	C	0.587572	0.631892	0.500050
C364	C	0.837572	0.881892	0.750050
H365	H	0.080619	0.091249	0.000045
H366	H	0.330619	0.341249	0.250045
H367	H	0.580619	0.591249	0.500045
H368	H	0.830619	0.841249	0.750045
H369	H	0.108789	0.144538	0.051119
H370	H	0.358789	0.394538	0.301119
H371	H	0.608789	0.644538	0.551119
H372	H	0.858789	0.894538	0.801119
H373	H	0.108785	0.144537	-0.051033
H374	H	0.358785	0.394537	0.198967
H375	H	0.608785	0.644537	0.448967
H376	H	0.858785	0.894537	0.698967
C377	C	-0.234341	0.088014	0.000121
C378	C	0.015659	0.338014	0.250121
C379	C	0.265659	0.588014	0.500121
C380	C	0.515659	0.838014	0.750121
H381	H	-0.226434	0.049396	0.000127
H382	H	0.023566	0.299396	0.250127
H383	H	0.273566	0.549396	0.500127
H384	H	0.523566	0.799396	0.750127
H385	H	-0.255793	0.094843	-0.050947
H386	H	-0.005793	0.344843	0.199053
H387	H	0.244207	0.594843	0.449053
H388	H	0.494207	0.844843	0.699053
H389	H	-0.255787	0.094843	0.051206
H390	H	-0.005787	0.344843	0.301206
H391	H	0.244213	0.594843	0.551206
H392	H	0.494213	0.844843	0.801206
H393	H	-0.144754	0.601658	0.416450
H394	H	0.105246	0.851658	0.666450
H395	H	0.355246	1.101658	0.916450
H396	H	0.605246	1.351658	1.166450
H397	H	-0.367608	0.575489	0.000060
H398	H	-0.117608	0.825489	0.250060
H399	H	0.132392	1.075489	0.500060
H400	H	0.382392	1.325489	0.750060
H401	H	-0.888406	0.770441	0.000054
H402	H	-0.638406	1.020441	0.250054
H403	H	-0.388406	1.270441	0.500054
H404	H	-0.138406	1.520441	0.750054
H405	H	-0.172252	0.486595	0.000049
H406	H	0.077748	0.736595	0.250049
H407	H	0.327748	0.986595	0.500049
H408	H	0.577748	1.236595	0.750049
H409	H	-0.003514	0.742982	0.416427
H410	H	0.246486	0.992982	0.666427
H411	H	0.496486	1.242982	0.916427
H412	H	0.746486	1.492982	1.166427
C413	C	0.007607	0.754110	0.596842
C414	C	0.257607	1.004110	0.846842
C415	C	0.507607	1.254110	1.096842
C416	C	0.757607	1.504110	1.346842
H417	H	0.002037	0.748532	0.658348
H418	H	0.252037	0.998532	0.908348
H419	H	0.502037	1.248532	1.158348
H420	H	0.752037	1.498532	1.408348
H421	H	0.001617	0.792082	0.581732
H422	H	0.251617	1.042082	0.831732
H423	H	0.501617	1.292082	1.081732
H424	H	0.751617	1.542082	1.331732
H425	H	0.045587	0.748136	0.581728
H426	H	0.295587	0.998136	0.831728
H427	H	0.545587	1.248136	1.081728
H428	H	0.795587	1.498136	1.331728
C429	C	-0.155860	0.590526	0.596870
C430	C	0.094140	0.840526	0.846870
C431	C	0.344140	1.090526	1.096870
C432	C	0.594140	1.340526	1.346870
H433	H	-0.179033	0.567323	0.556217
H434	H	0.070967	0.817323	0.806217
H435	H	0.320967	1.067323	1.056217
H436	H	0.570967	1.317323	1.306217
H437	H	-0.179471	0.610862	0.632844
H438	H	0.070529	0.860862	0.882844
H439	H	0.320529	1.110862	1.132844
H440	H	0.570529	1.360862	1.382844
H441	H	-0.135475	0.566943	0.632819
H442	H	0.114525	0.816943	0.882819
H443	H	0.364525	1.066943	1.132819
H444	H	0.614525	1.316943	1.382819
H445	H	0.022699	-0.034204	0.000066
H446	H	0.272699	0.215796	0.250066
H447	H	0.522699	0.465796	0.500066
H448	H	0.772699	0.715796	0.750066
C449	C	-0.253392	0.559269	0.000078
C450	C	-0.003392	0.809269	0.250078
C451	C	0.246608	1.059269	0.500078
C452	C	0.496608	1.309269	0.750078
H453	H	-0.283803	0.528663	0.000064
H454	H	-0.033803	0.778663	0.250064
H455	H	0.216197	1.028663	0.500064
H456	H	0.466197	1.278663	0.750064
H457	H	-0.230518	0.556827	0.051152
H458	H	0.019482	0.806827	0.301152
H459	H	0.269482	1.056827	0.551152
H460	H	0.519482	1.306827	0.801152
H461	H	-0.230511	0.556836	-0.051000
H462	H	0.019489	0.806836	0.199000
H463	H	0.269489	1.056836	0.449000
H464	H	0.519489	1.306836	0.699000
H465	H	-0.220904	0.206274	0.000104
H466	H	0.029096	0.456274	0.250104
H467	H	0.279096	0.706274	0.500104
H468	H	0.529096	0.956274	0.750104
C469	C	0.086080	0.256610	0.000043
C470	C	0.336080	0.506610	0.250043
C471	C	0.586080	0.756610	0.500043
C472	C	0.836080	1.006610	0.750043
H473	H	0.117310	0.234621	0.000032
H474	H	0.367310	0.484621	0.250032
H475	H	0.617310	0.734621	0.500032
H476	H	0.867310	0.984621	0.750032
H477	H	0.087972	0.280082	0.051109
H478	H	0.337972	0.530082	0.301109
H479	H	0.587972	0.780082	0.551109
H480	H	0.837972	1.030082	0.801109
H481	H	0.087961	0.280070	-0.051043
H482	H	0.337961	0.530070	0.198957
H483	H	0.587961	0.780070	0.448957
H484	H	0.837961	1.030070	0.698957
H485	H	-0.164417	-0.167631	0.000077
H486	H	0.085583	0.082369	0.250077
H487	H	0.335583	0.332369	0.500077
H488	H	0.585583	0.582369	0.750077
C489	C	0.032383	0.398050	0.000049
C490	C	0.282383	0.648050	0.250049
C491	C	0.532383	0.898050	0.500049
C492	C	0.782383	1.148050	0.750049
H493	H	0.062988	0.428462	0.000048
H494	H	0.312988	0.678462	0.250048
H495	H	0.562988	0.928462	0.500048
H496	H	0.812988	1.178462	0.750048
H497	H	0.034823	0.375169	-0.051019
H498	H	0.284823	0.625169	0.198981
H499	H	0.534823	0.875169	0.448981
H500	H	0.784823	1.125169	0.698981
H501	H	0.034821	0.375177	0.051133
H502	H	0.284821	0.625177	0.301133
H503	H	0.534821	0.875177	0.551133
H504	H	0.784821	1.125177	0.801133
C505	C	-0.658422	0.512108	0.000042
C506	C	-0.408422	0.762108	0.250042
C507	C	-0.158422	1.012108	0.500042
C508	C	0.091578	1.262108	0.750042
H509	H	-0.636432	0.480878	0.000051
H510	H	-0.386432	0.730878	0.250051
H511	H	-0.136432	0.980878	0.500051
H512	H	0.113568	1.230878	0.750051
H513	H	-0.681889	0.510219	-0.051027
H514	H	-0.431889	0.760219	0.198973
H515	H	-0.181889	1.010219	0.448973
H516	H	0.068111	1.260219	0.698973
H517	H	-0.681886	0.510225	0.051125
H518	H	-0.431886	0.760225	0.301125
H519	H	-0.181886	1.010225	0.551125
H520	H	0.068114	1.260225	0.801125
C521	C	0.030884	0.522786	0.000045
C522	C	0.280884	0.772786	0.250045
C523	C	0.530884	1.022786	0.500045
C524	C	0.780884	1.272786	0.750045
H525	H	0.022968	0.561401	0.000052
H526	H	0.272968	0.811401	0.250052
H527	H	0.522968	1.061401	0.500052
H528	H	0.772968	1.311401	0.750052
H529	H	0.052339	0.515963	-0.051027
H530	H	0.302339	0.765963	0.198973
H531	H	0.552339	1.015963	0.448973
H532	H	0.802339	1.265963	0.698973
H533	H	0.052332	0.515961	0.051125
H534	H	0.302332	0.765961	0.301125
H535	H	0.552332	1.015961	0.551125
H536	H	0.802332	1.265961	0.801125
H537	H	-0.806326	0.580742	0.000041
H538	H	-0.556326	0.830742	0.250041
H539	H	-0.306326	1.080742	0.500041
H540	H	-0.056326	1.330742	0.750041
H541	H	-0.341948	0.763900	0.000087
H542	H	-0.091948	1.013900	0.250087
H543	H	0.158052	1.263900	0.500087
H544	H	0.408052	1.513900	0.750087
C545	C	-0.533706	0.510615	0.000040
C546	C	-0.283706	0.760615	0.250040
C547	C	-0.033706	1.010615	0.500040
C548	C	0.216294	1.260615	0.750040
H549	H	-0.564121	0.480011	0.000027
H550	H	-0.314121	0.730011	0.250027
H551	H	-0.064121	0.980011	0.500027
H552	H	0.185879	1.230011	0.750027
H553	H	-0.510832	0.508169	0.051111
H554	H	-0.260832	0.758169	0.301111
H555	H	-0.010832	1.008169	0.551111
H556	H	0.239168	1.258169	0.801111
H557	H	-0.510829	0.508180	-0.051041
H558	H	-0.260829	0.758180	0.198959
H559	H	-0.010829	1.008180	0.448959
H560	H	0.239171	1.258180	0.698959
H561	H	-0.165712	-0.059864	0.000083
H562	H	0.084288	0.190136	0.250083
H563	H	0.334288	0.440136	0.500083
H564	H	0.584288	0.690136	0.750083
C565	C	-0.770150	0.783885	0.000051
C566	C	-0.520150	1.033885	0.250051
C567	C	-0.270150	1.283885	0.500051
C568	C	-0.020150	1.533885	0.750051
H569	H	-0.792137	0.815117	0.000062
H570	H	-0.542137	1.065117	0.250062
H571	H	-0.292137	1.315117	0.500062
H572	H	-0.042137	1.565117	0.750062
H573	H	-0.746678	0.785775	-0.051019
H574	H	-0.496678	1.035775	0.198981
H575	H	-0.246678	1.285775	0.448981
H576	H	0.003322	1.535775	0.698981
H577	H	-0.746689	0.785764	0.051133
H578	H	-0.496689	1.035764	0.301133
H579	H	-0.246689	1.285764	0.551133
H580	H	0.003311	1.535764	0.801133
C581	C	-0.924595	0.567303	0.000023
C582	C	-0.674595	0.817303	0.250023
C583	C	-0.424595	1.067303	0.500023
C584	C	-0.174595	1.317303	0.750023
H585	H	-0.902618	0.536063	0.000028
H586	H	-0.652618	0.786063	0.250028
H587	H	-0.402618	1.036063	0.500028
H588	H	-0.152618	1.286063	0.750028
H589	H	-0.948057	0.565428	-0.051051
H590	H	-0.698057	0.815428	0.198949
H591	H	-0.448057	1.065428	0.448949
H592	H	-0.198057	1.315428	0.698949
H593	H	-0.948064	0.565422	0.051101
H594	H	-0.698064	0.815422	0.301101
H595	H	-0.448064	1.065422	0.551101
H596	H	-0.198064	1.315422	0.801101
H597	H	-0.234180	0.762605	0.000093
H598	H	0.015820	1.012605	0.250093
H599	H	0.265820	1.262605	0.500093
H600	H	0.515820	1.512605	0.750093
C601	C	-0.614549	0.834030	0.000017
C602	C	-0.364549	1.084030	0.250017
C603	C	-0.114549	1.334030	0.500017
C604	C	0.135451	1.584030	0.750017
H605	H	-0.584133	0.864632	0.000006
H606	H	-0.334133	1.114632	0.250006
H607	H	-0.084133	1.364632	0.500006
H608	H	0.165867	1.614632	0.750006
H609	H	-0.637431	0.836477	0.051084
H610	H	-0.387431	1.086477	0.301084
H611	H	-0.137431	1.336477	0.551084
H612	H	0.112569	1.586477	0.801084
H613	H	-0.637418	0.836465	-0.051069
H614	H	-0.387418	1.086465	0.198931
H615	H	-0.137418	1.336465	0.448931
H616	H	0.112582	1.586465	0.698931
H617	H	-0.500336	0.817798	0.000026
H618	H	-0.250336	1.067798	0.250026
H619	H	-0.000336	1.317798	0.500026
H620	H	0.249664	1.567798	0.750026
