data_functionalizedCrystal
_audit_creation_method	'MofGen! by Chris Wilmer'
_symmetry_space_group_name_H-M	'P1'
_symmetry_Int_Tables_number	1
_symmetry_cell_setting	triclinic
loop_
_symmetry_equiv_pos_as_xyz
  x,y,z
_cell_length_a	12.759401
_cell_length_b	13.897448
_cell_length_c	12.759393
_cell_angle_alpha	89.968828
_cell_angle_beta	89.980186
_cell_angle_gamma	90.019217
loop_
_atom_site_label
_atom_site_type_symbol
_atom_site_fract_x
_atom_site_fract_y
_atom_site_fract_z
Zn1	Zn	1.606233	-0.383939	-0.594007
Zn2	Zn	1.606118	-0.545263	-0.418322
Zn3	Zn	1.430535	-0.383988	-0.418342
Zn4	Zn	1.430514	-0.545198	-0.593959
O5	O	1.518350	-0.464597	-0.506158
O6	O	1.753239	-0.405346	-0.570714
O7	O	1.582787	-0.523916	-0.271303
O8	O	1.453898	-0.249000	-0.441673
O9	O	1.753154	-0.523870	-0.441638
O10	O	1.582983	-0.248964	-0.570734
O11	O	1.453787	-0.405428	-0.271318
O12	O	1.283511	-0.405366	-0.441627
O13	O	1.453863	-0.523760	-0.740987
O14	O	1.283496	-0.523807	-0.570652
O15	O	1.582963	-0.405284	-0.741022
O16	O	1.582767	-0.680236	-0.441592
O17	O	1.453752	-0.680189	-0.570632
C18	C	1.245383	-0.464585	-0.506137
C19	C	1.128606	-0.464603	-0.506153
C20	C	1.518273	-0.715211	-0.506127
C21	C	1.518337	-0.822425	-0.506149
C22	C	1.073764	-0.526369	-0.573230
C23	C	0.964040	-0.526373	-0.573251
C24	C	0.964010	-0.402842	-0.439108
C25	C	1.073732	-0.402834	-0.439093
C26	C	0.814139	-0.560987	-0.697110
C27	C	0.759293	-0.622768	-0.764179
C28	C	0.794885	-0.716903	-0.780123
C29	C	0.885322	-0.749276	-0.728984
C30	C	0.940162	-0.687500	-0.661908
C31	C	0.904572	-0.593352	-0.645984
C32	C	1.223634	-0.368231	-0.315232
C33	C	1.278477	-0.306459	-0.248150
C34	C	1.242887	-0.212322	-0.232195
C35	C	1.152447	-0.179953	-0.283315
C36	C	1.097605	-0.241724	-0.350397
C37	C	1.133202	-0.335860	-0.366354
C38	C	1.518447	-1.018720	-0.506215
C39	C	1.518383	-0.909488	-0.506182
C40	C	1.792383	-0.464610	-0.506179
C41	C	1.909160	-0.464615	-0.506188
C42	C	1.518423	-0.464509	-0.780191
C43	C	1.518455	-0.464472	-0.896968
C44	C	1.518456	-0.213004	-0.506211
C45	C	1.518501	-0.105790	-0.506234
C46	C	1.585628	-0.526141	-0.951826
C47	C	1.585659	-0.526093	-1.061550
C48	C	1.451333	-0.402704	-1.061548
C49	C	1.451308	-0.402748	-0.951826
C50	C	1.709583	-0.560506	-1.211511
C51	C	1.776748	-0.622190	-1.266373
C52	C	1.792829	-0.716325	-1.230752
C53	C	1.741730	-0.748794	-1.140272
C54	C	1.674557	-0.687115	-1.085416
C55	C	1.658496	-0.592967	-1.121035
C56	C	1.327383	-0.368346	-0.801863
C57	C	1.260205	-0.306671	-0.747005
C58	C	1.244113	-0.212534	-0.782623
C59	C	1.295193	-0.180068	-0.873107
C60	C	1.362372	-0.241743	-0.927965
C61	C	1.378465	-0.335879	-0.892339
C62	C	1.518338	-0.464615	-0.233190
C63	C	1.518510	-0.464381	-0.116414
H64	H	1.118439	-0.576664	-0.627837
O65	O	1.279377	-0.088643	-0.907691
C66	C	1.172152	-0.075228	-0.929997
H67	H	1.123756	-0.129630	-0.883783
H68	H	1.147931	0.000788	-0.906807
H69	H	1.158064	-0.085993	-1.017435
H70	H	1.189402	-0.162322	-0.737952
H71	H	0.785159	-0.484331	-0.684145
H72	H	1.696507	-0.483851	-1.240515
O73	O	1.210523	-0.338354	-0.659204
C74	C	1.146856	-0.417957	-0.684500
H75	H	1.177471	-0.453425	-0.759002
H76	H	1.148750	-0.472115	-0.617390
H77	H	1.062867	-0.392703	-0.697561
H78	H	1.287545	-0.162032	-0.177562
O79	O	0.741779	-0.776964	-0.845360
C80	C	0.808312	-0.806298	-0.927596
H81	H	0.893479	-0.798974	-0.901826
H82	H	0.791285	-0.884565	-0.948201
H83	H	0.793972	-0.759079	-0.999257
O84	O	1.342997	-0.459854	-0.767442
C85	C	1.311374	-0.525354	-0.845638
H86	H	1.313485	-0.488309	-0.925348
H87	H	1.366826	-0.589654	-0.846231
H88	H	1.228243	-0.551063	-0.828568
H89	H	1.396663	-0.352453	-1.106228
O90	O	0.910541	-0.342935	-0.374001
C91	C	0.801936	-0.356168	-0.388415
H92	H	0.786945	-0.430650	-0.422677
H93	H	0.760199	-0.349533	-0.309739
H94	H	0.770844	-0.299021	-0.444483
H95	H	1.754818	-0.825453	-1.111285
H96	H	1.403978	-0.215297	-1.001633
H97	H	1.632950	-0.713553	-1.011752
H98	H	1.023969	-0.215358	-0.392030
O99	O	1.858141	-0.776108	-1.284141
C100	C	1.899765	-0.727276	-1.371653
H101	H	1.896349	-0.646371	-1.357373
H102	H	1.984680	-0.750105	-1.384021
H103	H	1.851928	-0.745866	-1.444327
H104	H	1.013793	-0.713858	-0.620271
O105	O	0.920008	-0.840709	-0.744315
C106	C	1.011600	-0.856024	-0.684821
H107	H	1.013834	-0.802943	-0.616772
H108	H	1.011626	-0.932676	-0.652959
H109	H	1.083401	-0.844838	-0.736621
O110	O	0.671496	-0.591154	-0.813814
C111	C	0.651832	-0.494819	-0.785354
H112	H	0.727785	-0.459829	-0.757776
H113	H	0.620117	-0.453873	-0.855986
H114	H	0.591693	-0.492854	-0.719289
H115	H	1.123457	-0.103305	-0.270307
H116	H	1.352118	-0.332823	-0.206525
H117	H	1.818354	-0.595744	-1.340041
H118	H	1.252627	-0.444882	-0.328227
H119	H	1.640313	-0.576392	-0.907163
