data_functionalizedCrystal
_audit_creation_method	'MofGen! by Chris Wilmer'
_symmetry_space_group_name_H-M	'P1'
_symmetry_Int_Tables_number	1
_symmetry_cell_setting	triclinic
loop_
_symmetry_equiv_pos_as_xyz
  x,y,z
_cell_length_a	13.262402
_cell_length_b	13.262508
_cell_length_c	12.376457
_cell_angle_alpha	116.815184
_cell_angle_beta	94.181204
_cell_angle_gamma	80.095424
loop_
_atom_site_label
_atom_site_type_symbol
_atom_site_fract_x
_atom_site_fract_y
_atom_site_fract_z
O1	O	1.312701	0.221913	0.377857
O2	O	1.026210	0.218270	0.288645
O3	O	1.186652	0.057835	0.288655
O4	O	1.152259	0.382347	0.377847
O5	O	1.146558	0.097887	0.476652
O6	O	0.986116	0.258321	0.476642
O7	O	1.272607	0.261964	0.565854
Zn8	Zn	1.122996	0.266501	0.551096
Zn9	Zn	1.175821	0.213732	0.303402
O10	O	1.112166	0.422398	0.565843
C11	C	0.969676	0.234814	0.370354
C12	C	0.860958	0.224429	0.333731
C13	C	1.168364	0.036136	0.370364
C14	C	1.173594	-0.088193	0.333742
C15	C	0.831736	0.197716	0.214045
C16	C	0.729588	0.187970	0.179640
C17	C	0.656651	0.204927	0.264917
C18	C	0.685874	0.231632	0.384603
C19	C	0.788031	0.241389	0.419013
C20	C	0.612946	0.248599	0.469885
C21	C	0.642168	0.275305	0.589572
C22	C	0.744316	0.285059	0.623976
C23	C	0.817252	0.268102	0.538700
C24	C	0.510789	0.238843	0.435475
C25	C	0.467083	0.282516	0.640444
C26	C	0.569232	0.292262	0.674848
C27	C	1.100909	-0.351339	0.640430
C28	C	1.095987	-0.234525	0.674837
C29	C	1.115389	-0.197936	0.589567
C30	C	1.139713	-0.278173	0.469883
C31	C	1.144627	-0.394998	0.435470
C32	C	1.159107	-0.241595	0.384606
C33	C	1.183431	-0.321832	0.264922
C34	C	1.188345	-0.438645	0.230515
C35	C	1.168943	-0.475234	0.315786
C36	C	1.154192	-0.124770	0.419019
C37	C	1.197910	-0.168429	0.214058
C38	C	1.202832	-0.285243	0.179651
C39	C	1.329142	0.245419	0.484143
C40	C	1.437862	0.255803	0.520758
C41	C	1.130454	0.444098	0.484132
C42	C	1.125225	0.568425	0.520747
N43	N	1.086952	0.302515	0.720143
N44	N	1.211874	0.177711	0.134355
C45	C	1.295546	0.094090	1.075191
C46	C	1.320768	0.068884	0.956858
C47	C	1.262316	0.127289	0.897673
C48	C	1.178638	0.210906	0.956834
C49	C	1.153418	0.236121	1.075183
C50	C	1.120188	0.269320	0.897665
C51	C	1.036510	0.352936	0.956826
C52	C	1.011294	0.378147	1.075162
C53	C	1.069746	0.319741	1.134347
C54	C	1.145408	0.244105	0.779316
C55	C	1.003280	0.386135	0.779307
C56	C	0.978057	0.411342	0.897641
H57	H	0.487007	0.217101	0.338026
C58	C	1.412800	-0.023092	0.891785
H59	H	1.443994	-0.054274	0.943974
H60	H	1.461128	0.010403	0.870765
H61	H	1.390050	-0.082171	0.820472
C62	C	1.109987	-0.069445	0.627416
H63	H	1.092732	-0.026900	0.710910
H64	H	1.059321	-0.046836	0.580931
H65	H	1.174592	-0.055323	0.613782
C66	C	1.069244	-0.146275	0.806481
H67	H	1.058404	-0.184795	0.852340
H68	H	1.008786	-0.095558	0.807749
H69	H	1.124061	-0.104038	0.840582
H70	H	0.943165	0.446241	1.123336
C71	C	0.776462	0.314444	0.755628
H72	H	0.847743	0.317835	0.763908
H73	H	0.761978	0.257189	0.775687
H74	H	0.739505	0.386456	0.808509
H75	H	0.909925	0.479425	0.945825
C76	C	1.237449	0.152141	0.714250
H77	H	1.244109	0.145495	0.635298
H78	H	1.226992	0.080804	0.708500
H79	H	1.298045	0.173403	0.758807
C80	C	1.079572	-0.391590	0.734212
H81	H	1.085989	-0.472655	0.696575
H82	H	1.012153	-0.359243	0.765541
H83	H	1.127427	-0.367719	0.798378
C84	C	1.174322	-0.603729	0.277924
H85	H	1.191577	-0.646276	0.194431
H86	H	1.109719	-0.617832	0.291576
H87	H	1.224996	-0.626353	0.324398
H88	H	0.955684	0.433697	0.731121
C89	C	1.215084	-0.526901	0.098863
H90	H	1.225940	-0.488384	0.053007
H91	H	1.160274	-0.569140	0.064764
H92	H	1.275548	-0.577618	0.097597
C93	C	0.601383	0.321648	0.806499
H94	H	0.672665	0.325036	0.814774
H95	H	0.586899	0.264395	0.826562
H96	H	0.564429	0.393661	0.859381
H97	H	1.343135	0.046550	1.123390
H98	H	0.573478	0.196990	0.236897
H99	H	1.222636	-0.350588	0.082202
H100	H	0.407697	0.296327	0.709884
H101	H	1.213702	-0.138640	0.144622
H102	H	1.282856	0.106762	0.801320
C103	C	0.697443	0.158594	0.047999
H104	H	0.626159	0.155225	0.039722
H105	H	0.734397	0.086592	-0.004888
H106	H	0.711929	0.215862	0.027951
H107	H	1.049208	0.340261	1.230702
H108	H	0.891127	0.183921	0.144628
H109	H	0.900433	0.276028	0.566704
H110	H	1.134379	-0.059451	0.516464
