data_functionalizedCrystal
_audit_creation_method	'MofGen! by Chris Wilmer'
_symmetry_space_group_name_H-M	'P1'
_symmetry_Int_Tables_number	1
_symmetry_cell_setting	triclinic
loop_
_symmetry_equiv_pos_as_xyz
  x,y,z
_cell_length_a	15.944493
_cell_length_b	15.944551
_cell_length_c	14.750779
_cell_angle_alpha	77.355667
_cell_angle_beta	102.640452
_cell_angle_gamma	83.486891
loop_
_atom_site_label
_atom_site_type_symbol
_atom_site_fract_x
_atom_site_fract_y
_atom_site_fract_z
O1	O	1.096324	0.126325	-0.079816
O2	O	0.851766	0.139733	-0.079821
O3	O	0.980725	0.010750	-0.079810
O4	O	0.967365	0.255307	-0.079827
O5	O	1.017181	-0.025707	0.079844
O6	O	0.888221	0.103275	0.079833
O7	O	1.132779	0.089867	0.079837
Zn8	Zn	1.016288	0.090782	0.105183
Zn9	Zn	0.968257	0.138817	-0.105167
O10	O	1.003820	0.218849	0.079826
C11	C	0.838699	0.120956	0.000005
C12	C	0.745450	0.119314	0.000004
C13	C	0.509689	0.195235	-0.000003
C14	C	0.477106	0.136317	0.078722
C15	C	0.574729	0.116269	0.000006
C16	C	0.441169	0.172243	-0.078684
C17	C	0.409819	0.113335	0.000003
C18	C	0.543390	0.057357	0.078795
C19	C	0.507440	0.093311	-0.078681
C20	C	0.474895	0.034330	0.000062
C21	C	0.669730	0.117961	0.000008
C22	C	0.314823	0.111635	0.000008
C23	C	0.998398	-0.038772	0.000017
C24	C	0.996736	-0.132018	0.000018
C25	C	0.912826	-0.346854	0.000003
C26	C	0.969764	-0.425855	0.078722
C27	C	0.993727	-0.302742	0.000010
C28	C	0.933842	-0.389894	-0.078683
C29	C	0.990814	-0.467651	-0.000001
C30	C	1.050703	-0.380530	0.078795
C31	C	1.014752	-0.344546	-0.078682
C32	C	1.071754	-0.423534	0.000057
C33	C	0.995403	-0.207741	0.000018
C34	C	0.989145	-0.562652	-0.000002
C35	C	1.145846	0.108644	0.000009
C36	C	1.239093	0.110288	0.000004
C37	C	0.986146	0.268372	-0.000003
C38	C	0.987807	0.361620	-0.000010
N39	N	1.049074	0.057999	0.248742
N40	N	0.935478	0.171593	-0.248726
C41	C	0.843910	0.263114	0.600542
C42	C	0.866891	0.240148	0.701043
C43	C	0.981108	0.125976	0.701016
C44	C	0.958134	0.148930	0.600513
C45	C	0.889535	0.217501	0.550284
C46	C	1.003759	0.103316	0.550255
C47	C	0.980789	0.126272	0.449760
C48	C	0.912195	0.194841	0.399524
C49	C	0.866566	0.240456	0.449790
C50	C	1.072361	0.034750	0.600485
C51	C	1.117986	-0.010863	0.550227
C52	C	1.095013	0.012088	0.449731
C53	C	1.026419	0.080657	0.399495
C54	C	1.140642	-0.033527	0.399465
C55	C	1.117673	-0.010571	0.298971
C56	C	1.003450	0.103613	0.299000
H57	H	0.459440	-0.033752	0.000113
C58	C	0.526033	0.068830	-0.168587
C59	C	0.476687	0.124991	-0.269218
C60	C	0.495279	0.100521	-0.359132
C61	C	0.563217	0.019890	-0.348416
C62	C	0.612568	-0.036276	-0.247781
C63	C	0.593976	-0.011806	-0.157866
H64	H	0.426391	0.184684	-0.277154
H65	H	0.458746	0.142099	-0.433629
H66	H	0.576981	0.001775	-0.414976
H67	H	0.662864	-0.095969	-0.239844
H68	H	0.630509	-0.053384	-0.083369
C69	C	0.867075	-0.396492	-0.168589
C70	C	0.770122	-0.358317	-0.185861
C71	C	0.703350	-0.364912	-0.275761
C72	C	0.733531	-0.409683	-0.348389
C73	C	0.830488	-0.447861	-0.331119
C74	C	0.897261	-0.441266	-0.241219
H75	H	0.747776	-0.325173	-0.132095
H76	H	0.631575	-0.336650	-0.288544
H77	H	0.684102	-0.414565	-0.414938
H78	H	0.852835	-0.481006	-0.384885
H79	H	0.969035	-0.469528	-0.228436
H80	H	1.138973	-0.456718	0.000103
H81	H	1.173842	-0.066692	0.591135
C82	C	0.886925	0.220095	0.288979
C83	C	0.857173	0.152770	0.233711
C84	C	0.831902	0.178024	0.123166
C85	C	0.836384	0.270602	0.067889
C86	C	0.866138	0.337933	0.123157
C87	C	0.891408	0.312680	0.233702
H88	H	0.853854	0.084233	0.274630
H89	H	0.809877	0.128180	0.082254
H90	H	0.817678	0.289296	-0.013943
H91	H	0.869457	0.406471	0.082237
H92	H	0.913434	0.362523	0.274614
H93	H	0.810700	0.296287	0.408891
H94	H	0.463365	0.154468	0.145272
H95	H	0.845694	-0.313550	0.000080
H96	H	0.950743	-0.461154	0.145272
C97	C	1.040409	-0.296820	-0.168587
C98	C	0.983471	-0.291410	-0.269218
C99	C	1.009118	-0.243678	-0.359133
C100	C	1.091703	-0.201358	-0.348417
C101	C	1.148646	-0.206767	-0.247782
C102	C	1.122999	-0.254498	-0.157868
H103	H	0.922332	-0.322739	-0.277154
H104	H	0.966965	-0.239674	-0.433629
H105	H	1.110688	-0.166024	-0.414977
H106	H	1.209785	-0.175437	-0.239846
H107	H	1.165153	-0.258502	-0.083371
C108	C	1.117439	-0.374096	0.168805
C109	C	1.131312	-0.284092	0.185465
C110	C	1.198043	-0.277656	0.275475
C111	C	1.250902	-0.361224	0.348825
C112	C	1.237030	-0.451235	0.332167
C113	C	1.170299	-0.457671	0.242157
H114	H	1.092181	-0.222224	0.131165
H115	H	1.208312	-0.211023	0.287806
H116	H	1.300301	-0.356460	0.415456
H117	H	1.276161	-0.513103	0.386467
H118	H	1.160031	-0.524303	0.229826
C119	C	1.167858	-0.060747	0.243682
C120	C	1.119246	-0.109218	0.174600
C121	C	1.169436	-0.159393	0.119312
C122	C	1.268237	-0.161098	0.133104
C123	C	1.316854	-0.112626	0.202189
C124	C	1.266664	-0.062451	0.257477
H125	H	1.046103	-0.107957	0.164387
H126	H	1.133446	-0.195275	0.068171
H127	H	1.305390	-0.198241	0.092176
H128	H	1.389997	-0.113887	0.212401
H129	H	1.302654	-0.026569	0.308618
H130	H	0.947584	0.159444	0.258102
H131	H	0.829732	0.277299	0.741959
C132	C	0.530833	0.287098	0.000089
C133	C	0.520000	0.327456	0.083482
C134	C	0.541146	0.419315	0.083579
C135	C	0.573126	0.470815	0.000284
C136	C	0.583961	0.430457	-0.083115
C137	C	0.562814	0.338598	-0.083212
H138	H	0.496325	0.289332	0.145148
H139	H	0.533126	0.449190	0.145317
H140	H	0.588780	0.538814	0.000356
H141	H	0.607635	0.468581	-0.144781
H142	H	0.570834	0.308723	-0.144950
C143	C	1.056562	0.050548	0.756270
C144	C	1.039532	-0.029488	0.825367
C145	C	1.114986	-0.104919	0.880618
C146	C	1.207470	-0.100314	0.866772
C147	C	1.224504	-0.020275	0.797673
C148	C	1.149051	0.055156	0.742422
H149	H	0.971066	-0.032900	0.835618
H150	H	1.102375	-0.164169	0.931769
H151	H	1.263325	-0.156152	0.907672
H152	H	1.292970	-0.016863	0.787421
H153	H	1.161661	0.114407	0.691270
H154	H	1.091063	0.016065	0.682314
C155	C	1.216102	-0.108948	0.454722
C156	C	1.211539	-0.201448	0.440913
C157	C	1.287001	-0.276870	0.496168
C158	C	1.367025	-0.259793	0.565232
C159	C	1.371591	-0.167289	0.579044
C160	C	1.296130	-0.091867	0.523789
H161	H	1.152297	-0.214093	0.389785
H162	H	1.283620	-0.345347	0.485943
H163	H	1.422886	-0.315625	0.606134
H164	H	1.430833	-0.154643	0.630172
H165	H	1.299511	-0.023389	0.534014
C166	C	0.602878	-0.008212	0.168805
C167	C	0.702687	-0.018720	0.185461
C168	C	0.762176	-0.084285	0.275471
C169	C	0.721855	-0.139342	0.348826
C170	C	0.622041	-0.128835	0.332173
C171	C	0.562552	-0.063270	0.242163
H172	H	0.732540	0.022038	0.131157
H173	H	0.836066	-0.092062	0.287798
H174	H	0.765893	-0.187877	0.415457
H175	H	0.592188	-0.169593	0.386476
H176	H	0.488662	-0.055493	0.229835
C177	C	0.381552	0.237838	-0.168590
C178	C	0.387386	0.335572	-0.185868
C179	C	0.327773	0.401172	-0.275769
C180	C	0.262325	0.369038	-0.348392
C181	C	0.256488	0.271298	-0.331116
C182	C	0.316101	0.205698	-0.241215
H183	H	0.435837	0.359364	-0.132106
H184	H	0.332095	0.473525	-0.288557
H185	H	0.218196	0.417599	-0.414942
H186	H	0.208037	0.247506	-0.384878
H187	H	0.311780	0.133345	-0.228427
H188	H	0.788045	0.318945	0.559644
