data_functionalizedCrystal
_audit_creation_method	'MofGen! by Chris Wilmer'
_symmetry_space_group_name_H-M	'P1'
_symmetry_Int_Tables_number	1
_symmetry_cell_setting	triclinic
loop_
_symmetry_equiv_pos_as_xyz
  x,y,z
_cell_length_a	6.817900
_cell_length_b	16.255699
_cell_length_c	13.923258
_cell_angle_alpha	96.958033
_cell_angle_beta	81.871755
_cell_angle_gamma	76.510596
loop_
_atom_site_label
_atom_site_type_symbol
_atom_site_fract_x
_atom_site_fract_y
_atom_site_fract_z
V1	V	3.967942	-0.118877	-0.303140
O2	O	3.956608	0.003875	-0.297038
O3	O	3.919830	-0.233946	-0.301386
O4	O	3.893902	-0.117855	-0.435204
O5	O	3.982715	-0.113020	-0.162293
V6	V	4.454855	-0.104099	-0.286255
O7	O	4.221764	-0.151294	-0.340179
O8	O	4.651230	-0.071683	-0.249216
O9	O	4.279761	0.010969	-0.288009
O10	O	4.583586	-0.226852	-0.292357
O11	O	4.557479	-0.109957	-0.427102
O12	O	4.305688	-0.105122	-0.154190
C13	C	3.765730	-0.261972	-0.296686
C14	C	3.807509	-0.356048	-0.296132
C15	C	3.732657	-0.113886	-0.467384
C16	C	3.753407	-0.113811	-0.575349
C17	C	3.719320	-0.578837	-0.289782
C18	C	3.818148	-0.625994	-0.211519
C19	C	3.884097	-0.528296	-0.295164
C20	C	3.859733	-0.648766	-0.372450
C21	C	3.958064	-0.694680	-0.294233
C22	C	3.982358	-0.574205	-0.216842
C23	C	4.023932	-0.596982	-0.377844
C24	C	4.122882	-0.644114	-0.299565
C25	C	3.841480	-0.432446	-0.295699
C26	C	4.000693	-0.790528	-0.293691
C27	C	4.097203	0.038991	-0.292707
C28	C	4.034661	0.133066	-0.293267
C29	C	4.130277	-0.109094	-0.122006
C30	C	4.088766	-0.109164	-0.014040
C31	C	4.012808	-0.109435	0.183608
C32	C	3.829369	-0.113540	0.227010
C33	C	3.787103	-0.113691	0.336988
C34	C	4.055083	-0.109284	0.073620
H35	H	3.548314	-0.550309	-0.285551
C36	C	4.223685	-0.177850	0.290209
C37	C	4.181969	-0.104855	0.244938
H38	H	4.328122	-0.175026	0.328074
H39	H	4.103037	-0.180435	0.331886
H40	H	4.268222	-0.227595	0.241365
H41	H	4.137418	-0.055110	0.293782
H42	H	4.302642	-0.102262	0.203258
H43	H	3.731593	-0.639186	-0.141192
H44	H	4.293918	-0.672471	-0.303676
C45	C	4.011581	-0.442214	-0.129244
C46	C	4.051731	-0.530533	-0.127966
H47	H	4.054393	-0.415254	-0.074372
H48	H	4.084302	-0.432144	-0.188218
H49	H	3.868809	-0.419347	-0.125992
H50	H	4.194506	-0.553401	-0.131225
H51	H	3.979015	-0.540610	-0.068976
C52	C	4.075597	-0.617039	-0.554152
C53	C	4.140666	-0.579131	-0.472780
H54	H	4.147646	-0.606013	-0.612766
H55	H	4.102243	-0.677139	-0.554792
H56	H	3.932773	-0.593663	-0.550091
H57	H	4.283488	-0.602513	-0.476838
H58	H	4.114036	-0.519020	-0.472141
C59	C	3.599389	-0.193916	0.173766
C60	C	3.660208	-0.118140	0.165676
H61	H	3.494957	-0.196754	0.135902
H62	H	3.713564	-0.241766	0.150183
H63	H	3.548368	-0.194611	0.240702
H64	H	3.711244	-0.117448	0.098740
H65	H	3.546012	-0.070277	0.189254
C66	C	3.579458	-0.659409	-0.455897
C67	C	3.790273	-0.692563	-0.461217
H68	H	3.536573	-0.686441	-0.510700
H69	H	3.507755	-0.669862	-0.396876
H70	H	3.551081	-0.599439	-0.456526
H71	H	3.818648	-0.752532	-0.460582
H72	H	3.861999	-0.682117	-0.520255
