data_functionalizedCrystal
_audit_creation_method	'MofGen! by Chris Wilmer'
_symmetry_space_group_name_H-M	'P1'
_symmetry_Int_Tables_number	1
_symmetry_cell_setting	triclinic
loop_
_symmetry_equiv_pos_as_xyz
  x,y,z
_cell_length_a	19.902436
_cell_length_b	14.446369
_cell_length_c	19.902436
_cell_angle_alpha	60.002680
_cell_angle_beta	90.005183
_cell_angle_gamma	59.998044
loop_
_atom_site_label
_atom_site_type_symbol
_atom_site_fract_x
_atom_site_fract_y
_atom_site_fract_z
Zr1	Zr	0.647325	1.013126	-0.088152
O2	O	0.540031	1.206250	-0.195449
O3	O	0.680215	0.820006	-0.055256
O4	O	0.680213	1.013108	-0.195431
O5	O	0.540036	1.013161	0.055294
O6	O	0.790792	1.013090	-0.195422
O7	O	0.540034	1.013147	-0.055274
O8	O	0.790796	0.667665	0.055326
O9	O	0.540032	1.358586	-0.195454
O10	O	0.776767	0.899424	-0.041225
O11	O	0.694246	0.899447	0.041284
O12	O	0.694243	1.126801	-0.123754
O13	O	0.611721	1.126824	-0.041245
Zr14	Zr	0.823690	1.013118	0.088204
Zr15	Zr	0.823685	1.013098	-0.088138
Zr16	Zr	0.647329	1.013147	0.088190
Zr17	Zr	0.647326	1.256084	-0.088160
Zr18	Zr	0.823688	0.770161	0.088212
O19	O	0.790799	1.206239	0.055308
O20	O	0.790793	1.206209	-0.195428
O21	O	0.540038	1.206280	0.055287
O22	O	0.930983	0.819995	0.195501
O23	O	0.930977	0.819965	-0.055235
O24	O	0.680222	0.820035	0.195480
O25	O	0.930978	1.013084	-0.055242
O26	O	0.790802	1.013137	0.195483
O27	O	0.680223	1.013154	0.195474
O28	O	0.930981	1.013097	0.055326
O29	O	0.680215	1.358563	-0.195442
O30	O	0.790799	0.667682	0.195494
O31	O	0.930982	0.667659	0.195506
O32	O	0.930979	0.667642	0.055337
O33	O	0.540036	1.358602	-0.055285
O34	O	0.680219	1.358580	-0.055274
O35	O	0.776772	0.899444	0.123806
O36	O	0.859293	0.899421	0.041297
O37	O	0.776769	1.126797	-0.041232
O38	O	0.694247	1.126820	0.041277
C39	C	0.735505	0.709219	0.000036
C40	C	0.735505	0.606077	0.000040
C41	C	0.683708	0.459082	0.052316
C42	C	0.683426	0.566702	0.052105
C43	C	0.697534	0.655069	-0.089631
C44	C	0.697145	0.547836	-0.089360
C45	C	0.825309	0.372609	0.036662
C46	C	0.825177	0.478760	0.038492
C47	C	0.514907	1.013158	0.000008
C48	C	0.440038	1.013170	0.000002
C49	C	0.168036	1.013106	0.000034
C50	C	0.144468	1.156539	-0.051778
C51	C	0.222306	1.156629	-0.052066
C52	C	0.302979	1.013139	0.000018
C53	C	0.300566	0.941899	-0.037938
C54	C	0.222339	0.942816	-0.038321
C55	C	0.223329	0.939885	0.089825
C56	C	0.300250	0.942581	0.089687
C57	C	0.379246	1.013150	0.000010
C58	C	0.091771	1.013091	0.000039
C59	C	0.956107	1.013086	0.000044
C60	C	1.030977	1.013074	0.000050
C61	C	0.735502	1.013096	-0.220552
C62	C	0.735500	1.013087	-0.295413
C63	C	0.735509	1.317026	0.000016
C64	C	0.735510	1.420168	0.000012
C65	C	0.735505	1.013111	-0.432493
C66	C	0.787559	0.869689	-0.408952
C67	C	0.787840	0.869632	-0.486801
C68	C	0.735510	1.013133	-0.567455
C69	C	0.773201	1.084762	-0.565168
C70	C	0.773592	1.083814	-0.486930
C71	C	0.645731	1.085946	-0.487638
C72	C	0.645869	1.083277	-0.564570
C73	C	0.735512	1.013153	-0.643733
C74	C	0.735506	1.013096	-0.356216
C75	C	0.735513	1.013149	0.220603
C76	C	0.735515	1.013157	0.295465
C77	C	0.956105	0.709183	0.000054
C78	C	1.030974	0.606029	0.000064
C79	C	0.735511	0.709245	0.220614
C80	C	0.735512	0.606112	0.295479
C81	C	0.956111	0.709209	0.220632
C82	C	1.030982	0.606064	0.295503
C83	C	0.514904	1.317035	-0.220580
C84	C	0.440033	1.420181	-0.295451
C85	C	0.514909	1.317061	-0.000002
C86	C	0.440040	1.420216	-0.000012
C87	C	0.735504	1.316999	-0.220562
C88	C	0.735503	1.420133	-0.295427
C89	C	1.023056	0.557589	-0.043015
C90	C	1.093397	0.460678	-0.043023
C91	C	1.171655	0.412202	0.000054
C92	C	1.179571	0.460652	0.043134
C93	C	1.109232	0.557568	0.043136
C94	C	0.778590	0.557678	0.373720
C95	C	0.778588	0.460787	0.444070
C96	C	0.735512	0.412325	0.436179
C97	C	0.692429	0.460769	0.357930
C98	C	0.692427	0.557665	0.287581
C99	C	1.109225	0.557614	0.287595
C100	C	1.179581	0.460711	0.357938
C101	C	1.171692	0.412254	0.436188
C102	C	1.093440	0.460714	0.444095
C103	C	1.023086	0.557621	0.373753
C104	C	0.361790	1.468643	-0.287543
C105	C	0.291434	1.565575	-0.357886
C106	C	0.299323	1.614037	-0.436136
C107	C	0.377574	1.565571	-0.444043
C108	C	0.447928	1.468647	-0.373701
C109	C	0.447959	1.468666	0.043060
C110	C	0.377618	1.565604	0.043048
C111	C	0.299360	1.614083	-0.000031
C112	C	0.291443	1.565628	-0.043108
C113	C	0.361783	1.468699	-0.043100
C114	C	0.778587	1.468563	-0.287509
C115	C	0.778602	1.565455	-0.357846
C116	C	0.735527	1.613921	-0.436101
C117	C	0.692442	1.565480	-0.444017
C118	C	0.692432	1.468584	-0.373681
H119	H	0.617860	0.494852	0.027120
F120	F	0.386061	1.617151	0.088900
H121	H	0.709043	0.370218	0.118510
F122	F	0.646566	1.417060	-0.382121
F123	F	0.174567	1.008982	-0.124685
H124	H	0.242091	1.693009	-0.000030
H125	H	0.355351	1.429190	-0.223834
F126	F	0.208161	1.617135	-0.349454
H127	H	1.243299	0.421170	0.078205
F128	F	0.609064	1.014996	-0.563943
H129	H	0.853544	0.439162	0.104553
F130	F	1.085057	0.409129	0.527381
H131	H	0.738105	1.189060	-0.506264
F132	F	0.735523	0.309198	0.511059
F133	F	0.735543	1.717050	-0.510953
H134	H	0.708896	0.529995	0.118135
F135	F	1.262853	0.409150	0.349506
H136	H	0.732439	0.525857	-0.130447
F137	F	1.246577	0.309115	0.511047
H138	H	0.959380	0.597057	0.380203
H139	H	0.105303	1.212843	-0.026449
H140	H	1.115690	0.596996	0.078220
F141	F	0.824448	0.409244	0.527341
F142	F	1.117639	0.609174	0.204321
H143	H	0.299874	0.994524	0.118042
H144	H	0.242030	1.692959	-0.493407
F145	F	0.208148	1.617233	-0.088950
H146	H	0.511635	1.429190	-0.380149
H147	H	0.813663	1.429118	-0.223797
H148	H	0.383988	1.605042	-0.507763
H149	H	0.853391	0.813955	-0.369150
F150	F	0.596849	0.682790	0.018887
F151	F	0.646595	1.617083	-0.527308
F152	F	0.824457	1.616997	-0.349404
H153	H	0.631065	0.588541	-0.118699
H154	H	0.511674	1.429202	0.078145
F155	F	0.353343	1.417137	-0.088940
H156	H	0.813668	0.597124	0.380161
H157	H	0.357380	0.836395	-0.002015
F158	F	0.744457	0.692737	-0.142783
H159	H	0.632086	0.747383	-0.119170
F160	F	1.084954	0.409127	-0.088873
F161	F	0.219981	1.230130	-0.138640
F162	F	0.866760	0.250116	0.121656
F163	F	0.646578	0.609196	0.204313
F164	F	0.875994	0.338646	-0.012895
F165	F	0.879878	0.506846	-0.006121
F166	F	0.646588	0.409178	0.349544
H167	H	0.221029	1.212807	-0.026804
H168	H	0.104555	1.212554	-0.117615
F169	F	0.858709	1.020511	-0.567345
F170	F	0.302590	1.006551	-0.123480
F171	F	0.175866	0.999875	0.131273
F172	F	0.375343	0.805736	0.144388
F173	F	0.249376	0.801774	0.140519
F174	F	0.754827	0.796209	-0.485152
F175	F	0.754723	0.795702	-0.357628
F176	F	0.247624	0.805269	0.007807
F177	F	0.859927	1.018037	-0.439306
F178	F	0.874401	0.796509	-0.484621
F179	F	0.726005	1.222693	-0.639415
H180	H	0.614216	1.039725	-0.451226
F181	F	0.590990	1.220195	-0.639549
H182	H	0.959341	0.597056	-0.078103
F183	F	0.594805	1.224043	-0.513657
F184	F	1.246510	0.309053	0.000045
