data_functionalizedCrystal
_audit_creation_method	'MofGen! by Chris Wilmer'
_symmetry_space_group_name_H-M	'P1'
_symmetry_Int_Tables_number	1
_symmetry_cell_setting	triclinic
loop_
_symmetry_equiv_pos_as_xyz
  x,y,z
_cell_length_a	12.759401
_cell_length_b	25.639240
_cell_length_c	12.759393
_cell_angle_alpha	89.956840
_cell_angle_beta	89.980324
_cell_angle_gamma	90.033185
loop_
_atom_site_label
_atom_site_type_symbol
_atom_site_fract_x
_atom_site_fract_y
_atom_site_fract_z
Zn1	Zn	1.606135	-0.208120	-0.593892
Zn2	Zn	1.605970	-0.295565	-0.418174
Zn3	Zn	1.430433	-0.208146	-0.418231
Zn4	Zn	1.430370	-0.295526	-0.593815
O5	O	1.518227	-0.251839	-0.506028
O6	O	1.753134	-0.219724	-0.570591
O7	O	1.582643	-0.283995	-0.271160
O8	O	1.453836	-0.134977	-0.441590
O9	O	1.753013	-0.283970	-0.441491
O10	O	1.582923	-0.134958	-0.570647
O11	O	1.453676	-0.219769	-0.271202
O12	O	1.283404	-0.219732	-0.441514
O13	O	1.453728	-0.283905	-0.740846
O14	O	1.283357	-0.283930	-0.570515
O15	O	1.582861	-0.219687	-0.740903
O16	O	1.582581	-0.368725	-0.441416
O17	O	1.453568	-0.368697	-0.570459
C18	C	1.245260	-0.251830	-0.506013
C19	C	1.128483	-0.251839	-0.506032
C20	C	1.073684	-0.218447	-0.573358
C21	C	0.963960	-0.218452	-0.573364
C22	C	0.963843	-0.285246	-0.438717
C23	C	1.073565	-0.285238	-0.438705
C24	C	1.518078	-0.387682	-0.505946
C25	C	1.518111	-0.445796	-0.505946
C26	C	1.585476	-0.806110	-0.573349
C27	C	1.585507	-0.860715	-0.573371
O28	O	1.642606	-0.888910	-0.630595
N29	N	1.518373	-0.888078	-0.506129
C30	C	1.451196	-0.860835	-0.438870
O31	O	1.394095	-0.889123	-0.381679
C32	C	1.451160	-0.806231	-0.438855
C33	C	1.518306	-0.778871	-0.506093
C34	C	1.652616	-0.778749	-0.640583
C35	C	1.652586	-0.724149	-0.640560
C36	C	1.585416	-0.696909	-0.573303
C37	C	1.518276	-0.724270	-0.506070
C38	C	1.383979	-0.778989	-0.371601
C39	C	1.383948	-0.724382	-0.371592
C40	C	1.451094	-0.697021	-0.438831
C41	C	1.451077	-0.642430	-0.438790
N42	N	1.518211	-0.615066	-0.506032
C43	C	1.585381	-0.642306	-0.573288
C44	C	1.451274	-0.975505	-0.438909
C45	C	1.451314	-1.030107	-0.438918
C46	C	1.585624	-1.029984	-0.573420
C47	C	1.585589	-0.975380	-0.573405
C48	C	1.518408	-0.948142	-0.506150
C49	C	1.585314	-0.527641	-0.573234
C50	C	1.585281	-0.473035	-0.573202
C51	C	1.450967	-0.473164	-0.438704
C52	C	1.451003	-0.527765	-0.438732
C53	C	1.518180	-0.555002	-0.506005
O54	O	1.394004	-0.614199	-0.381598
O55	O	1.642462	-0.614010	-0.630479
C56	C	1.792260	-0.251849	-0.506043
C57	C	1.909037	-0.251853	-0.506050
C58	C	1.518306	-0.251789	-0.780061
C59	C	1.518339	-0.251768	-0.896838
C60	C	1.518405	-0.115466	-0.506134
C61	C	1.518480	-0.057352	-0.506179
C62	C	1.585584	-0.218324	-0.951731
C63	C	1.585602	-0.218302	-1.061456
C64	C	1.451127	-0.285170	-1.061383
C65	C	1.451105	-0.285190	-0.951661
C66	C	1.518209	-0.251851	-0.233061
C67	C	1.518379	-0.251725	-0.116284
H68	H	1.639963	-0.450760	-0.627955
H69	H	0.919348	-0.191260	-0.628186
H70	H	1.118395	-0.191249	-0.628176
H71	H	1.707259	-0.701875	-0.695314
H72	H	0.919115	-0.312439	-0.383903
H73	H	1.118183	-0.312430	-0.383875
C74	C	1.378315	-0.321524	-1.120965
C75	C	1.437773	-0.355036	-1.183916
C76	C	1.370736	-0.388538	-1.238804
H77	H	1.332554	-0.301575	-1.163865
H78	H	1.338279	-0.341475	-1.072589
H79	H	1.477791	-0.335087	-1.232286
H80	H	1.483531	-0.374997	-1.141042
H81	H	1.330700	-0.408489	-1.190428
H82	H	1.324978	-0.368585	-1.281698
H83	H	1.411068	-0.411283	-1.281515
H84	H	1.640264	-0.953106	-0.628156
C85	C	1.658358	-0.557113	-0.646317
C86	C	1.717158	-0.521455	-0.705168
C87	C	1.784468	-0.548585	-0.772491
H88	H	1.618275	-0.578409	-0.692165
H89	H	1.704231	-0.578403	-0.606208
H90	H	1.671291	-0.500174	-0.745274
H91	H	1.757263	-0.500158	-0.659348
H92	H	1.830341	-0.569875	-0.732382
H93	H	1.744376	-0.569881	-0.818332
H94	H	1.824379	-0.524396	-0.812422
C95	C	1.658487	-1.059498	-0.646621
C96	C	1.635562	-1.046170	-0.750546
C97	C	1.702667	-1.073344	-0.818001
H98	H	1.648952	-1.095943	-0.637141
H99	H	1.729101	-1.050517	-0.631372
H100	H	1.564966	-1.055154	-0.765790
H101	H	1.645104	-1.009729	-0.760059
H102	H	1.773281	-1.064363	-0.802751
H103	H	1.693126	-1.109788	-0.808512
H104	H	1.687128	-1.064301	-0.888520
C105	C	1.725669	-0.808224	-0.713648
C106	C	1.784468	-0.772565	-0.772496
C107	C	1.851797	-0.799693	-0.839803
H108	H	1.685600	-0.829525	-0.759498
H109	H	1.771542	-0.829508	-0.673527
H110	H	1.738601	-0.751289	-0.812614
H111	H	1.824559	-0.751262	-0.726674
H112	H	1.897670	-0.820977	-0.799682
H113	H	1.811719	-0.820993	-0.885646
H114	H	1.891707	-0.775502	-0.879733
H115	H	1.640328	-0.191108	-0.907098
C116	C	1.378305	-1.059716	-0.365867
C117	C	1.319462	-1.024166	-0.306985
C118	C	1.252179	-1.051420	-0.239692
H119	H	1.418410	-1.081023	-0.320037
H120	H	1.332458	-1.081005	-0.405999
H121	H	1.365303	-1.002886	-0.266856
H122	H	1.279337	-1.002858	-0.352787
H123	H	1.206332	-1.072709	-0.279824
H124	H	1.292292	-1.072726	-0.193869
H125	H	1.212239	-1.027304	-0.199740
H126	H	1.396571	-0.953330	-0.384133
C127	C	1.310954	-0.808591	-0.298563
C128	C	1.252107	-0.773038	-0.239695
C129	C	1.184809	-0.800287	-0.172409
H130	H	1.351048	-0.829898	-0.252725
H131	H	1.265110	-0.829880	-0.338700
H132	H	1.297945	-0.751758	-0.199561
H133	H	1.211991	-0.751729	-0.285506
H134	H	1.138965	-0.821576	-0.212546
H135	H	1.224912	-0.821594	-0.126578
H136	H	1.144867	-0.776168	-0.132466
H137	H	1.396338	-0.312423	-0.906966
C138	C	1.310879	-0.694780	-0.298744
C139	C	1.243473	-0.663444	-0.358163
C140	C	1.176142	-0.636174	-0.291092
H141	H	1.350954	-0.673441	-0.252969
H142	H	1.270836	-0.718882	-0.258724
H143	H	1.283512	-0.639345	-0.398165
H144	H	1.203375	-0.684770	-0.403935
H145	H	1.136099	-0.660276	-0.251072
H146	H	1.216225	-0.614838	-0.245320
H147	H	1.130393	-0.614913	-0.331398
C148	C	1.658729	-0.181973	-1.120865
C149	C	1.717619	-0.152718	-1.049364
C150	C	1.785007	-0.119250	-1.104052
H151	H	1.618698	-0.159134	-1.163681
H152	H	1.704542	-0.201956	-1.163638
H153	H	1.671812	-0.132736	-1.006609
H154	H	1.757672	-0.175543	-1.006545
H155	H	1.830820	-0.139233	-1.146825
H156	H	1.744967	-0.096415	-1.146867
H157	H	1.824978	-0.099400	-1.055548
H158	H	1.396336	-0.550043	-0.383973
C159	C	1.377866	-0.443648	-0.365756
C160	C	1.273915	-0.456973	-0.388544
C161	C	1.206538	-0.429796	-0.321366
H162	H	1.387325	-0.407203	-0.375319
H163	H	1.393206	-0.452628	-0.295157
H164	H	1.258580	-0.447989	-0.459126
H165	H	1.264423	-0.493413	-0.378975
H166	H	1.221879	-0.438776	-0.250768
H167	H	1.216007	-0.393352	-0.330934
H168	H	1.136001	-0.438837	-0.336812
