data_functionalizedCrystal
_audit_creation_method	'MofGen! by Chris Wilmer'
_symmetry_space_group_name_H-M	'P1'
_symmetry_Int_Tables_number	1
_symmetry_cell_setting	triclinic
loop_
_symmetry_equiv_pos_as_xyz
  x,y,z
_cell_length_a	10.654550
_cell_length_b	10.654550
_cell_length_c	9.130313
_cell_angle_alpha	90.003353
_cell_angle_beta	90.000276
_cell_angle_gamma	84.484917
loop_
_atom_site_label
_atom_site_type_symbol
_atom_site_fract_x
_atom_site_fract_y
_atom_site_fract_z
O1	O	1.667839	0.176399	0.121686
O2	O	1.302361	0.193205	0.121712
O3	O	1.493503	0.002063	0.121693
O4	O	1.476697	0.367541	0.121705
O5	O	1.493490	0.002057	-0.121906
O6	O	1.302348	0.193199	-0.121886
O7	O	1.667826	0.176393	-0.121913
Cu8	Cu	1.485086	0.184796	-0.144142
Cu9	Cu	1.485101	0.184802	0.143942
O10	O	1.476684	0.367535	-0.121894
C11	C	1.255556	0.191968	-0.000084
C12	C	1.116113	0.188276	-0.000073
C13	C	1.036627	0.300818	-0.000074
C14	C	0.905607	0.297341	-0.000100
C15	C	0.933570	0.068772	-0.000118
C16	C	1.064588	0.072250	-0.000103
C17	C	1.492263	-0.044738	-0.000104
C18	C	1.488571	-0.184181	-0.000099
C19	C	1.601112	-0.263667	-0.000112
C20	C	1.597636	-0.394688	-0.000101
C21	C	1.369066	-0.366725	-0.000072
C22	C	1.372544	-0.235706	-0.000072
C23	C	1.733075	-0.279813	-0.000135
C24	C	1.729599	-0.410834	-0.000125
C25	C	1.714631	0.177630	-0.000114
C26	C	1.854074	0.181322	-0.000114
C27	C	1.477924	0.414336	-0.000093
C28	C	1.481616	0.553779	-0.000089
N29	N	1.485084	0.184790	-0.346765
C30	C	1.569751	0.100188	-0.423425
C31	C	1.569763	0.100189	-0.576762
C32	C	1.400437	0.269404	-0.576765
C33	C	1.400420	0.269396	-0.423431
N34	N	1.485113	0.184798	0.346564
H35	H	1.129309	-0.019401	-0.000107
H36	H	1.331508	0.338290	-0.639201
N37	N	1.092200	0.425957	-0.000069
H38	H	1.187261	0.411087	-0.000057
H39	H	1.063184	0.475258	0.090234
N40	N	1.661031	0.008905	-0.340738
H41	H	1.648172	0.021731	-0.231967
H42	H	1.750259	0.024223	-0.367513
N43	N	1.661093	0.008951	-0.659447
H44	H	1.717107	0.057479	-0.723050
H45	H	1.612545	-0.047087	-0.722997
N46	N	0.819874	0.418725	-0.000182
H47	H	0.872401	0.492749	-0.000187
H48	H	0.764861	0.422305	0.090089
H49	H	0.891602	-0.025693	-0.000151
H50	H	1.280902	-0.170993	-0.000041
H51	H	1.331468	0.338290	-0.361009
H52	H	1.274601	-0.408693	-0.000048
H53	H	1.784696	-0.250452	0.101800
H54	H	1.775091	-0.244188	-0.105319
N55	N	1.782464	-0.471310	0.139166
H56	H	1.810561	-0.404164	0.206463
H57	H	1.856877	-0.533804	0.114783
H58	H	1.779315	-0.452596	-0.102072
