data_functionalizedCrystal
_audit_creation_method	'MofGen! by Chris Wilmer'
_symmetry_space_group_name_H-M	'P1'
_symmetry_Int_Tables_number	1
_symmetry_cell_setting	triclinic
loop_
_symmetry_equiv_pos_as_xyz
  x,y,z
_cell_length_a	8.597213
_cell_length_b	9.130313
_cell_length_c	8.559649
_cell_angle_alpha	89.999141
_cell_angle_beta	77.624681
_cell_angle_gamma	97.701922
loop_
_atom_site_label
_atom_site_type_symbol
_atom_site_fract_x
_atom_site_fract_y
_atom_site_fract_z
O1	O	2.053755	0.380956	0.238022
O2	O	1.594616	0.323019	0.256286
O3	O	1.864636	0.357090	0.015184
O4	O	1.783735	0.346885	0.479124
O5	O	1.864632	0.113491	0.015190
O6	O	1.594612	0.079420	0.256293
O7	O	2.053751	0.137357	0.238029
Cu8	Cu	1.824181	0.086146	0.247161
Cu9	Cu	1.824186	0.374230	0.247154
O10	O	1.783731	0.103285	0.479131
C11	C	1.536379	0.193871	0.254329
C12	C	1.362857	0.171975	0.248467
N13	N	1.824190	-0.116476	0.247166
C14	C	1.943777	-0.178038	0.140443
C15	C	1.943775	-0.331375	0.140424
C16	C	1.704592	-0.361575	0.353865
C17	C	1.704589	-0.208241	0.353875
C18	C	2.063378	-0.086273	0.033734
C19	C	2.182976	-0.147834	-0.072996
C20	C	2.182974	-0.301171	-0.073016
C21	C	2.063375	-0.392947	0.033696
C22	C	2.111988	0.266508	0.239986
C23	C	2.285510	0.288413	0.245848
C24	C	1.870765	0.236067	-0.044247
C25	C	1.889014	0.238378	-0.221342
N26	N	1.824191	0.576853	0.247137
C27	C	1.777602	0.224312	0.538562
C28	C	1.759353	0.222011	0.715657
H29	H	2.063393	0.038583	0.033743
H30	H	1.607208	-0.158118	0.440777
Cl31	Cl	1.260139	-0.007803	0.245011
H32	H	2.280343	-0.073104	-0.159887
Cl33	Cl	1.388216	0.468182	0.249329
Cl34	Cl	2.333311	-0.378563	-0.207199
Cl35	Cl	2.063369	-0.585716	0.033650
Cl36	Cl	1.566401	0.197659	-0.158447
H37	H	1.607220	-0.436308	0.440746
H38	H	2.013993	0.254137	-0.302896
