data_functionalizedCrystal
_audit_creation_method	'MofGen! by Chris Wilmer'
_symmetry_space_group_name_H-M	'P1'
_symmetry_Int_Tables_number	1
_symmetry_cell_setting	triclinic
loop_
_symmetry_equiv_pos_as_xyz
  x,y,z
_cell_length_a	17.666332
_cell_length_b	10.540539
_cell_length_c	10.540539
_cell_angle_alpha	84.525492
_cell_angle_beta	90.006170
_cell_angle_gamma	89.999207
loop_
_atom_site_label
_atom_site_type_symbol
_atom_site_fract_x
_atom_site_fract_y
_atom_site_fract_z
O1	O	-0.062909	-1.685881	-0.178908
O2	O	-0.062918	-1.316468	-0.195764
O3	O	-0.062912	-1.509602	-0.002629
O4	O	-0.062914	-1.492746	-0.372042
O5	O	0.062985	-1.509598	-0.002609
O6	O	0.062979	-1.316464	-0.195743
O7	O	0.062988	-1.685877	-0.178887
Cu8	Cu	0.074479	-1.501170	-0.187313
Cu9	Cu	-0.074409	-1.501174	-0.187337
O10	O	0.062982	-1.492743	-0.372022
C11	C	0.000029	-1.269163	-0.194489
C12	C	0.000026	-1.128215	-0.190707
N13	N	-0.179128	-1.501178	-0.187345
C14	C	0.000035	-1.508336	0.044684
C15	C	0.000031	-1.504554	0.185632
C16	C	-0.781176	-1.586868	-0.101969
C17	C	-0.701928	-1.586865	-0.101966
C18	C	-0.662310	-1.501182	-0.187312
C19	C	-0.701945	-1.415474	-0.272645
C20	C	-0.781191	-1.415471	-0.272637
N21	N	-0.537897	-1.485810	-0.299490
N22	N	-0.462617	-1.485821	-0.299494
C23	C	-0.423546	-1.501183	-0.187341
N24	N	-0.462599	-1.516560	-0.075180
N25	N	-0.537886	-1.516556	-0.075177
C26	C	-0.576380	-1.501175	-0.187330
C27	C	-0.297990	-1.586876	-0.102004
C28	C	-0.218741	-1.586863	-0.102000
C29	C	-0.218760	-1.415479	-0.272690
C30	C	-0.298007	-1.415485	-0.272683
C31	C	-0.337618	-1.501190	-0.187342
N32	N	0.179198	-1.501176	-0.187295
C33	C	0.000039	-1.733182	-0.180161
C34	C	0.000038	-1.874130	-0.183943
C35	C	0.000321	-0.944788	-0.045790
C36	C	0.000029	-1.091406	-0.049624
C37	C	-0.071865	-1.066544	-0.258614
C38	C	-0.071917	-0.920000	-0.253799
C39	C	0.071251	-0.919507	-0.256646
C40	C	0.072193	-1.066489	-0.257945
C41	C	0.000034	-1.494008	-0.419335
C42	C	0.000033	-1.497790	-0.560283
C43	C	-0.000255	-1.359637	0.369059
C44	C	0.000028	-1.363471	0.222441
C45	C	0.071926	-1.572448	0.247302
C46	C	0.071986	-1.567633	0.393846
C47	C	-0.071182	-1.570506	0.394341
C48	C	-0.072133	-1.571806	0.247359
H49	H	-0.669659	-1.656648	-0.032481
C50	C	-0.824785	-1.321222	-0.366510
H51	H	-0.877655	-1.333493	-0.354281
H52	H	-0.811803	-1.335608	-0.451411
H53	H	-0.811802	-1.236415	-0.351737
H54	H	0.075250	-1.669098	0.441815
C55	C	-0.341598	-1.321237	-0.366557
H56	H	-0.306655	-1.270212	-0.417395
H57	H	-0.372509	-1.268081	-0.320271
H58	H	-0.372515	-1.367276	-0.419942
H59	H	0.125726	-1.517453	0.422054
H60	H	-0.669684	-1.345707	-0.342133
C61	C	-0.341568	-1.681126	-0.008121
H62	H	-0.394440	-1.668862	-0.020346
H63	H	-0.328573	-1.666737	0.076777
H64	H	-0.328582	-1.765933	-0.022894
H65	H	0.051010	-1.304131	0.399275
C66	C	-0.077996	-1.710764	0.214649
H67	H	-0.036321	-1.729672	0.162695
H68	H	-0.123881	-1.721923	0.170054
H69	H	-0.077383	-1.766435	0.291031
C70	C	-0.144144	-1.124063	-0.194910
H71	H	-0.130663	-1.185644	-0.126939
H72	H	-0.173233	-1.163630	-0.255897
H73	H	-0.173120	-1.058392	-0.162563
H74	H	0.051564	-1.134018	0.003807
H75	H	-0.125318	-1.522129	0.206492
C76	C	-0.175189	-1.321228	-0.366568
H77	H	-0.122317	-1.333506	-0.354359
H78	H	-0.188175	-1.236428	-0.351799
H79	H	-0.188184	-1.335621	-0.451473
H80	H	-0.051594	-1.133153	0.004167
C81	C	-0.175152	-1.681132	-0.008138
H82	H	-0.210096	-1.732179	0.042676
H83	H	-0.144233	-1.635113	0.045251
H84	H	-0.144244	-1.734283	-0.054445
H85	H	-0.050948	-0.914582	0.009702
C86	C	-0.144508	-0.881886	-0.186013
H87	H	-0.173685	-0.955933	-0.161666
H88	H	-0.173250	-0.824827	-0.242209
H89	H	-0.131367	-0.841405	-0.112321
H90	H	0.051878	-0.916201	0.009954
C91	C	-0.076346	-0.855191	-0.390861
H92	H	-0.078111	-0.918459	-0.449235
H93	H	-0.032997	-0.803018	-0.407906
H94	H	-0.120682	-0.804132	-0.400003
C95	C	-0.824747	-1.681169	-0.008132
H96	H	-0.877619	-1.668916	-0.020363
H97	H	-0.811762	-1.666833	0.076785
H98	H	-0.811748	-1.765956	-0.022958
H99	H	-0.125674	-1.524846	0.425885
C100	C	-0.075488	-1.096746	-0.398575
H101	H	-0.033090	-1.147361	-0.416881
H102	H	-0.074819	-1.019487	-0.452915
H103	H	-0.120790	-1.142050	-0.412269
C104	C	0.144200	-1.508724	0.189788
H105	H	0.130716	-1.440754	0.128210
H106	H	0.173292	-1.569701	0.150220
H107	H	0.173176	-1.476373	0.255464
H108	H	0.076533	-1.090715	-0.360804
H109	H	0.125744	-0.887959	-0.210979
C110	C	0.144043	-1.121811	-0.190929
H111	H	0.130127	-1.182279	-0.122262
H112	H	0.172279	-1.054979	-0.159140
H113	H	0.174044	-1.162338	-0.250045
H114	H	0.071736	-0.872280	-0.358549
C115	C	-0.069585	-1.291286	0.164867
H116	H	-0.098292	-1.259344	0.231081
H117	H	-0.100004	-1.347612	0.121462
H118	H	-0.053402	-1.222338	0.106554
C119	C	-0.071840	-1.708162	0.458147
H120	H	-0.028951	-1.721308	0.512184
H121	H	-0.070262	-1.766087	0.394462
H122	H	-0.116709	-1.722003	0.507188
C123	C	-0.069896	-1.284336	0.407694
H124	H	-0.099420	-1.336470	0.467269
H125	H	-0.099504	-1.259477	0.334274
H126	H	-0.053725	-1.210609	0.445410
C127	C	0.069768	-1.290812	0.166036
H128	H	0.098040	-1.258845	0.232746
H129	H	0.053739	-1.221877	0.107578
H130	H	0.100562	-1.346907	0.123005
H131	H	0.074601	-1.676055	0.224948
