data_functionalizedCrystal
_audit_creation_method	'MofGen! by Chris Wilmer'
_symmetry_space_group_name_H-M	'P1'
_symmetry_Int_Tables_number	1
_symmetry_cell_setting	triclinic
loop_
_symmetry_equiv_pos_as_xyz
  x,y,z
_cell_length_a	21.295417
_cell_length_b	16.959455
_cell_length_c	16.959455
_cell_angle_alpha	89.989109
_cell_angle_beta	90.019041
_cell_angle_gamma	89.974501
loop_
_atom_site_label
_atom_site_type_symbol
_atom_site_fract_x
_atom_site_fract_y
_atom_site_fract_z
Zn1	Zn	-0.250781	-1.208227	0.447078
Zn2	Zn	0.082552	-0.874894	0.780412
Zn3	Zn	0.415885	-0.541560	1.113745
Zn4	Zn	-0.356028	-1.208155	0.314888
Zn5	Zn	-0.022695	-0.874821	0.648222
Zn6	Zn	0.310638	-0.541488	0.981555
Zn7	Zn	-0.250768	-1.076085	0.314894
Zn8	Zn	0.082566	-0.742751	0.648228
Zn9	Zn	0.415899	-0.409418	0.981561
Zn10	Zn	-0.356007	-1.075996	0.447005
Zn11	Zn	-0.022674	-0.742663	0.780339
Zn12	Zn	0.310659	-0.409329	1.113672
O13	O	-0.303396	-1.142116	0.380967
O14	O	0.029937	-0.808782	0.714300
O15	O	0.363271	-0.475449	1.047633
O16	O	-0.264757	-1.318828	0.429571
O17	O	0.068576	-0.985495	0.762904
O18	O	0.401910	-0.652162	1.096238
O19	O	-0.342068	-1.190642	0.204278
O20	O	-0.008735	-0.857309	0.537612
O21	O	0.324598	-0.523976	0.870945
O22	O	-0.162680	-1.093681	0.332462
O23	O	0.170653	-0.760348	0.665795
O24	O	0.503987	-0.427014	0.999128
O25	O	-0.342081	-1.318775	0.332452
O26	O	-0.008748	-0.985442	0.665785
O27	O	0.324585	-0.652109	0.999118
O28	O	-0.162690	-1.190765	0.429577
O29	O	0.170643	-0.857432	0.762910
O30	O	0.503977	-0.524099	1.096243
O31	O	-0.264734	-1.093611	0.204283
O32	O	0.068599	-0.760278	0.537616
O33	O	0.401933	-0.426945	0.870949
O34	O	-0.264714	-0.965462	0.332391
O35	O	0.068620	-0.632129	0.665724
O36	O	0.401953	-0.298796	0.999058
O37	O	-0.342046	-1.093530	0.557626
O38	O	-0.008712	-0.760196	0.890959
O39	O	0.324621	-0.426863	1.224293
O40	O	-0.342033	-0.965397	0.429453
O41	O	-0.008699	-0.632064	0.762786
O42	O	0.324634	-0.298730	1.096119
O43	O	-0.264737	-1.190679	0.557679
O44	O	0.068597	-0.857346	0.891013
O45	O	0.401930	-0.524013	1.224346
O46	O	-0.444115	-1.190556	0.332381
O47	O	-0.110782	-0.857223	0.665715
O48	O	0.222552	-0.523890	0.999048
O49	O	-0.444099	-1.093460	0.429447
O50	O	-0.110766	-0.760126	0.762780
O51	O	0.222567	-0.426793	1.096114
C52	C	-0.303370	-0.936749	0.380915
C53	C	0.029964	-0.603416	0.714248
C54	C	0.363297	-0.270083	1.047582
C55	C	-0.303374	-0.848893	0.380912
C56	C	0.029960	-0.515559	0.714245
C57	C	0.363293	-0.182226	1.047578
C58	C	-0.343600	-0.477379	0.330333
C59	C	-0.010267	-0.144046	0.663666
C60	C	0.323066	0.189288	0.997000
C61	C	-0.263207	-0.477455	0.431621
C62	C	0.070127	-0.144122	0.764954
C63	C	0.403460	0.189211	1.098287
C64	C	-0.263199	-0.560001	0.431606
C65	C	0.070135	-0.226668	0.764939
C66	C	0.403468	0.106665	1.098273
C67	C	-0.303393	-0.601240	0.380955
C68	C	0.029941	-0.267907	0.714288
C69	C	0.363274	0.065427	1.047622
C70	C	-0.343595	-0.559933	0.330319
C71	C	-0.010262	-0.226599	0.663652
C72	C	0.323072	0.106734	0.996985
C73	C	-0.223002	-0.601315	0.482247
C74	C	0.110332	-0.267981	0.815581
C75	C	0.443665	0.065352	1.148914
C76	C	-0.222993	-0.683866	0.482236
C77	C	0.110341	-0.350532	0.815569
C78	C	0.443674	-0.017199	1.148902
C79	C	-0.263184	-0.725106	0.431580
C80	C	0.070149	-0.391772	0.764913
C81	C	0.403483	-0.058439	1.098247
C82	C	-0.303387	-0.683793	0.380941
C83	C	0.029946	-0.350460	0.714274
C84	C	0.363279	-0.017127	1.047607
C85	C	-0.343581	-0.725032	0.330290
C86	C	-0.010248	-0.391699	0.663623
C87	C	0.323085	-0.058365	0.996956
C88	C	-0.383782	-0.683721	0.279646
C89	C	-0.050449	-0.350388	0.612979
C90	C	0.282885	-0.017054	0.946312
C91	C	-0.383786	-0.601173	0.279663
C92	C	-0.050453	-0.267839	0.612996
C93	C	0.282880	0.065494	0.946330
C94	C	-0.263180	-0.807654	0.431563
C95	C	0.070154	-0.474321	0.764896
C96	C	0.403487	-0.140988	1.098229
C97	C	-0.343576	-0.807585	0.330275
C98	C	-0.010243	-0.474252	0.663609
C99	C	0.323091	-0.140919	0.996942
C100	C	-0.466948	-1.142012	0.380923
C101	C	-0.133614	-0.808679	0.714256
C102	C	0.199719	-0.475345	1.047589
C103	C	-0.536916	-1.142040	0.380931
C104	C	-0.203583	-0.808707	0.714264
C105	C	0.129751	-0.475373	1.047597
C106	C	-0.569770	-1.192643	0.330440
C107	C	-0.236436	-0.859310	0.663774
C108	C	0.096897	-0.525976	0.997107
C109	C	-0.635512	-1.192680	0.330458
C110	C	-0.302179	-0.859347	0.663791
C111	C	0.031155	-0.526013	0.997125
C112	C	-0.668398	-1.142100	0.380958
C113	C	-0.335065	-0.808767	0.714291
C114	C	-0.001732	-0.475433	1.047624
C115	C	-0.635537	-1.091493	0.431458
C116	C	-0.302203	-0.758160	0.764791
C117	C	0.031130	-0.424827	1.098125
C118	C	-0.569795	-1.091463	0.431444
C119	C	-0.236462	-0.758130	0.764778
C120	C	0.096871	-0.424797	1.098111
N121	N	-0.771660	-1.072952	0.386966
N122	N	-0.438327	-0.739619	0.720300
N123	N	-0.104994	-0.406285	1.053633
N124	N	-0.834112	-1.072983	0.386975
N125	N	-0.500778	-0.739649	0.720308
N126	N	-0.167445	-0.406316	1.053641
C127	C	-0.866473	-1.142189	0.381003
C128	C	-0.533140	-0.808855	0.714336
C129	C	-0.199806	-0.475522	1.047670
N130	N	-0.834024	-1.211364	0.375008
N131	N	-0.500690	-0.878031	0.708341
N132	N	-0.167357	-0.544697	1.041674
N133	N	-0.771566	-1.211332	0.374995
N134	N	-0.438233	-0.877999	0.708328
N135	N	-0.104900	-0.544666	1.041662
C136	C	-0.739684	-1.142127	0.380979
C137	C	-0.406350	-0.808794	0.714312
C138	C	-0.073017	-0.475461	1.047645
C139	C	-0.970612	-1.192836	0.330529
C140	C	-0.637279	-0.859503	0.663863
C141	C	-0.303946	-0.526169	0.997196
C142	C	-1.036356	-1.192874	0.330553
C143	C	-0.703023	-0.859541	0.663886
C144	C	-0.369689	-0.526208	0.997219
C145	C	-1.036379	-1.091681	0.431549
C146	C	-0.703046	-0.758347	0.764882
C147	C	-0.369713	-0.425014	1.098215
C148	C	-0.970637	-1.091649	0.431529
C149	C	-0.637304	-0.758316	0.764863
C150	C	-0.303970	-0.424983	1.098196
C151	C	-0.937757	-1.142226	0.381016
C152	C	-0.604424	-0.808893	0.714349
C153	C	-0.271091	-0.475559	1.047682
C154	C	-0.139206	-1.142241	0.381028
C155	C	0.194127	-0.808908	0.714361
C156	C	0.527461	-0.475575	1.047695
C157	C	-0.069238	-1.142295	0.381054
C158	C	0.264096	-0.808961	0.714387
C159	C	0.597429	-0.475628	1.047721
C160	C	-0.303390	-1.142103	0.587135
C161	C	0.029943	-0.808769	0.920468
C162	C	0.363276	-0.475436	1.253801
C163	C	-0.303388	-1.142097	0.674991
C164	C	0.029945	-0.808764	1.008325
C165	C	0.363279	-0.475430	1.341658
C166	C	-0.303416	-0.348284	0.381004
C167	C	0.029917	-0.014950	0.714338
C168	C	0.363251	0.318383	1.047671
C169	C	-0.303406	-0.436140	0.380984
C170	C	0.029927	-0.102807	0.714317
C171	C	0.363260	0.230526	1.047651
C172	C	-0.343656	-1.091527	1.046442
C173	C	-0.010323	-0.758194	1.379775
C174	C	0.323010	-0.424861	1.713108
C175	C	-0.263154	-1.192690	1.046492
C176	C	0.070180	-0.859357	1.379826
C177	C	0.403513	-0.526023	1.713159
C178	C	-0.263148	-1.192688	0.963946
C179	C	0.070185	-0.859354	1.297280
C180	C	0.403518	-0.526021	1.630613
C181	C	-0.303398	-1.142105	0.922644
C182	C	0.029935	-0.808772	1.255978
C183	C	0.363268	-0.475438	1.589311
C184	C	-0.343654	-1.091525	0.963888
C185	C	-0.010320	-0.758192	1.297221
C186	C	0.323013	-0.424858	1.630555
C187	C	-0.222898	-1.243272	0.922697
C188	C	0.110435	-0.909939	1.256030
C189	C	0.443768	-0.576606	1.589363
C190	C	-0.222892	-1.243272	0.840146
C191	C	0.110441	-0.909939	1.173479
C192	C	0.443775	-0.576605	1.506812
C193	C	-0.263139	-1.192685	0.798842
C194	C	0.070194	-0.859352	1.132175
C195	C	0.403527	-0.526018	1.465509
C196	C	-0.303396	-1.142102	0.840091
C197	C	0.029938	-0.808769	1.173424
C198	C	0.363271	-0.475436	1.506757
C199	C	-0.343646	-1.091520	0.798789
C200	C	-0.010312	-0.758186	1.132122
C201	C	0.323021	-0.424853	1.465455
C202	C	-0.383899	-1.040932	0.840036
C203	C	-0.050566	-0.707599	1.173369
C204	C	0.282767	-0.374266	1.506703
C205	C	-0.383901	-1.040938	0.922584
C206	C	-0.050567	-0.707604	1.255918
C207	C	0.282766	-0.374271	1.589251
C208	C	-0.263138	-1.192680	0.716294
C209	C	0.070195	-0.859346	1.049627
C210	C	0.403529	-0.526013	1.382960
C211	C	-0.343643	-1.091517	0.716235
C212	C	-0.010310	-0.758184	1.049568
C213	C	0.323024	-0.424850	1.382902
C214	C	-0.303413	-1.142118	1.175600
C215	C	0.029920	-0.808785	1.508934
C216	C	0.363254	-0.475451	1.842267
C217	C	-0.303406	-1.142110	1.087744
C218	C	0.029927	-0.808777	1.421077
C219	C	0.363260	-0.475443	1.754410
H220	H	-0.230450	-0.841286	0.472798
H221	H	0.102883	-0.507953	0.806131
H222	H	0.436216	-0.174619	1.139464
F223	F	-0.180208	-0.727824	0.536134
F224	F	0.153126	-0.394491	0.869467
F225	F	0.486459	-0.061158	1.202800
H226	H	-0.376305	-0.841156	0.289026
H227	H	-0.042972	-0.507823	0.622359
H228	H	0.290362	-0.174489	0.955692
F229	F	-0.935617	-1.246663	0.276769
F230	F	-0.602284	-0.913329	0.610102
F231	F	-0.268951	-0.579996	0.943435
H232	H	-1.063155	-1.050501	0.472670
H233	H	-0.729821	-0.717167	0.806003
H234	H	-0.396488	-0.383834	1.139337
H235	H	-0.230366	-1.233869	0.682714
H236	H	0.102968	-0.900536	1.016047
H237	H	0.436301	-0.567202	1.349380
H238	H	-0.376329	-0.443740	0.289098
H239	H	-0.042996	-0.110407	0.622431
H240	H	0.290338	0.222927	0.955764
H241	H	-0.376428	-1.050338	1.080029
H242	H	-0.043095	-0.717005	1.413362
H243	H	0.290239	-0.383672	1.746695
H244	H	-0.416511	-0.717308	0.238410
H245	H	-0.083178	-0.383975	0.571743
H246	H	0.250155	-0.050642	0.905077
F247	F	-0.534781	-1.246480	0.276687
F248	F	-0.201447	-0.913147	0.610021
F249	F	0.131886	-0.579814	0.943354
F250	F	-0.670485	-1.246540	0.276716
F251	F	-0.337151	-0.913207	0.610050
F252	F	-0.003818	-0.579874	0.943383
H253	H	-0.416515	-0.567530	0.238431
H254	H	-0.083182	-0.234197	0.571764
H255	H	0.250152	0.099137	0.905098
H256	H	-0.190115	-1.284463	0.806569
H257	H	0.143219	-0.951130	1.139902
H258	H	0.476552	-0.617796	1.473236
H259	H	-0.416674	-0.999752	0.806397
H260	H	-0.083340	-0.666418	1.139730
H261	H	0.249993	-0.333085	1.473064
H262	H	-0.230486	-0.443874	0.472863
H263	H	0.102847	-0.110541	0.806196
H264	H	0.436181	0.222793	1.139529
H265	H	-0.190282	-0.567732	0.523490
H266	H	0.143051	-0.234399	0.856823
H267	H	0.476385	0.098934	1.190156
H268	H	-0.662317	-1.050312	0.472577
H269	H	-0.328983	-0.716979	0.805910
H270	H	0.004350	-0.383645	1.139243
F271	F	-0.426740	-0.987107	0.966488
F272	F	-0.093407	-0.653774	1.299821
F273	F	0.239927	-0.320440	1.633155
F274	F	-1.071321	-1.246741	0.276816
F275	F	-0.737988	-0.913408	0.610149
F276	F	-0.404655	-0.580075	0.943483
F277	F	-0.534829	-1.037602	0.485186
F278	F	-0.201496	-0.704269	0.818519
F279	F	0.131838	-0.370936	1.151852
F280	F	-0.935670	-1.037787	0.485266
F281	F	-0.602337	-0.704453	0.818599
F282	F	-0.269003	-0.371120	1.151932
F283	F	-0.386480	-1.037675	0.672285
F284	F	-0.053147	-0.704342	1.005618
F285	F	0.280186	-0.371008	1.338951
F286	F	-0.220324	-1.246526	1.090451
F287	F	0.113010	-0.913192	1.423784
F288	F	0.446343	-0.579859	1.757118
H289	H	-0.190133	-1.284459	0.956331
H290	H	0.143200	-0.951125	1.289664
H291	H	0.476534	-0.617792	1.622997
