data_functionalizedCrystal
_audit_creation_method	'MofGen! by Chris Wilmer'
_symmetry_space_group_name_H-M	'P1'
_symmetry_Int_Tables_number	1
_symmetry_cell_setting	triclinic
loop_
_symmetry_equiv_pos_as_xyz
  x,y,z
_cell_length_a	14.044209
_cell_length_b	10.723024
_cell_length_c	9.798715
_cell_angle_alpha	89.996597
_cell_angle_beta	89.993913
_cell_angle_gamma	88.827911
loop_
_atom_site_label
_atom_site_type_symbol
_atom_site_fract_x
_atom_site_fract_y
_atom_site_fract_z
O1	O	-0.133040	-1.670496	0.113492
O2	O	0.200293	-1.337163	0.446825
O3	O	0.533626	-1.003829	0.780159
O4	O	-0.145775	-1.308618	0.113498
O5	O	0.187558	-0.975284	0.446831
O6	O	0.520892	-0.641951	0.780164
O7	O	-0.001388	-1.484127	0.113476
O8	O	0.331946	-1.150793	0.446809
O9	O	0.665279	-0.817460	0.780142
O10	O	-0.277428	-1.494987	0.113514
O11	O	0.055906	-1.161654	0.446848
O12	O	0.389239	-0.828321	0.780181
O13	O	-0.001386	-1.484112	-0.113507
O14	O	0.331947	-1.150779	0.219827
O15	O	0.665280	-0.817446	0.553160
O16	O	-0.145774	-1.308603	-0.113484
O17	O	0.187560	-0.975270	0.219849
O18	O	0.520893	-0.641937	0.553182
O19	O	-0.133039	-1.670482	-0.113490
O20	O	0.200294	-1.337148	0.219843
O21	O	0.533627	-1.003815	0.553177
Zn22	Zn	-0.139406	-1.489540	-0.149526
Zn23	Zn	0.193927	-1.156207	0.183808
Zn24	Zn	0.527260	-0.822874	0.517141
Zn25	Zn	-0.139408	-1.489559	0.149533
Zn26	Zn	0.193926	-1.156226	0.482867
Zn27	Zn	0.527259	-0.822892	0.816200
O28	O	-0.277427	-1.494973	-0.113468
O29	O	0.055907	-1.161640	0.219865
O30	O	0.389240	-0.828306	0.553199
C31	C	0.033958	-1.479364	-0.000018
C32	C	0.367292	-1.146031	0.333316
C33	C	0.700625	-0.812698	0.666649
C34	C	0.139277	-1.465181	-0.000024
C35	C	0.472610	-1.131848	0.333310
C36	C	0.805943	-0.798514	0.666643
C37	C	-0.144848	-1.262018	0.000007
C38	C	0.188486	-0.928685	0.333340
C39	C	0.521819	-0.595352	0.666674
C40	C	-0.142075	-1.123187	0.000008
C41	C	0.191258	-0.789853	0.333342
C42	C	0.524592	-0.456520	0.666675
C43	C	-0.133966	-1.717081	0.000004
C44	C	0.199367	-1.383748	0.333337
C45	C	0.532700	-1.050415	0.666670
C46	C	-0.136739	-1.855913	0.000011
C47	C	0.196594	-1.522580	0.333344
C48	C	0.529927	-1.189246	0.666678
C49	C	0.332107	-1.439251	-0.000012
C50	C	0.665440	-1.105918	0.333322
C51	C	0.998773	-0.772584	0.666655
C52	C	0.389086	-1.539853	-0.000011
C53	C	0.722419	-1.206520	0.333322
C54	C	1.055752	-0.873187	0.666655
C55	C	0.496383	-1.525426	-0.000005
C56	C	0.829717	-1.192092	0.333328
C57	C	1.163050	-0.858759	0.666662
C58	C	0.224799	-1.453677	-0.000018
C59	C	0.558133	-1.120344	0.333315
C60	C	0.891466	-0.787010	0.666648
C61	C	0.687228	-1.499738	0.000017
C62	C	1.020561	-1.166404	0.333351
C63	C	1.353894	-0.833071	0.666684
C64	C	0.581910	-1.513929	0.000000
C65	C	0.915244	-1.180596	0.333334
C66	C	1.248577	-0.847262	0.666667
N67	N	-0.139405	-1.489537	-0.353625
N68	N	0.193929	-1.156203	-0.020292
N69	N	0.527262	-0.822870	0.313041
C70	C	-0.222867	-1.056286	0.000021
C71	C	0.110467	-0.722953	0.333354
C72	C	0.443800	-0.389619	0.666687
C73	C	-0.220003	-0.912796	0.000022
C74	C	0.113331	-0.579463	0.333355
C75	C	0.446664	-0.246129	0.666689
C76	C	-0.194408	-1.567804	-0.421396
C77	C	0.138925	-1.234470	-0.088063
C78	C	0.472258	-0.901137	0.245271
C79	C	-0.194407	-1.567824	-0.578559
C80	C	0.138926	-1.234490	-0.245226
C81	C	0.472260	-0.901157	0.088108
N82	N	-0.139402	-1.489572	0.353633
N83	N	0.193932	-1.156239	0.686966
N84	N	0.527265	-0.822905	1.020300
H85	H	0.357284	-1.636818	0.000080
H86	H	0.690618	-1.303484	0.333413
H87	H	1.023951	-0.970151	0.666747
Cl88	Cl	0.381203	-1.289554	-0.000005
Cl89	Cl	0.714537	-0.956221	0.333328
Cl90	Cl	1.047870	-0.622888	0.666662
H91	H	-0.070786	-1.074233	0.000033
H92	H	0.262547	-0.740900	0.333367
H93	H	0.595880	-0.407566	0.666700
H94	H	-0.241495	-1.634801	-0.363065
H95	H	0.091838	-1.301468	-0.029732
H96	H	0.425171	-0.968135	0.303602
H97	H	-0.241503	-1.634825	-0.636840
H98	H	0.091831	-1.301492	-0.303507
H99	H	0.425164	-0.968158	0.029826
H100	H	-0.067572	-0.913419	0.000009
H101	H	0.265762	-0.580085	0.333343
H102	H	0.599095	-0.246752	0.666676
H103	H	-0.289166	-0.855282	0.000038
H104	H	0.044167	-0.521949	0.333371
H105	H	0.377500	-0.188616	0.666705
H106	H	-0.092311	-1.422547	-0.411956
H107	H	0.241022	-1.089213	-0.078623
H108	H	0.574356	-0.755880	0.254710
H109	H	-0.294155	-1.105240	0.000023
H110	H	0.039178	-0.771906	0.333356
H111	H	0.372511	-0.438573	0.666690
Cl112	Cl	-0.066697	-1.386102	-0.556402
Cl113	Cl	0.266637	-1.052768	-0.223068
Cl114	Cl	0.599970	-0.719435	0.110265
