data_functionalizedCrystal
_audit_creation_method	'MofGen! by Chris Wilmer'
_symmetry_space_group_name_H-M	'P1'
_symmetry_Int_Tables_number	1
_symmetry_cell_setting	triclinic
loop_
_symmetry_equiv_pos_as_xyz
  x,y,z
_cell_length_a	10.654559
_cell_length_b	9.730223
_cell_length_c	10.654550
_cell_angle_alpha	89.998861
_cell_angle_beta	84.486794
_cell_angle_gamma	90.003067
loop_
_atom_site_label
_atom_site_type_symbol
_atom_site_fract_x
_atom_site_fract_y
_atom_site_fract_z
O1	O	1.667832	0.114294	0.176446
O2	O	1.302355	0.114294	0.193240
O3	O	1.493497	0.114289	0.002104
O4	O	1.476691	0.114299	0.367582
O5	O	1.493484	-0.114291	0.002114
O6	O	1.302343	-0.114286	0.193250
O7	O	1.667820	-0.114286	0.176456
Zn8	Zn	1.485079	-0.150578	0.184855
Zn9	Zn	1.485096	0.150586	0.184841
O10	O	1.476678	-0.114281	0.367592
C11	C	1.255551	0.000005	0.192009
C12	C	1.116109	0.000005	0.188313
C13	C	1.064569	-0.000002	0.072301
C14	C	0.933547	0.000008	0.068835
C15	C	0.905614	0.000026	0.297404
C16	C	1.036634	0.000026	0.300869
C17	C	1.080694	-0.000018	-0.059662
C18	C	0.949672	-0.000008	-0.063128
N19	N	1.485078	-0.356114	0.184864
C20	C	1.561907	-0.428051	0.261741
C21	C	1.561926	-0.571934	0.261717
C22	C	1.408275	-0.571930	0.107936
C23	C	1.408264	-0.428050	0.107954
C24	C	1.650612	-0.428055	0.350529
C25	C	1.650631	-0.571938	0.350506
C26	C	1.714624	0.000007	0.177686
C27	C	1.854067	0.000015	0.181383
C28	C	1.492257	0.000001	-0.044689
C29	C	1.488565	0.000005	-0.184132
N30	N	1.485108	0.356122	0.184822
C31	C	1.601106	0.000001	-0.263614
C32	C	1.597629	0.000011	-0.394635
C33	C	1.369061	0.000023	-0.366679
C34	C	1.372539	0.000023	-0.235661
C35	C	1.733068	-0.000012	-0.279756
C36	C	1.729592	-0.000003	-0.410777
C37	C	1.477919	0.000011	0.414385
C38	C	1.481610	0.000015	0.553828
H39	H	1.122447	0.095635	-0.109397
F40	F	1.774271	-0.630246	0.298932
F41	F	1.245584	0.000046	-0.421532
H42	H	1.775084	-0.098709	-0.244123
F43	F	1.800538	0.125011	-0.241380
F44	F	1.610202	-0.623013	0.479945
H45	H	0.914048	0.098687	-0.105163
F46	F	0.911273	-0.125033	-0.130582
F47	F	1.326487	-0.351494	0.026136
H48	H	1.126331	-0.098717	-0.099525
F49	F	1.780075	-0.376988	0.310202
F50	F	1.598858	-0.369744	0.474105
H51	H	1.779308	-0.095661	-0.452531
H52	H	1.280897	0.000046	-0.170950
H53	H	0.840891	0.000044	0.389043
H54	H	1.078592	0.000055	0.395337
H55	H	1.769478	0.098692	-0.456423
H56	H	1.345736	-0.630518	0.045319
