data_functionalizedCrystal
_audit_creation_method	'MofGen! by Chris Wilmer'
_symmetry_space_group_name_H-M	'P1'
_symmetry_Int_Tables_number	1
_symmetry_cell_setting	triclinic
loop_
_symmetry_equiv_pos_as_xyz
  x,y,z
_cell_length_a	10.654550
_cell_length_b	10.654550
_cell_length_c	9.730223
_cell_angle_alpha	89.996328
_cell_angle_beta	90.000649
_cell_angle_gamma	84.484931
loop_
_atom_site_label
_atom_site_type_symbol
_atom_site_fract_x
_atom_site_fract_y
_atom_site_fract_z
O1	O	-1.667838	-0.176398	0.114187
O2	O	-1.302359	-0.193204	0.114212
O3	O	-1.493502	-0.002061	0.114190
O4	O	-1.476696	-0.367540	0.114209
O5	O	-1.493492	-0.002058	-0.114390
O6	O	-1.302349	-0.193200	-0.114368
O7	O	-1.667828	-0.176394	-0.114393
Zn8	Zn	-1.485087	-0.184797	-0.150672
Zn9	Zn	-1.485100	-0.184801	0.150492
O10	O	-1.476686	-0.367537	-0.114371
C11	C	-1.255556	-0.191968	-0.000075
C12	C	-1.116113	-0.188276	-0.000065
C13	C	-1.492263	0.044738	-0.000099
C14	C	-1.488571	0.184181	-0.000096
C15	C	-1.477925	-0.414336	-0.000079
C16	C	-1.481617	-0.553779	-0.000072
C17	C	-1.714631	-0.177630	-0.000103
C18	C	-1.854074	-0.181322	-0.000104
C19	C	-1.036628	-0.300818	-0.000064
C20	C	-0.905607	-0.297341	-0.000088
C21	C	-0.933570	-0.068772	-0.000109
C22	C	-1.064588	-0.072250	-0.000095
C23	C	-1.601112	0.263667	-0.000104
C24	C	-1.597636	0.394688	-0.000087
C25	C	-1.369066	0.366725	-0.000061
C26	C	-1.372544	0.235706	-0.000068
N27	N	-1.485087	-0.184793	-0.356209
C28	C	-1.569760	-0.100187	-0.572037
C29	C	-1.569752	-0.100189	-0.428154
C30	C	-1.400433	-0.269410	-0.428154
C31	C	-1.400448	-0.269414	-0.572035
N32	N	-1.485110	-0.184795	0.356028
H33	H	-1.078574	-0.395294	-0.000049
H34	H	-1.638683	-0.031295	-0.369588
H35	H	-1.331501	-0.338303	-0.369569
H36	H	-1.331515	-0.338318	-0.630608
C37	C	-1.721432	0.482117	-0.000103
H38	H	-1.791026	0.432661	-0.000131
H39	H	-1.724839	0.533801	0.079610
H40	H	-1.724815	0.533815	-0.079822
C41	C	-0.818172	-0.421133	-0.000079
H42	H	-0.732762	-0.402450	-0.000106
H43	H	-0.833890	-0.468657	0.079641
H44	H	-0.833912	-0.468661	-0.079791
C45	C	-1.728735	0.206993	-0.000119
H46	H	-1.795262	0.273101	-0.000109
H47	H	-1.734843	0.156471	-0.079832
H48	H	-1.734845	0.156458	0.079600
H49	H	-0.891602	0.025693	-0.000142
C50	C	-1.152028	0.051552	-0.000091
H51	H	-1.102579	0.121151	-0.000090
H52	H	-1.203729	0.054945	-0.079795
H53	H	-1.203709	0.054941	0.079636
H54	H	-1.274601	0.408693	-0.000041
C55	C	-1.248746	0.148261	-0.000053
H56	H	-1.267437	0.062853	-0.000044
H57	H	-1.201204	0.163987	-0.079754
H58	H	-1.201233	0.163983	0.079678
H59	H	-1.638699	-0.031288	-0.630605
