data_functionalizedCrystal
_audit_creation_method	'MofGen! by Chris Wilmer'
_symmetry_space_group_name_H-M	'P1'
_symmetry_Int_Tables_number	1
_symmetry_cell_setting	triclinic
loop_
_symmetry_equiv_pos_as_xyz
  x,y,z
_cell_length_a	16.625547
_cell_length_b	16.625545
_cell_length_c	18.215399
_cell_angle_alpha	89.972987
_cell_angle_beta	90.023923
_cell_angle_gamma	89.976026
loop_
_atom_site_label
_atom_site_type_symbol
_atom_site_fract_x
_atom_site_fract_y
_atom_site_fract_z
Zn1	Zn	1.232665	0.321011	0.416201
Zn2	Zn	1.232566	0.455851	0.293137
Zn3	Zn	1.097828	0.321036	0.293140
Zn4	Zn	1.097793	0.455805	0.416153
O5	O	1.165213	0.388426	0.354658
O6	O	1.345484	0.338907	0.399895
O7	O	1.214667	0.437998	0.190153
O8	O	1.115771	0.208201	0.309485
O9	O	1.345412	0.437973	0.309480
O10	O	1.214834	0.208182	0.399898
O11	O	1.115675	0.338950	0.190155
O12	O	0.984991	0.338905	0.309439
O13	O	1.115710	0.437895	0.519144
O14	O	0.984965	0.437919	0.399816
O15	O	1.214800	0.338862	0.519179
O16	O	1.214632	0.568678	0.309434
O17	O	1.115615	0.568644	0.399813
C18	C	0.955722	0.388410	0.354623
C19	C	0.866101	0.388423	0.354625
C20	C	0.793319	0.388425	0.354634
C21	C	0.702010	0.388429	0.354653
C22	C	0.629234	0.388436	0.354672
C23	C	0.537920	0.388442	0.354689
C24	C	1.165131	0.597917	0.354634
C25	C	1.165170	0.687538	0.354648
C26	C	1.165301	1.015714	0.354736
C27	C	1.165262	0.924405	0.354714
C28	C	1.165235	0.851629	0.354692
C29	C	1.165197	0.760315	0.354670
C30	C	1.375522	0.388442	0.354693
C31	C	1.465143	0.388449	0.354708
C32	C	1.165262	0.388371	0.546611
C33	C	1.165283	0.388347	0.628409
C34	C	1.165311	1.178117	0.354706
C35	C	1.165335	1.088496	0.354749
C36	C	1.165211	0.388423	0.163451
C37	C	1.165346	0.388220	0.081653
C38	C	1.216898	0.336732	0.816623
C39	C	1.216907	0.336709	0.893482
C40	C	1.113726	0.439837	0.893434
C41	C	1.113713	0.439856	0.816576
C42	C	1.165303	0.388305	0.778173
C43	C	1.165326	0.388262	0.931889
C44	C	1.165336	0.388237	1.015223
C45	C	1.165292	0.388328	0.694834
H46	H	1.258904	0.294754	0.785357
H47	H	1.071724	0.481809	0.924711
H48	H	1.258919	0.294712	0.924785
Br49	Br	1.043679	0.509844	0.764389
