data_functionalizedCrystal
_audit_creation_method	'MofGen! by Chris Wilmer'
_symmetry_space_group_name_H-M	'P1'
_symmetry_Int_Tables_number	1
_symmetry_cell_setting	triclinic
loop_
_symmetry_equiv_pos_as_xyz
  x,y,z
_cell_length_a	6.817900
_cell_length_b	11.164130
_cell_length_c	11.102300
_cell_angle_alpha	88.374611
_cell_angle_beta	71.394150
_cell_angle_gamma	109.526701
loop_
_atom_site_label
_atom_site_type_symbol
_atom_site_fract_x
_atom_site_fract_y
_atom_site_fract_z
V1	V	4.116412	0.175839	-0.396254
O2	O	4.070328	-0.008450	-0.388713
O3	O	4.097987	0.348659	-0.393541
O4	O	4.093118	0.173134	-0.569075
O5	O	4.075231	0.168290	-0.211964
V6	V	4.592903	0.153796	-0.374212
O7	O	4.393096	0.224192	-0.444605
O8	O	4.766416	0.105442	-0.325860
O9	O	4.388121	-0.019025	-0.376924
O10	O	4.756383	0.338084	-0.381752
O11	O	4.751481	0.161344	-0.558501
O12	O	4.392990	0.156500	-0.201390
C13	C	3.949468	0.390788	-0.387289
C14	C	4.015857	0.532071	-0.386223
C15	C	4.231234	0.604919	-0.392063
C16	C	4.293608	0.737670	-0.391071
C17	C	3.925202	0.724712	-0.378395
C18	C	3.862837	0.591965	-0.379395
C19	C	3.943255	0.166887	-0.611198
C20	C	4.005691	0.165819	-0.752481
C21	C	4.206959	0.938852	-0.383169
C22	C	4.140596	0.797570	-0.384231
C23	C	4.219211	0.171665	-0.825329
C24	C	4.277863	0.170657	-0.958078
C25	C	3.909455	0.157963	-0.945118
C26	C	3.850802	0.158961	-0.812370
C27	C	4.206195	0.162751	-0.159260
C28	C	4.122996	0.163813	-0.017977
H29	H	4.468985	0.796979	-0.395829
C30	C	3.630993	0.262563	-0.672741
C31	C	3.616101	0.152595	-0.732318
H32	H	3.486107	0.258640	-0.623325
H33	H	3.702150	0.336865	-0.736422
H34	H	3.714795	0.266750	-0.618053
H35	H	3.532312	0.148413	-0.787013
H36	H	3.544911	0.078272	-0.668628
C37	C	3.857215	0.922450	-0.371218
C38	C	3.757002	0.790550	-0.370872
H39	H	3.753362	0.963089	-0.366563
H40	H	3.981915	0.958471	-0.448111
H41	H	3.904298	0.935241	-0.299198
H42	H	3.709933	0.777759	-0.442898
H43	H	3.632262	0.754518	-0.293971
C44	C	3.472384	0.522919	-0.259128
C45	C	3.626070	0.511878	-0.372970
H46	H	3.326225	0.473470	-0.255164
H47	H	3.487624	0.610539	-0.257562
H48	H	3.499056	0.492212	-0.187451
H49	H	3.599407	0.542593	-0.444648
H50	H	3.610821	0.424239	-0.374548
C51	C	4.669708	0.290941	-1.027114
C52	C	4.512574	0.177092	-1.038158
H53	H	4.814611	0.294914	-1.076560
H54	H	4.656937	0.292509	-0.939493
H55	H	4.644161	0.362612	-1.057823
H56	H	4.538111	0.105420	-1.007440
H57	H	4.525354	0.175512	-1.125797
H58	H	4.355837	0.556158	-0.397621
H59	H	4.345335	0.177247	-0.776571
H60	H	3.783360	0.152382	-0.993896
