data_functionalizedCrystal
_audit_creation_method	'MofGen! by Chris Wilmer'
_symmetry_space_group_name_H-M	'P1'
_symmetry_Int_Tables_number	1
_symmetry_cell_setting	triclinic
loop_
_symmetry_equiv_pos_as_xyz
  x,y,z
_cell_length_a	17.052832
_cell_length_b	21.606444
_cell_length_c	21.606444
_cell_angle_alpha	60.001331
_cell_angle_beta	102.317002
_cell_angle_gamma	67.550222
loop_
_atom_site_label
_atom_site_type_symbol
_atom_site_fract_x
_atom_site_fract_y
_atom_site_fract_z
Zr1	Zr	0.773236	0.677441	0.048971
O2	O	0.645063	0.806565	-0.071429
O3	O	0.812530	0.548321	0.085877
O4	O	0.812519	0.677445	-0.043243
O5	O	0.645080	0.677437	0.159546
O6	O	0.944610	0.677443	-0.021006
O7	O	0.645073	0.677441	0.057691
O8	O	0.944629	0.446464	0.209966
O9	O	0.645062	0.908416	-0.071426
O10	O	0.927864	0.601427	0.118216
O11	O	0.829291	0.601425	0.177634
O12	O	0.829279	0.753452	0.025612
O13	O	0.730706	0.753450	0.085030
Zr14	Zr	0.983917	0.677431	0.246884
Zr15	Zr	0.983906	0.677438	0.084436
Zr16	Zr	0.773247	0.677434	0.211418
Zr17	Zr	0.773234	0.839881	0.048976
Zr18	Zr	0.983919	0.514991	0.246879
O19	O	0.944624	0.806551	0.209977
O20	O	0.944608	0.806561	-0.021002
O21	O	0.645078	0.806555	0.159550
O22	O	1.112090	0.548307	0.367284
O23	O	1.112075	0.548317	0.136305
O24	O	0.812545	0.548311	0.316856
O25	O	1.112073	0.677435	0.136308
O26	O	0.944634	0.677428	0.339097
O27	O	0.812543	0.677429	0.316860
O28	O	1.112080	0.677431	0.238164
O29	O	0.812516	0.908414	-0.043236
O30	O	0.944637	0.446458	0.339090
O31	O	1.112091	0.446456	0.367281
O32	O	1.112083	0.446462	0.238157
O33	O	0.645070	0.908411	0.057698
O34	O	0.812525	0.908408	0.085888
O35	O	0.927874	0.601420	0.270243
O36	O	1.026447	0.601422	0.210825
O37	O	0.927862	0.753447	0.118220
O38	O	0.829289	0.753445	0.177639
C39	C	0.878579	0.474248	0.147921
C40	C	0.878580	0.405288	0.147919
C41	C	0.930032	0.372891	0.116902
C42	C	0.930036	0.308091	0.116908
C43	C	0.878581	0.275694	0.147925
C44	C	0.827127	0.308093	0.178947
C45	C	0.827130	0.372887	0.178947
C46	C	0.827116	0.046784	0.178952
C47	C	0.827115	-0.018014	0.178948
C48	C	0.930021	-0.018012	0.116913
C49	C	0.930024	0.046782	0.116912
C50	C	0.878575	0.079172	0.147937
C51	C	0.878574	0.149435	0.147932
C52	C	0.878576	0.205437	0.147925
C53	C	0.615061	0.677440	0.103565
C54	C	0.525626	0.677441	0.088509
C55	C	0.273547	0.677426	0.270536
C56	C	0.357579	0.677420	0.284687
C57	C	0.399595	0.677425	0.235643
C58	C	0.357571	0.677437	0.172447
C59	C	0.273535	0.677436	0.158300
C60	C	0.399582	0.677435	0.123407
C61	C	0.357558	0.677447	0.060211
C62	C	0.273530	0.677447	0.046066
C63	C	0.231515	0.677442	0.095109
C64	C	0.483618	0.677436	0.137555
C65	C	0.483606	0.677446	0.025318
C66	C	0.399574	0.677453	0.011168
C67	C	1.142092	0.677433	0.192289
C68	C	1.231527	0.677432	0.207345
C69	C	0.878563	0.677445	-0.055270
C70	C	0.878559	0.677448	-0.124233
C71	C	0.878574	0.880624	0.147933
C72	C	0.878573	0.949584	0.147935
C73	C	0.827098	0.756803	-0.204970
C74	C	0.827106	0.756800	-0.269763
C75	C	0.878570	0.677442	-0.253819
C76	C	0.930038	0.598081	-0.173073
C77	C	0.930034	0.598085	-0.108280
C78	C	0.930053	0.598066	-0.434373
C79	C	0.930050	0.598069	-0.499175
C80	C	0.827125	0.756782	-0.595856
C81	C	0.827122	0.756785	-0.531064
C82	C	0.878593	0.677425	-0.450323
C83	C	0.878585	0.677428	-0.380067
C84	C	0.878574	0.677438	-0.324074
C85	C	0.878590	0.677427	0.351124
C86	C	0.878594	0.677424	0.420087
C87	C	1.142095	0.474245	0.192283
C88	C	1.231531	0.405283	0.207337
C89	C	0.878593	0.474239	0.351118
C90	C	0.878598	0.405276	0.420079
C91	C	1.142108	0.474236	0.395480
C92	C	1.231549	0.405272	0.479497
C93	C	0.615045	0.880636	-0.099625
C94	C	0.525604	0.949601	-0.183643
C95	C	0.615058	0.880628	0.103571
C96	C	0.525622	0.949589	0.088517
C97	C	0.878560	0.880633	-0.055264
C98	C	0.878555	0.949596	-0.124225
C99	C	1.222072	0.372901	0.166059
C100	C	1.306098	0.308113	0.180187
C101	C	1.399583	0.275705	0.235598
C102	C	1.409040	0.308094	0.276877
C103	C	1.325015	0.372885	0.262744
C104	C	0.930060	0.372888	0.500811
C105	C	0.930061	0.308099	0.565613
C106	C	0.878606	0.275695	0.549682
C107	C	0.827138	0.308089	0.468941
C108	C	0.827131	0.372882	0.404140
C109	C	1.325014	0.372886	0.487938
C110	C	1.409061	0.308096	0.566876
C111	C	1.399640	0.275688	0.637372
C112	C	1.306165	0.308080	0.628928
C113	C	1.222121	0.372873	0.549991
C114	C	0.432139	0.981994	-0.192084
C115	C	0.348093	1.046804	-0.271022
C116	C	0.357513	1.079216	-0.341518
C117	C	0.450988	1.046820	-0.333073
C118	C	0.535032	0.982015	-0.254136
C119	C	0.535082	0.981978	0.129789
C120	C	0.451055	1.046784	0.115643
C121	C	0.357570	1.079194	0.060229
C122	C	0.348113	1.046802	0.018953
C123	C	0.432138	0.982002	0.033095
C124	C	0.930020	0.981980	-0.108267
C125	C	0.930034	1.046769	-0.173054
C126	C	0.878577	1.079178	-0.253799
C127	C	0.827110	1.046788	-0.269755
C128	C	0.827102	0.981996	-0.204968
H129	H	0.971919	0.073162	0.091651
F130	F	0.460999	1.081322	-0.408109
F131	F	1.122586	0.407382	0.107080
F132	F	0.772319	0.841268	-0.221949
H133	H	0.239337	0.677415	0.310466
F134	F	0.984801	0.513604	-0.348456
H135	H	1.468083	0.222929	0.701643
H136	H	0.468018	0.677420	0.247167
H137	H	0.271987	1.073201	-0.026165
H138	H	1.332703	0.399264	0.430546
H139	H	0.239320	0.677447	-0.005386
F140	F	1.296012	0.273652	0.136250
H141	H	1.332730	0.399242	0.296364
H142	H	0.424450	0.955608	-0.134691
F143	F	0.422056	0.947533	-0.010832
F144	F	0.984829	0.513601	-0.482198
F145	F	0.984793	0.947499	-0.022338
F146	F	0.984810	1.081233	-0.156056
F147	F	1.489002	0.206747	0.250633
H148	H	0.517816	0.677448	-0.014615
F149	F	0.248619	1.081268	-0.279991
F150	F	1.508534	0.273631	0.575846
F151	F	0.984813	0.513622	-0.156105
H152	H	0.878591	1.131937	-0.306545
H153	H	0.785244	0.281696	0.455981
F154	F	0.984833	0.407361	0.517786
F155	F	0.772347	0.841245	-0.681792
H156	H	0.785204	0.821419	-0.335501
F157	F	0.402303	0.677406	0.351941
F158	F	0.142073	0.677454	0.080046
F159	F	0.984815	0.513624	-0.022350
H160	H	0.365347	0.677462	-0.040287
H161	H	0.611194	0.955595	0.174916
H162	H	0.785210	0.821407	-0.544055
H163	H	0.785214	1.073186	-0.335505
F164	F	1.296155	0.273579	0.703964
F165	F	1.508542	0.273592	0.335850
H166	H	1.146020	0.399233	0.543129
F167	F	0.461141	1.081243	0.159582
H168	H	0.971976	0.281731	0.631351
F169	F	0.878623	0.206736	0.618658
H170	H	0.785228	0.399244	0.338406
H171	H	0.289160	1.131958	0.048721
F172	F	0.268056	1.148187	-0.425526
H173	H	0.971927	0.399269	0.091639
F174	F	0.984780	0.273629	0.083878
F175	F	0.634503	0.947542	-0.245165
H176	H	0.785189	0.955636	-0.217973
H177	H	0.971918	-0.044394	0.091653
H178	H	0.785227	0.073145	0.204218
F179	F	0.772348	-0.052493	0.211964
H180	H	0.785230	0.399266	0.204201
F181	F	0.772379	0.273601	0.211971
H182	H	0.517827	0.677426	0.189010
