data_functionalizedCrystal
_audit_creation_method	'MofGen! by Chris Wilmer'
_symmetry_space_group_name_H-M	'P1'
_symmetry_Int_Tables_number	1
_symmetry_cell_setting	triclinic
loop_
_symmetry_equiv_pos_as_xyz
  x,y,z
_cell_length_a	19.121102
_cell_length_b	17.640280
_cell_length_c	17.639306
_cell_angle_alpha	92.178650
_cell_angle_beta	76.884014
_cell_angle_gamma	104.073365
loop_
_atom_site_label
_atom_site_type_symbol
_atom_site_fract_x
_atom_site_fract_y
_atom_site_fract_z
Zn1	Zn	1.230224	0.457420	-0.413535
Zn2	Zn	1.220803	0.558221	-0.260560
Zn3	Zn	1.082925	0.423600	-0.281144
Zn4	Zn	1.129288	0.578759	-0.384153
O5	O	1.165810	0.504500	-0.334848
O6	O	1.328920	0.476350	-0.396925
O7	O	1.179168	0.517614	-0.156160
O8	O	1.087004	0.320965	-0.319617
O9	O	1.321998	0.550408	-0.284534
O10	O	1.195225	0.345813	-0.416884
O11	O	1.077869	0.418708	-0.171283
O12	O	0.989130	0.438623	-0.291126
O13	O	1.166023	0.585412	-0.495181
O14	O	1.023192	0.552618	-0.366807
O15	O	1.240181	0.496265	-0.516768
O16	O	1.224124	0.668066	-0.256044
O17	O	1.156888	0.683155	-0.346847
C18	C	1.194537	0.703391	-0.296041
C19	C	1.206898	0.788486	-0.279467
C20	C	0.980247	0.494180	-0.328012
C21	C	0.900869	0.489788	-0.325102
C22	C	1.209324	0.546902	-0.534529
C23	C	1.227867	0.564972	-0.619621
C24	C	0.881323	0.547133	-0.363046
C25	C	0.806738	0.542996	-0.360318
C26	C	0.751700	0.481517	-0.319640
C27	C	0.771249	0.424166	-0.281695
C28	C	0.845833	0.428300	-0.284428
C29	C	0.525616	0.466059	-0.309424
C30	C	0.451028	0.461931	-0.306691
C31	C	0.486523	0.580760	-0.385316
C32	C	0.561107	0.584892	-0.388042
C33	C	0.580650	0.527539	-0.350100
C34	C	0.675461	0.477289	-0.316848
C35	C	0.656887	0.531765	-0.352897
C36	C	1.352098	0.514861	-0.341711
C37	C	1.431483	0.519276	-0.344636
C38	C	1.136994	0.304837	-0.373824
C39	C	1.124714	0.219753	-0.390434
C40	C	1.072262	1.107701	-0.461048
C41	C	1.083873	1.187656	-0.445450
C42	C	1.153964	1.171902	-0.350997
C43	C	1.142362	1.091945	-0.366590
C44	C	1.101510	1.059851	-0.421615
C45	C	1.171610	1.044095	-0.327158
C46	C	1.160006	0.964144	-0.342747
C47	C	1.119154	0.932043	-0.397768
C48	C	1.089906	0.979900	-0.437204
C49	C	1.212458	1.076189	-0.272128
C50	C	1.241706	1.028339	-0.232696
C51	C	1.230107	0.948388	-0.248289
C52	C	1.189254	0.916287	-0.303310
C53	C	1.259355	0.900531	-0.208852
C54	C	1.247750	0.820580	-0.224441
C55	C	1.177650	0.836336	-0.318899
C56	C	1.025177	0.366959	-0.938866
C57	C	1.042619	0.383955	-1.018820
C58	C	1.148091	0.486935	-1.003054
C59	C	1.130659	0.469945	-0.923097
C60	C	1.069201	0.409957	-0.891010
C61	C	1.174683	0.512943	-0.875241
C62	C	1.157250	0.495957	-0.795291
C63	C	1.095794	0.435973	-0.763196
C64	C	1.051768	0.392971	-0.811059
C65	C	1.236138	0.572935	-0.907330
C66	C	1.280162	0.615933	-0.859474
C67	C	1.262733	0.598943	-0.779522
C68	C	1.201276	0.538960	-0.747428
C69	C	1.306758	0.641946	-0.731660
C70	C	1.289326	0.624960	-0.651709
C71	C	1.183843	0.521974	-0.667478
C72	C	1.122499	0.462210	-0.135956
C73	C	1.104063	0.443932	-0.050911
H74	H	0.926132	0.597198	-0.396168
F75	F	0.785941	0.604031	-0.400704
F76	F	0.619679	0.650328	-0.431335
H77	H	1.056646	0.953769	-0.482018
H78	H	1.039002	1.081571	-0.505861
F79	F	1.197442	1.206068	-0.292438
F80	F	0.712671	0.358731	-0.238408
H81	H	0.406215	0.411859	-0.273573
F82	F	1.372158	0.705795	-0.765819
H83	H	1.330199	0.664778	-0.885610
H84	H	1.060063	1.226616	-0.477574
H85	H	1.221907	1.141292	-0.259440
H86	H	1.274966	1.054481	-0.187892
F87	F	1.134177	0.802177	-0.377470
F88	F	0.715464	0.597193	-0.396189
F89	F	0.616879	0.411859	-0.273557
F90	F	0.959771	0.303106	-0.904713
H91	H	1.325182	0.659963	-0.612746
H92	H	1.292610	0.926673	-0.164045
F93	F	1.278873	0.769650	-0.182467
F94	F	0.866633	0.367265	-0.244045
H95	H	1.133804	0.473118	-0.641352
F96	F	1.106962	0.846988	-0.414502
H97	H	1.081597	0.422150	-0.698094
H98	H	1.006767	0.348934	-1.057784
F99	F	0.986362	0.329118	-0.776906
H100	H	1.198128	0.535780	-1.029191
F101	F	0.465718	0.641796	-0.425692
F102	F	1.254691	0.591010	-0.992422
H103	H	0.541518	0.419363	-0.278522
