data_functionalizedCrystal
_audit_creation_method	'MofGen! by Chris Wilmer'
_symmetry_space_group_name_H-M	'P1'
_symmetry_Int_Tables_number	1
_symmetry_cell_setting	triclinic
loop_
_symmetry_equiv_pos_as_xyz
  x,y,z
_cell_length_a	17.639617
_cell_length_b	17.637651
_cell_length_c	17.639306
_cell_angle_alpha	92.131371
_cell_angle_beta	65.670249
_cell_angle_gamma	109.613464
loop_
_atom_site_label
_atom_site_type_symbol
_atom_site_fract_x
_atom_site_fract_y
_atom_site_fract_z
Zn1	Zn	1.306842	-0.187122	-0.673678
Zn2	Zn	1.251044	-0.297097	-0.507954
Zn3	Zn	1.141172	-0.187093	-0.507978
Zn4	Zn	1.129875	-0.341458	-0.606568
O5	O	1.207233	-0.253193	-0.574045
O6	O	1.419483	-0.183158	-0.679770
O7	O	1.217846	-0.263927	-0.397341
O8	O	1.191228	-0.076469	-0.558055
O9	O	1.378489	-0.263956	-0.558013
O10	O	1.312945	-0.076491	-0.679794
O11	O	1.137124	-0.183107	-0.397359
O12	O	1.019630	-0.226122	-0.492981
O13	O	1.171973	-0.339563	-0.726086
O14	O	1.011330	-0.339534	-0.565414
O15	O	1.301990	-0.226173	-0.775392
O16	O	1.206892	-0.413609	-0.492939
O17	O	1.117869	-0.446201	-0.565390
C18	C	0.984355	-0.287640	-0.521918
C19	C	0.889004	-0.302398	-0.499632
C20	C	0.682050	-0.141088	-0.743549
C21	C	0.592446	-0.154973	-0.722586
C22	C	0.549799	-0.238916	-0.595698
C23	C	0.639401	-0.225041	-0.616651
C24	C	0.705520	-0.176125	-0.690577
C25	C	0.662871	-0.260078	-0.563680
C26	C	0.752465	-0.246201	-0.584630
C27	C	0.818589	-0.197286	-0.658551
C28	C	0.795114	-0.162248	-0.711527
C29	C	0.596751	-0.308988	-0.489751
C30	C	0.620221	-0.344026	-0.436780
C31	C	0.709816	-0.330153	-0.457732
C32	C	0.775940	-0.281238	-0.531654
C33	C	0.733291	-0.365191	-0.404756
C34	C	0.822885	-0.351314	-0.425706
C35	C	0.865534	-0.267361	-0.552604
C36	C	1.155126	-0.458589	-0.521902
C37	C	1.132917	-0.546451	-0.499640
C38	C	1.376551	-0.835258	-0.743545
C39	C	1.355653	-0.917819	-0.722607
C40	C	1.228966	-0.917876	-0.595760
C41	C	1.249856	-0.835312	-0.616685
C42	C	1.323649	-0.794009	-0.690580
C43	C	1.196954	-0.794064	-0.563720
C44	C	1.217840	-0.711508	-0.584647
C45	C	1.291628	-0.670200	-0.658539
C46	C	1.344535	-0.711454	-0.711507
C47	C	1.123158	-0.835369	-0.489829
C48	C	1.070256	-0.794121	-0.436863
C49	C	1.091145	-0.711562	-0.457787
C50	C	1.164933	-0.670254	-0.531679
C51	C	1.038238	-0.670309	-0.404819
C52	C	1.059124	-0.587753	-0.425746
C53	C	1.185819	-0.587699	-0.552606
C54	C	1.430982	-0.218612	-0.626375
C55	C	1.526331	-0.203875	-0.648675
C56	C	1.241945	-0.287820	-0.780223
C57	C	1.256738	-0.302576	-0.868084
C58	C	1.259570	-0.046994	-0.626413
C59	C	1.281873	0.040876	-0.648730
C60	C	1.095266	-0.140745	-1.157116
C61	C	1.109181	-0.154625	-1.239675
C62	C	1.193229	-0.238774	-1.239636
C63	C	1.179325	-0.224898	-1.157077
C64	C	1.130342	-0.175884	-1.115823
C65	C	1.214400	-0.260037	-1.115784
C66	C	1.200493	-0.246166	-1.033230
C67	C	1.151511	-0.197156	-0.991969
C68	C	1.116435	-0.162013	-1.033269
C69	C	1.263378	-0.309055	-1.157037
C70	C	1.298453	-0.344194	-1.115744
C71	C	1.284552	-0.330318	-1.033191
C72	C	1.235569	-0.281309	-0.991930
C73	C	1.319628	-0.365461	-0.991891
C74	C	1.305720	-0.351590	-0.909338
C75	C	1.221662	-0.267437	-0.909377
C76	C	1.172720	-0.218635	-0.368694
C77	C	1.158150	-0.203631	-0.280929
H78	H	0.891542	-0.185984	-0.675605
H79	H	0.841993	-0.379845	-0.382572
Br80	Br	0.970104	-0.850183	-0.336587
Br81	Br	0.643550	-0.431560	-0.304424
H82	H	1.436646	-0.801626	-0.803714
H83	H	1.168882	-0.951516	-0.535596
H84	H	1.398727	-0.951404	-0.765752
Br85	Br	0.771791	-0.074712	-0.843885
H86	H	0.848953	-0.122419	-0.771727
Br87	Br	0.475157	-0.327814	-0.461313
Br88	Br	1.386085	-0.431992	-1.047882
Br89	Br	1.094931	-0.947366	-0.461331
Br90	Br	0.530482	-0.410404	-0.336452
Br91	Br	0.955275	-0.200985	-0.652940
Br92	Br	0.560599	-0.107408	-0.794480
Br93	Br	1.028803	-0.074213	-1.101126
H94	H	0.495954	-0.278740	-0.535505
H95	H	1.245914	-0.554067	-0.612774
Br96	Br	1.353315	-0.399286	-0.853288
Br97	Br	1.132623	-0.178339	-0.879926
Br98	Br	0.987329	-0.531768	-0.353863
H99	H	1.308632	-0.602978	-0.675576
Br100	Br	1.444695	-0.655388	-0.811784
Br101	Br	1.282253	-0.327880	-1.269076
H102	H	0.978151	-0.703951	-0.344659
H103	H	1.181786	-0.227516	-0.875790
Br104	Br	1.049972	-0.095480	-0.977279
H105	H	1.233107	-0.278684	-1.273235
Br106	Br	1.061606	-0.106901	-1.295727
Br107	Br	1.364921	-0.410716	-1.171736
