data_functionalizedCrystal
_audit_creation_method	'MofGen! by Chris Wilmer'
_symmetry_space_group_name_H-M	'P1'
_symmetry_Int_Tables_number	1
_symmetry_cell_setting	triclinic
loop_
_symmetry_equiv_pos_as_xyz
  x,y,z
_cell_length_a	12.827893
_cell_length_b	12.827892
_cell_length_c	21.395355
_cell_angle_alpha	89.986671
_cell_angle_beta	89.977438
_cell_angle_gamma	90.015362
loop_
_atom_site_label
_atom_site_type_symbol
_atom_site_fract_x
_atom_site_fract_y
_atom_site_fract_z
Zn1	Zn	1.597703	-0.416155	-0.354251
Zn2	Zn	1.597588	-0.590882	-0.249483
Zn3	Zn	1.422935	-0.416155	-0.249491
Zn4	Zn	1.422930	-0.590855	-0.354227
O5	O	1.510289	-0.503511	-0.301863
O6	O	1.743924	-0.439344	-0.340360
O7	O	1.574373	-0.567715	-0.161806
O8	O	1.446169	-0.269919	-0.263401
O9	O	1.743839	-0.567715	-0.263387
O10	O	1.574571	-0.269919	-0.340368
O11	O	1.446056	-0.439344	-0.161812
O12	O	1.276698	-0.439318	-0.263378
O13	O	1.446161	-0.567669	-0.441908
O14	O	1.276695	-0.567669	-0.340327
O15	O	1.574566	-0.439318	-0.441925
O16	O	1.574368	-0.737114	-0.263364
O17	O	1.446048	-0.737094	-0.340318
C18	C	1.238779	-0.503491	-0.301851
C19	C	1.122626	-0.503508	-0.301861
C20	C	0.950771	-0.439930	-0.263862
C21	C	1.070821	-0.439912	-0.263851
C22	C	1.510224	-0.775021	-0.301851
C23	C	1.510291	-0.891175	-0.301867
C24	C	1.573800	-0.942876	-0.339987
C25	C	1.573872	-1.062926	-0.340004
C26	C	1.782859	-0.503532	-0.301875
C27	C	1.899012	-0.503541	-0.301880
C28	C	1.510376	-0.503490	-0.465286
C29	C	1.510413	-0.503481	-0.534927
C30	C	1.510383	-0.230941	-0.301888
C31	C	1.510423	-0.114788	-0.301899
C32	C	1.577270	-0.436646	-0.567651
C33	C	1.577269	-0.436601	-0.633086
C34	C	1.510421	-0.503410	-0.665796
C35	C	1.443550	-0.570250	-0.633065
C36	C	1.443546	-0.570286	-0.567630
C37	C	1.502147	-0.597504	-0.769467
C38	C	1.502158	-0.597470	-0.834900
C39	C	1.510427	-0.503300	-0.867617
C40	C	1.518707	-0.409160	-0.834893
C41	C	1.518703	-0.409196	-0.769458
C42	C	1.510417	-0.503378	-0.736748
C43	C	1.577287	-0.436410	-0.971293
C44	C	1.577278	-0.436363	-1.036729
C45	C	1.443565	-0.570022	-1.036706
C46	C	1.443568	-0.570059	-0.971271
C47	C	1.510435	-0.503255	-0.938568
C48	C	1.510263	-0.503457	-0.139075
C49	C	1.510428	-0.503172	-0.069434
H50	H	1.628117	-0.898265	-0.372613
N51	N	1.645876	-1.121813	-0.383249
H52	H	1.688202	-1.070704	-0.408679
H53	H	1.694251	-1.167087	-0.357763
H54	H	1.078121	-0.557974	-0.334409
H55	H	1.631720	-0.381932	-1.063372
H56	H	1.631710	-0.382170	-0.659735
N57	N	0.891747	-0.367826	-0.220747
H58	H	0.846478	-0.319508	-0.246279
H59	H	0.846500	-0.410370	-0.191713
H60	H	1.456052	-1.070334	-0.269259
N61	N	1.371440	-0.642129	-0.935971
H62	H	1.329084	-0.684441	-0.966620
H63	H	1.413939	-0.690516	-0.908827
H64	H	0.943576	-0.557983	-0.334424
N65	N	1.438334	-0.950252	-0.258650
H66	H	1.389952	-0.995561	-0.284116
H67	H	1.480970	-0.995463	-0.229677
H68	H	1.115333	-0.385455	-0.231301
N69	N	1.493238	-0.699083	-0.734184
H70	H	1.494490	-0.684823	-0.687767
H71	H	1.425600	-0.734589	-0.745608
H72	H	1.525442	-0.332478	-0.861529
H73	H	1.631717	-0.382248	-0.541028
N74	N	1.527635	-0.307670	-0.734162
H75	H	1.532878	-0.248004	-0.764812
H76	H	1.463967	-0.297977	-0.706998
H77	H	1.631728	-0.382008	-0.944664
N78	N	1.371454	-0.642073	-1.071976
H79	H	1.381597	-0.631908	-1.118395
H80	H	1.387689	-0.716716	-1.060548
H81	H	1.495423	-0.674124	-0.861538
N82	N	1.371432	-0.642292	-0.668339
H83	H	1.381577	-0.632127	-0.714758
H84	H	1.387654	-0.716938	-0.656913
H85	H	1.389098	-0.624710	-0.540987
