data_functionalizedCrystal
_audit_creation_method	'MofGen! by Chris Wilmer'
_symmetry_space_group_name_H-M	'P1'
_symmetry_Int_Tables_number	1
_symmetry_cell_setting	triclinic
loop_
_symmetry_equiv_pos_as_xyz
  x,y,z
_cell_length_a	16.959455
_cell_length_b	25.639240
_cell_length_c	16.959447
_cell_angle_alpha	89.959660
_cell_angle_beta	89.983056
_cell_angle_gamma	90.029705
loop_
_atom_site_label
_atom_site_type_symbol
_atom_site_fract_x
_atom_site_fract_y
_atom_site_fract_z
Zn1	Zn	1.208335	-0.208183	-0.446854
Zn2	Zn	1.208222	-0.295623	-0.314653
Zn3	Zn	1.076157	-0.208199	-0.314692
Zn4	Zn	1.076098	-0.295584	-0.446791
O5	O	1.142203	-0.251897	-0.380747
O6	O	1.318930	-0.219791	-0.429327
O7	O	1.190680	-0.284050	-0.204047
O8	O	1.093762	-0.135032	-0.332266
O9	O	1.318848	-0.284034	-0.332199
O10	O	1.190873	-0.135020	-0.429365
O11	O	1.093653	-0.219820	-0.204075
O12	O	0.965538	-0.219781	-0.332205
O13	O	1.093663	-0.283967	-0.557410
O14	O	0.965495	-0.283983	-0.429258
O15	O	1.190816	-0.219753	-0.557457
O16	O	1.190624	-0.368783	-0.332138
O17	O	1.093553	-0.368755	-0.429220
C18	C	0.936837	-0.251880	-0.380729
C19	C	0.848980	-0.251885	-0.380740
C20	C	1.142091	-0.387740	-0.380685
C21	C	1.142116	-0.445854	-0.380685
C22	C	0.477502	-0.218440	-0.330317
C23	C	0.477506	-0.285397	-0.431222
C24	C	0.560052	-0.285390	-0.431218
C25	C	0.601327	-0.251908	-0.380761
C26	C	0.560056	-0.218433	-0.330309
C27	C	0.601330	-0.318868	-0.481663
C28	C	0.683881	-0.318862	-0.481659
C29	C	0.725157	-0.285377	-0.431206
C30	C	0.683881	-0.251900	-0.380753
C31	C	0.725155	-0.218418	-0.330297
C32	C	0.683881	-0.184938	-0.279847
C33	C	0.601332	-0.184948	-0.279856
C34	C	0.807705	-0.285368	-0.431197
C35	C	0.807709	-0.218411	-0.330288
C36	C	1.192793	-0.806172	-0.431398
C37	C	1.192817	-0.860777	-0.431414
O38	O	1.235772	-0.888975	-0.474468
N39	N	1.142313	-0.888136	-0.380824
C40	C	1.091776	-0.860889	-0.330220
O41	O	1.048820	-0.889175	-0.287190
C42	C	1.091749	-0.806286	-0.330208
C43	C	1.142263	-0.778929	-0.380796
C44	C	1.243302	-0.778815	-0.481983
C45	C	1.243279	-0.724215	-0.481965
C46	C	1.192748	-0.696971	-0.431364
C47	C	1.142240	-0.724328	-0.380779
C48	C	1.041210	-0.779040	-0.279609
C49	C	1.041187	-0.724433	-0.279602
C50	C	1.091700	-0.697076	-0.330190
C51	C	1.091687	-0.642484	-0.330160
N52	N	1.142191	-0.615124	-0.380750
C53	C	1.192722	-0.642368	-0.431352
C54	C	1.091835	-0.975560	-0.330249
C55	C	1.091865	-1.030162	-0.330255
C56	C	1.192905	-1.030046	-0.431451
C57	C	1.192878	-0.975442	-0.431440
C58	C	1.142339	-0.948200	-0.380839
C59	C	1.192671	-0.527703	-0.431311
C60	C	1.192647	-0.473097	-0.431287
C61	C	1.091604	-0.473219	-0.330095
C62	C	1.091632	-0.527819	-0.330116
C63	C	1.142168	-0.555060	-0.380730
O64	O	1.048751	-0.614251	-0.287130
O65	O	1.235663	-0.614076	-0.474381
C66	C	1.348371	-0.251915	-0.380766
C67	C	1.436228	-0.251923	-0.380774
C68	C	1.142245	-0.251854	-0.586916
C69	C	1.142263	-0.251835	-0.674772
C70	C	1.142337	-0.115524	-0.380827
C71	C	1.142394	-0.057410	-0.380861
C72	C	1.091815	-0.218339	-1.046269
C73	C	1.192851	-0.285222	-1.046227
C74	C	1.192837	-0.285234	-0.963681
C75	C	1.142311	-0.251799	-0.922425
C76	C	1.091798	-0.218351	-0.963716
C77	C	1.243343	-0.318685	-0.922385
C78	C	1.243330	-0.318699	-0.839834
C79	C	1.192808	-0.285260	-0.798576
C80	C	1.142294	-0.251811	-0.839872
C81	C	1.091768	-0.218375	-0.798616
C82	C	1.041257	-0.184923	-0.839910
C83	C	1.041276	-0.184912	-0.922459
C84	C	1.192789	-0.285271	-0.716028
C85	C	1.091751	-0.218388	-0.716063
C86	C	1.142206	-0.251903	-0.175381
C87	C	1.142341	-0.251774	-0.087525
H88	H	0.841309	-0.191142	-0.289205
H89	H	0.717479	-0.346123	-0.522739
Cl90	Cl	0.977743	-0.142890	-0.788036
Cl91	Cl	0.977780	-0.142864	-0.974375
Cl92	Cl	1.028323	-0.176284	-1.098179
Cl93	Cl	0.549438	-0.360973	-0.545064
Cl94	Cl	1.028300	-0.941318	-0.266624
H95	H	1.233920	-0.312504	-0.682410
H96	H	1.050741	-1.052432	-0.289053
H97	H	1.233817	-0.549876	-0.472532
H98	H	1.284450	-0.800991	-0.523194
H99	H	1.050609	-0.191157	-0.682478
H100	H	0.567719	-0.157691	-0.238782
Cl101	Cl	0.735779	-0.142851	-0.216413
Cl102	Cl	1.256381	-0.941056	-0.495040
H103	H	1.233981	-0.312448	-1.079822
Cl104	Cl	1.306849	-0.360721	-0.974252
Cl105	Cl	1.306832	-0.360750	-0.787929
Cl106	Cl	0.977700	-0.813418	-0.216011
Cl107	Cl	0.977648	-0.690188	-0.215985
Cl108	Cl	0.425617	-0.327498	-0.494633
Cl109	Cl	0.425617	-0.176351	-0.266902
Cl110	Cl	0.859590	-0.327456	-0.494609
H111	H	1.233783	-0.450825	-0.472482
H112	H	1.050465	-0.451028	-0.288893
Cl113	Cl	1.306778	-0.689831	-0.545572
Cl114	Cl	1.028139	-0.562212	-0.266508
H115	H	1.234049	-1.052237	-0.472656
