data_functionalizedCrystal
_audit_creation_method	'MofGen! by Chris Wilmer'
_symmetry_space_group_name_H-M	'P1'
_symmetry_Int_Tables_number	1
_symmetry_cell_setting	triclinic
loop_
_symmetry_equiv_pos_as_xyz
  x,y,z
_cell_length_a	29.839134
_cell_length_b	29.839134
_cell_length_c	21.395355
_cell_angle_alpha	89.963393
_cell_angle_beta	89.999064
_cell_angle_gamma	90.007368
loop_
_atom_site_label
_atom_site_type_symbol
_atom_site_fract_x
_atom_site_fract_y
_atom_site_fract_z
Zn1	Zn	0.178992	0.686904	-0.354548
Zn2	Zn	0.254107	0.686874	-0.249806
Zn3	Zn	0.178983	0.611771	-0.249762
Zn4	Zn	0.254086	0.611789	-0.354524
O5	O	0.216542	0.649334	-0.302160
O6	O	0.188969	0.749767	-0.340682
O7	O	0.244147	0.676892	-0.162122
O8	O	0.116117	0.621742	-0.263654
O9	O	0.244156	0.749745	-0.263728
O10	O	0.116124	0.676942	-0.340639
O11	O	0.188953	0.621713	-0.162090
O12	O	0.188933	0.548906	-0.263631
O13	O	0.244120	0.621773	-0.442205
O14	O	0.244111	0.548919	-0.340599
O15	O	0.188949	0.676960	-0.442222
O16	O	0.316972	0.676909	-0.263705
O17	O	0.316956	0.621744	-0.340641
C18	C	0.216519	0.532612	-0.302108
C19	C	0.216520	0.482677	-0.302101
C20	C	0.099364	0.649343	-0.302145
C21	C	0.049429	0.649347	-0.302138
C22	C	0.187768	0.126071	-0.262165
C23	C	0.187756	0.313744	-0.262127
O24	O	0.163272	0.337992	-0.228113
N25	N	0.216527	0.337232	-0.302132
C26	C	0.245301	0.313800	-0.342153
O27	O	0.269769	0.338084	-0.376184
C28	C	0.245311	0.126127	-0.342194
C29	C	0.216542	0.102641	-0.302181
C30	C	0.159001	0.102585	-0.222155
C31	C	0.159006	0.055669	-0.222163
C32	C	0.187779	0.032240	-0.262180
C33	C	0.216547	0.055726	-0.302189
C34	C	0.274083	0.102696	-0.382218
C35	C	0.274082	0.055775	-0.382226
C36	C	0.245312	0.032289	-0.342213
C37	C	0.245325	-0.014619	-0.342213
N38	N	0.216554	-0.038107	-0.302207
C39	C	0.187781	-0.014678	-0.262190
C40	C	0.245295	0.412330	-0.342128
C41	C	0.245293	0.459248	-0.342117
C42	C	0.187746	0.459189	-0.262091
C43	C	0.187751	0.412270	-0.262099
C44	C	0.216523	0.388842	-0.302123
C45	C	0.187794	-0.113204	-0.262209
C46	C	0.187803	-0.160123	-0.262218
C47	C	0.245347	-0.160060	-0.342246
C48	C	0.245340	-0.113145	-0.342235
C49	C	0.216560	-0.089718	-0.302214
O50	O	0.269792	-0.038896	-0.376214
O51	O	0.163309	-0.038971	-0.228174
C52	C	0.187763	0.172986	-0.262157
C53	C	0.216531	0.196472	-0.302166
C54	C	0.245304	0.173043	-0.342183
C55	C	0.216529	0.243390	-0.302155
C56	C	0.187756	0.266820	-0.262139
C57	C	0.158985	0.243331	-0.222133
C58	C	0.158990	0.196416	-0.222140
C59	C	0.274075	0.196531	-0.382189
C60	C	0.274068	0.243447	-0.382177
C61	C	0.245295	0.266876	-0.342161
C62	C	-0.260225	0.620644	-0.342247
C63	C	-0.447898	0.620654	-0.342266
O64	O	-0.472172	0.596243	-0.376353
N65	N	-0.471356	0.649375	-0.302211
C66	C	-0.447892	0.678098	-0.262151
O67	O	-0.472151	0.702531	-0.228086
C68	C	-0.260220	0.678091	-0.262135
C69	C	-0.236765	0.649364	-0.302189
C70	C	-0.236769	0.591921	-0.382298
C71	C	-0.189854	0.591917	-0.382290
C72	C	-0.166394	0.620637	-0.342232
C73	C	-0.189849	0.649360	-0.302181
C74	C	-0.236758	0.706816	-0.222079
C75	C	-0.189837	0.706812	-0.222079
C76	C	-0.166381	0.678086	-0.262133
C77	C	-0.119474	0.678077	-0.262115
N78	N	-0.096016	0.649355	-0.302171
C79	C	-0.119476	0.620635	-0.342229
C80	C	-0.546423	0.678099	-0.262161
C81	C	-0.593341	0.678101	-0.262164
C82	C	-0.593343	0.620657	-0.342280
C83	C	-0.546424	0.620653	-0.342274
C84	C	-0.522965	0.649378	-0.302216
C85	C	-0.020950	0.620629	-0.342209
C86	C	0.025969	0.620627	-0.342196
C87	C	0.025968	0.678072	-0.262083
C88	C	-0.020948	0.678073	-0.262093
C89	C	-0.044406	0.649350	-0.302161
O90	O	-0.095171	0.702478	-0.228052
O91	O	-0.095209	0.596213	-0.376298
C92	C	-0.307140	0.620648	-0.342255
C93	C	-0.330596	0.649372	-0.302204
C94	C	-0.307136	0.678092	-0.262146
C95	C	-0.377513	0.649373	-0.302207
C96	C	-0.400974	0.620653	-0.342265
C97	C	-0.377516	0.591932	-0.382321
C98	C	-0.330600	0.591928	-0.382313
C99	C	-0.330593	0.706813	-0.222090
C100	C	-0.377509	0.706814	-0.222101
C101	C	-0.400969	0.678094	-0.262159
C102	C	0.333265	0.649338	-0.302189
C103	C	0.383199	0.649381	-0.302222
C104	C	0.216533	0.649372	-0.465583
C105	C	0.216529	0.649388	-0.535225
C106	C	0.216566	0.766513	-0.302212
C107	C	0.216576	0.816447	-0.302235
C108	C	0.187800	0.678122	-0.567948
C109	C	0.187781	0.678121	-0.633383
C110	C	0.216499	0.649391	-0.666093
C111	C	0.245230	0.620651	-0.633362
C112	C	0.245245	0.620649	-0.567928
C113	C	0.256949	0.645845	-0.769777
C114	C	0.256935	0.645850	-0.835210
C115	C	0.216451	0.649394	-0.867914
C116	C	0.175981	0.652942	-0.835177
C117	C	0.175996	0.652941	-0.769743
C118	C	0.216485	0.649390	-0.737045
C119	C	0.187699	0.678129	-0.971590
C120	C	0.187679	0.678125	-1.037026
C121	C	0.245131	0.620657	-1.037004
C122	C	0.245147	0.620659	-0.971568
C123	C	0.216432	0.649397	-0.938865
C124	C	0.216519	0.649323	-0.139372
C125	C	0.216396	0.649394	-0.069731
H126	H	0.164374	-0.179244	-0.229633
H127	H	0.045077	0.701454	-0.229466
H128	H	0.268726	0.393259	-0.374721
H129	H	0.164356	-0.094135	-0.229623
H130	H	0.268639	0.597248	-0.541285
C131	C	0.305779	-0.060362	-0.350816
C132	C	0.276969	-0.087328	-0.386213
H133	H	0.325305	-0.044429	-0.377971
H134	H	0.288642	-0.039693	-0.326993
H135	H	0.322936	-0.078679	-0.323486
H136	H	0.259810	-0.069011	-0.413540
H137	H	0.294108	-0.108000	-0.410046
H138	H	0.143015	0.655829	-0.861803
C139	C	0.078717	0.560188	-0.350875
C140	C	0.051751	0.589050	-0.386229
H141	H	0.094630	0.540694	-0.378060
H142	H	0.099405	0.577290	-0.327024
H143	H	0.060404	0.543000	-0.323574
H144	H	0.070065	0.606240	-0.413527
H145	H	0.031061	0.571946	-0.410091
C146	C	-0.232047	0.535136	-0.461478
C147	C	-0.262551	0.560345	-0.426332
H148	H	-0.247962	0.515638	-0.488658
H149	H	-0.213746	0.554717	-0.485451
H150	H	-0.213749	0.517952	-0.434158
H151	H	-0.280847	0.577532	-0.453652
H152	H	-0.280860	0.540762	-0.402356
C153	C	-0.449443	0.566439	-0.417899
C154	C	-0.403309	0.560364	-0.426357
H155	H	-0.465367	0.546954	-0.445089
H156	H	-0.457132	0.559852	-0.375805
H157	H	-0.457117	0.596630	-0.427080
H158	H	-0.395635	0.530174	-0.417171
H159	H	-0.395617	0.566947	-0.468461
C160	C	-0.073698	0.738507	-0.253418
C161	C	-0.046732	0.709646	-0.218062
H162	H	-0.089615	0.757999	-0.226236
H163	H	-0.055386	0.755693	-0.280715
H164	H	-0.094385	0.721401	-0.277275
H165	H	-0.026042	0.726753	-0.194208
H166	H	-0.065045	0.692459	-0.190754
C167	C	0.102120	0.060338	-0.143070
C168	C	0.127375	0.029857	-0.178187
H169	H	0.082589	0.044404	-0.115924
H170	H	0.121669	0.078625	-0.119061
H171	H	0.084969	0.078652	-0.170410
H172	H	0.144529	0.011546	-0.150846
H173	H	0.107824	0.011563	-0.202198
H174	H	0.164384	0.701520	-0.660032
H175	H	-0.040044	0.597241	-0.374838
H176	H	0.164322	0.393151	-0.229520
C177	C	0.330953	0.098021	-0.461332
C178	C	0.305705	0.128503	-0.426207
H179	H	0.350474	0.113954	-0.488494
H180	H	0.348111	0.079713	-0.434002
H181	H	0.311396	0.079729	-0.485330
H182	H	0.325263	0.146793	-0.402205
H183	H	0.288546	0.146819	-0.453540
C184	C	0.307319	0.679880	-0.696260
C185	C	0.301463	0.641936	-0.733858
H186	H	0.334800	0.677459	-0.674092
H187	H	0.307899	0.705921	-0.721801
H188	H	0.283231	0.681988	-0.667381
H189	H	0.325549	0.639830	-0.762740
H190	H	0.300886	0.615888	-0.708315
C191	C	0.152669	0.155290	-0.137869
C192	C	0.127372	0.128334	-0.178162
H193	H	0.133142	0.171186	-0.110708
H194	H	0.172218	0.136975	-0.113878
H195	H	0.169797	0.175997	-0.161699
H196	H	0.110246	0.107626	-0.154333
H197	H	0.107815	0.146651	-0.202155
C198	C	-0.289513	0.713059	-0.137796
C199	C	-0.262530	0.738396	-0.178051
H200	H	-0.305420	0.732558	-0.110612
H201	H	-0.310205	0.695961	-0.161647
H202	H	-0.271212	0.693479	-0.113822
H203	H	-0.280831	0.757974	-0.202029
H204	H	-0.241835	0.755501	-0.154198
H205	H	-0.396603	0.730206	-0.189479
H206	H	-0.527330	0.597264	-0.374892
H207	H	-0.311507	0.568537	-0.414930
H208	H	0.297511	0.036702	-0.414820
H209	H	0.164319	0.478273	-0.229507
C210	C	-0.551144	0.734876	-0.182964
C211	C	-0.520640	0.709672	-0.218120
H212	H	-0.535227	0.754364	-0.155771
H213	H	-0.569437	0.752066	-0.210273
H214	H	-0.569449	0.715289	-0.158998
H215	H	-0.502337	0.729259	-0.242089
H216	H	-0.502339	0.692480	-0.190807
C217	C	0.131009	0.734926	-0.574548
C218	C	0.156232	0.709706	-0.532002
H219	H	0.111518	0.754421	-0.552354
H220	H	0.150581	0.752109	-0.600090
H221	H	0.113817	0.715349	-0.600048
H222	H	0.173426	0.729283	-0.506504
H223	H	0.136657	0.692521	-0.506449
H224	H	-0.311497	0.730201	-0.189470
H225	H	0.268725	0.478366	-0.374693
H226	H	0.268775	-0.179145	-0.374825
C227	C	0.133430	0.315231	-0.186598
C228	C	0.127355	0.269091	-0.178148
H229	H	0.113901	0.331134	-0.159449
H230	H	0.163602	0.322917	-0.177364
H231	H	0.126900	0.322933	-0.228712
H232	H	0.133888	0.261388	-0.136035
H233	H	0.097177	0.261402	-0.187377
C234	C	0.330946	0.238781	-0.461291
C235	C	0.305694	0.269260	-0.426166
H236	H	0.350465	0.254716	-0.488451
H237	H	0.348106	0.220474	-0.433961
H238	H	0.311391	0.220487	-0.485290
H239	H	0.325249	0.287552	-0.402163
H240	H	0.288534	0.287574	-0.453499
C241	C	0.095974	0.659944	-0.776275
C242	C	0.131514	0.656834	-0.733758
H243	H	0.068512	0.662343	-0.754058
H244	H	0.099919	0.685691	-0.801817
H245	H	0.095384	0.633902	-0.801778
H246	H	0.132105	0.682877	-0.708258
H247	H	0.127568	0.631085	-0.708205
C248	C	0.130904	0.734929	-0.978182
C249	C	0.156130	0.709712	-0.935637
H250	H	0.111413	0.754424	-0.955986
H251	H	0.150473	0.752113	-1.003727
H252	H	0.113711	0.715351	-1.003679
H253	H	0.173326	0.729290	-0.910143
H254	H	0.136558	0.692527	-0.910081
C255	C	-0.137094	0.585694	-0.466570
C256	C	-0.164076	0.560345	-0.426327
H257	H	-0.121181	0.566202	-0.493757
H258	H	-0.155394	0.605273	-0.490537
H259	H	-0.116403	0.602792	-0.442708
H260	H	-0.184769	0.543250	-0.450190
H261	H	-0.145774	0.540758	-0.402358
H262	H	0.297506	0.177460	-0.414776
H263	H	-0.170739	0.730205	-0.189461
H264	H	0.268509	0.597260	-1.063635
H265	H	0.164282	0.701524	-1.063668
H266	H	-0.612452	0.597271	-0.374897
C267	C	-0.646101	0.684328	-0.177880
C268	C	-0.619119	0.709673	-0.218129
H269	H	-0.662011	0.703822	-0.150694
H270	H	-0.666789	0.667230	-0.201735
H271	H	-0.627797	0.664748	-0.153908
H272	H	-0.637423	0.729251	-0.242104
H273	H	-0.598428	0.726779	-0.194271
C274	C	0.301935	0.563858	-0.978121
C275	C	0.276731	0.589076	-0.935595
H276	H	0.321435	0.544360	-0.955911
H277	H	0.282352	0.546677	-1.003617
H278	H	0.319117	0.583435	-1.003668
H279	H	0.259546	0.569498	-0.910050
H280	H	0.296317	0.606258	-0.910087
H281	H	0.289888	0.642963	-0.861859
H282	H	0.268610	0.597257	-0.659998
H283	H	0.135562	0.177297	-0.189558
