data_functionalizedCrystal
_audit_creation_method	'MofGen! by Chris Wilmer'
_symmetry_space_group_name_H-M	'P1'
_symmetry_Int_Tables_number	1
_symmetry_cell_setting	triclinic
loop_
_symmetry_equiv_pos_as_xyz
  x,y,z
_cell_length_a	6.817900
_cell_length_b	10.943632
_cell_length_c	16.255661
_cell_angle_alpha	93.782539
_cell_angle_beta	103.488922
_cell_angle_gamma	108.838880
loop_
_atom_site_label
_atom_site_type_symbol
_atom_site_fract_x
_atom_site_fract_y
_atom_site_fract_z
V1	V	-4.054164	-0.179673	-0.263851
O2	O	-4.013035	0.007561	-0.258849
O3	O	-4.032538	-0.355229	-0.262026
O4	O	-4.005375	-0.177380	-0.378934
O5	O	-4.040386	-0.171519	-0.141131
V6	V	-4.534372	-0.157222	-0.249175
O7	O	-4.322692	-0.228921	-0.296043
O8	O	-4.716042	-0.107974	-0.216982
O9	O	-4.332791	0.018334	-0.251000
O10	O	-4.692898	-0.344455	-0.254177
O11	O	-4.665547	-0.165375	-0.371894
O12	O	-4.359954	-0.159515	-0.134091
C13	C	-3.884065	-0.398011	-0.257858
C14	C	-3.947667	-0.541533	-0.257134
C15	C	-3.793634	-0.618667	-0.252314
C16	C	-3.888351	-0.691043	-0.183995
C17	C	-3.966305	-0.724890	-0.324171
C18	C	-4.041514	-0.612005	-0.188766
C19	C	-4.119473	-0.645859	-0.329004
C20	C	-4.214302	-0.718197	-0.260671
C21	C	-3.849415	-0.171145	-0.406985
C22	C	-3.890986	-0.170432	-0.501067
C23	C	-3.800241	-0.161915	-0.723886
C24	C	-3.973452	-0.271842	-0.793350
C25	C	-3.967166	-0.169095	-0.673315
C26	C	-3.868053	-0.057910	-0.771489
C27	C	-4.040736	-0.167798	-0.839699
C28	C	-4.139874	-0.279121	-0.741549
C29	C	-4.034398	-0.065091	-0.719673
C30	C	-4.207750	-0.175050	-0.789117
C31	C	-3.924779	-0.169844	-0.577466
C32	C	-4.083141	-0.167060	-0.935548
C33	C	-4.144608	0.061109	-0.255165
C34	C	-4.060243	0.204630	-0.255895
C35	C	-4.179257	-0.165753	-0.106036
C36	C	-4.116924	-0.166460	-0.011954
H37	H	-4.216446	-0.625310	-0.390322
H38	H	-3.753538	0.035554	-0.785110
H39	H	-4.392743	-0.761436	-0.264181
H40	H	-3.935088	-0.774036	-0.381376
H41	H	-3.627660	-0.156504	-0.695407
H42	H	-3.615161	-0.575168	-0.248700
O43	O	-4.078502	-0.553692	-0.120331
C44	C	-3.998975	-0.510833	0.033381
C45	C	-3.956944	-0.576963	-0.044044
H46	H	-3.900686	-0.529600	0.095078
H47	H	-4.177424	-0.552709	0.030121
H48	H	-3.949821	-0.401139	0.032258
H49	H	-4.005973	-0.686660	-0.042970
H50	H	-3.778491	-0.534983	-0.040756
H51	H	-4.380476	-0.180632	-0.817463
O52	O	-3.942869	-0.376012	-0.831568
C53	C	-3.694150	-0.486951	-0.841469
C54	C	-3.728496	-0.368908	-0.798141
H55	H	-3.520849	-0.481262	-0.814448
H56	H	-3.727776	-0.485926	-0.913440
H57	H	-3.808471	-0.581114	-0.828555
H58	H	-3.614200	-0.274684	-0.810988
H59	H	-3.694945	-0.370049	-0.726183
H60	H	-3.791297	-0.711559	-0.122677
O61	O	-4.276268	-0.390734	-0.725330
C62	C	-4.389922	-0.516609	-0.617908
C63	C	-4.235312	-0.390167	-0.636158
H64	H	-4.356894	-0.516180	-0.545814
H65	H	-4.364305	-0.604676	-0.648951
H66	H	-4.563155	-0.522536	-0.645457
H67	H	-4.062020	-0.384112	-0.608610
H68	H	-4.261117	-0.302159	-0.605131
H69	H	-4.059636	0.022324	-0.687574
