data_functionalizedCrystal
_audit_creation_method	'MofGen! by Chris Wilmer'
_symmetry_space_group_name_H-M	'P1'
_symmetry_Int_Tables_number	1
_symmetry_cell_setting	triclinic
loop_
_symmetry_equiv_pos_as_xyz
  x,y,z
_cell_length_a	14.044220
_cell_length_b	14.971486
_cell_length_c	13.101018
_cell_angle_alpha	86.637324
_cell_angle_beta	93.664297
_cell_angle_gamma	88.401503
loop_
_atom_site_label
_atom_site_type_symbol
_atom_site_fract_x
_atom_site_fract_y
_atom_site_fract_z
O1	O	1.263160	0.211151	0.085107
O2	O	0.987183	0.203367	0.085132
O3	O	1.132568	0.077642	0.085112
O4	O	1.117775	0.336876	0.085127
O5	O	1.122125	0.086670	-0.085317
O6	O	0.976740	0.212395	-0.085296
O7	O	1.252717	0.220179	-0.085322
Zn8	Zn	1.113070	0.217720	-0.112369
Zn9	Zn	1.126830	0.205825	0.112179
O10	O	1.107332	0.345904	-0.085301
C11	C	1.126685	0.048779	-0.000103
C12	C	1.124702	-0.050674	-0.000101
C13	C	0.946644	0.204474	-0.000079
C14	C	0.841407	0.194313	-0.000069
C15	C	1.210112	-0.101171	-0.000110
C16	C	1.208244	-0.194618	-0.000100
C17	C	1.120965	-0.237567	-0.000088
C18	C	1.035549	-0.187063	-0.000076
C19	C	1.037418	-0.093618	-0.000079
C20	C	1.031658	-0.381833	-0.000072
C21	C	1.029788	-0.475284	-0.000071
C22	C	1.202484	-0.482832	-0.000092
C23	C	1.204354	-0.389387	-0.000096
C24	C	1.118937	-0.338890	-0.000086
C25	C	0.648723	0.175737	-0.000090
C26	C	0.591172	0.247804	-0.000090
C27	C	0.483956	0.237468	-0.000102
C28	C	0.755949	0.186072	-0.000079
C29	C	1.293256	0.219071	-0.000109
C30	C	1.398494	0.229233	-0.000112
C31	C	1.113215	0.374767	-0.000085
C32	C	1.115198	0.474220	-0.000079
N33	N	1.103687	0.225839	-0.265616
C34	C	1.148982	0.186652	-0.525532
C35	C	1.090928	0.236885	-0.474651
C36	C	1.098029	0.230737	-0.358333
C37	C	1.141883	0.192798	-0.641861
N38	N	1.136221	0.197701	0.265426
H39	H	1.281184	-0.066209	-0.000126
H40	H	0.622422	0.317265	-0.000081
N41	N	0.609513	0.088610	-0.000103
N42	N	0.521207	0.080233	-0.000112
H43	H	0.493503	0.018700	-0.000118
N44	N	1.021907	0.296649	-0.529587
N45	N	1.024082	0.378816	-0.517700
H46	H	0.975341	0.421027	-0.556503
H47	H	0.962103	-0.340721	-0.000061
H48	H	1.204014	0.139033	-0.481740
H49	H	0.964485	-0.222040	-0.000060
H50	H	1.277793	-0.235728	-0.000109
H51	H	1.272034	-0.523951	-0.000097
N52	N	1.293505	-0.345514	-0.000131
N53	N	1.346705	-0.354674	-0.071981
H54	H	1.409670	-0.323689	-0.072006
N55	N	0.940628	-0.519142	-0.000076
N56	N	0.864371	-0.474048	-0.000070
H57	H	0.801398	-0.505022	-0.000080
H58	H	0.967869	-0.052505	-0.000072
