data_functionalizedCrystal
_audit_creation_method	'MofGen! by Chris Wilmer'
_symmetry_space_group_name_H-M	'P1'
_symmetry_Int_Tables_number	1
_symmetry_cell_setting	triclinic
loop_
_symmetry_equiv_pos_as_xyz
  x,y,z
_cell_length_a	10.723024
_cell_length_b	14.044190
_cell_length_c	9.798715
_cell_angle_alpha	89.992011
_cell_angle_beta	89.996609
_cell_angle_gamma	88.829823
loop_
_atom_site_label
_atom_site_type_symbol
_atom_site_fract_x
_atom_site_fract_y
_atom_site_fract_z
O1	O	1.670502	0.133040	-0.113499
O2	O	1.308624	0.145775	-0.113506
O3	O	1.484127	0.001387	-0.113476
O4	O	1.494999	0.277427	-0.113529
O5	O	1.484112	0.001387	0.113507
O6	O	1.308610	0.145774	0.113477
O7	O	1.670488	0.133040	0.113483
Zn8	Zn	1.489546	0.139407	0.149518
Zn9	Zn	1.489565	0.139407	-0.149541
O10	O	1.494985	0.277427	0.113453
C11	C	1.262025	0.144848	-0.000015
C12	C	1.123193	0.142075	-0.000016
C13	C	0.922816	0.055948	-0.000002
C14	C	1.066306	0.058811	-0.000001
C15	C	1.479363	-0.033958	0.000019
C16	C	1.465175	-0.139277	0.000031
C17	C	1.539861	-0.389077	-0.000021
C18	C	1.439257	-0.332103	-0.000013
C19	C	1.453681	-0.224804	0.000011
C20	C	1.525438	-0.496386	-0.000046
C21	C	1.717087	0.133967	-0.000011
C22	C	1.855919	0.136739	-0.000018
C23	C	1.499749	0.312773	-0.000045
C24	C	1.513937	0.418091	-0.000066
N25	N	1.489543	0.139406	0.353618
N26	N	1.489578	0.139401	-0.353640
C27	C	1.563205	0.078515	0.421407
C28	C	1.563224	0.078511	0.578570
H29	H	1.123817	-0.010352	0.000005
C30	C	1.308260	-0.375058	-0.000006
C31	C	1.268300	-0.440248	0.117861
C32	C	1.137307	-0.483207	0.117880
C33	C	1.046275	-0.460975	0.000032
C34	C	1.086233	-0.395781	-0.117843
C35	C	1.217225	-0.352823	-0.117862
H36	H	1.335689	-0.456709	0.205106
H37	H	1.107729	-0.531468	0.205139
H38	H	0.949307	-0.492775	0.000046
H39	H	1.018843	-0.379321	-0.205089
H40	H	1.246804	-0.304562	-0.205122
H41	H	0.873859	-0.015341	0.000032
H42	H	1.065690	0.211243	-0.000036
H43	H	1.636816	-0.357273	-0.000005
C44	C	1.648388	0.008086	0.342646
C45	C	1.648122	0.008098	0.185489
C46	C	1.733309	-0.062334	0.106733
C47	C	1.818763	-0.132777	0.185133
C48	C	1.819032	-0.132791	0.342298
C49	C	1.733845	-0.062360	0.421054
H50	H	1.584862	0.060246	0.127445
H51	H	1.733110	-0.062323	-0.009611
H52	H	1.881823	-0.184915	0.126833
H53	H	1.882292	-0.184940	0.400343
H54	H	1.734044	-0.062371	0.537399
H55	H	1.626294	0.026383	0.636866
H56	H	0.904876	0.208028	-0.000024
H57	H	1.426515	0.191539	0.588072
H58	H	1.426487	0.191532	0.411931
