data_functionalizedCrystal
_audit_creation_method	'MofGen! by Chris Wilmer'
_symmetry_space_group_name_H-M	'P1'
_symmetry_Int_Tables_number	1
_symmetry_cell_setting	triclinic
loop_
_symmetry_equiv_pos_as_xyz
  x,y,z
_cell_length_a	12.837943
_cell_length_b	12.784905
_cell_length_c	16.053802
_cell_angle_alpha	92.294724
_cell_angle_beta	87.147768
_cell_angle_gamma	83.968130
loop_
_atom_site_label
_atom_site_type_symbol
_atom_site_fract_x
_atom_site_fract_y
_atom_site_fract_z
O1	O	1.355505	0.269821	-0.069409
O2	O	1.054919	0.256294	-0.069415
O3	O	1.227208	0.110558	-0.069409
O4	O	1.183216	0.415557	-0.069415
O5	O	1.217728	0.118543	0.069449
O6	O	1.045439	0.264279	0.069444
O7	O	1.346025	0.277806	0.069449
Zn8	Zn	1.194227	0.272310	0.091493
Zn9	Zn	1.206717	0.261790	-0.091459
O10	O	1.173736	0.423542	0.069444
C11	C	1.011970	0.255718	0.000014
C12	C	0.898121	0.242090	0.000012
C13	C	1.225329	0.075241	0.000019
C14	C	1.233842	-0.041891	0.000016
C15	C	0.642395	0.405922	0.000021
C16	C	0.535423	0.393122	0.000020
C17	C	0.577203	0.203692	0.000014
C18	C	0.684175	0.216491	0.000016
C19	C	0.716766	0.317610	0.000018
C20	C	0.823741	0.330408	0.000013
C21	C	0.865518	0.140979	0.000013
C22	C	0.758546	0.128179	0.000012
C23	C	1.060399	-0.255841	0.000021
C24	C	1.068393	-0.365897	0.000017
C25	C	1.257823	-0.372059	0.000012
C26	C	1.249829	-0.262003	0.000015
C27	C	1.151114	-0.203898	0.000018
C28	C	1.143121	-0.093841	0.000015
C29	C	1.332549	-0.100005	0.000016
C30	C	1.340543	-0.210060	0.000013
C31	C	1.388973	0.278383	0.000019
C32	C	1.502822	0.292010	0.000015
C33	C	1.175615	0.458859	0.000014
C34	C	1.167102	0.575991	0.000012
N35	N	1.185710	0.279491	0.216353
N36	N	1.215242	0.254602	-0.216319
C37	C	1.259041	0.217507	0.260050
C38	C	1.253092	0.222540	0.347456
C39	C	1.173816	0.289564	0.391165
C40	C	1.100477	0.351550	0.347463
C41	C	1.106422	0.346511	0.260058
C42	C	1.147849	0.311549	0.652574
C43	C	1.141911	0.316586	0.739985
C44	C	1.294526	0.187574	0.739972
C45	C	1.300468	0.182545	0.652566
C46	C	1.227126	0.244527	0.608871
N47	N	1.167735	0.294713	0.480509
N48	N	1.233203	0.239371	0.519529
H49	H	0.668931	0.488256	0.000022
C50	C	1.067183	0.379736	0.604521
H51	H	1.019128	0.420382	0.643073
H52	H	1.030158	0.335530	0.570435
H53	H	1.102503	0.425385	0.570414
C54	C	1.333766	0.154368	0.395519
H55	H	1.381841	0.113742	0.356969
H56	H	1.298464	0.108718	0.429629
H57	H	1.370783	0.198595	0.429601
C58	C	1.034543	-0.029922	0.000019
H59	H	1.042772	0.043063	0.000012
H60	H	0.993635	-0.043911	0.048443
H61	H	1.000242	-0.049477	-0.048410
C62	C	1.375188	0.119387	0.788034
H63	H	1.423256	0.078753	0.749484
H64	H	1.339873	0.073745	0.822142
H65	H	1.412216	0.163601	0.822119
H66	H	0.550642	0.121370	0.000081
C67	C	1.449121	-0.273981	0.000005
H68	H	1.440892	-0.346967	-0.000002
H69	H	1.483432	-0.254430	0.048424
H70	H	1.490022	-0.259992	-0.048429
C71	C	0.453618	0.490264	0.000016
H72	H	0.488354	0.552316	0.000011
H73	H	0.407711	0.491994	0.048437
H74	H	0.414331	0.486424	-0.048415
H75	H	1.035923	0.406119	0.383055
C76	C	1.387667	0.108812	0.604492
H77	H	1.430484	0.072609	0.643035
H78	H	1.429326	0.149089	0.570382
H79	H	1.356982	0.059233	0.570409
C80	C	1.025761	0.414697	0.211992
H81	H	0.977701	0.455344	0.250540
H82	H	0.988741	0.370487	0.177906
H83	H	1.061082	0.460346	0.177885
H84	H	0.850274	0.412744	0.000016
H85	H	0.731994	0.045852	0.000020
C86	C	0.951821	-0.191924	0.000018
H87	H	0.898938	-0.238622	0.000021
H88	H	0.948073	-0.151643	-0.048404
H89	H	0.941459	-0.146083	0.048449
C90	C	0.947325	0.043828	0.000009
H91	H	0.912590	-0.018223	0.000001
H92	H	0.986625	0.047662	0.048430
H93	H	0.993222	0.042105	-0.048422
H94	H	1.406421	-0.057706	-0.000060
H95	H	0.994523	-0.408184	0.000024
H96	H	1.338191	-0.419386	0.000019
C97	C	1.054703	0.390312	0.788067
H98	H	1.061678	0.384443	0.846380
H99	H	0.988156	0.371062	0.773762
H100	H	1.060494	0.460923	0.773732
H101	H	1.323601	0.162933	0.224468
