data_functionalizedCrystal
_audit_creation_method	'MofGen! by Chris Wilmer'
_symmetry_space_group_name_H-M	'P1'
_symmetry_Int_Tables_number	1
_symmetry_cell_setting	triclinic
loop_
_symmetry_equiv_pos_as_xyz
  x,y,z
_cell_length_a	6.817900
_cell_length_b	9.582889
_cell_length_c	10.943624
_cell_angle_alpha	90.879661
_cell_angle_beta	108.838799
_cell_angle_gamma	111.207298
loop_
_atom_site_label
_atom_site_type_symbol
_atom_site_fract_x
_atom_site_fract_y
_atom_site_fract_z
V1	V	-4.128078	-0.207017	-0.402315
O2	O	-4.072597	0.009988	-0.394900
O3	O	-4.118397	-0.410518	-0.399329
O4	O	-4.105846	-0.203815	-0.577885
O5	O	-4.085235	-0.198146	-0.215108
V6	V	-4.603298	-0.181062	-0.379952
O7	O	-4.407549	-0.263949	-0.451370
O8	O	-4.774023	-0.124130	-0.330897
O9	O	-4.389772	0.022439	-0.382937
O10	O	-4.776175	-0.398067	-0.387367
O11	O	-4.763537	-0.189933	-0.567159
O12	O	-4.402323	-0.184264	-0.204382
C13	C	-3.971970	-0.460128	-0.392922
C14	C	-4.045516	-0.626492	-0.391651
C15	C	-3.955958	-0.196455	-0.620686
C16	C	-4.019321	-0.195184	-0.764214
C17	C	-3.863630	-0.186621	-0.841371
C18	C	-4.060713	-0.313713	-0.947216
C19	C	-3.935166	-0.065840	-0.914112
C20	C	-4.215622	-0.322395	-0.868182
C21	C	-4.089987	-0.074410	-0.835055
C22	C	-4.287209	-0.201538	-0.940870
C23	C	-4.199542	0.072041	-0.389341
C24	C	-4.105235	0.238404	-0.390620
C25	C	-4.215552	-0.191629	-0.161574
C26	C	-4.131427	-0.192893	-0.018045
H27	H	-3.684057	-0.180484	-0.797930
O28	O	-3.778949	0.077788	-0.941728
H29	H	-3.789568	0.177083	-0.894914
O30	O	-4.105388	0.059615	-0.770333
H31	H	-4.279908	0.054439	-0.811743
H32	H	-4.333602	-0.430941	-0.847514
O33	O	-4.045196	-0.447705	-1.011927
H34	H	-3.988469	-0.514819	-0.936673
H35	H	-4.466909	-0.207875	-0.984107
