data_functionalizedCrystal
_audit_creation_method	'MofGen! by Chris Wilmer'
_symmetry_space_group_name_H-M	'P1'
_symmetry_Int_Tables_number	1
_symmetry_cell_setting	triclinic
loop_
_symmetry_equiv_pos_as_xyz
  x,y,z
_cell_length_a	16.625546
_cell_length_b	17.077404
_cell_length_c	17.077396
_cell_angle_alpha	89.980499
_cell_angle_beta	90.030215
_cell_angle_gamma	89.977307
loop_
_atom_site_label
_atom_site_type_symbol
_atom_site_fract_x
_atom_site_fract_y
_atom_site_fract_z
Zn1	Zn	-0.320997	-1.200057	0.443833
Zn2	Zn	0.179003	-0.700057	0.943833
Zn3	Zn	-0.455839	-1.199965	0.312563
Zn4	Zn	0.044161	-0.699965	0.812563
Zn5	Zn	-0.321025	-1.068789	0.312581
Zn6	Zn	0.178975	-0.568789	0.812581
Zn7	Zn	-0.455792	-1.068758	0.443787
Zn8	Zn	0.044208	-0.568758	0.943787
O9	O	-0.388413	-1.134392	0.378191
O10	O	0.111587	-0.634392	0.878191
O11	O	-0.338892	-1.309892	0.426432
O12	O	0.161108	-0.809892	0.926432
O13	O	-0.437988	-1.182539	0.202719
O14	O	0.062012	-0.682539	0.702719
O15	O	-0.208189	-1.086253	0.330019
O16	O	0.291811	-0.586253	0.830019
O17	O	-0.437960	-1.309824	0.329988
O18	O	0.062040	-0.809824	0.829988
O19	O	-0.208168	-1.182695	0.426449
O20	O	0.291832	-0.682695	0.926449
O21	O	-0.338940	-1.086164	0.202732
O22	O	0.161060	-0.586164	0.702732
O23	O	-0.338894	-0.958938	0.329974
O24	O	0.161106	-0.458938	0.829974
O25	O	-0.437879	-1.086200	0.553640
O26	O	0.062121	-0.586200	1.053640
O27	O	-0.437906	-0.958915	0.426370
O28	O	0.062094	-0.458915	0.926370
O29	O	-0.338846	-1.182665	0.553674
O30	O	0.161154	-0.682665	1.053674
O31	O	-0.568666	-1.182509	0.329943
O32	O	-0.068666	-0.682509	0.829943
O33	O	-0.568630	-1.086111	0.426353
O34	O	-0.068630	-0.586111	0.926353
C35	C	-0.388399	-0.930444	0.378169
C36	C	0.111601	-0.430444	0.878169
C37	C	-0.388412	-0.843194	0.378179
C38	C	0.111588	-0.343194	0.878179
C39	C	-0.597904	-1.134318	0.378158
C40	C	-0.097904	-0.634318	0.878158
C41	C	-0.687525	-1.134358	0.378170
C42	C	-0.187525	-0.634358	0.878170
C43	C	-0.388354	-1.134440	0.582936
C44	C	0.111646	-0.634440	1.082936
C45	C	-0.388329	-1.134460	0.670185
C46	C	0.111671	-0.634460	1.170185
C47	C	-1.015701	-1.134495	0.378252
C48	C	-0.515701	-0.634495	0.878252
C49	C	-0.924392	-1.134454	0.378232
C50	C	-0.424392	-0.634454	0.878232
C51	C	-0.851616	-1.134426	0.378211
C52	C	-0.351616	-0.634426	0.878211
C53	C	-0.760302	-1.134386	0.378191
C54	C	-0.260302	-0.634386	0.878191
C55	C	-0.178104	-1.134488	0.378241
C56	C	0.321896	-0.634488	0.878241
C57	C	-0.088483	-1.134529	0.378263
C58	C	0.411517	-0.634529	0.878263
C59	C	-0.388428	-1.339136	0.378213
C60	C	0.111572	-0.839136	0.878213
C61	C	-0.388435	-1.426386	0.378223
C62	C	0.111565	-0.926386	0.878223
C63	C	-0.440045	-0.802213	0.428292
C64	C	0.059955	-0.302213	0.928292
C65	C	-0.440047	-0.720232	0.428304
C66	C	0.059953	-0.220232	0.928304
C67	C	-0.388419	-0.679235	0.378199
C68	C	0.111581	-0.179235	0.878199
C69	C	-0.336780	-0.720222	0.328084
C70	C	0.163220	-0.220222	0.828084
C71	C	-0.336774	-0.802201	0.328076
C72	C	0.163226	-0.302201	0.828076
C73	C	-0.336795	-0.549352	0.328103
C74	C	0.163205	-0.049352	0.828103
C75	C	-0.336801	-0.467368	0.328110
C76	C	0.163199	0.032632	0.828110
C77	C	-0.440068	-0.467383	0.428331
C78	C	0.059932	0.032617	0.928331
C79	C	-0.440063	-0.549362	0.428323
C80	C	0.059937	-0.049362	0.928323
C81	C	-0.388425	-0.590344	0.378207
C82	C	0.111575	-0.090344	0.878207
C83	C	-0.388414	-1.134390	0.174243
C84	C	0.111586	-0.634390	0.674243
C85	C	-0.388212	-1.134522	0.086994
C86	C	0.111788	-0.634522	0.586994
C87	C	-0.336758	-1.184691	0.711195
C88	C	0.163242	-0.684691	1.211195
C89	C	-0.336731	-1.184700	0.793175
C90	C	0.163269	-0.684700	1.293175
C91	C	-0.388280	-1.134482	0.834145
C92	C	0.111720	-0.634482	1.334145
C93	C	-0.439853	-1.084245	0.793130
C94	C	0.060147	-0.584245	1.293130
C95	C	-0.439875	-1.084233	0.711151
C96	C	0.060125	-0.584233	1.211151
C97	C	-0.439804	-1.084277	0.964000
C98	C	0.060196	-0.584277	1.464000
C99	C	-0.439783	-1.084291	1.045985
C100	C	0.060217	-0.584291	1.545985
C101	C	-0.336660	-1.184745	1.046024
C102	C	0.163340	-0.684745	1.546024
C103	C	-0.336682	-1.184732	0.964045
C104	C	0.163318	-0.684732	1.464045
C105	C	-0.388257	-1.134496	0.923036
C106	C	0.111743	-0.634496	1.423036
H107	H	-0.482093	-0.686869	0.469111
H108	H	0.017907	-0.186869	0.969111
H109	H	-0.482112	-0.434012	0.469140
H110	H	0.017888	0.065988	0.969140
O111	O	-0.286575	-1.233461	1.085977
O112	O	0.213425	-0.733461	1.585977
C113	C	-0.240849	-1.278018	1.212288
C114	C	0.259151	-0.778018	1.712288
C115	C	-0.297596	-1.222799	1.167136
C116	C	0.202404	-0.722799	1.667136
H117	H	-0.249752	-1.269428	1.277913
H118	H	0.250248	-0.769428	1.777913
H119	H	-0.175822	-1.264253	1.196234
H120	H	0.324178	-0.764253	1.696234
H121	H	-0.255004	-1.341299	1.196138
H122	H	0.244996	-0.841299	1.696138
H123	H	-0.283514	-1.159499	1.183262
H124	H	0.216486	-0.659499	1.683262
H125	H	-0.362606	-1.236630	1.183194
H126	H	0.137394	-0.736630	1.683194
O127	O	-0.286796	-1.233555	0.671363
O128	O	0.213204	-0.733555	1.171363
C129	C	-0.275969	-1.339491	0.578790
C130	C	0.224031	-0.839491	1.078790
C131	C	-0.332648	-1.284217	0.623862
C132	C	0.167352	-0.784217	1.123862
H133	H	-0.313016	-1.380454	0.540362
H134	H	0.186984	-0.880454	1.040362
H135	H	-0.239116	-1.375450	0.622149
H136	H	0.260884	-0.875450	1.122149
H137	H	-0.233803	-1.303444	0.540451
H138	H	0.266197	-0.803444	1.040451
H139	H	-0.374863	-1.320203	0.662202
H140	H	0.125137	-0.820203	1.162202
H141	H	-0.369444	-1.248256	0.580460
H142	H	0.130556	-0.748256	1.080460
O143	O	-0.286726	-0.589130	0.279305
O144	O	0.213274	-0.089130	0.779305
C145	C	-0.247397	-0.614135	0.145843
C146	C	0.252603	-0.114135	0.645843
C147	C	-0.304154	-0.569050	0.201020
C148	C	0.195846	-0.069050	0.701020
H149	H	-0.261457	-0.597905	0.082539
H150	H	0.238543	-0.097905	0.582539
H151	H	-0.256268	-0.679778	0.154376
H152	H	0.243732	-0.179778	0.654376
H153	H	-0.182402	-0.598059	0.159775
H154	H	0.317598	-0.098059	0.659775
H155	H	-0.369171	-0.585061	0.187121
H156	H	0.130829	-0.085061	0.687121
H157	H	-0.295214	-0.503418	0.192476
H158	H	0.204786	-0.003418	0.692476
O159	O	-0.286510	-0.680437	0.279495
O160	O	0.213490	-0.180437	0.779495
C161	C	-0.149309	-0.655423	0.241602
C162	C	0.350691	-0.155423	0.741602
C163	C	-0.206147	-0.700510	0.296694
C164	C	0.293853	-0.200510	0.796694
H165	H	-0.084324	-0.671647	0.255476
H166	H	0.415676	-0.171647	0.755476
H167	H	-0.158110	-0.589780	0.250214
H168	H	0.341890	-0.089780	0.750214
H169	H	-0.163426	-0.671503	0.178286
H170	H	0.336574	-0.171503	0.678286
H171	H	-0.192065	-0.684495	0.360031
H172	H	0.307935	-0.184495	0.860031
H173	H	-0.197335	-0.766141	0.288014
H174	H	0.302665	-0.266141	0.788014
H175	H	-0.482090	-0.835587	0.469091
H176	H	0.017910	-0.335587	0.969091
O177	O	-0.286717	-1.233583	0.924202
O178	O	0.213283	-0.733583	1.424202
C179	C	-0.275878	-1.339491	0.831599
C180	C	0.224122	-0.839491	1.331599
C181	C	-0.332563	-1.284240	0.876691
C182	C	0.167437	-0.784240	1.376691
H183	H	-0.312921	-1.380450	0.793162
H184	H	0.187079	-0.880450	1.293162
H185	H	-0.239014	-1.375455	0.874944
H186	H	0.260986	-0.875455	1.374944
H187	H	-0.233722	-1.303425	0.793265
H188	H	0.266278	-0.803425	1.293265
H189	H	-0.374767	-1.320245	0.915025
H190	H	0.125233	-0.820245	1.415025
H191	H	-0.369370	-1.248273	0.833303
H192	H	0.130630	-0.748273	1.333303
O193	O	-0.286521	-1.233460	0.832919
O194	O	0.213479	-0.733460	1.332919
C195	C	-0.149358	-1.271606	0.858058
C196	C	0.350642	-0.771606	1.358058
C197	C	-0.206136	-1.216348	0.812990
C198	C	0.293864	-0.716348	1.312990
H199	H	-0.084354	-1.257780	0.841974
H200	H	0.415646	-0.757780	1.341974
H201	H	-0.163466	-1.334904	0.841930
H202	H	0.336534	-0.834904	1.341930
H203	H	-0.158227	-1.263007	0.923685
H204	H	0.341773	-0.763007	1.423685
H205	H	-0.197299	-1.224877	0.747352
H206	H	0.302701	-0.724877	1.247352
H207	H	-0.192015	-1.153070	0.829183
H208	H	0.307985	-0.653070	1.329183
H209	H	-0.482108	-0.582740	0.469119
H210	H	0.017892	-0.082740	0.969119
O211	O	-0.489879	-1.035432	1.085663
O212	O	0.010121	-0.535432	1.585663
C213	C	-0.592191	-0.935819	1.076978
C214	C	-0.092191	-0.435819	1.576978
C215	C	-0.535486	-0.991098	1.031945
C216	C	-0.035486	-0.491098	1.531945
H217	H	-0.629091	-0.899972	1.033566
H218	H	-0.129091	-0.399972	1.533566
H219	H	-0.555192	-0.894751	1.115341
H220	H	-0.055192	-0.394751	1.615341
H221	H	-0.634312	-0.971856	1.115374
H222	H	-0.134312	-0.471856	1.615374
H223	H	-0.493354	-0.955123	0.993506
H224	H	0.006646	-0.455123	1.493506
H225	H	-0.572535	-1.032167	0.993631
H226	H	-0.072535	-0.532167	1.493631
H227	H	-0.481789	-1.043357	0.930613
H228	H	0.018211	-0.543357	1.430613
H229	H	-0.294725	-0.835567	0.287273
H230	H	0.205275	-0.335567	0.787273
H231	H	-0.481861	-1.043321	0.677762
H232	H	0.018139	-0.543321	1.177762
O233	O	-0.490039	-1.035501	0.832840
O234	O	0.009961	-0.535501	1.332840
C235	C	-0.627186	-0.997370	0.857917
C236	C	-0.127186	-0.497370	1.357917
C237	C	-0.570438	-1.052608	0.812885
C238	C	-0.070438	-0.552608	1.312885
H239	H	-0.692201	-1.011192	0.841813
H240	H	-0.192201	-0.511192	1.341813
H241	H	-0.613092	-0.934065	0.841778
H242	H	-0.113092	-0.434065	1.341778
H243	H	-0.618272	-1.005997	0.923550
H244	H	-0.118272	-0.505997	1.423550
H245	H	-0.579320	-1.044052	0.747242
H246	H	-0.079320	-0.544052	1.247242
H247	H	-0.584545	-1.115893	0.829090
H248	H	-0.084545	-0.615893	1.329090
H249	H	-0.294752	-0.433990	0.287319
H250	H	0.205248	0.066010	0.787319
