data_functionalizedCrystal
_audit_creation_method	'MofGen! by Chris Wilmer'
_symmetry_space_group_name_H-M	'P1'
_symmetry_Int_Tables_number	1
_symmetry_cell_setting	triclinic
loop_
_symmetry_equiv_pos_as_xyz
  x,y,z
_cell_length_a	14.908571
_cell_length_b	14.908520
_cell_length_c	14.908858
_cell_angle_alpha	90.221996
_cell_angle_beta	90.204903
_cell_angle_gamma	90.205961
loop_
_atom_site_label
_atom_site_type_symbol
_atom_site_fract_x
_atom_site_fract_y
_atom_site_fract_z
Zn1	Zn	1.320955	-0.400317	0.609274
Zn2	Zn	1.820955	0.099683	1.109274
Zn3	Zn	1.319852	-0.559311	0.467520
Zn4	Zn	1.819852	-0.059311	0.967520
Zn5	Zn	1.179202	-0.401335	0.450323
Zn6	Zn	1.679202	0.098665	0.950323
Zn7	Zn	1.161939	-0.542004	0.608238
Zn8	Zn	1.661939	-0.042004	1.108238
O9	O	1.245487	-0.475742	0.533839
O10	O	1.745487	0.024258	1.033839
O11	O	1.446220	-0.428225	0.598100
O12	O	1.946220	0.071775	1.098100
O13	O	1.307957	-0.546024	0.339826
O14	O	1.807957	-0.046024	0.839826
O15	O	1.205692	-0.275790	0.464644
O16	O	1.705692	0.224210	0.964644
O17	O	1.445410	-0.545037	0.493954
O18	O	1.945410	-0.045037	0.993954
O19	O	1.309837	-0.275042	0.581425
O20	O	1.809837	0.224958	1.081425
O21	O	1.204622	-0.429960	0.327192
O22	O	1.704622	0.070040	0.827192
O23	O	1.051500	-0.413178	0.463640
O24	O	1.551500	0.086822	0.963640
O25	O	1.176270	-0.515540	0.733788
O26	O	1.676270	-0.015540	1.233788
O27	O	1.038818	-0.516527	0.579660
O28	O	1.538818	-0.016527	1.079660
O29	O	1.293099	-0.411443	0.734549
O30	O	1.793099	0.088557	1.234549
O31	O	1.291218	-0.682425	0.492950
O32	O	1.791218	-0.182425	0.992950
O33	O	1.175200	-0.669710	0.596335
O34	O	1.675200	-0.169710	1.096335
C35	C	1.012641	-0.463085	0.519672
C36	C	1.512641	0.036915	1.019672
C37	C	0.913026	-0.457691	0.513634
C38	C	1.413026	0.042309	1.013634
C39	C	0.712679	-0.555360	0.622954
C40	C	1.212679	-0.055360	1.122954
C41	C	0.619081	-0.550294	0.617284
C42	C	1.119081	-0.050294	1.117284
C43	C	0.632232	-0.442490	0.496628
C44	C	1.132232	0.057510	0.996628
C45	C	0.725830	-0.447556	0.502298
C46	C	1.225830	0.052444	1.002298
C47	C	0.766049	-0.503994	0.565462
C48	C	1.266049	-0.003994	1.065462
C49	C	0.859648	-0.509064	0.571128
C50	C	1.359648	-0.009064	1.071128
C51	C	0.872798	-0.401255	0.450477
C52	C	1.372798	0.098745	0.950477
C53	C	0.779200	-0.396190	0.444807
C54	C	1.279200	0.103810	0.944807
C55	C	1.231240	-0.708585	0.546417
C56	C	1.731240	-0.208585	1.046417
C57	C	1.225225	-0.808199	0.551833
C58	C	1.725225	-0.308199	1.051833
C59	C	1.334845	-1.008565	0.454456
C60	C	1.834845	-0.508565	0.954456
C61	C	1.329197	-1.102161	0.459542
C62	C	1.829197	-0.602161	0.959542
C63	C	1.208285	-1.088991	0.567096
C64	C	1.708285	-0.588991	1.067096
C65	C	1.213934	-0.995394	0.562010
C66	C	1.713934	-0.495394	1.062010
C67	C	1.277215	-0.955185	0.505687
C68	C	1.777215	-0.455185	1.005687
C69	C	1.282858	-0.861586	0.500597
C70	C	1.782858	-0.361586	1.000597
C71	C	1.161951	-0.848417	0.608155
C72	C	1.661951	-0.348417	1.108155
C73	C	1.156303	-0.942014	0.613241
C74	C	1.656303	-0.442014	1.113241
C75	C	1.479242	-0.488448	0.548061
C76	C	1.979242	0.011552	1.048061
C77	C	1.578854	-0.493862	0.554122
C78	C	2.078854	0.006138	1.054122
C79	C	1.232882	-0.461447	0.767595
C80	C	1.732882	0.038553	1.267595
C81	C	1.227510	-0.455356	0.867209
C82	C	1.727510	0.044644	1.367209
C83	C	1.259813	-0.241989	0.521232
C84	C	1.759813	0.258011	1.021232
C85	C	1.265918	-0.142378	0.515860
C86	C	1.765918	0.357622	1.015860
C87	C	1.258099	-0.489919	0.300991
C88	C	1.758099	0.010081	0.800991
C89	C	1.263659	-0.495767	0.201375
C90	C	1.763659	0.004233	0.701375
C91	C	1.166145	-0.386345	1.001031
C92	C	1.666145	0.113655	1.501031
C93	C	1.171188	-0.392066	0.907435
C94	C	1.671188	0.107934	1.407435
C95	C	1.278794	-0.512927	0.920586
C96	C	1.778794	-0.012927	1.420586
C97	C	1.273751	-0.507205	1.014181
C98	C	1.773751	-0.007205	1.514181
C99	C	1.217423	-0.443913	1.054400
C100	C	1.717423	0.056087	1.554400
C101	C	1.212375	-0.438196	1.147998
C102	C	1.712375	0.061804	1.647998
C103	C	1.319985	-0.559052	1.161147
C104	C	1.819985	-0.059052	1.661147
C105	C	1.325029	-0.564773	1.067551
C106	C	1.825029	-0.064773	1.567551
H107	H	0.746440	-0.350237	0.393383
H108	H	1.246440	0.149763	0.893383
H109	H	1.156771	-1.121746	0.612958
H110	H	1.656771	-0.621746	1.112958
H111	H	0.916263	-0.359431	0.403661
H112	H	1.416263	0.140569	0.903661
H113	H	1.104784	-0.974766	0.659100
H114	H	1.604784	-0.474766	1.159100
H115	H	1.370892	-0.616302	1.034792
H116	H	1.870892	-0.116302	1.534792
H117	H	1.334382	-0.828849	0.454733
H118	H	1.834382	-0.328849	0.954733
H119	H	1.115022	-0.804944	0.649868
H120	H	1.615022	-0.304944	1.149868
H121	H	1.361744	-0.605924	1.204611
H122	H	1.861744	-0.105924	1.704611
H123	H	1.324660	-0.564450	0.887823
H124	H	1.824660	-0.064450	1.387823
H125	H	1.376127	-1.145620	0.417826
H126	H	1.876127	-0.645620	0.917826
H127	H	0.892394	-0.555020	0.622558
H128	H	1.392394	-0.055020	1.122558
H129	H	1.386365	-0.975826	0.408589
H130	H	1.886365	-0.475826	0.908589
H131	H	1.166509	-0.386661	1.180743
H132	H	1.666509	0.113339	1.680743
H133	H	1.120277	-0.334813	1.033778
H134	H	1.620277	0.165187	1.533778
H135	H	1.129434	-0.345186	0.863984
H136	H	1.629434	0.154814	1.363984
H137	H	0.745426	-0.601319	0.674380
H138	H	1.245426	-0.101319	1.174380
H139	H	0.575630	-0.592120	0.664101
H140	H	1.075630	-0.092120	1.164101
H141	H	0.599469	-0.396536	0.445208
H142	H	1.099469	0.103464	0.945208
