data_functionalizedCrystal
_audit_creation_method	'MofGen! by Chris Wilmer'
_symmetry_space_group_name_H-M	'P1'
_symmetry_Int_Tables_number	1
_symmetry_cell_setting	triclinic
loop_
_symmetry_equiv_pos_as_xyz
  x,y,z
_cell_length_a	19.077236
_cell_length_b	21.295416
_cell_length_c	19.076919
_cell_angle_alpha	92.269099
_cell_angle_beta	90.112677
_cell_angle_gamma	87.676979
loop_
_atom_site_label
_atom_site_type_symbol
_atom_site_fract_x
_atom_site_fract_y
_atom_site_fract_z
Zn1	Zn	1.058266	0.228507	0.440531
Zn2	Zn	1.558266	0.728507	0.940531
Zn3	Zn	1.062894	0.329388	0.323019
Zn4	Zn	1.562894	0.829388	0.823019
Zn5	Zn	0.945481	0.228177	0.318311
Zn6	Zn	1.445481	0.728177	0.818311
Zn7	Zn	0.940713	0.337786	0.435757
Zn8	Zn	1.440713	0.837786	0.935757
O9	O	1.001838	0.280965	0.379404
O10	O	1.501838	0.780965	0.879404
O11	O	1.157214	0.238513	0.428911
O12	O	1.657214	0.738513	0.928911
O13	O	1.051252	0.312309	0.224064
O14	O	1.551252	0.812309	0.724064
O15	O	0.960501	0.140131	0.334551
O16	O	1.460501	0.640131	0.834551
O17	O	1.160614	0.312629	0.342576
O18	O	1.660614	0.812629	0.842576
O19	O	1.043363	0.140373	0.424345
O20	O	1.543363	0.640373	0.924345
O21	O	0.964989	0.237950	0.220605
O22	O	1.464989	0.737950	0.720605
O23	O	0.846515	0.246094	0.329922
O24	O	1.346515	0.746094	0.829922
O25	O	0.952373	0.326943	0.534721
O26	O	1.452373	0.826943	1.034721
O27	O	0.843011	0.326623	0.416209
O28	O	1.343011	0.826623	0.916209
O29	O	1.038739	0.246656	0.538228
O30	O	1.538739	0.746656	1.038228
O31	O	1.046628	0.418593	0.337947
O32	O	1.546628	0.918593	0.837947
O33	O	0.956862	0.424763	0.420775
O34	O	1.456862	0.924763	0.920775
C35	C	0.819266	0.287234	0.372037
C36	C	1.319266	0.787234	0.872037
C37	C	0.741160	0.289932	0.368902
C38	C	1.241160	0.789932	0.868902
C39	C	0.702693	0.252678	0.412448
C40	C	1.202693	0.752678	0.912448
C41	C	0.629304	0.255209	0.409496
C42	C	1.129304	0.755209	0.909496
C43	C	0.594384	0.294999	0.363001
C44	C	1.094384	0.794999	0.863001
C45	C	0.632856	0.332255	0.319451
C46	C	1.132856	0.832255	0.819451
C47	C	0.706244	0.329720	0.322399
C48	C	1.206244	0.829720	0.822399
C49	C	0.375089	0.306710	0.349351
C50	C	0.875089	0.806710	0.849351
C51	C	0.301696	0.309244	0.346407
C52	C	0.801696	0.809244	0.846407
C53	C	0.298149	0.232197	0.436452
C54	C	0.798149	0.732197	0.936452
C55	C	0.371538	0.229668	0.439399
C56	C	0.871538	0.729668	0.939399
C57	C	0.410004	0.266921	0.395846
C58	C	0.910004	0.766921	0.895846
N59	N	0.519369	0.297589	0.359984
N60	N	1.019369	0.797589	0.859984
N61	N	0.485018	0.264327	0.398860
N62	N	0.985018	0.764327	0.898860
C63	C	1.001748	0.444518	0.379370
C64	C	1.501748	0.944518	0.879370
C65	C	1.001773	0.514486	0.379381
C66	C	1.501773	1.014486	0.879381
C67	C	1.048552	0.544119	0.336302
C68	C	1.548552	1.044119	0.836302
C69	C	1.048585	0.609861	0.336322
C70	C	1.548585	1.109861	0.836322
C71	C	1.001825	0.645968	0.379414
C72	C	1.501825	1.145968	0.879414
C73	C	0.955042	0.616327	0.422502
C74	C	1.455042	1.116327	0.922502
C75	C	0.955016	0.550586	0.422485
C76	C	1.455016	1.050586	0.922485
N77	N	0.940138	0.751549	0.382295
N78	N	1.440138	1.251549	0.882295
N79	N	0.940165	0.814000	0.382306
N80	N	1.440165	1.314000	0.882306
C81	C	1.001903	0.844042	0.379467
C82	C	1.501903	1.344042	0.879467
N83	N	1.063614	0.809273	0.376601
N84	N	1.563614	1.309273	0.876601
N85	N	1.063586	0.746816	0.376586
N86	N	1.563586	1.246816	0.876586
C87	C	1.001849	0.717253	0.379437
C88	C	1.501849	1.217253	0.879437
C89	C	1.048721	0.944960	0.336407
C90	C	1.548721	1.444960	0.836407
C91	C	1.048755	1.010703	0.336432
C92	C	1.548755	1.510703	0.836432
C93	C	0.955206	1.017167	0.422608
C94	C	1.455206	1.517167	0.922608
C95	C	0.955179	0.951425	0.422587
C96	C	1.455179	1.451425	0.922587
C97	C	1.001936	0.915325	0.379483
C98	C	1.501936	1.415325	0.879483
C99	C	1.185124	0.274671	0.386801
C100	C	1.685124	0.774671	0.886801
C101	C	1.263229	0.271989	0.389953
C102	C	1.763229	0.771989	0.889953
C103	C	1.001948	1.116773	0.379468
C104	C	1.501948	1.616773	0.879468
C105	C	1.001996	1.046805	0.379525
C106	C	1.501996	1.546805	0.879525
C107	C	0.994508	0.287773	0.562683
C108	C	1.494508	0.787773	1.062683
C109	C	0.991384	0.290674	0.640786
C110	C	1.491384	0.790674	1.140786
C111	C	1.009181	0.274136	0.196840
C112	C	1.509181	0.774136	0.696840
C113	C	1.012441	0.271053	0.118743
C114	C	1.512441	0.771053	0.618743
C115	C	1.034880	0.250239	0.679306
C116	C	1.534880	0.750239	1.179306
C117	C	1.031937	0.252963	0.752691
C118	C	1.531937	0.752963	1.252691
C119	C	0.985500	0.296126	0.787555
C120	C	1.485500	0.796126	1.287555
C121	C	0.941999	0.336564	0.749030
C122	C	1.441999	0.836564	1.249030
C123	C	0.944940	0.333836	0.675646
C124	C	1.444940	0.833836	1.175646
C125	C	0.971880	0.308763	1.006834
C126	C	1.471880	0.808763	1.506834
C127	C	0.968944	0.311489	1.080224
C128	C	1.468944	0.811489	1.580224
C129	C	1.058882	0.227886	1.083879
C130	C	1.558882	0.727886	1.583879
C131	C	1.061821	0.225165	1.010494
C132	C	1.561821	0.725165	1.510494
C133	C	1.018318	0.265600	0.971975
C134	C	1.518318	0.765600	1.471975
N135	N	0.982492	0.298913	0.862567
N136	N	1.482492	0.798913	1.362567
N137	N	1.021323	0.262810	0.896965
N138	N	1.521323	0.762810	1.396965
H139	H	0.604418	0.364650	0.281590
H140	H	1.104418	0.864650	0.781590
F141	F	0.925580	0.351798	0.965849
F142	F	1.425580	0.851798	1.465849
H143	H	1.086852	1.034829	0.301354
H144	H	1.586852	1.534829	0.801354
H145	H	0.273266	0.341649	0.308545
H146	H	0.773266	0.841649	0.808545
H147	H	0.597987	0.224874	0.444957
H148	H	1.097987	0.724874	0.944957
H149	H	0.904187	0.371706	0.777422
H150	H	1.404187	0.871706	1.277422
F151	F	0.416019	0.346347	0.302986
F152	F	0.916019	0.846347	0.802986
H153	H	0.909513	0.366757	0.644284
H154	H	1.409513	0.866757	1.144284
F155	F	0.257206	0.192551	0.482800
F156	F	0.757206	0.692551	0.982800
F157	F	0.919515	0.357429	1.117327
F158	F	1.419515	0.857429	1.617327
H159	H	0.731119	0.220278	0.450311
H160	H	1.231119	0.720278	0.950311
F161	F	0.905445	1.055590	0.468474
F162	F	1.405445	1.555590	0.968474
H163	H	1.067358	0.220037	0.784051
H164	H	1.567358	0.720037	1.284051
F165	F	0.747183	0.369372	0.276052
F166	F	1.247183	0.869372	0.776052
F167	F	1.084309	0.204301	0.642207
F168	F	1.584309	0.704301	1.142207
F169	F	0.408698	0.187321	0.488889
F170	F	0.908698	0.687321	0.988889
H171	H	1.086626	0.514728	0.301206
H172	H	1.586626	1.014728	0.801206
H173	H	1.086681	0.633994	0.301242
H174	H	1.586681	1.133994	0.801242
H175	H	0.917084	0.927296	0.457663
H176	H	1.417084	1.427296	0.957663
H177	H	0.916972	0.645729	0.457588
H178	H	1.416972	1.145729	0.957588
F179	F	1.111246	0.179225	0.973394
F180	F	1.611246	0.679225	1.473394
F181	F	1.105176	0.184854	1.124879
F182	F	1.605176	0.684854	1.624879
F183	F	0.905225	0.519047	0.468338
F184	F	1.405225	1.019047	0.968338
H185	H	1.086796	0.915566	0.301311
H186	H	1.586796	1.415566	0.801311
