data_functionalizedCrystal
_audit_creation_method	'MofGen! by Chris Wilmer'
_symmetry_space_group_name_H-M	'P1'
_symmetry_Int_Tables_number	1
_symmetry_cell_setting	triclinic
loop_
_symmetry_equiv_pos_as_xyz
  x,y,z
_cell_length_a	12.827893
_cell_length_b	16.959454
_cell_length_c	12.827885
_cell_angle_alpha	89.970356
_cell_angle_beta	89.980538
_cell_angle_gamma	90.020046
loop_
_atom_site_label
_atom_site_type_symbol
_atom_site_fract_x
_atom_site_fract_y
_atom_site_fract_z
Zn1	Zn	1.597638	-0.314644	-0.590850
Zn2	Zn	1.597517	-0.446843	-0.416110
Zn3	Zn	1.422878	-0.314682	-0.416123
Zn4	Zn	1.422850	-0.446784	-0.590810
O5	O	1.510221	-0.380738	-0.503473
O6	O	1.743858	-0.332189	-0.567681
O7	O	1.574312	-0.429352	-0.269876
O8	O	1.446123	-0.204066	-0.439323
O9	O	1.743769	-0.429315	-0.439301
O10	O	1.574518	-0.204038	-0.567694
O11	O	1.446006	-0.332254	-0.269885
O12	O	1.276639	-0.332197	-0.439285
O13	O	1.446075	-0.429215	-0.737052
O14	O	1.276618	-0.429252	-0.567627
O15	O	1.574490	-0.332132	-0.737081
O16	O	1.574284	-0.557446	-0.439263
O17	O	1.445957	-0.557403	-0.567614
C18	C	1.238711	-0.380723	-0.503454
C19	C	1.122558	-0.380736	-0.503470
C20	C	1.070790	-0.428836	-0.566880
C21	C	0.950740	-0.428850	-0.566898
C22	C	1.510133	-0.586105	-0.503456
C23	C	1.510191	-0.673961	-0.503483
C24	C	1.443498	-1.045444	-0.570299
C25	C	1.577235	-1.045429	-0.436755
C26	C	1.577198	-0.962883	-0.436745
C27	C	1.510309	-0.921614	-0.503512
C28	C	1.443457	-0.962891	-0.570289
C29	C	1.644042	-0.921601	-0.369962
C30	C	1.644007	-0.839050	-0.369949
C31	C	1.577123	-0.797779	-0.436722
C32	C	1.510269	-0.839061	-0.503502
C33	C	1.443380	-0.797791	-0.570270
C34	C	1.376530	-0.839071	-0.637056
C35	C	1.376573	-0.921620	-0.637062
C36	C	1.577080	-0.715231	-0.436716
C37	C	1.443339	-0.715238	-0.570260
C38	C	1.782791	-0.380754	-0.503494
C39	C	1.898944	-0.380761	-0.503503
C40	C	1.510293	-0.380662	-0.776044
C41	C	1.510323	-0.380630	-0.892197
C42	C	1.510337	-0.174570	-0.503514
C43	C	1.510387	-0.086714	-0.503532
C44	C	1.446854	-0.332574	-0.943986
C45	C	1.446884	-0.332539	-1.064037
C46	C	1.510209	-0.380757	-0.231964
C47	C	1.510381	-0.380567	-0.115811
H48	H	0.943456	-0.339581	-0.449209
H49	H	1.564726	-0.421709	-1.071280
O50	O	1.069453	-0.331508	-0.438829
C51	C	1.096092	-0.252725	-0.461790
H52	H	1.126211	-0.248779	-0.545248
H53	H	1.159337	-0.231962	-0.405737
C54	C	0.962077	-0.204893	-0.347346
C55	C	0.999062	-0.200045	-0.449854
H56	H	0.902227	-0.172396	-0.339979
H57	H	0.944132	-0.257971	-0.331873
H58	H	1.014791	-0.187592	-0.300646
H59	H	0.946354	-0.217355	-0.496550
H60	H	1.016996	-0.146969	-0.465335
H61	H	1.388874	-0.681641	-0.624634
O62	O	1.575327	-0.429647	-0.945203
C63	C	1.679507	-0.412388	-0.918640
H64	H	1.681740	-0.382078	-0.839372
H65	H	1.714687	-0.371693	-0.980058
C66	C	1.740028	-0.526680	-1.011092
C67	C	1.742771	-0.489459	-0.913730
H68	H	1.779054	-0.574220	-1.008068
H69	H	1.669840	-0.538306	-1.028992
H70	H	1.769342	-0.492759	-1.062264
H71	H	1.713445	-0.523375	-0.862563
H72	H	1.812955	-0.477840	-0.895821
H73	H	1.115347	-0.470004	-0.621157
H74	H	1.392489	-0.291459	-0.899448
O75	O	1.641857	-0.675095	-0.371736
C76	C	1.582370	-0.627391	-0.304208
H77	H	1.500081	-0.652316	-0.297688
H78	H	1.578725	-0.564817	-0.336513
C79	C	1.734543	-0.595528	-0.203621
C80	C	1.633476	-0.626144	-0.195606
H81	H	1.766069	-0.594755	-0.136632
H82	H	1.774622	-0.627664	-0.249118
H83	H	1.731492	-0.543386	-0.230546
H84	H	1.636530	-0.678289	-0.168695
H85	H	1.593399	-0.594017	-0.150102
O86	O	1.311611	-0.799064	-0.702059
C87	C	1.334425	-0.819149	-0.806238
H88	H	1.374619	-0.879065	-0.808456
H89	H	1.388118	-0.772643	-0.841464
C90	C	1.183155	-0.749386	-0.866734
C91	C	1.232514	-0.822979	-0.869459
H92	H	1.120293	-0.751745	-0.905733
H93	H	1.167786	-0.735852	-0.796547
H94	H	1.227910	-0.710639	-0.896086
H95	H	1.187765	-0.861722	-0.840095
H96	H	1.247873	-0.836520	-0.939642
O97	O	0.897752	-0.477941	-0.631813
C98	C	0.924381	-0.460757	-0.736025
H99	H	1.003665	-0.430420	-0.738319
H100	H	0.863003	-0.420113	-0.771264
C101	C	0.831903	-0.575132	-0.796346
C102	C	0.929286	-0.537878	-0.799163
H103	H	0.834924	-0.622702	-0.835294
H104	H	0.813959	-0.586708	-0.726137
H105	H	0.780765	-0.541254	-0.825709
H106	H	0.980419	-0.571752	-0.769788
H107	H	0.947239	-0.526310	-0.869369
H108	H	1.322146	-0.955238	-0.691435
H109	H	1.389073	-1.079058	-0.624678
O110	O	1.642133	-1.085637	-0.371959
C111	C	1.627790	-1.167348	-0.386244
H112	H	1.593575	-1.178614	-0.466880
H113	H	1.572133	-1.190804	-0.324240
C114	C	1.775548	-1.195866	-0.277639
C115	C	1.733533	-1.209703	-0.376682
H116	H	1.840773	-1.221993	-0.271737
H117	H	1.785209	-1.140815	-0.268012
H118	H	1.729157	-1.215412	-0.225980
H119	H	1.779917	-1.190147	-0.428338
H120	H	1.723882	-1.264751	-0.386318
H121	H	1.698491	-0.955208	-0.315596
O122	O	1.709047	-0.799076	-0.305050
C123	C	1.768072	-0.853204	-0.246103
H124	H	1.771688	-0.912028	-0.288913
H125	H	1.729855	-0.862036	-0.166701
C126	C	1.874848	-0.748690	-0.178565
C127	C	1.879296	-0.820937	-0.231149
H128	H	1.943455	-0.728786	-0.169336
H129	H	1.835080	-0.712222	-0.218275
H130	H	1.842996	-0.756060	-0.112402
H131	H	1.911136	-0.813565	-0.297315
H132	H	1.919073	-0.857403	-0.191450
H133	H	1.392550	-0.291393	-1.108575
