data_functionalizedCrystal
_audit_creation_method	'MofGen! by Chris Wilmer'
_symmetry_space_group_name_H-M	'P1'
_symmetry_Int_Tables_number	1
_symmetry_cell_setting	triclinic
loop_
_symmetry_equiv_pos_as_xyz
  x,y,z
_cell_length_a	21.295420
_cell_length_b	12.759399
_cell_length_c	12.759393
_cell_angle_alpha	90.028363
_cell_angle_beta	90.022717
_cell_angle_gamma	90.012947
loop_
_atom_site_label
_atom_site_type_symbol
_atom_site_fract_x
_atom_site_fract_y
_atom_site_fract_z
Zn1	Zn	-0.962403	0.418277	-0.594123
Zn2	Zn	-0.962338	0.593996	-0.418453
Zn3	Zn	-0.857132	0.418323	-0.418449
Zn4	Zn	-0.857123	0.593906	-0.594081
O5	O	-0.909749	0.506125	-0.506277
O6	O	-1.050484	0.441604	-0.570839
O7	O	-0.948359	0.570749	-0.271431
O8	O	-0.871127	0.271296	-0.441769
O9	O	-1.050436	0.570704	-0.441775
O10	O	-0.948469	0.271262	-0.570835
O11	O	-0.871064	0.441683	-0.271429
O12	O	-0.769041	0.441597	-0.441729
O13	O	-0.871113	0.570552	-0.741108
O14	O	-0.769035	0.570597	-0.570765
O15	O	-0.948461	0.441518	-0.741139
O16	O	-0.948351	0.741005	-0.441735
O17	O	-0.871050	0.740939	-0.570768
C18	C	-0.746197	0.506093	-0.506242
C19	C	-0.676229	0.506105	-0.506253
C20	C	-0.909709	0.779093	-0.506270
C21	C	-0.909750	0.895869	-0.506302
C22	C	-0.176785	0.573402	-0.573382
C23	C	-0.242527	0.573404	-0.573373
C24	C	-0.275390	0.506134	-0.506294
C25	C	-0.242505	0.438876	-0.439200
C26	C	-0.176763	0.438884	-0.439204
N27	N	-0.378617	0.414148	-0.498380
N28	N	-0.441068	0.414144	-0.498383
C29	C	-0.473465	0.506109	-0.506276
N30	N	-0.441051	0.598081	-0.514188
N31	N	-0.378593	0.598084	-0.514191
C32	C	-0.346675	0.506119	-0.506281
C33	C	-0.577628	0.573370	-0.573350
C34	C	-0.643371	0.573374	-0.573334
C35	C	-0.643347	0.438837	-0.439166
C36	C	-0.577605	0.438842	-0.439178
C37	C	-0.544749	0.506108	-0.506275
C38	C	-0.073939	0.506153	-0.506305
C39	C	-0.143907	0.506149	-0.506301
C40	C	-0.950045	0.950731	-0.439192
C41	C	-0.950082	1.060455	-0.439230
C42	C	-0.869525	1.060447	-0.573493
C43	C	-0.869491	0.950725	-0.573459
C44	C	-0.990304	0.895876	-0.372036
C45	C	-1.030601	0.950737	-0.304919
C46	C	-1.030639	1.060461	-0.304957
C47	C	-0.990379	1.115324	-0.372113
C48	C	-0.909793	0.506019	-0.780310
C49	C	-0.909812	0.505974	-0.897087
C50	C	-0.909804	1.232092	-0.506320
C51	C	-0.909822	1.115316	-0.506375
C52	C	-0.950093	0.438780	-0.951967
C53	C	-0.950108	0.438742	-1.061691
C54	C	-0.869559	0.573102	-1.061646
C55	C	-0.869541	0.573134	-0.951924
C56	C	-0.990363	0.371620	-0.897130
C57	C	-1.030648	0.304421	-0.952009
C58	C	-1.030663	0.304383	-1.061734
C59	C	-0.990393	0.371544	-1.116578
C60	C	-0.909741	0.506155	-0.233309
C61	C	-0.909845	0.505904	-0.116533
H62	H	-0.150037	0.628178	-0.628014
H63	H	-1.063460	0.249659	-1.106414
H64	H	-0.550875	0.628142	-0.627984
H65	H	-1.063456	1.105126	-0.250315
F66	F	-0.542613	0.367254	-0.367787
H67	H	-0.990418	1.204668	-0.372147
H68	H	-0.990276	0.806533	-0.371994
F69	F	-0.826669	0.644649	-0.893513
H70	H	-0.836747	1.105124	-0.628166
F71	F	-0.826606	0.892334	-0.644887
F72	F	-0.678318	0.367251	-0.367767
F73	F	-1.073451	0.892347	-0.233460
H74	H	-0.269301	0.628169	-0.628001
F75	F	-0.277480	0.367286	-0.367806
H76	H	-0.990357	0.371646	-0.807787
F77	F	-1.073495	0.232934	-0.893639
F78	F	-0.990404	0.371487	-1.233358
H79	H	-0.149995	0.384115	-0.384578
F80	F	-0.678362	0.644964	-0.644727
F81	F	-0.826706	0.644577	-1.120019
