data_functionalizedCrystal
_audit_creation_method	'MofGen! by Chris Wilmer'
_symmetry_space_group_name_H-M	'P1'
_symmetry_Int_Tables_number	1
_symmetry_cell_setting	triclinic
loop_
_symmetry_equiv_pos_as_xyz
  x,y,z
_cell_length_a	15.944551
_cell_length_b	15.944493
_cell_length_c	13.101039
_cell_angle_alpha	93.367629
_cell_angle_beta	86.646591
_cell_angle_gamma	83.486891
loop_
_atom_site_label
_atom_site_type_symbol
_atom_site_fract_x
_atom_site_fract_y
_atom_site_fract_z
O1	O	1.119117	0.103706	-0.085094
O2	O	0.874565	0.117061	-0.085118
O3	O	1.003545	-0.011895	-0.085114
O4	O	0.990137	0.232662	-0.085098
O5	O	0.994291	-0.002627	0.085315
O6	O	0.865311	0.126329	0.085311
O7	O	1.109862	0.112973	0.085335
Zn8	Zn	0.986118	0.121123	0.112383
Zn9	Zn	0.998310	0.108912	-0.112166
O10	O	0.980883	0.241930	0.085331
C11	C	0.838645	0.121140	0.000093
C12	C	0.745400	0.119477	0.000084
C13	C	0.530559	0.035571	0.000098
C14	C	0.474094	0.069965	-0.083930
C15	C	0.574674	0.116471	0.000095
C16	C	0.464992	0.079122	0.084100
C17	C	0.409761	0.113561	0.000112
C18	C	0.519440	0.150883	-0.084002
C19	C	0.510341	0.160032	0.084104
C20	C	0.453894	0.194484	0.000055
C21	C	0.669676	0.118145	0.000085
C22	C	0.314760	0.111892	0.000114
C23	C	0.998370	-0.038556	0.000096
C24	C	0.996728	-0.131806	0.000083
C25	C	1.072647	-0.367564	0.000110
C26	C	1.036269	-0.422702	-0.083924
C27	C	0.993683	-0.302526	0.000095
C28	C	1.027127	-0.413541	0.084106
C29	C	0.990748	-0.467435	0.000112
C30	C	0.957330	-0.356439	-0.084008
C31	C	0.948196	-0.347271	0.084098
C32	C	0.911761	-0.402377	0.000043
C33	C	0.995377	-0.207527	0.000085
C34	C	0.989049	-0.562432	0.000115
C35	C	1.145783	0.108894	0.000122
C36	C	1.239029	0.110557	0.000125
C37	C	0.986058	0.268591	0.000119
C38	C	0.987700	0.361840	0.000125
N39	N	0.977802	0.129455	0.265631
N40	N	1.006632	0.100572	-0.265414
C41	C	0.966489	0.140800	0.474673
C42	C	1.017942	0.089230	0.525550
C43	C	1.011648	0.095543	0.641869
C44	C	0.972783	0.134489	0.358344
H45	H	0.420724	0.261691	0.000012
H46	H	0.457849	0.031885	-0.154975
H47	H	1.056634	-0.438609	0.155146
H48	H	0.917716	0.189689	0.518469
H49	H	0.563912	-0.031574	-0.000010
H50	H	0.843693	-0.417845	-0.000010
F51	F	1.084897	-0.465588	-0.176776
F52	F	0.433707	0.039430	0.176952
F53	F	1.081950	0.025577	0.468304
H54	H	0.911019	-0.314447	0.155139
F55	F	0.550600	0.190519	-0.176958
H56	H	0.526607	0.198085	0.155151
F57	F	1.161555	-0.347140	0.000011
H58	H	0.927863	-0.331487	-0.155128
