data_functionalizedCrystal
_audit_creation_method	'MofGen! by Chris Wilmer'
_symmetry_space_group_name_H-M	'P1'
_symmetry_Int_Tables_number	1
_symmetry_cell_setting	triclinic
loop_
_symmetry_equiv_pos_as_xyz
  x,y,z
_cell_length_a	12.594517
_cell_length_b	18.050589
_cell_length_c	12.594509
_cell_angle_alpha	89.972304
_cell_angle_beta	89.978673
_cell_angle_gamma	90.028021
loop_
_atom_site_label
_atom_site_type_symbol
_atom_site_fract_x
_atom_site_fract_y
_atom_site_fract_z
Zn1	Zn	1.627177	-0.295641	-0.601864
Zn2	Zn	1.960510	0.037692	-0.268531
Zn3	Zn	2.293844	0.371026	0.064803
Zn4	Zn	1.627030	-0.419845	-0.423887
Zn5	Zn	1.960363	-0.086512	-0.090554
Zn6	Zn	2.293697	0.246822	0.242780
Zn7	Zn	1.449181	-0.295673	-0.423893
Zn8	Zn	1.782514	0.037661	-0.090559
Zn9	Zn	2.115848	0.370994	0.242774
Zn10	Zn	1.449125	-0.419793	-0.601817
Zn11	Zn	1.782459	-0.086460	-0.268484
Zn12	Zn	2.115792	0.246873	0.064850
O13	O	1.538128	-0.357738	-0.512865
O14	O	1.871462	-0.024405	-0.179532
O15	O	2.204795	0.308929	0.153801
O16	O	1.776103	-0.312125	-0.578272
O17	O	2.109437	0.021208	-0.244939
O18	O	2.442770	0.354541	0.088394
O19	O	1.603400	-0.403408	-0.274942
O20	O	1.936733	-0.070075	0.058391
O21	O	2.270066	0.263259	0.391725
O22	O	1.472877	-0.191744	-0.447523
O23	O	1.806211	0.141589	-0.114190
O24	O	2.139544	0.474923	0.219144
O25	O	1.775995	-0.403377	-0.447513
O26	O	2.109329	-0.070044	-0.114180
O27	O	2.442662	0.263289	0.219153
O28	O	1.603650	-0.191721	-0.578278
O29	O	1.936984	0.141613	-0.244944
O30	O	2.270317	0.474946	0.088389
O31	O	1.472735	-0.312179	-0.274946
O32	O	1.806068	0.021154	0.058387
O33	O	2.139401	0.354487	0.391720
O34	O	1.300228	-0.312129	-0.447478
O35	O	1.633561	0.021204	-0.114144
O36	O	1.966894	0.354537	0.219189
O37	O	1.472782	-0.403289	-0.750769
O38	O	1.806116	-0.069956	-0.417436
O39	O	2.139449	0.263377	-0.084103
O40	O	1.300187	-0.403320	-0.578198
O41	O	1.633520	-0.069987	-0.244865
O42	O	1.966854	0.263347	0.088469
O43	O	1.603596	-0.312075	-0.750804
O44	O	1.936930	0.021258	-0.417470
O45	O	2.270263	0.354591	-0.084137
O46	O	1.603346	-0.523763	-0.447468
O47	O	1.936679	-0.190429	-0.114135
O48	O	2.270012	0.142904	0.219199
O49	O	1.472640	-0.523725	-0.578192
O50	O	1.805973	-0.190391	-0.244859
O51	O	2.139307	0.142942	0.088474
C52	C	1.261587	-0.357723	-0.512834
C53	C	1.594921	-0.024390	-0.179501
C54	C	1.928254	0.308944	0.153833
C55	C	1.143282	-0.357735	-0.512846
C56	C	1.476615	-0.024401	-0.179512
C57	C	1.809949	0.308932	0.153821
C58	C	1.538000	-0.550690	-0.512848
C59	C	1.871333	-0.217357	-0.179514
C60	C	2.204666	0.115976	0.153819
C61	C	1.538042	-0.633236	-0.512876
C62	C	1.871376	-0.299903	-0.179542
C63	C	2.204709	0.033431	0.153791
C64	C	1.074020	-0.308068	-0.441883
C65	C	1.407353	0.025265	-0.108549
C66	C	1.740687	0.358598	0.224784
C67	C	1.003188	-0.375810	-0.415704
C68	C	1.336522	-0.042477	-0.082370
C69	C	1.669855	0.290856	0.250963
C70	C	1.003314	-0.290026	-0.539043
C71	C	1.336648	0.043308	-0.205710
C72	C	1.669981	0.376641	0.127624
C73	C	1.074008	-0.425512	-0.486616
C74	C	1.407342	-0.092179	-0.153283
C75	C	1.740675	0.241154	0.180051
C76	C	1.074141	-0.339682	-0.610001
C77	C	1.407474	-0.006349	-0.276667
C78	C	1.740807	0.326985	0.056666
C79	C	1.003341	-0.407471	-0.583858
C80	C	1.336674	-0.074138	-0.250525
C81	C	1.670008	0.259196	0.082808
C82	C	1.467034	-0.832693	-0.583939
C83	C	1.800368	-0.499360	-0.250605
C84	C	2.133701	-0.166026	0.082728
C85	C	1.441086	-0.882138	-0.486814
C86	C	1.774419	-0.548805	-0.153480
C87	C	2.107752	-0.215471	0.179853
C88	C	1.538147	-0.784366	-0.512889
C89	C	1.871480	-0.451033	-0.179556
C90	C	2.204813	-0.117700	0.153777
C91	C	1.564147	-0.882003	-0.610026
C92	C	1.897481	-0.548669	-0.276692
C93	C	2.230814	-0.215336	0.056641
C94	C	1.538246	-0.930351	-0.512911
C95	C	1.871579	-0.597018	-0.179578
C96	C	2.204912	-0.263685	0.153755
C97	C	1.512147	-0.832724	-0.415713
C98	C	1.845481	-0.499391	-0.082380
C99	C	2.178814	-0.166058	0.250954
C100	C	1.635254	-0.832585	-0.538990
C101	C	1.968587	-0.499251	-0.205657
C102	C	2.301921	-0.165918	0.127676
C103	C	1.609343	-0.882007	-0.441799
C104	C	1.942676	-0.548674	-0.108465
C105	C	2.276009	-0.215341	0.224868
C106	C	1.538087	-0.700268	-0.512878
C107	C	1.871420	-0.366935	-0.179545
C108	C	2.204754	-0.033601	0.153788
C109	C	1.538306	-1.014448	-0.512912
C110	C	1.871639	-0.681114	-0.179578
C111	C	2.204972	-0.347781	0.153755
C112	C	1.815749	-0.357753	-0.512897
C113	C	2.149082	-0.024420	-0.179564
C114	C	2.482416	0.308913	0.153769
C115	C	1.934055	-0.357760	-0.512911
C116	C	2.267388	-0.024427	-0.179578
C117	C	2.600721	0.308907	0.153756
C118	C	1.538200	-0.357673	-0.790486
C119	C	1.871533	-0.024340	-0.457153
C120	C	2.204866	0.308994	-0.123820
C121	C	1.538230	-0.357645	-0.908792
C122	C	1.871563	-0.024312	-0.575458
C123	C	2.204897	0.309021	-0.242125
C124	C	1.538286	-0.164032	-0.512906
C125	C	1.871620	0.169301	-0.179573
C126	C	2.204953	0.502634	0.153760
C127	C	1.538354	-0.081487	-0.512924
C128	C	1.871687	0.251847	-0.179590
C129	C	2.205020	0.585180	0.153743
C130	C	1.467103	-0.407228	-0.978026
C131	C	1.800436	-0.073895	-0.644693
C132	C	2.133769	0.259438	-0.311360
C133	C	1.564218	-0.425374	-1.048817
C134	C	1.897551	-0.092041	-0.715484
C135	C	2.230884	0.241293	-0.382150
C136	C	1.441191	-0.339455	-1.048800
C137	C	1.774524	-0.006121	-0.715467
C138	C	2.107857	0.327212	-0.382134
C139	C	1.635396	-0.375826	-0.978024
C140	C	1.968729	-0.042493	-0.644691
C141	C	2.302062	0.290840	-0.311358
C142	C	1.512303	-0.289876	-0.978001
C143	C	1.845637	0.043458	-0.644668
C144	C	2.178970	0.376791	-0.311335
C145	C	1.609485	-0.307996	-1.048760
C146	C	1.942819	0.025338	-0.715427
C147	C	2.276152	0.358671	-0.382093
C148	C	1.538119	-0.357749	-0.236324
C149	C	1.871452	-0.024416	0.097009
C150	C	2.204785	0.308917	0.430342
C151	C	1.538294	-0.357568	-0.118019
C152	C	1.871628	-0.024234	0.215314
C153	C	2.204961	0.309099	0.548647
H154	H	1.105054	-0.266108	-0.381797
H155	H	1.438387	0.067225	-0.048464
H156	H	1.771720	0.400559	0.284869
H157	H	1.669732	-0.266032	-1.079622
H158	H	2.003066	0.067302	-0.746288
H159	H	2.336399	0.400635	-0.412955
H160	H	1.406808	-0.811039	-0.643938
H161	H	1.740142	-0.477706	-0.310604
H162	H	2.073475	-0.144372	0.022729
H163	H	1.669523	-0.903524	-0.381655
H164	H	2.002856	-0.570191	-0.048321
H165	H	2.336189	-0.236858	0.285012
H166	H	1.717511	-0.391245	-0.947065
H167	H	2.050845	-0.057911	-0.613732
H168	H	2.384178	0.275422	-0.280399
H169	H	1.359012	-0.903921	-0.464757
H170	H	1.692345	-0.570587	-0.131424
H171	H	2.025678	-0.237254	0.201909
H172	H	1.586182	-0.482652	-1.079923
H173	H	1.919515	-0.149319	-0.746589
H174	H	2.252849	0.184015	-0.413256
H175	H	1.490100	-0.811167	-0.333552
H176	H	1.823434	-0.477834	-0.000219
H177	H	2.156767	-0.144501	0.333114
H178	H	1.490311	-0.232614	-0.946872
H179	H	1.823644	0.100719	-0.613539
H180	H	2.156977	0.434053	-0.280206
H181	H	1.586099	-0.903649	-0.692164
H182	H	1.919433	-0.570316	-0.358830
H183	H	2.252766	-0.236983	-0.025497
H184	H	0.972025	-0.391096	-0.333570
H185	H	1.305358	-0.057762	-0.000236
H186	H	1.638692	0.275571	0.333097
H187	H	1.104933	-0.482801	-0.464394
H188	H	1.438266	-0.149467	-0.131061
H189	H	1.771599	0.183866	0.202272
H190	H	1.717310	-0.810804	-0.561093
H191	H	2.050643	-0.477471	-0.227760
H192	H	2.383976	-0.144137	0.105573
H193	H	1.105330	-0.324376	-0.692110
H194	H	1.438663	0.008957	-0.358776
H195	H	1.771996	0.342290	-0.025443
H196	H	1.359099	-0.324102	-1.079890
H197	H	1.692432	0.009232	-0.746557
H198	H	2.025766	0.342565	-0.413224
H199	H	1.407000	-0.449224	-0.946969
H200	H	1.740333	-0.115891	-0.613636
H201	H	2.073666	0.217442	-0.280303
H202	H	0.972503	-0.449531	-0.643897
H203	H	1.305836	-0.116198	-0.310564
H204	H	1.639169	0.217135	0.022769
H205	H	0.972205	-0.232762	-0.561137
H206	H	1.305538	0.100571	-0.227803
H207	H	1.638872	0.433905	0.105530
