data_functionalizedCrystal
_audit_creation_method	'MofGen! by Chris Wilmer'
_symmetry_space_group_name_H-M	'P1'
_symmetry_Int_Tables_number	1
_symmetry_cell_setting	triclinic
loop_
_symmetry_equiv_pos_as_xyz
  x,y,z
_cell_length_a	12.759395
_cell_length_b	18.101395
_cell_length_c	12.759387
_cell_angle_alpha	89.967189
_cell_angle_beta	89.979491
_cell_angle_gamma	90.032641
loop_
_atom_site_label
_atom_site_type_symbol
_atom_site_fract_x
_atom_site_fract_y
_atom_site_fract_z
Zn1	Zn	1.606149	-0.294760	-0.593990
Zn2	Zn	1.605989	-0.418620	-0.418305
Zn3	Zn	1.430447	-0.294801	-0.418327
Zn4	Zn	1.430389	-0.418568	-0.593944
O5	O	1.518244	-0.356687	-0.506141
O6	O	1.753149	-0.311196	-0.570695
O7	O	1.582661	-0.402234	-0.271286
O8	O	1.453845	-0.191162	-0.441658
O9	O	1.753032	-0.402195	-0.441620
O10	O	1.582933	-0.191133	-0.570717
O11	O	1.453691	-0.311264	-0.271303
O12	O	1.283418	-0.311213	-0.441613
O13	O	1.453747	-0.402105	-0.740971
O14	O	1.283376	-0.402145	-0.570638
O15	O	1.582877	-0.311145	-0.741005
O16	O	1.582604	-0.522246	-0.441575
O17	O	1.453592	-0.522208	-0.570616
C18	C	1.245276	-0.356678	-0.506123
C19	C	1.128499	-0.356692	-0.506141
C20	C	1.128494	-0.451532	-0.640277
C21	C	1.073630	-0.498958	-0.707348
C22	C	0.963908	-0.498967	-0.707361
C23	C	0.909048	-0.451543	-0.640297
C24	C	0.963912	-0.404118	-0.573226
C25	C	1.073636	-0.404115	-0.573219
C26	C	0.963917	-0.309275	-0.439097
C27	C	1.073639	-0.309269	-0.439077
C28	C	0.909057	-0.261852	-0.372034
C29	C	0.963921	-0.214429	-0.304956
C30	C	1.073649	-0.214422	-0.304945
C31	C	1.128503	-0.261843	-0.372006
C32	C	1.518103	-0.549098	-0.506111
C33	C	1.518139	-0.631412	-0.506133
C34	C	1.518370	-0.930503	-0.506189
C35	C	1.437387	-0.899184	-0.587580
C36	C	1.437002	-0.813566	-0.587325
C37	C	1.518255	-0.782120	-0.506162
C38	C	1.488272	-0.813280	-0.395437
C39	C	1.487750	-0.898925	-0.395924
C40	C	1.629513	-0.898842	-0.534549
C41	C	1.628859	-0.813191	-0.536977
C42	C	1.518192	-0.698261	-0.506140
C43	C	1.518430	-1.014362	-0.506204
C44	C	1.792277	-0.356697	-0.506160
C45	C	1.909054	-0.356701	-0.506168
C46	C	1.518323	-0.356615	-0.780175
C47	C	1.518357	-0.356584	-0.896952
C48	C	1.518413	-0.163525	-0.506196
C49	C	1.518486	-0.081211	-0.506219
C50	C	1.652829	-0.261872	-0.897007
C51	C	1.720080	-0.214506	-0.951896
C52	C	1.720105	-0.214479	-1.061618
C53	C	1.652871	-0.261822	-1.116453
C54	C	1.585620	-0.309189	-1.061565
C55	C	1.585604	-0.309212	-0.951840
C56	C	1.451144	-0.403895	-1.061509
C57	C	1.451122	-0.403927	-0.951788
C58	C	1.383910	-0.451238	-1.116345
C59	C	1.316662	-0.498610	-1.061456
C60	C	1.316641	-0.498636	-0.951728
C61	C	1.383872	-0.451294	-0.896899
C62	C	1.518225	-0.356706	-0.233174
C63	C	1.518395	-0.356528	-0.116398
H64	H	0.919245	-0.175817	-0.250364
O65	O	1.563936	-0.786307	-0.312907
H66	H	1.561943	-0.725044	-0.309901
O67	O	1.132824	-0.163277	-0.232592
H68	H	1.076239	-0.130312	-0.185959
O69	O	1.246836	-0.451532	-0.640259
H70	H	1.275712	-0.466431	-0.560973
O71	O	1.658833	-0.786201	-0.644907
H72	H	1.595231	-0.750801	-0.676478
H73	H	1.354620	-0.793146	-0.568540
O74	O	1.132805	-0.550103	-0.779678
H75	H	1.076221	-0.583076	-0.826324
H76	H	0.919238	-0.537581	-0.761981
O77	O	1.792597	-0.163450	-0.892745
H78	H	1.774640	-0.105319	-0.913810
O79	O	1.246845	-0.261839	-0.371987
H80	H	1.275824	-0.246940	-0.451266
O81	O	1.244145	-0.549665	-1.120595
H82	H	1.255459	-0.541687	-1.206112
H83	H	1.455761	-0.792496	-0.669427
H84	H	1.383865	-0.451313	-0.807558
H85	H	1.261865	-0.537200	-0.907044
O86	O	1.461600	-0.926749	-0.696594
H87	H	1.531660	-0.963020	-0.693949
O88	O	1.665717	-0.927369	-0.639682
H89	H	1.744236	-0.904251	-0.657876
O90	O	1.652803	-0.261906	-0.778664
H91	H	1.710846	-0.221027	-0.749755
H92	H	1.407887	-0.791898	-0.370982
H93	H	1.774860	-0.175904	-1.106308
O94	O	1.652886	-0.261791	-1.234796
H95	H	1.710944	-0.220900	-1.263751
O96	O	1.328917	-0.927765	-0.563011
H97	H	1.332433	-0.964179	-0.493082
H98	H	1.383931	-0.451210	-1.205686
H99	H	1.406505	-0.918971	-0.371899
H100	H	0.819707	-0.451549	-0.640323
H101	H	1.544176	-0.919645	-0.333213
O102	O	0.790714	-0.261886	-0.372000
H103	H	0.761778	-0.302846	-0.429881
H104	H	1.692388	-0.791781	-0.482017
H105	H	1.689848	-0.919095	-0.475269
