data_functionalizedCrystal
_audit_creation_method	'MofGen! by Chris Wilmer'
_symmetry_space_group_name_H-M	'P1'
_symmetry_Int_Tables_number	1
_symmetry_cell_setting	triclinic
loop_
_symmetry_equiv_pos_as_xyz
  x,y,z
_cell_length_a	21.295418
_cell_length_b	29.839131
_cell_length_c	21.295411
_cell_angle_alpha	89.979636
_cell_angle_beta	89.956262
_cell_angle_gamma	90.057233
loop_
_atom_site_label
_atom_site_type_symbol
_atom_site_fract_x
_atom_site_fract_y
_atom_site_fract_z
Zn1	Zn	0.962308	-0.178715	-0.356239
Zn2	Zn	1.295641	0.154618	-0.022906
Zn3	Zn	1.628975	0.487952	0.310427
Zn4	Zn	0.962190	-0.253830	-0.250967
Zn5	Zn	1.295524	0.079503	0.082366
Zn6	Zn	1.628857	0.412836	0.415700
Zn7	Zn	0.857031	-0.178736	-0.250949
Zn8	Zn	1.190365	0.154597	0.082384
Zn9	Zn	1.523698	0.487931	0.415718
Zn10	Zn	0.856981	-0.253839	-0.356163
Zn11	Zn	1.190314	0.079494	-0.022830
Zn12	Zn	1.523647	0.412827	0.310503
O13	O	0.909628	-0.216280	-0.303580
O14	O	1.242961	0.117053	0.029754
O15	O	1.576294	0.450386	0.363087
O16	O	1.050382	-0.188667	-0.342314
O17	O	1.383715	0.144667	-0.008980
O18	O	1.717049	0.478000	0.324353
O19	O	0.948213	-0.243874	-0.162875
O20	O	1.281546	0.089459	0.170458
O21	O	1.614880	0.422793	0.503792
O22	O	0.871067	-0.115866	-0.264940
O23	O	1.204400	0.217467	0.068393
O24	O	1.537734	0.550801	0.401727
O25	O	1.050295	-0.243854	-0.264971
O26	O	1.383629	0.089480	0.068363
O27	O	1.716962	0.422813	0.401696
O28	O	0.948413	-0.115851	-0.342296
O29	O	1.281747	0.217483	-0.008963
O30	O	1.615080	0.550816	0.324370
O31	O	0.870953	-0.188703	-0.162862
O32	O	1.204286	0.144631	0.170471
O33	O	1.537619	0.477964	0.503805
O34	O	0.768935	-0.188711	-0.264867
O35	O	1.102268	0.144622	0.068467
O36	O	1.435602	0.477956	0.401800
O37	O	0.870981	-0.243869	-0.444263
O38	O	1.204314	0.089464	-0.110930
O39	O	1.537647	0.422798	0.222404
O40	O	0.768898	-0.243889	-0.342167
O41	O	1.102231	0.089444	-0.008834
O42	O	1.435565	0.422777	0.324499
O43	O	0.948364	-0.188675	-0.444319
O44	O	1.281698	0.144658	-0.110985
O45	O	1.615031	0.477991	0.222348
O46	O	0.948164	-0.316699	-0.264897
O47	O	1.281497	0.016635	0.068436
O48	O	1.614830	0.349968	0.401769
O49	O	0.870866	-0.316705	-0.342185
O50	O	1.204200	0.016628	-0.008851
O51	O	1.537533	0.349961	0.324482
C52	C	0.746076	-0.216304	-0.303507
C53	C	1.079409	0.117030	0.029826
C54	C	1.412743	0.450363	0.363160
C55	C	0.676108	-0.216325	-0.303491
C56	C	1.009441	0.117009	0.029842
C57	C	1.342774	0.450342	0.363176
C58	C	0.909514	-0.333003	-0.303548
C59	C	1.242847	0.000331	0.029785
C60	C	1.576181	0.333664	0.363118
C61	C	0.909523	-0.382937	-0.303556
C62	C	1.242856	-0.049604	0.029777
C63	C	1.576190	0.283729	0.363111
C64	C	0.643238	-0.245094	-0.343681
C65	C	0.976572	0.088239	-0.010348
C66	C	1.309905	0.421573	0.322985
C67	C	0.577496	-0.245083	-0.343710
C68	C	0.910829	0.088250	-0.010376
C69	C	1.244162	0.421584	0.322957
C70	C	0.544625	-0.216307	-0.303536
C71	C	0.877959	0.117026	0.029797
C72	C	1.211292	0.450359	0.363130
C73	C	0.577503	-0.187532	-0.263343
C74	C	0.910836	0.145801	0.069990
C75	C	1.244169	0.479134	0.403323
C76	C	0.643244	-0.187541	-0.263321
C77	C	0.976577	0.145792	0.070013
C78	C	1.309911	0.479126	0.403346
N79	N	0.441350	-0.212791	-0.248479
N80	N	0.774684	0.120542	0.084855
N81	N	1.108017	0.453876	0.418188
N82	N	0.378899	-0.212785	-0.248502
N83	N	0.712232	0.120548	0.084831
N84	N	1.045566	0.453881	0.418165
C85	C	0.346551	-0.216279	-0.303603
C86	C	0.679884	0.117055	0.029730
C87	C	1.013217	0.450388	0.363064
N88	N	0.379013	-0.219787	-0.358681
N89	N	0.712347	0.113547	-0.025348
N90	N	1.045680	0.446880	0.307985
N91	N	0.441470	-0.219795	-0.358657
N92	N	0.774804	0.113539	-0.025324
N93	N	1.108137	0.446872	0.308009
C94	C	0.473340	-0.216294	-0.303557
C95	C	0.806673	0.117039	0.029777
C96	C	1.140007	0.450372	0.363110
C97	C	0.242396	-0.245037	-0.343827
C98	C	0.575729	0.088296	-0.010494
C99	C	0.909062	0.421629	0.322839
C100	C	0.176652	-0.245023	-0.343857
C101	C	0.509985	0.088310	-0.010523
C102	C	0.843319	0.421643	0.322810
C103	C	0.176660	-0.187475	-0.263485
C104	C	0.509994	0.145858	0.069848
C105	C	0.843327	0.479192	0.403182
C106	C	0.242403	-0.187487	-0.263461
C107	C	0.575736	0.145846	0.069872
C108	C	0.909069	0.479180	0.403206
C109	C	0.275266	-0.216271	-0.303632
C110	C	0.608600	0.117063	0.029702
C111	C	0.941933	0.450396	0.363035
C112	C	0.949949	-0.692564	-0.263395
C113	C	1.283283	-0.359231	0.069938
C114	C	1.616616	-0.025898	0.403272
C115	C	0.950027	-0.880238	-0.263419
C116	C	1.283361	-0.546904	0.069914
C117	C	1.616694	-0.213571	0.403247
O118	O	0.984309	-0.904489	-0.229249
O119	O	1.317642	-0.571155	0.104084
O120	O	1.650976	-0.237822	0.437418
N121	N	0.909758	-0.903722	-0.303627
N122	N	1.243091	-0.570389	0.029706
N123	N	1.576425	-0.237056	0.363040
C124	C	0.869470	-0.880286	-0.343835
C125	C	1.202803	-0.546952	-0.010501
C126	C	1.536136	-0.213619	0.322832
O127	O	0.835225	-0.904567	-0.378039
O128	O	1.168558	-0.571234	-0.044706
O129	O	1.501891	-0.237900	0.288628
C130	C	0.869396	-0.692614	-0.343813
C131	C	1.202729	-0.359280	-0.010479
C132	C	1.536062	-0.025947	0.322854
C133	C	0.909663	-0.669131	-0.303598
C134	C	1.242996	-0.335798	0.029735
C135	C	1.576330	-0.002465	0.363069
C136	C	0.990214	-0.669082	-0.223184
C137	C	1.323547	-0.335749	0.110150
C138	C	1.656881	-0.002416	0.443483
C139	C	0.990192	-0.622167	-0.223176
C140	C	1.323525	-0.288833	0.110158
C141	C	1.656858	0.044500	0.443491
C142	C	0.949905	-0.598734	-0.263379
C143	C	1.283238	-0.265400	0.069955
C144	C	1.616572	0.067933	0.403288
C145	C	0.909641	-0.622216	-0.303590
C146	C	1.242974	-0.288883	0.029744
C147	C	1.576307	0.044451	0.363077
C148	C	0.829111	-0.669178	-0.384023
C149	C	1.162444	-0.335845	-0.050690
C150	C	1.495778	-0.002511	0.282644
C151	C	0.829097	-0.622257	-0.384015
C152	C	1.162430	-0.288924	-0.050682
C153	C	1.495764	0.044410	0.282652
C154	C	0.869364	-0.598775	-0.343800
C155	C	1.202698	-0.265441	-0.010467
C156	C	1.536031	0.067892	0.322867
C157	C	0.869332	-0.551867	-0.343785
C158	C	1.202665	-0.218534	-0.010451
C159	C	1.535998	0.114799	0.322882
N160	N	0.909601	-0.528383	-0.303577
N161	N	1.242934	-0.195049	0.029756
N162	N	1.576267	0.138284	0.363090
C163	C	0.949887	-0.551816	-0.263374
C164	C	1.283221	-0.218482	0.069959
C165	C	1.616554	0.114851	0.403293
C166	C	0.869511	-0.978816	-0.343842
C167	C	1.202844	-0.645483	-0.010509
C168	C	1.536177	-0.312150	0.322824
C169	C	0.869528	-1.025734	-0.343847
C170	C	1.202862	-0.692401	-0.010514
C171	C	1.536195	-0.359067	0.322820
C172	C	0.950087	-1.025683	-0.263432
C173	C	1.283420	-0.692349	0.069901
C174	C	1.616753	-0.359016	0.403234
C175	C	0.950065	-0.978764	-0.263425
C176	C	1.283399	-0.645431	0.069908
C177	C	1.616732	-0.312097	0.403242
C178	C	0.909780	-0.955332	-0.303634
C179	C	1.243113	-0.621998	0.029699
C180	C	1.576446	-0.288665	0.363032
C181	C	0.949837	-0.453290	-0.263359
C182	C	1.283171	-0.119957	0.069974
C183	C	1.616504	0.213377	0.403307
C184	C	0.949810	-0.406370	-0.263353
C185	C	1.283143	-0.073037	0.069980
C186	C	1.616476	0.260296	0.403314
C187	C	0.869254	-0.406426	-0.343770
C188	C	1.202587	-0.073093	-0.010436
C189	C	1.535920	0.260241	0.322897
C190	C	0.869279	-0.453341	-0.343774
C191	C	1.202612	-0.120008	-0.010441
C192	C	1.535945	0.213325	0.322893
C193	C	0.909576	-0.476772	-0.303567
C194	C	1.242909	-0.143439	0.029767
C195	C	1.576242	0.189894	0.363100
O196	O	0.835073	-0.527587	-0.377942
O197	O	1.168406	-0.194254	-0.044609
O198	O	1.501739	0.139079	0.288724
O199	O	0.984137	-0.527526	-0.229185
O200	O	1.317470	-0.194193	0.104149
O201	O	1.650804	0.139140	0.437482
C202	C	0.949972	-0.739480	-0.263403
C203	C	1.283305	-0.406147	0.069930
C204	C	1.616638	-0.072813	0.403264
C205	C	0.909707	-0.762962	-0.303614
C206	C	1.243041	-0.429629	0.029719
C207	C	1.576374	-0.096296	0.363053
C208	C	0.869421	-0.739529	-0.343817
C209	C	1.202754	-0.406196	-0.010484
C210	C	1.536087	-0.072862	0.322850
C211	C	0.909725	-0.809880	-0.303619
C212	C	1.243058	-0.476547	0.029714
C213	C	1.576392	-0.143213	0.363048
C214	C	0.950012	-0.833313	-0.263416
C215	C	1.283345	-0.499980	0.069917
C216	C	1.616678	-0.166647	0.403251
C217	C	0.990281	-0.809829	-0.223208
C218	C	1.323614	-0.476495	0.110125
C219	C	1.656947	-0.143162	0.443458
C220	C	0.990258	-0.762913	-0.223200
C221	C	1.323592	-0.429580	0.110133
C222	C	1.656925	-0.096246	0.443467
C223	C	0.829152	-0.763014	-0.384025
C224	C	1.162485	-0.429680	-0.050692
C225	C	1.495818	-0.096347	0.282642
C226	C	0.829177	-0.809929	-0.384029
C227	C	1.162510	-0.476596	-0.050696
C228	C	1.495843	-0.143263	0.282637
C229	C	0.869463	-0.833362	-0.343826
C230	C	1.202797	-0.500029	-0.010493
C231	C	1.536130	-0.166696	0.322840
C232	C	1.073818	-0.216257	-0.303653
C233	C	1.407151	0.117077	0.029681
C234	C	1.740485	0.450410	0.363014
C235	C	1.143786	-0.216247	-0.303684
C236	C	1.477119	0.117087	0.029649
C237	C	1.810453	0.450420	0.362983
C238	C	0.909680	-0.216271	-0.467770
C239	C	1.243013	0.117063	-0.134437
C240	C	1.576347	0.450396	0.198897
C241	C	0.909702	-0.216267	-0.537738
C242	C	1.243035	0.117067	-0.204405
C243	C	1.576369	0.450400	0.128929
C244	C	0.909759	-0.099102	-0.303625
C245	C	1.243092	0.234232	0.029709
C246	C	1.576426	0.567565	0.363042
C247	C	0.909815	-0.049167	-0.303644
C248	C	1.243148	0.284166	0.029689
C249	C	1.576481	0.617499	0.363023
C250	C	0.949994	-0.187526	-0.570635
C251	C	1.283327	0.145807	-0.237301
C252	C	1.616661	0.479141	0.096032
C253	C	0.949993	-0.187507	-0.636377
C254	C	1.283327	0.145827	-0.303044
C255	C	1.616660	0.479160	0.030289
C256	C	0.909707	-0.216236	-0.669221
C257	C	1.243040	0.117098	-0.335887
C258	C	1.576374	0.450431	-0.002554
C259	C	0.869407	-0.244978	-0.636316
C260	C	1.202741	0.088355	-0.302983
C261	C	1.536074	0.421688	0.030351
C262	C	0.869405	-0.244994	-0.570575
C263	C	1.202738	0.088340	-0.237241
C264	C	1.536071	0.421673	0.096092
N265	N	0.904840	-0.255537	-0.772436
N266	N	1.238173	0.077796	-0.439102
N267	N	1.571506	0.411130	-0.105769
N268	N	0.904846	-0.255521	-0.834887
N269	N	1.238179	0.077812	-0.501554
N270	N	1.571513	0.411146	-0.168220
C271	C	0.909711	-0.216190	-0.867295
C272	C	1.243044	0.117143	-0.533962
C273	C	1.576378	0.450477	-0.200629
N274	N	0.914582	-0.176875	-0.834893
N275	N	1.247916	0.156458	-0.501560
N276	N	1.581249	0.489792	-0.168226
N277	N	0.914580	-0.176891	-0.772436
N278	N	1.247913	0.156442	-0.439103
N279	N	1.581246	0.489775	-0.105769
C280	C	0.909705	-0.216222	-0.740506
C281	C	1.243038	0.117111	-0.407173
C282	C	1.576372	0.450445	-0.073839
C283	C	0.950004	-0.187426	-0.971478
C284	C	1.283337	0.145907	-0.638144
C285	C	1.616671	0.479241	-0.304811
C286	C	0.949999	-0.187406	-1.037221
C287	C	1.283332	0.145928	-0.703888
C288	C	1.616666	0.479261	-0.370555
C289	C	0.869416	-0.244882	-1.037159
C290	C	1.202750	0.088452	-0.703826
C291	C	1.536083	0.421785	-0.370492
C292	C	0.869418	-0.244898	-0.971417
C293	C	1.202752	0.088436	-0.638083
C294	C	1.536085	0.421769	-0.304750
C295	C	0.909716	-0.216171	-0.938580
C296	C	1.243049	0.117163	-0.605246
C297	C	1.576382	0.450496	-0.271913
C298	C	0.909612	-0.216257	-0.140028
C299	C	1.242945	0.117076	0.193305
C300	C	1.576278	0.450409	0.526639
C301	C	0.909712	-0.216135	-0.070060
C302	C	1.243045	0.117199	0.263273
C303	C	1.576378	0.450532	0.596606
H304	H	0.669992	-0.268531	-0.376392
H305	H	1.003325	0.064802	-0.043059
H306	H	1.336658	0.398135	0.290275
C307	C	0.994406	-1.051468	-0.219212
C308	C	1.327739	-0.718134	0.114121
C309	C	1.661072	-0.384801	0.447454
N310	N	1.027789	-1.070891	-0.185911
N311	N	1.361122	-0.737558	0.147422
N312	N	1.694455	-0.404225	0.480756
C313	C	0.679402	-0.155894	-0.219103
C314	C	1.012735	0.177440	0.114230
C315	C	1.346068	0.510773	0.447564
N316	N	0.706637	-0.132057	-0.185796
N317	N	1.039970	0.201276	0.147537
N318	N	1.373303	0.534609	0.480871
C319	C	0.784815	-0.694998	-0.428265
C320	C	1.118148	-0.361665	-0.094932
C321	C	1.451481	-0.028331	0.238401
N322	N	0.751449	-0.714445	-0.461592
N323	N	1.084783	-0.381112	-0.128259
N324	N	1.418116	-0.047778	0.205074
C325	C	0.541344	-0.155879	-0.219153
C326	C	0.874677	0.177454	0.114181
C327	C	1.208011	0.510788	0.447514
N328	N	0.514109	-0.132036	-0.185868
N329	N	0.847443	0.201297	0.147465
N330	N	1.180776	0.534631	0.480798
H331	H	0.836704	-0.959741	-0.376586
H332	H	1.170037	-0.626407	-0.043253
H333	H	1.503370	-0.293074	0.290080
C334	C	0.994162	-0.479057	-0.219126
C335	C	1.327495	-0.145724	0.114208
C336	C	1.660829	0.187610	0.447541
N337	N	1.027544	-0.498465	-0.185805
N338	N	1.360877	-0.165131	0.147528
N339	N	1.694211	0.168202	0.480861
C340	C	1.034484	-0.596342	-0.178931
C341	C	1.367817	-0.263009	0.154403
C342	C	1.701151	0.070324	0.487736
N343	N	1.067846	-0.576894	-0.145601
N344	N	1.401179	-0.243561	0.187732
N345	N	1.734512	0.089772	0.521066
C346	C	1.034533	-0.694851	-0.178950
C347	C	1.367866	-0.361518	0.154383
C348	C	1.701200	-0.028185	0.487717
N349	N	1.067913	-0.714257	-0.145626
N350	N	1.401246	-0.380924	0.187708
N351	N	1.734579	-0.047591	0.521041
H352	H	0.796292	-0.603181	-0.416761
H353	H	1.129626	-0.269847	-0.083427
H354	H	1.462959	0.063486	0.249906
H355	H	0.836608	-0.268269	-1.063899
H356	H	1.169941	0.065064	-0.730566
H357	H	1.503275	0.398398	-0.397233
H358	H	1.023048	-0.743797	-0.190453
H359	H	1.356381	-0.410464	0.142880
H360	H	1.689714	-0.077131	0.476213
H361	H	0.269155	-0.268472	-0.376540
H362	H	0.602488	0.064861	-0.043206
H363	H	0.935821	0.398194	0.290127
C364	C	0.994314	-0.155919	-0.534518
C365	C	1.327647	0.177414	-0.201185
C366	C	1.660981	0.510747	0.132148
N367	N	1.027694	-0.132111	-0.507314
N368	N	1.361027	0.201223	-0.173981
N369	N	1.694360	0.534556	0.159352
C370	C	1.034595	-0.835614	-0.178984
C371	C	1.367929	-0.502281	0.154349
C372	C	1.701262	-0.168947	0.487683
N373	N	1.067974	-0.855038	-0.145679
N374	N	1.401307	-0.521705	0.187655
N375	N	1.734640	-0.188371	0.520988
H376	H	0.149891	-0.268450	-0.376588
H377	H	0.483224	0.064883	-0.043255
H378	H	0.816557	0.398217	0.290078
H379	H	0.982855	-0.959647	-0.230679
H380	H	1.316188	-0.626314	0.102654
H381	H	1.649521	-0.292981	0.435988
C382	C	0.140507	-0.155821	-0.219294
C383	C	0.473840	0.177512	0.114039
C384	C	0.807173	0.510846	0.447373
N385	N	0.113272	-0.131978	-0.186009
N386	N	0.446606	0.201355	0.147324
N387	N	0.779939	0.534689	0.480658
H388	H	0.269165	-0.164062	-0.230731
H389	H	0.602499	0.169271	0.102603
H390	H	0.935832	0.502605	0.435936
H391	H	0.982802	-0.164100	-0.663167
H392	H	1.316136	0.169233	-0.329834
H393	H	1.649469	0.502567	0.003500
C394	C	0.825080	-0.276613	-0.534387
C395	C	1.158413	0.056720	-0.201054
C396	C	1.491747	0.390053	0.132279
N397	N	0.791695	-0.300430	-0.507130
N398	N	1.125028	0.032903	-0.173797
N399	N	1.458361	0.366237	0.159537
H400	H	0.982808	-0.163999	-1.064005
H401	H	1.316142	0.169334	-0.730672
H402	H	1.649475	0.502668	-0.397338
C403	C	0.994105	-0.380543	-0.219109
C404	C	1.327439	-0.047209	0.114225
C405	C	1.660772	0.286124	0.447558
N406	N	1.027468	-0.361091	-0.185784
N407	N	1.360801	-0.027758	0.147549
N408	N	1.694134	0.305576	0.480882
H409	H	0.836612	-0.268304	-0.944632
H410	H	1.169945	0.065029	-0.611298
H411	H	1.503279	0.398362	-0.277965
C412	C	0.825225	-1.051559	-0.388080
C413	C	1.158558	-0.718226	-0.054747
C414	C	1.491892	-0.384893	0.278586
N415	N	0.791857	-1.071009	-0.421401
N416	N	1.125190	-0.737676	-0.088068
N417	N	1.458524	-0.404343	0.245265
C418	C	0.825090	-0.276578	-0.672445
C419	C	1.158423	0.056755	-0.339112
C420	C	1.491756	0.390088	-0.005778
N421	N	0.791706	-0.300379	-0.699657
N422	N	1.125039	0.032954	-0.366324
N423	N	1.458372	0.366288	-0.032991
C424	C	0.994326	-0.155822	-0.935355
C425	C	1.327659	0.177511	-0.602022
C426	C	1.660993	0.510845	-0.268688
N427	N	1.027709	-0.132017	-0.908149
N428	N	1.361042	0.201317	-0.574816
N429	N	1.694375	0.534650	-0.241483
H430	H	0.796381	-0.829044	-0.416777
H431	H	1.129714	-0.495711	-0.083443
H432	H	1.463047	-0.162378	0.249890
H433	H	0.836492	-0.472462	-0.376522
H434	H	1.169825	-0.139128	-0.043189
H435	H	1.503159	0.194205	0.290145
H436	H	0.836451	-0.387339	-0.376501
H437	H	1.169784	-0.054006	-0.043167
H438	H	1.503117	0.279327	0.290166
H439	H	0.796346	-0.743938	-0.416764
H440	H	1.129679	-0.410605	-0.083431
H441	H	1.463013	-0.077271	0.249903
C442	C	0.541332	-0.276734	-0.387922
C443	C	0.874665	0.056599	-0.054588
C444	C	1.207999	0.389933	0.278745
N445	N	0.514095	-0.300575	-0.421221
N446	N	0.847429	0.032759	-0.087888
N447	N	1.180762	0.366092	0.245445
