data_functionalizedCrystal
_audit_creation_method	'MofGen! by Chris Wilmer'
_symmetry_space_group_name_H-M	'P1'
_symmetry_Int_Tables_number	1
_symmetry_cell_setting	triclinic
loop_
_symmetry_equiv_pos_as_xyz
  x,y,z
_cell_length_a	14.853566
_cell_length_b	12.837942
_cell_length_c	11.295483
_cell_angle_alpha	85.469583
_cell_angle_beta	94.108244
_cell_angle_gamma	89.231677
loop_
_atom_site_label
_atom_site_type_symbol
_atom_site_fract_x
_atom_site_fract_y
_atom_site_fract_z
O1	O	-1.213315	-0.128383	-0.098945
O2	O	-0.952224	-0.144507	-0.098964
O3	O	-1.076980	0.014465	-0.098947
O4	O	-1.088559	-0.287356	-0.098961
O5	O	-1.066020	0.000524	0.099102
O6	O	-0.941265	-0.158449	0.099085
O7	O	-1.202355	-0.142325	0.099105
Cu8	Cu	-1.070809	-0.151660	0.117178
Cu9	Cu	-1.083770	-0.135172	-0.117038
O10	O	-1.077600	-0.301297	0.099088
C11	C	-0.913094	-0.150748	0.000058
C12	C	-0.812825	-0.148558	0.000051
C13	C	-1.067588	0.046121	0.000076
C14	C	-1.055923	0.161215	0.000073
C15	C	-1.241486	-0.136084	0.000080
C16	C	-1.341755	-0.138273	0.000079
C17	C	-0.394827	-0.131702	-0.107885
C18	C	-0.382901	-0.146902	0.108036
C19	C	-0.477109	-0.148957	0.108033
C20	C	-0.530181	-0.142387	0.000069
C21	C	-0.489045	-0.133760	-0.107892
C22	C	-0.518252	-0.157594	0.215991
C23	C	-0.612467	-0.159651	0.215992
C24	C	-0.665541	-0.153073	0.108026
C25	C	-0.624399	-0.144445	0.000062
C26	C	-0.677471	-0.137874	-0.107902
C27	C	-0.636331	-0.129239	-0.215868
C28	C	-0.542119	-0.127182	-0.215857
C29	C	-0.759753	-0.155129	0.108015
C30	C	-0.771688	-0.139932	-0.107910
C31	C	-1.086991	-0.332953	0.000062
C32	C	-1.098657	-0.448046	0.000057
N33	N	-1.061700	-0.163255	0.281914
C34	C	-1.196170	0.401973	0.000059
C35	C	-1.185213	0.510115	0.000056
C36	C	-1.023053	0.485643	0.000056
C37	C	-1.034010	0.377501	0.000059
C38	C	-1.120571	0.335670	0.000062
C39	C	-1.131527	0.227526	0.000074
C40	C	-0.969368	0.203057	0.000065
C41	C	-0.958411	0.311198	0.000063
N42	N	-1.092886	-0.123569	-0.281773
C43	C	-1.158455	-0.040039	0.531216
C44	C	-1.151578	-0.048809	0.655879
C45	C	-1.041065	-0.189561	0.655904
C46	C	-1.047942	-0.180790	0.531241
C47	C	-1.106640	-0.106028	0.468902
C48	C	-1.113521	-0.097263	0.344237
C49	C	-1.003003	-0.238009	0.344264
C50	C	-0.996126	-0.246780	0.468927
H51	H	-0.814894	-0.134578	-0.195828
Br52	Br	-0.708368	-0.120333	-0.362385
H53	H	-0.339684	-0.152259	0.195936
H54	H	-1.161319	-0.036391	0.293481
Br55	Br	-0.916463	-0.348234	0.553538
Br56	Br	-1.249000	0.170755	0.000090
H57	H	-0.887936	0.345273	0.000056
H58	H	-0.952580	0.519722	0.000041
Br59	Br	-0.815582	-0.166859	0.254527
Br60	Br	-0.446223	-0.166529	0.362504
Br61	Br	-0.486282	-0.115416	-0.362368
Br62	Br	-1.313639	0.345194	0.000100
Br63	Br	-0.932688	-0.327579	0.259684
Br64	Br	-0.866762	0.113066	0.000091
Br65	Br	-0.339000	-0.119947	-0.254403
Br66	Br	-0.668292	-0.171370	0.362513
H67	H	-1.206256	0.020829	0.480458
H68	H	-1.246774	0.564096	0.000050
H69	H	-1.193770	0.004927	0.706612
H70	H	-0.993267	-0.250423	0.706677
