data_functionalizedCrystal
_audit_creation_method	'MofGen! by Chris Wilmer'
_symmetry_space_group_name_H-M	'P1'
_symmetry_Int_Tables_number	1
_symmetry_cell_setting	triclinic
loop_
_symmetry_equiv_pos_as_xyz
  x,y,z
_cell_length_a	12.759401
_cell_length_b	12.827892
_cell_length_c	12.759401
_cell_angle_alpha	90.006100
_cell_angle_beta	90.006276
_cell_angle_gamma	90.016917
loop_
_atom_site_label
_atom_site_type_symbol
_atom_site_fract_x
_atom_site_fract_y
_atom_site_fract_z
Zn1	Zn	1.606109	-0.416186	0.594023
Zn2	Zn	1.606043	-0.590891	0.418345
Zn3	Zn	1.430453	-0.416169	0.418359
Zn4	Zn	1.430398	-0.590891	0.593982
O5	O	1.518251	-0.503534	0.506177
O6	O	1.753121	-0.439368	0.570731
O7	O	1.582746	-0.567706	0.271326
O8	O	1.453805	-0.269935	0.441684
O9	O	1.753073	-0.567723	0.441661
O10	O	1.582859	-0.269948	0.570744
O11	O	1.453741	-0.439339	0.271336
O12	O	1.283425	-0.439339	0.441644
O13	O	1.453711	-0.567723	0.741009
O14	O	1.283384	-0.567706	0.570674
O15	O	1.582805	-0.439368	0.741039
O16	O	1.582693	-0.737127	0.441621
O17	O	1.453647	-0.737127	0.570661
C18	C	1.245283	-0.503521	0.506157
C19	C	1.128507	-0.503541	0.506173
C20	C	1.073651	-0.570483	0.573253
C21	C	0.963927	-0.570487	0.573274
C22	C	0.963924	-0.436604	0.439125
C23	C	1.073646	-0.436595	0.439110
C24	C	1.518185	-0.775044	0.506158
C25	C	1.518253	-0.891197	0.506185
C26	C	1.582085	-0.942905	0.570105
C27	C	1.582156	-1.062955	0.570134
C28	C	1.792284	-0.503548	0.506199
C29	C	1.909061	-0.503553	0.506208
C30	C	1.518259	-0.503547	0.780211
C31	C	1.518263	-0.503553	0.896987
C32	C	1.518345	-0.230964	0.506220
C33	C	1.518386	-0.114811	0.506238
C34	C	1.585423	-0.570383	1.061580
C35	C	1.585424	-0.570388	0.951856
C36	C	1.451088	-0.436716	0.951849
C37	C	1.451081	-0.436717	1.061571
C38	C	1.518241	-0.503547	1.233210
C39	C	1.518255	-0.503549	1.116433
H40	H	1.118311	-0.382076	0.384486
H41	H	1.463653	-0.935805	0.451487
H42	H	1.463738	-1.070351	0.451506
H43	H	1.396399	-0.382303	0.907167
O44	O	1.650699	-0.635405	1.114712
C45	C	1.710000	-0.694377	1.042762
H46	H	1.666969	-0.697990	0.964541
H47	H	1.789808	-0.656116	1.031109
C48	C	1.777951	-0.801162	1.181643
C49	C	1.725094	-0.805607	1.085574
H50	H	1.787267	-0.869773	1.208052
H51	H	1.738002	-0.761430	1.230118
H52	H	1.844452	-0.769273	1.171919
H53	H	1.658590	-0.837484	1.095301
H54	H	1.765032	-0.845348	1.037101
O55	O	1.650725	-0.635163	0.898455
C56	C	1.718622	-0.575670	0.835021
H57	H	1.681594	-0.496476	0.818583
H58	H	1.796482	-0.564189	0.877319
C59	C	1.783108	-0.730441	0.750985
C60	C	1.737625	-0.633176	0.730788
H61	H	1.794835	-0.765914	0.686690
H62	H	1.737368	-0.770523	0.793724
H63	H	1.847986	-0.720859	0.786236
H64	H	1.672742	-0.642759	0.695550
H65	H	1.783355	-0.593096	0.688040
O66	O	1.126782	-0.635537	0.638501
C67	C	1.054830	-0.694639	0.697695
H68	H	0.976627	-0.651847	0.701413
H69	H	1.043134	-0.773946	0.659089
C70	C	1.193724	-0.762431	0.804915
C71	C	1.097676	-0.709868	0.809489
H72	H	1.220154	-0.771829	0.873874
H73	H	1.242200	-0.722616	0.765033
H74	H	1.183964	-0.828514	0.772739
H75	H	1.107439	-0.643781	0.841653
H76	H	1.049202	-0.749672	0.849379
O77	O	0.910467	-0.371676	0.374016
C78	C	0.801860	-0.386017	0.388430
H79	H	0.786864	-0.466723	0.422695
H80	H	0.770752	-0.324129	0.444496
C81	C	0.763921	-0.277141	0.240070
C82	C	0.745502	-0.376269	0.282146
H83	H	0.729155	-0.271123	0.174510
H84	H	0.837092	-0.267475	0.230360
H85	H	0.737998	-0.225578	0.286801
H86	H	0.771437	-0.427829	0.235421
H87	H	0.672334	-0.385943	0.291845
O88	O	1.385683	-0.371841	1.114744
C89	C	1.280964	-0.394694	1.087929
H90	H	1.278781	-0.434863	1.008258
H91	H	1.245556	-0.448422	1.149668
C92	C	1.220039	-0.243481	1.180716
C93	C	1.217356	-0.292809	1.082858
H94	H	1.180800	-0.180635	1.177593
H95	H	1.290589	-0.228086	1.198786
H96	H	1.190534	-0.288265	1.232155
H97	H	1.246872	-0.248030	1.031424
H98	H	1.146809	-0.308194	1.064780
O99	O	1.647203	-1.116045	0.635536
C100	C	1.587312	-1.179231	0.703276
H101	H	1.504571	-1.146342	0.709713
H102	H	1.583691	-1.261924	0.670730
C103	C	1.740173	-1.221369	0.804636
C104	C	1.638552	-1.180970	0.812549
H105	H	1.771782	-1.222447	0.872040
H106	H	1.780525	-1.178803	0.758997
H107	H	1.737142	-1.290276	0.777511
H108	H	1.641585	-1.112060	0.839661
H109	H	1.598202	-1.223525	0.858195
H110	H	0.919269	-0.624997	0.627899
H111	H	1.636677	-0.898299	0.624813
