data_functionalizedCrystal
_audit_creation_method	'MofGen! by Chris Wilmer'
_symmetry_space_group_name_H-M	'P1'
_symmetry_Int_Tables_number	1
_symmetry_cell_setting	triclinic
loop_
_symmetry_equiv_pos_as_xyz
  x,y,z
_cell_length_a	11.792241
_cell_length_b	10.868271
_cell_length_c	9.065218
_cell_angle_alpha	89.996715
_cell_angle_beta	95.395350
_cell_angle_gamma	90.000107
loop_
_atom_site_label
_atom_site_type_symbol
_atom_site_fract_x
_atom_site_fract_y
_atom_site_fract_z
O1	O	1.508030	0.102197	-0.202225
O2	O	1.841363	0.435531	0.131109
O3	O	2.174697	0.768864	0.464442
O4	O	1.177804	0.102226	-0.223066
O5	O	1.511138	0.435559	0.110267
O6	O	1.844471	0.768892	0.443601
O7	O	1.349743	0.102208	0.002061
O8	O	1.683076	0.435542	0.335394
O9	O	2.016410	0.768875	0.668728
O10	O	1.336091	0.102215	-0.427352
O11	O	1.669425	0.435548	-0.094018
O12	O	2.002758	0.768881	0.239315
O13	O	1.349728	-0.102436	0.002070
O14	O	1.683062	0.230897	0.335403
O15	O	2.016395	0.564230	0.668737
O16	O	1.177790	-0.102419	-0.223057
O17	O	1.511123	0.230914	0.110276
O18	O	1.844457	0.564248	0.443610
O19	O	1.508016	-0.102447	-0.202216
O20	O	1.841349	0.230886	0.131118
O21	O	2.174682	0.564219	0.464451
Zn22	Zn	1.342900	-0.134925	-0.212635
Zn23	Zn	1.676234	0.198408	0.120698
Zn24	Zn	2.009567	0.531742	0.454032
Zn25	Zn	1.342919	0.134703	-0.212647
Zn26	Zn	1.676253	0.468037	0.120687
Zn27	Zn	2.009586	0.801370	0.454020
O28	O	1.336077	-0.102430	-0.427343
O29	O	1.669410	0.230903	-0.094009
O30	O	2.002744	0.564237	0.239324
C31	C	1.135499	-0.000093	-0.221752
C32	C	1.468832	0.333240	0.111581
C33	C	1.802166	0.666573	0.444914
C34	C	1.009464	-0.000082	-0.217834
C35	C	1.342797	0.333251	0.115499
C36	C	1.676130	0.666584	0.448833
C37	C	0.778711	-0.000118	-0.210629
C38	C	1.112045	0.333216	0.122705
C39	C	1.445378	0.666549	0.456038
C40	C	0.907119	-0.000098	-0.214632
C41	C	1.240452	0.333235	0.118701
C42	C	1.573785	0.666568	0.452035
N43	N	1.342896	-0.318939	-0.212626
N44	N	1.676229	0.014394	0.120707
N45	N	2.009563	0.347728	0.454041
C46	C	1.342914	-0.569945	-0.212644
C47	C	1.676247	-0.236612	0.120690
C48	C	2.009580	0.096722	0.454023
C49	C	1.342900	-0.430268	-0.212638
C50	C	1.676233	-0.096934	0.120695
C51	C	2.009567	0.236399	0.454028
C52	C	1.550321	-0.000126	-0.203529
C53	C	1.883654	0.333207	0.129804
C54	C	2.216988	0.666541	0.463137
C55	C	1.676356	-0.000129	-0.207448
C56	C	2.009690	0.333205	0.125886
C57	C	2.343023	0.666538	0.459219
C58	C	1.348424	-0.000112	0.057040
C59	C	1.681757	0.333221	0.390373
C60	C	2.015090	0.666555	0.723707
C61	C	1.344501	-0.000106	0.220846
C62	C	1.677834	0.333228	0.554179
C63	C	2.011167	0.666561	0.887513
N64	N	1.342933	0.318717	-0.212644
N65	N	1.676266	0.652051	0.120689
N66	N	2.009600	0.985384	0.454023
C67	C	1.337396	-0.000107	-0.482322
C68	C	1.670730	0.333226	-0.148988
C69	C	2.004063	0.666559	0.184345
C70	C	1.341319	-0.000105	-0.646128
C71	C	1.674652	0.333228	-0.312794
C72	C	2.007986	0.666561	0.020539
