data_functionalizedCrystal
_audit_creation_method	'MofGen! by Chris Wilmer'
_symmetry_space_group_name_H-M	'P1'
_symmetry_Int_Tables_number	1
_symmetry_cell_setting	triclinic
loop_
_symmetry_equiv_pos_as_xyz
  x,y,z
_cell_length_a	35.288094
_cell_length_b	35.282915
_cell_length_c	35.277630
_cell_angle_alpha	119.997859
_cell_angle_beta	89.997747
_cell_angle_gamma	120.014473
loop_
_atom_site_label
_atom_site_type_symbol
_atom_site_fract_x
_atom_site_fract_y
_atom_site_fract_z
O1	O	0.323087	0.334366	0.594405
O2	O	0.267958	0.256742	0.461658
O3	O	0.267979	0.334364	0.539279
O4	O	0.323065	0.256744	0.516785
O5	O	0.204933	0.271318	0.539279
O6	O	0.204911	0.193696	0.461658
O7	O	0.260040	0.271320	0.594405
Cu8	Cu	0.226719	0.226751	0.528032
Cu9	Cu	0.301279	0.301311	0.528032
O10	O	0.260019	0.193698	0.516785
C11	C	0.096102	0.534537	0.562173
C12	C	0.119008	0.511836	0.562494
C13	C	0.027460	0.465894	0.562173
C14	C	0.050470	0.443297	0.562494
C15	C	0.096083	0.465895	0.562173
C16	C	0.050489	0.511835	0.562494
C17	C	0.138050	0.687640	0.549746
C18	C	0.159661	0.731003	0.546232
C19	C	0.204861	0.752755	0.544468
C20	C	0.228293	0.799766	0.540650
C21	C	0.228450	0.731144	0.546222
C22	C	0.206841	0.687789	0.549742
C23	C	0.161638	0.666037	0.551504
C24	C	0.207224	0.411553	0.549746
C25	C	0.228969	0.386434	0.546232
C26	C	0.205509	0.339463	0.544466
C27	C	0.229078	0.312219	0.540650
C28	C	0.160302	0.317614	0.546220
C29	C	0.138562	0.342737	0.549742
C30	C	0.162028	0.389708	0.551502
C31	C	-0.138038	0.411549	0.549746
C32	C	-0.184911	0.386425	0.546226
C33	C	-0.208433	0.339454	0.544462
C34	C	-0.259255	0.312209	0.540643
C35	C	-0.185082	0.317606	0.546214
C36	C	-0.138212	0.342730	0.549732
C37	C	-0.114692	0.389705	0.551502
C38	C	0.138209	0.619022	0.555316
C39	C	0.119532	0.581548	0.558357
C40	C	-0.023360	0.438654	0.558357
C41	C	-0.063870	0.416942	0.555316
C42	C	0.119657	0.438655	0.558357
C43	C	0.138448	0.416944	0.555316
O44	O	-0.408731	0.256734	0.516784
O45	O	-0.276004	0.334357	0.539278
O46	O	-0.353621	0.256734	0.461658
O47	O	-0.331114	0.334357	0.594404
O48	O	-0.353637	0.193689	0.461658
O49	O	-0.276020	0.271312	0.539278
O50	O	-0.408747	0.193689	0.516784
Cu51	Cu	-0.342385	0.226744	0.528031
Cu52	Cu	-0.342366	0.301302	0.528031
O53	O	-0.331130	0.271312	0.594405
C54	C	0.095962	0.061878	0.089504
C55	C	0.050341	0.015938	0.066586
C56	C	0.095963	0.061875	0.158146
C57	C	0.050342	0.015936	0.135124
C58	C	0.027319	-0.006765	0.089504
C59	C	0.118881	0.084473	0.135123
C60	C	0.207154	0.185494	0.047590
C61	C	0.228913	0.210767	0.025985
C62	C	0.205457	0.189077	-0.019222
C63	C	0.229044	0.216482	-0.042646
C64	C	0.160243	0.142111	-0.042823
C65	C	0.138490	0.116838	-0.021220
C66	C	0.161948	0.138532	0.023988
C67	C	-0.138210	-0.159863	-0.021681
C68	C	-0.185086	-0.203225	-0.043438
C69	C	-0.208603	-0.224977	-0.019984
C70	C	-0.259430	-0.271986	-0.043567
C71	C	-0.185238	-0.203367	0.025228
C72	C	-0.138361	-0.160013	0.046981
C73	C	-0.114851	-0.138261	0.023522
C74	C	0.207158	0.185486	0.323676
C75	C	0.228916	0.210760	0.370555
C76	C	0.205461	0.189068	0.394070
C77	C	0.229049	0.216470	0.444900
C78	C	0.160249	0.142106	0.370707
C79	C	0.138493	0.116835	0.323831
C80	C	0.161954	0.138527	0.300317
C81	C	0.138355	0.111127	0.047411
C82	C	0.119551	0.089283	0.066081
C83	C	0.119553	0.089278	0.208973
C84	C	0.138358	0.111121	0.249488
C85	C	-0.023508	-0.053774	0.065917
C86	C	-0.064022	-0.091247	0.047115
C87	C	0.364424	0.071312	0.504477
C88	C	0.341025	0.024530	0.507697
C89	C	0.410038	0.094013	0.504157
C90	C	0.364447	0.139956	0.504477
C91	C	0.341071	0.166568	0.507696
C92	C	0.410060	0.162552	0.504157
C93	C	0.433068	0.139954	0.504477
C94	C	0.483063	0.166563	0.507696
C95	C	0.341521	0.094015	0.504157
C96	C	0.523454	0.188062	0.510298
C97	C	0.322121	-0.013265	0.510299
C98	C	0.322186	0.188068	0.510298
C99	C	0.574126	0.215032	0.513561
C100	C	0.298405	-0.060681	0.513562
C101	C	0.298494	0.215040	0.513561
O102	O	0.322959	0.925405	0.516785
O103	O	0.267817	0.815156	0.539279
O104	O	0.267819	0.815152	0.461659
O105	O	0.322957	0.925408	0.594405
O106	O	0.204791	0.815153	0.461659
O107	O	0.204789	0.815156	0.539279
O108	O	0.259932	0.925405	0.516785
Cu109	Cu	0.226606	0.870281	0.528032
Cu110	Cu	0.301143	0.870280	0.528032
O111	O	0.259930	0.925409	0.594405
O112	O	-0.408927	-0.397622	-0.074547
O113	O	-0.276190	-0.287377	-0.019426
O114	O	-0.353782	-0.287370	-0.019417
O115	O	-0.331335	-0.397629	-0.074556
O116	O	-0.353783	-0.287368	-0.082463
O117	O	-0.276191	-0.287375	-0.082472
O118	O	-0.408928	-0.397620	-0.137593
Cu119	Cu	-0.342560	-0.342497	-0.115789
Cu120	Cu	-0.342558	-0.342499	-0.041230
O121	O	-0.331336	-0.397627	-0.137602
O122	O	0.260035	0.271335	-0.137298
O123	O	0.204903	0.193713	-0.082176
O124	O	0.204929	0.271338	-0.082167
O125	O	0.260009	0.193711	-0.137307
O126	O	0.267977	0.334382	-0.019122
O127	O	0.267950	0.256757	-0.019131
O128	O	0.323083	0.334379	-0.074252
Cu129	Cu	0.301273	0.301324	-0.040935
Cu130	Cu	0.226712	0.226768	-0.115494
O131	O	0.323056	0.256754	-0.074261
C132	C	0.433160	0.456757	0.821268
C133	C	0.483160	0.503540	0.844660
C134	C	0.410137	0.434056	0.844187
C135	C	0.364519	0.388111	0.752624
C136	C	0.341127	0.361498	0.702621
C137	C	0.341600	0.365515	0.775647
C138	C	0.364518	0.388114	0.821268
C139	C	0.341125	0.361505	0.844661
C140	C	0.410138	0.434053	0.775647
C141	C	0.322227	0.340007	0.863559
C142	C	0.523556	0.541336	0.863557
C143	C	0.322229	0.339997	0.662223
C144	C	0.298517	0.313037	0.887268
C145	C	0.574234	0.588753	0.887266
C146	C	0.298521	0.313024	0.611543
C147	C	-0.318812	0.388093	0.821263
C148	C	-0.322028	0.361487	0.844657
C149	C	-0.318492	0.434025	0.844179
C150	C	-0.318814	0.388090	0.752619
C151	C	-0.322034	0.361482	0.702617
C152	C	-0.318495	0.434022	0.775639
C153	C	-0.318815	0.456721	0.821258
C154	C	-0.322035	0.503493	0.844646
C155	C	-0.318492	0.365498	0.775644
C156	C	-0.324638	0.541280	0.863541
C157	C	-0.324628	0.339992	0.863556
C158	C	-0.324636	0.339984	0.662221
C159	C	-0.327902	0.588686	0.887245
C160	C	-0.327889	0.313026	0.887266
C161	C	-0.327899	0.313015	0.611542
C162	C	0.364440	1.139970	0.821269
C163	C	0.341064	1.166582	0.844662
C164	C	0.410052	1.162567	0.844188
C165	C	0.364419	1.071323	0.752624
C166	C	0.341021	1.024538	0.702621
C167	C	0.410032	1.094024	0.775647
C168	C	0.433061	1.139967	0.821268
C169	C	0.483055	1.166577	0.844659
C170	C	0.341515	1.094027	0.775648
C171	C	0.523446	1.188076	0.863556
C172	C	0.322179	1.188083	0.863561
C173	C	0.322118	0.986742	0.662224
C174	C	0.574117	1.215047	0.887264
C175	C	0.298486	1.215057	0.887270
C176	C	0.298403	0.939323	0.611543
C177	C	-0.376575	-0.006506	0.089493
C178	C	-0.376890	0.016194	0.066573
C179	C	-0.376558	0.062139	0.158137
C180	C	-0.376873	0.084734	0.135113
C181	C	-0.376558	0.062134	0.089491
C182	C	-0.376890	0.016198	0.135114
C183	C	-0.364190	-0.159607	0.047580
C184	C	-0.360688	-0.202970	0.025975
C185	C	-0.358930	-0.224724	-0.019233
C186	C	-0.355125	-0.271735	-0.042658
C187	C	-0.360678	-0.203115	-0.042836
C188	C	-0.364186	-0.159760	-0.021233
C189	C	-0.365942	-0.138006	0.023977
C190	C	-0.364121	0.116469	-0.021702
C191	C	-0.360602	0.141585	-0.043462
C192	C	-0.358824	0.188557	-0.020009
C193	C	-0.355002	0.215798	-0.043594
C194	C	-0.360572	0.210407	0.025206
C195	C	-0.364099	0.185286	0.046961
C196	C	-0.365870	0.138315	0.023502
C197	C	-0.364120	0.116493	0.323673
C198	C	-0.360595	0.141618	0.370553
C199	C	-0.358820	0.188590	0.394068
C200	C	-0.354996	0.215836	0.444899
C201	C	-0.360566	0.210435	0.370703
C202	C	-0.364089	0.185309	0.323825
C203	C	-0.365870	0.138334	0.300312
C204	C	-0.369741	-0.090991	0.047400
C205	C	-0.372772	-0.053517	0.066070
C206	C	-0.372736	0.089382	0.208965
C207	C	-0.369690	0.111096	0.249481
C208	C	-0.372736	0.089372	0.065902
C209	C	-0.369691	0.111082	0.047097
O210	O	-0.353597	0.256753	0.980872
O211	O	-0.331111	0.334365	0.925746
O212	O	-0.408719	0.256729	0.925738
O213	O	-0.275989	0.334388	0.980879
O214	O	-0.408718	0.193694	0.862695
O215	O	-0.331110	0.271330	0.862702
O216	O	-0.353596	0.193718	0.917828
Cu217	Cu	-0.342353	0.226768	0.884508
Cu218	Cu	-0.342354	0.301314	0.959065
O219	O	-0.275988	0.271354	0.917835
C220	C	0.027471	0.465875	0.089492
C221	C	0.050481	0.443277	0.066574
C222	C	0.096112	0.534521	0.158137
C223	C	0.119017	0.511818	0.135115
C224	C	0.096094	0.465875	0.089494
C225	C	0.050499	0.511818	0.135113
C226	C	-0.138027	0.411530	0.047572
C227	C	-0.184896	0.386410	0.025966
C228	C	-0.208418	0.339437	-0.019242
C229	C	-0.259240	0.312192	-0.042669
C230	C	-0.185065	0.317588	-0.042844
C231	C	-0.138197	0.342712	-0.021240
C232	C	-0.114678	0.389685	0.023971
C233	C	0.137965	0.342256	-0.021695
C234	C	0.159557	0.316984	-0.043453
C235	C	0.204755	0.338672	-0.019998
C236	C	0.228168	0.311271	-0.043582
C237	C	0.228362	0.385641	0.025216
C238	C	0.206774	0.410917	0.046970
C239	C	0.161570	0.389217	0.023509
C240	C	0.138055	0.687631	0.323672
C241	C	0.159663	0.730992	0.370552
C242	C	0.204863	0.752745	0.394069
C243	C	0.228294	0.799758	0.444900
C244	C	0.228450	0.731133	0.370706
C245	C	0.206840	0.687772	0.323828
C246	C	0.161642	0.666027	0.300313
C247	C	-0.063858	0.416922	0.047395
C248	C	-0.023349	0.438634	0.066067
C249	C	0.119540	0.581534	0.208966
C250	C	0.138216	0.619010	0.249482
C251	C	0.119503	0.438470	0.065906
C252	C	0.138163	0.416626	0.047103
H253	H	0.141203	0.279372	0.544788
O254	O	-0.207878	0.271926	-0.086736
C255	C	-0.232962	0.180176	-0.137489
C256	C	-0.207105	0.231858	-0.087762
H257	H	-0.232354	0.147763	-0.138333
H258	H	-0.215243	0.188497	-0.162065
H259	H	-0.270463	0.165995	-0.148876
H260	H	-0.169602	0.246065	-0.076332
H261	H	-0.224861	0.223507	-0.063216
O262	O	0.137392	0.121032	-0.086712
C263	C	0.070724	0.095354	-0.137460
C264	C	0.096552	0.119224	-0.087736
H265	H	0.037705	0.093894	-0.138302
H266	H	0.061314	0.053055	-0.162041
H267	H	0.094056	0.121478	-0.148844
H268	H	0.073246	0.093141	-0.076309
H269	H	0.105969	0.161529	-0.063185
H270	H	0.265255	0.748846	0.389856
O271	O	0.229766	0.666843	0.551531
C272	C	0.259930	0.647274	0.595385
C273	C	0.233971	0.671024	0.593424
H274	H	0.263329	0.650636	0.629248
H275	H	0.295963	0.670272	0.593552
H276	H	0.239683	0.603293	0.564785
H277	H	0.254179	0.715001	0.624019
H278	H	0.197935	0.647986	0.595235
O279	O	0.432090	1.071355	0.753665
C280	C	0.469871	1.030256	0.753513
C281	C	0.444911	1.055933	0.778459
H282	H	0.480235	1.017770	0.773543
H283	H	0.502263	1.060480	0.751627
H284	H	0.445559	0.993472	0.716878
H285	H	0.469185	1.092712	0.815105
H286	H	0.412513	1.025674	0.780308
O287	O	-0.115267	0.457160	0.551434
C288	C	-0.120036	0.522781	0.551096
C289	C	-0.145885	0.471120	0.549171
H290	H	-0.144776	0.534090	0.549277
H291	H	-0.106642	0.515892	0.520505
H292	H	-0.089538	0.556631	0.584968
H293	H	-0.176401	0.437245	0.515319
H294	H	-0.159244	0.478054	0.579786
H295	H	0.032016	0.530832	0.563004
H296	H	-0.119070	-0.142157	-0.040786
O297	O	0.094551	0.071257	-0.044074
C298	C	0.015484	0.028135	-0.044953
C299	C	0.065227	0.079785	-0.019019
H300	H	-0.008240	0.035016	-0.024712
H301	H	0.015388	-0.005807	-0.048390
H302	H	0.002473	0.016969	-0.080979
H303	H	0.078269	0.091001	0.017019
H304	H	0.065294	0.113697	-0.015620
H305	H	-0.377377	0.121704	0.153599
O306	O	-0.377533	-0.006545	0.157093
C307	C	-0.378427	-0.077717	0.151972
C308	C	-0.377710	-0.052024	0.127023
H309	H	-0.378560	-0.114485	0.127674
H310	H	-0.410916	-0.090206	0.162379
H311	H	-0.346298	-0.047452	0.184350
H312	H	-0.409816	-0.082261	0.094628
H313	H	-0.345200	-0.039523	0.116650
O314	O	0.136740	0.751944	0.393287
C315	C	0.106572	0.771523	0.456710
C316	C	0.132528	0.747767	0.431001
H317	H	0.103167	0.768165	0.487212
H318	H	0.070541	0.748529	0.431877
H319	H	0.126824	0.815504	0.470090
H320	H	0.112315	0.703790	0.417618
H321	H	0.168562	0.770801	0.455851
O322	O	-0.115474	0.321513	-0.044093
C323	C	-0.073235	0.284695	-0.044980
C324	C	-0.098950	0.308702	-0.019047
H325	H	-0.059877	0.274321	-0.024746
H326	H	-0.042732	0.315129	-0.048406
H327	H	-0.098091	0.246826	-0.081011
H328	H	-0.074131	0.346566	0.016997
H329	H	-0.129460	0.278234	-0.015658
H330	H	-0.317980	0.328534	0.757163
H331	H	0.428539	1.199534	0.881673
O332	O	0.137389	0.120971	0.393483
C333	C	0.066996	0.050186	0.388674
C334	C	0.092826	0.074070	0.362830
H335	H	0.030965	0.012256	0.363899
H336	H	0.063594	0.080656	0.419156
H337	H	0.087324	0.039945	0.402095
H338	H	0.072521	0.084309	0.349379
H339	H	0.096233	0.043585	0.332370
O340	O	0.230046	0.457142	0.551399
C341	C	0.267400	0.498414	0.512583
C342	C	0.241572	0.446751	0.510655
H343	H	0.276718	0.490028	0.479641
H344	H	0.300473	0.530832	0.544105
H345	H	0.244099	0.512623	0.515421
H346	H	0.264835	0.432494	0.507801
H347	H	0.208494	0.414365	0.479139
O348	O	-0.207637	0.407571	0.544438
C349	C	-0.271050	0.393890	0.500587
C350	C	-0.245349	0.369882	0.502545
H351	H	-0.301551	0.363426	0.466723
H352	H	-0.246219	0.431764	0.502423
H353	H	-0.284426	0.404244	0.531186
H354	H	-0.231971	0.359495	0.471951
H355	H	-0.270197	0.332029	0.500731
O356	O	0.272259	0.406632	0.047943
C357	C	0.336026	0.398146	0.044853
C358	C	0.286309	0.374312	0.019065
H359	H	0.347405	0.372032	0.021512
H360	H	0.336917	0.399644	0.077900
H361	H	0.360578	0.440436	0.054228
H362	H	0.261728	0.332012	0.009657
H363	H	0.285456	0.372854	-0.013963
O364	O	0.296799	1.071415	0.753670
C365	C	0.230773	1.075671	0.758792
C366	C	0.281406	1.101324	0.783741
H367	H	0.218316	1.099847	0.783091
H368	H	0.207868	1.032768	0.748382
H369	H	0.228663	1.075424	0.726415
H370	H	0.283561	1.101609	0.816135
H371	H	0.304289	1.144213	0.794116
H372	H	0.304042	0.075013	0.503639
O373	O	0.432200	0.206678	0.503577
C374	C	0.502491	0.271822	0.502668
C375	C	0.477473	0.221853	0.503326
H376	H	0.539096	0.284100	0.502455
H377	H	0.504439	0.306109	0.534826
H378	H	0.482444	0.262225	0.470200
H379	H	0.497499	0.231398	0.535772
H380	H	0.475520	0.187582	0.471146
H381	H	0.140332	0.278741	-0.080265
O382	O	-0.377489	-0.006526	0.021863
C383	C	-0.378435	-0.077736	-0.044205
C384	C	-0.377748	-0.052058	0.006430
H385	H	-0.378655	-0.114560	-0.056701
H386	H	-0.346290	-0.047522	-0.046348
H387	H	-0.410907	-0.090157	-0.067064
H388	H	-0.345298	-0.039637	0.029319
H389	H	-0.409915	-0.082289	0.008536
O390	O	-0.115593	0.321455	0.551457
C391	C	-0.120711	0.250538	0.551060
C392	C	-0.146381	0.274580	0.549111
H393	H	-0.145595	0.212629	0.549155
H394	H	-0.090243	0.280942	0.584946
H395	H	-0.107296	0.240225	0.520487
H396	H	-0.159826	0.284892	0.579661
H397	H	-0.176826	0.244162	0.515206
O398	O	0.229955	0.206485	0.300793
C399	C	0.259866	0.192547	0.237187
C400	C	0.234058	0.168708	0.263068
H401	H	0.263183	0.162011	0.206676
H402	H	0.295932	0.230440	0.261907
H403	H	0.239557	0.202829	0.223801
H404	H	0.254328	0.158392	0.276456
H405	H	0.197990	0.130835	0.238330
H406	H	-0.359175	0.123827	0.389573
H407	H	-0.119340	-0.142424	0.083791
O408	O	-0.207710	-0.224154	-0.087356
C409	C	-0.202591	-0.219504	-0.153201
C410	C	-0.176922	-0.195728	-0.103454
H411	H	-0.177707	-0.196539	-0.166234
H412	H	-0.233061	-0.216111	-0.153301
H413	H	-0.216002	-0.263494	-0.176910
H414	H	-0.163481	-0.151731	-0.079716
H415	H	-0.146474	-0.199163	-0.103390
H416	H	-0.365512	0.203099	0.304804
O417	O	0.229708	0.666708	0.301137
C418	C	0.230561	0.588507	0.258845
C419	C	0.204618	0.612294	0.284537
H420	H	0.210282	0.544507	0.245409
H421	H	0.266573	0.611466	0.283695
H422	H	0.234022	0.591934	0.228381
H423	H	0.201122	0.608872	0.315000
H424	H	0.168622	0.589331	0.259657
H425	H	-0.359119	0.248684	0.389853
H426	H	0.101757	0.324947	0.551171
O427	O	0.028343	0.399186	0.563096
C428	C	-0.041981	0.333956	0.563890
C429	C	-0.016968	0.383931	0.563242
H430	H	-0.078622	0.321601	0.563998
H431	H	-0.022002	0.343510	0.596370
H432	H	-0.043844	0.299735	0.531743
H433	H	-0.015098	0.418174	0.595366
H434	H	-0.036956	0.374333	0.530741
O435	O	-0.365820	0.070881	0.300908
C436	C	-0.365499	0.005261	0.305698
C437	C	-0.363562	0.056923	0.331540
H438	H	-0.363684	-0.006046	0.330450
H439	H	-0.334916	0.012149	0.292299
H440	H	-0.399370	-0.028589	0.275200
H441	H	-0.329711	0.090798	0.362057
H442	H	-0.394169	0.049990	0.344905
O443	O	-0.317963	0.456649	0.753578
C444	C	-0.357033	0.482584	0.726304
C445	C	-0.357699	0.456938	0.751285
H446	H	-0.389151	0.482837	0.724451
H447	H	-0.356895	0.458452	0.689659
H448	H	-0.324536	0.525488	0.746341
H449	H	-0.390191	0.414037	0.731287
H450	H	-0.357812	0.481110	0.787932
H451	H	0.265729	0.248998	0.389574
H452	H	0.156494	0.530819	0.153602
H453	H	-0.365621	-0.141900	0.084391
O454	O	0.296874	0.321433	0.753541
C455	C	0.230819	0.256270	0.683249
C456	C	0.281466	0.306193	0.708229
H457	H	0.218349	0.243926	0.646606
H458	H	0.207940	0.265881	0.703261
H459	H	0.228684	0.222019	0.681378
H460	H	0.283646	0.340466	0.710105
H461	H	0.304322	0.296537	0.688207
H462	H	-0.204241	0.279349	0.544762
H463	H	-0.204384	-0.221083	0.044322
H464	H	0.428625	0.453051	0.757163
H465	H	0.031991	0.406308	0.029090
O466	O	0.432255	0.456786	0.888903
C467	C	0.502521	0.528022	0.954983
C468	C	0.477537	0.502324	0.904340
H469	H	0.539132	0.564851	0.967482
H470	H	0.504450	0.497821	0.957145
H471	H	0.482461	0.540438	0.977828
H472	H	0.497576	0.489909	0.881465
H473	H	0.475603	0.532542	0.902215
H474	H	-0.317971	0.453024	0.881663
O475	O	-0.358976	-0.223880	0.048975
C476	C	-0.359388	-0.219183	0.119493
C477	C	-0.361318	-0.195442	0.093503
H478	H	-0.361290	-0.196209	0.155495
H479	H	-0.325514	-0.215771	0.122978
H480	H	-0.389967	-0.263177	0.099227
H481	H	-0.330763	-0.151442	0.113746
H482	H	-0.395211	-0.198896	0.090013
H483	H	0.101161	0.324586	-0.040802
H484	H	0.101683	0.078594	0.304810
O485	O	0.272361	0.752218	0.544527
C486	C	0.338291	0.747749	0.544841
C487	C	0.288568	0.723845	0.546782
H488	H	0.351406	0.724812	0.546654
H489	H	0.362007	0.791740	0.575428
H490	H	0.338257	0.744368	0.510966
H491	H	0.288557	0.727187	0.580637
H492	H	0.264874	0.679864	0.516171
H493	H	0.428505	0.075005	0.503632
H494	H	-0.359250	-0.220833	-0.079646
H495	H	-0.365616	-0.142174	-0.040456
O496	O	-0.365860	0.070832	-0.044563
C497	C	-0.365487	0.005241	-0.114956
C498	C	-0.363526	0.056917	-0.089128
H499	H	-0.363590	-0.006018	-0.150987
H500	H	-0.399368	-0.028651	-0.118368
H501	H	-0.334917	0.012158	-0.094617
H502	H	-0.394072	0.050053	-0.109445
H503	H	-0.329625	0.090792	-0.085711
H504	H	-0.359179	0.123791	-0.080274
O505	O	-0.207645	0.407540	0.048868
C506	C	-0.271022	0.393885	0.079096
C507	C	-0.245309	0.369886	0.053143
H508	H	-0.301473	0.363457	0.082569
H509	H	-0.284457	0.404204	0.058857
H510	H	-0.246148	0.431783	0.115108
H511	H	-0.270156	0.331973	0.017131
H512	H	-0.231867	0.359605	0.073417
H513	H	-0.359130	0.248650	0.044300
H514	H	-0.365524	0.203078	0.083773
O515	O	0.229762	0.456522	0.090896
C516	C	0.300294	0.521974	0.156701
C517	C	0.274310	0.470318	0.106960
H518	H	0.336320	0.533150	0.169700
H519	H	0.280085	0.515152	0.180470
H520	H	0.303723	0.555886	0.156743
H521	H	0.270875	0.436382	0.106873
H522	H	0.294530	0.477185	0.083211
O523	O	0.272850	0.407562	0.544452
C524	C	0.322555	0.393899	0.500553
C525	C	0.272842	0.369902	0.502519
H526	H	0.322564	0.363467	0.466648
H527	H	0.346320	0.404223	0.531108
H528	H	0.335582	0.431793	0.502436
H529	H	0.259773	0.331994	0.500622
H530	H	0.249108	0.359616	0.471967
H531	H	0.101252	0.669927	0.304529
O532	O	0.163748	0.534546	0.563202
C533	C	0.242628	0.575585	0.604121
C534	C	0.191982	0.549884	0.603378
H535	H	0.265468	0.587983	0.636595
H536	H	0.255162	0.612411	0.604324
H537	H	0.244741	0.545350	0.571972
H538	H	0.189830	0.580079	0.635521
H539	H	0.179470	0.513049	0.603151
O540	O	0.028473	0.534524	0.157119
C541	C	-0.009378	0.575545	0.157245
C542	C	0.015564	0.549851	0.132281
H543	H	-0.019830	0.587934	0.137168
H544	H	0.014926	0.612376	0.193867
H545	H	-0.041725	0.545309	0.159164
H546	H	0.047911	0.580047	0.130327
H547	H	-0.008771	0.513011	0.095673
O548	O	0.094151	0.666599	0.551483
C549	C	0.028200	0.671026	0.551112
C550	C	0.077915	0.694914	0.549148
H551	H	0.015055	0.693902	0.549215
H552	H	0.028201	0.674437	0.584998
H553	H	0.004527	0.627024	0.520539
H554	H	0.101617	0.738923	0.579698
H555	H	0.077877	0.691462	0.515243
O556	O	0.028364	-0.006677	0.157234
C557	C	0.033485	-0.002427	0.227533
C558	C	0.058435	0.023228	0.202546
H559	H	0.057784	0.021746	0.264175
H560	H	0.023065	-0.045332	0.207526
H561	H	0.001120	-0.002670	0.229402
H562	H	0.090817	0.023509	0.200670
H563	H	0.068821	0.066118	0.222562
O564	O	0.136796	0.752067	0.544599
C565	C	0.135949	0.830271	0.580496
C566	C	0.161887	0.806484	0.582412
H567	H	0.156229	0.874273	0.611058
H568	H	0.099935	0.807317	0.582384
H569	H	0.132496	0.826838	0.546602
H570	H	0.165375	0.809912	0.616300
H571	H	0.197885	0.829442	0.580498
O572	O	0.028227	-0.006810	0.021863
C573	C	-0.042075	-0.077993	-0.044182
C574	C	-0.017081	-0.052293	0.006460
H575	H	-0.078714	-0.114764	-0.056648
H576	H	-0.022079	-0.090479	-0.067084
H577	H	-0.043941	-0.047734	-0.046295
H578	H	-0.015208	-0.082524	0.008617
H579	H	-0.037086	-0.039796	0.029338
O580	O	0.163606	0.128556	0.157099
C581	C	0.229660	0.193722	0.151971
C582	C	0.179014	0.143797	0.127027
H583	H	0.242129	0.206066	0.127673
H584	H	0.252541	0.184114	0.162371
H585	H	0.231792	0.227972	0.184354
H586	H	0.176837	0.109525	0.094629
H587	H	0.156156	0.153449	0.116662
O588	O	0.230017	0.206623	0.091495
C589	C	0.300414	0.277396	0.157469
C590	C	0.274582	0.253522	0.107745
H591	H	0.336446	0.315324	0.170625
H592	H	0.303813	0.246919	0.157469
H593	H	0.280090	0.287636	0.181137
H594	H	0.294884	0.243283	0.084048
H595	H	0.271179	0.284013	0.107782
H596	H	0.265725	0.249006	0.045205
H597	H	-0.118881	0.449777	0.084384
