data_functionalizedCrystal
_audit_creation_method	'MofGen! by Chris Wilmer'
_symmetry_space_group_name_H-M	'P1'
_symmetry_Int_Tables_number	1
_symmetry_cell_setting	triclinic
loop_
_symmetry_equiv_pos_as_xyz
  x,y,z
_cell_length_a	18.101395
_cell_length_b	17.639504
_cell_length_c	17.640968
_cell_angle_alpha	109.667320
_cell_angle_beta	78.770922
_cell_angle_gamma	78.786307
loop_
_atom_site_label
_atom_site_type_symbol
_atom_site_fract_x
_atom_site_fract_y
_atom_site_fract_z
Zn1	Zn	0.097905	-1.354407	-0.721266
Zn2	Zn	-0.057351	-1.326410	-0.583413
Zn3	Zn	0.035148	-1.188684	-0.555531
Zn4	Zn	-0.057275	-1.216499	-0.693295
O5	O	0.004607	-1.271500	-0.638376
O6	O	0.103542	-1.466046	-0.726354
O7	O	-0.071377	-1.284783	-0.464368
O8	O	0.147127	-1.210744	-0.577553
O9	O	-0.010524	-1.445477	-0.625074
O10	O	0.193234	-1.332499	-0.699318
O11	O	-0.003419	-1.183597	-0.443883
O12	O	-0.003344	-1.077021	-0.550431
O13	O	-0.010393	-1.258150	-0.812351
O14	O	-0.071247	-1.097456	-0.651645
O15	O	0.103616	-1.359470	-0.832902
O16	O	-0.160995	-1.311754	-0.597952
O17	O	-0.160939	-1.231003	-0.678681
C18	C	-0.044098	-1.057329	-0.594978
C19	C	-0.064947	-0.965709	-0.576431
C20	C	0.163110	-0.717977	-0.779462
C21	C	0.143496	-0.631883	-0.762018
C22	C	0.024842	-0.610455	-0.656403
C23	C	0.044443	-0.696550	-0.673841
C24	C	0.113579	-0.750304	-0.735371
C25	C	-0.005088	-0.728877	-0.629750
C26	C	0.014515	-0.814963	-0.647184
C27	C	0.083648	-0.868722	-0.708709
C28	C	0.133181	-0.836390	-0.752804
C29	C	-0.074220	-0.675121	-0.568217
C30	C	-0.123751	-0.707448	-0.524126
C31	C	-0.104152	-0.793537	-0.541564
C32	C	-0.035018	-0.847296	-0.603088
C33	C	-0.153685	-0.825869	-0.497468
C34	C	-0.134082	-0.911955	-0.514902
C35	C	-0.015416	-0.933382	-0.620522
C36	C	-0.187834	-1.271385	-0.638330
C37	C	-0.270138	-1.271417	-0.638352
C38	C	-0.569178	-1.271606	-0.638433
C39	C	-0.537778	-1.220980	-0.689414
C40	C	-0.452275	-1.220637	-0.689153
C41	C	-0.420821	-1.271512	-0.638394
C42	C	-0.477100	-1.230422	-0.546763
C43	C	-0.562751	-1.230090	-0.547063
C44	C	-0.512621	-1.363308	-0.678347
C45	C	-0.426653	-1.363180	-0.680148
C46	C	-0.336976	-1.271460	-0.638367
C47	C	-0.653024	-1.271656	-0.638455
C48	C	0.197809	-1.271642	-0.638445
C49	C	0.280140	-1.271702	-0.638475
C50	C	0.053620	-1.315036	-0.853371
C51	C	0.074507	-1.333588	-0.944989
C52	C	0.053511	-0.486507	-0.681942
C53	C	0.074377	-0.578129	-0.700499
C54	C	-0.153592	-1.130876	-1.192817
C55	C	-0.133953	-1.148327	-1.278910
C56	C	-0.015245	-1.253822	-1.300297
C57	C	-0.034872	-1.236378	-1.214204
C58	C	-0.104048	-1.174905	-1.160471
C59	C	0.014673	-1.280406	-1.181857
C60	C	-0.004956	-1.262967	-1.095772
C61	C	-0.074129	-1.201498	-1.042034
C62	C	-0.123676	-1.157465	-1.074386
C63	C	0.083845	-1.341883	-1.235592
C64	C	0.133390	-1.385912	-1.203245
C65	C	0.113764	-1.368468	-1.117158
C66	C	0.044591	-1.307000	-1.063420
C67	C	0.163311	-1.412501	-1.084807
C68	C	0.143683	-1.395061	-0.998722
C69	C	0.024962	-1.289560	-0.977335
C70	C	-0.044152	-1.228181	-0.424228
C71	C	-0.064794	-1.209789	-0.332643
H72	H	0.183838	-0.605566	-0.797922
Br73	Br	-0.068979	-0.537496	-0.572898
Br74	Br	0.257180	-1.495937	-1.157741
H75	H	-0.090166	-0.605021	-0.554006
Br76	Br	-0.217571	-0.634489	-0.440620
Br77	Br	-0.247499	-0.752906	-0.413955
H78	H	-0.577291	-1.153794	-0.661849
H79	H	-0.174304	-1.112469	-1.305242
Br80	Br	0.110260	-0.985554	-0.732362
Br81	Br	-0.546083	-1.426542	-0.616832
H82	H	-0.449909	-1.153021	-0.661323
Br83	Br	-0.599174	-1.287285	-0.480006
Br84	Br	-0.201307	-0.955834	-0.455070
H85	H	-0.515115	-1.397345	-0.744954
Br86	Br	0.227003	-0.909352	-0.836319
H87	H	-0.457661	-1.265362	-0.506972
H88	H	-0.413198	-1.248381	-0.756545
Br89	Br	0.256931	-0.790939	-0.862976
Br90	Br	-0.627480	-1.117493	-0.494126
Br91	Br	-0.247468	-1.047438	-1.119884
Br92	Br	-0.541982	-1.267043	-0.802040
H93	H	-0.474429	-1.163473	-0.514802
Br94	Br	-0.361731	-1.414299	-0.792691
Br95	Br	-0.388419	-1.431734	-0.625122
H96	H	-0.179992	-1.107388	-1.030629
H97	H	-0.031354	-1.239482	-0.933578
H98	H	0.099823	-1.356083	-1.305688
H99	H	0.040879	-0.977153	-0.670628
Br100	Br	-0.100776	-1.177833	-0.925204
H101	H	0.041077	-1.303876	-1.344058
H102	H	0.189711	-1.435965	-1.247007
H103	H	0.184028	-1.430912	-0.972385
