data_functionalizedCrystal
_audit_creation_method	'MofGen! by Chris Wilmer'
_symmetry_space_group_name_H-M	'P1'
_symmetry_Int_Tables_number	1
_symmetry_cell_setting	triclinic
loop_
_symmetry_equiv_pos_as_xyz
  x,y,z
_cell_length_a	14.044191
_cell_length_b	14.044220
_cell_length_c	13.101018
_cell_angle_alpha	86.333450
_cell_angle_beta	93.666878
_cell_angle_gamma	93.190327
loop_
_atom_site_label
_atom_site_type_symbol
_atom_site_fract_x
_atom_site_fract_y
_atom_site_fract_z
O1	O	1.281982	0.225382	0.085160
O2	O	1.781982	0.725382	0.585160
O3	O	1.005311	0.217069	0.085174
O4	O	1.505311	0.717069	0.585174
O5	O	1.139493	0.082890	0.085163
O6	O	1.639493	0.582890	0.585163
O7	O	1.147800	0.359561	0.085171
O8	O	1.647800	0.859561	0.585171
O9	O	1.129855	0.092526	-0.085267
O10	O	1.629855	0.592526	0.414733
O11	O	0.995672	0.226704	-0.085256
O12	O	1.495672	0.726704	0.414744
O13	O	1.272343	0.235018	-0.085269
O14	O	1.772343	0.735018	0.414731
Zn15	Zn	1.132477	0.232391	-0.112322
Zn16	Zn	1.632477	0.732391	0.387678
Zn17	Zn	1.145177	0.219696	0.112226
Zn18	Zn	1.645177	0.719696	0.612226
O19	O	1.138161	0.369197	-0.085258
O20	O	1.638161	0.869197	0.414742
C21	C	0.964869	0.218250	-0.000040
C22	C	1.464869	0.718250	0.499960
C23	C	0.858726	0.207402	-0.000035
C24	C	1.358726	0.707402	0.499965
C25	C	0.613268	0.264503	-0.000043
C26	C	1.113268	0.764503	0.499957
C27	C	0.664393	0.187587	-0.000044
C28	C	1.164393	0.687587	0.499956
C29	C	0.772530	0.198615	-0.000039
C30	C	1.272530	0.698615	0.499961
C31	C	0.505121	0.253477	-0.000048
C32	C	1.005121	0.753477	0.499952
C33	C	1.131038	0.052086	-0.000051
C34	C	1.631038	0.552086	0.499949
C35	C	1.120194	-0.054057	-0.000047
C36	C	1.620194	0.445943	0.499953
C37	C	1.312785	0.233837	-0.000054
C38	C	1.812785	0.733837	0.499946
C39	C	1.418928	0.244684	-0.000052
C40	C	1.918928	0.744684	0.499948
N41	N	1.123817	0.241055	-0.265570
N42	N	1.623817	0.741055	0.234430
C43	C	1.146616	0.400001	-0.000042
C44	C	1.646616	0.900001	0.499958
C45	C	1.157461	0.506144	-0.000039
C46	C	1.657461	1.006144	0.499961
C47	C	1.177287	0.700482	-0.000045
C48	C	1.677287	1.200482	0.499955
C49	C	1.100372	0.751610	-0.000042
C50	C	1.600372	1.251610	0.499958
C51	C	1.111404	0.859747	-0.000045
C52	C	1.611404	1.359747	0.499955
C53	C	1.166257	0.592336	-0.000042
C54	C	1.666257	1.092336	0.499958
C55	C	1.165621	0.199233	-0.525483
C56	C	1.665621	0.699233	-0.025483
C57	C	1.112043	0.252844	-0.474606
C58	C	1.612043	0.752844	0.025394
C59	C	1.118596	0.246283	-0.358288
C60	C	1.618596	0.746283	0.141712
C61	C	1.159069	0.205793	-0.641812
C62	C	1.659069	0.705793	-0.141812
N63	N	1.153844	0.211025	0.265475
N64	N	1.653844	0.711025	0.765475
H65	H	0.650709	0.338630	-0.000038
H66	H	1.150709	0.838630	0.499962
H67	H	1.026239	0.714169	-0.000039
H68	H	1.526239	1.214169	0.499961
O69	O	1.265680	0.745243	0.000079
O70	O	1.765680	1.245243	0.500079
C71	C	1.281636	0.797702	0.088353
C72	C	1.781636	1.297702	0.588353
H73	H	1.210115	0.814348	0.117793
H74	H	1.710115	1.314348	0.617793
H75	H	1.323967	0.867318	0.068490
H76	H	1.823967	1.367318	0.568490
H77	H	1.323729	0.753860	0.150157
H78	H	1.823729	1.253860	0.650157
H79	H	1.061252	0.303670	-0.518407
H80	H	1.561252	0.803670	-0.018407
H81	H	1.216410	0.148412	-0.481687
H82	H	1.716410	0.648412	0.018313
H83	H	0.626953	0.113451	0.000026
H84	H	1.126953	0.613451	0.500026
