data_functionalizedCrystal
_audit_creation_method	'MofGen! by Chris Wilmer'
_symmetry_space_group_name_H-M	'P1'
_symmetry_Int_Tables_number	1
_symmetry_cell_setting	triclinic
loop_
_symmetry_equiv_pos_as_xyz
  x,y,z
_cell_length_a	16.109317
_cell_length_b	13.596369
_cell_length_c	14.519709
_cell_angle_alpha	90.006934
_cell_angle_beta	96.425820
_cell_angle_gamma	89.999264
loop_
_atom_site_label
_atom_site_type_symbol
_atom_site_fract_x
_atom_site_fract_y
_atom_site_fract_z
O1	O	-1.103329	0.081689	0.118615
O2	O	-0.603329	0.581689	0.618615
O3	O	-0.861295	0.081714	0.133351
O4	O	-0.361295	0.581714	0.633351
O5	O	-0.988729	0.081692	-0.008269
O6	O	-0.488729	0.581692	0.491731
O7	O	-0.975895	0.081711	0.260235
O8	O	-0.475895	0.581711	0.760235
O9	O	-0.988717	-0.081891	-0.008276
O10	O	-0.488717	0.418109	0.491724
O11	O	-0.861282	-0.081869	0.133344
O12	O	-0.361282	0.418131	0.633344
O13	O	-1.103317	-0.081894	0.118607
O14	O	-0.603317	0.418106	0.618607
Zn15	Zn	-0.982297	-0.107854	0.125974
Zn16	Zn	-0.482297	0.392146	0.625974
Zn17	Zn	-0.982314	0.107674	0.125984
Zn18	Zn	-0.482314	0.607674	0.625984
O19	O	-0.975882	-0.081872	0.260227
O20	O	-0.475882	0.418128	0.760227
C21	C	-0.830313	-0.000074	0.132748
C22	C	-0.330313	0.499926	0.632748
C23	C	-0.738015	-0.000065	0.130950
C24	C	-0.238015	0.499935	0.630950
N25	N	-0.982292	-0.254946	0.125967
N26	N	-0.482292	0.245054	0.625967
C27	C	-0.438938	0.089092	0.125149
C28	C	0.061062	0.589092	0.625149
C29	C	-0.525662	0.089097	0.126831
C30	C	-0.025662	0.589097	0.626831
C31	C	-0.525667	-0.089250	0.126811
C32	C	-0.025667	0.410750	0.626811
C33	C	-0.438945	-0.089254	0.125121
C34	C	0.061055	0.410746	0.625121
C35	C	-0.395583	-0.000079	0.124295
C36	C	0.104417	0.499921	0.624295
C37	C	-0.569029	-0.000072	0.127667
C38	C	-0.069029	0.499928	0.627667
C39	C	-0.663059	-0.000068	0.129492
C40	C	-0.163059	0.499932	0.629492
C41	C	-0.301547	-0.000083	0.122468
C42	C	0.198453	0.499917	0.622468
C43	C	-0.982313	-0.656237	0.125985
C44	C	-0.482313	-0.156237	0.625985
C45	C	-0.982305	-0.544585	0.125983
C46	C	-0.482305	-0.044585	0.625983
C47	C	-0.982303	-0.455595	0.125977
C48	C	-0.482303	0.044405	0.625977
C49	C	-0.982294	-0.343936	0.125974
C50	C	-0.482294	0.156064	0.625974
C51	C	-0.134299	-0.000099	0.119212
C52	C	0.365701	0.499901	0.619212
C53	C	-0.226596	-0.000086	0.121012
C54	C	0.273404	0.499914	0.621012
C55	C	-0.988125	-0.000100	-0.042631
C56	C	-0.488125	0.499900	0.457369
C57	C	-0.986333	-0.000100	-0.145008
C58	C	-0.486333	0.499900	0.354992
N59	N	-0.982326	0.254765	0.125984
N60	N	-0.482326	0.754765	0.625984
C61	C	-0.979734	-0.000074	-0.519891
C62	C	-0.479734	0.499926	-0.019891
C63	C	-0.981566	-0.000082	-0.415586
C64	C	-0.481566	0.499918	0.084414
C65	C	-0.983033	-0.000088	-0.332453
C66	C	-0.483033	0.499912	0.167547
C67	C	-0.984866	-0.000094	-0.228142
C68	C	-0.484866	0.499906	0.271858
C69	C	-0.976487	-0.000078	0.294590
C70	C	-0.476487	0.499922	0.794590
C71	C	-0.978279	-0.000072	0.396967
C72	C	-0.478279	0.499928	0.896967
H73	H	-0.403635	0.161704	0.124475
H74	H	0.096365	0.661704	0.624475
H75	H	-0.560959	0.161709	0.127525
H76	H	-0.060959	0.661709	0.627525
H77	H	-0.560984	-0.161853	0.127485
H78	H	-0.060984	0.338147	0.627485
H79	H	-0.403644	-0.161872	0.124425
H80	H	0.096356	0.338128	0.624425
