data_functionalizedCrystal
_audit_creation_method	'MofGen! by Chris Wilmer'
_symmetry_space_group_name_H-M	'P1'
_symmetry_Int_Tables_number	1
_symmetry_cell_setting	triclinic
loop_
_symmetry_equiv_pos_as_xyz
  x,y,z
_cell_length_a	18.101398
_cell_length_b	18.101397
_cell_length_c	12.759393
_cell_angle_alpha	90.036577
_cell_angle_beta	90.028544
_cell_angle_gamma	90.018196
loop_
_atom_site_label
_atom_site_type_symbol
_atom_site_fract_x
_atom_site_fract_y
_atom_site_fract_z
Zn1	Zn	1.132203	-0.294839	0.594189
Zn2	Zn	1.132114	-0.418698	0.418490
Zn3	Zn	1.008354	-0.294870	0.418501
Zn4	Zn	1.008336	-0.418638	0.594104
O5	O	1.070252	-0.356761	0.506321
O6	O	1.235824	-0.311281	0.570913
O7	O	1.115667	-0.402310	0.271471
O8	O	1.024828	-0.191233	0.441846
O9	O	1.235759	-0.402280	0.441828
O10	O	1.115819	-0.191210	0.570923
O11	O	1.024741	-0.311334	0.271478
O12	O	0.904719	-0.311276	0.441764
O13	O	1.024797	-0.402177	0.741137
O14	O	0.904705	-0.402208	0.570779
O15	O	1.115802	-0.311223	0.741199
O16	O	1.115650	-0.522323	0.441746
O17	O	1.024710	-0.522279	0.570769
C18	C	0.877841	-0.356739	0.506264
C19	C	0.795527	-0.356748	0.506264
C20	C	0.644819	-0.356763	0.506312
C21	C	0.613449	-0.299469	0.425274
C22	C	0.527830	-0.299253	0.425540
C23	C	0.496436	-0.356778	0.506356
C24	C	0.527577	-0.335937	0.617206
C25	C	0.613222	-0.335513	0.616711
C26	C	0.613228	-0.435045	0.477477
C27	C	0.527577	-0.434633	0.475062
C28	C	0.412577	-0.356787	0.506388
C29	C	0.728678	-0.356751	0.506287
C30	C	1.070188	-0.549172	0.506270
C31	C	1.070229	-0.631486	0.506283
C32	C	1.070324	-0.930577	0.506379
C33	C	1.127380	-0.899248	0.424984
C34	C	1.127578	-0.813630	0.425195
C35	C	1.070277	-0.782194	0.506331
C36	C	1.091438	-0.813194	0.617076
C37	C	1.091879	-0.898839	0.616633
C38	C	0.991953	-0.899084	0.477987
C39	C	0.992340	-0.813435	0.475515
C40	C	1.070249	-0.698335	0.506310
C41	C	1.070353	-1.014436	0.506407
C42	C	1.263414	-0.356783	0.506379
C43	C	1.345728	-0.356793	0.506404
C44	C	1.070307	-0.356690	0.780355
C45	C	1.070331	-0.356660	0.897131
C46	C	1.070336	-0.163599	0.506395
C47	C	1.070371	-0.081285	0.506427
C48	C	1.070239	-0.356778	0.233354
C49	C	1.070359	-0.356600	0.116578
C50	C	1.117720	-0.309292	0.952027
C51	C	1.117733	-0.309260	1.061751
C52	C	1.022964	-0.403970	1.061674
C53	C	1.022948	-0.403997	0.951952
C54	C	1.144254	-0.221887	1.211748
C55	C	1.191655	-0.174525	1.266647
C56	C	1.263916	-0.163174	1.231071
C57	C	1.288790	-0.199195	1.140597
C58	C	1.241393	-0.246561	1.085703
C59	C	1.169122	-0.257899	1.121278
C60	C	0.996435	-0.491372	0.801954
C61	C	0.949041	-0.538743	0.747057
C62	C	0.876779	-0.550102	0.782631
C63	C	0.851907	-0.514094	0.873109
C64	C	0.899301	-0.466723	0.928005
C65	C	0.971563	-0.455363	0.892423
H66	H	0.633217	-0.278300	0.641083
C67	C	0.500074	-0.455879	0.364855
C68	C	0.523062	-0.530195	0.315970
C69	C	0.495554	-0.551439	0.205764
C70	C	0.445058	-0.498367	0.144443
C71	C	0.422066	-0.424046	0.193328
C72	C	0.449574	-0.402802	0.303534
H73	H	0.560446	-0.569486	0.361364
H74	H	0.512575	-0.606456	0.169576
H75	H	0.424695	-0.514093	0.062862
H76	H	0.384683	-0.384755	0.147934
H77	H	0.432554	-0.347785	0.339722
H78	H	0.506200	-0.479584	0.529742
C79	C	0.824643	-0.602211	0.722245
C80	C	0.851995	-0.641828	0.622729
C81	C	0.799858	-0.693932	0.562346
C82	C	0.720369	-0.706420	0.601479
C83	C	0.693013	-0.666802	0.701001
C84	C	0.745150	-0.614698	0.761384
H85	H	0.910841	-0.632584	0.593755
H86	H	0.820109	-0.723259	0.488673
H87	H	0.681774	-0.744991	0.556781
H88	H	0.634167	-0.676046	0.729975
H89	H	0.724899	-0.585370	0.835057
H90	H	1.149164	-0.918758	0.640682
C91	C	1.075926	-0.478871	0.762814
C92	C	1.103286	-0.518484	0.663299
C93	C	1.182775	-0.505985	0.624158
C94	C	1.234904	-0.453874	0.684532
C95	C	1.207545	-0.414258	0.784053
C96	C	1.128056	-0.426757	0.823194
H97	H	1.064696	-0.557063	0.618602
H98	H	1.203028	-0.535312	0.550486
H99	H	1.293747	-0.444621	0.655558
H100	H	1.246135	-0.375679	0.828751
H101	H	1.107803	-0.397430	0.896867
C102	C	1.109697	-0.785313	0.314263
C103	C	1.095136	-0.840631	0.224863
C104	C	1.077259	-0.812319	0.113925
C105	C	1.073943	-0.728688	0.092386
C106	C	1.088504	-0.673365	0.181788
C107	C	1.106381	-0.701677	0.292727
H108	H	1.097591	-0.902544	0.240805
H109	H	1.066480	-0.853273	0.047744
H110	H	1.060709	-0.707730	0.010263
H111	H	1.086049	-0.611452	0.165847
H112	H	1.117160	-0.660722	0.358908
H113	H	0.507358	-0.241251	0.444684
H114	H	0.976384	-0.793182	0.394016
H115	H	0.633513	-0.477728	0.536501
C116	C	1.038188	-0.926832	0.701371
C117	C	1.066937	-0.975477	0.791560
C118	C	1.013254	-1.003464	0.876307
C119	C	0.930822	-0.982807	0.870864
C120	C	0.902069	-0.934160	0.780671
C121	C	0.955752	-0.906173	0.695925
H122	H	1.127962	-0.990771	0.795592
H123	H	1.034539	-1.039476	0.943074
H124	H	0.891083	-1.003525	0.933599
H125	H	0.841044	-0.918866	0.776639
H126	H	0.934466	-0.870161	0.629158
C127	C	0.934518	-0.926458	0.558063
C128	C	0.958562	-0.977132	0.648770
C129	C	0.901133	-1.004511	0.728848
C130	C	0.819661	-0.981216	0.718220
C131	C	0.795613	-0.930540	0.627509
C132	C	0.853041	-0.903161	0.547431
H133	H	1.018876	-0.994378	0.656641
H134	H	0.918936	-1.042025	0.795998
H135	H	0.777149	-1.001484	0.777499
H136	H	0.735299	-0.913294	0.619638
H137	H	0.835239	-0.865647	0.480281
H138	H	1.156300	-0.270744	0.907396
C139	C	1.368284	-0.186714	1.101471
C140	C	1.420419	-0.134612	1.161850
C141	C	1.499914	-0.122129	1.122719
C142	C	1.527273	-0.161747	1.023209
C143	C	1.475136	-0.213853	0.962823
C144	C	1.395642	-0.226336	1.001954
H145	H	1.400167	-0.105281	1.235519
H146	H	1.538508	-0.083557	1.167421
H147	H	1.586119	-0.152507	0.994241
H148	H	1.495388	-0.243184	0.889154
H149	H	1.357048	-0.264908	0.957252
H150	H	0.633978	-0.375446	0.679182
C151	C	0.498635	-0.259500	0.650716
C152	C	0.452338	-0.251581	0.751316
C153	C	0.423397	-0.175142	0.784819
C154	C	0.440755	-0.106622	0.717723
C155	C	0.487054	-0.114538	0.617117
C156	C	0.515995	-0.190978	0.583614
H157	H	0.439487	-0.302306	0.800990
H158	H	0.389123	-0.169282	0.859295
H159	H	0.419331	-0.050037	0.742524
H160	H	0.499905	-0.063814	0.567442
H161	H	0.550269	-0.196838	0.509138
C162	C	0.641215	-0.316813	0.313886
C163	C	0.692715	-0.383212	0.295142
C164	C	0.720487	-0.400558	0.183751
C165	C	0.696759	-0.351505	0.091103
C166	C	0.645256	-0.285102	0.109844
C167	C	0.617484	-0.267756	0.221236
H168	H	0.710282	-0.419528	0.363728
H169	H	0.758613	-0.449714	0.169878
H170	H	0.717318	-0.364345	0.008645
H171	H	0.627689	-0.248786	0.041259
H172	H	0.579358	-0.218600	0.235109
H173	H	1.051151	-0.792828	0.679353
H174	H	0.507247	-0.376396	0.679257
C175	C	0.642533	-0.221546	0.450804
C176	C	0.694594	-0.209764	0.544833
C177	C	0.723678	-0.131842	0.570369
C178	C	0.700701	-0.065702	0.501876
C179	C	0.648637	-0.077482	0.407841
C180	C	0.619553	-0.155404	0.382305
H181	H	0.711606	-0.258726	0.595542
H182	H	0.762219	-0.123121	0.639981
H183	H	0.722230	-0.008019	0.520779
H184	H	0.631625	-0.028519	0.357133
H185	H	0.581012	-0.164124	0.312694
H186	H	1.114301	-0.919897	0.342622
C187	C	1.205381	-0.928240	0.450070
C188	C	1.217440	-0.980188	0.544061
C189	C	1.295440	-1.009180	0.569151
C190	C	1.361380	-0.986225	0.500252
C191	C	1.349322	-0.934274	0.406256
C192	C	1.271323	-0.905282	0.381165
H193	H	1.168626	-0.997184	0.595069
H194	H	1.304365	-1.047637	0.638734
H195	H	1.419119	-1.007686	0.518826
H196	H	1.398137	-0.917279	0.355247
H197	H	1.262397	-0.866825	0.311583
H198	H	0.972703	-0.920750	0.398632
H199	H	1.261646	-0.275892	1.012044
C200	C	1.316057	-0.111075	1.291459
C201	C	1.335451	-0.127293	1.406693
C202	C	1.387586	-0.075191	1.467084
C203	C	1.420326	-0.006870	1.412240
C204	C	1.400932	0.009351	1.296999
C205	C	1.348797	-0.042751	1.236609
H206	H	1.311214	-0.177871	1.447298
H207	H	1.401942	-0.087199	1.552393
H208	H	1.458919	0.031699	1.456945
H209	H	1.425168	0.059929	1.256395
H210	H	1.334441	-0.030742	1.151299
H211	H	1.148081	-0.791687	0.641531
H212	H	1.171396	-0.145197	1.340312
C213	C	1.205999	-0.785870	0.450588
C214	C	1.268638	-0.841632	0.470744
C215	C	1.347062	-0.813873	0.496145
C216	C	1.362846	-0.730352	0.501390
C217	C	1.300205	-0.674584	0.481234
C218	C	1.221781	-0.702343	0.455833
H219	H	1.256956	-0.903465	0.466861
H220	H	1.393433	-0.855157	0.511066
H221	H	1.420900	-0.709803	0.520194
H222	H	1.311887	-0.612752	0.485117
H223	H	1.175410	-0.661060	0.440912
H224	H	0.634789	-0.454075	0.397995
H225	H	1.085412	-0.231119	1.240717
C226	C	0.970851	-0.456045	1.121979
C227	C	0.970869	-0.456021	1.242669
C228	C	0.918756	-0.508100	1.302972
C229	C	0.866627	-0.560203	1.242584
C230	C	0.866607	-0.560229	1.121887
C231	C	0.918720	-0.508150	1.061585
H232	H	1.009460	-0.417450	1.287378
H233	H	0.918771	-0.508080	1.392320
H234	H	0.828050	-0.598755	1.287223
H235	H	0.828016	-0.598800	1.077179
H236	H	0.918705	-0.508170	0.972237
C237	C	0.772417	-0.526582	0.912250
C238	C	0.718821	-0.460847	0.921423
C239	C	0.639331	-0.473338	0.960564
C240	C	0.613436	-0.551564	0.990532
C241	C	0.667032	-0.617303	0.981359
C242	C	0.746523	-0.604812	0.942218
H243	H	0.737989	-0.402935	0.899238
H244	H	0.599655	-0.424673	0.967354
H245	H	0.554592	-0.560810	1.019506
H246	H	0.647864	-0.675215	1.003544
H247	H	0.786198	-0.653478	0.935429
H248	H	0.506772	-0.312256	0.343360
H249	H	0.947542	-0.792044	0.530457
H250	H	0.879045	-0.437404	1.001677
H251	H	0.969300	-0.568069	0.673393
