data_functionalizedCrystal
_audit_creation_method	'MofGen! by Chris Wilmer'
_symmetry_space_group_name_H-M	'P1'
_symmetry_Int_Tables_number	1
_symmetry_cell_setting	triclinic
loop_
_symmetry_equiv_pos_as_xyz
  x,y,z
_cell_length_a	21.395362
_cell_length_b	16.959454
_cell_length_c	21.395356
_cell_angle_alpha	89.979902
_cell_angle_beta	89.964230
_cell_angle_gamma	90.035955
loop_
_atom_site_label
_atom_site_type_symbol
_atom_site_fract_x
_atom_site_fract_y
_atom_site_fract_z
Zn1	Zn	0.957855	-0.314383	-0.354610
Zn2	Zn	1.291189	0.018951	-0.021276
Zn3	Zn	1.624522	0.352284	0.312057
Zn4	Zn	0.957792	-0.446560	-0.249842
Zn5	Zn	1.291125	-0.113226	0.083491
Zn6	Zn	1.624459	0.220107	0.416824
Zn7	Zn	0.853085	-0.314436	-0.249811
Zn8	Zn	1.186418	0.018897	0.083522
Zn9	Zn	1.519752	0.352231	0.416856
Zn10	Zn	0.853059	-0.446560	-0.354547
Zn11	Zn	1.186392	-0.113226	-0.021214
Zn12	Zn	1.519725	0.220107	0.312120
O13	O	0.905448	-0.380485	-0.302202
O14	O	1.238781	-0.047151	0.031131
O15	O	1.572114	0.286182	0.364464
O16	O	1.045525	-0.331894	-0.340751
O17	O	1.378858	0.001439	-0.007418
O18	O	1.712191	0.334773	0.325915
O19	O	0.943887	-0.429056	-0.162160
O20	O	1.277220	-0.095722	0.171173
O21	O	1.610554	0.237611	0.504507
O22	O	0.867021	-0.203818	-0.263726
O23	O	1.200354	0.129515	0.069608
O24	O	1.533687	0.462849	0.402941
O25	O	1.045478	-0.429004	-0.263779
O26	O	1.378812	-0.095671	0.069554
O27	O	1.712145	0.237663	0.402887
O28	O	0.943995	-0.203779	-0.340721
O29	O	1.277328	0.129555	-0.007388
O30	O	1.610661	0.462888	0.325946
O31	O	0.866959	-0.331985	-0.162137
O32	O	1.200293	0.001349	0.171196
O33	O	1.533626	0.334682	0.504530
O34	O	0.765404	-0.331985	-0.263665
O35	O	1.098737	0.001349	0.069668
O36	O	1.432070	0.334682	0.403002
O37	O	0.866976	-0.429004	-0.442233
O38	O	1.200309	-0.095671	-0.108900
O39	O	1.533642	0.237663	0.224433
O40	O	0.765384	-0.429055	-0.340614
O41	O	1.098718	-0.095722	-0.007281
O42	O	1.432051	0.237611	0.326053
O43	O	0.943969	-0.331894	-0.442279
O44	O	1.277302	0.001439	-0.108946
O45	O	1.610636	0.334773	0.224387
O46	O	0.943862	-0.557171	-0.263718
O47	O	1.277195	-0.223837	0.069615
O48	O	1.610528	0.109496	0.402948
O49	O	0.866914	-0.557171	-0.340645
O50	O	1.200248	-0.223837	-0.007311
O51	O	1.533581	0.109496	0.326022
C52	C	0.742660	-0.380526	-0.302130
C53	C	1.075993	-0.047193	0.031204
C54	C	1.409327	0.286140	0.364537
C55	C	0.673019	-0.380563	-0.302114
C56	C	1.006352	-0.047230	0.031220
C57	C	1.339686	0.286103	0.364553
C58	C	0.640312	-0.431175	-0.342121
C59	C	0.973645	-0.097842	-0.008788
C60	C	1.306979	0.235492	0.324546
C61	C	0.574877	-0.431156	-0.342149
C62	C	0.908210	-0.097822	-0.008816
C63	C	1.241543	0.235511	0.324518
C64	C	0.542151	-0.380533	-0.302158
C65	C	0.875484	-0.047199	0.031175
C66	C	1.208817	0.286134	0.364509
C67	C	0.574865	-0.329911	-0.262148
C68	C	0.908199	0.003422	0.071185
C69	C	1.241532	0.336755	0.404519
C70	C	0.640299	-0.329926	-0.262126
C71	C	0.973633	0.003407	0.071208
C72	C	1.306966	0.336740	0.404541
C73	C	0.438433	-0.374174	-0.245752
C74	C	0.771766	-0.040841	0.087581
C75	C	1.105100	0.292493	0.420914
C76	C	0.373000	-0.374164	-0.245774
C77	C	0.706333	-0.040831	0.087560
C78	C	1.039667	0.292502	0.420893
C79	C	0.340330	-0.380481	-0.302227
C80	C	0.673663	-0.047148	0.031106
C81	C	1.006997	0.286185	0.364439
C82	C	0.373101	-0.386824	-0.358661
C83	C	0.706434	-0.053491	-0.025328
C84	C	1.039767	0.279842	0.308005
C85	C	0.438535	-0.386840	-0.358639
C86	C	0.771868	-0.053506	-0.025306
C87	C	1.105202	0.279827	0.308028
C88	C	0.471198	-0.380510	-0.302178
C89	C	0.804532	-0.047177	0.031155
C90	C	1.137865	0.286156	0.364489
C91	C	0.236671	-0.431075	-0.342268
C92	C	0.570004	-0.097741	-0.008935
C93	C	0.903337	0.235592	0.324398
C94	C	0.171234	-0.431050	-0.342297
C95	C	0.504567	-0.097716	-0.008964
C96	C	0.837901	0.235617	0.324369
C97	C	0.171224	-0.329809	-0.262291
C98	C	0.504557	0.003524	0.071042
C99	C	0.837890	0.336857	0.404376
C100	C	0.236659	-0.329830	-0.262267
C101	C	0.569992	0.003503	0.071066
C102	C	0.903326	0.336836	0.404399
C103	C	0.269379	-0.380467	-0.302255
C104	C	0.602712	-0.047134	0.031078
C105	C	0.936045	0.286200	0.364411
C106	C	0.905395	-0.585851	-0.302192
C107	C	1.238729	-0.252517	0.031142
C108	C	1.572062	0.080816	0.364475
C109	C	0.905430	-0.673707	-0.302208
C110	C	1.238764	-0.340374	0.031125
C111	C	1.572097	-0.007041	0.364459
C112	C	0.865440	-1.045213	-0.342254
C113	C	1.198773	-0.711879	-0.008920
C114	C	1.532106	-0.378546	0.324413
C115	C	0.945631	-1.045153	-0.262215
C116	C	1.278964	-0.711820	0.071118
C117	C	1.612297	-0.378486	0.404452
C118	C	0.945609	-0.962607	-0.262209
C119	C	1.278942	-0.629274	0.071124
C120	C	1.612275	-0.295940	0.404457
C121	C	0.905501	-0.921360	-0.302226
C122	C	1.238834	-0.588027	0.031108
C123	C	1.572168	-0.254694	0.364441
C124	C	0.865415	-0.962659	-0.342248
C125	C	1.198748	-0.629326	-0.008914
C126	C	1.532082	-0.295993	0.324419
C127	C	0.985689	-0.921302	-0.222184
C128	C	1.319023	-0.587969	0.111150
C129	C	1.652356	-0.254635	0.444483
C130	C	0.985668	-0.838751	-0.222176
C131	C	1.319002	-0.505418	0.111158
C132	C	1.652335	-0.172084	0.444491
C133	C	0.945563	-0.797503	-0.262196
C134	C	1.278897	-0.464169	0.071138
C135	C	1.612230	-0.130836	0.404471
C136	C	0.905477	-0.838807	-0.302220
C137	C	1.238810	-0.505473	0.031114
C138	C	1.572143	-0.172140	0.364447
C139	C	0.865369	-0.797560	-0.342236
C140	C	1.198702	-0.464227	-0.008903
C141	C	1.532035	-0.130893	0.324431
C142	C	0.825285	-0.838863	-0.382264
C143	C	1.158618	-0.505529	-0.048931
C144	C	1.491951	-0.172196	0.284403
C145	C	0.825310	-0.921411	-0.382268
C146	C	1.158643	-0.588078	-0.048934
C147	C	1.491977	-0.254744	0.284399
C148	C	0.945538	-0.714954	-0.262192
C149	C	1.278871	-0.381621	0.071141
C150	C	1.612205	-0.048288	0.404475
C151	C	0.865344	-0.715006	-0.342230
C152	C	1.198678	-0.381673	-0.008897
C153	C	1.532011	-0.048340	0.324436
C154	C	1.068871	-0.380443	-0.302276
C155	C	1.402204	-0.047110	0.031058
C156	C	1.735538	0.286224	0.364391
C157	C	1.138512	-0.380425	-0.302307
C158	C	1.471846	-0.047092	0.031026
C159	C	1.805179	0.286241	0.364360
C160	C	0.905477	-0.380443	-0.465626
C161	C	1.238810	-0.047110	-0.132292
C162	C	1.572143	0.286224	0.201041
C163	C	0.905489	-0.380425	-0.535267
C164	C	1.238822	-0.047092	-0.201934
C165	C	1.572155	0.286241	0.131400
C166	C	0.905518	-0.174316	-0.302227
C167	C	1.238851	0.159017	0.031106
C168	C	1.572184	0.492350	0.364440
C169	C	0.905547	-0.086460	-0.302237
C170	C	1.238881	0.246874	0.031096
C171	C	1.572214	0.580207	0.364429
C172	C	0.945615	-0.430804	-1.037076
C173	C	1.278949	-0.097471	-0.703743
C174	C	1.612282	0.235862	-0.370409
C175	C	0.945604	-0.430829	-0.971641
C176	C	1.278937	-0.097496	-0.638307
C177	C	1.612271	0.235837	-0.304974
C178	C	0.905548	-0.380300	-0.938906
C179	C	1.238882	-0.046967	-0.605572
C180	C	1.572215	0.286367	-0.272239
C181	C	0.865490	-0.329756	-0.971611
C182	C	1.198823	0.003577	-0.638278
C183	C	1.532156	0.336911	-0.304945
C184	C	0.865498	-0.329738	-1.037046
C185	C	1.198831	0.003595	-0.703712
C186	C	1.532164	0.336929	-0.370379
C187	C	0.900612	-0.309116	-0.835243
C188	C	1.233946	0.024218	-0.501910
C189	C	1.567279	0.357551	-0.168577
C190	C	0.900609	-0.309132	-0.769810
C191	C	1.233942	0.024201	-0.436477
C192	C	1.567276	0.357534	-0.103144
C193	C	0.905520	-0.380356	-0.737085
C194	C	1.238854	-0.047023	-0.403751
C195	C	1.572187	0.286311	-0.070418
C196	C	0.910448	-0.451565	-0.769800
C197	C	1.243782	-0.118232	-0.436467
C198	C	1.577115	0.215101	-0.103134
C199	C	0.910456	-0.451547	-0.835234
C200	C	1.243790	-0.118214	-0.501901
C201	C	1.577123	0.215120	-0.168568
C202	C	0.905535	-0.380314	-0.867953
C203	C	1.238868	-0.046981	-0.534620
C204	C	1.572202	0.286352	-0.201287
C205	C	0.945561	-0.430928	-0.633434
C206	C	1.278895	-0.097595	-0.300101
C207	C	1.612228	0.235739	0.033233
C208	C	0.945546	-0.430954	-0.567997
C209	C	1.278879	-0.097621	-0.234664
C210	C	1.612212	0.235712	0.098669
C211	C	0.865434	-0.329874	-0.567970
C212	C	1.198768	0.003460	-0.234636
C213	C	1.532101	0.336793	0.098697
C214	C	0.865447	-0.329854	-0.633405
C215	C	1.198780	0.003479	-0.300072
C216	C	1.532113	0.336812	0.033262
C217	C	0.905514	-0.380380	-0.666133
C218	C	1.238847	-0.047047	-0.332800
C219	C	1.572180	0.286286	0.000533
C220	C	0.905455	-0.380469	-0.139415
C221	C	1.238789	-0.047136	0.193918
C222	C	1.572122	0.286198	0.527252
C223	C	0.905564	-0.380264	-0.069774
C224	C	1.238898	-0.046931	0.263559
C225	C	1.572231	0.286403	0.596893
H226	H	0.666929	-0.288710	-0.229547
H227	H	1.000262	0.044624	0.103787
H228	H	1.333596	0.377957	0.437120
Br229	Br	0.328772	-0.395396	-0.435283
Br230	Br	0.662105	-0.062062	-0.101950
Br231	Br	0.995438	0.271271	0.231384
Br232	Br	0.894293	-0.212408	-0.879650
Br233	Br	1.227627	0.120925	-0.546316
Br234	Br	1.560960	0.454258	-0.212983
Br235	Br	0.281050	-0.261139	-0.207968
Br236	Br	0.614384	0.072194	0.125365
Br237	Br	0.947717	0.405528	0.458698
Br238	Br	0.999985	-0.499383	-1.081490
Br239	Br	1.333318	-0.166049	-0.748157
Br240	Br	1.666652	0.167284	-0.414824
Br241	Br	0.530453	-0.261202	-0.207879
Br242	Br	0.863787	0.072132	0.125454
Br243	Br	1.197120	0.405465	0.458787
Br244	Br	0.999901	-0.499557	-0.523620
Br245	Br	1.333234	-0.166224	-0.190287
Br246	Br	1.666567	0.167109	0.143047
Br247	Br	0.999924	-0.658904	-0.207865
Br248	Br	1.333258	-0.325570	0.125469
Br249	Br	1.666591	0.007763	0.458802
Br250	Br	0.999961	-0.499427	-0.927255
Br251	Br	1.333294	-0.166094	-0.593921
Br252	Br	1.666628	0.167239	-0.260588
Br253	Br	0.810915	-0.659035	-0.396546
Br254	Br	1.144248	-0.325701	-0.063213
Br255	Br	1.477581	0.007632	0.270120
Br256	Br	0.126817	-0.261098	-0.208022
Br257	Br	0.460150	0.072235	0.125311
Br258	Br	0.793484	0.405569	0.458644
Br259	Br	0.770850	-0.782875	-0.436565
Br260	Br	1.104183	-0.449542	-0.103232
Br261	Br	1.437517	-0.116208	0.230102
Br262	Br	0.893929	-0.212492	-0.725417
Br263	Br	1.227262	0.120841	-0.392084
Br264	Br	1.560596	0.454174	-0.058751
Br265	Br	0.328532	-0.365557	-0.169186
Br266	Br	0.661865	-0.032224	0.164147
Br267	Br	0.995199	0.301109	0.497481
Br268	Br	0.482764	-0.365601	-0.169130
Br269	Br	0.816098	-0.032268	0.164204
Br270	Br	1.149431	0.301066	0.497537
H271	H	0.978184	-0.472071	-0.660083
H272	H	1.311518	-0.138738	-0.326750
H273	H	1.644851	0.194595	0.006584
H274	H	0.792675	-0.955047	-0.414855
H275	H	1.126008	-0.621714	-0.081522
H276	H	1.459342	-0.288380	0.251811
H277	H	0.832819	-0.288733	-0.541318
H278	H	1.166152	0.044600	-0.207984
H279	H	1.499486	0.377933	0.125349
H280	H	0.832806	-1.078845	-0.374845
H281	H	1.166139	-0.745512	-0.041512
H282	H	1.499472	-0.412178	0.291822
Br283	Br	1.000059	-1.101131	-0.207909
Br284	Br	1.333392	-0.767797	0.125424
Br285	Br	1.666726	-0.434464	0.458758
Br286	Br	0.684714	-0.499894	-0.396391
Br287	Br	1.018048	-0.166561	-0.063058
Br288	Br	1.351381	0.166773	0.270275
H289	H	0.914467	-0.509528	-0.861869
H290	H	1.247801	-0.176195	-0.528535
H291	H	1.581134	0.157139	-0.195202
H292	H	0.914449	-0.509562	-0.743157
H293	H	1.247782	-0.176229	-0.409823
H294	H	1.581116	0.157104	-0.076490
Br295	Br	1.040121	-0.977282	-0.167882
Br296	Br	1.373454	-0.643949	0.165451
Br297	Br	1.706787	-0.310615	0.498785
H298	H	1.018307	-0.805127	-0.189584
H299	H	1.351641	-0.471794	0.143750
H300	H	1.684974	-0.138461	0.477083
Br301	Br	0.811077	-0.261274	-0.677784
Br302	Br	1.144411	0.072059	-0.344451
Br303	Br	1.477744	0.405392	-0.011118
Br304	Br	0.811128	-0.261179	-0.927187
Br305	Br	1.144461	0.072154	-0.593854
Br306	Br	1.477795	0.405487	-0.260521
Br307	Br	0.811133	-0.261149	-1.081425
Br308	Br	1.144466	0.072185	-0.748091
Br309	Br	1.477800	0.405518	-0.414758
H310	H	0.263312	-0.472302	-0.374832
H311	H	0.596646	-0.138969	-0.041499
H312	H	0.929979	0.194365	0.291835
H313	H	0.465214	-0.392002	-0.404590
H314	H	0.798548	-0.058669	-0.071256
H315	H	1.131881	0.274664	0.262077
Br316	Br	0.530479	-0.499846	-0.396450
Br317	Br	0.863812	-0.166513	-0.063116
Br318	Br	1.197146	0.166820	0.270217
H319	H	0.144605	-0.472262	-0.374880
H320	H	0.477939	-0.138929	-0.041547
H321	H	0.811272	0.194404	0.291787
