data_functionalizedCrystal
_audit_creation_method	'MofGen! by Chris Wilmer'
_symmetry_space_group_name_H-M	'P1'
_symmetry_Int_Tables_number	1
_symmetry_cell_setting	triclinic
loop_
_symmetry_equiv_pos_as_xyz
  x,y,z
_cell_length_a	12.759394
_cell_length_b	13.032951
_cell_length_c	13.033109
_cell_angle_alpha	103.335629
_cell_angle_beta	97.153824
_cell_angle_gamma	97.182896
loop_
_atom_site_label
_atom_site_type_symbol
_atom_site_fract_x
_atom_site_fract_y
_atom_site_fract_z
Zn1	Zn	-0.738683	-1.700158	-0.806468
Zn2	Zn	-0.888815	-1.677498	-0.628853
Zn3	Zn	-0.687571	-1.499979	-0.606355
Zn4	Zn	-0.888714	-1.522512	-0.783892
O5	O	-0.800946	-1.600037	-0.706392
O6	O	-0.780031	-1.845790	-0.801770
O7	O	-0.840771	-1.635036	-0.477236
O8	O	-0.547341	-1.526586	-0.632933
O9	O	-0.890332	-1.829142	-0.671277
O10	O	-0.584892	-1.673657	-0.779955
O11	O	-0.692918	-1.504614	-0.460706
O12	O	-0.692820	-1.354330	-0.611042
O13	O	-0.890161	-1.564991	-0.935520
O14	O	-0.840600	-1.370885	-0.741478
O15	O	-0.779933	-1.695507	-0.952106
O16	O	-1.035812	-1.656885	-0.649386
O17	O	-1.035738	-1.543018	-0.763293
C18	C	-0.761154	-1.324068	-0.671369
C19	C	-0.744159	-1.206010	-0.656412
C20	C	-1.073900	-1.599970	-0.706358
C21	C	-1.190691	-1.600043	-0.706391
C22	C	-0.809790	-1.161583	-0.714184
C23	C	-0.792227	-1.039564	-0.698726
C24	C	-1.190743	-1.718728	-0.587895
C25	C	-1.245636	-1.778099	-0.528663
C26	C	-1.355371	-1.778165	-0.528699
C27	C	-1.410216	-1.718856	-0.587977
C28	C	-1.355323	-1.659484	-0.647210
C29	C	-1.245585	-1.659422	-0.647164
C30	C	-1.355272	-1.540807	-0.765711
C31	C	-1.245535	-1.540733	-0.765669
C32	C	-1.410117	-1.481497	-0.824989
C33	C	-1.355222	-1.422118	-0.884216
C34	C	-1.245480	-1.422053	-0.884176
C35	C	-1.190642	-1.481361	-0.824902
C36	C	-0.526933	-1.600136	-0.706453
C37	C	-0.410165	-1.600178	-0.706479
C38	C	-0.840737	-1.635290	-0.983429
C39	C	-0.857694	-1.650313	-1.101486
C40	C	-0.840881	-0.877083	-0.741544
C41	C	-0.857866	-0.995141	-0.756506
C42	C	-0.792099	-1.592480	-1.145941
C43	C	-0.809623	-1.608006	-1.267959
C44	C	-0.761242	-1.564982	-0.430440
C45	C	-0.744019	-1.550165	-0.312410
H46	H	-0.878977	-1.213881	-0.775092
C47	C	-0.601943	-0.998650	-0.642966
C48	C	-0.698817	-0.968970	-0.616500
H49	H	-0.544280	-0.955060	-0.592206
H50	H	-0.601489	-1.071376	-0.642555
H51	H	-0.594354	-0.989624	-0.712082
H52	H	-0.706410	-0.978003	-0.547387
H53	H	-0.699272	-0.896226	-0.616899
H54	H	-0.674965	-1.153713	-0.595512
C55	C	-1.033573	-1.783241	-0.523310
C56	C	-1.070120	-1.718650	-0.587846
H57	H	-0.959105	-1.783196	-0.523285
H58	H	-1.045959	-1.756208	-0.452451
H59	H	-1.070859	-1.854128	-0.550439
H60	H	-1.032839	-1.647760	-0.560712
H61	H	-1.057724	-1.745679	-0.658719
H62	H	-1.499570	-1.718925	-0.588012
C63	C	-0.641477	-1.459603	-1.139819
C64	C	-0.698775	-1.510113	-1.075385
H65	H	-0.583867	-1.408746	-1.096259
H66	H	-0.614130	-1.511360	-1.188959
H67	H	-0.687574	-1.424432	-1.177925
H68	H	-0.652679	-1.545290	-1.037284
H69	H	-0.726121	-1.458347	-1.026226
H70	H	-0.878761	-1.669015	-1.320229
H71	H	-0.674884	-1.489151	-1.260141
C72	C	-0.950600	-1.172939	-0.838136
C73	C	-0.951279	-1.065725	-0.838735
H74	H	-1.008272	-1.216512	-0.888897
H75	H	-0.884883	-1.193062	-0.856086
H76	H	-0.958203	-1.181955	-0.769020
H77	H	-0.943668	-1.056708	-0.907850
H78	H	-1.017012	-1.045596	-0.820792
H79	H	-1.200973	-1.826391	-0.480401
H80	H	-0.926827	-1.711318	-1.153759
C81	C	-1.344410	-1.895469	-0.411552
C82	C	-1.415715	-1.843424	-0.463589
H83	H	-1.381666	-1.935750	-0.371351
H84	H	-1.314062	-1.941935	-0.462992
H85	H	-1.289154	-1.844012	-0.365006
H86	H	-1.470968	-1.894881	-0.510141
H87	H	-1.446080	-1.796954	-0.412143
H88	H	-1.499470	-1.481560	-0.825020
C89	C	-1.256464	-1.304755	-1.001324
C90	C	-1.185147	-1.356792	-0.949291
H91	H	-1.219216	-1.264462	-1.041519
H92	H	-1.311711	-1.356208	-1.047864
H93	H	-1.286818	-1.258291	-0.949872
H94	H	-1.154798	-1.403263	-1.000743
H95	H	-1.129880	-1.305332	-0.902748
C96	C	-1.523418	-1.369532	-0.936897
C97	C	-1.415507	-1.356929	-0.949367
H98	H	-1.560634	-1.329280	-0.977114
H99	H	-1.553847	-1.442876	-0.961560
H100	H	-1.528954	-1.344969	-0.863559
H101	H	-1.409971	-1.381500	-1.022705
H102	H	-1.385069	-1.283570	-0.924710
H103	H	-1.101288	-1.481307	-0.824855
