data_functionalizedCrystal
_audit_creation_method	'MofGen! by Chris Wilmer'
_symmetry_space_group_name_H-M	'P1'
_symmetry_Int_Tables_number	1
_symmetry_cell_setting	triclinic
loop_
_symmetry_equiv_pos_as_xyz
  x,y,z
_cell_length_a	13.033293
_cell_length_b	16.625545
_cell_length_c	13.033255
_cell_angle_alpha	97.153062
_cell_angle_beta	74.801189
_cell_angle_gamma	97.195104
loop_
_atom_site_label
_atom_site_type_symbol
_atom_site_fract_x
_atom_site_fract_y
_atom_site_fract_z
Zn1	Zn	1.700224	-0.233626	-0.807154
Zn2	Zn	1.950224	0.016374	-0.557154
Zn3	Zn	2.200224	0.266374	-0.307154
Zn4	Zn	2.450224	0.516374	-0.057154
Zn5	Zn	1.677536	-0.353291	-0.629524
Zn6	Zn	1.927536	-0.103291	-0.379524
Zn7	Zn	2.177536	0.146709	-0.129524
Zn8	Zn	2.427536	0.396709	0.120476
Zn9	Zn	1.500032	-0.233642	-0.606960
Zn10	Zn	1.750032	0.016358	-0.356960
Zn11	Zn	2.000032	0.266358	-0.106960
Zn12	Zn	2.250032	0.516358	0.143040
Zn13	Zn	1.522526	-0.383595	-0.784494
Zn14	Zn	1.772526	-0.133595	-0.534494
Zn15	Zn	2.022526	0.116405	-0.284494
Zn16	Zn	2.272526	0.366405	-0.034494
O17	O	1.600080	-0.301038	-0.707033
O18	O	1.850080	-0.051038	-0.457033
O19	O	2.100080	0.198962	-0.207033
O20	O	2.350080	0.448962	0.042967
O21	O	1.845867	-0.236810	-0.802518
O22	O	2.095867	0.013190	-0.552518
O23	O	2.345867	0.263190	-0.302518
O24	O	2.595867	0.513190	-0.052518
O25	O	1.635080	-0.324743	-0.477894
O26	O	1.885080	-0.074743	-0.227894
O27	O	2.135080	0.175257	0.022106
O28	O	2.385080	0.425257	0.272106
O29	O	1.526670	-0.120803	-0.633557
O30	O	1.776670	0.129197	-0.383557
O31	O	2.026670	0.379197	-0.133557
O32	O	2.276670	0.629197	0.116443
O33	O	1.829198	-0.324728	-0.672014
O34	O	2.079198	-0.074728	-0.422014
O35	O	2.329198	0.175272	-0.172014
O36	O	2.579198	0.425272	0.077986
O37	O	1.673750	-0.120791	-0.780638
O38	O	1.923750	0.129209	-0.530638
O39	O	2.173750	0.379209	-0.280638
O40	O	2.423750	0.629209	-0.030638
O41	O	1.504670	-0.236838	-0.461316
O42	O	1.754670	0.013162	-0.211316
O43	O	2.004670	0.263162	0.038684
O44	O	2.254670	0.513162	0.288684
O45	O	1.354363	-0.266222	-0.611584
O46	O	1.604363	-0.016222	-0.361584
O47	O	1.854363	0.233778	-0.111584
O48	O	2.104363	0.483778	0.138416
O49	O	1.565007	-0.376377	-0.936137
O50	O	1.815007	-0.126377	-0.686137
O51	O	2.065007	0.123623	-0.436137
O52	O	2.315007	0.373623	-0.186137
O53	O	1.370889	-0.376393	-0.742017
O54	O	1.620889	-0.126393	-0.492017
O55	O	1.870889	0.123607	-0.242017
O56	O	2.120889	0.373607	0.007983
O57	O	1.695561	-0.266195	-0.952785
O58	O	1.945561	-0.016195	-0.702785
O59	O	2.195561	0.233805	-0.452785
O60	O	2.445561	0.483805	-0.202785
O61	O	1.656892	-0.470147	-0.650041
O62	O	1.906892	-0.220147	-0.400041
O63	O	2.156892	0.029853	-0.150041
O64	O	2.406892	0.279853	0.099959
O65	O	1.543007	-0.492412	-0.763896
O66	O	1.793007	-0.242412	-0.513896
O67	O	2.043007	0.007588	-0.263896
O68	O	2.293007	0.257588	-0.013896
C69	C	1.324082	-0.324598	-0.671893
C70	C	1.574082	-0.074598	-0.421893
C71	C	1.824082	0.175402	-0.171893
C72	C	2.074082	0.425402	0.078107
C73	C	1.206013	-0.334699	-0.656886
C74	C	1.456013	-0.084699	-0.406886
C75	C	1.706013	0.165301	-0.156886
C76	C	1.956013	0.415301	0.093114
C77	C	1.161634	-0.295787	-0.714865
C78	C	1.411634	-0.045787	-0.464865
C79	C	1.661634	0.204213	-0.214865
C80	C	1.911634	0.454213	0.035135
C81	C	1.039603	-0.306226	-0.699356
C82	C	1.289603	-0.056226	-0.449356
C83	C	1.539603	0.193774	-0.199356
C84	C	1.789603	0.443774	0.050644
C85	C	1.599960	-0.510536	-0.706985
C86	C	1.849960	-0.260536	-0.456985
C87	C	2.099960	-0.010536	-0.206985
C88	C	2.349960	0.239464	0.043015
C89	C	1.600010	-0.600155	-0.707012
C90	C	1.850010	-0.350155	-0.457012
C91	C	2.100010	-0.100155	-0.207012
C92	C	2.350010	0.149845	0.042988
C93	C	1.600054	-0.672936	-0.707038
C94	C	1.850054	-0.422936	-0.457038
C95	C	2.100054	-0.172936	-0.207038
C96	C	2.350054	0.077064	0.042962
C97	C	1.600119	-0.764241	-0.707070
C98	C	1.850119	-0.514241	-0.457070
C99	C	2.100119	-0.264241	-0.207070
C100	C	2.350119	-0.014241	0.042930
C101	C	1.600176	-0.837014	-0.707090
C102	C	1.850176	-0.587014	-0.457090
C103	C	2.100176	-0.337014	-0.207090
C104	C	2.350176	-0.087014	0.042910
C105	C	1.600240	-0.928325	-0.707120
C106	C	1.850240	-0.678325	-0.457120
C107	C	2.100240	-0.428325	-0.207120
C108	C	2.350240	-0.178325	0.042880
C109	C	1.877155	-0.277387	-0.742310
C110	C	2.127155	-0.027387	-0.492310
C111	C	2.377155	0.222613	-0.242310
C112	C	2.627155	0.472613	0.007690
C113	C	1.995227	-0.267308	-0.757344
C114	C	2.245227	-0.017308	-0.507344
C115	C	2.495227	0.232692	-0.257344
C116	C	2.745227	0.482692	-0.007344
C117	C	1.635324	-0.324665	-0.984079
C118	C	1.885324	-0.074665	-0.734079
C119	C	2.135324	0.175335	-0.484079
C120	C	2.385324	0.425335	-0.234079
C121	C	1.650343	-0.334733	-1.102139
C122	C	1.900343	-0.084733	-0.852139
C123	C	2.150343	0.165267	-0.602139
C124	C	2.400343	0.415267	-0.352139
C125	C	1.600232	-0.090722	-0.707108
C126	C	1.850232	0.159278	-0.457108
C127	C	2.100232	0.409278	-0.207108
C128	C	2.350232	0.659278	0.042892
C129	C	1.600296	-0.001098	-0.707140
C130	C	1.850296	0.248902	-0.457140
C131	C	2.100296	0.498902	-0.207140
C132	C	2.350296	0.748902	0.042860
C133	C	1.608044	-0.306131	-1.268599
C134	C	1.858044	-0.056131	-1.018599
C135	C	2.108044	0.193869	-0.768599
C136	C	2.358044	0.443869	-0.518599
C137	C	1.592512	-0.295724	-1.146576
C138	C	1.842512	-0.045724	-0.896576
C139	C	2.092512	0.204276	-0.646576
C140	C	2.342512	0.454276	-0.396576
C141	C	1.565033	-0.277440	-0.431073
C142	C	1.815033	-0.027440	-0.181073
C143	C	2.065033	0.222560	0.068927
C144	C	2.315033	0.472560	0.318927
C145	C	1.550220	-0.267128	-0.313039
C146	C	1.800220	-0.017128	-0.063039
C147	C	2.050220	0.232872	0.186961
C148	C	2.300220	0.482872	0.436961
H149	H	1.153664	-0.375739	-0.595762
H150	H	1.403664	-0.125739	-0.345762
H151	H	1.653664	0.124261	-0.095762
H152	H	1.903664	0.374261	0.154238
N153	N	1.469418	-0.212678	-1.243797
N154	N	1.719418	0.037322	-0.993797
N155	N	1.969418	0.287322	-0.743797
N156	N	2.219418	0.537322	-0.493797
H157	H	1.395942	-0.233307	-1.253383
H158	H	1.645942	0.016693	-1.003383
H159	H	1.895942	0.266693	-0.753383
H160	H	2.145942	0.516693	-0.503383
H161	H	1.469867	-0.212975	-1.166473
H162	H	1.719867	0.037025	-0.916473
H163	H	1.969867	0.287025	-0.666473
H164	H	2.219867	0.537025	-0.416473
N165	N	0.970269	-0.360588	-0.618382
N166	N	1.220269	-0.110588	-0.368382
N167	N	1.470269	0.139412	-0.118382
N168	N	1.720269	0.389412	0.131618
H169	H	0.929713	-0.405588	-0.655649
H170	H	1.179713	-0.155588	-0.405649
H171	H	1.429713	0.094412	-0.155649
H172	H	1.679713	0.344412	0.094351
H173	H	1.016716	-0.385064	-0.581839
H174	H	1.266716	-0.135064	-0.331839
H175	H	1.516716	0.114936	-0.081839
H176	H	1.766716	0.364936	0.168161
N177	N	1.064549	-0.212932	-0.838306
N178	N	1.314549	0.037068	-0.588306
N179	N	1.564549	0.287068	-0.338306
N180	N	1.814549	0.537068	-0.088306
H181	H	1.141898	-0.213179	-0.837910
H182	H	1.391898	0.036821	-0.587910
H183	H	1.641898	0.286821	-0.337910
H184	H	1.891898	0.536821	-0.087910
H185	H	1.054874	-0.233678	-0.911698
H186	H	1.304874	0.016322	-0.661698
H187	H	1.554874	0.266322	-0.411698
H188	H	1.804874	0.516322	-0.161698
N189	N	1.511708	-0.241278	-1.077318
N190	N	1.761708	0.008722	-0.827318
N191	N	2.011708	0.258722	-0.577318
N192	N	2.261708	0.508722	-0.327318
H193	H	1.530686	-0.183888	-1.098689
H194	H	1.780686	0.066112	-0.848689
H195	H	2.030686	0.316112	-0.598689
H196	H	2.280686	0.566112	-0.348689
H197	H	1.438261	-0.261973	-1.086925
H198	H	1.688261	-0.011973	-0.836925
H199	H	1.938261	0.238027	-0.586925
H200	H	2.188261	0.488027	-0.336925
N201	N	1.731150	-0.389182	-1.171382
N202	N	1.981150	-0.139182	-0.921382
N203	N	2.231150	0.110818	-0.671382
N204	N	2.481150	0.360818	-0.421382
H205	H	1.730792	-0.388902	-1.248736
H206	H	1.980792	-0.138902	-0.998736
H207	H	2.230792	0.111098	-0.748736
H208	H	2.480792	0.361098	-0.498736
H209	H	1.804583	-0.368519	-1.161708
H210	H	2.054583	-0.118519	-0.911708
H211	H	2.304583	0.131481	-0.661708
H212	H	2.554583	0.381481	-0.411708
N213	N	1.230964	-0.241436	-0.795849
N214	N	1.480964	0.008564	-0.545849
N215	N	1.730964	0.258564	-0.295849
N216	N	1.980964	0.508564	-0.045849
H217	H	1.308313	-0.241692	-0.795460
H218	H	1.558313	0.008308	-0.545460
H219	H	1.808313	0.258308	-0.295460
H220	H	2.058313	0.508308	-0.045460
H221	H	1.221274	-0.262203	-0.869230
H222	H	1.471274	-0.012203	-0.619230
H223	H	1.721274	0.237797	-0.369230
H224	H	1.971274	0.487797	-0.119230
N225	N	1.688840	-0.360582	-1.337847
N226	N	1.938840	-0.110582	-1.087847
N227	N	2.188840	0.139418	-0.837847
N228	N	2.438840	0.389418	-0.587847
H229	H	1.688478	-0.360302	-1.415200
H230	H	1.938478	-0.110302	-1.165200
H231	H	2.188478	0.139698	-0.915200
H232	H	2.438478	0.389698	-0.665200
H233	H	1.762276	-0.339924	-1.328178
H234	H	2.012276	-0.089924	-1.078178
H235	H	2.262276	0.160076	-0.828178
H236	H	2.512276	0.410076	-0.578178
