data_functionalizedCrystal
_audit_creation_method	'MofGen! by Chris Wilmer'
_symmetry_space_group_name_H-M	'P1'
_symmetry_Int_Tables_number	1
_symmetry_cell_setting	triclinic
loop_
_symmetry_equiv_pos_as_xyz
  x,y,z
_cell_length_a	12.759401
_cell_length_b	12.759393
_cell_length_c	12.759393
_cell_angle_alpha	89.971426
_cell_angle_beta	90.018496
_cell_angle_gamma	89.985012
loop_
_atom_site_label
_atom_site_type_symbol
_atom_site_fract_x
_atom_site_fract_y
_atom_site_fract_z
Zn1	Zn	1.606254	0.418200	0.594003
Zn2	Zn	1.606148	0.593919	0.418332
Zn3	Zn	1.430556	0.418255	0.418343
Zn4	Zn	1.430545	0.593838	0.593974
O5	O	1.518376	0.506053	0.506163
O6	O	1.753261	0.441520	0.570708
O7	O	1.582816	0.570674	0.271313
O8	O	1.453912	0.271227	0.441661
O9	O	1.753183	0.570620	0.441644
O10	O	1.582997	0.271186	0.570718
O11	O	1.453810	0.441614	0.271320
O12	O	1.283534	0.441536	0.441632
O13	O	1.453892	0.570482	0.740999
O14	O	1.283525	0.570536	0.570668
O15	O	1.582986	0.441442	0.741020
O16	O	1.582805	0.740929	0.441615
O17	O	1.453790	0.740870	0.570658
C18	C	1.245409	0.506034	0.506149
C19	C	1.128632	0.506051	0.506168
C20	C	1.073793	0.573329	0.573245
C21	C	0.964069	0.573342	0.573257
C22	C	0.964033	0.438796	0.439104
C23	C	1.073755	0.438779	0.439098
C24	C	1.073813	0.651011	0.650694
C25	C	0.964089	0.651024	0.650706
C26	C	1.518313	0.779021	0.506155
C27	C	1.518382	0.895797	0.506187
C28	C	1.652827	0.895806	0.371915
C29	C	1.720076	0.950671	0.304795
C30	C	1.720138	1.060392	0.304831
C31	C	1.652945	1.115251	0.371996
C32	C	1.585695	1.060386	0.439116
C33	C	1.585639	0.950662	0.439071
C34	C	1.451258	1.060378	0.573392
C35	C	1.451189	0.950656	0.573352
C36	C	1.384065	1.115237	0.640557
C37	C	1.316808	1.060372	0.707673
C38	C	1.316748	0.950644	0.707634
C39	C	1.383940	0.895791	0.640472
C40	C	1.792409	0.506073	0.506178
C41	C	1.909186	0.506082	0.506184
C42	C	1.518450	0.505947	0.780196
C43	C	1.518481	0.505902	0.896973
C44	C	1.518468	1.232020	0.506210
C45	C	1.518507	1.115243	0.506272
C46	C	1.518363	0.506083	0.233196
C47	C	1.518535	0.505832	0.116420
C48	C	1.585709	0.438704	0.951848
C49	C	1.585734	0.438666	1.061572
C50	C	1.451300	0.573033	1.061537
C51	C	1.451270	0.573065	0.951815
C52	C	1.663327	0.361132	0.951869
C53	C	1.663352	0.361094	1.061594
H54	H	0.934293	0.732374	0.628778
H55	H	1.652770	0.806465	0.371866
H56	H	1.107827	0.728263	0.621414
C57	C	1.634223	0.252592	0.912382
C58	C	1.616451	0.186166	0.997922
C59	C	1.589624	0.086180	0.961587
H60	H	1.689856	0.225437	0.871054
H61	H	1.572429	0.256982	0.871049
H62	H	1.678237	0.181773	1.039238
H63	H	1.560813	0.213287	1.039259
H64	H	1.527830	0.090569	0.920254
H65	H	1.645261	0.059035	0.920259
H66	H	1.577552	0.041100	1.019619
C67	C	1.243826	1.119742	0.780705
C68	C	1.184929	1.048214	0.839493
C69	C	1.117696	1.102872	0.906792
H70	H	1.198002	1.162628	0.740615
H71	H	1.284001	1.162444	0.826587
H72	H	1.144757	1.005531	0.793618
H73	H	1.230725	1.005327	0.879605
H74	H	1.157871	1.145573	0.952673
H75	H	1.071879	1.145755	0.866693
H76	H	1.077734	1.054349	0.946694
H77	H	1.396577	0.627712	1.106202
C78	C	0.904397	0.365944	0.366148
C79	C	0.841394	0.425364	0.298695
C80	C	0.786458	0.358291	0.231459
H81	H	0.861528	0.320197	0.406290
H82	H	0.952744	0.325895	0.326135
H83	H	0.793052	0.465395	0.338703
H84	H	0.884236	0.471109	0.258529
H85	H	0.834805	0.318242	0.191447
H86	H	0.743595	0.312546	0.271610
H87	H	0.743712	0.398597	0.185678
C88	C	1.792910	0.890920	0.231914
C89	C	1.778447	0.783087	0.246223
C90	C	1.845515	0.728017	0.179095
H91	H	1.863547	0.908705	0.247282
H92	H	1.777563	0.908915	0.161296
H93	H	1.793802	0.765099	0.316825
H94	H	1.707824	0.765271	0.230847
H95	H	1.830167	0.746012	0.108477
H96	H	1.916147	0.745810	0.194469
H97	H	1.835704	0.654847	0.188788
H98	H	0.930091	0.621980	0.728056
C99	C	1.378142	0.645836	0.892174
C100	C	1.310799	0.586344	0.829214
C101	C	1.243406	0.653343	0.774266
H102	H	1.418175	0.691653	0.849275
H103	H	1.338056	0.685813	0.940515
H104	H	1.350881	0.546384	0.780879
H105	H	1.270743	0.540529	0.872086
H106	H	1.203321	0.693320	0.822607
H107	H	1.283449	0.699157	0.731374
H108	H	1.197701	0.612987	0.731549
C109	C	1.793190	1.119777	0.231845
C110	C	1.852006	1.048257	0.173000
C111	C	1.919302	1.102924	0.105746
H112	H	1.839062	1.162515	0.271970
H113	H	1.753064	1.162627	0.185997
H114	H	1.892130	1.005426	0.218842
H115	H	1.806163	1.005518	0.132854
H116	H	1.879176	1.145774	0.059898
H117	H	1.965167	1.145660	0.145879
H118	H	1.959210	1.054407	0.065805
H119	H	1.740598	0.390300	0.917835
H120	H	1.261990	0.905978	0.762295
H121	H	1.103621	0.629311	0.732100
H122	H	1.653010	1.204592	0.372028
H123	H	1.384124	1.204578	0.640586
H124	H	1.383891	0.806450	0.640427
H125	H	1.118400	0.383988	0.384484
H126	H	1.634238	0.283785	1.095637
H127	H	1.744722	0.382886	1.091373
