data_functionalizedCrystal
_audit_creation_method	'MofGen! by Chris Wilmer'
_symmetry_space_group_name_H-M	'P1'
_symmetry_Int_Tables_number	1
_symmetry_cell_setting	triclinic
loop_
_symmetry_equiv_pos_as_xyz
  x,y,z
_cell_length_a	17.077404
_cell_length_b	16.120444
_cell_length_c	17.077396
_cell_angle_alpha	92.869489
_cell_angle_beta	89.978556
_cell_angle_gamma	92.924939
loop_
_atom_site_label
_atom_site_type_symbol
_atom_site_fract_x
_atom_site_fract_y
_atom_site_fract_z
Zn1	Zn	1.184187	-0.331947	-0.459719
Zn2	Zn	1.684187	0.168053	0.040281
Zn3	Zn	1.177429	-0.471371	-0.335105
Zn4	Zn	1.677429	0.028629	0.164895
Zn5	Zn	1.052917	-0.331972	-0.328464
Zn6	Zn	1.552917	0.168028	0.171536
Zn7	Zn	1.046224	-0.471317	-0.466321
Zn8	Zn	1.546224	0.028683	0.033679
O9	O	1.115189	-0.401652	-0.397402
O10	O	1.615189	0.098348	0.102598
O11	O	1.293136	-0.350455	-0.443205
O12	O	1.793136	0.149545	0.056795
O13	O	1.160885	-0.452913	-0.224378
O14	O	1.660885	0.047087	0.275622
O15	O	1.075960	-0.215302	-0.340333
O16	O	1.575960	0.284698	0.159667
O17	O	1.288171	-0.452889	-0.351651
O18	O	1.788171	0.047111	0.148349
O19	O	1.172403	-0.215284	-0.436766
O20	O	1.672403	0.284716	0.063234
O21	O	1.069407	-0.350496	-0.219499
O22	O	1.569407	0.149504	0.280501
O23	O	0.942183	-0.350444	-0.346735
O24	O	1.442183	0.149556	0.153265
O25	O	1.064552	-0.452797	-0.575291
O26	O	1.564552	0.047203	-0.075291
O27	O	0.937266	-0.452820	-0.448018
O28	O	1.437266	0.047180	0.051982
O29	O	1.165913	-0.350402	-0.570440
O30	O	1.665913	0.149598	-0.070440
O31	O	1.154395	-0.588030	-0.358053
O32	O	1.654395	-0.088030	0.141947
O33	O	1.057999	-0.587991	-0.454457
O34	O	1.557999	-0.087991	0.045543
C35	C	0.911242	-0.401629	-0.397373
C36	C	1.411242	0.098371	0.102627
C37	C	0.823992	-0.401640	-0.397379
C38	C	1.323992	0.098360	0.102621
C39	C	0.450754	-0.348433	-0.445189
C40	C	0.950754	0.151567	0.054811
C41	C	0.532734	-0.348427	-0.445180
C42	C	1.032734	0.151573	0.054820
C43	C	0.571142	-0.401670	-0.397423
C44	C	1.071142	0.098330	0.102577
C45	C	0.527564	-0.454927	-0.349677
C46	C	1.027564	0.045073	0.150323
C47	C	0.445584	-0.454937	-0.349691
C48	C	0.945584	0.045063	0.150309
C49	C	0.698435	-0.454902	-0.349651
C50	C	1.198435	0.045098	0.150349
C51	C	0.780420	-0.454892	-0.349636
C52	C	1.280420	0.045108	0.150364
C53	C	0.785585	-0.348392	-0.445140
C54	C	1.285585	0.151608	0.054860
C55	C	0.703606	-0.348402	-0.445153
C56	C	1.203606	0.151598	0.054847
C57	C	0.660033	-0.401659	-0.397407
C58	C	1.160033	0.098341	0.102593
C59	C	1.104759	-0.618261	-0.407709
C60	C	1.604759	-0.118261	0.092291
C61	C	1.100368	-0.710927	-0.412145
C62	C	1.600368	-0.210927	0.087855
C63	C	1.138156	-0.921869	-0.374561
C64	C	1.638156	-0.421869	0.125439
C65	C	1.092367	-0.880584	-0.420251
C66	C	1.592367	-0.380584	0.079749
C67	C	1.096820	-0.786178	-0.415739
C68	C	1.596820	-0.286178	0.084261
C69	C	1.133704	-1.016283	-0.379072
C70	C	1.633704	-0.516283	0.120928
C71	C	1.319932	-0.401675	-0.397433
C72	C	1.819932	0.098325	0.102567
C73	C	1.407182	-0.401685	-0.397445
C74	C	1.907182	0.098315	0.102555
C75	C	1.115240	-0.401591	-0.602144
C76	C	1.615240	0.098409	-0.102144
C77	C	1.115261	-0.401564	-0.689392
C78	C	1.615261	0.098436	-0.189392
C79	C	1.125682	-0.184197	-0.387072
C80	C	1.625682	0.315803	0.112928
C81	C	1.130153	-0.091531	-0.382670
C82	C	1.630153	0.408469	0.117330
C83	C	1.168041	-0.348243	-0.727858
C84	C	1.668041	0.151757	-0.227858
C85	C	1.168052	-0.348215	-0.809837
C86	C	1.668052	0.151785	-0.309837
C87	C	1.115286	-0.401514	-0.853349
C88	C	1.615286	0.098486	-0.353349
C89	C	1.062500	-0.454837	-0.814878
C90	C	1.562500	0.045163	-0.314878
C91	C	1.062486	-0.454860	-0.732900
C92	C	1.562486	0.045140	-0.232900
C93	C	1.062534	-0.454787	-0.985746
C94	C	1.562534	0.045213	-0.485746
C95	C	1.062548	-0.454766	-1.067730
C96	C	1.562548	0.045234	-0.567730
C97	C	1.168100	-0.348142	-1.062683
C98	C	1.668100	0.151858	-0.562683
C99	C	1.168086	-0.348165	-0.980705
C100	C	1.668086	0.151835	-0.480705
C101	C	1.115301	-0.401490	-0.942239
C102	C	1.615301	0.098510	-0.442239
C103	C	1.115187	-0.401653	-0.193454
C104	C	1.615187	0.098347	0.306546
C105	C	1.115329	-0.401444	-0.106195
C106	C	1.615329	0.098556	0.393805
H107	H	0.568207	-0.305067	-0.484060
H108	H	1.068207	0.194933	0.015940
H109	H	1.019580	-0.498164	-1.103155
H110	H	1.519580	0.001836	-0.603155
Cl111	Cl	0.402479	-0.281491	-0.505225
Cl112	Cl	0.902479	0.218509	-0.005225
Cl113	Cl	0.655323	-0.281464	-0.505188
Cl114	Cl	1.155323	0.218536	-0.005188
Cl115	Cl	1.234384	-0.281239	-0.673165
Cl116	Cl	1.734384	0.218761	-0.173165
H117	H	1.180699	-0.886318	-0.332059
H118	H	1.680699	-0.386318	0.167941
Cl119	Cl	1.234441	-0.281217	-0.858192
Cl120	Cl	1.734441	0.218783	-0.358192
Cl121	Cl	0.840361	-0.281436	-0.505159
Cl122	Cl	1.340361	0.218564	-0.005159
H123	H	1.211079	-0.304722	-1.094005
H124	H	1.711079	0.195278	-0.594005
Cl125	Cl	0.575847	-0.521865	-0.289643
Cl126	Cl	1.075847	-0.021865	0.210357
H127	H	0.662960	-0.498273	-0.310774
H128	H	1.162960	0.001727	0.189226
Cl129	Cl	0.996128	-0.521893	-0.684543
Cl130	Cl	1.496128	-0.021893	-0.184543
H131	H	0.811689	-0.498249	-0.310750
H132	H	1.311689	0.001751	0.189250
H133	H	0.410108	-0.498302	-0.310815
H134	H	0.910108	0.001698	0.189185
Cl135	Cl	1.026676	-0.935475	-0.485873
Cl136	Cl	1.526676	-0.435475	0.014127
H137	H	1.211058	-0.304770	-0.945279
H138	H	1.711058	0.195230	-0.445279
Cl139	Cl	0.996173	-0.521824	-0.937390
Cl140	Cl	1.496173	-0.021824	-0.437390
H141	H	1.019534	-0.498231	-0.850312
H142	H	1.519534	0.001769	-0.350312
