data_functionalizedCrystal
_audit_creation_method	'MofGen! by Chris Wilmer'
_symmetry_space_group_name_H-M	'P1'
_symmetry_Int_Tables_number	1
_symmetry_cell_setting	triclinic
loop_
_symmetry_equiv_pos_as_xyz
  x,y,z
_cell_length_a	19.188905
_cell_length_b	14.519731
_cell_length_c	13.596369
_cell_angle_alpha	89.993029
_cell_angle_beta	89.987547
_cell_angle_gamma	83.411704
loop_
_atom_site_label
_atom_site_type_symbol
_atom_site_fract_x
_atom_site_fract_y
_atom_site_fract_z
O1	O	0.926573	0.115026	-0.081956
O2	O	1.426573	0.615026	0.418044
O3	O	0.723315	0.130549	-0.081922
O4	O	1.223315	0.630549	0.418078
O5	O	0.830325	-0.011484	-0.081931
O6	O	1.330325	0.488516	0.418069
O7	O	0.819563	0.257059	-0.081947
O8	O	1.319563	0.757059	0.418053
O9	O	0.830315	-0.011491	0.081652
O10	O	1.330315	0.488509	0.581652
O11	O	0.723305	0.130542	0.081661
O12	O	1.223305	0.630542	0.581661
O13	O	0.926562	0.115018	0.081627
O14	O	1.426562	0.615018	0.581627
Zn15	Zn	0.824932	0.122779	0.107616
Zn16	Zn	1.324932	0.622779	0.607616
Zn17	Zn	0.824946	0.122789	-0.107911
Zn18	Zn	1.324946	0.622789	0.392089
O19	O	0.819552	0.257051	0.081636
O20	O	1.319552	0.757051	0.581636
C21	C	0.697297	0.130046	-0.000127
C22	C	1.197297	0.630046	0.499873
C23	C	0.619786	0.128549	-0.000114
C24	C	1.119786	0.628549	0.499886
C25	C	0.829816	-0.045844	-0.000139
C26	C	1.329816	0.454156	0.499861
C27	C	0.828305	-0.148214	-0.000138
C28	C	1.328305	0.351786	0.499862
C29	C	0.583397	0.127834	-0.089285
C30	C	1.083397	0.627834	0.410715
C31	C	0.510569	0.126416	-0.089297
C32	C	1.010569	0.626416	0.410703
C33	C	0.474133	0.125696	-0.000133
C34	C	0.974133	0.625696	0.499867
C35	C	0.510530	0.126416	0.089051
C36	C	1.010530	0.626416	0.589051
C37	C	0.583356	0.127843	0.089060
C38	C	1.083356	0.627843	0.589060
N39	N	0.364910	0.070972	0.066227
N40	N	0.864910	0.570972	0.566227
N41	N	0.295729	0.069615	0.066212
N42	N	0.795729	0.569615	0.566212
C43	C	0.254711	0.121400	-0.000156
C44	C	0.754711	0.621400	0.499844
N45	N	0.285490	0.174581	-0.066524
N46	N	0.785490	0.674581	0.433476
N47	N	0.354678	0.175934	-0.066511
N48	N	0.854678	0.675934	0.433489
C49	C	0.395165	0.124150	-0.000133
C50	C	0.895165	0.624150	0.499867
C51	C	0.139353	0.119149	-0.089347
C52	C	0.639353	0.619149	0.410653
C53	C	0.066522	0.117737	-0.089356
C54	C	0.566522	0.617737	0.410644
C55	C	0.066486	0.117728	0.088995
C56	C	0.566486	0.617728	0.588995
C57	C	0.139314	0.119149	0.089001
C58	C	0.639314	0.619149	0.589001
C59	C	0.175744	0.119855	-0.000173
C60	C	0.675744	0.619855	0.499827
C61	C	0.952581	0.115521	-0.000171
C62	C	1.452581	0.615521	0.499829
C63	C	1.030092	0.117018	-0.000190
C64	C	1.530092	0.617018	0.499810
C65	C	0.827077	-0.231351	-0.000140
C66	C	1.327077	0.268649	0.499860
C67	C	0.825542	-0.335650	-0.000148
C68	C	1.325542	0.164350	0.499852
C69	C	0.824325	-0.418781	-0.000154
C70	C	1.324325	0.081219	0.499846
C71	C	0.822791	-0.523087	-0.000159
C72	C	1.322791	-0.023087	0.499841
C73	C	0.820062	0.291411	-0.000158
C74	C	1.320062	0.791411	0.499842
C75	C	0.821573	0.393782	-0.000165
C76	C	1.321573	0.893782	0.499835
N77	N	0.824927	0.122771	0.254708
N78	N	1.324927	0.622771	0.754708
N79	N	0.824956	0.122788	-0.255003
N80	N	1.324956	0.622788	0.244997
C81	C	0.824945	0.122790	0.655999
C82	C	1.324945	0.622790	1.155999
C83	C	0.824938	0.122788	0.544348
C84	C	1.324938	0.622788	1.044348
C85	C	0.824936	0.122781	0.455357
C86	C	1.324936	0.622781	0.955357
C87	C	0.824929	0.122778	0.343699
C88	C	1.324929	0.622778	0.843699
H89	H	0.613054	0.128409	-0.161898
H90	H	1.113054	0.628409	0.338102
C91	C	0.026417	0.116937	0.187080
C92	C	0.526417	0.616937	0.687080
C93	C	-0.031488	0.196019	0.211596
C94	C	0.468512	0.696019	0.711596
C95	C	-0.071560	0.195233	0.309686
C96	C	0.428440	0.695233	0.809686
C97	C	-0.053727	0.115364	0.383259
C98	C	0.446273	0.615364	0.883259
C99	C	0.004182	0.036276	0.358744
C100	C	0.504182	0.536276	0.858744
C101	C	0.044254	0.037063	0.260655
C102	C	0.544254	0.537063	0.760655
H103	H	-0.044692	0.255148	0.157132
H104	H	0.455308	0.755148	0.657132
H105	H	-0.114428	0.253779	0.327832
H106	H	0.385572	0.753779	0.827832
H107	H	-0.083390	0.114782	0.455870
H108	H	0.416610	0.614782	0.955870
H109	H	0.017386	-0.022852	0.413209
H110	H	0.517386	0.477148	0.913209
H111	H	0.087122	-0.021484	0.242508
H112	H	0.587122	0.478516	0.742508
H113	H	0.612983	0.128426	0.161677
H114	H	1.112983	0.628426	0.661677
H115	H	0.169014	0.119734	-0.161958
H116	H	0.669014	0.619734	0.338042
H117	H	0.480859	0.125832	0.161649
H118	H	0.980859	0.625832	0.661649
H119	H	0.036895	0.117161	-0.161973
H120	H	0.536895	0.617161	0.338027
H121	H	0.168943	0.119725	0.161614
H122	H	0.668943	0.619725	0.661614
H123	H	0.480935	0.125835	-0.161914
H124	H	0.980935	0.625835	0.338086
