data_functionalizedCrystal
_audit_creation_method	'MofGen! by Chris Wilmer'
_symmetry_space_group_name_H-M	'P1'
_symmetry_Int_Tables_number	1
_symmetry_cell_setting	triclinic
loop_
_symmetry_equiv_pos_as_xyz
  x,y,z
_cell_length_a	16.109301
_cell_length_b	18.266242
_cell_length_c	16.109301
_cell_angle_alpha	90.006549
_cell_angle_beta	83.461481
_cell_angle_gamma	90.006222
loop_
_atom_site_label
_atom_site_type_symbol
_atom_site_fract_x
_atom_site_fract_y
_atom_site_fract_z
O1	O	1.103137	0.060837	0.106867
O2	O	0.861075	0.060849	0.120166
O3	O	0.988756	0.060835	-0.007514
O4	O	0.975457	0.060851	0.234548
O5	O	0.988734	-0.060927	-0.007518
O6	O	0.861054	-0.060913	0.120163
O7	O	1.103115	-0.060925	0.106863
Zn8	Zn	0.982081	-0.080251	0.113512
Zn9	Zn	0.982110	0.080175	0.113517
O10	O	0.975435	-0.060911	0.234544
C11	C	0.830090	-0.000031	0.119626
C12	C	0.737794	-0.000026	0.118011
C13	C	0.515522	-0.000030	0.190018
C14	C	0.428801	-0.000035	0.188494
C15	C	0.448676	-0.000042	0.037006
C16	C	0.535394	-0.000042	0.038530
C17	C	0.568815	-0.000033	0.115039
C18	C	0.395376	-0.000037	0.111990
C19	C	0.301350	-0.000042	0.110337
C20	C	0.662847	-0.000029	0.116693
N21	N	0.982068	-0.189738	0.113509
C22	C	1.032470	-0.228040	0.163954
C23	C	1.032483	-0.304685	0.163952
C24	C	0.982080	-0.343025	0.113514
C25	C	0.931674	-0.304714	0.063058
C26	C	0.931668	-0.228071	0.063056
N27	N	0.909260	-0.463374	0.111263
N28	N	0.909268	-0.536183	0.111270
C29	C	0.982096	-0.573948	0.113517
N30	N	1.054917	-0.536154	0.115772
N31	N	1.054908	-0.463339	0.115770
C32	C	0.982081	-0.426132	0.113510
C33	C	1.032518	-0.695357	0.163962
C34	C	1.032533	-0.772003	0.163954
C35	C	0.931716	-0.772030	0.063065
C36	C	0.931708	-0.695386	0.063069
C37	C	0.982108	-0.657053	0.113522
C38	C	1.134101	-0.000044	0.107404
C39	C	1.226397	-0.000043	0.109019
C40	C	0.988206	-0.000046	-0.038491
C41	C	0.986591	-0.000047	-0.130786
N42	N	0.982130	0.189662	0.113514
C43	C	1.058599	-0.000039	-0.353059
C44	C	1.057075	-0.000033	-0.439779
C45	C	0.905586	-0.000028	-0.419905
C46	C	0.907111	-0.000029	-0.333186
C47	C	0.983620	-0.000038	-0.299766
C48	C	0.980571	-0.000031	-0.473205
C49	C	0.978918	-0.000025	-0.567231
C50	C	0.985273	-0.000044	-0.205734
C51	C	0.975984	-0.000028	0.265521
C52	C	0.977600	-0.000023	0.357816
H53	H	0.542730	-0.000028	0.252317
H54	H	0.385413	-0.000034	0.249550
N55	N	0.880185	-0.343886	0.011550
N56	N	0.825212	-0.386656	0.044004
H57	H	0.788848	-0.414322	0.007624
H58	H	0.890623	-0.196886	0.021976
H59	H	1.120897	-0.000045	-0.325851
N60	N	1.133672	-0.000028	-0.494205
N61	N	1.201973	-0.000032	-0.464350
H62	H	1.256074	-0.000027	-0.502787
H63	H	1.073512	-0.196835	0.205033
H64	H	0.890677	-0.803246	0.021997
N65	N	0.414522	-0.000051	-0.041135
N66	N	0.337094	-0.000050	-0.042488
H67	H	0.312972	-0.000056	-0.097676
H68	H	1.073527	-0.335877	0.205033
H69	H	1.073582	-0.803187	0.205030
H70	H	0.843295	-0.000022	-0.447127
N71	N	0.830509	-0.000021	-0.278754
N72	N	0.762205	-0.000017	-0.308602
H73	H	0.708107	-0.000007	-0.270160
H74	H	1.073556	-0.664145	0.205043
N75	N	0.589827	-0.000052	-0.038071
N76	N	0.559979	-0.000057	-0.106376
H77	H	0.598421	-0.000067	-0.160474
N78	N	0.880212	-0.656268	0.011540
N79	N	0.835211	-0.690506	-0.033491
H80	H	0.798839	-0.662880	-0.069886
