data_functionalizedCrystal
_audit_creation_method	'MofGen! by Chris Wilmer'
_symmetry_space_group_name_H-M	'P1'
_symmetry_Int_Tables_number	1
_symmetry_cell_setting	triclinic
loop_
_symmetry_equiv_pos_as_xyz
  x,y,z
_cell_length_a	10.540539
_cell_length_b	14.519709
_cell_length_c	13.596369
_cell_angle_alpha	90.006934
_cell_angle_beta	89.998267
_cell_angle_gamma	95.897182
loop_
_atom_site_label
_atom_site_type_symbol
_atom_site_fract_x
_atom_site_fract_y
_atom_site_fract_z
O1	O	1.684562	-0.129969	-0.081713
O2	O	2.184562	0.370031	0.418287
O3	O	1.315024	-0.142215	-0.081733
O4	O	1.815024	0.357785	0.418267
O5	O	1.509591	-0.001906	-0.081713
O6	O	2.009591	0.498094	0.418287
O7	O	1.489995	-0.270278	-0.081732
O8	O	1.989995	0.229722	0.418268
O9	O	1.509571	-0.001899	0.081870
O10	O	2.009571	0.498101	0.581870
O11	O	1.315004	-0.142207	0.081850
O12	O	1.815004	0.357793	0.581850
O13	O	1.684542	-0.129962	0.081870
O14	O	2.184542	0.370038	0.581870
Zn15	Zn	1.499770	-0.136083	0.107832
Zn16	Zn	1.999770	0.363917	0.607832
Zn17	Zn	1.499796	-0.136093	-0.107695
Zn18	Zn	1.999796	0.363907	0.392305
O19	O	1.489976	-0.270270	0.081851
O20	O	1.989976	0.229730	0.581851
C21	C	1.508668	0.032462	0.000078
C22	C	2.008668	0.532462	0.500078
C23	C	1.505931	0.134858	0.000079
C24	C	2.005931	0.634858	0.500079
C25	C	1.267720	-0.141293	0.000056
C26	C	1.767720	0.358707	0.500056
C27	C	1.126800	-0.138545	0.000049
C28	C	1.626800	0.361455	0.500049
C29	C	1.731846	-0.130884	0.000079
C30	C	2.231846	0.369116	0.500079
C31	C	1.872766	-0.133631	0.000080
C32	C	2.372766	0.366369	0.500080
C33	C	2.055118	-0.238911	0.000417
C34	C	2.555118	0.261089	0.500417
C35	C	1.908528	-0.236126	0.000065
C36	C	2.408528	0.263874	0.500065
C37	C	1.934912	-0.084310	-0.093336
C38	C	2.434912	0.415690	0.406664
C39	C	2.081421	-0.087808	-0.093431
C40	C	2.581421	0.412192	0.406569
C41	C	2.081990	-0.085716	0.092594
C42	C	2.581990	0.414284	0.592594
C43	C	1.935018	-0.084772	0.093845
C44	C	2.435018	0.415228	0.593845
C45	C	1.490899	-0.304639	0.000057
C46	C	1.990899	0.195361	0.500057
C47	C	1.493635	-0.407035	0.000050
C48	C	1.993635	0.092965	0.500050
N49	N	1.499762	-0.136076	0.254924
N50	N	1.999762	0.363924	0.754924
C51	C	1.495856	0.509808	0.000052
C52	C	1.995856	1.009808	0.500052
C53	C	1.498654	0.405485	0.000060
C54	C	1.998654	0.905485	0.500060
C55	C	1.500893	0.322337	0.000066
C56	C	2.000893	0.822337	0.500066
C57	C	1.503692	0.218007	0.000072
C58	C	2.003692	0.718007	0.500072
N59	N	1.499814	-0.136093	-0.254787
N60	N	1.999814	0.363907	0.245213
C61	C	1.499794	-0.136094	0.656215
C62	C	1.999794	0.363906	1.156215
C63	C	1.499781	-0.136092	0.544564
C64	C	1.999781	0.363908	1.044564
C65	C	1.499779	-0.136086	0.455573
C66	C	1.999779	0.363914	0.955573
C67	C	1.499765	-0.136082	0.343915
C68	C	1.999765	0.363918	0.843915
H69	H	1.865538	-0.274939	0.067026
H70	H	2.365538	0.225061	0.567026
H71	H	2.084902	-0.279236	-0.066204
H72	H	2.584902	0.220764	0.433796
H73	H	1.891917	-0.118554	-0.162850
H74	H	2.391917	0.381446	0.337150
Cl75	Cl	1.898800	0.030601	0.102574
Cl76	Cl	2.398800	0.530601	0.602574
H77	H	2.109237	-0.124267	-0.163264
H78	H	2.609237	0.375733	0.336736
Cl79	Cl	2.156087	0.028576	0.093578
Cl80	Cl	2.656087	0.528576	0.593578
H81	H	2.113218	-0.118884	0.163389
H82	H	2.613218	0.381116	0.663389
Cl83	Cl	1.871265	-0.140411	0.200545
Cl84	Cl	2.371265	0.359589	0.700545
H85	H	1.866363	-0.275209	-0.067010
H86	H	2.366363	0.224791	0.432990
Cl87	Cl	2.099470	-0.301684	0.103388
Cl88	Cl	2.599470	0.198316	0.603388
H89	H	2.130141	-0.014097	-0.097682
H90	H	2.630141	0.485903	0.402318
H91	H	1.913326	-0.009041	-0.096800
H92	H	2.413326	0.490959	0.403200
