data_functionalizedCrystal
_audit_creation_method	'MofGen! by Chris Wilmer'
_symmetry_space_group_name_H-M	'P1'
_symmetry_Int_Tables_number	1
_symmetry_cell_setting	triclinic
loop_
_symmetry_equiv_pos_as_xyz
  x,y,z
_cell_length_a	10.967926
_cell_length_b	14.519709
_cell_length_c	9.482900
_cell_angle_alpha	99.350820
_cell_angle_beta	92.549900
_cell_angle_gamma	84.207347
loop_
_atom_site_label
_atom_site_type_symbol
_atom_site_fract_x
_atom_site_fract_y
_atom_site_fract_z
O1	O	1.610558	0.162805	0.282598
O2	O	2.110558	0.662805	0.782598
O3	O	1.261349	0.164827	0.195106
O4	O	1.761349	0.664827	0.695106
O5	O	1.445210	0.029903	0.241184
O6	O	1.945210	0.529903	0.741184
O7	O	1.426696	0.297729	0.236520
O8	O	1.926696	0.797729	0.736520
O9	O	1.407864	0.057425	0.473617
O10	O	1.907864	0.557425	0.973617
O11	O	1.224002	0.192349	0.427539
O12	O	1.724002	0.692349	0.927539
O13	O	1.573212	0.190327	0.515031
O14	O	2.073212	0.690327	1.015031
Cu15	Cu	1.395197	0.193851	0.492508
Cu16	Cu	1.895197	0.693851	0.992508
Cu17	Cu	1.439363	0.161303	0.217629
Cu18	Cu	1.939363	0.661303	0.717629
O19	O	1.389350	0.325251	0.468953
O20	O	1.889350	0.825251	0.968953
C21	C	1.197984	0.176361	0.300126
C22	C	1.697984	0.676361	0.800126
C23	C	1.064816	0.169716	0.266762
C24	C	1.564816	0.669716	0.766762
C25	C	0.986099	0.181010	0.372295
C26	C	1.486099	0.681010	0.872295
C27	C	0.848463	0.174141	0.337815
C28	C	1.348463	0.674141	0.837815
C29	C	1.425674	0.009274	0.357185
C30	C	1.925674	0.509274	0.857185
C31	C	1.423088	-0.093198	0.356538
C32	C	1.923088	0.406802	0.856538
C33	C	1.413573	-0.468431	0.354116
C34	C	1.913573	0.031569	0.854116
C35	C	1.416215	-0.364029	0.354789
C36	C	1.916215	0.135971	0.854789
C37	C	1.418330	-0.280817	0.355328
C38	C	1.918330	0.219183	0.855328
C39	C	1.420973	-0.176409	0.355999
C40	C	1.920973	0.323591	0.855999
C41	C	1.636577	0.178792	0.410008
C42	C	2.136577	0.678792	0.910008
C43	C	1.769746	0.185437	0.443362
C44	C	2.269746	0.685437	0.943362
C45	C	1.408887	0.345880	0.352949
C46	C	1.908887	0.845880	0.852949
C47	C	1.411475	0.448350	0.353587
C48	C	1.911475	0.948350	0.853587
N49	N	1.364142	0.216743	0.685845
N50	N	1.864142	0.716743	1.185845
N51	N	1.470428	0.138404	0.024294
N52	N	1.970428	0.638404	0.524294
C53	C	1.430195	0.168050	0.774598
C54	C	1.930195	0.668050	1.274598
C55	C	1.404365	0.187104	0.935542
C56	C	1.904365	0.687104	1.435542
H57	H	0.804243	0.200189	0.559248
H58	H	1.304243	0.700189	1.059248
H59	H	0.813965	0.159384	0.221930
H60	H	1.313965	0.659384	0.721930
H61	H	1.020603	0.195759	0.488172
H62	H	1.520603	0.695759	0.988172
O63	O	1.314005	0.253560	0.987161
O64	O	1.814005	0.753560	1.487161
C65	C	1.226165	0.211585	1.053192
C66	C	1.726165	0.711585	1.553192
H67	H	1.270064	0.143641	1.086836
H68	H	1.770064	0.643641	1.586836
H69	H	1.190964	0.261544	1.151471
H70	H	1.690964	0.761544	1.651471
H71	H	1.146439	0.195629	0.974667
H72	H	1.646439	0.695629	1.474667
H73	H	1.030313	0.154959	0.150886
H74	H	1.530313	0.654959	0.650886
H75	H	1.288464	0.272533	0.729010
H76	H	1.788464	0.772533	1.229010
H77	H	1.505864	0.112253	0.731434
H78	H	2.005864	0.612253	1.231434
H79	H	1.546102	0.082604	0.981134
H80	H	2.046102	0.582604	1.481134
