data_functionalizedCrystal
_audit_creation_method	'MofGen! by Chris Wilmer'
_symmetry_space_group_name_H-M	'P1'
_symmetry_Int_Tables_number	1
_symmetry_cell_setting	triclinic
loop_
_symmetry_equiv_pos_as_xyz
  x,y,z
_cell_length_a	14.446369
_cell_length_b	14.560438
_cell_length_c	14.560438
_cell_angle_alpha	60.000069
_cell_angle_beta	90.000111
_cell_angle_gamma	59.998281
loop_
_atom_site_label
_atom_site_type_symbol
_atom_site_fract_x
_atom_site_fract_y
_atom_site_fract_z
Zr1	Zr	0.891773	1.005228	-0.120475
O2	O	0.743963	1.196840	-0.267125
O3	O	0.937084	0.813624	-0.075521
O4	O	0.937084	1.005229	-0.267122
O5	O	0.743963	1.005233	0.075616
O6	O	1.089421	1.005220	-0.267116
O7	O	0.743963	1.005236	-0.075524
O8	O	1.089421	0.662475	0.075623
O9	O	0.743964	1.347978	-0.267122
O10	O	1.070096	0.892425	-0.056342
O11	O	0.956409	0.892429	0.056449
O12	O	0.956409	1.118018	-0.169136
O13	O	0.842722	1.118022	-0.056346
Zr14	Zr	1.134733	1.005211	0.120586
Zr15	Zr	1.134733	1.005215	-0.120466
Zr16	Zr	0.891773	1.005224	0.120578
Zr17	Zr	0.891773	1.246276	-0.120470
Zr18	Zr	1.134733	0.764163	0.120582
O19	O	1.089422	1.196815	0.075633
O20	O	1.089421	1.196821	-0.267113
O21	O	0.743964	1.196834	0.075620
O22	O	1.282542	0.813600	0.267237
O23	O	1.282542	0.813606	-0.075508
O24	O	0.937084	0.813618	0.267224
O25	O	1.282542	1.005206	-0.075505
O26	O	1.089422	1.005211	0.267233
O27	O	0.937085	1.005219	0.267228
O28	O	1.282542	1.005204	0.075636
O29	O	0.937085	1.347967	-0.267115
O30	O	1.089421	0.662472	0.267227
O31	O	1.282542	0.662462	0.267234
O32	O	1.282542	0.662465	0.075630
O33	O	0.743964	1.347974	-0.075518
O34	O	0.937085	1.347964	-0.075511
O35	O	1.070097	0.892421	0.169248
O36	O	1.183784	0.892417	0.056457
O37	O	1.070097	1.118010	-0.056337
O38	O	0.956409	1.118014	0.056453
C39	C	1.013252	0.703706	0.000050
C40	C	1.013252	0.601375	0.000048
C41	C	1.072593	0.553297	-0.058827
C42	C	1.072598	0.457137	-0.058817
C43	C	0.953910	0.457147	0.058946
C44	C	0.953913	0.553298	0.058942
C45	C	0.709347	1.005236	0.000045
C46	C	0.606204	1.005242	0.000041
C47	C	0.387835	1.147509	-0.070740
C48	C	0.495067	1.147605	-0.071138
C49	C	0.602880	0.934571	-0.051851
C50	C	0.495111	0.935474	-0.052370
C51	C	0.496475	0.932541	0.122804
C52	C	0.602444	0.935222	0.122611
C53	C	1.317159	1.005203	0.000067
C54	C	1.420302	1.005197	0.000071
C55	C	1.013252	1.005225	-0.301464
C56	C	1.013252	1.005227	-0.403797
C57	C	1.013253	1.306733	0.000062
C58	C	1.013254	1.409064	0.000063
C59	C	1.097176	1.005223	-0.451870
C60	C	1.097179	1.005212	-0.548016
C61	C	0.929325	1.005212	-0.548010
C62	C	0.929328	1.005215	-0.451861
C63	C	1.013253	1.005214	0.301575
C64	C	1.013253	1.005212	0.403908
C65	C	1.317158	0.703689	0.000061
C66	C	1.420301	0.601353	0.000063
C67	C	1.013253	0.703700	0.301570
C68	C	1.013253	0.601368	0.403901
C69	C	1.317159	0.703684	0.301581
C70	C	1.420302	0.601345	0.403916
C71	C	0.709347	1.306755	-0.301469
C72	C	0.606204	1.409094	-0.403804
C73	C	0.709347	1.306750	0.000050
C74	C	0.606205	1.409087	0.000049
C75	C	1.013253	1.306739	-0.301458
C76	C	1.013253	1.409072	-0.403789
C77	C	1.409417	0.553276	-0.058813
C78	C	1.506334	0.457128	-0.058816
C79	C	1.625017	0.457137	0.058944
C80	C	1.528100	0.553290	0.058939
C81	C	1.072595	0.553285	0.510856
C82	C	1.072582	0.457142	0.607003
C83	C	0.953882	0.457168	0.489226
C84	C	0.953889	0.553316	0.393081
C85	C	1.528102	0.553262	0.393120
C86	C	1.625012	0.457113	0.489279
C87	C	1.506307	0.457135	0.607025
C88	C	1.409400	0.553289	0.510867
H89	H	0.905598	0.417992	0.106894
H90	H	1.321617	0.592442	0.519666
O91	O	1.729644	0.410504	0.478591
C92	C	1.837149	0.420686	0.351649
C93	C	1.718584	0.473561	0.363595
H94	H	1.828247	0.471665	0.258682
H95	H	1.885508	0.311751	0.393659
H96	H	1.885475	0.439561	0.393778
H97	H	1.670164	0.454780	0.321460
H98	H	1.670311	0.582480	0.321617
O99	O	1.178646	1.005156	-0.594829
C100	C	1.253002	1.005224	-0.742988
C101	C	1.160684	1.005260	-0.690074
H102	H	1.238498	1.005336	-0.820016
H103	H	1.339975	0.914798	-0.678935
H104	H	1.248831	1.095614	-0.769227
H105	H	1.164749	0.914931	-0.663836
H106	H	1.073751	1.095745	-0.754161
O107	O	0.847947	1.005038	-0.594724
C108	C	0.806928	0.893084	-0.647262
C109	C	0.899208	0.893130	-0.594358
H110	H	0.848335	0.802603	-0.646962
H111	H	0.757187	0.983432	-0.737512
H112	H	0.746929	0.893148	-0.596399
H113	H	0.959283	0.893021	-0.645132
H114	H	0.948864	0.802791	-0.504098
H115	H	1.497445	0.417993	0.694114
H116	H	1.712797	0.417991	0.106881
H117	H	0.905590	0.592442	0.106890
H118	H	1.120920	0.417993	-0.106757
O119	O	1.130341	0.599807	-0.116042
C120	C	1.248018	0.589689	-0.232890
C121	C	1.182681	0.536888	-0.168124
H122	H	1.290332	0.538862	-0.275035
H123	H	1.315479	0.570734	-0.171937
H124	H	1.186535	0.698643	-0.299716
H125	H	1.244076	0.427928	-0.101298
H126	H	1.115205	0.555944	-0.229146
O127	O	0.847687	1.005277	-0.405329
C128	C	0.681239	1.005197	-0.415421
C129	C	0.773604	1.005163	-0.468252
H130	H	0.621333	1.005077	-0.466258
H131	H	0.631409	1.095625	-0.415645
H132	H	0.722651	0.914809	-0.325187
H133	H	0.732284	1.095489	-0.558505
H134	H	0.823425	0.914675	-0.467940
H135	H	1.497462	0.417991	-0.106761
O136	O	0.492918	1.213895	-0.029690
C137	C	0.391810	1.334319	0.046223
C138	C	0.394116	1.259263	-0.000686
H139	H	0.311948	1.370996	0.069707
H140	H	0.392090	1.420356	-0.020347
H141	H	0.469742	1.267080	0.124115
H142	H	0.316198	1.326397	-0.078562
H143	H	0.393893	1.173211	0.065954
O144	O	1.538608	0.600196	0.115962
C145	C	1.497984	0.787915	0.105180
C146	C	1.486033	0.734957	0.040466
H147	H	1.455465	0.896880	0.044173
H148	H	1.591660	0.737143	0.147240
H149	H	1.455605	0.768931	0.172063
H150	H	1.528349	0.753929	-0.026470
H151	H	1.392338	0.785732	-0.001515
H152	H	0.332850	1.203091	-0.160730
O153	O	0.492000	1.214161	-0.179207
C154	C	0.389210	1.335113	-0.375151
C155	C	0.392554	1.259746	-0.252809
H156	H	0.308803	1.372013	-0.434693
H157	H	0.466571	1.268163	-0.386580
H158	H	0.389749	1.421044	-0.394752
H159	H	0.391978	1.173814	-0.233125
H160	H	0.315199	1.326784	-0.241443
H161	H	1.321646	0.592418	-0.106766
O162	O	0.436960	0.986676	0.174703
C163	C	0.440047	0.980966	0.343003
C164	C	0.507581	0.919498	0.284387
H165	H	0.497122	0.926696	0.431684
H166	H	0.364491	0.974587	0.347620
H167	H	0.408543	1.087198	0.293058
H168	H	0.539162	0.813247	0.334283
H169	H	0.583081	0.925980	0.279756
H170	H	1.120928	0.592411	0.519672
O171	O	0.435155	0.995482	-0.160181
C172	C	0.424211	1.102957	-0.354541
C173	C	0.492205	1.035048	-0.232497
H174	H	0.470320	1.134941	-0.413039
H175	H	0.336300	1.191552	-0.379766
H176	H	0.415709	1.032558	-0.361154
H177	H	0.500794	1.105345	-0.225791
H178	H	0.580075	0.946434	-0.207325
H179	H	0.905553	0.418030	0.480431
H180	H	1.120903	0.417999	0.694088
O181	O	0.896096	0.600230	0.289151
C182	C	0.747506	0.787961	0.112220
C183	C	0.812846	0.734992	0.229892
H184	H	0.680200	0.896926	0.064267
H185	H	0.704999	0.737196	0.120932
H186	H	0.809015	0.768976	0.064316
H187	H	0.751413	0.753965	0.277861
H188	H	0.855371	0.785759	0.221100
H189	H	0.521765	0.831063	-0.004129
O190	O	1.178814	1.005166	-0.405287
C191	C	1.345268	1.005232	-0.415478
C192	C	1.252890	1.005271	-0.468331
H193	H	1.405168	1.005344	-0.466440
H194	H	1.395101	0.914804	-0.325273
H195	H	1.303866	1.095620	-0.415634
H196	H	1.294199	0.914945	-0.468256
H197	H	1.203066	1.095759	-0.558508
H198	H	0.601926	0.986751	0.161377
H199	H	0.333879	1.203360	-0.036109
H200	H	0.605015	0.983659	-0.141309
H201	H	0.681148	0.829896	-0.002759
H202	H	0.681603	0.831360	0.179809
H203	H	0.523914	0.827708	0.175813
H204	H	1.536984	0.592390	0.306039
