data_functionalizedCrystal
_audit_creation_method	'MofGen! by Chris Wilmer'
_symmetry_space_group_name_H-M	'P1'
_symmetry_Int_Tables_number	1
_symmetry_cell_setting	triclinic
loop_
_symmetry_equiv_pos_as_xyz
  x,y,z
_cell_length_a	12.837943
_cell_length_b	19.188930
_cell_length_c	11.892095
_cell_angle_alpha	93.870839
_cell_angle_beta	85.689438
_cell_angle_gamma	88.986861
loop_
_atom_site_label
_atom_site_type_symbol
_atom_site_fract_x
_atom_site_fract_y
_atom_site_fract_z
O1	O	1.381278	0.177430	-0.094009
O2	O	1.079513	0.168466	-0.094014
O3	O	1.239102	0.071891	-0.093990
O4	O	1.221689	0.274006	-0.094034
O5	O	1.225796	0.079929	0.094016
O6	O	1.066207	0.176505	0.093991
O7	O	1.367972	0.185469	0.093996
Zn8	Zn	1.214977	0.182263	0.123844
Zn9	Zn	1.232508	0.171672	-0.123862
O10	O	1.208383	0.282044	0.093971
C11	C	1.034253	0.169458	-0.000012
C12	C	0.919217	0.160427	-0.000013
C13	C	0.677767	0.268994	-0.000021
C14	C	0.569680	0.260512	-0.000021
C15	C	0.594952	0.134982	-0.000005
C16	C	0.703040	0.143464	-0.000005
C17	C	0.744443	0.210472	-0.000015
C18	C	0.852533	0.218953	-0.000023
C19	C	0.877803	0.093423	0.000001
C20	C	0.769716	0.084941	0.000001
C21	C	1.231885	0.049861	0.000016
C22	C	1.230191	-0.027760	0.000026
C23	C	1.323833	-0.066260	0.000033
C24	C	1.322244	-0.139194	0.000015
C25	C	1.227006	-0.173623	0.000012
C26	C	1.133352	-0.135114	-0.000001
C27	C	1.134944	-0.062182	0.000006
N28	N	1.149679	-0.283886	0.063993
N29	N	1.148172	-0.353168	0.063989
C30	C	1.222201	-0.393362	-0.000010
N31	N	1.297809	-0.361657	-0.063992
N32	N	1.299318	-0.292369	-0.063982
C33	C	1.225268	-0.252705	0.000004
C34	C	1.314126	-0.510946	-0.000025
C35	C	1.312534	-0.583882	-0.000050
C36	C	1.123638	-0.579799	-0.000054
C37	C	1.125234	-0.506866	-0.000041
C38	C	1.220481	-0.472444	-0.000020
C39	C	1.413232	0.184477	-0.000009
C40	C	1.528268	0.193508	-0.000015
C41	C	1.215600	0.304074	-0.000037
C42	C	1.217294	0.381694	-0.000054
N43	N	1.203020	0.189491	0.292896
N44	N	1.244474	0.164439	-0.292914
C45	C	1.327677	0.114101	0.529563
C46	C	1.319327	0.119160	0.647904
C47	C	1.177964	0.204661	0.647920
C48	C	1.186314	0.199603	0.529579
C49	C	1.261175	0.154323	0.470405
C50	C	1.269529	0.149269	0.352062
C51	C	1.128162	0.234767	0.352080
C52	C	1.119812	0.239825	0.470421
H53	H	0.711478	0.323555	-0.000030
H54	H	1.388638	0.077237	0.481383
H55	H	0.932104	0.045770	-0.000002
N56	N	1.029587	-0.467522	-0.000022
N57	N	1.031021	-0.402405	-0.000012
H58	H	0.963467	-0.374618	-0.000001
N59	N	1.039277	-0.022861	-0.000007
N60	N	0.954248	-0.053606	-0.000021
H61	H	0.886680	-0.025835	-0.000030
N62	N	1.411422	-0.475791	-0.000001
N63	N	1.495028	-0.510179	-0.000002
H64	H	1.563745	-0.485353	0.000017
N65	N	1.043346	0.286081	0.530853
N66	N	0.983976	0.321990	0.478015
H67	H	0.929970	0.354661	0.520692
H68	H	1.330487	0.112401	0.303884
N69	N	0.501586	0.320299	-0.000019
N70	N	0.538571	0.380121	-0.000021
H71	H	0.490480	0.422348	-0.000017
H72	H	1.401391	-0.038239	0.000046
N73	N	1.387261	0.078066	0.708315
N74	N	1.454088	0.037639	0.655462
H75	H	1.502068	0.008613	0.698127
N76	N	1.101497	0.250899	0.708393
N77	N	1.094049	0.255401	0.814053
H78	H	1.040043	0.288056	0.856765
H79	H	1.074014	0.267520	0.303900
H80	H	0.561216	0.080430	0.000095
N81	N	0.894812	0.287402	-0.000039
N82	N	0.835263	0.339648	-0.000042
H83	H	0.865118	0.387992	-0.000051
H84	H	0.735989	0.030385	0.000021
N85	N	1.417911	-0.178522	0.000021
N86	N	1.502942	-0.147779	0.000036
H87	H	1.570508	-0.175552	0.000042
N88	N	1.036077	-0.170290	-0.000014
N89	N	1.034667	-0.235407	-0.000019
H90	H	0.965965	-0.260251	-0.000033
N91	N	1.408203	-0.623199	-0.000033
N92	N	1.466000	-0.613039	0.079228
H93	H	1.533570	-0.640806	0.079242
H94	H	1.046093	-0.607831	-0.000062
