data_functionalizedCrystal
_audit_creation_method	'MofGen! by Chris Wilmer'
_symmetry_space_group_name_H-M	'P1'
_symmetry_Int_Tables_number	1
_symmetry_cell_setting	triclinic
loop_
_symmetry_equiv_pos_as_xyz
  x,y,z
_cell_length_a	14.446369
_cell_length_b	14.446369
_cell_length_c	14.446369
_cell_angle_alpha	60.003063
_cell_angle_beta	89.999999
_cell_angle_gamma	59.998814
loop_
_atom_site_label
_atom_site_type_symbol
_atom_site_fract_x
_atom_site_fract_y
_atom_site_fract_z
Zr1	Zr	0.891676	1.013292	-0.121529
O2	O	0.743866	1.206397	-0.269323
O3	O	0.936994	0.820176	-0.076221
O4	O	0.936985	1.013286	-0.269332
O5	O	0.743874	1.013295	0.076117
O6	O	1.089314	1.013295	-0.269340
O7	O	0.743874	1.013286	-0.076212
O8	O	1.089329	0.667856	0.076101
O9	O	0.743859	1.358734	-0.269324
O10	O	1.069995	0.899618	-0.056904
O11	O	0.956314	0.899618	0.056783
O12	O	0.956303	1.126980	-0.170581
O13	O	0.842622	1.126980	-0.056894
Zr14	Zr	1.134622	1.013319	0.121405
Zr15	Zr	1.134623	1.013305	-0.121542
Zr16	Zr	0.891675	1.013305	0.121418
Zr17	Zr	0.891665	1.256252	-0.121530
Zr18	Zr	1.134633	0.770359	0.121407
O19	O	1.089305	1.206434	0.076097
O20	O	1.089305	1.206416	-0.269342
O21	O	0.743865	1.206416	0.076116
O22	O	1.282432	0.820214	0.269200
O23	O	1.282433	0.820195	-0.076239
O24	O	0.936993	0.820195	0.269219
O25	O	1.282424	1.013316	-0.076240
O26	O	1.089313	1.013324	0.269209
O27	O	0.936984	1.013316	0.269217
O28	O	1.282424	1.013324	0.076088
O29	O	0.936969	1.358744	-0.269335
O30	O	1.089329	0.667867	0.269212
O31	O	1.282439	0.667877	0.269201
O32	O	1.282439	0.667867	0.076091
O33	O	0.743859	1.358744	-0.076214
O34	O	0.936969	1.358755	-0.076224
O35	O	1.069995	0.899631	0.170458
O36	O	1.183676	0.899631	0.056771
O37	O	1.069985	1.126993	-0.056906
O38	O	0.956303	1.126993	0.056781
C39	C	1.013163	0.709400	-0.000059
C40	C	1.013168	0.606257	-0.000059
C41	C	1.084869	0.566975	-0.071773
C42	C	1.084534	0.460055	-0.072159
C43	C	0.889572	0.547051	-0.051978
C44	C	0.889986	0.654427	-0.052517
C45	C	1.064022	0.479453	0.123608
C46	C	1.066496	0.370991	0.123418
C47	C	0.709260	1.013289	-0.000045
C48	C	0.606122	1.013283	-0.000040
C49	C	0.531146	0.869901	0.071284
C50	C	0.638475	0.869804	0.071693
C51	C	0.531559	1.084514	0.052258
C52	C	0.424700	1.083604	0.052774
C53	C	0.423127	1.086547	-0.123777
C54	C	0.531799	1.083845	-0.123574
C55	C	1.317038	1.013322	-0.000078
C56	C	1.420176	1.013328	-0.000083
C57	C	1.013149	1.013289	-0.303951
C58	C	1.013150	1.013283	-0.407088
C59	C	1.013135	1.317211	-0.000064
C60	C	1.013130	1.420354	-0.000065
C61	C	1.085212	0.869901	-0.482074
C62	C	1.084900	0.869804	-0.374745
C63	C	0.889623	1.084505	-0.481642
C64	C	0.890018	1.083594	-0.588501
C65	C	1.063616	1.086557	-0.590084
C66	C	1.066115	1.083855	-0.481412
C67	C	1.013149	1.013322	0.303828
C68	C	1.013148	1.013328	0.406965
C69	C	1.317052	0.709416	-0.000076
C70	C	1.420194	0.606279	-0.000080
C71	C	1.013162	0.709416	0.303830
C72	C	1.013167	0.606279	0.406968
C73	C	1.317052	0.709433	0.303814
C74	C	1.420194	0.606301	0.406946
C75	C	0.709246	1.317178	-0.303937
C76	C	0.606104	1.420309	-0.407070
C77	C	0.709246	1.317195	-0.000048
C78	C	0.606104	1.420332	-0.000043
C79	C	1.013136	1.317195	-0.303953
C80	C	1.013131	1.420332	-0.407091
C81	C	1.638558	0.459981	0.071233
C82	C	1.531327	0.566898	0.071649
C83	C	1.423528	0.479422	0.052217
C84	C	1.531296	0.372050	0.052725
C85	C	1.529915	0.547021	-0.123827
C86	C	1.423947	0.655488	-0.123618
C87	C	0.941129	0.459960	0.481955
C88	C	0.941428	0.566881	0.374626
C89	C	1.136699	0.479432	0.481516
C90	C	1.136316	0.372056	0.588376
C91	C	0.962711	0.547021	0.589970
C92	C	0.960199	0.655491	0.481297
C93	C	1.495183	0.459974	0.625300
C94	C	1.387849	0.566907	0.518079
C95	C	1.494739	0.479456	0.410254
C96	C	1.601602	0.372068	0.518012
C97	C	1.603209	0.547014	0.516672
C98	C	1.494533	0.655496	0.410714
H99	H	1.012047	0.504012	0.177283
H100	H	0.583164	1.035046	0.142420
H101	H	0.583224	1.031909	-0.162644
F102	F	1.321231	0.508486	-0.012442
F103	F	0.836007	0.597591	-0.169767
H104	H	0.848934	1.035029	-0.430037
H105	H	1.344791	0.687607	-0.181259
F106	F	1.038377	0.509183	-0.191399
H107	H	0.424972	1.032989	0.143796
H108	H	0.833599	1.190000	-0.508870
F109	F	0.532503	0.796687	0.189832
H110	H	1.333586	0.656249	0.519707
H111	H	0.346116	1.188835	0.004151
F112	F	1.527895	0.697488	0.307254
H113	H	0.344908	1.192206	-0.177200
F114	F	1.204105	0.518447	-0.026538
H115	H	0.506274	1.188522	-0.181219
F116	F	1.494042	0.514615	-0.193657
H117	H	1.192926	0.342106	0.666952
H118	H	0.504324	1.190010	0.002784
H119	H	1.443122	0.440911	0.408111
H120	H	1.176727	0.281304	0.588100
F121	F	1.709077	0.508663	0.025610
H122	H	0.833403	1.188824	-0.667078
H123	H	0.419010	1.040649	-0.167468
F124	F	1.492140	0.508630	0.695843
F125	F	1.203793	0.796755	-0.303803
H126	H	1.176409	0.813612	-0.479739
F127	F	1.180714	1.026572	-0.595471
F128	F	0.822531	0.683660	0.303694
H129	H	1.049904	0.656759	-0.162456
F130	F	1.185067	1.015980	-0.414209
F131	F	1.496466	0.332885	-0.010826
H132	H	0.849934	0.497194	0.479625
F133	F	0.837210	1.017428	-0.588148
F134	F	1.039882	0.796679	-0.480716
F135	F	1.039081	0.796354	-0.304472
F136	F	0.709423	0.796752	0.025849
H137	H	1.019084	1.188529	-0.506926
F138	F	1.420745	0.429023	0.170068
F139	F	0.845614	0.598737	0.595360
F140	F	0.708777	0.796304	0.190963
H141	H	0.975817	0.370295	0.480919
H142	H	1.494142	0.370316	0.680270
F143	F	1.705440	0.514611	0.480791
F144	F	0.836809	0.773189	-0.171446
F145	F	0.816315	0.693297	0.011367
H146	H	1.521975	0.501703	0.331992
H147	H	1.011358	1.192226	-0.668280
H148	H	1.680183	0.342109	0.491355
H149	H	1.693545	0.370320	0.161926
H150	H	0.976441	0.529414	0.320839
H151	H	1.532936	0.656248	0.036574
F152	F	1.317529	0.517958	0.521275
F153	F	1.601238	0.253456	0.583805
H154	H	0.533483	0.813602	0.036386
H155	H	1.607337	0.586573	0.566699
H156	H	1.533786	0.529435	0.162900
F157	F	0.816663	0.517680	0.013044
H158	H	1.581645	0.281302	0.143745
H159	H	1.153665	0.439987	0.167015
H160	H	1.175507	0.370832	-0.037373
F161	F	1.189888	0.429030	0.414063
F162	F	0.841233	0.773741	0.414108
H163	H	1.579928	0.586594	-0.167519
H164	H	1.424464	0.745975	-0.162684
F165	F	1.209921	0.508511	0.517106
H166	H	1.007227	0.687621	0.506817
F167	F	1.427338	0.773761	0.411412
F168	F	1.185479	0.252859	0.174120
F169	F	1.005347	0.328735	0.199086
F170	F	1.030977	0.514625	0.692204
