data_functionalizedCrystal
_audit_creation_method	'MofGen! by Chris Wilmer'
_symmetry_space_group_name_H-M	'P1'
_symmetry_Int_Tables_number	1
_symmetry_cell_setting	triclinic
loop_
_symmetry_equiv_pos_as_xyz
  x,y,z
_cell_length_a	10.685980
_cell_length_b	14.909042
_cell_length_c	10.686551
_cell_angle_alpha	97.938673
_cell_angle_beta	98.408259
_cell_angle_gamma	90.836958
loop_
_atom_site_label
_atom_site_type_symbol
_atom_site_fract_x
_atom_site_fract_y
_atom_site_fract_z
Zn1	Zn	2.010934	-0.202206	0.851556
Zn2	Zn	2.510934	0.297794	1.351556
Zn3	Zn	2.006753	-0.365638	0.627049
Zn4	Zn	2.506753	0.134362	1.127049
Zn5	Zn	1.784242	-0.227315	0.621139
Zn6	Zn	2.284242	0.272685	1.121139
Zn7	Zn	1.810870	-0.365551	0.822966
Zn8	Zn	2.310870	0.134449	1.322966
O9	O	1.903200	-0.290177	0.730677
O10	O	2.403200	0.209823	1.230677
O11	O	2.187229	-0.213414	0.836213
O12	O	2.687229	0.286586	1.336213
O13	O	1.964343	-0.357834	0.447843
O14	O	2.464343	0.142166	0.947843
O15	O	1.804919	-0.097735	0.661196
O16	O	2.304919	0.402265	1.161196
O17	O	2.184157	-0.333487	0.671268
O18	O	2.684157	0.166513	1.171268
O19	O	1.971468	-0.079288	0.830482
O20	O	2.471468	0.420712	1.330482
O21	O	1.800865	-0.256209	0.443501
O22	O	2.300865	0.243791	0.943501
O23	O	1.610925	-0.256124	0.633474
O24	O	2.110925	0.243876	1.133474
O25	O	1.850303	-0.333338	1.005180
O26	O	2.350303	0.166662	1.505180
O27	O	1.630489	-0.357685	0.781755
O28	O	2.130489	0.142315	1.281755
O29	O	1.997289	-0.213329	1.026185
O30	O	2.497289	0.286671	1.526185
O31	O	1.990163	-0.491876	0.643546
O32	O	2.490163	0.008124	1.143546
O33	O	1.846249	-0.491811	0.787485
O34	O	2.346249	0.008189	1.287485
C35	C	1.574852	-0.309620	0.703871
C36	C	2.074852	0.190380	1.203871
C37	C	1.434387	-0.317957	0.692432
C38	C	1.934387	0.182043	1.192432
C39	C	1.920678	-0.524575	0.713085
C40	C	2.420678	-0.024575	1.213085
C41	C	1.928274	-0.624842	0.705611
C42	C	2.428274	-0.124842	1.205611
C43	C	1.792524	-0.813268	0.841296
C44	C	2.292524	-0.313268	1.341296
C45	C	1.799658	-0.907478	0.834278
C46	C	2.299658	-0.407478	1.334278
C47	C	1.949667	-0.907473	0.684549
C48	C	2.449667	-0.407473	1.184549
C49	C	1.942533	-0.813263	0.691568
C50	C	2.442533	-0.313263	1.191568
C51	C	1.863961	-0.766164	0.769945
C52	C	2.363961	-0.266164	1.269945
C53	C	1.856835	-0.671952	0.776970
C54	C	2.356835	-0.171952	1.276970
C55	C	2.006837	-0.671949	0.627235
C56	C	2.506837	-0.171949	1.127235
C57	C	2.013970	-0.766159	0.620217
C58	C	2.513970	-0.266159	1.120217
C59	C	2.232830	-0.270660	0.757589
C60	C	2.732830	0.229340	1.257589
C61	C	2.373299	-0.262342	0.769057
C62	C	2.873299	0.237658	1.269057
C63	C	1.927233	-0.270523	1.063239
C64	C	2.427233	0.229477	1.563239
C65	C	1.937474	-0.262147	1.204957
C66	C	2.437474	0.237853	1.704957
C67	C	1.885690	-0.054861	0.748369
C68	C	2.385690	0.445139	1.248369
C69	C	1.878228	0.045417	0.755908
C70	C	2.378228	0.545417	1.255908
C71	C	1.879328	-0.309686	0.399420
C72	C	2.379328	0.190314	0.899420
C73	C	1.869313	-0.317793	0.257742
C74	C	2.369313	0.182207	0.757742
H75	H	1.792861	-0.633605	0.840792
H76	H	2.292861	-0.133605	1.340792
C77	C	1.990619	-0.103321	1.262696
C78	C	2.490619	0.396679	1.762696
C79	C	2.026841	-0.189175	1.290304
C80	C	2.526841	0.310825	1.790304
H81	H	2.045795	-0.058274	1.315380
H82	H	2.545795	0.441726	1.815380
H83	H	1.906292	-0.093880	1.278529
H84	H	2.406292	0.406120	1.778529
H85	H	1.995225	-0.099581	1.175456
H86	H	2.495225	0.400419	1.675456
H87	H	2.022225	-0.192918	1.377542
H88	H	2.522225	0.307082	1.877542
H89	H	2.111189	-0.198619	1.274481
H90	H	2.611189	0.301381	1.774481
H91	H	1.728557	-0.774919	0.905124
H92	H	2.228557	-0.274919	1.405124
H93	H	2.013624	-0.945838	0.620725
H94	H	2.513624	-0.445838	1.120725
C95	C	1.802369	-1.004299	0.996431
C96	C	2.302369	-0.504299	1.496431
C97	C	1.721139	-0.959258	0.912713
C98	C	2.221139	-0.459258	1.412713
H99	H	1.753889	-1.036269	1.044848
H100	H	2.253889	-0.536269	1.544848
H101	H	1.858117	-0.961353	1.052478
H102	H	2.358117	-0.461353	1.552478
H103	H	1.850176	-1.045831	0.948737
H104	H	2.350176	-0.545831	1.448737
H105	H	1.673339	-0.917720	0.960407
H106	H	2.173339	-0.417720	1.460407
H107	H	1.665370	-1.002208	0.856658
H108	H	2.165370	-0.502208	1.356658
C109	C	2.091485	-0.910577	0.542946
C110	C	2.591485	-0.410577	1.042946
C111	C	2.100317	-0.817937	0.534050
C112	C	2.600317	-0.317937	1.034050
H113	H	2.144796	-0.942539	0.489750
H114	H	2.644796	-0.442539	0.989750
H115	H	2.006413	-0.932196	0.516136
H116	H	2.506413	-0.432196	1.016136
H117	H	2.117280	-0.919823	0.628985
H118	H	2.617280	-0.419823	1.128985
H119	H	2.074513	-0.808691	0.448012
H120	H	2.574513	-0.308691	0.948012
H121	H	2.185407	-0.796312	0.560853
H122	H	2.685407	-0.296312	1.060853
H123	H	1.428457	-0.208344	0.843408
H124	H	1.928457	0.291656	1.343408
C125	C	2.062512	-0.527533	0.571501
C126	C	2.562512	-0.027533	1.071501
C127	C	2.085362	-0.620171	0.548793
C128	C	2.585362	-0.120171	1.048793
H129	H	2.110986	-0.495569	0.523071
H130	H	2.610986	0.004431	1.023071
H131	H	2.085958	-0.505909	0.659831
H132	H	2.585958	-0.005909	1.159831
H133	H	1.975094	-0.518295	0.546979
H134	H	2.475094	-0.018295	1.046979
H135	H	2.172778	-0.629409	0.573324
H136	H	2.672778	-0.129409	1.073324
H137	H	2.061924	-0.641802	0.460444
H138	H	2.561924	-0.141802	0.960444
H139	H	1.803126	-0.371844	1.194515
H140	H	2.303126	0.128156	1.694515
H141	H	1.379221	-0.371954	0.618068
H142	H	1.879221	0.128046	1.118068
