data_functionalizedCrystal
_audit_creation_method	'MofGen! by Chris Wilmer'
_symmetry_space_group_name_H-M	'P1'
_symmetry_Int_Tables_number	1
_symmetry_cell_setting	triclinic
loop_
_symmetry_equiv_pos_as_xyz
  x,y,z
_cell_length_a	19.805407
_cell_length_b	25.639240
_cell_length_c	19.805399
_cell_angle_alpha	90.035908
_cell_angle_beta	90.019573
_cell_angle_gamma	90.032757
loop_
_atom_site_label
_atom_site_type_symbol
_atom_site_fract_x
_atom_site_fract_y
_atom_site_fract_z
Zn1	Zn	1.034706	-0.208163	0.382680
Zn2	Zn	1.034608	-0.295597	0.269476
Zn3	Zn	0.921520	-0.208177	0.269505
Zn4	Zn	0.921471	-0.295569	0.382623
O5	O	0.978076	-0.251877	0.326071
O6	O	1.129409	-0.219767	0.367676
O7	O	1.019586	-0.284018	0.174763
O8	O	0.936596	-0.135010	0.284555
O9	O	1.129338	-0.284004	0.284505
O10	O	1.019753	-0.135000	0.367704
O11	O	0.936501	-0.219791	0.174785
O12	O	0.826797	-0.219764	0.284498
O13	O	0.936513	-0.283957	0.477347
O14	O	0.826761	-0.283971	0.367605
O15	O	1.019705	-0.219740	0.477389
O16	O	1.019539	-0.368758	0.284448
O17	O	0.936418	-0.368738	0.367577
C18	C	0.802220	-0.251867	0.326049
C19	C	0.726988	-0.251875	0.326056
C20	C	0.691643	-0.285357	0.369259
C21	C	0.620955	-0.285358	0.369269
C22	C	0.585613	-0.251879	0.326071
C23	C	0.620963	-0.218393	0.282865
C24	C	0.691650	-0.218390	0.282860
C25	C	0.335890	-0.218404	0.282888
C26	C	0.265198	-0.218411	0.282895
C27	C	0.265194	-0.285373	0.369297
C28	C	0.335881	-0.285370	0.369291
C29	C	0.371225	-0.251882	0.326089
C30	C	0.447874	-0.251881	0.326080
C31	C	0.508966	-0.251883	0.326076
C32	C	0.977981	-0.387719	0.326018
C33	C	0.978002	-0.445833	0.326018
C34	C	1.021398	-0.806152	0.369445
C35	C	1.021418	-0.860757	0.369459
O36	O	1.058201	-0.888956	0.406328
N37	N	0.978170	-0.888116	0.326136
C38	C	0.934895	-0.860868	0.282802
O39	O	0.898112	-0.889153	0.245955
C40	C	0.934873	-0.806264	0.282792
C41	C	0.978128	-0.778908	0.326113
C42	C	1.064649	-0.778796	0.412762
C43	C	1.064629	-0.724195	0.412748
C44	C	1.021359	-0.696951	0.369415
C45	C	0.978108	-0.724307	0.326098
C46	C	0.891595	-0.779017	0.239462
C47	C	0.891575	-0.724410	0.239456
C48	C	0.934830	-0.697054	0.282777
C49	C	0.934819	-0.642463	0.282751
N50	N	0.978066	-0.615104	0.326073
C51	C	1.021336	-0.642348	0.369406
C52	C	0.934946	-0.975538	0.282827
C53	C	0.934972	-1.030140	0.282833
C54	C	1.021493	-1.030026	0.369491
C55	C	1.021470	-0.975422	0.369481
C56	C	0.978193	-0.948179	0.326149
C57	C	1.021293	-0.527683	0.369371
C58	C	1.021272	-0.473077	0.369350
C59	C	0.934748	-0.473197	0.282695
C60	C	0.934772	-0.527798	0.282713
C61	C	0.978046	-0.555039	0.326056
O62	O	0.898053	-0.614229	0.245903
O63	O	1.058108	-0.614056	0.406253
C64	C	1.154619	-0.251887	0.326093
C65	C	1.229851	-0.251891	0.326103
C66	C	0.978114	-0.251844	0.502614
C67	C	0.978131	-0.251830	0.577846
C68	C	0.978191	-0.115504	0.326139
C69	C	0.978240	-0.057389	0.326168
C70	C	0.978078	-0.251872	0.150215
C71	C	0.978193	-0.251738	0.074983
C72	C	1.021450	-0.218390	0.613213
C73	C	1.021457	-0.218375	0.683902
C74	C	0.978147	-0.251802	0.719221
C75	C	0.934823	-0.285243	0.683849
C76	C	0.934813	-0.285255	0.613162
C77	C	0.934861	-0.285194	0.968923
C78	C	0.934876	-0.285181	1.039615
C79	C	1.021505	-0.218314	1.039662
C80	C	1.021495	-0.218326	0.968975
C81	C	0.978169	-0.251765	0.933609
C82	C	0.978161	-0.251780	0.856960
C83	C	0.978158	-0.251790	0.795869
H84	H	0.592182	-0.191131	0.247696
H85	H	0.364653	-0.312634	0.404465
H86	H	0.720414	-0.312622	0.404434
N87	N	1.065466	-0.445143	0.413604
N88	N	1.104095	-0.469479	0.452289
H89	H	1.135307	-0.449752	0.483543
N90	N	1.065499	-0.555496	0.413650
N91	N	1.104110	-0.531056	0.452319
H92	H	1.135333	-0.550698	0.483589
N93	N	1.065691	-0.184251	0.577128
N94	N	1.108801	-0.202655	0.537682
H95	H	1.140046	-0.178543	0.512197
N96	N	1.065766	-0.184151	1.075777
N97	N	1.128218	-0.187625	1.067891
H98	H	1.159479	-0.163499	1.093394
H99	H	1.056765	-0.191108	0.940221
H100	H	1.099884	-0.800972	0.448053
N101	N	0.727759	-0.184180	0.238739
N102	N	0.719898	-0.135941	0.243358
H103	H	0.745399	-0.111777	0.212200
N104	N	0.890617	-0.319355	0.932798
N105	N	0.914392	-0.352680	0.893338
H106	H	0.883142	-0.376807	0.867821
N107	N	1.065700	-1.057852	0.413759
N108	N	1.128157	-1.051717	0.409332
H109	H	1.159377	-1.071369	0.440595
N110	N	0.371976	-0.184198	0.238751
N111	N	0.340410	-0.154313	0.200181
H112	H	0.365898	-0.130154	0.169005
H113	H	0.899557	-0.312458	0.712612
H114	H	1.099849	-0.701925	0.448025
H115	H	1.056692	-0.953152	0.404756
N116	N	0.890555	-0.319413	0.577043
N117	N	0.851886	-0.349255	0.608584
H118	H	0.820624	-0.373379	0.583077
H119	H	0.899756	-1.052409	0.247550
N120	N	0.229091	-0.319586	0.413424
N121	N	0.189616	-0.352881	0.389527
H122	H	0.164120	-0.377045	0.420689
H123	H	0.592180	-0.312624	0.404449
H124	H	0.899605	-0.312402	1.068370
H125	H	0.899707	-0.953359	0.247536
N126	N	0.847397	-0.806944	0.195215
N127	N	0.808761	-0.782602	0.156543
H128	H	0.777539	-0.802323	0.125294
H129	H	0.856332	-0.702231	0.204172
N130	N	0.229106	-0.184208	0.238762
N131	N	0.260670	-0.154311	0.200191
H132	H	0.235180	-0.130157	0.169022
N133	N	0.890563	-0.445354	0.238431
N134	N	0.890558	-0.396601	0.238429
H135	H	0.859350	-0.376935	0.207169
H136	H	0.899555	-0.550072	0.247433
H137	H	1.056734	-0.191146	0.712695
