data_functionalizedCrystal
_audit_creation_method	'MofGen! by Chris Wilmer'
_symmetry_space_group_name_H-M	'P1'
_symmetry_Int_Tables_number	1
_symmetry_cell_setting	triclinic
loop_
_symmetry_equiv_pos_as_xyz
  x,y,z
_cell_length_a	14.519731
_cell_length_b	14.519709
_cell_length_c	12.996460
_cell_angle_alpha	89.992910
_cell_angle_beta	90.005673
_cell_angle_gamma	96.315501
loop_
_atom_site_label
_atom_site_type_symbol
_atom_site_fract_x
_atom_site_fract_y
_atom_site_fract_z
O1	O	-1.223857	0.120986	-0.085571
O2	O	-0.723857	0.620986	0.414429
O3	O	-0.955382	0.135203	-0.085573
O4	O	-0.455382	0.635203	0.414427
O5	O	-1.096738	-0.006143	-0.085563
O6	O	-0.596738	0.493857	0.414437
O7	O	-1.082501	0.262332	-0.085582
O8	O	-0.582501	0.762332	0.414418
O9	O	-1.096723	-0.006151	0.085571
O10	O	-0.596723	0.493849	0.585571
O11	O	-0.955368	0.135195	0.085561
O12	O	-0.455368	0.635195	0.585561
O13	O	-1.223842	0.120979	0.085563
O14	O	-0.723842	0.620979	0.585563
Cu15	Cu	-1.089603	0.128086	0.101187
Cu16	Cu	-0.589603	0.628086	0.601187
Cu17	Cu	-1.089621	0.128095	-0.101198
Cu18	Cu	-0.589621	0.628095	0.398802
O19	O	-1.082487	0.262325	0.085552
O20	O	-0.582487	0.762325	0.585552
C21	C	-1.096067	-0.040507	0.000004
C22	C	-0.596067	0.459493	0.500004
C23	C	-1.094079	-0.142889	0.000005
C24	C	-0.594079	0.357111	0.500005
C25	C	-0.921016	0.134532	-0.000006
C26	C	-0.421016	0.634532	0.499994
C27	C	-0.818635	0.132536	-0.000007
C28	C	-0.318635	0.632536	0.499993
C29	C	-1.086759	-0.517785	-0.000022
C30	C	-0.586759	-0.017785	0.499978
C31	C	-1.088792	-0.413477	-0.000014
C32	C	-0.588792	0.086523	0.499986
C33	C	-1.090419	-0.330340	-0.000008
C34	C	-0.590419	0.169660	0.499992
C35	C	-1.092452	-0.226025	-0.000002
C36	C	-0.592452	0.273975	0.499998
C37	C	-1.258209	0.121649	-0.000007
C38	C	-0.758209	0.621649	0.499993
C39	C	-1.360589	0.123645	-0.000013
C40	C	-0.860589	0.623645	0.499987
C41	C	-0.735491	0.130915	-0.000011
C42	C	-0.235491	0.630915	0.499989
C43	C	-0.631182	0.128888	-0.000011
C44	C	-0.131182	0.628888	0.499989
C45	C	-0.548043	0.127280	-0.000011
C46	C	-0.048043	0.627280	0.499989
C47	C	-0.443728	0.125253	-0.000013
C48	C	0.056272	0.625253	0.499987
C49	C	-1.083157	0.296688	-0.000017
C50	C	-0.583157	0.796688	0.499983
C51	C	-1.085146	0.399070	-0.000024
C52	C	-0.585146	0.899070	0.499976
N53	N	-1.089598	0.128079	0.243535
N54	N	-0.589598	0.628079	0.743535
N55	N	-1.089634	0.128095	-0.243545
N56	N	-0.589634	0.628095	0.256455
C57	C	-1.089620	0.128096	0.663349
C58	C	-0.589620	0.628096	1.163349
C59	C	-1.089611	0.128094	0.546544
C60	C	-0.589611	0.628094	1.046544
C61	C	-1.089609	0.128088	0.453445
C62	C	-0.589609	0.628088	0.953445
C63	C	-1.089600	0.128085	0.336633
C64	C	-0.589600	0.628085	0.836633
