data_functionalizedCrystal
_audit_creation_method	'MofGen! by Chris Wilmer'
_symmetry_space_group_name_H-M	'P1'
_symmetry_Int_Tables_number	1
_symmetry_cell_setting	triclinic
loop_
_symmetry_equiv_pos_as_xyz
  x,y,z
_cell_length_a	16.109304
_cell_length_b	14.519731
_cell_length_c	15.186229
_cell_angle_alpha	89.996550
_cell_angle_beta	89.999066
_cell_angle_gamma	83.575745
loop_
_atom_site_label
_atom_site_type_symbol
_atom_site_fract_x
_atom_site_fract_y
_atom_site_fract_z
O1	O	0.109069	1.223623	-0.073225
O2	O	0.121885	0.955122	-0.073225
O3	O	-0.005541	1.096747	-0.073226
O4	O	0.236494	1.081998	-0.073225
O5	O	-0.005543	1.096737	0.073232
O6	O	0.121883	0.955112	0.073232
O7	O	0.109067	1.223613	0.073232
Zn8	Zn	0.115474	1.089361	0.096485
Zn9	Zn	0.115477	1.089374	-0.096478
O10	O	0.236492	1.081988	0.073233
C11	C	0.121283	0.920759	0.000003
C12	C	0.119484	0.818382	0.000002
C13	C	-0.036518	1.096144	0.000001
C14	C	-0.128816	1.094352	-0.000005
C15	C	0.118022	0.735241	-0.000001
C16	C	0.116194	0.630936	-0.000001
C17	C	0.114744	0.547800	-0.000001
C18	C	0.112918	0.443489	-0.000003
C19	C	-0.341160	1.090215	-0.079836
C20	C	-0.427883	1.088523	-0.079835
C21	C	-0.427882	1.088517	0.079841
C22	C	-0.341160	1.090203	0.079839
C23	C	-0.297802	1.091057	-0.000002
C24	C	-0.471247	1.087678	0.000001
C25	C	-0.565276	1.085843	0.000002
C26	C	-0.203766	1.092891	-0.000003
C27	C	0.267469	1.082591	0.000004
C28	C	0.359768	1.084383	0.000004
C29	C	0.109668	1.257976	0.000002
C30	C	0.111468	1.360353	-0.000003
N31	N	0.115472	1.089360	0.228178
N32	N	0.115472	1.089383	-0.228171
C33	C	0.059067	1.152093	0.453901
C34	C	0.059065	1.152095	0.546091
C35	C	0.171880	1.026643	0.546100
C36	C	0.171877	1.026636	0.453912
C37	C	0.115472	1.089366	0.407815
C38	C	0.115473	1.089376	0.592192
C39	C	0.115471	1.089379	0.692148
C40	C	0.115472	1.089363	0.307852
H41	H	-0.305860	1.090908	-0.144847
H42	H	-0.463182	1.087835	-0.144844
H43	H	0.217805	0.975571	0.583641
C44	C	-0.234411	1.012863	0.172473
C45	C	-0.293494	1.091127	0.167600
H46	H	-0.204988	1.013429	0.226653
H47	H	-0.196182	1.013615	0.124930
H48	H	-0.261997	0.958466	0.169157
H49	H	-0.265907	1.145524	0.170910
H50	H	-0.331728	1.090383	0.215157
H51	H	-0.463195	1.087824	0.144845
H52	H	0.217809	0.975553	0.416386
H53	H	0.013138	1.203170	0.416371
H54	H	0.013135	1.203172	0.583611
