data_functionalizedCrystal
_audit_creation_method	'MofGen! by Chris Wilmer'
_symmetry_space_group_name_H-M	'P1'
_symmetry_Int_Tables_number	1
_symmetry_cell_setting	triclinic
loop_
_symmetry_equiv_pos_as_xyz
  x,y,z
_cell_length_a	23.532407
_cell_length_b	22.610064
_cell_length_c	23.532407
_cell_angle_alpha	89.993588
_cell_angle_beta	97.151283
_cell_angle_gamma	90.002839
loop_
_atom_site_label
_atom_site_type_symbol
_atom_site_fract_x
_atom_site_fract_y
_atom_site_fract_z
O1	O	0.755264	0.049124	-0.069127
O2	O	1.255264	0.549124	0.430873
O3	O	0.589400	0.049143	-0.079130
O4	O	1.089400	0.549143	0.420870
O5	O	0.677333	0.049113	0.008803
O6	O	1.177333	0.549113	0.508803
O7	O	0.667330	0.049154	-0.157060
O8	O	1.167330	0.549154	0.342940
O9	O	0.677318	-0.049256	0.008790
O10	O	1.177318	0.450744	0.508790
O11	O	0.589385	-0.049226	-0.079143
O12	O	1.089385	0.450774	0.420857
O13	O	0.755248	-0.049245	-0.069140
O14	O	1.255248	0.450755	0.430860
Zn15	Zn	0.672314	-0.064854	-0.074144
Zn16	Zn	1.172314	0.435146	0.425856
Zn17	Zn	0.672334	0.064752	-0.074127
Zn18	Zn	1.172334	0.564752	0.425873
O19	O	0.667315	-0.049215	-0.157073
O20	O	1.167315	0.450785	0.342927
C21	C	0.568176	-0.000039	-0.078882
C22	C	1.068176	0.499961	0.421118
C23	C	0.504959	-0.000033	-0.078116
C24	C	1.004959	0.499967	0.421884
C25	C	0.105856	-0.000048	-0.125350
C26	C	0.605856	0.499952	0.374650
C27	C	0.046456	-0.000052	-0.124638
C28	C	0.546456	0.499948	0.375362
O29	O	0.009712	-0.000063	-0.168424
O30	O	0.509712	0.499937	0.331576
N31	N	0.023830	-0.000064	-0.072362
N32	N	0.523830	0.499936	0.427638
C33	C	0.060607	-0.000078	-0.020794
C34	C	0.560607	0.499922	0.479206
O35	O	0.035908	-0.000088	0.023737
O36	O	0.535908	0.499912	0.523737
C37	C	0.120006	-0.000078	-0.021506
C38	C	0.620006	0.499922	0.478494
C39	C	0.142629	-0.000060	-0.073785
C40	C	0.642629	0.499940	0.426215
C41	C	0.128480	-0.000031	-0.177625
C42	C	0.628480	0.499969	0.322375
C43	C	0.187876	-0.000026	-0.178336
C44	C	0.687876	0.499974	0.321664
C45	C	0.224649	-0.000038	-0.126772
C46	C	0.724649	0.499962	0.373228
C47	C	0.202025	-0.000055	-0.074497
C48	C	0.702025	0.499945	0.425503
C49	C	0.156783	-0.000096	0.030062
C50	C	0.656783	0.499904	0.530062
C51	C	0.216185	-0.000097	0.029345
C52	C	0.716185	0.499903	0.529345
C53	C	0.238808	-0.000079	-0.022934
C54	C	0.738808	0.499921	0.477066
C55	C	0.298194	-0.000063	-0.023643
C56	C	0.798194	0.499937	0.476357
N57	N	0.320821	-0.000051	-0.075920
N58	N	0.820821	0.499949	0.424080
C59	C	0.284048	-0.000039	-0.127484
C60	C	0.784048	0.499961	0.372516
C61	C	-0.064135	-0.000078	-0.019302
C62	C	0.435865	0.499922	0.480698
C63	C	-0.123533	-0.000073	-0.018589
C64	C	0.376467	0.499927	0.481411
C65	C	-0.137680	-0.000048	-0.122434
C66	C	0.362320	0.499952	0.377566
C67	C	-0.078281	-0.000049	-0.123146
C68	C	0.421719	0.499951	0.376854
C69	C	-0.041509	-0.000066	-0.071578
C70	C	0.458491	0.499934	0.428422
C71	C	0.408784	-0.000028	-0.128974
C72	C	0.908784	0.499972	0.371026
C73	C	0.468186	-0.000021	-0.129680
C74	C	0.968186	0.499979	0.370320
C75	C	0.482329	-0.000048	-0.025836
C76	C	0.982329	0.499952	0.474164
C77	C	0.422932	-0.000053	-0.025129
C78	C	0.922932	0.499947	0.474871
C79	C	0.386160	-0.000044	-0.076702
C80	C	0.886160	0.499956	0.423298
O81	O	0.334974	-0.000054	0.020119
O82	O	0.834974	0.499946	0.520119
O83	O	0.308756	-0.000036	-0.172007
O84	O	0.808756	0.499964	0.327993
N85	N	0.672304	-0.153306	-0.074155
N86	N	1.172304	0.346694	0.425845
C87	C	0.711273	-0.561961	-0.035196
C88	C	1.211273	-0.061961	0.464804
C89	C	0.711276	-0.623881	-0.035192
C90	C	1.211276	-0.123881	0.464808
O91	O	0.744384	-0.655911	-0.002076
O92	O	1.244384	-0.155911	0.497924
N93	N	0.672334	-0.654843	-0.074115
N94	N	1.172334	-0.154843	0.425885
C95	C	0.633383	-0.623883	-0.113041
C96	C	1.133383	-0.123883	0.386959
O97	O	0.600260	-0.655905	-0.146147
O98	O	1.100260	-0.155905	0.353853
C99	C	0.633378	-0.561964	-0.113042
C100	C	1.133378	-0.061964	0.386958
C101	C	0.672326	-0.531005	-0.074120
C102	C	1.172326	-0.031005	0.425880
C103	C	0.750218	-0.531001	0.003724
C104	C	1.250218	-0.031001	0.503724
C105	C	0.750215	-0.469086	0.003719
C106	C	1.250215	0.030914	0.503719
C107	C	0.711268	-0.438130	-0.035206
C108	C	1.211268	0.061870	0.464794
C109	C	0.672323	-0.469089	-0.074125
C110	C	1.172323	0.030911	0.425875
C111	C	0.594424	-0.531005	-0.151965
C112	C	1.094424	-0.031005	0.348035
C113	C	0.594422	-0.469082	-0.151962
C114	C	1.094422	0.030918	0.348038
C115	C	0.633370	-0.438122	-0.113040
C116	C	1.133370	0.061878	0.386960
C117	C	0.633374	-0.376217	-0.113054
C118	C	1.133374	0.123783	0.386946
N119	N	0.672316	-0.345255	-0.074131
N120	N	1.172316	0.154745	0.425869
C121	C	0.711263	-0.376211	-0.035207
C122	C	1.211263	0.123789	0.464793
C123	C	0.633396	-0.753917	-0.113035
C124	C	1.133396	-0.253917	0.386965
C125	C	0.633403	-0.815834	-0.113037
C126	C	1.133403	-0.315834	0.386963
C127	C	0.711296	-0.815828	-0.035187
C128	C	1.211296	-0.315828	0.464813
C129	C	0.711291	-0.753909	-0.035188
C130	C	1.211291	-0.253909	0.464812
C131	C	0.672338	-0.722954	-0.074112
C132	C	1.172338	-0.222954	0.425888
C133	C	0.711255	-0.246183	-0.035220
C134	C	1.211255	0.253817	0.464780
C135	C	0.711251	-0.184262	-0.035230
C136	C	1.211251	0.315738	0.464770
C137	C	0.633357	-0.184274	-0.113078
C138	C	1.133357	0.315726	0.386922
C139	C	0.633363	-0.246190	-0.113071
C140	C	1.133363	0.253810	0.386929
C141	C	0.672314	-0.277143	-0.074137
C142	C	1.172314	0.222857	0.425863
O143	O	0.600281	-0.344148	-0.146151
O144	O	1.100281	0.155852	0.353849
O145	O	0.744376	-0.344181	-0.002101
O146	O	1.244376	0.155819	0.497899
C147	C	0.776472	-0.000061	-0.069388
C148	C	1.276472	0.499939	0.430612
C149	C	0.839689	-0.000064	-0.070154
C150	C	1.339689	0.499936	0.429846
C151	C	0.677071	-0.000075	0.030013
C152	C	1.177071	0.499925	0.530013
C153	C	0.676305	-0.000086	0.093230
C154	C	1.176305	0.499914	0.593230
N155	N	0.672349	0.153204	-0.074111
N156	N	1.172349	0.653204	0.425889
C157	C	0.621110	-0.000052	0.359397
C158	C	1.121110	0.499948	0.859397
C159	C	0.621821	-0.000055	0.299997
C160	C	1.121821	0.499945	0.799997
O161	O	0.578035	-0.000030	0.263252
O162	O	1.078035	0.499970	0.763252
N163	N	0.674097	-0.000067	0.277371
N164	N	1.174097	0.499933	0.777371
C165	C	0.725666	-0.000070	0.314148
C166	C	1.225666	0.499930	0.814148
O167	O	0.770196	-0.000080	0.289449
O168	O	1.270196	0.499920	0.789449
C169	C	0.724953	-0.000063	0.373547
C170	C	1.224953	0.499937	0.873547
C171	C	0.672674	-0.000058	0.396170
C172	C	1.172674	0.499942	0.896170
C173	C	0.568834	-0.000046	0.382020
C174	C	1.068834	0.499954	0.882020
C175	C	0.568123	-0.000044	0.441417
C176	C	1.068123	0.499956	0.941417
C177	C	0.619687	-0.000050	0.478189
C178	C	1.119687	0.499950	0.978189
C179	C	0.671963	-0.000056	0.455566
C180	C	1.171963	0.499944	0.955566
C181	C	0.776521	-0.000063	0.410324
C182	C	1.276521	0.499937	0.910324
C183	C	0.775805	-0.000056	0.469726
C184	C	1.275805	0.499944	0.969726
C185	C	0.723525	-0.000050	0.492349
C186	C	1.223525	0.499950	0.992349
C187	C	0.722816	-0.000060	0.551735
C188	C	1.222816	0.499940	1.051735
N189	N	0.670539	-0.000048	0.574361
N190	N	1.170539	0.499952	1.074361
C191	C	0.618975	-0.000043	0.537589
C192	C	1.118975	0.499957	1.037589
C193	C	0.727157	-0.000083	0.189406
C194	C	1.227157	0.499917	0.689406
C195	C	0.727870	-0.000094	0.130008
C196	C	1.227870	0.499906	0.630008
C197	C	0.624025	-0.000078	0.115860
C198	C	1.124025	0.499922	0.615860
C199	C	0.623313	-0.000071	0.175260
C200	C	1.123313	0.499929	0.675260
C201	C	0.674881	-0.000071	0.212032
C202	C	1.174881	0.499929	0.712032
C203	C	0.617485	-0.000040	0.662325
C204	C	1.117485	0.499960	1.162325
C205	C	0.616779	-0.000041	0.721727
C206	C	1.116779	0.499959	1.221727
C207	C	0.720623	-0.000055	0.735869
C208	C	1.220623	0.499945	1.235869
C209	C	0.721330	-0.000057	0.676473
C210	C	1.221330	0.499943	1.176473
C211	C	0.669757	-0.000048	0.639701
C212	C	1.169757	0.499952	1.139701
O213	O	0.766579	-0.000083	0.588514
O214	O	1.266579	0.499917	1.088514
O215	O	0.574452	-0.000025	0.562296
O216	O	1.074452	0.499975	1.062296
C217	C	0.667577	-0.000035	0.821717
C218	C	1.167577	0.499965	1.321717
C219	C	0.668343	-0.000047	0.758500
C220	C	1.168343	0.499953	1.258500
H221	H	0.512280	-0.000056	0.016146
H222	H	1.012280	0.499944	0.516146
H223	H	0.526842	-0.000040	0.352085
H224	H	1.026842	0.499960	0.852085
O225	O	0.572479	-0.000034	0.197138
O226	O	1.072479	0.499966	0.697138
C227	C	0.527124	-0.000047	0.151937
C228	C	1.027124	0.499953	0.651937
H229	H	0.542861	0.018566	0.111667
H230	H	1.042861	0.518566	0.611667
H231	H	0.490608	0.028521	0.164139
H232	H	0.990608	0.528521	0.664139
H233	H	0.511226	-0.047239	0.143454
H234	H	1.011226	0.452761	0.643454
H235	H	0.206289	-0.000012	-0.220908
H236	H	0.706289	0.499988	0.279092
O237	O	-0.028359	-0.000005	0.030758
O238	O	0.471641	0.499995	0.530758
C239	C	0.006415	0.050949	0.033467
C240	C	0.506415	0.550949	0.533467
H241	H	0.009178	0.067942	-0.011717
H242	H	0.509178	0.567942	0.488283
H243	H	0.051176	0.039489	0.054948
H244	H	0.551176	0.539489	0.554948
H245	H	-0.012989	0.086619	0.059363
H246	H	0.487011	0.586619	0.559363
H247	H	0.762605	-0.000062	0.765820
H248	H	1.262605	0.499938	1.265820
H249	H	0.246123	-0.000111	0.071339
H250	H	0.746123	0.499889	0.571339
H251	H	0.486602	-0.000006	-0.172255
H252	H	0.986602	0.499994	0.327745
H253	H	0.582038	-0.000074	0.085909
H254	H	1.082038	0.499926	0.585909
O255	O	0.556664	-0.561097	-0.189826
O256	O	1.056664	-0.061097	0.310174
C257	C	0.586951	-0.596921	-0.224806
C258	C	1.086951	-0.096921	0.275194
H259	H	0.631858	-0.578264	-0.225548
H260	H	1.131858	-0.078264	0.274452
H261	H	0.563450	-0.597616	-0.270189
H262	H	1.063450	-0.097616	0.229811
H263	H	0.590036	-0.643851	-0.206968
H264	H	1.090036	-0.143851	0.293032
O265	O	0.778618	-0.000027	0.107968
O266	O	1.278618	0.499973	0.607968
C267	C	0.782156	0.050925	0.074040
C268	C	1.282156	0.550925	0.574040
H269	H	0.737187	0.067916	0.058991
H270	H	1.237187	0.567916	0.558991
H271	H	0.804635	0.039463	0.035270
H272	H	1.304635	0.539463	0.535270
H273	H	0.807507	0.086597	0.100423
H274	H	1.307507	0.586597	0.600423
H275	H	0.742969	-0.159057	-0.003535
H276	H	1.242969	0.340943	0.496465
O277	O	0.595538	-0.723941	-0.150910
O278	O	1.095538	-0.223941	0.349090
C279	C	0.561164	-0.764553	-0.185251
C280	C	1.061164	-0.264553	0.314749
H281	H	0.584516	-0.808686	-0.185768
H282	H	1.084516	-0.308686	0.314232
H283	H	0.552216	-0.746665	-0.230781
H284	H	1.052216	-0.246665	0.269219
H285	H	0.518964	-0.771146	-0.166975
H286	H	1.018964	-0.271146	0.333025
H287	H	0.781929	-0.443882	0.035414
H288	H	1.281929	0.056118	0.535414
O289	O	-0.056403	-0.000062	-0.173980
O290	O	0.443597	0.499938	0.326020
C291	C	-0.101604	-0.000033	-0.219335
C292	C	0.398396	0.499967	0.280665
H293	H	-0.141871	-0.018659	-0.203604
H294	H	0.358129	0.481341	0.296396
H295	H	-0.089398	-0.028584	-0.255861
H296	H	0.410602	0.471416	0.244139
H297	H	-0.110093	0.047164	-0.235217
H298	H	0.389907	0.547164	0.264783
O299	O	0.373094	0.000089	-0.179086
O300	O	0.873094	0.500089	0.320914
C301	C	0.383323	0.051039	-0.210839
C302	C	0.883323	0.551039	0.289161
H303	H	0.403788	0.086638	-0.180644
H304	H	0.903788	0.586638	0.319356
H305	H	0.341054	0.068147	-0.233926
H306	H	0.841054	0.568147	0.266074
H307	H	0.413396	0.039533	-0.243623
H308	H	0.913396	0.539533	0.256377
O309	O	0.092844	0.000009	-0.227771
O310	O	0.592844	0.500009	0.272229
C311	C	0.125562	0.000008	-0.274056
C312	C	0.625562	0.500008	0.225944
H313	H	0.169979	0.018623	-0.259328
H314	H	0.669979	0.518623	0.240672
H315	H	0.103463	0.028581	-0.310161
H316	H	0.603463	0.528581	0.189839
H317	H	0.129701	-0.047179	-0.290106
H318	H	0.629701	0.452821	0.209894
H319	H	0.601694	-0.841037	-0.144737
H320	H	1.101694	-0.341037	0.355263
O321	O	0.595474	-0.276176	-0.150900
O322	O	1.095474	0.223824	0.349100
C323	C	0.561109	-0.235572	-0.185266
C324	C	1.061109	0.264428	0.314734
H325	H	0.560606	-0.191433	-0.161926
H326	H	1.060606	0.308567	0.338074
H327	H	0.515577	-0.253460	-0.194176
H328	H	1.015577	0.246540	0.305824
H329	H	0.579353	-0.228991	-0.227485
H330	H	1.079353	0.271009	0.272515
O331	O	-0.173489	-0.000066	-0.172473
O332	O	0.326511	0.499934	0.327527
C333	C	-0.230765	-0.000055	-0.160628
C334	C	0.269235	0.499945	0.339372
H335	H	-0.232791	-0.018689	-0.115910
H336	H	0.267209	0.481311	0.384090
H337	H	-0.257863	-0.028608	-0.193518
H338	H	0.242137	0.471392	0.306482
H339	H	-0.247955	0.047137	-0.162880
H340	H	0.252045	0.547137	0.337120
O341	O	0.400887	-0.000144	0.025619
O342	O	0.900887	0.499856	0.525619
C343	C	0.366968	-0.051105	0.029139
C344	C	0.866968	0.448895	0.529139
H345	H	0.351925	-0.068079	-0.015836
H346	H	0.851925	0.431921	0.484164
H347	H	0.328194	-0.039660	0.051619
H348	H	0.828194	0.460340	0.551619
H349	H	0.393357	-0.086782	0.054480
H350	H	0.893357	0.413218	0.554480
H351	H	0.138374	-0.000111	0.072634
H352	H	0.638374	0.499889	0.572634
O353	O	0.749147	-0.276154	0.002621
O354	O	1.249147	0.223846	0.502621
C355	C	0.783505	-0.235540	0.036977
C356	C	1.283505	0.264460	0.536977
H357	H	0.784008	-0.191405	0.013621
H358	H	1.284008	0.308595	0.513621
H359	H	0.829037	-0.253421	0.045901
H360	H	1.329037	0.246579	0.545901
H361	H	0.765254	-0.228955	0.079190
H362	H	1.265254	0.271045	0.579190
O363	O	0.788111	-0.560975	0.041558
O364	O	1.288111	-0.060975	0.541558
C365	C	0.822467	-0.520359	0.075913
C366	C	1.322467	-0.020359	0.575913
H367	H	0.822962	-0.476221	0.052559
H368	H	1.322962	0.023779	0.552559
H369	H	0.868002	-0.538234	0.084831
H370	H	1.368002	-0.038234	0.584831
H371	H	0.804220	-0.513780	0.118129
H372	H	1.304220	-0.013780	0.618129
O373	O	0.556528	-0.438987	-0.189698
O374	O	1.056528	0.061013	0.310302
C375	C	0.521575	-0.403163	-0.159379
C376	C	1.021575	0.096837	0.340621
H377	H	0.520873	-0.421822	-0.114466
H378	H	1.020873	0.078178	0.385534
H379	H	0.476177	-0.402467	-0.182844
H380	H	0.976177	0.097533	0.317156
H381	H	0.539411	-0.356234	-0.156311
H382	H	1.039411	0.143766	0.343689
H383	H	0.743005	-0.728705	-0.003494
H384	H	1.243005	-0.228705	0.496506
H385	H	0.601648	-0.159060	-0.144772
H386	H	1.101648	0.340940	0.355228
O387	O	0.517288	-0.000007	0.463293
O388	O	1.017288	0.499993	0.963293
C389	C	0.471935	-0.000016	0.418090
C390	C	0.971935	0.499984	0.918090
H391	H	0.487676	0.018599	0.377823
H392	H	0.987676	0.518599	0.877823
H393	H	0.435420	0.028552	0.430292
H394	H	0.935420	0.528552	0.930292
H395	H	0.456036	-0.047206	0.409603
H396	H	0.956036	0.452794	0.909603
H397	H	0.743008	-0.841043	-0.003492
H398	H	1.243008	-0.341043	0.496508
H399	H	0.817798	-0.000053	0.499664
H400	H	1.317798	0.499947	0.999664
H401	H	0.574205	-0.000039	0.740143
H402	H	1.074205	0.499961	1.240143
H403	H	0.769152	-0.000088	0.219343
H404	H	1.269152	0.499912	0.719343
H405	H	0.763901	-0.000070	0.658053
H406	H	1.263901	0.499930	1.158053
H407	H	0.575489	-0.000033	0.632392
H408	H	1.075489	0.499967	1.132392
O409	O	0.827356	-0.000040	0.388452
O410	O	1.327356	0.499960	0.888452
C411	C	0.872708	-0.000055	0.433657
C412	C	1.372708	0.499945	0.933657
H413	H	0.856971	0.018571	0.473918
H414	H	1.356971	0.518571	0.973918
H415	H	0.909233	0.028502	0.421447
H416	H	1.409233	0.528502	0.921447
H417	H	0.888592	-0.047248	0.442160
H418	H	1.388592	0.452752	0.942160
H419	H	-0.141947	-0.000078	0.023982
H420	H	0.358053	0.499922	0.523982
