data_functionalizedCrystal
_audit_creation_method	'MofGen! by Chris Wilmer'
_symmetry_space_group_name_H-M	'P1'
_symmetry_Int_Tables_number	1
_symmetry_cell_setting	triclinic
loop_
_symmetry_equiv_pos_as_xyz
  x,y,z
_cell_length_a	14.519731
_cell_length_b	12.996460
_cell_length_c	10.654550
_cell_angle_alpha	89.994187
_cell_angle_beta	84.086892
_cell_angle_gamma	89.993791
loop_
_atom_site_label
_atom_site_type_symbol
_atom_site_fract_x
_atom_site_fract_y
_atom_site_fract_z
O1	O	1.224712	-0.085569	0.164752
O2	O	0.956338	-0.085570	0.184111
O3	O	1.096695	-0.085563	-0.008366
O4	O	1.084354	-0.085576	0.357230
O5	O	1.096679	0.085571	-0.008376
O6	O	0.956321	0.085563	0.184101
O7	O	1.224695	0.085565	0.164743
Cu8	Cu	1.090507	0.101190	0.174421
Cu9	Cu	1.090526	-0.101195	0.174433
O10	O	1.084338	0.085558	0.357220
C11	C	0.921965	-0.000004	0.183199
C12	C	0.819571	-0.000004	0.180481
N13	N	1.090500	0.243537	0.174412
C14	C	0.736416	-0.000008	0.178272
C15	C	0.632093	-0.000008	0.175513
C16	C	0.548942	-0.000008	0.173322
C17	C	0.444612	-0.000010	0.170563
C18	C	1.090518	0.663352	0.174438
C19	C	1.090510	0.546546	0.174435
C20	C	1.090510	0.453448	0.174426
C21	C	1.090501	0.336636	0.174421
C22	C	1.259068	-0.000004	0.165655
C23	C	1.361462	-0.000010	0.168373
N24	N	1.090532	0.756457	0.174437
C25	C	1.095781	0.000003	-0.055160
C26	C	1.093070	0.000002	-0.194578
C27	C	1.175710	0.000002	-0.274850
C28	C	1.173157	-0.000011	-0.405846
C29	C	1.005317	-0.000019	-0.376286
C30	C	1.007871	-0.000014	-0.245293
C31	C	1.270493	-0.059972	-0.602613
C32	C	1.353138	-0.059954	-0.682890
C33	C	1.428052	0.000019	-0.653434
C34	C	1.420325	0.059998	-0.543704
C35	C	1.337679	0.059990	-0.463434
C36	C	1.262768	-0.000007	-0.492888
C37	C	0.910540	0.059956	-0.048524
C38	C	0.827893	0.059954	0.031749
C39	C	0.752972	-0.000012	0.002297
C40	C	0.760690	-0.059976	-0.107436
C41	C	0.843337	-0.059975	-0.187709
C42	C	0.918259	-0.000011	-0.158248
C43	C	1.085252	-0.000011	0.404014
C44	C	1.087963	-0.000016	0.543432
H45	H	1.245085	0.000012	-0.233562
H46	H	0.849621	-0.108816	-0.277050
F47	F	0.819673	0.123796	0.148521
F48	F	1.190770	-0.123821	-0.633959
F49	F	1.516005	0.000041	-0.738879
F50	F	1.361359	-0.123790	-0.799668
F51	F	0.990282	0.123777	-0.017166
F52	F	0.680947	-0.123794	-0.138790
F53	F	1.329450	0.123822	-0.346660
F54	F	1.500058	0.123836	-0.512370
H55	H	0.935950	-0.000030	-0.417595
H56	H	0.685672	0.000006	0.067658
