data_functionalizedCrystal
_audit_creation_method	'MofGen! by Chris Wilmer'
_symmetry_space_group_name_H-M	'P1'
_symmetry_Int_Tables_number	1
_symmetry_cell_setting	triclinic
loop_
_symmetry_equiv_pos_as_xyz
  x,y,z
_cell_length_a	13.185407
_cell_length_b	13.930277
_cell_length_c	13.339070
_cell_angle_alpha	89.998837
_cell_angle_beta	96.198614
_cell_angle_gamma	89.995364
loop_
_atom_site_label
_atom_site_type_symbol
_atom_site_fract_x
_atom_site_fract_y
_atom_site_fract_z
O1	O	-1.373295	0.079830	-0.243491
O2	O	-1.084462	0.079831	-0.148754
O3	O	-1.195730	0.079828	-0.334361
O4	O	-1.262027	0.079833	-0.057883
O5	O	-1.195716	-0.079834	-0.334353
O6	O	-1.084448	-0.079831	-0.148745
O7	O	-1.373280	-0.079832	-0.243483
Zn8	Zn	-1.228862	-0.105181	-0.196113
Zn9	Zn	-1.228881	0.105180	-0.196124
O10	O	-1.262013	-0.079829	-0.057875
C11	C	-1.046733	0.000000	-0.139145
C12	C	-0.934328	0.000001	-0.110538
N13	N	-1.228857	-0.248747	-0.196108
C14	C	-0.562466	-0.000013	-0.383552
C15	C	-0.668075	-0.000020	-0.410433
C16	C	-0.734643	-0.000014	-0.335462
C17	C	-0.695592	-0.000003	-0.233605
C18	C	-0.589973	-0.000004	-0.206722
C19	C	-0.762150	-0.000005	-0.158631
C20	C	-0.723099	0.000006	-0.056775
C21	C	-0.617490	0.000006	-0.029896
C22	C	-0.550922	0.000001	-0.104867
C23	C	-0.867770	-0.000004	-0.185514
C24	C	-0.895277	0.000005	-0.008684
C25	C	-0.789668	0.000012	0.018196
C26	C	-1.179572	-0.299009	-0.113938
C27	C	-1.278146	-0.298990	-0.278283
C28	C	-1.278156	-0.399486	-0.278290
C29	C	-1.228872	-0.449748	-0.196120
C30	C	-1.179578	-0.399514	-0.113943
C31	C	-1.327440	-0.449727	-0.360470
C32	C	-1.327451	-0.550229	-0.360480
C33	C	-1.278172	-0.600493	-0.278306
C34	C	-1.228877	-0.550253	-0.196126
C35	C	-1.179593	-0.600515	-0.113956
C36	C	-1.130303	-0.550276	-0.031771
C37	C	-1.130299	-0.449778	-0.031769
C38	C	-1.278176	-0.700992	-0.278308
C39	C	-1.179598	-0.701020	-0.113961
C40	C	-0.411010	-0.000003	-0.253091
C41	C	-0.523415	-0.000009	-0.281698
C42	C	-1.184524	-0.000002	-0.368997
C43	C	-1.151143	0.000002	-0.472211
N44	N	-1.228892	0.248746	-0.196138
C45	C	-1.410698	0.000001	-0.907668
C46	C	-1.442064	-0.000008	-0.810695
C47	C	-1.369336	-0.000005	-0.726070
C48	C	-1.265237	0.000006	-0.738426
C49	C	-1.233867	0.000008	-0.835409
C50	C	-1.192506	0.000002	-0.653810
C51	C	-1.088406	0.000013	-0.666167
C52	C	-1.057042	0.000015	-0.763141
C53	C	-1.129770	0.000012	-0.847766
C54	C	-1.223876	0.000000	-0.556828
C55	C	-1.047045	0.000007	-0.484568
C56	C	-1.015679	0.000016	-0.581541
C57	C	-1.273219	0.000003	-0.023239
C58	C	-1.306600	0.000005	0.079975
H59	H	-0.899554	-0.000012	-0.268447
Cl60	Cl	-0.926174	0.000016	-0.778672
Cl61	Cl	-1.340093	-0.235807	-0.381583
Cl62	Cl	-0.418149	0.000023	-0.071079
H63	H	-0.987824	0.000005	-0.415664
Cl64	Cl	-0.717161	-0.000039	-0.538475
Cl65	Cl	-0.568400	0.000009	0.098152
Cl66	Cl	-0.740562	0.000027	0.146241
Cl67	Cl	-1.389416	-0.613379	-0.463792
H68	H	-1.318301	-0.741891	-0.345224
H69	H	-1.526821	-0.000019	-0.800642
H70	H	-0.508258	-0.000045	-0.444582
H71	H	-0.949477	0.000007	0.052364
Cl72	Cl	-1.117643	-0.764198	-0.010652
Cl73	Cl	-1.354738	-0.000014	-0.541305
H74	H	-1.090170	-0.591211	0.035130
H75	H	-1.394881	-0.000013	-0.647112
Cl76	Cl	-1.068336	-0.386619	0.071538
H77	H	-1.469901	-0.000009	-0.976575
Cl78	Cl	-0.884814	0.000032	-0.597089
H79	H	-1.139445	-0.258102	-0.047022
H80	H	-0.820635	-0.000020	-0.357354
H81	H	-1.367560	-0.408801	-0.427374
H82	H	-1.104236	0.000023	-0.926733
