data_functionalizedCrystal
_audit_creation_method	'MofGen! by Chris Wilmer'
_symmetry_space_group_name_H-M	'P1'
_symmetry_Int_Tables_number	1
_symmetry_cell_setting	triclinic
loop_
_symmetry_equiv_pos_as_xyz
  x,y,z
_cell_length_a	16.956984
_cell_length_b	16.974813
_cell_length_c	13.448316
_cell_angle_alpha	93.661167
_cell_angle_beta	90.007329
_cell_angle_gamma	79.731954
loop_
_atom_site_label
_atom_site_type_symbol
_atom_site_fract_x
_atom_site_fract_y
_atom_site_fract_z
O1	O	1.058006	0.032765	0.085333
O2	O	1.558006	0.532765	0.585333
O3	O	0.825818	0.060528	0.087567
O4	O	1.325818	0.560528	0.587567
O5	O	0.948384	-0.068881	0.077149
O6	O	1.448384	0.431119	0.577149
O7	O	0.935440	0.162173	0.095751
O8	O	1.435440	0.662173	0.595751
O9	O	0.948369	-0.068887	-0.088236
O10	O	1.448369	0.431113	0.411764
O11	O	0.825803	0.060521	-0.077817
O12	O	1.325803	0.560521	0.422183
O13	O	1.057991	0.032758	-0.080052
O14	O	1.557991	0.532758	0.419948
Cu15	Cu	0.941895	0.046639	-0.094035
Cu16	Cu	1.441895	0.546639	0.405965
Cu17	Cu	0.941913	0.046647	0.101551
Cu18	Cu	1.441913	0.546647	0.601551
O19	O	0.935424	0.162167	-0.069633
O20	O	1.435424	0.662167	0.430367
C21	C	0.796101	0.061946	0.004989
C22	C	1.296101	0.561946	0.504989
C23	C	0.707575	0.066173	0.005330
C24	C	1.207575	0.566173	0.505330
C25	C	0.675568	-0.004496	-0.000362
C26	C	1.175568	0.495504	0.499638
C27	C	0.592389	-0.000520	-0.000034
C28	C	1.092389	0.499480	0.499966
C29	C	0.541218	0.074126	0.005977
C30	C	1.041218	0.574126	0.505977
C31	C	0.573230	0.144800	0.011672
C32	C	1.073230	0.644800	0.511672
C33	C	0.656408	0.140823	0.011352
C34	C	1.156408	0.640823	0.511352
C35	C	0.291424	0.093811	0.007569
C36	C	0.791424	0.593811	0.507569
C37	C	0.208240	0.097782	0.007886
C38	C	0.708240	0.597782	0.507886
C39	C	0.227405	-0.047538	-0.003819
C40	C	0.727405	0.452462	0.496181
C41	C	0.310584	-0.051508	-0.004145
C42	C	0.810584	0.448492	0.495855
C43	C	0.342589	0.019166	0.001555
C44	C	0.842589	0.519166	0.501555
N45	N	0.456195	0.078192	0.006309
N46	N	0.956195	0.578192	0.506309
N47	N	0.427611	0.015099	0.001231
N48	N	0.927611	0.515099	0.501231
C49	C	0.947884	-0.098310	-0.007911
C50	C	1.447884	0.401690	0.492089
C51	C	0.946407	-0.185991	-0.014964
C52	C	1.446407	0.314009	0.485036
C53	C	0.945723	-0.227175	0.071873
C54	C	1.445723	0.272825	0.571873
C55	C	0.944330	-0.309559	0.065243
C56	C	1.444330	0.190441	0.565243
C57	C	0.943626	-0.350758	-0.028225
C58	C	1.443626	0.149242	0.471775
C59	C	0.944308	-0.309568	-0.115068
C60	C	1.444308	0.190432	0.384932
C61	C	0.945695	-0.227184	-0.108437
C62	C	1.445695	0.272816	0.391563
C63	C	0.939471	-0.597149	-0.057724
C64	C	1.439471	-0.097149	0.442276
C65	C	0.938085	-0.679539	-0.064349
C66	C	1.438085	-0.179539	0.435651
C67	C	0.938106	-0.679525	0.115963
C68	C	1.438106	-0.179525	0.615963
C69	C	0.939498	-0.597140	0.122586
C70	C	1.439498	-0.097140	0.622586
C71	C	0.940176	-0.555956	0.035743
C72	C	1.440176	-0.055956	0.535743
N73	N	0.942205	-0.434969	-0.035004
N74	N	1.442205	0.065031	0.464996
N75	N	0.941591	-0.471746	0.042523
N76	N	1.441591	0.028254	0.542523
C77	C	1.087708	0.031340	0.002528
C78	C	1.587708	0.531340	0.502528
C79	C	1.176233	0.027113	0.002194
C80	C	1.676233	0.527113	0.502194
C81	C	0.935924	0.191596	0.015428
C82	C	1.435924	0.691596	0.515428
C83	C	0.937402	0.279277	0.022488
C84	C	1.437402	0.779277	0.522488
N85	N	0.941888	0.046633	-0.231600
N86	N	1.441888	0.546633	0.268400
C87	C	0.996177	-0.010648	-0.288252
C88	C	1.496177	0.489352	0.211748
C89	C	0.996182	-0.010649	-0.392356
C90	C	1.496182	0.489351	0.107644
C91	C	0.941901	0.046635	-0.439805
C92	C	1.441901	0.546635	0.060195
C93	C	0.887606	0.103919	-0.383145
C94	C	1.387606	0.603919	0.116855
C95	C	0.887598	0.103916	-0.279044
C96	C	1.387598	0.603916	0.220956
C97	C	0.887629	0.103923	-0.600125
C98	C	1.387629	0.603923	-0.100125
C99	C	0.887637	0.103927	-0.704233
C100	C	1.387637	0.603927	-0.204233
C101	C	0.996213	-0.010642	-0.713436
C102	C	1.496213	0.489358	-0.213436
C103	C	0.996205	-0.010645	-0.609335
C104	C	1.496205	0.489355	-0.109335
C105	C	0.941910	0.046640	-0.552683
C106	C	1.441910	0.546640	-0.052683
N107	N	0.941927	0.046646	0.239115
N108	N	1.441927	0.546646	0.739115
H109	H	0.317471	0.151358	0.012217
H110	H	0.817471	0.651358	0.512217
H111	H	0.943777	-0.343089	0.135955
H112	H	1.443777	0.156911	0.635955
F113	F	0.690471	0.216038	0.017413
F114	F	1.190471	0.716038	0.517413
F115	F	0.937385	-0.723362	0.208381
F116	F	1.437385	-0.223362	0.708381
H117	H	0.843414	0.150568	-0.554001
H118	H	1.343414	0.650568	-0.054001
H119	H	1.040421	-0.057285	-0.759569
H120	H	1.540421	0.442715	-0.259569
F121	F	0.937341	-0.723385	-0.163835
F122	F	1.437341	-0.223385	0.336165
F123	F	0.153781	0.177234	0.014277
F124	F	0.653781	0.677234	0.514277
H125	H	1.040383	-0.057292	-0.249626
H126	H	1.540383	0.442708	0.250374
H127	H	0.940038	-0.563630	-0.128439
H128	H	1.440038	-0.063630	0.371561
H129	H	0.843406	0.150559	-0.421784
H130	H	1.343406	0.650559	0.078216
H131	H	0.201337	-0.105077	-0.008449
H132	H	0.701337	0.394923	0.491551
F133	F	0.730022	-0.083945	-0.006767
F134	F	1.230022	0.416055	0.493233
H135	H	0.940072	-0.563602	0.198697
H136	H	1.440072	-0.063602	0.698697
F137	F	0.829863	0.164896	-0.754724
F138	F	1.329863	0.664896	-0.254724
H139	H	1.040388	-0.057292	-0.438482
H140	H	1.540388	0.442708	0.061518
H141	H	0.352243	-0.112293	-0.009044
H142	H	0.852243	0.387707	0.490956
F143	F	0.946477	-0.183336	0.171355
F144	F	1.446477	0.316664	0.671355
H145	H	0.531560	0.205578	0.016574
H146	H	1.031560	0.705578	0.516574
H147	H	0.843389	0.150559	-0.232918
H148	H	1.343389	0.650559	0.267082
H149	H	0.946241	-0.193650	-0.179149
H150	H	1.446241	0.306350	0.320851
F151	F	0.558329	-0.075736	-0.006069
F152	F	1.058329	0.424264	0.493931
F153	F	0.943550	-0.353415	-0.214544
F154	F	1.443550	0.146585	0.285456
H155	H	1.040408	-0.057286	-0.570703
H156	H	1.540408	0.442714	-0.070703
