data_functionalizedCrystal
_audit_creation_method	'MofGen! by Chris Wilmer'
_symmetry_space_group_name_H-M	'P1'
_symmetry_Int_Tables_number	1
_symmetry_cell_setting	triclinic
loop_
_symmetry_equiv_pos_as_xyz
  x,y,z
_cell_length_a	21.395364
_cell_length_b	14.908178
_cell_length_c	21.395355
_cell_angle_alpha	93.314561
_cell_angle_beta	90.024516
_cell_angle_gamma	93.309658
loop_
_atom_site_label
_atom_site_type_symbol
_atom_site_fract_x
_atom_site_fract_y
_atom_site_fract_z
Zn1	Zn	0.943511	-0.359388	0.339857
Zn2	Zn	1.276844	-0.026054	0.673190
Zn3	Zn	1.610178	0.307279	1.006523
Zn4	Zn	0.937391	-0.510238	0.229033
Zn5	Zn	1.270724	-0.176904	0.562366
Zn6	Zn	1.604058	0.156429	0.895700
Zn7	Zn	0.838726	-0.359377	0.235094
Zn8	Zn	1.172060	-0.026043	0.568427
Zn9	Zn	1.505393	0.307290	0.901761
Zn10	Zn	0.832674	-0.510203	0.333775
Zn11	Zn	1.166007	-0.176870	0.667108
Zn12	Zn	1.499341	0.156463	1.000441
O13	O	0.888075	-0.434801	0.284440
O14	O	1.221409	-0.101468	0.617773
O15	O	1.554742	0.231865	0.951106
O16	O	1.030376	-0.379417	0.325164
O17	O	1.363709	-0.046084	0.658498
O18	O	1.697043	0.287249	0.991831
O19	O	0.924274	-0.490235	0.142159
O20	O	1.257608	-0.156902	0.475492
O21	O	1.590941	0.176431	0.808825
O22	O	0.857720	-0.233126	0.254073
O23	O	1.191054	0.100208	0.587406
O24	O	1.524387	0.433541	0.920739
O25	O	1.025880	-0.490246	0.243743
O26	O	1.359213	-0.156913	0.577076
O27	O	1.692546	0.176421	0.910410
O28	O	0.934705	-0.233134	0.331041
O29	O	1.268038	0.100200	0.664375
O30	O	1.601372	0.433533	0.997708
O31	O	0.851786	-0.379399	0.146612
O32	O	1.185119	-0.046065	0.479945
O33	O	1.518453	0.287268	0.813278
O34	O	0.750246	-0.379365	0.248175
O35	O	1.083580	-0.046032	0.581509
O36	O	1.416913	0.287301	0.914842
O37	O	0.847405	-0.490187	0.422260
O38	O	1.180738	-0.156854	0.755593
O39	O	1.514072	0.176479	1.088926
O40	O	0.745800	-0.490177	0.320676
O41	O	1.079133	-0.156843	0.654009
O42	O	1.412466	0.176490	0.987342
O43	O	0.928836	-0.379384	0.426728
O44	O	1.262170	-0.046051	0.760061
O45	O	1.595503	0.287283	1.093395
O46	O	0.918406	-0.636486	0.237846
O47	O	1.251739	-0.303152	0.571179
O48	O	1.585072	0.030181	0.904512
O49	O	0.841471	-0.636460	0.314799
O50	O	1.174804	-0.303127	0.648132
O51	O	1.508137	0.030206	0.981465
C52	C	0.725289	-0.434767	0.284423
C53	C	1.058623	-0.101433	0.617757
C54	C	1.391956	0.231900	0.951090
C55	C	0.655648	-0.434774	0.284431
C56	C	0.988981	-0.101440	0.617764
C57	C	1.322314	0.231893	0.951097
C58	C	0.156186	-0.377229	0.326904
C59	C	0.489519	-0.043896	0.660238
C60	C	0.822852	0.289438	0.993571
C61	C	0.221621	-0.377222	0.326905
C62	C	0.554955	-0.043889	0.660238
C63	C	0.888288	0.289444	0.993571
C64	C	0.252007	-0.434829	0.284453
C65	C	0.585341	-0.101496	0.617786
C66	C	0.918674	0.231838	0.951119
C67	C	0.216951	-0.492463	0.242008
C68	C	0.550285	-0.159130	0.575341
C69	C	0.883618	0.174204	0.908675
C70	C	0.151517	-0.492474	0.242013
C71	C	0.484850	-0.159141	0.575347
C72	C	0.818183	0.174192	0.908680
C73	C	0.355365	-0.441815	0.227705
C74	C	0.688698	-0.108482	0.561039
C75	C	1.022031	0.224851	0.894372
C76	C	0.420798	-0.441797	0.227699
C77	C	0.754132	-0.108464	0.561033
C78	C	1.087465	0.224869	0.894366
C79	C	0.453829	-0.434799	0.284436
C80	C	0.787162	-0.101466	0.617770
C81	C	1.120496	0.231868	0.951103
C82	C	0.421419	-0.427799	0.341182
C83	C	0.754752	-0.094466	0.674516
C84	C	1.088086	0.238868	1.007849
C85	C	0.355984	-0.427811	0.341187
C86	C	0.689318	-0.094477	0.674521
C87	C	1.022651	0.238856	1.007854
C88	C	0.322960	-0.434823	0.284442
C89	C	0.656293	-0.101490	0.617776
C90	C	0.989626	0.231843	0.951109
C91	C	0.559830	-0.377166	0.326881
C92	C	0.893163	-0.043832	0.660215
C93	C	1.226496	0.289501	0.993548
C94	C	0.625266	-0.377165	0.326882
C95	C	0.958600	-0.043832	0.660216
C96	C	1.291933	0.289501	0.993549
C97	C	0.620595	-0.492401	0.241980
C98	C	0.953929	-0.159068	0.575314
C99	C	1.287262	0.174265	0.908647
C100	C	0.555160	-0.492406	0.241985
C101	C	0.888493	-0.159073	0.575318
C102	C	1.221826	0.174260	0.908651
C103	C	0.524781	-0.434784	0.284435
C104	C	0.858114	-0.101450	0.617768
C105	C	1.191448	0.231883	0.951101
C106	C	0.878634	-0.669209	0.275018
C107	C	1.211968	-0.335875	0.608352
C108	C	1.545301	-0.002542	0.941685
C109	C	0.874653	-0.769489	0.271009
C110	C	1.207986	-0.436156	0.604342
C111	C	1.541319	-0.102823	0.937675
C112	C	0.947274	-0.957786	0.343708
C113	C	1.280608	-0.624452	0.677041
C114	C	1.613941	-0.291119	1.010374
C115	C	0.943535	-1.052008	0.339943
C116	C	1.276869	-0.718675	0.673276
C117	C	1.610202	-0.385341	1.006609
C118	C	0.863433	-1.052159	0.259717
C119	C	1.196766	-0.718825	0.593050
C120	C	1.530100	-0.385492	0.926383
C121	C	0.867172	-0.957936	0.263482
C122	C	1.200505	-0.624603	0.596815
C123	C	1.533839	-0.291269	0.930148
C124	C	0.909095	-0.910753	0.305478
C125	C	1.242428	-0.577420	0.638811
C126	C	1.575761	-0.244086	0.972145
C127	C	0.912836	-0.816529	0.309240
C128	C	1.246170	-0.483195	0.642573
C129	C	1.579503	-0.149862	0.975906
C130	C	0.832731	-0.816681	0.229017
C131	C	1.166065	-0.483348	0.562351
C132	C	1.499398	-0.150014	0.895684
C133	C	0.828992	-0.910903	0.225252
C134	C	1.162326	-0.577570	0.558586
C135	C	1.495659	-0.244237	0.891919
C136	C	1.051497	-0.434837	0.284456
C137	C	1.384831	-0.101503	0.617789
C138	C	1.718164	0.231830	0.951123
C139	C	1.121138	-0.434852	0.284463
C140	C	1.454471	-0.101518	0.617796
C141	C	1.787805	0.231815	0.951130
C142	C	0.888128	-0.434783	0.447864
C143	C	1.221462	-0.101450	0.781197
C144	C	1.554795	0.231884	1.114530
C145	C	0.888151	-0.434775	0.517505
C146	C	1.221484	-0.101442	0.850839
C147	C	1.554817	0.231891	1.184172
C148	C	0.897571	-0.199478	0.293911
C149	C	1.230904	0.133855	0.627245
C150	C	1.564237	0.467188	0.960578
C151	C	0.901617	-0.099198	0.297948
C152	C	1.234950	0.234135	0.631281
C153	C	1.568283	0.567469	0.964614
C154	C	0.888062	-0.434754	0.121654
C155	C	1.221395	-0.101421	0.454987
C156	C	1.554728	0.231912	0.788321
C157	C	0.888171	-0.434508	0.052023
C158	C	1.221504	-0.101175	0.385356
C159	C	1.554837	0.232159	0.718690
C160	C	0.930550	-0.377077	0.552546
C161	C	1.263884	-0.043744	0.885879
C162	C	1.597217	0.289589	1.219213
C163	C	0.930551	-0.377039	0.617983
C164	C	1.263884	-0.043705	0.951316
C165	C	1.597218	0.289628	1.284650
C166	C	0.888158	-0.434714	0.648376
C167	C	1.221491	-0.101380	0.981709
C168	C	1.554825	0.231953	1.315043
C169	C	0.845750	-0.492416	0.613327
C170	C	1.179084	-0.159082	0.946660
C171	C	1.512417	0.174251	1.279994
C172	C	0.845747	-0.492446	0.547892
C173	C	1.179080	-0.159113	0.881225
C174	C	1.512413	0.174220	1.214558
C175	C	0.879939	-0.515949	0.748786
C176	C	1.213272	-0.182616	1.082119
C177	C	1.546606	0.150718	1.415452
C178	C	0.879947	-0.515920	0.814220
C179	C	1.213280	-0.182586	1.147553
C180	C	1.546614	0.150747	1.480887
C181	C	0.888166	-0.434618	0.850201
C182	C	1.221499	-0.101285	1.183534
C183	C	1.554832	0.232048	1.516867
C184	C	0.896390	-0.353344	0.820740
C185	C	1.229723	-0.020011	1.154073
C186	C	1.563056	0.313323	1.487406
C187	C	0.896386	-0.353375	0.755304
C188	C	1.229719	-0.020041	1.088637
C189	C	1.563053	0.313292	1.421971
C190	C	0.888157	-0.434686	0.719330
C191	C	1.221490	-0.101353	1.052663
C192	C	1.554824	0.231980	1.385996
C193	C	0.930569	-0.376874	0.956196
C194	C	1.263902	-0.043540	1.289529
C195	C	1.597235	0.289793	1.622863
C196	C	0.930565	-0.376833	1.021634
C197	C	1.263898	-0.043500	1.354968
C198	C	1.597232	0.289833	1.688301
C199	C	0.845767	-0.492218	1.016977
C200	C	1.179100	-0.158885	1.350310
C201	C	1.512434	0.174448	1.683643
C202	C	0.845768	-0.492251	0.951540
C203	C	1.179101	-0.158917	1.284873
C204	C	1.512434	0.174416	1.618207
C205	C	0.888172	-0.434580	0.921154
C206	C	1.221505	-0.101246	1.254487
C207	C	1.554838	0.232087	1.587820
H208	H	0.448311	-0.422095	0.387383
H209	H	0.781645	-0.088762	0.720716
H210	H	1.114978	0.244571	1.054050
H211	H	0.965078	-0.330116	0.527810
H212	H	1.298412	0.003217	0.861143
H213	H	1.631745	0.336551	1.194476
C214	C	0.817396	-1.104076	0.213451
C215	C	1.150730	-0.770743	0.546784
C216	C	1.484063	-0.437410	0.880117
N217	N	0.782749	-1.143182	0.178574
N218	N	1.116082	-0.809848	0.511908
N219	N	1.449416	-0.476515	0.845241
C220	C	0.319037	-0.449516	0.165286
C221	C	0.652371	-0.116183	0.498619
C222	C	0.985704	0.217150	0.831952
N223	N	0.291677	-0.455317	0.118273
N224	N	0.625010	-0.121984	0.451606
N225	N	0.958343	0.211350	0.784940
C226	C	0.790731	-0.764937	0.186962
C227	C	1.124064	-0.431604	0.520295
C228	C	1.457398	-0.098271	0.853628
N229	N	0.759099	-0.725963	0.155285
N230	N	1.092432	-0.392630	0.488619
N231	N	1.425765	-0.059296	0.821952
C232	C	0.993391	-0.905882	0.389902
C233	C	1.326724	-0.572549	0.723235
C234	C	1.660057	-0.239215	1.056568
N235	N	1.028126	-0.866790	0.424697
N236	N	1.361459	-0.533456	0.758030
N237	N	1.694792	-0.200123	1.091363
C238	C	0.320336	-0.420101	0.403606
C239	C	0.653669	-0.086768	0.736939
C240	C	0.987003	0.246566	1.070273
N241	N	0.293486	-0.414291	0.450621
N242	N	0.626819	-0.080958	0.783954
N243	N	0.960152	0.252375	1.117287
H244	H	0.535094	-0.330246	0.361447
H245	H	0.868428	0.003087	0.694780
H246	H	1.201761	0.336421	1.028113
C247	C	0.663819	-0.313770	0.373573
C248	C	0.997152	0.019563	0.706906
C249	C	1.330486	0.352896	1.040239
N250	N	0.692858	-0.266018	0.408739
N251	N	1.026191	0.067315	0.742073
N252	N	1.359524	0.400649	1.075406
H253	H	0.974622	-1.090299	0.371076
H254	H	1.307955	-0.756965	0.704410
H255	H	1.641289	-0.423632	1.037743
C256	C	0.782919	-0.962815	0.179019
C257	C	1.116253	-0.629482	0.512353
C258	C	1.449586	-0.296149	0.845686
N259	N	0.748232	-1.001915	0.144180
N260	N	1.081565	-0.668581	0.477514
N261	N	1.414899	-0.335248	0.810847
H262	H	0.965093	-0.329909	0.931454
H263	H	1.298426	0.003424	1.264788
H264	H	1.631760	0.336757	1.598121
C265	C	0.516606	-0.555784	0.195287
C266	C	0.849939	-0.222450	0.528620
C267	C	1.183273	0.110883	0.861953
N268	N	0.487568	-0.603522	0.160111
N269	N	0.820901	-0.270188	0.493444
N270	N	1.154234	0.063145	0.826777
H271	H	0.965077	-0.330049	0.646519
H272	H	1.298410	0.003284	0.979852
H273	H	1.631744	0.336617	1.313186
C274	C	0.905424	-0.263974	0.722899
C275	C	1.238757	0.069360	1.056233
C276	C	1.572090	0.402693	1.389566
N277	N	0.912227	-0.196635	0.698492
N278	N	1.245561	0.136699	1.031825
N279	N	1.578894	0.470032	1.365159
H280	H	0.903083	-0.287141	0.850034
H281	H	1.236417	0.046193	1.183367
H282	H	1.569750	0.379526	1.516701
C283	C	0.250377	-0.555827	0.195308
C284	C	0.583710	-0.222493	0.528641
C285	C	0.917044	0.110840	0.861975
N286	N	0.275553	-0.603555	0.160133
N287	N	0.608887	-0.270222	0.493466
N288	N	0.942220	0.063112	0.826799
H289	H	0.965091	-0.329844	1.050164
H290	H	1.298424	0.003490	1.383497
H291	H	1.631758	0.336823	1.716831
C292	C	0.112963	-0.555859	0.195317
C293	C	0.446296	-0.222526	0.528651
C294	C	0.779630	0.110808	0.861984
N295	N	0.083924	-0.603598	0.160143
N296	N	0.417257	-0.270265	0.493476
N297	N	0.750590	0.063068	0.826810
C298	C	0.799134	-0.555663	1.050405
C299	C	1.132468	-0.222329	1.383739
C300	C	1.465801	0.111004	1.717072
N301	N	0.764009	-0.603450	1.075587
N302	N	1.097342	-0.270117	1.408920
N303	N	1.430676	0.063216	1.742253
H304	H	0.811245	-0.539240	0.923009
H305	H	1.144578	-0.205907	1.256342
H306	H	1.477911	0.127427	1.589676
H307	H	0.873254	-0.582099	0.838202
H308	H	1.206587	-0.248765	1.171535
H309	H	1.539921	0.084568	1.504869
C310	C	0.870909	-0.605394	0.709213
C311	C	1.204242	-0.272061	1.042546
C312	C	1.537576	0.061272	1.375879
N313	N	0.864112	-0.672763	0.679407
N314	N	1.197446	-0.339430	1.012741
N315	N	1.530779	-0.006096	1.346074
C316	C	0.654016	-0.555771	0.195283
C317	C	0.987349	-0.222438	0.528617
C318	C	1.320682	0.110895	0.861950
N319	N	0.679191	-0.603505	0.160111
N320	N	1.012525	-0.270172	0.493444
N321	N	1.345858	0.063162	0.826778
C322	C	0.799115	-0.555854	0.646761
C323	C	1.132449	-0.222521	0.980094
C324	C	1.465782	0.110812	1.313427
N325	N	0.763986	-0.603635	0.671943
N326	N	1.097319	-0.270302	1.005276
N327	N	1.430653	0.063032	1.338610
C328	C	0.958951	-0.764629	0.355437
C329	C	1.292285	-0.431295	0.688770
C330	C	1.625618	-0.097962	1.022103
N331	N	0.993685	-0.725540	0.390235
N332	N	1.327018	-0.392207	0.723568
N333	N	1.660352	-0.058873	1.056902
C334	C	0.799103	-0.555923	0.509345
C335	C	1.132436	-0.222590	0.842679
C336	C	1.465770	0.110743	1.176012
N337	N	0.763971	-0.603737	0.480311
N338	N	1.097304	-0.270403	0.813644
N339	N	1.430638	0.062930	1.146978
H340	H	0.131455	-0.330312	0.361473
H341	H	0.464789	0.003021	0.694806
H342	H	0.798122	0.336355	1.028140
C343	C	0.260181	-0.313826	0.373592
C344	C	0.593515	0.019508	0.706926
C345	C	0.926848	0.352841	1.040259
N346	N	0.289223	-0.266073	0.408756
N347	N	0.622556	0.067260	0.742090
N348	N	0.955890	0.400594	1.075423
C349	C	0.456444	-0.449494	0.165278
C350	C	0.789777	-0.116160	0.498611
C351	C	1.123110	0.217173	0.831945
N352	N	0.483290	-0.455291	0.118261
N353	N	0.816623	-0.121958	0.451594
N354	N	1.149957	0.211375	0.784927
