data_functionalizedCrystal
_audit_creation_method	'MofGen! by Chris Wilmer'
_symmetry_space_group_name_H-M	'P1'
_symmetry_Int_Tables_number	1
_symmetry_cell_setting	triclinic
loop_
_symmetry_equiv_pos_as_xyz
  x,y,z
_cell_length_a	18.215405
_cell_length_b	11.169417
_cell_length_c	11.169409
_cell_angle_alpha	90.021649
_cell_angle_beta	89.960202
_cell_angle_gamma	89.976893
loop_
_atom_site_label
_atom_site_type_symbol
_atom_site_fract_x
_atom_site_fract_y
_atom_site_fract_z
Zn1	Zn	-0.292960	-1.834841	-0.678539
Zn2	Zn	0.040374	-1.501508	-0.345206
Zn3	Zn	0.373707	-1.168174	-0.011872
Zn4	Zn	-0.416051	-1.834679	-0.477830
Zn5	Zn	-0.082717	-1.501346	-0.144496
Zn6	Zn	0.250616	-1.168013	0.188837
Zn7	Zn	-0.292999	-1.634127	-0.477867
Zn8	Zn	0.040335	-1.300794	-0.144534
Zn9	Zn	0.373668	-0.967460	0.188800
Zn10	Zn	-0.415985	-1.634083	-0.678468
Zn11	Zn	-0.082652	-1.300750	-0.345135
Zn12	Zn	0.250682	-0.967417	-0.011801
O13	O	-0.354499	-1.734433	-0.578176
O14	O	-0.021165	-1.401099	-0.244843
O15	O	0.312168	-1.067766	0.088491
O16	O	-0.309299	-2.002769	-0.651928
O17	O	0.024034	-1.669436	-0.318595
O18	O	0.357368	-1.336103	0.014738
O19	O	-0.399771	-1.808026	-0.309885
O20	O	-0.066438	-1.474693	0.023449
O21	O	0.266895	-1.141360	0.356782
O22	O	-0.190009	-1.660838	-0.504532
O23	O	0.143324	-1.327505	-0.171198
O24	O	0.476657	-0.994171	0.162135
O25	O	-0.399733	-2.002651	-0.504468
O26	O	-0.066400	-1.669317	-0.171135
O27	O	0.266933	-1.335984	0.162199
O28	O	-0.189981	-1.808302	-0.651964
O29	O	0.143353	-1.474968	-0.318631
O30	O	0.476686	-1.141635	0.014702
O31	O	-0.309366	-1.660681	-0.309912
O32	O	0.023968	-1.327348	0.023421
O33	O	0.357301	-0.994014	0.356755
O34	O	-0.309302	-1.466171	-0.504463
O35	O	0.024031	-1.132838	-0.171130
O36	O	0.357365	-0.799505	0.162204
O37	O	-0.399622	-1.660764	-0.846427
O38	O	-0.066288	-1.327430	-0.513094
O39	O	0.267045	-0.994097	-0.179761
O40	O	-0.399660	-1.466140	-0.651844
O41	O	-0.066326	-1.132806	-0.318511
O42	O	0.267007	-0.799473	0.014823
O43	O	-0.309235	-1.808260	-0.846479
O44	O	0.024098	-1.474926	-0.513146
O45	O	0.357431	-1.141593	-0.179813
O46	O	-0.519026	-1.807984	-0.504400
O47	O	-0.185693	-1.474651	-0.171066
O48	O	0.147640	-1.141317	0.162267
O49	O	-0.518978	-1.660607	-0.651808
O50	O	-0.185645	-1.327274	-0.318474
O51	O	0.147689	-0.993940	0.014859
C52	C	-0.354479	-1.422608	-0.578151
C53	C	-0.021145	-1.089275	-0.244817
C54	C	0.312188	-0.755941	0.088516
C55	C	-0.354488	-1.289208	-0.578168
C56	C	-0.021154	-0.955875	-0.244835
C57	C	0.312179	-0.622541	0.088499
C58	C	-0.545705	-1.734306	-0.578118
C59	C	-0.212372	-1.400973	-0.244785
C60	C	0.120962	-1.067639	0.088549
C61	C	-0.627504	-1.734362	-0.578134
C62	C	-0.294170	-1.401028	-0.244800
C63	C	0.039163	-1.067695	0.088533
C64	C	-0.815698	-1.811281	-0.501519
C65	C	-0.482365	-1.477948	-0.168186
C66	C	-0.149032	-1.144614	0.165147
C67	C	-0.892557	-1.811335	-0.501548
C68	C	-0.559224	-1.478001	-0.168215
C69	C	-0.225890	-1.144668	0.165118
C70	C	-0.892547	-1.657738	-0.654919
C71	C	-0.559213	-1.324405	-0.321585
C72	C	-0.225880	-0.991071	0.011748
C73	C	-0.815689	-1.657691	-0.654895
C74	C	-0.482356	-1.324358	-0.321561
C75	C	-0.149023	-0.991025	0.011772
C76	C	-0.777267	-1.734461	-0.578188
C77	C	-0.443934	-1.401128	-0.244855
C78	C	-0.110601	-1.067794	0.088478
C79	C	-0.930983	-1.734561	-0.578241
C80	C	-0.597650	-1.401228	-0.244908
C81	C	-0.264317	-1.067895	0.088425
C82	C	-1.014317	-1.734619	-0.578273
C83	C	-0.680984	-1.401286	-0.244940
C84	C	-0.347650	-1.067952	0.088393
C85	C	-0.693928	-1.734405	-0.578157
C86	C	-0.360595	-1.401072	-0.244824
C87	C	-0.027262	-1.067739	0.088509
C88	C	-0.162546	-1.734593	-0.578260
C89	C	0.170788	-1.401259	-0.244927
C90	C	0.504121	-1.067926	0.088407
C91	C	-0.080747	-1.734661	-0.578296
C92	C	0.252587	-1.401327	-0.244963
C93	C	0.585920	-1.067994	0.088371
C94	C	-0.354417	-1.734525	-0.891218
C95	C	-0.021083	-1.401192	-0.557885
C96	C	0.312250	-1.067858	-0.224552
C97	C	-0.354382	-1.734564	-1.024619
C98	C	-0.021049	-1.401231	-0.691285
C99	C	0.312285	-1.067897	-0.357952
C100	C	-0.354512	-1.047475	-0.578194
C101	C	-0.021179	-0.714142	-0.244861
C102	C	0.312155	-0.380808	0.088473
C103	C	-0.354500	-1.180875	-0.578181
C104	C	-0.021166	-0.847542	-0.244848
C105	C	0.312167	-0.514208	0.088485
C106	C	-0.354527	-1.734410	-0.266351
C107	C	-0.021194	-1.401077	0.066982
C108	C	0.312140	-1.067743	0.400316
C109	C	-0.354354	-1.734603	-0.132952
C110	C	-0.021021	-1.401270	0.200382
C111	C	0.312312	-1.067937	0.533715
H112	H	-0.784417	-1.873793	-0.439062
H113	H	-0.451083	-1.540460	-0.105729
H114	H	-0.117750	-1.207127	0.227605
H115	H	-0.923840	-1.595233	-0.717368
H116	H	-0.590506	-1.261900	-0.384035
H117	H	-0.257173	-0.928566	-0.050702
H118	H	-0.784397	-1.595135	-0.717334
H119	H	-0.451063	-1.261802	-0.384000
H120	H	-0.117730	-0.928468	-0.050667
H121	H	-0.923844	-1.873891	-0.439119
H122	H	-0.590511	-1.540558	-0.105785
H123	H	-0.257178	-1.207224	0.227548
