data_functionalizedCrystal
_audit_creation_method	'MofGen! by Chris Wilmer'
_symmetry_space_group_name_H-M	'P1'
_symmetry_Int_Tables_number	1
_symmetry_cell_setting	triclinic
loop_
_symmetry_equiv_pos_as_xyz
  x,y,z
_cell_length_a	16.120490
_cell_length_b	21.295418
_cell_length_c	21.295411
_cell_angle_alpha	89.982512
_cell_angle_beta	87.080431
_cell_angle_gamma	87.120708
loop_
_atom_site_label
_atom_site_type_symbol
_atom_site_fract_x
_atom_site_fract_y
_atom_site_fract_z
Zn1	Zn	1.274563	-0.299608	-0.404645
Zn2	Zn	1.774563	0.200392	0.095355
Zn3	Zn	1.274439	-0.404856	-0.299373
Zn4	Zn	1.774439	0.095144	0.200627
Zn5	Zn	1.135134	-0.294257	-0.294061
Zn6	Zn	1.635134	0.205743	0.205939
Zn7	Zn	1.135098	-0.399490	-0.399279
Zn8	Zn	1.635098	0.100510	0.100721
O9	O	1.204808	-0.349553	-0.349340
O10	O	1.704808	0.150447	0.150660
O11	O	1.391213	-0.318055	-0.395149
O12	O	1.891213	0.181945	0.104851
O13	O	1.255923	-0.390190	-0.210578
O14	O	1.755923	0.109810	0.289422
O15	O	1.153696	-0.206880	-0.308753
O16	O	1.653696	0.293120	0.191247
O17	O	1.391122	-0.395380	-0.317807
O18	O	1.891122	0.104620	0.182193
O19	O	1.256134	-0.210812	-0.389998
O20	O	1.756134	0.289188	0.110002
O21	O	1.153576	-0.308933	-0.206675
O22	O	1.653576	0.191067	0.293325
O23	O	1.018463	-0.303731	-0.303550
O24	O	1.518463	0.196269	0.196450
O25	O	1.153636	-0.386235	-0.488082
O26	O	1.653636	0.113765	0.011918
O27	O	1.018437	-0.381045	-0.380853
O28	O	1.518437	0.118955	0.119147
O29	O	1.256100	-0.312852	-0.492024
O30	O	1.756100	0.187148	0.007976
O31	O	1.255888	-0.492231	-0.312604
O32	O	1.755888	0.007769	0.187396
O33	O	1.153515	-0.488289	-0.386004
O34	O	1.653515	0.011711	0.113996
C35	C	0.988199	-0.341225	-0.341043
C36	C	1.488199	0.158775	0.158957
C37	C	0.895533	-0.337678	-0.337508
C38	C	1.395533	0.162322	0.162492
C39	C	0.684592	-0.367948	-0.367675
C40	C	1.184592	0.132052	0.132325
C41	C	0.725876	-0.331208	-0.331055
C42	C	1.225876	0.168792	0.168945
C43	C	0.820282	-0.334809	-0.334647
C44	C	1.320282	0.165191	0.165353
C45	C	0.590177	-0.364347	-0.364083
C46	C	1.090177	0.135653	0.135917
C47	C	1.204707	-0.513100	-0.349313
C48	C	1.704707	-0.013100	0.150687
C49	C	1.204740	-0.583070	-0.349325
C50	C	1.704740	-0.083070	0.150675
C51	C	1.258252	-1.084528	-0.391729
C52	C	1.758252	-0.584528	0.108271
C53	C	1.258227	-1.018785	-0.391718
C54	C	1.758227	-0.518785	0.108282
C55	C	1.204922	-0.983916	-0.349383
C56	C	1.704922	-0.483916	0.150617
C57	C	1.151652	-1.014797	-0.307045
C58	C	1.651652	-0.514797	0.192955
C59	C	1.151684	-1.080539	-0.307053
C60	C	1.651684	-0.580539	0.192947
N61	N	1.131898	-0.877942	-0.341702
N62	N	1.631898	-0.377942	0.158298
N63	N	1.131870	-0.815490	-0.341698
N64	N	1.631870	-0.315490	0.158302
C65	C	1.204824	-0.785838	-0.349356
C66	C	1.704824	-0.285838	0.150644
N67	N	1.277809	-0.820997	-0.357031
N68	N	1.777809	-0.320997	0.142969
N69	N	1.277836	-0.883455	-0.357038
N70	N	1.777836	-0.383455	0.142962
C71	C	1.204882	-0.912629	-0.349370
C72	C	1.704882	-0.412629	0.150630
C73	C	1.258068	-0.683679	-0.391677
C74	C	1.758068	-0.183679	0.108323
C75	C	1.258045	-0.617934	-0.391661
C76	C	1.758045	-0.117934	0.108339
C77	C	1.151462	-0.613947	-0.306992
C78	C	1.651462	-0.113947	0.193008
C79	C	1.151493	-0.679690	-0.307004
C80	C	1.651493	-0.179690	0.192996
C81	C	1.204795	-0.714552	-0.349350
C82	C	1.704795	-0.214552	0.150650
C83	C	1.422263	-0.357913	-0.357669
C84	C	1.922263	0.142087	0.142331
C85	C	1.514930	-0.361475	-0.361219
C86	C	2.014930	0.138525	0.138781
C87	C	1.204878	-0.349542	-0.513533
C88	C	1.704878	0.150458	-0.013533
C89	C	1.204907	-0.349537	-0.583502
C90	C	1.704907	0.150463	-0.083502
C91	C	1.204933	-0.185367	-0.349381
C92	C	1.704933	0.314633	0.150619
C93	C	1.204986	-0.115401	-0.349399
C94	C	1.704986	0.384599	0.150601
C95	C	1.258258	-0.311325	-0.618422
C96	C	1.758258	0.188675	-0.118422
C97	C	1.258257	-0.311298	-0.684165
C98	C	1.758257	0.188702	-0.184165
C99	C	1.204914	-0.349494	-0.714985
C100	C	1.704914	0.150506	-0.214985
C101	C	1.151552	-0.387709	-0.680056
C102	C	1.651552	0.112291	-0.180056
C103	C	1.151549	-0.387731	-0.614315
C104	C	1.651549	0.112269	-0.114315
N105	N	1.198484	-0.404315	-0.817958
N106	N	1.698484	0.095685	-0.317958
N107	N	1.198492	-0.404293	-0.880410
N108	N	1.698492	0.095707	-0.380410
C109	C	1.204919	-0.349431	-0.913060
C110	C	1.704919	0.150569	-0.413060
N111	N	1.211354	-0.294591	-0.880899
N112	N	1.711354	0.205409	-0.380899
N113	N	1.211350	-0.294614	-0.818442
N114	N	1.711350	0.205386	-0.318442
C115	C	1.204911	-0.349475	-0.786270
C116	C	1.704911	0.150525	-0.286270
C117	C	1.258271	-0.311186	-1.019266
C118	C	1.758271	0.188814	-0.519266
C119	C	1.258264	-0.311157	-1.085009
C120	C	1.758264	0.188843	-0.585009
C121	C	1.151564	-0.387574	-1.080900
C122	C	1.651564	0.112426	-0.580900
C123	C	1.151567	-0.387597	-1.015157
C124	C	1.651567	0.112403	-0.515157
C125	C	1.204925	-0.349404	-0.984344
C126	C	1.704925	0.150596	-0.484344
C127	C	1.204787	-0.349520	-0.185787
C128	C	1.704787	0.150480	0.314213
C129	C	1.204920	-0.349353	-0.115825
C130	C	1.704920	0.150647	0.384175
H131	H	0.690320	-0.297049	-0.297005
H132	H	1.190320	0.202951	0.202995
C133	C	0.818172	-0.408752	-0.408332
C134	C	1.318172	0.091248	0.091668
C135	C	0.732585	-0.414065	-0.413632
C136	C	1.232585	0.085935	0.086368
H137	H	0.847806	-0.437227	-0.436699
H138	H	1.347806	0.062773	0.063301
H139	H	0.832410	-0.367009	-0.418157
H140	H	1.332410	0.132991	0.081843
H141	H	0.832344	-0.418426	-0.366544
H142	H	1.332344	0.081574	0.133456
H143	H	0.718412	-0.404386	-0.455418
H144	H	1.218412	0.095614	0.044582
H145	H	0.718341	-0.455818	-0.403811
H146	H	1.218341	0.044182	0.096189
C147	C	1.298557	-0.599175	-0.499833
C148	C	1.798557	-0.099175	0.000167
C149	C	1.316600	-0.583996	-0.438194
C150	C	1.816600	-0.083996	0.061806
H151	H	1.334704	-0.578219	-0.528559
H152	H	1.834704	-0.078219	-0.028559
H153	H	1.306204	-0.643313	-0.505894
H154	H	1.806204	-0.143313	-0.005894
H155	H	1.242527	-0.586277	-0.506849
H156	H	1.742527	-0.086277	-0.006849
H157	H	1.372629	-0.596899	-0.431176
H158	H	1.872629	-0.096899	0.068824
H159	H	1.308960	-0.539848	-0.432130
H160	H	1.808960	-0.039848	0.067870
C161	C	1.370433	-0.306780	-0.949664
C162	C	1.870433	0.193220	-0.449664
C163	C	1.316919	-0.269202	-0.985394
C164	C	1.816919	0.230798	-0.485394
H165	H	1.406643	-0.280861	-0.928759
H166	H	1.906643	0.219139	-0.428759
H167	H	1.338662	-0.329537	-0.919456
H168	H	1.838662	0.170463	-0.419456
H169	H	1.402294	-0.335421	-0.976549
H170	H	1.902294	0.164579	-0.476549
H171	H	1.285053	-0.240564	-0.958508
H172	H	1.785053	0.259436	-0.458508
H173	H	1.348693	-0.246434	-1.015605
H174	H	1.848693	0.253566	-0.515605
C175	C	1.269873	-0.227103	-0.544962
C176	C	1.769873	0.272897	-0.044962
C177	C	1.316886	-0.269320	-0.584561
C178	C	1.816886	0.230680	-0.084561
H179	H	1.306065	-0.201167	-0.524057
H180	H	1.806065	0.298833	-0.024057
H181	H	1.233565	-0.201640	-0.569218
H182	H	1.733565	0.298360	-0.069218
H183	H	1.238115	-0.249872	-0.514748
H184	H	1.738115	0.250128	-0.014748
H185	H	1.348640	-0.246550	-0.614779
H186	H	1.848640	0.253450	-0.114779
H187	H	1.353209	-0.294785	-0.560303
H188	H	1.853209	0.205215	-0.060303
H189	H	1.108252	-0.986403	-0.272575
H190	H	1.608252	-0.486403	0.227425
H191	H	1.301661	-1.112909	-0.426206
H192	H	1.801661	-0.612909	0.073794
H193	H	1.301700	-0.280178	-0.712602
H194	H	1.801700	0.219822	-0.212602
C195	C	1.363556	-1.029322	-0.475430
C196	C	1.863556	-0.529322	0.024570
C197	C	1.316770	-0.984839	-0.438259
C198	C	1.816770	-0.484839	0.061741
H199	H	1.399691	-1.008365	-0.504166
H200	H	1.899691	-0.508365	-0.004166
H201	H	1.395492	-1.056174	-0.449256
H202	H	1.895492	-0.556174	0.050744
H203	H	1.327215	-1.053589	-0.498086
H204	H	1.827215	-0.553589	0.001914
H205	H	1.353111	-0.960576	-0.415599
H206	H	1.853111	-0.460576	0.084401
H207	H	1.284832	-0.957977	-0.464437
H208	H	1.784832	-0.457977	0.035563
H209	H	1.108117	-0.418807	-0.705154
H210	H	1.608117	0.081193	-0.205154
H211	H	1.108101	-0.418846	-0.585883
H212	H	1.608101	0.081154	-0.085883
H213	H	1.108115	-0.704827	-0.272536
H214	H	1.608115	-0.204827	0.227464
C215	C	1.046329	-1.069993	-0.223362
C216	C	1.546329	-0.569993	0.276638
C217	C	1.093123	-1.114478	-0.260525
C218	C	1.593123	-0.614478	0.239475
H219	H	1.010171	-1.090947	-0.194641
H220	H	1.510171	-0.590947	0.305359
H221	H	1.082658	-1.045736	-0.200694
H222	H	1.582658	-0.545736	0.299306
H223	H	1.014410	-1.043131	-0.249548
H224	H	1.514410	-0.543131	0.250452
H225	H	1.125047	-1.141336	-0.234339
H226	H	1.625047	-0.641336	0.265661
H227	H	1.056790	-1.138745	-0.283195
H228	H	1.556790	-0.638745	0.216805
H229	H	1.301463	-0.712065	-0.426161
H230	H	1.801463	-0.212065	0.073839
C231	C	1.104085	-0.511401	-0.269387
C232	C	1.604085	-0.011401	0.230613
C233	C	1.092866	-0.575626	-0.260456
C234	C	1.592866	-0.075626	0.239544
H235	H	1.067906	-0.487743	-0.240659
H236	H	1.567906	0.012257	0.259341
H237	H	1.160095	-0.502749	-0.262353
H238	H	1.660095	-0.002749	0.237647
H239	H	1.091848	-0.500154	-0.311207
H240	H	1.591848	-0.000154	0.188793
H241	H	1.105109	-0.586874	-0.218638
H242	H	1.605109	-0.086874	0.281362
H243	H	1.036843	-0.584282	-0.267486
H244	H	1.536843	-0.084282	0.232514
H245	H	1.301708	-0.280036	-1.113440
H246	H	1.801708	0.219964	-0.613440
H247	H	1.108123	-0.418667	-1.105992
H248	H	1.608123	0.081333	-0.605992
H249	H	1.108128	-0.418717	-0.986725
H250	H	1.608128	0.081283	-0.486725
