data_functionalizedCrystal
_audit_creation_method	'MofGen! by Chris Wilmer'
_symmetry_space_group_name_H-M	'P1'
_symmetry_Int_Tables_number	1
_symmetry_cell_setting	triclinic
loop_
_symmetry_equiv_pos_as_xyz
  x,y,z
_cell_length_a	13.897448
_cell_length_b	10.686220
_cell_length_c	13.897449
_cell_angle_alpha	85.635580
_cell_angle_beta	90.009266
_cell_angle_gamma	94.399460
loop_
_atom_site_label
_atom_site_type_symbol
_atom_site_fract_x
_atom_site_fract_y
_atom_site_fract_z
Zn1	Zn	-0.270883	1.928937	0.432426
Zn2	Zn	-0.432149	1.928860	0.271132
Zn3	Zn	-0.283257	1.717978	0.283498
Zn4	Zn	-0.444534	1.717892	0.444738
O5	O	-0.357706	1.823417	0.357949
O6	O	-0.281914	2.105504	0.400702
O7	O	-0.412394	1.900890	0.137791
O8	O	-0.146630	1.746030	0.303276
O9	O	-0.400395	2.105448	0.282200
O10	O	-0.137539	1.901021	0.412693
O11	O	-0.303003	1.745956	0.146876
O12	O	-0.315012	1.541389	0.315215
O13	O	-0.421504	1.745884	0.578087
O14	O	-0.433502	1.541326	0.433677
O15	O	-0.293923	1.900937	0.569041
O16	O	-0.568778	1.900807	0.294139
O17	O	-0.577877	1.745810	0.421687
C18	C	-0.376945	1.495573	0.377125
C19	C	-0.385198	1.355320	0.385351
C20	C	-0.608326	1.823325	0.357926
C21	C	-0.715535	1.823401	0.357942
C22	C	-0.911822	1.823533	0.357995
C23	C	-0.802595	1.823456	0.357969
C24	C	-0.106106	1.823544	0.357990
C25	C	0.001112	1.823598	0.358008
C26	C	-0.357715	1.823409	0.609542
C27	C	-0.357719	1.823406	0.716756
C28	C	-0.338393	2.152541	0.338699
C29	C	-0.330163	2.292793	0.330495
C30	C	-0.357722	1.823403	0.803826
C31	C	-0.357718	1.823402	0.913059
C32	C	-0.357718	1.823412	1.107335
C33	C	-0.357709	1.823408	1.000121
H34	H	-0.438640	1.301548	0.438607
H35	H	-0.276731	1.346559	0.277237
