data_functionalizedCrystal
_audit_creation_method	'MofGen! by Chris Wilmer'
_symmetry_space_group_name_H-M	'P1'
_symmetry_Int_Tables_number	1
_symmetry_cell_setting	triclinic
loop_
_symmetry_equiv_pos_as_xyz
  x,y,z
_cell_length_a	16.109301
_cell_length_b	10.654551
_cell_length_c	15.186229
_cell_angle_alpha	89.999082
_cell_angle_beta	89.999362
_cell_angle_gamma	83.973421
loop_
_atom_site_label
_atom_site_type_symbol
_atom_site_fract_x
_atom_site_fract_y
_atom_site_fract_z
O1	O	1.104091	0.161419	-0.073167
O2	O	0.862148	0.181507	-0.073181
O3	O	0.988682	-0.011352	-0.073174
O4	O	0.977557	0.354278	-0.073174
O5	O	0.988673	-0.011354	0.073283
O6	O	0.862140	0.181504	0.073277
O7	O	1.104082	0.161416	0.073290
Zn8	Zn	0.983110	0.171460	0.096537
Zn9	Zn	0.983121	0.171463	-0.096427
O10	O	0.977549	0.354275	0.073283
C11	C	0.831164	0.180692	0.000046
C12	C	0.738854	0.178252	0.000041
C13	C	0.517229	0.287018	0.000051
C14	C	0.430495	0.284716	0.000057
C15	C	0.449008	0.055896	0.000053
C16	C	0.535741	0.058199	0.000054
C17	C	0.569849	0.173764	0.000048
C18	C	0.396382	0.169159	0.000053
C19	C	0.302341	0.166662	0.000059
C20	C	0.663895	0.176262	0.000044
C21	C	0.987861	-0.058140	0.000052
C22	C	0.985416	-0.197550	0.000046
C23	C	0.984274	-0.263045	-0.079786
C24	C	0.981970	-0.394034	-0.079782
C25	C	0.981954	-0.394022	0.079894
C26	C	0.984252	-0.263034	0.079889
C27	C	0.985438	-0.197560	-0.159628
C28	C	0.984297	-0.263056	-0.239467
C29	C	0.981993	-0.394045	-0.239463
C30	C	0.980831	-0.459539	-0.159621
C31	C	1.135066	0.162231	0.000061
C32	C	1.227376	0.164671	0.000061
C33	C	0.978370	0.401063	0.000055
C34	C	0.980814	0.540473	0.000055
N35	N	0.983108	0.171457	0.228229
N36	N	0.983129	0.171457	-0.228120
C37	C	1.039156	0.086087	0.453955
C38	C	1.039159	0.086084	0.546145
C39	C	0.927075	0.256830	0.546148
C40	C	0.927069	0.256826	0.453960
C41	C	0.983114	0.171456	0.407866
C42	C	0.983123	0.171457	0.592243
C43	C	0.983125	0.171455	0.692200
C44	C	0.983111	0.171457	0.307903
H45	H	0.578586	-0.034032	0.000054
O46	O	0.866612	0.348908	0.404251
H47	H	0.825896	0.296014	0.362267
O48	O	0.373744	0.406874	0.000063
H49	H	0.307702	0.385864	0.000075
O50	O	0.412222	-0.068747	0.000052
H51	H	0.343071	-0.051324	0.000044
H52	H	0.544997	0.381119	0.000053
O53	O	0.985492	-0.192380	0.165991
H54	H	0.984311	-0.259922	0.221511
H55	H	0.978942	-0.566196	-0.159624
H56	H	0.987317	-0.090903	-0.159641
H57	H	0.985236	-0.209720	-0.304472
O58	O	1.099582	-0.006024	0.404242
H59	H	1.090164	0.008310	0.332394
H60	H	0.981056	-0.447366	-0.304472
O61	O	0.980713	-0.464673	0.166000
H62	H	0.924582	-0.428331	0.204280
H63	H	1.084793	0.016568	0.583668
H64	H	0.881445	0.326338	0.583687
