data_functionalizedCrystal
_audit_creation_method	'MofGen! by Chris Wilmer'
_symmetry_space_group_name_H-M	'P1'
_symmetry_Int_Tables_number	1
_symmetry_cell_setting	triclinic
loop_
_symmetry_equiv_pos_as_xyz
  x,y,z
_cell_length_a	11.026607
_cell_length_b	13.596369
_cell_length_c	11.026607
_cell_angle_alpha	89.996407
_cell_angle_beta	71.413983
_cell_angle_gamma	90.004310
loop_
_atom_site_label
_atom_site_type_symbol
_atom_site_fract_x
_atom_site_fract_y
_atom_site_fract_z
O1	O	1.726735	0.081789	-0.533626
O2	O	2.060068	0.415122	-0.200293
O3	O	2.393402	0.748456	0.133041
O4	O	1.360155	0.081791	-0.472862
O5	O	1.693489	0.415124	-0.139529
O6	O	2.026822	0.748457	0.193804
O7	O	1.513063	0.081786	-0.319954
O8	O	1.846397	0.415120	0.013379
O9	O	2.179730	0.748453	0.346712
O10	O	1.573827	0.081793	-0.686534
O11	O	1.907160	0.415127	-0.353201
O12	O	2.240494	0.748460	-0.019868
O13	O	1.513042	-0.081797	-0.319940
O14	O	1.846375	0.251537	0.013394
O15	O	2.179708	0.584870	0.346727
O16	O	1.360133	-0.081792	-0.472848
O17	O	1.693467	0.251541	-0.139515
O18	O	2.026800	0.584874	0.193819
O19	O	1.726713	-0.081794	-0.533611
O20	O	2.060047	0.251539	-0.200278
O21	O	2.393380	0.584873	0.133055
Zn22	Zn	1.543420	-0.107765	-0.503227
Zn23	Zn	1.876753	0.225568	-0.169894
Zn24	Zn	2.210087	0.558901	0.163439
Zn25	Zn	1.543449	0.107762	-0.503247
Zn26	Zn	1.876782	0.441095	-0.169913
Zn27	Zn	2.210115	0.774429	0.163420
O28	O	1.573805	-0.081790	-0.686520
O29	O	1.907139	0.251544	-0.353186
O30	O	2.240472	0.584877	-0.019853
C31	C	1.312485	-0.000001	-0.461645
C32	C	1.645818	0.333333	-0.128312
C33	C	1.979151	0.666666	0.205021
C34	C	1.170471	-0.000000	-0.428228
C35	C	1.503804	0.333333	-0.094895
C36	C	1.837137	0.666667	0.238438
N37	N	1.543410	-0.254857	-0.503215
N38	N	1.876743	0.078476	-0.169882
N39	N	2.210076	0.411809	0.163451
C40	C	1.116821	0.000002	-0.520498
C41	C	1.450155	0.333336	-0.187165
C42	C	1.783488	0.666669	0.146169
C43	C	0.970043	0.000003	-0.485962
C44	C	1.303376	0.333336	-0.152629
C45	C	1.636709	0.666670	0.180704
C46	C	1.543447	-0.656148	-0.503248
C47	C	1.876781	-0.322815	-0.169914
C48	C	2.210114	0.010518	0.163419
C49	C	1.543434	-0.544497	-0.503242
C50	C	1.876767	-0.211164	-0.169909
C51	C	2.210101	0.122170	0.163425
C52	C	1.543429	-0.455506	-0.503233
C53	C	1.876763	-0.122173	-0.169899
C54	C	2.210096	0.211160	0.163434
C55	C	1.543414	-0.343848	-0.503225
C56	C	1.876748	-0.010515	-0.169892
C57	C	2.210081	0.322819	0.163442
C58	C	1.774384	-0.000001	-0.544828
C59	C	2.107717	0.333333	-0.211495
C60	C	2.441051	0.666666	0.121838
C61	C	1.916398	0.000005	-0.578245
C62	C	2.249731	0.333339	-0.244912
C63	C	2.583064	0.666672	0.088421
C64	C	1.501843	-0.000004	-0.272287
C65	C	1.835176	0.333329	0.061046
C66	C	2.168509	0.666663	0.394379
C67	C	1.468426	-0.000000	-0.130273
C68	C	1.801759	0.333333	0.203060
C69	C	2.135092	0.666666	0.536393
N70	N	1.543467	0.254854	-0.503251
N71	N	1.876800	0.588187	-0.169917
N72	N	2.210134	0.921521	0.163416
C73	C	1.585026	0.000003	-0.734187
C74	C	1.918359	0.333336	-0.400853
C75	C	2.251693	0.666669	-0.067520
C76	C	1.618443	0.000006	-0.876200
C77	C	1.951776	0.333339	-0.542867
C78	C	2.285109	0.666672	-0.209534
C79	C	1.560695	0.000001	-0.076624
C80	C	1.894029	0.333334	0.256709
C81	C	2.227362	0.666667	0.590043
C82	C	1.526160	0.000005	0.070155
C83	C	1.859493	0.333338	0.403488
C84	C	2.192826	0.666671	0.736821
H85	H	1.179555	-0.000001	-0.625061
H86	H	1.512888	0.333332	-0.291728
H87	H	1.846221	0.666665	0.041606
N88	N	1.329913	-0.000008	-0.047199
N89	N	1.663247	0.333326	0.286135
N90	N	1.996580	0.666659	0.619468
H91	H	1.286036	0.060630	-0.065915
H92	H	1.619369	0.393964	0.267418
H93	H	1.952702	0.727297	0.600751
H94	H	1.324978	-0.000044	0.045848
H95	H	1.658311	0.333289	0.379181
H96	H	1.991645	0.666622	0.712514
N97	N	0.886966	-0.000012	-0.347445
N98	N	1.220299	0.333322	-0.014112
N99	N	1.553632	0.666655	0.319221
H100	H	0.793888	-0.000013	-0.342408
H101	H	1.127222	0.333320	-0.009074
H102	H	1.460555	0.666653	0.324259
H103	H	0.905783	0.060628	-0.303643
H104	H	1.239117	0.393962	0.029691
H105	H	1.572450	0.727295	0.363024
H106	H	1.421590	0.000011	0.132884
H107	H	1.754923	0.333345	0.466217
H108	H	2.088257	0.666678	0.799550
N109	N	1.756963	-0.000004	0.040731
N110	N	2.090296	0.333329	0.374064
N111	N	2.423629	0.666662	0.707397
H112	H	1.800855	0.060635	0.059430
H113	H	2.134188	0.393969	0.392764
H114	H	2.467521	0.727302	0.726097
H115	H	1.761900	-0.000045	-0.052316
H116	H	2.095233	0.333289	0.281017
H117	H	2.428567	0.666622	0.614350
H118	H	1.107738	0.000023	-0.323666
H119	H	1.441071	0.333357	0.009668
H120	H	1.774404	0.666690	0.343001
N121	N	0.999472	-0.000002	-0.716763
N122	N	1.332806	0.333332	-0.383430
N123	N	1.666139	0.666665	-0.050097
H124	H	1.092550	-0.000004	-0.721804
H125	H	1.425884	0.333330	-0.388471
H126	H	1.759217	0.666663	-0.055137
H127	H	0.980667	0.060641	-0.760572
H128	H	1.314001	0.393975	-0.427239
H129	H	1.647334	0.727308	-0.093906
H130	H	1.665258	-0.000006	-0.139357
H131	H	1.998592	0.333328	0.193976
H132	H	2.331925	0.666661	0.527309
