data_functionalizedCrystal
_audit_creation_method	'MofGen! by Chris Wilmer'
_symmetry_space_group_name_H-M	'P1'
_symmetry_Int_Tables_number	1
_symmetry_cell_setting	triclinic
loop_
_symmetry_equiv_pos_as_xyz
  x,y,z
_cell_length_a	11.169417
_cell_length_b	13.897448
_cell_length_c	11.169417
_cell_angle_alpha	90.008681
_cell_angle_beta	90.003712
_cell_angle_gamma	90.018571
loop_
_atom_site_label
_atom_site_type_symbol
_atom_site_fract_x
_atom_site_fract_y
_atom_site_fract_z
Zn1	Zn	1.834710	-0.384170	0.678515
Zn2	Zn	1.834630	-0.545430	0.477821
Zn3	Zn	1.634052	-0.384153	0.477850
Zn4	Zn	1.633978	-0.545427	0.678466
O5	O	1.734343	-0.464795	0.578163
O6	O	2.002649	-0.405570	0.651901
O7	O	1.808021	-0.524031	0.309875
O8	O	1.660735	-0.249174	0.504501
O9	O	2.002590	-0.524047	0.504452
O10	O	1.808157	-0.249186	0.651929
O11	O	1.660657	-0.405541	0.309896
O12	O	1.466093	-0.405538	0.504453
O13	O	1.660607	-0.524042	0.846422
O14	O	1.466038	-0.524026	0.651845
O15	O	1.808085	-0.405567	0.846458
O16	O	1.807948	-0.680411	0.504404
O17	O	1.660530	-0.680409	0.651817
C18	C	1.422518	-0.464781	0.578147
C19	C	1.289118	-0.464798	0.578169
C20	C	1.734255	-0.715410	0.578128
C21	C	1.734327	-0.822624	0.578153
C22	C	1.734453	-1.018919	0.578229
C23	C	1.734380	-0.909686	0.578190
C24	C	2.047385	-0.464811	0.578179
C25	C	2.180785	-0.464817	0.578186
C26	C	1.734347	-0.464806	0.891205
C27	C	1.734348	-0.464811	1.024605
C28	C	1.734463	-0.213202	0.578224
C29	C	1.734515	-0.105988	0.578250
C30	C	1.734334	-0.464809	1.266338
C31	C	1.734344	-0.464815	1.132938
