data_functionalizedCrystal
_audit_creation_method	'MofGen! by Chris Wilmer'
_symmetry_space_group_name_H-M	'P1'
_symmetry_Int_Tables_number	1
_symmetry_cell_setting	triclinic
loop_
_symmetry_equiv_pos_as_xyz
  x,y,z
_cell_length_a	19.805405
_cell_length_b	18.215407
_cell_length_c	18.215399
_cell_angle_alpha	90.017368
_cell_angle_beta	90.030610
_cell_angle_gamma	90.023854
loop_
_atom_site_label
_atom_site_type_symbol
_atom_site_fract_x
_atom_site_fract_y
_atom_site_fract_z
Zn1	Zn	-0.269516	1.125064	0.416054
Zn2	Zn	0.230484	1.625064	0.916054
Zn3	Zn	-0.382707	1.124969	0.292982
Zn4	Zn	0.117293	1.624969	0.792982
Zn5	Zn	-0.269533	1.001997	0.293006
Zn6	Zn	0.230467	1.501997	0.793006
Zn7	Zn	-0.382664	1.001959	0.416012
Zn8	Zn	0.117336	1.501959	0.916012
O9	O	-0.326105	1.063497	0.354514
O10	O	0.173895	1.563497	0.854514
O11	O	-0.284543	1.228036	0.399735
O12	O	0.215457	1.728036	0.899735
O13	O	-0.367719	1.108633	0.190001
O14	O	0.132281	1.608633	0.690001
O15	O	-0.174814	1.018377	0.309357
O16	O	0.325186	1.518377	0.809357
O17	O	-0.367704	1.227966	0.309315
O18	O	0.132296	1.727966	0.809315
O19	O	-0.174802	1.108794	0.399759
O20	O	0.325198	1.608794	0.899759
O21	O	-0.284570	1.018285	0.190019
O22	O	0.215430	1.518285	0.690019
O23	O	-0.284528	0.899007	0.309316
O24	O	0.215472	1.399007	0.809316
O25	O	-0.367629	1.018313	0.519002
O26	O	0.132371	1.518313	1.019002
O27	O	-0.367645	0.898980	0.399688
O28	O	0.132355	1.398980	0.899688
O29	O	-0.284501	1.108758	0.519033
O30	O	0.215499	1.608758	1.019033
O31	O	-0.477418	1.108596	0.309274
O32	O	0.022582	1.608596	0.809274
O33	O	-0.477386	1.018221	0.399664
O34	O	0.022614	1.518221	0.899664
C35	C	-0.326084	0.872291	0.354501
C36	C	0.173916	1.372291	0.854501
C37	C	-0.326092	0.790492	0.354513
C38	C	0.173908	1.290492	0.854513
C39	C	-0.282879	0.602334	0.401669
C40	C	0.217121	1.102334	0.901669
C41	C	-0.282885	0.525475	0.401671
C42	C	0.217115	1.025475	0.901671
C43	C	-0.369350	0.525413	0.307371
C44	C	0.130650	1.025413	0.807371
C45	C	-0.369340	0.602270	0.307365
C46	C	0.130660	1.102270	0.807365
C47	C	-0.326106	0.640729	0.354519
C48	C	0.173894	1.140729	0.854519
C49	C	-0.326121	0.487013	0.354527
C50	C	0.173879	0.987013	0.854527
C51	C	-0.326128	0.403679	0.354529
C52	C	0.173872	0.903679	0.854529
C53	C	-0.326098	0.724068	0.354515
C54	C	0.173902	1.224068	0.854515
C55	C	-0.501961	1.063415	0.354478
C56	C	-0.001961	1.563415	0.854478
C57	C	-0.577193	1.063446	0.354487
C58	C	-0.077193	1.563446	0.854487
C59	C	-0.612531	1.110550	0.307471
C60	C	-0.112531	1.610550	0.807471
C61	C	-0.683220	1.110582	0.307487
C62	C	-0.183220	1.610582	0.807487
C63	C	-0.718569	1.063505	0.354517
C64	C	-0.218569	1.563505	0.854517
C65	C	-0.683225	1.016399	0.401539
C66	C	-0.183225	1.516399	0.901539
C67	C	-0.612538	1.016372	0.401525
C68	C	-0.112538	1.516372	0.901525
C69	C	-0.968298	1.016507	0.401593
C70	C	-0.468298	1.516507	0.901593
C71	C	-1.038991	1.016536	0.401601
C72	C	-0.538991	1.516536	0.901601
C73	C	-1.038980	1.110717	0.307555
C74	C	-0.538980	1.610717	0.807555
C75	C	-0.968293	1.110690	0.307541
C76	C	-0.468293	1.610690	0.807541
C77	C	-0.932956	1.063587	0.354566
C78	C	-0.432956	1.563587	0.854566
C79	C	-0.856307	1.063555	0.354548
C80	C	-0.356307	1.563555	0.854548
C81	C	-0.795216	1.063533	0.354531
C82	C	-0.295216	1.563533	0.854531
C83	C	-0.149562	1.063601	0.354565
C84	C	0.350438	1.563601	0.854565
C85	C	-0.074330	1.063644	0.354587
C86	C	0.425670	1.563644	0.854587
C87	C	-0.326058	1.063542	0.546467
C88	C	0.173942	1.563542	1.046467
C89	C	-0.326038	1.063561	0.628265
C90	C	0.173962	1.563561	1.128265
C91	C	-0.326126	1.255450	0.354527
C92	C	0.173874	1.755450	0.854527
C93	C	-0.326135	1.337249	0.354533
C94	C	0.173865	1.837249	0.854533
C95	C	-0.326103	1.063495	0.163307
C96	C	0.173897	1.563495	0.663307
C97	C	-0.325932	1.063619	0.081509
C98	C	0.174068	1.563619	0.581509
C99	C	-0.282713	1.110673	0.816477
C100	C	0.217287	1.610673	1.316477
C101	C	-0.282693	1.110681	0.893335
C102	C	0.217307	1.610681	1.393335
C103	C	-0.369259	1.016502	0.893292
C104	C	0.130741	1.516502	1.393292
C105	C	-0.369275	1.016490	0.816435
C106	C	0.130725	1.516490	1.316435
C107	C	-0.326003	1.063580	0.778029
C108	C	0.173997	1.563580	1.278029
C109	C	-0.325967	1.063600	0.931745
C110	C	0.174033	1.563600	1.431745
C111	C	-0.325946	1.063609	1.015079
C112	C	0.174054	1.563609	1.515079
C113	C	-0.326023	1.063570	0.694690
C114	C	0.173977	1.563570	1.194690
H115	H	-0.404542	0.633533	0.268966
H116	H	0.095458	1.133533	0.768966
Br117	Br	-0.223944	1.174602	0.945512
Br118	Br	0.276056	1.674602	1.445512
Br119	Br	-0.564578	0.952447	0.465341
Br120	Br	-0.064578	1.452447	0.965341
H121	H	-0.404551	0.494091	0.268982
H122	H	0.095449	0.994091	0.768982
Br123	Br	-0.224202	0.654525	0.465660
Br124	Br	0.275798	1.154525	0.965660
Br125	Br	-0.920350	0.952582	0.465412
Br126	Br	-0.420350	1.452582	0.965412
Br127	Br	-0.427986	0.952600	0.945419
Br128	Br	0.072014	1.452600	1.445419
H129	H	-0.583755	1.148882	0.269170
H130	H	-0.083755	1.648882	0.769170
H131	H	-0.404527	0.978136	0.785130
H132	H	0.095473	1.478136	1.285130
H133	H	-1.067760	1.149073	0.269268
H134	H	-0.567760	1.649073	0.769268
H135	H	-0.247684	0.494217	0.440065
H136	H	0.252316	0.994217	0.940065
H137	H	-0.711989	1.148938	0.269201
H138	H	-0.211989	1.648938	0.769201
H139	H	-1.067770	0.978201	0.439904
H140	H	-0.567770	1.478201	0.939904
Br141	Br	-0.920323	1.174581	0.243712
Br142	Br	-0.420323	1.674581	0.743712
Br143	Br	-0.731198	0.952514	0.465372
Br144	Br	-0.231198	1.452514	0.965372
H145	H	-0.247476	1.149014	0.785209
H146	H	0.252524	1.649014	1.285209
