data_functionalizedCrystal
_audit_creation_method	'MofGen! by Chris Wilmer'
_symmetry_space_group_name_H-M	'P1'
_symmetry_Int_Tables_number	1
_symmetry_cell_setting	triclinic
loop_
_symmetry_equiv_pos_as_xyz
  x,y,z
_cell_length_a	12.811457
_cell_length_b	14.044220
_cell_length_c	11.892095
_cell_angle_alpha	94.243827
_cell_angle_beta	91.498327
_cell_angle_gamma	88.595730
loop_
_atom_site_label
_atom_site_type_symbol
_atom_site_fract_x
_atom_site_fract_y
_atom_site_fract_z
O1	O	1.401369	0.130897	0.049656
O2	O	1.901369	0.630897	0.549656
O3	O	1.099114	0.142797	0.018668
O4	O	1.599114	0.642797	0.518668
O5	O	1.245704	-0.001185	0.033708
O6	O	1.745704	0.498815	0.533708
O7	O	1.254779	0.274879	0.034616
O8	O	1.754779	0.774879	0.534616
O9	O	1.233480	0.010802	0.220461
O10	O	1.733480	0.510802	0.720461
O11	O	1.086890	0.154783	0.205421
O12	O	1.586890	0.654783	0.705421
O13	O	1.389144	0.142883	0.236410
O14	O	1.889144	0.642883	0.736410
Zn15	Zn	1.236077	0.150736	0.250566
Zn16	Zn	1.736077	0.650736	0.750566
Zn17	Zn	1.252182	0.134944	0.004511
Zn18	Zn	1.752182	0.634944	0.504511
O19	O	1.242555	0.286865	0.221369
O20	O	1.742555	0.786865	0.721369
C21	C	1.054087	0.147756	0.108055
C22	C	1.554087	0.647756	0.608055
C23	C	0.938129	0.144663	0.096167
C24	C	1.438129	0.644663	0.596167
C25	C	0.706904	0.151903	0.277449
C26	C	1.206904	0.651903	0.777449
C27	C	0.597952	0.148997	0.266284
C28	C	1.097952	0.648997	0.766284
C29	C	0.611270	0.135939	0.062675
C30	C	1.111270	0.635939	0.562675
C31	C	0.720222	0.138845	0.073839
C32	C	1.220222	0.638845	0.573839
C33	C	0.768035	0.146828	0.181229
C34	C	1.268035	0.646828	0.681229
C35	C	0.876990	0.149741	0.192393
C36	C	1.376990	0.649741	0.692393
C37	C	0.890306	0.136676	-0.011216
C38	C	1.390306	0.636676	0.488784
C39	C	0.781354	0.133770	-0.022380
C40	C	1.281354	0.633770	0.477620
C41	C	1.235620	-0.030548	0.126678
C42	C	1.735620	0.469452	0.626678
C43	C	1.223773	-0.135899	0.125465
C44	C	1.723773	0.364101	0.625465
C45	C	1.202114	-0.328789	0.123228
C46	C	1.702114	0.171211	0.623228
C47	C	1.286141	-0.385537	0.131839
C48	C	1.786141	0.114463	0.631839
C49	C	1.274090	-0.492868	0.130595
C50	C	1.774090	0.007132	0.630595
C51	C	1.214164	-0.221448	0.124472
C52	C	1.714164	0.278552	0.624472
C53	C	1.434172	0.137924	0.147020
C54	C	1.934172	0.637924	0.647020
C55	C	1.550130	0.141016	0.158901
C56	C	2.050130	0.641016	0.658901
C57	C	1.252639	0.316228	0.128397
C58	C	1.752639	0.816228	0.628397
C59	C	1.264487	0.421578	0.129603
C60	C	1.764487	0.921578	0.629603
N61	N	1.225092	0.161514	0.418493
N62	N	1.725092	0.661514	0.918493
N63	N	1.263174	0.124159	-0.163415
N64	N	1.763174	0.624159	0.336585
C65	C	1.339602	0.049111	0.666890
C66	C	1.839602	0.549111	1.166890
C67	C	1.331932	0.056651	0.784445
C68	C	1.831932	0.556651	1.284445
C69	C	1.202079	0.184129	0.771160
C70	C	1.702079	0.684129	1.271160
C71	C	1.209748	0.176589	0.653605
C72	C	1.709748	0.676589	1.153605
C73	C	1.278513	0.109079	0.601475
C74	C	1.778513	0.609079	1.101475
C75	C	1.286188	0.101544	0.483918
C76	C	1.786188	0.601544	0.983918
C77	C	1.156329	0.229017	0.470635
C78	C	1.656329	0.729017	0.970635
C79	C	1.148659	0.236557	0.588190
C80	C	1.648659	0.736557	1.088190
H81	H	0.742409	0.127266	-0.109814
H82	H	1.242409	0.627266	0.390186
C83	C	1.092711	-0.372042	0.112009
C84	C	1.592711	0.127958	0.612009
H85	H	1.041571	-0.322325	0.106763
H86	H	1.541571	0.177675	0.606763
H87	H	1.080270	-0.406071	0.176292
H88	H	1.580270	0.093929	0.676292
H89	H	1.088795	-0.414412	0.046033
H90	H	1.588795	0.085588	0.546033
C91	C	0.558663	0.127153	-0.055441
C92	C	1.058663	0.627153	0.444559
H93	H	0.485020	0.126152	-0.048304
H94	H	0.985020	0.626152	0.451696
H95	H	0.582070	0.069737	-0.095153
H96	H	1.082070	0.569737	0.404847
H97	H	0.576432	0.180165	-0.095731
H98	H	1.076432	0.680165	0.404269
C99	C	0.957552	0.131102	-0.117061
C100	C	1.457552	0.631102	0.382939
H101	H	1.029289	0.133974	-0.095035
H102	H	1.529289	0.633974	0.404965
H103	H	0.939611	0.183156	-0.161003
H104	H	1.439611	0.683156	0.338997
H105	H	0.945254	0.072727	-0.160435
H106	H	1.445254	0.572727	0.339565
H107	H	1.367134	-0.353516	0.140067
H108	H	1.867134	0.146484	0.640067
C109	C	1.072992	0.310787	0.645531
C110	C	1.572992	0.810787	1.145531
H111	H	1.037695	0.345410	0.589730
H112	H	1.537695	0.845410	1.089730
H113	H	1.111159	0.353648	0.695619
H114	H	1.611159	0.853648	1.195619
H115	H	1.023414	0.279085	0.686603
H116	H	1.523414	0.779085	1.186603
C117	C	1.089142	0.294995	0.398677
C118	C	1.589142	0.794995	0.898677
H119	H	1.103556	0.280838	0.321198
H120	H	1.603556	0.780838	0.821198
H121	H	1.105108	0.359674	0.419713
H122	H	1.605108	0.859674	0.919713
H123	H	1.017309	0.285164	0.410714
H124	H	1.517309	0.785164	0.910714
C125	C	1.126375	0.258325	0.828505
C126	C	1.626375	0.758325	1.328505
H127	H	1.091063	0.292942	0.772708
H128	H	1.591063	0.792942	1.272708
H129	H	1.164509	0.301198	0.878611
H130	H	1.664509	0.801198	1.378611
H131	H	1.076813	0.226587	0.869557
H132	H	1.576813	0.726587	1.369557
H133	H	1.342183	0.046576	0.441475
H134	H	1.842183	0.546576	0.941475
C135	C	1.415242	-0.025142	0.609543
C136	C	1.915242	0.474858	1.109543
H137	H	1.450524	-0.059780	0.665340
H138	H	1.950524	0.440220	1.165340
H139	H	1.464819	0.006528	0.568446
H140	H	1.964819	0.506528	1.068446
H141	H	1.377037	-0.067999	0.559476
H142	H	1.877037	0.432001	1.059476
C143	C	1.399128	-0.009310	0.856404
C144	C	1.899128	0.490690	1.356404
H145	H	1.384708	0.004842	0.933882
H146	H	1.884708	0.504842	1.433882
H147	H	1.470953	0.000521	0.844356
H148	H	1.970953	0.500521	1.344356
H149	H	1.383161	-0.073997	0.835378
H150	H	1.883161	0.426003	1.335378
C151	C	0.929589	0.158521	0.310513
C152	C	1.429589	0.658521	0.810513
H153	H	1.003232	0.159534	0.303385
H154	H	1.503232	0.659534	0.803385
H155	H	0.911811	0.105516	0.350800
H156	H	1.411811	0.605516	0.850800
H157	H	0.906181	0.215944	0.350222
H158	H	1.406181	0.715944	0.850222
C159	C	0.759503	0.160665	0.395569
C160	C	1.259503	0.660665	0.895569
H161	H	0.707490	0.163262	0.451277
H162	H	1.207490	0.663262	0.951277
H163	H	0.798926	0.217274	0.403881
H164	H	1.298926	0.717274	0.903881
H165	H	0.804532	0.106843	0.404429
H166	H	1.304532	0.606843	0.904429
H167	H	0.548182	0.153134	0.344636
H168	H	1.048182	0.653134	0.844636
