data_functionalizedCrystal
_audit_creation_method	'MofGen! by Chris Wilmer'
_symmetry_space_group_name_H-M	'P1'
_symmetry_Int_Tables_number	1
_symmetry_cell_setting	triclinic
loop_
_symmetry_equiv_pos_as_xyz
  x,y,z
_cell_length_a	31.640172
_cell_length_b	23.096457
_cell_length_c	23.096457
_cell_angle_alpha	90.003586
_cell_angle_beta	60.006251
_cell_angle_gamma	60.001847
loop_
_atom_site_label
_atom_site_type_symbol
_atom_site_fract_x
_atom_site_fract_y
_atom_site_fract_z
Zr1	Zr	0.462592	-0.075994	0.557845
O2	O	0.550757	-0.168438	0.465406
O3	O	0.374426	-0.047656	0.586172
O4	O	0.462591	-0.168443	0.586178
O5	O	0.462592	0.047630	0.465407
O6	O	0.462592	-0.168447	0.681459
O7	O	0.462591	-0.047650	0.465399
O8	O	0.304881	0.047620	0.681447
O9	O	0.620304	-0.168437	0.465419
O10	O	0.410691	-0.035572	0.669373
O11	O	0.410691	0.035538	0.598272
O12	O	0.514495	-0.106674	0.598280
O13	O	0.514495	-0.035565	0.527179
Zr14	Zr	0.462596	0.075962	0.709819
Zr15	Zr	0.462594	-0.075999	0.709807
Zr16	Zr	0.462594	0.075967	0.557858
Zr17	Zr	0.573512	-0.075992	0.557866
Zr18	Zr	0.351676	0.075960	0.709798
O19	O	0.550762	0.047624	0.681493
O20	O	0.550759	-0.168446	0.681475
O21	O	0.550759	0.047632	0.465424
O22	O	0.374431	0.168405	0.802259
O23	O	0.374429	-0.047664	0.802241
O24	O	0.374429	0.168413	0.586189
O25	O	0.462595	-0.047662	0.802257
O26	O	0.462597	0.168411	0.681486
O27	O	0.462595	0.168415	0.586206
O28	O	0.462597	0.047618	0.802265
O29	O	0.620306	-0.168441	0.586208
O30	O	0.304882	0.168409	0.681457
O31	O	0.304884	0.168404	0.802246
O32	O	0.304882	0.047616	0.802236
O33	O	0.620306	-0.047648	0.465429
O34	O	0.620307	-0.047652	0.586218
O35	O	0.410693	0.106642	0.669385
O36	O	0.410693	0.035533	0.740485
O37	O	0.514496	-0.035570	0.669392
O38	O	0.514496	0.035539	0.598292
C39	C	0.323850	-0.000018	0.633806
C40	C	0.276761	-0.000019	0.633797
C41	C	0.462592	-0.000009	0.443752
C42	C	0.462591	-0.000007	0.379240
C43	C	0.462596	0.190064	0.633848
C44	C	0.462597	0.254576	0.633853
C45	C	-0.015281	-0.037128	0.670960
C46	C	-0.192277	-0.037127	0.670975
O47	O	-0.215181	-0.068670	0.702565
N48	N	-0.214406	-0.000011	0.633860
C49	C	-0.192286	0.037113	0.596743
O50	O	-0.215174	0.068689	0.565181
C51	C	-0.015294	0.037116	0.596733
C52	C	0.006837	-0.000009	0.633844
C53	C	0.006850	-0.074249	0.708069
C54	C	0.051098	-0.074252	0.708062
C55	C	0.073216	-0.037134	0.670946
C56	C	0.051086	-0.000012	0.633837
C57	C	0.006822	0.074243	0.559620
C58	C	0.051072	0.074242	0.559623
C59	C	0.073203	0.037117	0.596734
C60	C	0.117452	0.037104	0.596714
N61	N	0.139581	-0.000013	0.633829
C62	C	0.117463	-0.037132	0.670945
C63	C	-0.285208	0.037107	0.596750
C64	C	-0.329455	0.037105	0.596751
C65	C	-0.329444	-0.037134	0.670984
C66	C	-0.285193	-0.037136	0.670978
C67	C	-0.263079	-0.000010	0.633864
C68	C	0.210389	-0.037136	0.670926
C69	C	0.254643	-0.037138	0.670913
C70	C	0.254626	0.037104	0.596683
C71	C	0.210377	0.037104	0.596693
C72	C	0.188259	-0.000018	0.633820
O73	O	0.140380	0.068636	0.565147
O74	O	0.140349	-0.068690	0.702515
C75	C	-0.059529	-0.037125	0.670968
C76	C	-0.081660	-0.000003	0.633859
C77	C	-0.059542	0.037115	0.596743
C78	C	-0.125907	-0.000005	0.633860
C79	C	-0.148025	-0.037124	0.670976
C80	C	-0.125896	-0.074241	0.708091
C81	C	-0.081647	-0.074244	0.708084
C82	C	-0.081671	0.074232	0.559628
C83	C	-0.125919	0.074231	0.559637
C84	C	-0.148037	0.037113	0.596753
C85	C	0.601338	-0.000014	0.633858
C86	C	0.648427	-0.000013	0.633867
C87	C	0.462592	-0.190096	0.633817
C88	C	0.462591	-0.254608	0.633811
C89	C	0.516780	0.247767	0.596746
C90	C	0.516781	0.308382	0.596736
C91	C	0.462596	0.375806	0.633846
C92	C	0.408406	0.382613	0.670954
C93	C	0.408407	0.321998	0.670958
N94	N	0.422263	0.498607	0.694240
N95	N	0.422266	0.556187	0.694235
C96	C	0.462590	0.558439	0.633836
N97	N	0.502920	0.500931	0.573442
N98	N	0.502919	0.443345	0.573449
C99	C	0.462589	0.441538	0.633846
C100	C	0.516778	0.617354	0.596714
C101	C	0.516776	0.677972	0.596702
C102	C	0.408400	0.752202	0.670927
C103	C	0.408403	0.691584	0.670933
C104	C	0.462593	0.624163	0.633828
C105	C	0.408408	0.037101	0.386044
C106	C	0.408407	0.037104	0.325429
C107	C	0.462592	-0.000014	0.258010
C108	C	0.516782	-0.037124	0.251208
C109	C	0.516781	-0.037120	0.311823
N110	N	0.502925	-0.060424	0.135217
N111	N	0.502922	-0.060426	0.077637
C112	C	0.462598	-0.000027	0.075377
N113	N	0.422268	0.060374	0.132878
N114	N	0.422269	0.060375	0.190464
C115	C	0.462599	-0.000022	0.192279
C116	C	0.408410	0.037088	0.016458
C117	C	0.408412	0.037093	-0.044161
C118	C	0.516788	-0.037143	-0.118381
C119	C	0.516785	-0.037141	-0.057763
C120	C	0.462594	-0.000027	0.009654
C121	C	0.462596	-0.000023	0.823913
C122	C	0.462597	-0.000025	0.888424
C123	C	0.323852	-0.000025	0.823886
C124	C	0.276764	-0.000028	0.888389
C125	C	0.323852	0.190062	0.633822
C126	C	0.276764	0.254573	0.633818
C127	C	0.323854	0.190055	0.823902
C128	C	0.276767	0.254564	0.888410
C129	C	0.601334	-0.190087	0.443762
C130	C	0.648421	-0.254596	0.379254
C131	C	0.601336	-0.000007	0.443778
C132	C	0.648424	-0.000004	0.379275
C133	C	0.601336	-0.190094	0.633843
C134	C	0.648424	-0.254605	0.633846
C135	C	0.254650	-0.037152	0.881560
C136	C	0.210413	-0.037169	0.942162
C137	C	0.188286	-0.000058	1.009591
C138	C	0.210405	0.037067	1.016419
C139	C	0.254645	0.037079	0.955818
C140	C	0.254652	0.321990	0.670937
C141	C	0.210415	0.382610	0.670931
C142	C	0.188287	0.375812	0.633810
C143	C	0.210403	0.308388	0.596687
C144	C	0.254643	0.247769	0.596689
C145	C	0.254655	0.247739	0.955824
C146	C	0.210418	0.308346	1.016442
C147	C	0.188291	0.375776	1.009644
C148	C	0.210408	0.382599	0.942223
C149	C	0.254647	0.321993	0.881607
C150	C	0.670538	-0.247771	0.311841
C151	C	0.714789	-0.308378	0.251223
C152	C	0.736918	-0.375808	0.258020
C153	C	0.714799	-0.382632	0.325441
C154	C	0.670552	-0.322026	0.386058
C155	C	0.670542	0.037113	0.386104
C156	C	0.714792	0.037114	0.325503
C157	C	0.736920	0.000001	0.258073
C158	C	0.714800	-0.037121	0.251246
C159	C	0.670553	-0.037125	0.311847
C160	C	0.670538	-0.247784	0.670974
C161	C	0.714776	-0.308393	0.670991
C162	C	0.736902	-0.375822	0.633876
C163	C	0.714784	-0.382641	0.596747
C164	C	0.670543	-0.322033	0.596734
H165	H	0.272662	-0.067372	0.701133
H166	H	-0.063631	-0.104474	0.738303
C167	C	0.620806	-0.050877	0.267197
C168	C	0.646236	-0.077917	0.304333
H169	H	0.605792	-0.076060	0.262559
H170	H	0.650326	-0.056187	0.221466
H171	H	0.589045	-0.002046	0.292391
H172	H	0.678000	-0.126747	0.279136
H173	H	0.616713	-0.072614	0.350072
H174	H	0.732795	0.067345	0.331076
H175	H	-0.347464	0.067327	0.566522
H176	H	0.272664	0.327538	0.701165
C177	C	0.124897	0.422254	0.593394
C178	C	0.139655	0.442450	0.633814
H179	H	0.094876	0.463396	0.593397
H180	H	0.110391	0.394841	0.613262
H181	H	0.159417	0.394838	0.546108
H182	H	0.105136	0.469863	0.681102
H183	H	0.154160	0.469875	0.613949
C184	C	0.232100	0.149870	1.000464
C185	C	0.278940	0.077901	0.963333
H186	H	0.247098	0.175073	1.005103
H187	H	0.202593	0.155160	1.046195
H188	H	0.214847	0.168188	0.975266
H189	H	0.296190	0.059581	0.988534
H190	H	0.308457	0.072607	0.917594
H191	H	0.272641	0.192878	0.566465
H192	H	0.192413	0.437504	0.701163
H193	H	0.192380	0.302864	0.566464
C194	C	0.609163	-0.149919	-0.200302
C195	C	0.576352	-0.077943	-0.192482
H196	H	0.645938	-0.175104	-0.246049
H197	H	0.586901	-0.168245	-0.194995
H198	H	0.616911	-0.155219	-0.165169
H199	H	0.568600	-0.072643	-0.227611
H200	H	0.598618	-0.059611	-0.197795
H201	H	0.272646	0.327560	0.826718
H202	H	0.732822	-0.437541	0.330967
C203	C	0.800285	0.040440	0.211707
C204	C	0.785552	0.000016	0.191464
H205	H	0.830305	0.040455	0.170586
H206	H	0.814786	0.020560	0.239123
H207	H	0.765757	0.087723	0.239130
H208	H	0.820079	-0.047269	0.164045
H209	H	0.771052	0.019893	0.164036
C210	C	0.764153	-0.482857	0.663181
C211	C	0.785534	-0.442440	0.633891
H212	H	0.794177	-0.523979	0.663194
H213	H	0.754157	-0.496574	0.635755
H214	H	0.729630	-0.455429	0.710464
H215	H	0.820055	-0.469867	0.586606
H216	H	0.795539	-0.428724	0.661317
H217	H	0.560906	-0.067363	-0.063307
H218	H	0.732806	-0.437550	0.566529
H219	H	0.272644	0.067323	0.566462
C220	C	0.316036	0.366609	0.783726
C221	C	0.348846	0.329478	0.711753
H222	H	0.279267	0.371221	0.808911
H223	H	0.308279	0.412353	0.789028
H224	H	0.338307	0.341424	0.802051
H225	H	0.326576	0.354665	0.693426
H226	H	0.356601	0.283726	0.706446
C227	C	0.782624	-0.070053	0.125382
C228	C	0.739122	-0.077907	0.177123
H229	H	0.797634	-0.095227	0.079622
H230	H	0.814380	-0.088388	0.130709
H231	H	0.765355	-0.021216	0.130720
H232	H	0.756392	-0.126744	0.171788
H233	H	0.707360	-0.059575	0.171794
H234	H	0.364288	0.437514	0.701168
C235	C	0.360293	0.070049	0.265458
C236	C	0.348846	0.077892	0.332900
H237	H	0.323522	0.095233	0.270074
H238	H	0.382558	0.021221	0.240282
H239	H	0.382554	0.088386	0.240285
H240	H	0.326589	0.059550	0.358072
H241	H	0.326572	0.126730	0.358087
H242	H	-0.143909	-0.104467	0.738310
H243	H	0.652543	-0.327597	0.566497
C244	C	0.764154	-0.442401	0.150976
C245	C	0.785550	-0.442424	0.191385
H246	H	0.794176	-0.483527	0.109840
H247	H	0.754143	-0.401267	0.137287
H248	H	0.729638	-0.442406	0.178397
H249	H	0.820065	-0.442414	0.163966
H250	H	0.795570	-0.483569	0.205073
H251	H	0.272665	-0.067380	0.826661
H252	H	0.192383	0.067281	1.071328
H253	H	0.152269	0.425120	1.059008
C254	C	0.674995	0.110482	0.453400
C255	C	0.646226	0.077911	0.460218
H256	H	0.659988	0.135666	0.499154
H257	H	0.667743	0.142517	0.428215
H258	H	0.716764	0.075350	0.428215
H259	H	0.604457	0.113045	0.485399
H260	H	0.653473	0.045874	0.485414
C261	C	0.564906	0.121888	0.563800
C262	C	0.576345	0.173657	0.555960
H263	H	0.601680	0.076136	0.538624
H264	H	0.542650	0.127196	0.545462
H265	H	0.542639	0.127217	0.612633
H266	H	0.598609	0.168332	0.507128
H267	H	0.598610	0.168347	0.574295
C268	C	0.232954	0.263679	1.098350
C269	C	0.186116	0.300825	1.090541
H270	H	0.217952	0.259029	1.144092
H271	H	0.250206	0.288867	1.093051
H272	H	0.262463	0.217942	1.063208
H273	H	0.156608	0.346564	1.125681
H274	H	0.168854	0.275638	1.095847
C275	C	0.161030	-0.029366	1.116621
C276	C	0.139652	-0.000070	1.076201
H277	H	0.131004	-0.029376	1.157738
H278	H	0.171027	-0.001945	1.130343
H279	H	0.195552	-0.076653	1.089195
H280	H	0.105132	0.047219	1.103625
H281	H	0.129647	-0.027491	1.062480
C282	C	0.142573	0.508470	1.002205
C283	C	0.186077	0.456723	0.934759
H284	H	0.127547	0.554231	0.997597
H285	H	0.159842	0.503148	1.027379
H286	H	0.110822	0.503130	1.027377
H287	H	0.217830	0.462059	0.909589
H288	H	0.168808	0.462048	0.909575
C289	C	0.675000	-0.180479	0.232378
C290	C	0.646229	-0.173656	0.304356
H291	H	0.660000	-0.134725	0.227754
H292	H	0.667745	-0.205657	0.210273
H293	H	0.716770	-0.205676	0.210294
H294	H	0.604459	-0.148464	0.326438
H295	H	0.653480	-0.148468	0.326470
H296	H	0.272664	0.192839	0.961372
C297	C	0.623902	0.550067	0.523342
C298	C	0.576342	0.543240	0.555923
H299	H	0.660673	0.504312	0.498156
H300	H	0.621649	0.575257	0.558460
H301	H	0.621642	0.575251	0.491303
H302	H	0.578599	0.518060	0.587966
H303	H	0.578596	0.518039	0.520800
H304	H	-0.143931	0.104461	0.529410
C305	C	0.800662	-0.333427	0.140007
C306	C	0.739093	-0.300865	0.177120
H307	H	0.815662	-0.328783	0.094263
H308	H	0.820175	-0.382255	0.135374
H309	H	0.807901	-0.311316	0.165212
H310	H	0.731854	-0.322980	0.151917
H311	H	0.719574	-0.252028	0.181750
C312	C	0.710330	-0.228901	0.744356
C313	C	0.739089	-0.300886	0.711797
H314	H	0.725344	-0.224267	0.769542
H315	H	0.668565	-0.206805	0.776385
H316	H	0.717588	-0.206815	0.709219
H317	H	0.731828	-0.322971	0.746934
H318	H	0.780864	-0.322991	0.679765
H319	H	0.192409	-0.067400	0.936589
C320	C	0.675003	-0.401521	0.453315
C321	C	0.646235	-0.329535	0.460159
H322	H	0.659989	-0.406159	0.499061
H323	H	0.716767	-0.423608	0.428142
H324	H	0.667755	-0.423614	0.428107
H325	H	0.653487	-0.307443	0.485361
H326	H	0.604462	-0.307439	0.485342
H327	H	0.192384	-0.067362	0.701159
H328	H	0.652529	-0.192886	0.701198
H329	H	-0.063669	0.104461	0.529405
H330	H	-0.011156	-0.104475	0.738297
C331	C	0.028584	-0.088017	0.820838
C332	C	0.075413	-0.115052	0.748867
H333	H	0.043593	-0.113203	0.846032
H334	H	-0.000928	-0.093328	0.826139
H335	H	0.011334	-0.039187	0.839155
H336	H	0.092660	-0.163882	0.730549
H337	H	0.104935	-0.109747	0.743562
C338	C	-0.289638	-0.110514	0.744355
C339	C	-0.260874	-0.077937	0.711780
H340	H	-0.274629	-0.135699	0.769550
H341	H	-0.282384	-0.142549	0.709232
H342	H	-0.331408	-0.075385	0.776386
H343	H	-0.219105	-0.113067	0.679745
H344	H	-0.268123	-0.045900	0.746907
H345	H	0.560900	0.672421	0.566481
C346	C	-0.289669	0.110483	0.523368
C347	C	-0.260900	0.077913	0.555943
H348	H	-0.274659	0.135669	0.498170
H349	H	-0.331433	0.142515	0.558491
H350	H	-0.282418	0.075349	0.491340
H351	H	-0.268154	0.113048	0.587975
H352	H	-0.219126	0.045878	0.520816
C353	C	0.609161	0.263771	0.483976
C354	C	0.576342	0.300904	0.555950
H355	H	0.645933	0.259151	0.458799
H356	H	0.586901	0.288950	0.465643
H357	H	0.616915	0.218022	0.478673
H358	H	0.568584	0.346655	0.561252
H359	H	0.598607	0.275725	0.574288
C360	C	0.011312	0.147570	0.486195
C361	C	-0.017465	0.115010	0.518783
H362	H	-0.003675	0.172729	0.460972
H363	H	0.053078	0.112440	0.454195
H364	H	0.004040	0.179632	0.521320
H365	H	-0.010190	0.082944	0.483657
H366	H	-0.059241	0.150144	0.550785
H367	H	0.069075	0.104474	0.529398
C368	C	0.214698	0.110644	0.523475
C369	C	0.185971	0.078017	0.556006
H370	H	0.199602	0.135942	0.498397
H371	H	0.256455	0.075536	0.491353
H372	H	0.207508	0.142590	0.558616
H373	H	0.193164	0.046067	0.520865
H374	H	0.144204	0.113129	0.588131
H375	H	-0.347459	-0.067359	0.701205
C376	C	0.360278	0.878078	0.703862
C377	C	0.348838	0.826310	0.711707
H378	H	0.323505	0.923830	0.729037
H379	H	0.382546	0.872746	0.655035
H380	H	0.382534	0.872771	0.722206
H381	H	0.326585	0.831613	0.693359
H382	H	0.326561	0.831644	0.760544
H383	H	0.364282	0.067317	0.440935
C384	C	0.316036	0.736189	0.783703
C385	C	0.348845	0.699062	0.711730
H386	H	0.279267	0.740802	0.808888
H387	H	0.308279	0.781934	0.789008
H388	H	0.338308	0.711003	0.802027
H389	H	0.326574	0.724252	0.693405
H390	H	0.356600	0.653310	0.706421
C391	C	0.579651	-0.129703	0.139988
C392	C	0.576343	-0.077930	0.177102
H393	H	0.616425	-0.154896	0.094240
H394	H	0.547384	-0.107599	0.135366
H395	H	0.577398	-0.161734	0.165186
H396	H	0.578592	-0.045895	0.151907
H397	H	0.608619	-0.100034	0.181722
C398	C	0.301286	0.110477	0.083735
C399	C	0.348846	0.077894	0.090566
H400	H	0.264515	0.135674	0.129486
H401	H	0.303535	0.075356	0.058554
H402	H	0.303550	0.142509	0.058542
H403	H	0.346585	0.045858	0.115754
H404	H	0.346596	0.113020	0.115758
H405	H	0.560905	-0.067336	0.306278
H406	H	0.364288	0.067316	-0.038614
