data_functionalizedCrystal
_audit_creation_method	'MofGen! by Chris Wilmer'
_symmetry_space_group_name_H-M	'P1'
_symmetry_Int_Tables_number	1
_symmetry_cell_setting	triclinic
loop_
_symmetry_equiv_pos_as_xyz
  x,y,z
_cell_length_a	17.038272
_cell_length_b	11.792241
_cell_length_c	10.868271
_cell_angle_alpha	89.998441
_cell_angle_beta	90.001130
_cell_angle_gamma	87.652486
loop_
_atom_site_label
_atom_site_type_symbol
_atom_site_fract_x
_atom_site_fract_y
_atom_site_fract_z
O1	O	-1.038457	-0.246559	0.102169
O2	O	-0.810809	-0.242644	0.102206
O3	O	-0.930157	-0.079915	0.102178
O4	O	-0.919108	-0.409288	0.102197
O5	O	-0.930146	-0.079919	-0.102467
O6	O	-0.810798	-0.242648	-0.102439
O7	O	-1.038446	-0.246563	-0.102475
Zn8	Zn	-0.924620	-0.244607	-0.134949
Zn9	Zn	-0.924634	-0.244600	0.134679
O10	O	-0.919097	-0.409292	-0.102448
C11	C	-0.781659	-0.239085	-0.000112
C12	C	-0.694819	-0.228461	-0.000099
C13	C	-0.929458	-0.037565	-0.000144
C14	C	-0.927380	0.088630	-0.000142
C15	C	-1.067595	-0.250122	-0.000155
C16	C	-1.154435	-0.260746	-0.000160
C17	C	-0.645136	-0.326001	-0.000094
C18	C	-0.563542	-0.316012	-0.000112
C19	C	-0.531632	-0.208482	-0.000125
C20	C	-0.581321	-0.110935	-0.000133
C21	C	-0.662914	-0.120925	-0.000125
C22	C	-0.285718	-0.173189	-0.000160
C23	C	-0.204118	-0.163206	-0.000165
C24	C	-0.186344	-0.368284	-0.000145
C25	C	-0.267940	-0.378265	-0.000129
C26	C	-0.317622	-0.280718	-0.000144
C27	C	-0.448229	-0.198269	-0.000139
C28	C	-0.401023	-0.290932	-0.000139
C29	C	-0.919797	-0.451642	-0.000123
C30	C	-0.921874	-0.577837	-0.000117
C31	C	-0.923561	0.319677	-0.000121
C32	C	-0.925683	0.191106	-0.000133
N33	N	-0.924616	-0.244611	-0.318963
C34	C	-0.924622	-0.244612	-0.430301
C35	C	-0.924632	-0.244602	-0.569978
N36	N	-0.924645	-0.244588	0.318693
H37	H	-0.523092	-0.395440	-0.000106
C38	C	-0.680234	-0.444282	-0.000075
H39	H	-0.735944	-0.436266	-0.000059
H40	H	-0.663214	-0.484780	-0.071437
H41	H	-0.663204	-0.484768	0.071300
C42	C	-0.303039	-0.496545	-0.000109
H43	H	-0.358749	-0.488524	-0.000090
H44	H	-0.286022	-0.537051	-0.071467
H45	H	-0.286010	-0.537025	0.071270
C46	C	-0.717569	-0.013635	-0.000128
H47	H	-0.770733	-0.034984	-0.000134
H48	H	-0.707849	0.030140	0.071229
H49	H	-0.707851	0.030124	-0.071508
C50	C	-0.131693	-0.475575	-0.000145
H51	H	-0.078529	-0.454230	-0.000163
H52	H	-0.141409	-0.519345	0.071220
H53	H	-0.141419	-0.519339	-0.071517
H54	H	-0.427008	-0.378482	-0.000135
H55	H	-0.422239	-0.110718	-0.000185
C56	C	-0.169019	-0.044918	-0.000182
H57	H	-0.210293	0.011747	-0.000200
H58	H	-0.137557	-0.036756	0.071181
H59	H	-0.137560	-0.036769	-0.071556
H60	H	-0.326160	-0.093758	-0.000173
H61	H	-0.555334	-0.023382	-0.000162
