data_functionalizedCrystal
_audit_creation_method	'MofGen! by Chris Wilmer'
_symmetry_space_group_name_H-M	'P1'
_symmetry_Int_Tables_number	1
_symmetry_cell_setting	triclinic
loop_
_symmetry_equiv_pos_as_xyz
  x,y,z
_cell_length_a	21.295420
_cell_length_b	21.295417
_cell_length_c	12.759393
_cell_angle_alpha	89.962952
_cell_angle_beta	89.977203
_cell_angle_gamma	90.025484
loop_
_atom_site_label
_atom_site_type_symbol
_atom_site_fract_x
_atom_site_fract_y
_atom_site_fract_z
Zn1	Zn	0.962348	-0.250650	-0.594024
Zn2	Zn	0.962255	-0.355932	-0.418324
Zn3	Zn	0.857074	-0.250673	-0.418354
Zn4	Zn	0.857042	-0.355877	-0.593956
O5	O	0.909680	-0.303283	-0.506165
O6	O	1.050425	-0.264629	-0.570734
O7	O	0.948277	-0.342001	-0.271307
O8	O	0.871091	-0.162580	-0.441698
O9	O	1.050357	-0.341979	-0.441648
O10	O	0.948435	-0.162563	-0.570762
O11	O	0.871001	-0.264668	-0.271329
O12	O	0.768981	-0.264615	-0.441631
O13	O	0.871036	-0.341886	-0.740986
O14	O	0.768957	-0.341908	-0.570645
O15	O	0.948404	-0.264576	-0.741036
O16	O	0.948246	-0.444014	-0.441581
O17	O	0.870946	-0.443974	-0.570617
C18	C	0.746128	-0.303259	-0.506135
C19	C	0.676160	-0.303263	-0.506147
C20	C	0.909599	-0.466834	-0.506111
C21	C	0.909623	-0.536802	-0.506124
C22	C	0.176737	-0.263101	-0.573505
C23	C	0.242479	-0.263097	-0.573504
C24	C	0.275321	-0.303302	-0.506189
C25	C	0.242414	-0.343526	-0.438888
C26	C	0.176672	-0.343534	-0.438897
N27	N	0.378512	-0.308053	-0.414194
N28	N	0.440964	-0.308042	-0.414188
C29	C	0.473395	-0.303281	-0.506158
N30	N	0.441016	-0.298520	-0.598136
N31	N	0.378559	-0.298528	-0.598141
C32	C	0.346606	-0.303298	-0.506172
C33	C	0.577580	-0.263057	-0.573460
C34	C	0.643323	-0.263057	-0.573462
C35	C	0.643256	-0.343483	-0.438836
C36	C	0.577514	-0.343487	-0.438843
C37	C	0.544680	-0.303271	-0.506154
C38	C	0.949873	-0.569603	-0.573376
C39	C	0.949895	-0.635346	-0.573401
C40	C	0.909674	-0.668285	-0.506157
C41	C	0.869416	-0.635476	-0.438900
C42	C	0.869390	-0.569735	-0.438884
N43	N	0.904916	-0.771553	-0.414210
N44	N	0.904944	-0.834004	-0.414229
C45	C	0.909747	-0.866360	-0.506204
N46	N	0.914534	-0.833904	-0.598162
N47	N	0.914509	-0.771447	-0.598143
C48	C	0.909697	-0.739570	-0.506168
C49	C	0.950023	-0.970446	-0.573490
C50	C	0.950041	-1.036190	-0.573518
C51	C	0.869566	-1.036319	-0.439007
C52	C	0.869545	-0.970577	-0.438989
C53	C	0.909777	-0.937644	-0.506229
C54	C	1.073870	-0.303307	-0.506195
C55	C	1.143838	-0.303318	-0.506208
C56	C	0.909727	-0.303222	-0.780198
C57	C	0.909747	-0.303197	-0.896975
C58	C	0.909777	-0.139092	-0.506241
C59	C	0.909819	-0.069124	-0.506273
C60	C	0.950035	-0.262935	-0.951865
C61	C	0.950046	-0.262908	-1.061589
C62	C	0.869478	-0.343410	-1.061524
C63	C	0.869465	-0.343433	-0.951801
C64	C	0.972601	-0.188640	-1.211582
C65	C	1.012899	-0.148383	-1.266476
C66	C	1.074324	-0.138737	-1.230890
C67	C	1.095462	-0.169356	-1.140412
C68	C	1.055167	-0.209617	-1.085524
C69	C	0.993734	-0.219251	-1.121108
C70	C	0.846916	-0.417702	-0.801806
C71	C	0.806624	-0.457966	-0.746916
C72	C	0.745198	-0.467619	-0.782500
C73	C	0.724062	-0.437012	-0.872982
C74	C	0.764354	-0.396747	-0.927872
C75	C	0.825779	-0.387093	-0.892280
C76	C	0.909669	-0.303297	-0.233197
C77	C	0.909771	-0.303146	-0.116421
H78	H	0.150007	-0.230357	-0.628319
O79	O	0.988904	-0.667250	-0.638840
C80	C	0.997356	-0.741442	-0.780656
C81	C	0.953108	-0.705338	-0.706632
H82	H	0.968433	-0.772255	-0.835469
H83	H	1.026097	-0.706645	-0.828795
H84	H	1.030304	-0.772188	-0.732444
H85	H	0.920122	-0.674591	-0.754762
H86	H	0.924412	-0.740169	-0.658489
H87	H	0.269271	-0.230345	-0.628304
H88	H	0.836683	-0.376170	-1.106177
H89	H	0.982834	-0.230170	-0.907228
O90	O	0.988861	-0.537546	-0.638751
C91	C	0.997256	-0.463285	-0.780646
C92	C	0.953033	-0.499539	-0.706655
H93	H	0.968306	-0.432558	-0.835580
H94	H	1.030165	-0.432458	-0.732517
H95	H	1.026040	-0.498040	-0.828669
H96	H	0.924208	-0.464830	-0.658617
H97	H	0.920165	-0.530376	-0.754845
H98	H	0.550727	-0.376233	-0.384039
O99	O	0.675354	-0.223959	-0.638693
C100	C	0.749585	-0.138949	-0.653059
C101	C	0.713360	-0.183198	-0.579067
H102	H	0.780312	-0.105975	-0.604880
H103	H	0.780410	-0.167849	-0.707893
H104	H	0.714811	-0.110237	-0.701189
H105	H	0.748089	-0.211920	-0.530869
H106	H	0.682526	-0.154263	-0.524303
O107	O	0.675248	-0.382482	-0.373481
C108	C	0.776496	-0.418147	-0.313856
C109	C	0.740341	-0.373935	-0.387903
H110	H	0.829130	-0.411262	-0.325506
H111	H	0.763599	-0.407037	-0.229150
H112	H	0.763518	-0.468912	-0.332148
H113	H	0.753299	-0.323155	-0.369705
H114	H	0.753242	-0.385098	-0.472587
O115	O	0.743715	-0.367040	-1.015720
C116	C	0.657586	-0.350531	-1.135012
C117	C	0.680873	-0.384201	-1.035497
H118	H	0.606781	-0.364404	-1.151045
H119	H	0.660612	-0.297549	-1.123289
H120	H	0.688148	-0.364748	-1.204422
H121	H	0.650331	-0.370036	-0.966039
H122	H	0.677861	-0.437176	-1.047309
O123	O	0.989114	-0.938548	-0.638917
C124	C	1.068951	-0.945356	-0.772306
C125	C	1.024706	-0.981556	-0.698277
H126	H	1.097749	-0.980113	-0.820303
H127	H	1.040047	-0.914593	-0.827253
H128	H	1.101847	-0.914556	-0.724105
H129	H	0.991802	-1.012391	-0.746394
H130	H	1.053650	-1.012279	-0.643328
O131	O	0.144809	-0.382620	-0.373418
C132	C	0.151680	-0.462418	-0.239937
C133	C	0.187845	-0.418177	-0.314022
H134	H	0.186459	-0.491187	-0.191912
H135	H	0.120915	-0.433513	-0.185020
H136	H	0.120885	-0.495341	-0.288096
H137	H	0.218674	-0.385246	-0.265948
H138	H	0.218570	-0.447122	-0.368943
O139	O	0.912890	-0.197942	-1.246002
C140	C	0.802491	-0.189660	-1.206910
C141	C	0.870081	-0.179079	-1.167803
H142	H	0.767862	-0.174427	-1.143698
H143	H	0.794261	-0.160848	-1.280973
H144	H	0.795315	-0.241589	-1.224990
H145	H	0.877305	-0.127167	-1.149663
H146	H	0.878279	-0.207931	-1.093775
O147	O	0.545609	-0.224087	-0.638902
C148	C	0.471453	-0.215729	-0.780819
C149	C	0.507607	-0.259932	-0.706757
H150	H	0.440730	-0.244692	-0.835713
H151	H	0.440631	-0.182793	-0.732743
H152	H	0.506273	-0.186972	-0.828880
H153	H	0.472832	-0.288729	-0.658680
H154	H	0.538439	-0.292827	-0.754893
O155	O	0.830315	-0.667539	-0.373724
C156	C	0.745335	-0.741813	-0.359482
C157	C	0.789592	-0.705554	-0.433409
H158	H	0.712390	-0.772546	-0.407709
H159	H	0.774230	-0.772635	-0.304612
H160	H	0.716590	-0.707062	-0.311387
H161	H	0.818346	-0.740260	-0.481573
H162	H	0.760661	-0.674722	-0.488209
H163	H	1.072379	-0.234548	-1.011861
H164	H	0.269157	-0.376263	-0.384082
O165	O	0.830272	-0.537967	-0.373449
C166	C	0.750425	-0.545033	-0.240087
C167	C	0.794704	-0.581090	-0.314122
H168	H	0.721648	-0.579882	-0.192117
H169	H	0.779302	-0.514276	-0.185116
H170	H	0.717513	-0.514239	-0.288282
H171	H	0.827626	-0.611917	-0.266012
H172	H	0.765789	-0.611807	-0.369096
H173	H	0.982817	-1.062895	-0.628287
O174	O	0.830402	-1.068278	-0.373797
C175	C	0.723347	-1.088469	-0.322600
C176	C	0.767633	-1.052245	-0.396530
H177	H	0.672590	-1.075509	-0.340938
H178	H	0.730220	-1.141099	-0.334166
H179	H	0.734456	-1.075582	-0.237904
H180	H	0.756552	-1.065079	-0.481254
H181	H	0.760752	-0.999624	-0.384873
O182	O	0.830383	-0.938683	-0.373800
C183	C	0.745396	-0.864508	-0.359508
C184	C	0.789701	-0.900598	-0.433455
H185	H	0.712501	-0.833698	-0.407709
H186	H	0.716606	-0.899314	-0.311468
H187	H	0.774316	-0.833760	-0.304589
H188	H	0.760829	-0.931347	-0.488438
H189	H	0.818492	-0.865759	-0.481421
O190	O	1.155144	-0.159898	-1.105968
C191	C	1.253823	-0.107198	-1.134699
C192	C	1.186244	-0.117843	-1.173812
H193	H	1.278991	-0.073206	-1.189544
H194	H	1.252568	-0.086647	-1.052244
H195	H	1.279954	-0.153902	-1.133387
H196	H	1.160073	-0.071163	-1.175191
H197	H	1.187544	-0.138423	-1.256244
O198	O	0.827157	-0.487799	-0.659116
C199	C	0.846532	-0.587014	-0.574195
C200	C	0.823282	-0.553312	-0.673703
H201	H	0.843395	-0.639987	-0.585946
H202	H	0.897368	-0.573251	-0.558160
H203	H	0.816002	-0.572749	-0.504773
H204	H	0.853765	-0.567560	-0.743186
H205	H	0.772436	-0.567077	-0.689645
O206	O	1.113384	-0.099600	-1.284320
C207	C	1.125927	-0.030374	-1.432326
C208	C	1.081625	-0.074664	-1.371893
H209	H	1.100272	-0.010212	-1.503153
H210	H	1.141441	0.009554	-1.378774
H211	H	1.168889	-0.057715	-1.459829
H212	H	1.038633	-0.047377	-1.344382
H213	H	1.066161	-0.114592	-1.425484
H214	H	0.995683	-0.123454	-1.340143
O215	O	0.664366	-0.446435	-0.907387
C216	C	0.565717	-0.499206	-0.878734
C217	C	0.633302	-0.488574	-0.839642
H218	H	0.540587	-0.533286	-0.823994
H219	H	0.539514	-0.452540	-0.879978
H220	H	0.567032	-0.519696	-0.961227
H221	H	0.632045	-0.468105	-0.757137
H222	H	0.659478	-0.535256	-0.838475
H223	H	0.712395	-0.500412	-0.737804
H224	H	0.896932	-0.409840	-0.772819
