data_functionalizedCrystal
_audit_creation_method	'MofGen! by Chris Wilmer'
_symmetry_space_group_name_H-M	'P1'
_symmetry_Int_Tables_number	1
_symmetry_cell_setting	triclinic
loop_
_symmetry_equiv_pos_as_xyz
  x,y,z
_cell_length_a	14.971486
_cell_length_b	12.996460
_cell_length_c	14.971506
_cell_angle_alpha	90.004566
_cell_angle_beta	83.618258
_cell_angle_gamma	90.000625
loop_
_atom_site_label
_atom_site_type_symbol
_atom_site_fract_x
_atom_site_fract_y
_atom_site_fract_z
O1	O	1.186954	0.085445	0.116563
O2	O	0.926555	0.085472	0.130522
O3	O	1.063725	0.085455	-0.006656
O4	O	1.049785	0.085462	0.253741
O5	O	1.063710	-0.085679	-0.006664
O6	O	0.926541	-0.085661	0.130514
O7	O	1.186940	-0.085689	0.116556
Cu8	Cu	1.056739	-0.101301	0.123534
Cu9	Cu	1.056756	0.101084	0.123543
O10	O	1.049771	-0.085672	0.253734
C11	C	0.893223	-0.000091	0.129894
C12	C	0.793926	-0.000080	0.128023
N13	N	1.056734	-0.243648	0.123527
C14	C	0.736707	-0.000080	0.208612
C15	C	0.643407	-0.000095	0.206849
C16	C	0.607329	-0.000104	0.124496
C17	C	0.664556	-0.000107	0.043901
C18	C	0.757853	-0.000099	0.045665
C19	C	0.470093	-0.000122	0.040230
C20	C	0.376789	-0.000128	0.038466
C21	C	0.355647	-0.000117	0.201414
C22	C	0.448944	-0.000109	0.203178
C23	C	0.506165	-0.000111	0.122582
C24	C	1.056755	-0.663462	0.123544
C25	C	1.056746	-0.546657	0.123543
C26	C	1.056745	-0.453559	0.123536
C27	C	1.056735	-0.336746	0.123533
C28	C	1.220272	-0.000123	0.117184
C29	C	1.319569	-0.000127	0.119054
C30	C	1.063091	-0.000110	-0.039984
C31	C	1.061213	-0.000105	-0.139281
N32	N	1.056769	0.243432	0.123543
C33	C	1.134631	-0.000114	-0.577563
C34	C	1.136389	-0.000121	-0.484263
C35	C	1.055796	-0.000108	-0.427043
C36	C	0.973441	-0.000100	-0.463127
C37	C	0.971685	-0.000100	-0.556426
C38	C	0.977108	-0.000096	-0.268664
C39	C	0.978864	-0.000094	-0.175359
C40	C	1.141812	-0.000116	-0.196501
C41	C	1.140055	-0.000117	-0.289800
C42	C	1.057700	-0.000106	-0.325878
C43	C	1.050404	-0.000104	0.287062
C44	C	1.052282	-0.000102	0.386358
H45	H	0.766074	-0.000072	0.275673
H46	H	0.596822	-0.000093	0.272472
Cl47	Cl	0.331434	-0.000173	-0.065064
H48	H	0.904628	-0.000099	-0.585799
Cl49	Cl	1.241373	-0.000125	-0.361733
H50	H	1.200259	-0.000115	-0.624146
H51	H	0.478316	-0.000092	0.270236
H52	H	0.516680	-0.000125	-0.025399
Cl53	Cl	0.829787	-0.000105	-0.055650
H54	H	0.635173	-0.000129	-0.023152
Cl55	Cl	1.245345	-0.000129	-0.151147
H56	H	0.309053	-0.000120	0.267037
Cl57	Cl	1.239918	-0.000109	-0.438911
Cl58	Cl	0.873574	-0.000088	-0.314018
Cl59	Cl	0.872124	-0.000089	-0.391194
H60	H	0.913239	-0.000090	-0.128772
