data_functionalizedCrystal
_audit_creation_method	'MofGen! by Chris Wilmer'
_symmetry_space_group_name_H-M	'P1'
_symmetry_Int_Tables_number	1
_symmetry_cell_setting	triclinic
loop_
_symmetry_equiv_pos_as_xyz
  x,y,z
_cell_length_a	12.759401
_cell_length_b	12.759399
_cell_length_c	21.395356
_cell_angle_alpha	89.976567
_cell_angle_beta	89.978166
_cell_angle_gamma	90.014407
loop_
_atom_site_label
_atom_site_type_symbol
_atom_site_fract_x
_atom_site_fract_y
_atom_site_fract_z
Zn1	Zn	1.606272	-0.418313	-0.354251
Zn2	Zn	1.606159	-0.594005	-0.249481
Zn3	Zn	1.430568	-0.418339	-0.249491
Zn4	Zn	1.430561	-0.593948	-0.354224
O5	O	1.518390	-0.506151	-0.301862
O6	O	1.753278	-0.441632	-0.340360
O7	O	1.582822	-0.570738	-0.161804
O8	O	1.453926	-0.271314	-0.263402
O9	O	1.753195	-0.570713	-0.263386
O10	O	1.583015	-0.271295	-0.340369
O11	O	1.453816	-0.441676	-0.161811
O12	O	1.283546	-0.441621	-0.263377
O13	O	1.453914	-0.570615	-0.441906
O14	O	1.283541	-0.570640	-0.340324
O15	O	1.583008	-0.441576	-0.441925
O16	O	1.582816	-0.741019	-0.263360
O17	O	1.453805	-0.740977	-0.340315
C18	C	1.245423	-0.506128	-0.301849
C19	C	1.128646	-0.506143	-0.301858
C20	C	0.964025	-0.438899	-0.261875
C21	C	1.073749	-0.438874	-0.261865
C22	C	1.073814	-0.573433	-0.341868
C23	C	0.964092	-0.573452	-0.341880
C24	C	1.223688	-0.314894	-0.239591
C25	C	1.278517	-0.247616	-0.199575
C26	C	1.242849	-0.231356	-0.138460
C27	C	1.152355	-0.282389	-0.117348
C28	C	1.097532	-0.349674	-0.157360
C29	C	1.133198	-0.365915	-0.218484
C30	C	0.814150	-0.697433	-0.364149
C31	C	0.759326	-0.764725	-0.404158
C32	C	0.794991	-0.780996	-0.465274
C33	C	0.885489	-0.729982	-0.486384
C34	C	0.940314	-0.662690	-0.446375
C35	C	0.904641	-0.646417	-0.385259
C36	C	1.518326	-0.779119	-0.301847
C37	C	1.518394	-0.895895	-0.301862
C38	C	1.585647	-0.950744	-0.261837
C39	C	1.585715	-1.060468	-0.261859
C40	C	1.451268	-1.060485	-0.341931
C41	C	1.451206	-0.950763	-0.341912
C42	C	1.709722	-1.210344	-0.239562
C43	C	1.776966	-1.265196	-0.199528
C44	C	1.793127	-1.229643	-0.138394
C45	C	1.742030	-1.139239	-0.117283
C46	C	1.674778	-1.084392	-0.157314
C47	C	1.658637	-1.119944	-0.218456
C48	C	1.327197	-0.800885	-0.364202
C49	C	1.259939	-0.746036	-0.404231
C50	C	1.243767	-0.781587	-0.465365
C51	C	1.294847	-0.871995	-0.486474
C52	C	1.362104	-0.926844	-0.446446
C53	C	1.378278	-0.891286	-0.385312
C54	C	1.792423	-0.506176	-0.301875
C55	C	1.909200	-0.506186	-0.301880
C56	C	1.518473	-0.506086	-0.465285
C57	C	1.518508	-0.506058	-0.534926
C58	C	1.518483	-0.232118	-0.301890
C59	C	1.518523	-0.115341	-0.301902
C60	C	1.451353	-0.438849	-0.567633
C61	C	1.451349	-0.438829	-0.633069
C62	C	1.518520	-0.506009	-0.665795
C63	C	1.585680	-0.573231	-0.633080
C64	C	1.585674	-0.573256	-0.567646
C65	C	1.613182	-0.514270	-0.769480
C66	C	1.613190	-0.514237	-0.834912
C67	C	1.518537	-0.505938	-0.867615
C68	C	1.423874	-0.497648	-0.834877
C69	C	1.423868	-0.497673	-0.769443
C70	C	1.518533	-0.505989	-0.736747
C71	C	1.451372	-0.438703	-0.971275
C72	C	1.451367	-0.438691	-1.036712
C73	C	1.585707	-0.573088	-1.036721
C74	C	1.585703	-0.573105	-0.971286
C75	C	1.518537	-0.505907	-0.938567
C76	C	1.518368	-0.506140	-0.139074
C77	C	1.518537	-0.505872	-0.069433
H78	H	1.118520	-0.628200	-0.374434
H79	H	1.218354	-0.672417	-0.387040
C80	C	1.039862	-0.606569	-0.469599
N81	N	1.114841	-0.564299	-0.487092
H82	H	1.755185	-1.110305	-0.067500
C83	C	0.924724	-0.747879	-0.553615
N84	N	0.954273	-0.761363	-0.604255
H85	H	1.396681	-0.383987	-0.944633
C86	C	1.659575	-0.647174	-0.531667
N87	N	1.715248	-0.702842	-0.504567
C88	C	1.344983	-0.761770	-0.296950
N89	N	1.358373	-0.732309	-0.246295
H90	H	0.750347	-0.835799	-0.497847
H91	H	0.685639	-0.806266	-0.386964
H92	H	1.396673	-0.383964	-1.063340
C93	C	1.418301	-1.026290	-0.469670
N94	N	1.460631	-1.101190	-0.487163
C95	C	0.997990	-0.405803	-0.134141
N96	N	0.923008	-0.448072	-0.116652
H97	H	0.919335	-0.384122	-0.229307
H98	H	1.640401	-0.627784	-1.063366
C99	C	1.113130	-0.264502	-0.050114
N100	N	1.083582	-0.251026	0.000526
H101	H	1.396657	-0.384135	-0.540997
H102	H	1.640357	-0.906074	-0.229227
C103	C	1.262929	-0.332771	-0.306822
N104	N	1.292492	-0.346239	-0.357460
C105	C	0.774912	-0.679542	-0.296916
N106	N	0.745359	-0.666073	-0.246275
C107	C	1.377475	-0.364885	-0.669053
N108	N	1.321835	-0.309188	-0.696155
H109	H	1.633178	-1.010785	-0.140126
H110	H	1.287498	-0.176576	-0.105880
H111	H	1.281679	-0.900942	-0.536255
C112	C	1.659617	-0.647006	-0.935307
N113	N	1.715301	-0.702663	-0.908208
H114	H	1.640370	-0.627930	-0.659729
C115	C	1.319740	-0.488566	-0.733434
N116	N	1.241308	-0.481711	-0.706311
C117	C	1.867039	-1.290027	-0.094344
N118	N	1.922693	-1.335527	-0.061163
C119	C	1.319745	-0.488528	-0.870845
N120	N	1.241319	-0.481661	-0.897940
H121	H	1.818570	-1.338804	-0.216722
H122	H	1.690271	-0.520982	-0.861563
H123	H	1.696581	-1.239293	-0.289344
C124	C	1.377353	-1.120849	-0.385976
N125	N	1.321674	-1.166314	-0.419150
H126	H	1.690267	-0.521019	-0.742858
C127	C	1.378047	-0.191466	-0.222805
N128	N	1.453010	-0.149172	-0.240300
C129	C	1.169776	-0.721250	-0.509395
N130	N	1.114051	-0.675805	-0.542559
