data_functionalizedCrystal
_audit_creation_method	'MofGen! by Chris Wilmer'
_symmetry_space_group_name_H-M	'P1'
_symmetry_Int_Tables_number	1
_symmetry_cell_setting	triclinic
loop_
_symmetry_equiv_pos_as_xyz
  x,y,z
_cell_length_a	14.853566
_cell_length_b	22.010155
_cell_length_c	14.853567
_cell_angle_alpha	90.008054
_cell_angle_beta	96.365328
_cell_angle_gamma	90.005626
loop_
_atom_site_label
_atom_site_type_symbol
_atom_site_fract_x
_atom_site_fract_y
_atom_site_fract_z
O1	O	1.196372	0.050480	-0.117686
O2	O	1.696372	0.550480	0.382314
O3	O	0.933912	0.050489	-0.131709
O4	O	1.433912	0.550489	0.368291
O5	O	1.072153	0.050486	0.006532
O6	O	1.572153	0.550486	0.506532
O7	O	1.058132	0.050483	-0.255927
O8	O	1.558132	0.550483	0.244073
O9	O	1.072128	-0.050564	0.006512
O10	O	1.572128	0.449436	0.506512
O11	O	0.933887	-0.050561	-0.131730
O12	O	1.433887	0.449439	0.368270
O13	O	1.196347	-0.050571	-0.117707
O14	O	1.696347	0.449429	0.382293
Cu15	Cu	1.065115	-0.059793	-0.124720
Cu16	Cu	1.565115	0.440207	0.375280
Cu17	Cu	1.065144	0.059711	-0.124696
Cu18	Cu	1.565144	0.559711	0.375304
O19	O	1.058106	-0.050567	-0.255948
O20	O	1.558106	0.449433	0.244052
C21	C	0.900311	-0.000035	-0.131084
C22	C	1.400311	0.499965	0.368916
C23	C	0.800227	-0.000031	-0.129181
C24	C	1.300227	0.499969	0.370819
N25	N	1.065100	-0.143845	-0.124737
N26	N	1.565100	0.356155	0.375263
C27	C	0.377056	0.055041	-0.121119
C28	C	0.877056	0.555041	0.378881
C29	C	0.377050	-0.055128	-0.121142
C30	C	0.877050	0.444872	0.378858
C31	C	0.471084	-0.055126	-0.122929
C32	C	0.971084	0.444874	0.377071
C33	C	0.518108	-0.000040	-0.123813
C34	C	1.018108	0.499960	0.376187
C35	C	0.471099	0.055045	-0.122909
C36	C	0.971099	0.555045	0.377091
C37	C	0.518100	-0.110209	-0.123842
C38	C	1.018100	0.389791	0.376158
C39	C	0.612140	-0.110210	-0.125631
C40	C	1.112140	0.389790	0.374369
C41	C	0.659166	-0.055123	-0.126508
C42	C	1.159166	0.444877	0.373492
C43	C	0.612151	-0.000036	-0.125603
C44	C	1.112151	0.499964	0.374397
C45	C	0.659175	0.055050	-0.126487
C46	C	1.159175	0.555050	0.373513
C47	C	0.612162	0.110137	-0.125575
C48	C	1.112162	0.610137	0.374425
C49	C	0.518125	0.110132	-0.123786
C50	C	1.018125	0.610132	0.376214
C51	C	0.753203	-0.055117	-0.128297
C52	C	1.253203	0.444883	0.371703
C53	C	0.753218	0.055054	-0.128277
C54	C	1.253218	0.555054	0.371723
C55	C	1.126361	-0.563626	-0.063491
C56	C	1.626361	-0.063626	0.436509
C57	C	1.126365	-0.627233	-0.063485
C58	C	1.626365	-0.127233	0.436515
O59	O	1.178415	-0.660126	-0.011423
O60	O	1.678415	-0.160126	0.488577
N61	N	1.065144	-0.659052	-0.124677
N62	N	1.565144	-0.159052	0.375323
C63	C	1.003908	-0.627260	-0.185873
C64	C	1.503908	-0.127260	0.314127
O65	O	0.951835	-0.660165	-0.237920
O66	O	1.451835	-0.160165	0.262080
C67	C	1.003901	-0.563654	-0.185874
C68	C	1.503901	-0.063654	0.314126
C69	C	1.065132	-0.531838	-0.124684
C70	C	1.565132	-0.031838	0.375316
C71	C	1.187587	-0.531810	-0.002306
C72	C	1.687587	-0.031810	0.497694
C73	C	1.187583	-0.468207	-0.002313
C74	C	1.687583	0.031793	0.497687
C75	C	1.126354	-0.436419	-0.063506
C76	C	1.626354	0.063581	0.436494
C77	C	1.065129	-0.468235	-0.124692
C78	C	1.565129	0.031765	0.375308
C79	C	0.942662	-0.531863	-0.247064
C80	C	1.442662	-0.031863	0.252936
C81	C	0.942659	-0.468252	-0.247060
C82	C	1.442659	0.031748	0.252940
C83	C	1.003890	-0.436436	-0.185870
C84	C	1.503890	0.063564	0.314130
C85	C	1.003896	-0.372844	-0.185892
C86	C	1.503896	0.127156	0.314108
N87	N	1.065118	-0.341025	-0.124700
N88	N	1.565118	0.158975	0.375300
C89	C	1.126347	-0.372813	-0.063507
C90	C	1.626347	0.127187	0.436493
C91	C	1.003928	-0.760838	-0.185864
C92	C	1.503928	-0.260838	0.314136
C93	C	1.003940	-0.824443	-0.185868
C94	C	1.503940	-0.324443	0.314132
C95	C	1.126396	-0.824412	-0.063479
C96	C	1.626396	-0.324412	0.436521
C97	C	1.126388	-0.760806	-0.063481
C98	C	1.626388	-0.260806	0.436519
C99	C	1.065150	-0.729019	-0.124673
C100	C	1.565150	-0.229019	0.375327
C101	C	1.126336	-0.239242	-0.063528
C102	C	1.626336	0.260758	0.436472
C103	C	1.126329	-0.175633	-0.063544
C104	C	1.626329	0.324367	0.436456
C105	C	1.003871	-0.175669	-0.185929
C106	C	1.503871	0.324331	0.314071
C107	C	1.003880	-0.239273	-0.185917
C108	C	1.503880	0.260727	0.314083
C109	C	1.065116	-0.271057	-0.124709
C110	C	1.565116	0.228943	0.375291
O111	O	0.951871	-0.339911	-0.237925
O112	O	1.451871	0.160089	0.262075
O113	O	1.178404	-0.339900	-0.011461
O114	O	1.678404	0.160100	0.488539
C115	C	1.229948	-0.000045	-0.118332
C116	C	1.729948	0.499955	0.381668
C117	C	1.330032	-0.000045	-0.120235
C118	C	1.830032	0.499955	0.379765
C119	C	1.071505	-0.000037	0.040111
C120	C	1.571505	0.499963	0.540111
C121	C	1.069601	-0.000032	0.140194
C122	C	1.569601	0.499968	0.640194
N123	N	1.065166	0.143764	-0.124672
N124	N	1.565166	0.643764	0.375328
C125	C	1.058754	-0.000043	-0.289526
C126	C	1.558754	0.499957	0.210474
C127	C	1.060658	-0.000044	-0.389610
C128	C	1.560658	0.499956	0.110390
C129	C	0.979435	-0.000040	0.552728
C130	C	1.479435	0.499960	1.052728
C131	C	1.143668	-0.000046	0.574009
C132	C	1.643668	0.499954	1.074009
C133	C	1.145458	-0.000043	0.479976
C134	C	1.645458	0.499957	0.979976
C135	C	1.064236	-0.000039	0.422313
C136	C	1.564236	0.499961	0.922313
C137	C	0.981223	-0.000039	0.458685
C138	C	1.481223	0.499961	0.958685
C139	C	1.228470	-0.000049	0.443597
C140	C	1.728470	0.499951	0.943597
C141	C	1.230263	-0.000046	0.349558
C142	C	1.730263	0.499954	0.849558
C143	C	1.149040	-0.000038	0.291894
C144	C	1.649040	0.499962	0.791894
C145	C	1.066023	-0.000037	0.328271
C146	C	1.566023	0.499963	0.828271
C147	C	0.984801	-0.000033	0.270608
C148	C	1.484801	0.499967	0.770608
C149	C	0.901784	-0.000028	0.306983
C150	C	1.401784	0.499972	0.806983
C151	C	0.899999	-0.000031	0.401021
C152	C	1.399999	0.499969	0.901021
C153	C	1.150824	-0.000036	0.197856
C154	C	1.650824	0.499964	0.697856
C155	C	0.986588	-0.000032	0.176566
C156	C	1.486588	0.499968	0.676566
H157	H	0.791498	0.099912	-0.128993
H158	H	1.291498	0.599912	0.371007
Br159	Br	0.817002	-0.129872	-0.129544
Br160	Br	1.317002	0.370128	0.370456
Br161	Br	0.454277	-0.184965	-0.122658
Br162	Br	0.954277	0.315035	0.377342
Br163	Br	1.209438	-0.132458	0.019501
Br164	Br	1.709438	0.367542	0.519501
H165	H	0.338757	-0.099977	-0.120429
H166	H	0.838757	0.400023	0.379571
H167	H	0.650410	-0.155065	-0.126371
H168	H	1.150410	0.344935	0.373629
Br169	Br	0.791558	-0.000031	0.228717
Br170	Br	1.291558	0.499969	0.728717
H171	H	0.892788	-0.442374	-0.296889
H172	H	1.392788	0.057626	0.203111
Br173	Br	1.270681	-0.425036	0.080737
Br174	Br	1.770681	0.074964	0.580737
Br175	Br	0.313262	0.129799	-0.119850
Br176	Br	0.813262	0.629799	0.380150
H177	H	1.294597	-0.000058	0.490552
H178	H	1.794597	0.499942	0.990552
Br179	Br	1.209442	-0.282367	0.019541
Br180	Br	1.709442	0.217633	0.519541
Br181	Br	0.787344	-0.000019	0.450393
Br182	Br	1.287344	0.499981	0.950393
Br183	Br	0.920779	-0.132519	-0.268977
Br184	Br	1.420779	0.367481	0.231023
H185	H	1.297861	-0.000050	0.319950
H186	H	1.797861	0.499950	0.819950
Br187	Br	0.920852	-0.867614	-0.268929
Br188	Br	1.420852	-0.367614	0.231071
Br189	Br	0.920790	-0.282449	-0.268975
Br190	Br	1.420790	0.217551	0.231025
Br191	Br	0.675990	0.184894	-0.126784
Br192	Br	1.175990	0.684894	0.373216
Br193	Br	0.454323	0.184886	-0.122508
Br194	Br	0.954323	0.684886	0.377492
H195	H	0.954063	-0.734960	-0.235702
H196	H	1.454063	-0.234960	0.264298
Br197	Br	1.270693	-0.574940	0.080754
Br198	Br	1.770693	-0.074940	0.580754
H199	H	1.218415	-0.000044	0.168244
H200	H	1.718415	0.499956	0.668244
Br201	Br	1.209490	-0.717635	0.019565
Br202	Br	1.709490	-0.217635	0.519565
H203	H	0.920446	-0.000026	0.129622
H204	H	1.420446	0.499974	0.629622
Br205	Br	1.209492	-0.867566	0.019568
Br206	Br	1.709492	-0.367566	0.519568
H207	H	0.892801	-0.557758	-0.296890
H208	H	1.392801	-0.057758	0.203110
Br209	Br	1.253894	-0.000064	0.652265
Br210	Br	1.753894	0.499936	1.152265
Br211	Br	0.866775	-0.000025	0.602090
Br212	Br	1.366775	0.499975	1.102090
