data_functionalizedCrystal
_audit_creation_method	'MofGen! by Chris Wilmer'
_symmetry_space_group_name_H-M	'P1'
_symmetry_Int_Tables_number	1
_symmetry_cell_setting	triclinic
loop_
_symmetry_equiv_pos_as_xyz
  x,y,z
_cell_length_a	29.839131
_cell_length_b	29.839134
_cell_length_c	12.759393
_cell_angle_alpha	89.979487
_cell_angle_beta	89.961905
_cell_angle_gamma	90.021992
loop_
_atom_site_label
_atom_site_type_symbol
_atom_site_fract_x
_atom_site_fract_y
_atom_site_fract_z
Zn1	Zn	-0.179059	0.686756	-0.594023
Zn2	Zn	-0.254198	0.686678	-0.418323
Zn3	Zn	-0.179057	0.611628	-0.418352
Zn4	Zn	-0.254137	0.611587	-0.593955
O5	O	-0.216613	0.649162	-0.506163
O6	O	-0.189052	0.749613	-0.570732
O7	O	-0.244255	0.676707	-0.271306
O8	O	-0.116190	0.621644	-0.441696
O9	O	-0.244256	0.749555	-0.441646
O10	O	-0.116191	0.676841	-0.570760
O11	O	-0.189049	0.621568	-0.271327
O12	O	-0.188990	0.548756	-0.441630
O13	O	-0.244153	0.621574	-0.740985
O14	O	-0.244151	0.548725	-0.570645
O15	O	-0.188994	0.676801	-0.741035
O16	O	-0.317057	0.676666	-0.441581
O17	O	-0.317012	0.621498	-0.570617
C18	C	-0.216564	0.532440	-0.506134
C19	C	-0.216555	0.482505	-0.506147
C20	C	-0.333335	0.649081	-0.506111
C21	C	-0.383270	0.649088	-0.506124
C22	C	-0.187928	0.125944	-0.573510
C23	C	-0.187892	0.313617	-0.573486
O24	O	-0.163495	0.337904	-0.630756
N25	N	-0.216584	0.337060	-0.506171
C26	C	-0.245290	0.313582	-0.438863
O27	O	-0.269697	0.337828	-0.381614
C28	C	-0.245328	0.125910	-0.438893
C29	C	-0.216630	0.102469	-0.506205
C30	C	-0.159233	0.102504	-0.640817
C31	C	-0.159240	0.055588	-0.640819
C32	C	-0.187943	0.032113	-0.573513
C33	C	-0.216638	0.055554	-0.506206
C34	C	-0.274035	0.102432	-0.371590
C35	C	-0.274043	0.055511	-0.371606
C36	C	-0.245346	0.032071	-0.438918
C37	C	-0.245348	-0.014837	-0.438902
N38	N	-0.216655	-0.038279	-0.506217
C39	C	-0.187953	-0.014805	-0.573522
C40	C	-0.245267	0.412113	-0.438850
C41	C	-0.245257	0.459030	-0.438841
C42	C	-0.187859	0.459062	-0.573466
C43	C	-0.187867	0.412144	-0.573469
C44	C	-0.216575	0.388670	-0.506165
C45	C	-0.187971	-0.113330	-0.573519
C46	C	-0.187980	-0.160250	-0.573512
C47	C	-0.245379	-0.160278	-0.438891
C48	C	-0.245368	-0.113362	-0.438894
C49	C	-0.216663	-0.089890	-0.506217
O50	O	-0.269736	-0.039152	-0.381670
O51	O	-0.163556	-0.039059	-0.630778
C52	C	-0.187920	0.172860	-0.573509
C53	C	-0.216615	0.196300	-0.506202
C54	C	-0.245318	0.172825	-0.438896
C55	C	-0.216605	0.243218	-0.506193
C56	C	-0.187903	0.266693	-0.573499
C57	C	-0.159210	0.243250	-0.640813
C58	C	-0.159218	0.196335	-0.640815
C59	C	-0.274010	0.196268	-0.371582
C60	C	-0.274000	0.243184	-0.371585
C61	C	-0.245297	0.266659	-0.438891
C62	C	-0.692923	0.677941	-0.439072
C63	C	-0.880597	0.677996	-0.439113
O64	O	-0.904870	0.702464	-0.382063
N65	N	-0.904055	0.649255	-0.506243
C66	C	-0.880592	0.620501	-0.573371
O67	O	-0.904850	0.596059	-0.630478
C68	C	-0.692919	0.620448	-0.573335
C69	C	-0.669464	0.649187	-0.506194
C70	C	-0.669468	0.706679	-0.371938
C71	C	-0.622552	0.706663	-0.371924
C72	C	-0.599093	0.677909	-0.439045
C73	C	-0.622548	0.649172	-0.506180
C74	C	-0.669457	0.591696	-0.640468
C75	C	-0.622536	0.591686	-0.640455
C76	C	-0.599081	0.620425	-0.573314
C77	C	-0.552173	0.620402	-0.573288
N78	N	-0.528715	0.649143	-0.506159
C79	C	-0.552175	0.677897	-0.439037
C80	C	-0.979122	0.620530	-0.573384
C81	C	-1.026040	0.620542	-0.573392
C82	C	-1.026042	0.678039	-0.439135
C83	C	-0.979123	0.678024	-0.439123
C84	C	-0.955664	0.649271	-0.506255
C85	C	-0.453649	0.677861	-0.439013
C86	C	-0.406729	0.677841	-0.439003
C87	C	-0.406732	0.620347	-0.573263
C88	C	-0.453647	0.620364	-0.573270
C89	C	-0.477105	0.649125	-0.506142
O90	O	-0.527870	0.595951	-0.630316
O91	O	-0.527908	0.702341	-0.381956
C92	C	-0.739839	0.677957	-0.439086
C93	C	-0.763295	0.649219	-0.506221
C94	C	-0.739835	0.620466	-0.573342
C95	C	-0.810212	0.649232	-0.506229
C96	C	-0.833672	0.677985	-0.439108
C97	C	-0.810214	0.706726	-0.371978
C98	C	-0.763299	0.706710	-0.371965
C99	C	-0.763293	0.591725	-0.640472
C100	C	-0.810209	0.591743	-0.640479
C101	C	-0.833668	0.620496	-0.573358
C102	C	-0.099434	0.649256	-0.506239
C103	C	-0.049500	0.649296	-0.506271
C104	C	-0.216567	0.649192	-0.780197
C105	C	-0.216547	0.649204	-0.896974
C106	C	-0.216661	0.766341	-0.506193
C107	C	-0.216682	0.816275	-0.506206
C108	C	-0.187797	0.620506	-0.951853
C109	C	-0.187783	0.620519	-1.061577
C110	C	-0.245273	0.677933	-1.061533
C111	C	-0.245288	0.677917	-0.951811
C112	C	-0.154604	0.587359	-0.951879
C113	C	-0.154591	0.587373	-1.061603
C114	C	-0.216626	0.649159	-0.233196
C115	C	-0.216519	0.649234	-0.116420
H116	H	-0.164608	-0.179333	-0.628325
H117	H	-0.472742	0.701282	-0.384353
H118	H	-0.268645	0.393004	-0.384039
H119	H	-0.960028	0.701426	-0.384451
H120	H	-0.829302	0.568335	-0.695152
H121	H	-0.119794	0.596718	-1.091411
H122	H	-0.472746	0.596964	-0.627945
H123	H	-0.297422	0.036401	-0.316800
H124	H	-0.688547	0.568291	-0.695137
H125	H	-0.960025	0.597115	-0.628053
H126	H	-0.163909	0.552552	-0.922095
H127	H	-1.045151	0.701451	-0.384482
H128	H	-0.268672	0.701311	-1.106195
H129	H	-0.121564	0.599845	-0.917873
H130	H	-0.744196	0.568311	-0.695131
H131	H	-0.135849	0.177253	-0.695627
H132	H	-0.164499	0.393062	-0.628279
H133	H	-0.268746	-0.179400	-0.384088
H134	H	-0.167034	0.554314	-1.095622
H135	H	-0.297384	0.177160	-0.316773
H136	H	-0.744204	0.730113	-0.317292
H137	H	-0.268732	-0.094276	-0.384074
H138	H	-0.268706	0.701280	-0.907132
H139	H	-0.135859	0.121612	-0.695631
H140	H	-0.603438	0.568272	-0.695126
H141	H	-0.135874	0.036507	-0.695636
H142	H	-0.164596	-0.094225	-0.628339
H143	H	-0.387633	0.701244	-0.384325
H144	H	-0.164488	0.478184	-0.628267
H145	H	-0.829323	0.730137	-0.317323
H146	H	-0.268621	0.478112	-0.384018
H147	H	-0.135838	0.262371	-0.695612
H148	H	-0.297404	0.121510	-0.316778
H149	H	-1.045134	0.597136	-0.628055
H150	H	-0.297368	0.262265	-0.316762
H151	H	-0.603457	0.730066	-0.317255
H152	H	-0.387624	0.596934	-0.627910
H153	H	-0.688564	0.730096	-0.317279
