data_functionalizedCrystal
_audit_creation_method	'MofGen! by Chris Wilmer'
_symmetry_space_group_name_H-M	'P1'
_symmetry_Int_Tables_number	1
_symmetry_cell_setting	triclinic
loop_
_symmetry_equiv_pos_as_xyz
  x,y,z
_cell_length_a	12.759401
_cell_length_b	12.759400
_cell_length_c	12.759393
_cell_angle_alpha	90.027129
_cell_angle_beta	89.981504
_cell_angle_gamma	89.995676
loop_
_atom_site_label
_atom_site_type_symbol
_atom_site_fract_x
_atom_site_fract_y
_atom_site_fract_z
Zn1	Zn	-1.606332	-0.418200	0.594014
Zn2	Zn	-1.606259	-0.593919	0.418347
Zn3	Zn	-1.430634	-0.418255	0.418353
Zn4	Zn	-1.430655	-0.593838	0.593989
O5	O	-1.518470	-0.506053	0.506176
O6	O	-1.753344	-0.441520	0.570719
O7	O	-1.582923	-0.570673	0.271327
O8	O	-1.453963	-0.271226	0.441668
O9	O	-1.753290	-0.570620	0.441658
O10	O	-1.583048	-0.271186	0.570725
O11	O	-1.453892	-0.441614	0.271331
O12	O	-1.283616	-0.441535	0.441644
O13	O	-1.453999	-0.570482	0.741013
O14	O	-1.283631	-0.570535	0.570682
O15	O	-1.583068	-0.441442	0.741032
O16	O	-1.582943	-0.740929	0.441634
O17	O	-1.453928	-0.740869	0.570677
C18	C	-1.245503	-0.506033	0.506162
C19	C	-1.128726	-0.506050	0.506180
C20	C	-1.518458	-0.779020	0.506175
C21	C	-1.518549	-0.895797	0.506210
C22	C	-1.518544	-0.505947	0.780209
C23	C	-1.518575	-0.505902	0.896986
C24	C	-1.792503	-0.506073	0.506191
C25	C	-1.909280	-0.506082	0.506197
C26	C	-1.073900	-0.573328	0.573260
C27	C	-0.964176	-0.573342	0.573271
C28	C	-0.964114	-0.438796	0.439115
C29	C	-1.073836	-0.438778	0.439109
C30	C	-1.073934	-0.651010	0.650711
C31	C	-0.964210	-0.651024	0.650722
C32	C	-1.518511	-0.232019	0.506200
C33	C	-1.518528	-0.115243	0.506210
C34	C	-1.585708	-0.060418	0.439028
C35	C	-1.585715	0.049306	0.439025
C36	C	-1.451362	0.049371	0.573394
C37	C	-1.451350	-0.060351	0.573391
C38	C	-1.663279	-0.060455	0.361454
C39	C	-1.663286	0.049270	0.361451
C40	C	-1.518457	-0.506083	0.233208
C41	C	-1.518630	-0.505832	0.116432
C42	C	-1.585791	-0.438704	0.951859
C43	C	-1.585816	-0.438666	1.061583
C44	C	-1.451406	-0.573032	1.061551
C45	C	-1.451377	-0.573064	0.951829
C46	C	-1.663394	-0.361131	0.951879
C47	C	-1.663419	-0.361093	1.061603
H48	H	-1.118472	-0.383987	0.384494
H49	H	-1.396640	-0.627779	0.907156
H50	H	-0.919410	-0.384025	0.384509
Br51	Br	-1.360165	-0.134754	0.664560
Br52	Br	-1.627089	-0.225524	0.902262
Br53	Br	-0.914563	-0.786595	0.614143
Br54	Br	-1.360195	0.123873	0.664564
Br55	Br	-1.360211	-0.664175	1.135988
Br56	Br	-1.792192	-0.409744	0.895142
H57	H	-1.634291	-0.283784	1.095645
Br58	Br	-1.123621	-0.614849	0.786387
Br59	Br	-1.130662	-0.779806	0.602020
Br60	Br	-1.626925	-0.110153	0.225831
H61	H	-1.744794	-0.382886	1.091383
Br62	Br	-1.792102	-0.117172	0.410055
H63	H	-0.930207	-0.621980	0.728072
H64	H	-1.744665	0.079056	0.383253
Br65	Br	-1.614648	0.105944	0.232633
