data_functionalizedCrystal
_audit_creation_method	'MofGen! by Chris Wilmer'
_symmetry_space_group_name_H-M	'P1'
_symmetry_Int_Tables_number	1
_symmetry_cell_setting	triclinic
loop_
_symmetry_equiv_pos_as_xyz
  x,y,z
_cell_length_a	9.065215
_cell_length_b	14.971506
_cell_length_c	14.048226
_cell_angle_alpha	89.995147
_cell_angle_beta	89.994106
_cell_angle_gamma	84.318543
loop_
_atom_site_label
_atom_site_type_symbol
_atom_site_fract_x
_atom_site_fract_y
_atom_site_fract_z
O1	O	1.957764	0.131142	-0.079146
O2	O	1.528262	0.141902	-0.079150
O3	O	1.754509	0.006409	-0.079145
O4	O	1.731517	0.266635	-0.079150
O5	O	1.754482	0.006401	0.079176
O6	O	1.528235	0.141894	0.079171
O7	O	1.957737	0.131134	0.079175
Zn8	Zn	1.742981	0.136513	0.104310
Zn9	Zn	1.743017	0.136524	-0.104285
O10	O	1.731489	0.266627	0.079171
C11	C	1.473282	0.140865	0.000010
C12	C	1.309502	0.137774	0.000009
C13	C	1.753462	-0.026927	0.000014
C14	C	1.750364	-0.126246	0.000010
C15	C	1.871460	-0.563627	0.000011
C16	C	1.874359	-0.470305	0.000018
C17	C	1.741430	-0.414075	0.000013
C18	C	1.605593	-0.451171	0.000012
C19	C	1.602696	-0.544492	0.000013
C20	C	1.611642	-0.256663	0.000008
C21	C	1.614538	-0.163337	0.000006
C22	C	1.883304	-0.182477	0.000013
C23	C	1.880407	-0.275797	0.000014
C24	C	1.744570	-0.312887	0.000011
C25	C	2.012716	0.132171	0.000013
C26	C	2.176497	0.135262	0.000009
C27	C	1.732537	0.299963	0.000010
C28	C	1.735634	0.399283	0.000007
N29	N	1.742968	0.136505	0.246671
N30	N	1.743043	0.136524	-0.246645
C31	C	1.843181	0.076534	0.296491
C32	C	1.843191	0.076533	0.396149
C33	C	1.742994	0.136509	0.445985
C34	C	1.642769	0.196483	0.396158
C35	C	1.642753	0.196478	0.296502
C36	C	1.642812	0.196490	0.603872
C37	C	1.642829	0.196496	0.703534
C38	C	1.843250	0.076545	0.703519
C39	C	1.843234	0.076540	0.603863
C40	C	1.743011	0.136515	0.554043
H41	H	1.979707	-0.609404	0.000007
C42	C	2.026630	-0.337651	0.000019
C43	C	2.061568	-0.404443	0.082234
C44	C	2.207792	-0.466296	0.082243
C45	C	2.319079	-0.461357	0.000038
C46	C	2.284144	-0.394562	-0.082183
C47	C	2.137919	-0.332709	-0.082192
H48	H	1.979184	-0.408102	0.143092
H49	H	2.233653	-0.515742	0.143108
H50	H	2.427323	-0.507144	0.000044
H51	H	2.366528	-0.390903	-0.143042
H52	H	2.112059	-0.283263	-0.143058
C53	C	1.953450	0.010569	0.549039
C54	C	2.066316	0.046476	0.480505
C55	C	2.176530	-0.019497	0.425679
C56	C	2.173878	-0.121377	0.439386
C57	C	2.061008	-0.157289	0.507923
C58	C	1.950794	-0.091316	0.562749
H59	H	2.068283	0.121898	0.470355
H60	H	2.260084	0.007088	0.374943
H61	H	2.255464	-0.170214	0.398801
H62	H	2.059040	-0.232711	0.518073
H63	H	1.867240	-0.117901	0.613485
C64	C	2.032732	-0.141687	0.000022
C65	C	2.071680	-0.080176	0.082237
C66	C	2.221103	-0.039382	0.082240
C67	C	2.331577	-0.060101	0.000027
C68	C	2.292632	-0.121615	-0.082195
C69	C	2.143209	-0.162408	-0.082198
H70	H	1.989898	-0.064836	0.143102
H71	H	2.249933	0.006155	0.143107
H72	H	2.442189	-0.029903	0.000029
H73	H	2.374414	-0.136954	-0.143060
H74	H	2.114379	-0.207945	-0.143064
H75	H	1.561194	0.245325	0.563311
H76	H	1.984962	-0.440112	0.000022
H77	H	1.924854	0.027711	0.744088
C78	C	1.453283	-0.585293	0.000002
C79	C	1.414353	-0.646814	-0.082209
C80	C	1.264935	-0.687613	-0.082216
C81	C	1.154448	-0.666890	-0.000010
C82	C	1.193375	-0.605366	0.082207
C83	C	1.342793	-0.564567	0.082214
H84	H	1.496145	-0.662156	-0.143068
H85	H	1.236119	-0.733157	-0.143079
H86	H	1.043840	-0.697092	-0.000015
H87	H	1.111584	-0.590024	0.143066
H88	H	1.371610	-0.519023	0.143077
H89	H	1.506296	-0.117556	0.000008
C90	C	1.459369	-0.389319	0.000007
C91	C	1.424423	-0.322532	-0.082211
C92	C	1.278196	-0.260681	-0.082219
C93	C	1.166915	-0.265618	-0.000010
C94	C	1.201858	-0.332408	0.082213
C95	C	1.348085	-0.394259	0.082222
H96	H	1.506803	-0.318875	-0.143072
H97	H	1.252329	-0.211238	-0.143087
H98	H	1.058669	-0.219832	-0.000017
H99	H	1.119479	-0.336065	0.143075
H100	H	1.373952	-0.443702	0.143090
H101	H	1.924780	0.027698	0.255921
H102	H	1.561236	0.245333	0.744106
H103	H	1.501029	-0.286858	0.000019
H104	H	1.561178	0.245313	0.436740
H105	H	1.924792	0.027700	0.436712
H106	H	1.561147	0.245312	0.255939
