data_functionalizedCrystal
_audit_creation_method	'MofGen! by Chris Wilmer'
_symmetry_space_group_name_H-M	'P1'
_symmetry_Int_Tables_number	1
_symmetry_cell_setting	triclinic
loop_
_symmetry_equiv_pos_as_xyz
  x,y,z
_cell_length_a	14.519731
_cell_length_b	14.519731
_cell_length_c	14.048226
_cell_angle_alpha	90.004594
_cell_angle_beta	89.994041
_cell_angle_gamma	96.311147
loop_
_atom_site_label
_atom_site_type_symbol
_atom_site_fract_x
_atom_site_fract_y
_atom_site_fract_z
O1	O	-1.223865	0.120982	0.079187
O2	O	-0.723865	0.620982	0.579187
O3	O	-0.955392	0.135198	0.079184
O4	O	-0.455392	0.635198	0.579184
O5	O	-1.096737	-0.006147	0.079177
O6	O	-0.596737	0.493853	0.579177
O7	O	-1.082521	0.262327	0.079194
O8	O	-0.582521	0.762327	0.579194
O9	O	-1.096723	-0.006148	-0.079144
O10	O	-0.596723	0.493852	0.420856
O11	O	-0.955379	0.135197	-0.079137
O12	O	-0.455379	0.635197	0.420863
O13	O	-1.223852	0.120981	-0.079134
O14	O	-0.723852	0.620981	0.420866
Zn15	Zn	-1.089613	0.128089	-0.104273
Zn16	Zn	-0.589613	0.628089	0.395727
Zn17	Zn	-1.089631	0.128090	0.104323
Zn18	Zn	-0.589631	0.628090	0.604323
O19	O	-1.082507	0.262325	-0.079127
O20	O	-0.582507	0.762325	0.420873
C21	C	-0.921026	0.134531	0.000023
C22	C	-0.421026	0.634531	0.500023
C23	C	-0.818645	0.132535	0.000021
C24	C	-0.318645	0.632535	0.500021
C25	C	-1.096064	-0.040507	0.000016
C26	C	-0.596064	0.459493	0.500016
C27	C	-1.094068	-0.142887	0.000016
C28	C	-0.594068	0.357113	0.500016
C29	C	-0.735501	0.130913	0.000024
C30	C	-0.235501	0.630913	0.500024
C31	C	-0.631192	0.128887	0.000022
C32	C	-0.131192	0.628887	0.500022
C33	C	-0.548053	0.127278	0.000020
C34	C	-0.048053	0.627278	0.500020
C35	C	-0.443738	0.125252	0.000020
C36	C	0.056262	0.625252	0.500020
C37	C	-1.092446	-0.226031	0.000018
C38	C	-0.592446	0.273969	0.500018
C39	C	-1.090419	-0.330340	0.000025
C40	C	-0.590419	0.169660	0.500025
C41	C	-1.088811	-0.413479	0.000031
C42	C	-0.588811	0.086521	0.500031
C43	C	-1.086785	-0.517795	0.000037
C44	C	-0.586785	-0.017795	0.500037
C45	C	-0.258218	0.121648	0.000025
C46	C	0.241782	0.621648	0.500025
C47	C	-0.360598	0.123643	0.000019
C48	C	0.139402	0.623643	0.500019
C49	C	-1.083180	0.296685	0.000036
C50	C	-0.583180	0.796685	0.500036
C51	C	-1.085176	0.399066	0.000043
C52	C	-0.585176	0.899066	0.500043
N53	N	-1.089608	0.128087	-0.246633
N54	N	-0.589608	0.628087	0.253367
C55	C	-1.145632	0.184151	-0.296443
C56	C	-0.645632	0.684151	0.203557
C57	C	-1.145644	0.184147	-0.396100
C58	C	-0.645644	0.684147	0.103900
C59	C	-1.089626	0.128083	-0.445947
C60	C	-0.589626	0.628083	0.054053
C61	C	-1.033599	0.072012	-0.396130
C62	C	-0.533599	0.572012	0.103870
C63	C	-1.033593	0.072012	-0.296475
C64	C	-0.533593	0.572012	0.203525
C65	C	-1.033614	0.072019	-0.603845
C66	C	-0.533614	0.572019	-0.103845
C67	C	-1.033619	0.072020	-0.703507
C68	C	-0.533619	0.572020	-0.203507
C69	C	-1.145666	0.184154	-0.703470
C70	C	-0.645666	0.684154	-0.203470
C71	C	-1.145660	0.184154	-0.603815
C72	C	-0.645660	0.684154	-0.103815
C73	C	-1.089631	0.128084	-0.554005
C74	C	-0.589631	0.628084	-0.054005
N75	N	-1.089644	0.128084	0.246683
N76	N	-0.589644	0.628084	0.746683
H77	H	-1.191244	0.229811	-0.255865
H78	H	-0.691244	0.729811	0.244135
F79	F	-0.973995	0.012330	-0.550836
F80	F	-0.473995	0.512330	-0.050836
F81	F	-0.974002	0.012346	-0.756556
F82	F	-0.474002	0.512346	-0.256556
F83	F	-0.973982	0.012342	-0.449183
F84	F	-0.473982	0.512342	0.050817
F85	F	-1.205299	0.243825	-0.756482
F86	F	-0.705299	0.743825	-0.256482
F87	F	-0.973971	0.012333	-0.243464
F88	F	-0.473971	0.512333	0.256536
H89	H	-1.191270	0.229811	-0.563232
H90	H	-0.691270	0.729811	-0.063232
F91	F	-1.205272	0.243820	-0.449107
F92	F	-0.705272	0.743820	0.050893
