data_functionalizedCrystal
_audit_creation_method	'MofGen! by Chris Wilmer'
_symmetry_space_group_name_H-M	'P1'
_symmetry_Int_Tables_number	1
_symmetry_cell_setting	triclinic
loop_
_symmetry_equiv_pos_as_xyz
  x,y,z
_cell_length_a	16.992694
_cell_length_b	14.519709
_cell_length_c	16.053802
_cell_angle_alpha	92.569364
_cell_angle_beta	87.249047
_cell_angle_gamma	87.174184
loop_
_atom_site_label
_atom_site_type_symbol
_atom_site_fract_x
_atom_site_fract_y
_atom_site_fract_z
O1	O	1.043963	0.191936	-0.069327
O2	O	0.815676	0.189789	-0.069352
O3	O	0.935872	0.057059	-0.069332
O4	O	0.923768	0.324666	-0.069348
O5	O	0.929256	0.064333	0.069526
O6	O	0.809060	0.197063	0.069506
O7	O	1.037348	0.199210	0.069530
Zn8	Zn	0.922154	0.199291	0.091565
Zn9	Zn	0.930870	0.189708	-0.091386
O10	O	0.917152	0.331940	0.069510
C11	C	0.783152	0.190666	0.000074
C12	C	0.696097	0.182430	0.000065
C13	C	0.645968	0.261890	0.000061
C14	C	0.564170	0.254147	0.000073
C15	C	0.532503	0.166943	0.000083
C16	C	0.582638	0.087478	0.000089
C17	C	0.664434	0.095222	0.000083
C18	C	0.288859	0.134847	0.000107
C19	C	0.207056	0.127109	0.000111
C20	C	0.188594	0.293779	0.000095
C21	C	0.270393	0.301515	0.000084
C22	C	0.320520	0.222050	0.000095
N23	N	0.448892	0.159027	0.000092
N24	N	0.404129	0.229968	0.000092
C25	C	0.932000	0.026296	0.000097
C26	C	0.930309	-0.076207	0.000098
C27	C	0.924087	-0.451551	0.000075
C28	C	0.925815	-0.347118	0.000082
C29	C	0.927198	-0.263882	0.000087
C30	C	0.928926	-0.159443	0.000092
C31	C	1.069872	0.198333	0.000103
C32	C	1.156927	0.206569	0.000106
C33	C	0.921024	0.362703	0.000079
C34	C	0.922715	0.465206	0.000073
N35	N	0.916210	0.205832	0.216424
N36	N	0.936820	0.183161	-0.216246
C37	C	0.967373	0.149377	0.260127
C38	C	0.963222	0.153962	0.347533
C39	C	0.907913	0.215006	0.391235
C40	C	0.856746	0.271462	0.347526
C41	C	0.860893	0.266872	0.260121
C42	C	0.889799	0.235027	0.652641
C43	C	0.885658	0.239615	0.740052
C44	C	0.992134	0.122113	0.740053
C45	C	0.996279	0.117533	0.652646
C46	C	0.945109	0.173985	0.608945
N47	N	0.903672	0.219695	0.480578
N48	N	0.949347	0.169291	0.519604
H49	H	0.329663	0.070141	0.000117
H50	H	0.671745	0.332900	0.000052
H51	H	1.004882	0.107992	0.383115
Cl52	Cl	0.542827	-0.022150	0.000108
H53	H	1.041316	0.067826	0.617066
Cl54	Cl	1.036912	0.072637	0.205197
Cl55	Cl	0.727454	-0.004675	0.000092
Cl56	Cl	1.056456	0.051144	0.794995
Cl57	Cl	0.167247	0.017474	0.000142
H58	H	0.840616	0.289328	0.775630
H59	H	0.848135	0.280995	0.617067
H60	H	0.819230	0.312842	0.224539
H61	H	0.523358	0.318852	0.000068
Cl62	Cl	0.310197	0.411147	0.000066
Cl63	Cl	0.125572	0.393672	0.000085
Cl64	Cl	0.787209	0.348199	0.402463
