data_functionalizedCrystal
_audit_creation_method	'MofGen! by Chris Wilmer'
_symmetry_space_group_name_H-M	'P1'
_symmetry_Int_Tables_number	1
_symmetry_cell_setting	triclinic
loop_
_symmetry_equiv_pos_as_xyz
  x,y,z
_cell_length_a	12.759394
_cell_length_b	11.169417
_cell_length_c	12.759387
_cell_angle_alpha	90.021408
_cell_angle_beta	89.968340
_cell_angle_gamma	89.986225
loop_
_atom_site_label
_atom_site_type_symbol
_atom_site_fract_x
_atom_site_fract_y
_atom_site_fract_z
Zn1	Zn	-0.418241	-1.834922	-0.594024
Zn2	Zn	-0.593958	-1.834796	-0.418342
Zn3	Zn	-0.418290	-1.634208	-0.418358
Zn4	Zn	-0.593875	-1.634199	-0.593978
O5	O	-0.506091	-1.734531	-0.506176
O6	O	-0.441564	-2.002855	-0.570732
O7	O	-0.570710	-1.808139	-0.271323
O8	O	-0.271263	-1.660890	-0.441687
O9	O	-0.570663	-2.002762	-0.441659
O10	O	-0.271226	-1.808353	-0.570748
O11	O	-0.441648	-1.660768	-0.271335
O12	O	-0.441568	-1.466257	-0.441642
O13	O	-0.570522	-1.660874	-0.741005
O14	O	-0.570569	-1.466251	-0.570669
O15	O	-0.441484	-1.808344	-0.741039
O16	O	-0.740968	-1.808130	-0.441614
O17	O	-0.740907	-1.660752	-0.570654
C18	C	-0.506066	-1.422707	-0.506153
C19	C	-0.506080	-1.289307	-0.506168
C20	C	-0.779059	-1.734459	-0.506150
C21	C	-0.895835	-1.734538	-0.506174
C22	C	-0.895845	-1.888118	-0.371906
C23	C	-0.950711	-1.964939	-0.304785
C24	C	-1.060432	-1.965009	-0.304813
C25	C	-1.115291	-1.888253	-0.371973
C26	C	-1.060425	-1.811432	-0.439095
C27	C	-0.950701	-1.811367	-0.439057
C28	C	-1.060415	-1.657860	-0.573366
C29	C	-0.950694	-1.657782	-0.573334
C30	C	-1.115273	-1.581104	-0.640526
C31	C	-1.060408	-1.504275	-0.707644
C32	C	-0.950680	-1.504207	-0.707612
C33	C	-0.895828	-1.580961	-0.640456
C34	C	-0.232058	-1.734636	-0.506224
C35	C	-0.115281	-1.734681	-0.506245
C36	C	-0.505988	-1.734622	-0.780209
C37	C	-0.505944	-1.734661	-0.896986
C38	C	-0.506108	-1.047574	-0.506190
C39	C	-0.506093	-1.180974	-0.506175
C40	C	-0.371586	-1.888231	-0.897041
C41	C	-0.304391	-1.965033	-0.951929
C42	C	-0.304353	-1.965063	-1.061651
C43	C	-0.371514	-1.888279	-1.116487
C44	C	-0.438709	-1.811477	-1.061598
C45	C	-0.438742	-1.811458	-0.951874
C46	C	-0.573060	-1.657902	-1.061544
C47	C	-0.573106	-1.657877	-0.951822
C48	C	-0.640222	-1.581118	-1.116380
C49	C	-0.707424	-1.504320	-1.061491
C50	C	-0.707460	-1.504295	-0.951763
C51	C	-0.640301	-1.581075	-0.896934
C52	C	-0.506118	-1.734510	-0.233208
C53	C	-0.505866	-1.734704	-0.116432
H54	H	-0.806504	-1.888053	-0.371863
F55	F	-0.371634	-1.888221	-0.780265
H56	H	-1.105104	-2.027570	-0.250162
F57	F	-0.892320	-2.046629	-0.233316
F58	F	-1.232066	-1.887934	-0.371651
F59	F	-0.232896	-2.046725	-0.893562
F60	F	-1.232048	-1.580783	-0.640206
F61	F	-0.778974	-1.422544	-0.893355
F62	F	-0.779052	-1.581168	-0.640655
F63	F	-0.371461	-1.888304	-1.233263
H64	H	-0.640328	-1.581067	-0.807592
F65	F	-1.118797	-1.422602	-0.779118
F66	F	-0.640179	-1.581150	-1.233155
H67	H	-0.249630	-2.027594	-1.106341
H68	H	-0.906014	-1.441654	-0.762274
F69	F	-0.778888	-1.422605	-1.119857
