data_functionalizedCrystal
_audit_creation_method	'MofGen! by Chris Wilmer'
_symmetry_space_group_name_H-M	'P1'
_symmetry_Int_Tables_number	1
_symmetry_cell_setting	triclinic
loop_
_symmetry_equiv_pos_as_xyz
  x,y,z
_cell_length_a	19.188930
_cell_length_b	19.188924
_cell_length_c	14.185569
_cell_angle_alpha	76.888872
_cell_angle_beta	103.095687
_cell_angle_gamma	83.143372
loop_
_atom_site_label
_atom_site_type_symbol
_atom_site_fract_x
_atom_site_fract_y
_atom_site_fract_z
O1	O	0.910195	0.103108	-0.083741
O2	O	1.243528	0.436441	0.249593
O3	O	1.576861	0.769774	0.582926
O4	O	0.706896	0.114829	-0.083672
O5	O	1.040229	0.448162	0.249661
O6	O	1.373563	0.781496	0.582994
O7	O	0.814417	0.007311	-0.083697
O8	O	1.147750	0.340644	0.249637
O9	O	1.481083	0.673977	0.582970
O10	O	0.802674	0.210626	-0.083716
O11	O	1.136007	0.543960	0.249617
O12	O	1.469340	0.877293	0.582950
O13	O	0.846179	-0.024448	0.083131
O14	O	1.179513	0.308885	0.416464
O15	O	1.512846	0.642219	0.749797
O16	O	0.738658	0.083071	0.083155
O17	O	1.071992	0.416404	0.416488
O18	O	1.405325	0.749737	0.749822
O19	O	0.941957	0.071349	0.083087
O20	O	1.275290	0.404683	0.416420
O21	O	1.608624	0.738016	0.749753
Cu22	Cu	0.843208	0.074310	0.098354
Cu23	Cu	1.176541	0.407643	0.431687
Cu24	Cu	1.509875	0.740977	0.765020
Cu25	Cu	0.805645	0.111868	-0.098939
Cu26	Cu	1.138978	0.445202	0.234394
Cu27	Cu	1.472312	0.778535	0.567727
O28	O	0.834436	0.178868	0.083111
O29	O	1.167770	0.512201	0.416444
O30	O	1.501103	0.845534	0.749778
C31	C	0.696768	0.098568	-0.000250
C32	C	1.030101	0.431901	0.333083
C33	C	1.363435	0.765235	0.666417
C34	C	0.619268	0.097422	-0.000223
C35	C	0.952602	0.430756	0.333110
C36	C	1.285935	0.764089	0.666443
C37	C	0.574339	0.160518	-0.000245
C38	C	0.907672	0.493851	0.333088
C39	C	1.241005	0.827184	0.666421
C40	C	0.501513	0.159448	-0.000256
C41	C	0.834846	0.492781	0.333077
C42	C	1.168180	0.826115	0.666410
C43	C	0.473616	0.095283	-0.000265
C44	C	0.806949	0.428617	0.333068
C45	C	1.140283	0.761950	0.666401
C46	C	0.518557	0.032179	-0.000238
C47	C	0.851890	0.365512	0.333095
C48	C	1.185223	0.698846	0.666429
C49	C	0.591383	0.033248	-0.000217
C50	C	0.924716	0.366582	0.333116
C51	C	1.258050	0.699915	0.666450
N52	N	0.354820	0.057052	-0.057080
N53	N	0.688154	0.390385	0.276254
N54	N	1.021487	0.723719	0.609587
N55	N	0.285637	0.056041	-0.057102
N56	N	0.618971	0.389374	0.276232
N57	N	0.952304	0.722707	0.609565
C58	C	0.254196	0.092057	-0.000326
C59	C	0.587529	0.425390	0.333007
C60	C	0.920863	0.758724	0.666340
N61	N	0.294547	0.129136	0.056459
N62	N	0.627880	0.462469	0.389793
N63	N	0.961214	0.795802	0.723126
N64	N	0.363735	0.130150	0.056477
N65	N	0.697068	0.463483	0.389810
N66	N	1.030402	0.796817	0.723143
C67	C	0.394649	0.094117	-0.000288
C68	C	0.727983	0.427450	0.333046
C69	C	1.061316	0.760783	0.666379
C70	C	0.130300	0.153996	-0.000359
C71	C	0.463633	0.487330	0.332975
C72	C	0.796967	0.820663	0.666308
C73	C	0.057474	0.152923	-0.000363
C74	C	0.390808	0.486256	0.332970
C75	C	0.724141	0.819590	0.666303
C76	C	0.074518	0.025654	-0.000355
C77	C	0.407851	0.358987	0.332978
C78	C	0.741184	0.692321	0.666311
C79	C	0.147344	0.026727	-0.000340
C80	C	0.480677	0.360061	0.332993
C81	C	0.814010	0.693394	0.666326
C82	C	0.175229	0.090901	-0.000347
C83	C	0.508563	0.424235	0.332986
C84	C	0.841896	0.757568	0.666320
C85	C	0.829919	-0.034580	-0.000282
C86	C	1.163252	0.298753	0.333051
C87	C	1.496586	0.632087	0.666385
C88	C	0.828781	-0.112085	-0.000279
C89	C	1.162114	0.221248	0.333054
C90	C	1.495447	0.554581	0.666388
C91	C	0.810935	-0.131173	-0.091217
C92	C	1.144269	0.202161	0.242117
C93	C	1.477602	0.535494	0.575450
C94	C	0.809854	-0.203994	-0.091224
C95	C	1.143187	0.129339	0.242110
C96	C	1.476521	0.462673	0.575443
C97	C	0.826633	-0.257728	-0.000288
C98	C	1.159966	0.075605	0.333045
C99	C	1.493300	0.408939	0.666378
C100	C	0.844477	-0.238634	0.090661
C101	C	1.177810	0.094700	0.423995
C102	C	1.511143	0.428033	0.757328
C103	C	0.845551	-0.165812	0.090666
C104	C	1.178884	0.167521	0.423999
C105	C	1.512217	0.500854	0.757333
N106	N	0.877564	-0.390273	0.067380
N107	N	1.210898	-0.056940	0.400713
N108	N	1.544231	0.276394	0.734047
N109	N	0.876545	-0.459449	0.067369
N110	N	1.209878	-0.126116	0.400703
N111	N	1.543211	0.207217	0.734036
C112	C	0.823397	-0.477136	-0.000297
C113	C	1.156731	-0.143802	0.333037
C114	C	1.490064	0.189531	0.666370
N115	N	0.771314	-0.423030	-0.067967
N116	N	1.104648	-0.089697	0.265366
N117	N	1.437981	0.243636	0.598699
N118	N	0.772337	-0.353848	-0.067960
N119	N	1.105670	-0.020514	0.265374
N120	N	1.439003	0.312819	0.598707
C121	C	0.825470	-0.336693	-0.000283
C122	C	1.158804	-0.003359	0.333050
C123	C	1.492137	0.329974	0.666384
C124	C	0.804378	-0.575183	-0.091249
C125	C	1.137711	-0.241849	0.242085
C126	C	1.471044	0.091484	0.575418
C127	C	0.803293	-0.648006	-0.091252
C128	C	1.136626	-0.314672	0.242081
C129	C	1.469959	0.018661	0.575415
C130	C	0.837923	-0.682645	0.090636
C131	C	1.171256	-0.349312	0.423969
C132	C	1.504589	-0.015979	0.757302
C133	C	0.839000	-0.609823	0.090637
C134	C	1.172334	-0.276489	0.423970
C135	C	1.505667	0.056844	0.757303
C136	C	0.822230	-0.556096	-0.000308
C137	C	1.155564	-0.222762	0.333025
C138	C	1.488897	0.110571	0.666358
C139	C	0.952085	0.087611	-0.000338
C140	C	1.285418	0.420944	0.332995
C141	C	1.618751	0.754277	0.666329
C142	C	1.029583	0.088758	-0.000371
C143	C	1.362916	0.422091	0.332962
C144	C	1.696250	0.755424	0.666296
C145	C	0.818934	0.220759	-0.000306
C146	C	1.152267	0.554092	0.333027
C147	C	1.485600	0.887425	0.666361
C148	C	0.820071	0.298265	-0.000316
C149	C	1.153404	0.631599	0.333018
C150	C	1.486737	0.964932	0.666351
N151	N	0.869633	0.047893	0.237119
N152	N	1.202966	0.381227	0.570452
N153	N	1.536299	0.714560	0.903785
N154	N	0.779226	0.138279	-0.237704
N155	N	1.112559	0.471613	0.095629
N156	N	1.445892	0.804946	0.428962
C157	C	0.701590	0.215862	0.604806
C158	C	1.034923	0.549195	0.938140
C159	C	1.368256	0.882528	1.271473
C160	C	0.721611	0.195856	0.709823
C161	C	1.054944	0.529189	1.043157
C162	C	1.388278	0.862523	1.376490
C163	C	0.816840	0.100683	0.709763
C164	C	1.150173	0.434017	1.043096
C165	C	1.483506	0.767350	1.376430
C166	C	0.796824	0.120679	0.604744
C167	C	1.130157	0.454012	0.938077
C168	C	1.463491	0.787346	1.271411
C169	C	0.739199	0.178269	0.552274
C170	C	1.072532	0.511602	0.885607
C171	C	1.405866	0.844936	1.218940
C172	C	0.834434	0.083086	0.552211
C173	C	1.167767	0.416420	0.885545
C174	C	1.501100	0.749753	1.218878
C175	C	0.814422	0.103083	0.447201
C176	C	1.147755	0.436416	0.780535
C177	C	1.481088	0.769750	1.113868
C178	C	0.756801	0.160672	0.394724
C179	C	1.090134	0.494005	0.728057
C180	C	1.423467	0.827339	1.061391
C181	C	0.719187	0.198265	0.447264
C182	C	1.052521	0.531599	0.780597
C183	C	1.385854	0.864932	1.113930
C184	C	0.892062	0.025500	0.604683
C185	C	1.225395	0.358833	0.938017
C186	C	1.558728	0.692167	1.271350
C187	C	0.929671	-0.012093	0.552151
C188	C	1.263005	0.321241	0.885484
C189	C	1.596338	0.654574	1.218817
C190	C	0.909656	0.007900	0.447139
C191	C	1.242990	0.341234	0.780472
C192	C	1.576323	0.674567	1.113805
C193	C	0.852035	0.065489	0.394661
C194	C	1.185368	0.398823	0.727995
C195	C	1.518702	0.732156	1.061328
C196	C	0.947269	-0.029693	0.394599
C197	C	1.280603	0.303640	0.727932
C198	C	1.613936	0.636973	1.061265
C199	C	0.927258	-0.009697	0.289589
C200	C	1.260591	0.323637	0.622922
C201	C	1.593924	0.656970	0.956255
C202	C	0.832023	0.085486	0.289651
C203	C	1.165357	0.418819	0.622985
C204	C	1.498690	0.752153	0.956318
H205	H	0.051793	-0.026578	-0.000425
H206	H	0.385127	0.306755	0.332908
H207	H	0.718460	0.640088	0.666242
F208	F	0.857994	-0.589508	0.187426
F209	F	1.191327	-0.256175	0.520760
F210	F	1.524661	0.077158	0.854093
H211	H	0.690980	0.226474	0.752590
H212	H	1.024313	0.559808	1.085924
H213	H	1.357647	0.893141	1.419257
H214	H	0.788757	-0.663542	-0.165307
H215	H	1.122090	-0.330209	0.168026
H216	H	1.455423	0.003125	0.501359
H217	H	0.495836	-0.020062	-0.000259
H218	H	0.829169	0.313272	0.333074
H219	H	1.162503	0.646605	0.666408
F220	F	0.855777	-0.739828	0.187417
F221	F	1.189110	-0.406495	0.520751
F222	F	1.522444	-0.073161	0.854084
F223	F	0.878169	0.039395	0.765614
F224	F	1.211502	0.372728	1.098948
F225	F	1.544836	0.706062	1.432281
F226	F	0.913360	0.004224	0.716446
F227	F	1.246693	0.337557	1.049779
F228	F	1.580027	0.670890	1.383112
H229	H	0.785094	0.132377	0.246928
H230	H	1.118428	0.465710	0.580261
H231	H	1.451761	0.799043	0.913595
H232	H	0.153008	0.206248	-0.000349
H233	H	0.486342	0.539581	0.332984
H234	H	0.819675	0.872915	0.666317
H235	H	0.654661	0.262752	0.562083
H236	H	0.987994	0.596086	0.895417
H237	H	1.321327	0.929419	1.228750
H238	H	0.976592	-0.058982	0.594884
H239	H	1.309925	0.274352	0.928217
H240	H	1.643259	0.607685	1.261550
H241	H	0.672258	0.245156	0.404541
H242	H	1.005592	0.578490	0.737874
H243	H	1.338925	0.911823	1.071207
F244	F	0.195162	-0.040427	-0.000322
F245	F	0.528496	0.292906	0.333011
F246	F	0.861829	0.626239	0.666344
F247	F	0.639202	-0.033909	-0.000194
F248	F	0.972536	0.299424	0.333140
F249	F	1.305869	0.632757	0.666473
H250	H	0.994193	-0.076579	0.437333
H251	H	1.327526	0.256754	0.770667
H252	H	1.660860	0.590088	1.104000
H253	H	0.020894	0.204304	-0.000375
H254	H	0.354227	0.537637	0.332958
H255	H	0.687560	0.870971	0.666291
F256	F	0.967289	-0.049706	0.233679
F257	F	1.300622	0.283627	0.567012
F258	F	1.633955	0.616960	0.900346
H259	H	0.795318	-0.219538	-0.165278
H260	H	1.128651	0.113796	0.168055
H261	H	1.461984	0.447129	0.501388
F262	F	0.735506	0.181956	0.282961
F263	F	1.068839	0.515290	0.616295
F264	F	1.402172	0.848623	0.949628
H265	H	0.597038	0.212773	-0.000253
H266	H	0.930371	0.546107	0.333081
H267	H	1.263704	0.879440	0.666414
F268	F	0.864543	-0.145499	0.187459
F269	F	1.197877	0.187835	0.520792
F270	F	1.531210	0.521168	0.854126
F271	F	0.793084	-0.073996	-0.188009
F272	F	1.126417	0.259338	0.145325
F273	F	1.459750	0.592671	0.478658
F274	F	0.862330	-0.295822	0.187442
F275	F	1.195663	0.037512	0.520775
F276	F	1.528996	0.370845	0.854108
F277	F	0.453687	0.226605	-0.000277
F278	F	0.787020	0.559938	0.333057
F279	F	1.120354	0.893271	0.666390
F280	F	0.786525	-0.518000	-0.188039
F281	F	1.119859	-0.184666	0.145295
F282	F	1.453192	0.148667	0.478628
