data_functionalizedCrystal
_audit_creation_method	'MofGen! by Chris Wilmer'
_symmetry_space_group_name_H-M	'P1'
_symmetry_Int_Tables_number	1
_symmetry_cell_setting	triclinic
loop_
_symmetry_equiv_pos_as_xyz
  x,y,z
_cell_length_a	17.019282
_cell_length_b	27.731996
_cell_length_c	16.098678
_cell_angle_alpha	92.714437
_cell_angle_beta	83.404766
_cell_angle_gamma	83.006485
loop_
_atom_site_label
_atom_site_type_symbol
_atom_site_fract_x
_atom_site_fract_y
_atom_site_fract_z
O1	O	1.046209	0.061368	-0.005792
O2	O	1.546209	0.561368	0.494208
O3	O	0.815597	0.069745	0.010756
O4	O	1.315597	0.569745	0.510756
O5	O	0.938087	-0.004831	0.001949
O6	O	1.438087	0.495169	0.501949
O7	O	0.923718	0.135944	0.003016
O8	O	1.423718	0.635944	0.503016
O9	O	0.945206	-0.009173	-0.137073
O10	O	1.445206	0.490827	0.362927
O11	O	0.822715	0.065403	-0.128266
O12	O	1.322715	0.565403	0.371734
O13	O	1.053327	0.057026	-0.144814
O14	O	1.553327	0.557026	0.355186
Zn15	Zn	0.939152	0.060525	-0.158612
Zn16	Zn	1.439152	0.560525	0.341388
Zn17	Zn	0.929772	0.066246	0.024555
Zn18	Zn	1.429772	0.566246	0.524555
O19	O	0.930837	0.131602	-0.136006
O20	O	1.430837	0.631602	0.363994
C21	C	0.789662	0.067343	-0.056639
C22	C	1.289662	0.567343	0.443361
C23	C	0.701779	0.066650	-0.050333
C24	C	1.201779	0.566650	0.449667
C25	C	0.664377	0.063956	-0.123154
C26	C	1.164377	0.563956	0.376846
C27	C	0.581804	0.063297	-0.117232
C28	C	1.081804	0.563297	0.382768
C29	C	0.536634	0.065335	-0.038488
C30	C	1.036634	0.565335	0.461512
C31	C	0.574042	0.068027	0.034338
C32	C	1.074042	0.568027	0.534338
C33	C	0.656614	0.068683	0.028415
C34	C	1.156614	0.568683	0.528415
C35	C	0.287125	0.063470	-0.016814
C36	C	0.787125	0.563470	0.483186
C37	C	0.204546	0.062815	-0.010896
C38	C	0.704546	0.562815	0.489104
C39	C	0.212315	0.058084	-0.162466
C40	C	0.712315	0.558084	0.337534
C41	C	0.294888	0.058743	-0.168382
C42	C	0.794888	0.558743	0.331618
C43	C	0.332289	0.061433	-0.095556
C44	C	0.832289	0.561433	0.404444
C45	C	0.452230	0.064662	-0.032433
C46	C	0.952230	0.564662	0.467567
C47	C	0.416692	0.062102	-0.101613
C48	C	0.916692	0.562102	0.398387
C49	C	0.941352	-0.025010	-0.067544
C50	C	1.441352	0.474990	0.432456
C51	C	0.940463	-0.078668	-0.067489
C52	C	1.440463	0.421332	0.432511
C53	C	0.930988	-0.409025	0.008734
C54	C	1.430988	0.090975	0.508734
C55	C	0.927611	-0.610688	0.008991
C56	C	1.427611	-0.110688	0.508991
O57	O	0.923840	-0.634747	0.073474
O58	O	1.423840	-0.134747	0.573474
N59	N	0.931072	-0.638273	-0.066759
N60	N	1.431072	-0.138273	0.433241
C61	C	0.935372	-0.615438	-0.142578
C62	C	1.435372	-0.115438	0.357422
O63	O	0.938231	-0.643527	-0.207002
O64	O	1.438231	-0.143527	0.292998
C65	C	0.938743	-0.413776	-0.142834
C66	C	1.438743	0.086224	0.357166
C67	C	0.935290	-0.386194	-0.067079
C68	C	1.435290	0.113806	0.432921
C69	C	0.927534	-0.381444	0.084483
C70	C	1.427534	0.118556	0.584483
C71	C	0.928382	-0.331031	0.084417
C72	C	1.428382	0.168969	0.584417
C73	C	0.932685	-0.308200	0.008604
C74	C	1.432685	0.191800	0.508604
C75	C	0.936138	-0.335782	-0.067145
C76	C	1.436138	0.164218	0.432855
C77	C	0.943038	-0.390941	-0.218652
C78	C	1.443038	0.109059	0.281348
C79	C	0.943878	-0.340522	-0.218709
C80	C	1.443878	0.159478	0.281291
C81	C	0.940425	-0.312941	-0.142954
C82	C	1.440425	0.187059	0.357046
C83	C	0.941289	-0.262538	-0.143024
C84	C	1.441289	0.237462	0.356976
N85	N	0.937828	-0.234954	-0.067274
N86	N	1.437828	0.265046	0.432726
C87	C	0.933526	-0.257785	0.008540
C88	C	1.433526	0.242215	0.508540
C89	C	0.933604	-0.721314	-0.142439
C90	C	1.433604	-0.221314	0.357561
C91	C	0.932763	-0.771730	-0.142375
C92	C	1.432763	-0.271730	0.357625
C93	C	0.925000	-0.766976	0.009195
C94	C	1.425000	-0.266976	0.509195
C95	C	0.925847	-0.716560	0.009130
C96	C	1.425847	-0.216560	0.509130
C97	C	0.930143	-0.693730	-0.066689
C98	C	1.430143	-0.193730	0.433311
C99	C	0.935309	-0.151915	0.008397
C100	C	1.435309	0.348085	0.508397
C101	C	0.936161	-0.101499	0.008325
C102	C	1.436161	0.398501	0.508325
C103	C	0.943919	-0.106257	-0.143244
C104	C	1.443919	0.393743	0.356756
C105	C	0.943072	-0.156669	-0.143173
C106	C	1.443072	0.343331	0.356827
C107	C	0.938763	-0.179497	-0.067345
C108	C	1.438763	0.320503	0.432655
O109	O	0.945050	-0.238447	-0.207472
O110	O	1.445050	0.261553	0.292528
O111	O	0.930651	-0.229686	0.072955
O112	O	1.430651	0.270314	0.572955
C113	C	0.930139	-0.459438	0.008800
C114	C	1.430139	0.040562	0.508800
C115	C	0.933593	-0.487019	-0.066949
C116	C	1.433593	0.012981	0.433051
C117	C	0.937895	-0.464188	-0.142762
C118	C	1.437895	0.035812	0.357238
C119	C	0.932752	-0.537434	-0.066885
C120	C	1.432752	-0.037434	0.433115
C121	C	0.928449	-0.560265	0.008929
C122	C	1.428449	-0.060265	0.508929
C123	C	0.924988	-0.532681	0.084679
C124	C	1.424988	-0.032681	0.584679
C125	C	0.925837	-0.482269	0.084613
C126	C	1.425837	0.017731	0.584613
C127	C	0.941356	-0.491773	-0.218512
C128	C	1.441356	0.008227	0.281488
C129	C	0.940509	-0.542185	-0.218441
C130	C	1.440509	-0.042185	0.281559
C131	C	0.936206	-0.565016	-0.142627
C132	C	1.436206	-0.065016	0.357373
C133	C	1.079262	0.059428	-0.077417
C134	C	1.579262	0.559428	0.422583
C135	C	1.167144	0.060121	-0.083717
C136	C	1.667144	0.560121	0.416283
C137	C	0.927572	0.151781	-0.066512
C138	C	1.427572	0.651781	0.433488
C139	C	0.928460	0.205439	-0.066561
C140	C	1.428460	0.705439	0.433439
N141	N	0.945558	0.056621	-0.283620
N142	N	1.445558	0.556621	0.216380
C143	C	0.893559	0.088262	-0.323486
C144	C	1.393559	0.588262	0.176514
C145	C	0.898064	0.085528	-0.410997
C146	C	1.398064	0.585528	0.089003
C147	C	0.954565	0.051151	-0.458640
C148	C	1.454565	0.551151	0.041360
C149	C	1.006571	0.019508	-0.418768
C150	C	1.506571	0.519508	0.081232
C151	C	1.002069	0.022244	-0.331259
C152	C	1.502069	0.522244	0.168741
C153	C	0.970875	0.041240	-0.723057
C154	C	1.470875	0.541240	-0.223057
C155	C	0.975372	0.038505	-0.810572
C156	C	1.475372	0.538505	-0.310572
C157	C	0.866865	0.104527	-0.802795
C158	C	1.366865	0.604527	-0.302795
C159	C	0.862365	0.107258	-0.715284
C160	C	1.362365	0.607258	-0.215284
C161	C	0.914373	0.075617	-0.675420
C162	C	1.414373	0.575617	-0.175420
C163	C	0.959170	0.048355	-0.548091
C164	C	1.459170	0.548355	-0.048091
C165	C	0.909772	0.078415	-0.585971
C166	C	1.409772	0.578415	-0.085971
N167	N	0.923372	0.070147	0.149562
N168	N	1.423372	0.570147	0.649562
H169	H	0.551357	0.061095	-0.176530
H170	H	1.051357	0.561095	0.323470
H171	H	0.687065	0.070878	0.087713
H172	H	1.187065	0.570878	0.587713
H173	H	0.931796	-0.170495	0.070144
H174	H	1.431796	0.329505	0.570144
H175	H	0.415443	0.066322	0.031680
H176	H	0.915443	0.566322	0.531680
H177	H	0.816357	0.135251	-0.676495
H178	H	1.316357	0.635251	-0.176495
Br179	Br	1.072648	-0.020697	-0.277154
Br180	Br	1.572648	0.479303	0.222846
H181	H	0.863771	0.106407	-0.547178
H182	H	1.363771	0.606407	-0.047178
Br183	Br	0.949707	-0.309541	-0.321611
Br184	Br	1.449707	0.190459	0.178389
Br185	Br	0.477996	0.059333	-0.208475
Br186	Br	0.977996	0.559333	0.291525
Br187	Br	0.931479	-0.064070	0.111141
Br188	Br	1.431479	0.435930	0.611141
Br189	Br	1.035850	0.001700	-0.612752
Br190	Br	1.535850	0.501700	-0.112752
H191	H	0.924027	-0.400027	0.146223
H192	H	1.424027	0.099973	0.646223
H193	H	0.824524	0.130288	-0.835261
H194	H	1.324524	0.630288	-0.335261
Br195	Br	0.143242	0.065585	0.095977
Br196	Br	0.643242	0.565585	0.595977
H197	H	0.331661	0.057081	-0.232504
H198	H	0.831661	0.557081	0.267496
H199	H	0.847546	0.116254	-0.284701
H200	H	1.347546	0.616254	0.215299
Br201	Br	0.919158	-0.797970	0.112085
Br202	Br	1.419158	-0.297970	0.612085
Br203	Br	0.827494	0.128473	-0.465105
Br204	Br	1.327494	0.628473	0.034895
H205	H	0.925567	-0.308578	0.146105
H206	H	1.425567	0.191422	0.646105
H207	H	0.701149	0.062300	-0.187275
H208	H	1.201149	0.562300	0.312725
Br209	Br	1.052056	-0.008157	-0.875225
Br210	Br	1.552056	0.491843	-0.375225
H211	H	0.923034	-0.694106	0.070816
H212	H	1.423034	-0.194106	0.570816
Br213	Br	0.161552	0.054432	-0.261296
Br214	Br	0.661552	0.554432	0.238704
Br215	Br	1.083259	-0.027145	-0.483423
Br216	Br	1.583259	0.472855	0.016577
Br217	Br	0.337873	0.067120	0.082022
Br218	Br	0.837873	0.567120	0.582022
H219	H	0.537258	0.069683	0.098452
H220	H	1.037258	0.569683	0.598452
H221	H	0.937106	-0.702731	-0.204183
H222	H	1.437106	-0.202731	0.295817
Br223	Br	0.937469	-0.809157	-0.245190
Br224	Br	1.437469	-0.309157	0.254810
Br225	Br	0.947722	-0.428361	-0.321468
Br226	Br	1.447722	0.071639	0.178532
Br227	Br	0.947777	-0.194104	-0.245984
Br228	Br	1.447777	0.305896	0.254016
Br229	Br	0.949760	-0.075262	-0.246129
Br230	Br	1.449760	0.424738	0.253871
H231	H	0.923024	-0.459816	0.146300
H232	H	1.423024	0.040184	0.646300
H233	H	0.943327	-0.564638	-0.280135
H234	H	1.443327	-0.064638	0.219865
H235	H	0.921489	-0.551279	0.146409
H236	H	1.421489	-0.051279	0.646409
H237	H	0.944861	-0.473189	-0.280250
H238	H	1.444861	0.026811	0.219750
H239	H	1.013221	0.015476	-0.690606
H240	H	1.513221	0.515476	-0.190606
