data_functionalizedCrystal
_audit_creation_method	'MofGen! by Chris Wilmer'
_symmetry_space_group_name_H-M	'P1'
_symmetry_Int_Tables_number	1
_symmetry_cell_setting	triclinic
loop_
_symmetry_equiv_pos_as_xyz
  x,y,z
_cell_length_a	14.853558
_cell_length_b	14.853567
_cell_length_c	13.448316
_cell_angle_alpha	89.997194
_cell_angle_beta	89.993768
_cell_angle_gamma	83.633032
loop_
_atom_site_label
_atom_site_type_symbol
_atom_site_fract_x
_atom_site_fract_y
_atom_site_fract_z
O1	O	1.196373	0.117666	-0.082671
O2	O	1.696373	0.617666	0.417329
O3	O	0.933912	0.131697	-0.082675
O4	O	1.433912	0.631697	0.417325
O5	O	1.072153	-0.006549	-0.082676
O6	O	1.572153	0.493451	0.417324
O7	O	1.058132	0.255911	-0.082670
O8	O	1.558132	0.755911	0.417330
O9	O	1.072136	-0.006557	0.082708
O10	O	1.572136	0.493443	0.582708
O11	O	0.933895	0.131688	0.082709
O12	O	1.433895	0.631688	0.582709
O13	O	1.196355	0.117658	0.082713
O14	O	1.696355	0.617658	0.582713
Cu15	Cu	1.065123	0.124672	0.097812
Cu16	Cu	1.565123	0.624672	0.597812
Cu17	Cu	1.065144	0.124682	-0.097774
Cu18	Cu	1.565144	0.624682	0.402226
O19	O	1.058114	0.255903	0.082714
O20	O	1.558114	0.755903	0.582714
C21	C	0.900314	0.131058	0.000017
C22	C	1.400314	0.631058	0.500017
C23	C	0.800230	0.129158	0.000015
C24	C	1.300230	0.629158	0.500015
C25	C	1.071509	-0.040141	0.000013
C26	C	1.571509	0.459859	0.500013
C27	C	1.069605	-0.140225	0.000005
C28	C	1.569605	0.359775	0.500005
C29	C	0.753220	0.128271	-0.090140
C30	C	1.253220	0.628271	0.409860
C31	C	0.753199	0.128251	0.090168
C32	C	1.253199	0.628251	0.590168
C33	C	0.659165	0.126461	0.090170
C34	C	1.159165	0.626461	0.590170
C35	C	0.612155	0.125574	0.000015
C36	C	1.112155	0.625574	0.500015
C37	C	0.659178	0.126478	-0.090141
C38	C	1.159178	0.626478	0.409859
C39	C	0.612137	0.125547	0.180324
C40	C	1.112137	0.625547	0.680324
C41	C	0.518097	0.123756	0.180329
C42	C	1.018097	0.623756	0.680329
C43	C	0.471084	0.122876	0.090174
C44	C	0.971084	0.622876	0.590174
C45	C	0.518113	0.123781	0.000014
C46	C	1.018113	0.623781	0.500014
C47	C	0.471102	0.122894	-0.090140
C48	C	0.971102	0.622894	0.409860
C49	C	0.518128	0.123805	-0.180301
C50	C	1.018128	0.623805	0.319699
C51	C	0.612164	0.125597	-0.180296
C52	C	1.112164	0.625597	0.319704
C53	C	0.377048	0.121083	0.090169
C54	C	0.877048	0.621083	0.590169
C55	C	0.377060	0.121101	-0.090142
C56	C	0.877060	0.621101	0.409858
C57	C	0.979439	-0.552756	0.000022
C58	C	1.479439	-0.052756	0.500022
C59	C	1.143673	-0.574042	0.000024
C60	C	1.643673	-0.074042	0.500024
C61	C	1.145463	-0.480009	0.000019
C62	C	1.645463	0.019991	0.500019
C63	C	1.064240	-0.422344	0.000016
C64	C	1.564240	0.077656	0.500016
C65	C	0.981227	-0.458713	0.000019
C66	C	1.481227	0.041287	0.500019
C67	C	1.228474	-0.443632	0.000025
C68	C	1.728474	0.056368	0.500025
C69	C	1.230268	-0.349593	0.000021
C70	C	1.730268	0.150407	0.500021
C71	C	1.149044	-0.291927	0.000011
C72	C	1.649044	0.208073	0.500011
C73	C	1.066027	-0.328301	0.000013
C74	C	1.566027	0.171699	0.500013
C75	C	0.984805	-0.270637	0.000011
C76	C	1.484805	0.229363	0.500011
C77	C	0.901787	-0.307009	0.000006
C78	C	1.401787	0.192991	0.500006
C79	C	0.900003	-0.401047	0.000010
C80	C	1.400003	0.098953	0.500010
C81	C	1.150828	-0.197890	0.000007
C82	C	1.650828	0.302110	0.500007
C83	C	0.986592	-0.176594	0.000008
C84	C	1.486592	0.323406	0.500008
C85	C	1.229953	0.118296	0.000019
C86	C	1.729953	0.618296	0.500019
C87	C	1.330037	0.120197	0.000014
C88	C	1.830037	0.620197	0.500014
C89	C	1.058758	0.289496	0.000023
C90	C	1.558758	0.789496	0.500023
C91	C	1.060662	0.389580	0.000025
C92	C	1.560662	0.889580	0.500025
N93	N	1.065115	0.124665	0.235376
N94	N	1.565115	0.624665	0.735376
N95	N	1.065159	0.124683	-0.235338
N96	N	1.565159	0.624683	0.264662
C97	C	1.126348	0.063475	0.287416
C98	C	1.626348	0.563475	0.787416
C99	C	1.126353	0.063474	0.391519
C100	C	1.626353	0.563474	0.891519
C101	C	1.065130	0.124668	0.443581
C102	C	1.565130	0.624668	0.943581
C103	C	1.003892	0.185861	0.391533
C104	C	1.503892	0.685861	0.891533
C105	C	1.003882	0.185856	0.287432
C106	C	1.503882	0.685856	0.787432
C107	C	1.003917	0.185867	0.608514
C108	C	1.503917	0.685867	1.108514
C109	C	1.003927	0.185872	0.712622
C110	C	1.503927	0.685872	1.212622
C111	C	1.126388	0.063484	0.712601
C112	C	1.626388	0.563484	1.212601
C113	C	1.126378	0.063480	0.608499
C114	C	1.626378	0.563480	1.108499
C115	C	1.065140	0.124674	0.556459
C116	C	1.565140	0.624674	1.056459
H117	H	0.338790	0.120384	-0.163557
H118	H	0.838790	0.620384	0.336443
Cl119	Cl	0.926955	0.262804	0.778063
Cl120	Cl	1.426955	0.762804	1.278063
H121	H	1.297865	-0.319987	0.000023
H122	H	1.797865	0.180013	0.500023
Cl123	Cl	1.255184	-0.152167	0.000032
Cl124	Cl	1.755184	0.347833	0.500032
H125	H	0.835656	-0.260047	0.000011
H126	H	1.335656	0.239953	0.500011
Cl127	Cl	0.884477	-0.104108	-0.000003
Cl128	Cl	1.384477	0.395892	0.499997
H129	H	0.832414	-0.430670	0.000007
H130	H	1.332414	0.069330	0.500007
H131	H	1.209801	-0.620998	0.000034
H132	H	1.709801	-0.120998	0.500034
H133	H	1.294601	-0.490589	0.000037
H134	H	1.794601	0.009411	0.500037
Cl135	Cl	0.671289	0.126731	-0.293630
Cl136	Cl	1.171289	0.626731	0.206370
H137	H	0.954038	0.235683	0.433928
H138	H	1.454038	0.735683	0.933928
Cl139	Cl	1.203323	-0.013456	0.221978
Cl140	Cl	1.703323	0.486544	0.721978
Cl141	Cl	0.812299	0.129364	0.203499
Cl142	Cl	1.312299	0.629364	0.703499
H143	H	0.911848	-0.582375	0.000014
H144	H	1.411848	-0.082375	0.500014
Cl145	Cl	0.458986	0.122623	0.293672
Cl146	Cl	0.958986	0.622623	0.793672
Cl147	Cl	0.671239	0.126665	0.293653
Cl148	Cl	1.171239	0.626665	0.793653
Cl149	Cl	0.317935	0.119924	0.203504
Cl150	Cl	0.817935	0.619924	0.703504
Cl151	Cl	1.203331	-0.013452	0.456943
Cl152	Cl	1.703331	0.486548	0.956943
Cl153	Cl	1.203350	-0.013444	0.543048
Cl154	Cl	1.703350	0.486556	1.043048
Cl155	Cl	1.203372	-0.013442	0.778026
Cl156	Cl	1.703372	0.486558	1.278026
H157	H	0.954047	0.235695	0.566146
H158	H	1.454047	0.735695	1.066146
H159	H	0.954020	0.235682	0.245062
H160	H	1.454020	0.735682	0.745062
H161	H	0.791512	0.129017	-0.163546
H162	H	1.291512	0.629017	0.336454
H163	H	0.479840	0.123078	-0.253705
H164	H	0.979840	0.623078	0.246295
