data_functionalizedCrystal
_audit_creation_method	'MofGen! by Chris Wilmer'
_symmetry_space_group_name_H-M	'P1'
_symmetry_Int_Tables_number	1
_symmetry_cell_setting	triclinic
loop_
_symmetry_equiv_pos_as_xyz
  x,y,z
_cell_length_a	10.723023
_cell_length_b	15.625711
_cell_length_c	9.198806
_cell_angle_alpha	108.066693
_cell_angle_beta	90.001851
_cell_angle_gamma	95.648627
loop_
_atom_site_label
_atom_site_type_symbol
_atom_site_fract_x
_atom_site_fract_y
_atom_site_fract_z
O1	O	0.163075	-1.197072	-0.509859
O2	O	0.182447	-0.934748	-0.371636
O3	O	-0.008875	-1.071961	-0.443941
O4	O	0.354398	-1.059859	-0.437554
O5	O	-0.008876	-1.071950	-0.685720
O6	O	0.182447	-0.934737	-0.613415
O7	O	0.163075	-1.197061	-0.751638
Cu8	Cu	0.172761	-1.065898	-0.704603
Cu9	Cu	0.172761	-1.065911	-0.418671
O10	O	0.354398	-1.059848	-0.679334
C11	C	0.181563	-0.901154	-0.474827
C12	C	0.178914	-0.801069	-0.422091
C13	C	0.170271	-0.471779	-0.907438
C14	C	0.167806	-0.377732	-0.857816
C15	C	0.167808	-0.377791	-0.594262
C16	C	0.170278	-0.471839	-0.643862
C17	C	0.171508	-0.518826	-0.800452
C18	C	0.171516	-0.518886	-0.536876
C19	C	0.173980	-0.612927	-0.586473
C20	C	0.175206	-0.659921	-0.743056
C21	C	0.173972	-0.612867	-0.850049
C22	C	0.170277	-0.471898	-0.380287
C23	C	0.171515	-0.518945	-0.273301
C24	C	0.173987	-0.612987	-0.322897
C25	C	0.175213	-0.659981	-0.479480
C26	C	0.175221	-0.660041	-0.215904
C27	C	0.177685	-0.754082	-0.265501
C28	C	0.177677	-0.754022	-0.529077
C29	C	-0.055366	-1.071075	-0.564365
C30	C	-0.193894	-1.068441	-0.562971
C31	C	-0.255661	-1.067260	-0.687598
C32	C	-0.398837	-1.064537	-0.686161
C33	C	0.400889	-1.060734	-0.558907
C34	C	0.539417	-1.063369	-0.560291
N35	N	0.172760	-1.065896	-0.905716
C36	C	0.163950	-0.230656	-0.648466
C37	C	0.166572	-0.330744	-0.701259
C38	C	0.092077	-1.123508	-1.008272
C39	C	0.092073	-1.123521	-1.175691
N40	N	0.172753	-1.065921	-0.217562
H41	H	0.166828	-0.339428	-0.944948
O42	O	0.255221	-1.007197	-1.112411
C43	C	0.332075	-1.056159	-1.050180
H44	H	0.282288	-1.126319	-1.064472
H45	H	0.351773	-1.018741	-0.923382
H46	H	0.424309	-1.063009	-1.112360
O47	O	-0.192396	-1.068605	-0.816286
C48	C	-0.238121	-1.145911	-0.937287
H49	H	-0.283745	-1.199717	-0.888587
H50	H	-0.157155	-1.173683	-1.011602
H51	H	-0.310434	-1.126846	-1.009518
O52	O	0.178673	-0.799845	-0.161645
C53	C	0.072131	-0.863786	-0.187486
H54	H	-0.004092	-0.842087	-0.250829
H55	H	0.035919	-0.868077	-0.073175
H56	H	0.098410	-0.932896	-0.259347
O57	O	-0.462106	-1.063165	-0.813411
C58	C	-0.416375	-0.985843	-0.852910
H59	H	-0.370734	-0.932059	-0.747502
H60	H	-0.497341	-0.958049	-0.897926
H61	H	-0.344075	-1.004896	-0.945241
H62	H	0.166801	-0.339522	-0.466767
H63	H	0.241828	-1.016579	-0.941856
H64	H	0.174992	-0.651125	-0.977558
H65	H	0.168278	-0.395324	-0.339911
H66	H	-0.407472	-1.064376	-0.453586
H67	H	0.023001	-1.172849	-1.263771
O68	O	0.178653	-0.799654	-0.681216
C69	C	0.070084	-0.786168	-0.754307
H70	H	-0.006068	-0.766984	-0.667078
H71	H	0.035457	-0.851201	-0.848378
H72	H	0.093072	-0.729415	-0.806570
H73	H	-0.247012	-1.067440	-0.455211
O74	O	0.171247	-0.517412	-1.059577
C75	C	0.062678	-0.503925	-1.132668
H76	H	-0.013475	-0.484741	-1.045439
H77	H	0.028050	-0.568958	-1.226739
H78	H	0.085666	-0.447173	-1.184931
O79	O	0.009550	-1.182375	-0.965411
C80	C	-0.065447	-1.235962	-1.093282
H81	H	-0.066904	-1.199057	-1.182387
H82	H	-0.165049	-1.248875	-1.055993
H83	H	-0.025034	-1.303283	-1.144863
H84	H	0.174207	-0.621771	-0.088409
O85	O	0.177545	-0.751277	-0.791505
C86	C	0.178399	-0.782655	-0.952651
H87	H	0.137503	-0.731925	-1.000525
H88	H	0.119516	-0.850908	-0.996659
H89	H	0.278864	-0.790506	-0.991075
O90	O	0.170546	-0.473236	-0.121203
C91	C	0.277088	-0.409298	-0.079629
H92	H	0.353299	-0.430964	-0.165858
H93	H	0.313318	-0.405056	0.039174
H94	H	0.250803	-0.340174	-0.078584
