data_functionalizedCrystal
_audit_creation_method	'MofGen! by Chris Wilmer'
_symmetry_space_group_name_H-M	'P1'
_symmetry_Int_Tables_number	1
_symmetry_cell_setting	triclinic
loop_
_symmetry_equiv_pos_as_xyz
  x,y,z
_cell_length_a	14.908571
_cell_length_b	12.645330
_cell_length_c	14.908308
_cell_angle_alpha	93.270481
_cell_angle_beta	90.175053
_cell_angle_gamma	86.714080
loop_
_atom_site_label
_atom_site_type_symbol
_atom_site_fract_x
_atom_site_fract_y
_atom_site_fract_z
Zn1	Zn	1.345316	-0.553227	-0.587609
Zn2	Zn	1.845316	-0.053227	-0.087609
Zn3	Zn	1.353903	-0.720906	-0.437258
Zn4	Zn	1.853903	-0.220906	0.062742
Zn5	Zn	1.203631	-0.532865	-0.428606
Zn6	Zn	1.703631	-0.032865	0.071394
Zn7	Zn	1.194931	-0.719646	-0.578909
Zn8	Zn	1.694931	-0.219646	-0.078909
O9	O	1.274445	-0.631661	-0.508096
O10	O	1.774445	-0.131661	-0.008096
O11	O	1.472282	-0.584518	-0.574926
O12	O	1.972282	-0.084518	-0.074926
O13	O	1.341204	-0.687967	-0.310285
O14	O	1.841204	-0.187967	0.189715
O15	O	1.222473	-0.387223	-0.449718
O16	O	1.722473	0.112777	0.050282
O17	O	1.478590	-0.707711	-0.464464
O18	O	1.978590	-0.207711	0.035536
O19	O	1.326569	-0.402183	-0.566537
O20	O	1.826569	0.097817	-0.066537
O21	O	1.230799	-0.549815	-0.303929
O22	O	1.730799	-0.049815	0.196071
O23	O	1.076650	-0.548593	-0.441282
O24	O	1.576650	-0.048593	0.058718
O25	O	1.207645	-0.705565	-0.705889
O26	O	1.707645	-0.205565	-0.205889
O27	O	1.070259	-0.685821	-0.551710
O28	O	1.570259	-0.185821	-0.051710
O29	O	1.318133	-0.583297	-0.712280
O30	O	1.818133	-0.083297	-0.212280
O31	O	1.332768	-0.869081	-0.456028
O32	O	1.832768	-0.369081	0.043972
O33	O	1.215971	-0.868156	-0.560099
O34	O	1.715971	-0.368156	-0.060099
C35	C	1.040829	-0.614862	-0.494614
C36	C	1.540829	-0.114862	0.005386
C37	C	0.940886	-0.607702	-0.488867
C38	C	1.440886	-0.107702	0.011133
C39	C	0.746483	-0.737343	-0.592903
C40	C	1.246483	-0.237343	-0.092903
C41	C	0.652577	-0.730619	-0.587507
C42	C	1.152577	-0.230619	-0.087507
C43	C	0.659166	-0.587526	-0.472684
C44	C	1.159166	-0.087526	0.027316
C45	C	0.753072	-0.594249	-0.478080
C46	C	1.253072	-0.094249	0.021920
C47	C	0.796727	-0.669162	-0.538191
C48	C	1.296727	-0.169162	-0.038191
C49	C	0.890635	-0.675890	-0.543582
C50	C	1.390635	-0.175890	-0.043582
C51	C	0.897222	-0.532792	-0.428764
C52	C	1.397222	-0.032792	0.071236
C53	C	0.803316	-0.526068	-0.423368
C54	C	1.303316	-0.026068	0.076632
C55	C	1.274380	-0.907085	-0.508079
C56	C	1.774380	-0.407085	-0.008079
C57	C	1.274433	-1.024921	-0.508107
C58	C	1.774433	-0.524921	-0.008107
C59	C	1.201231	-1.191981	-0.573809
C60	C	1.701231	-0.691981	-0.073809
C61	C	1.200890	-1.069382	-0.573564
C62	C	1.700890	-0.569382	-0.073564
C63	C	1.254254	-1.061620	-0.411871
C64	C	1.754254	-0.561620	0.088129
C65	C	1.253808	-1.184216	-0.412269
C66	C	1.753808	-0.684216	0.087731
C67	C	1.368282	-1.200403	-0.537898
C68	C	1.868282	-0.700403	-0.037898
C69	C	1.367579	-1.077886	-0.539936
C70	C	1.867579	-0.577886	-0.039936
C71	C	1.508974	-0.648527	-0.521631
C72	C	2.008974	-0.148527	-0.021631
C73	C	1.608916	-0.655714	-0.527399
C74	C	2.108916	-0.155714	-0.027399
C75	C	1.260961	-0.646562	-0.742622
C76	C	1.760961	-0.146562	-0.242622
C77	C	1.255214	-0.652912	-0.842563
C78	C	1.755214	-0.152912	-0.342563
C79	C	1.274534	-0.355164	-0.508133
C80	C	1.774534	0.144836	-0.008133
C81	C	1.274571	-0.237338	-0.508149
C82	C	1.774571	0.262662	-0.008149
C83	C	1.359465	-0.537502	-1.037020
C84	C	1.859465	-0.037502	-0.537020
C85	C	1.354068	-0.543464	-1.130923
C86	C	1.854068	-0.043464	-0.630923
C87	C	1.239021	-0.670794	-1.124275
C88	C	1.739021	-0.170794	-0.624275
C89	C	1.244418	-0.664831	-1.030371
C90	C	1.744418	-0.164831	-0.530371
C91	C	1.304642	-0.598184	-0.986747
C92	C	1.804642	-0.098184	-0.486747
C93	C	1.310043	-0.592227	-0.892842
C94	C	1.810043	-0.092227	-0.392842
C95	C	1.194992	-0.719550	-0.886195
C96	C	1.694992	-0.219550	-0.386195
C97	C	1.189595	-0.725513	-0.980099
C98	C	1.689595	-0.225513	-0.480099
C99	C	1.287929	-0.616745	-0.274485
C100	C	1.787929	-0.116745	0.225515
C101	C	1.293850	-0.610109	-0.174555
C102	C	1.793850	-0.110109	0.325445
H103	H	0.782028	-0.798344	-0.641842
H104	H	1.282028	-0.298344	-0.141842
O105	O	1.407193	-0.484398	-1.179790
O106	O	1.907193	0.015602	-0.679790
C107	C	1.352896	-0.415721	-1.231178
C108	C	1.852896	0.084279	-0.731178
H109	H	1.283706	-0.402292	-1.198796
H110	H	1.783706	0.097708	-0.698796
H111	H	1.385376	-0.336542	-1.234125
H112	H	1.885376	0.163458	-0.734125
H113	H	1.345703	-0.452791	-1.302165
H114	H	1.845703	0.047209	-0.802165
O115	O	1.368635	-0.527641	-0.850426
O116	O	1.868635	-0.027641	-0.350426
C117	C	1.429806	-0.588705	-0.799432
C118	C	1.929806	-0.088705	-0.299432
H119	H	1.433721	-0.674392	-0.828041
H120	H	1.933721	-0.174392	-0.328041
H121	H	1.499072	-0.555258	-0.802360
H122	H	1.999072	-0.055258	-0.302360
H123	H	1.406092	-0.585842	-0.726661
H124	H	1.906092	-0.085842	-0.226661
O125	O	1.315130	-1.219839	-0.351652
O126	O	1.815130	-0.719839	0.148348
C127	C	1.315308	-1.331334	-0.351428
C128	C	1.815308	-0.831334	0.148572
H129	H	1.288024	-1.364274	-0.418201
H130	H	1.788024	-0.864274	0.081799
H131	H	1.386907	-1.365382	-0.341637
H132	H	1.886907	-0.865382	0.158363
H133	H	1.271141	-1.354505	-0.294266
H134	H	1.771141	-0.854505	0.205734
H135	H	0.926177	-0.736889	-0.592525
H136	H	1.426177	-0.236889	-0.092525
H137	H	1.422855	-1.229860	-0.490142
H138	H	1.922855	-0.729860	0.009858
H139	H	0.767759	-0.465075	-0.374431
H140	H	1.267759	0.034925	0.125569
O141	O	0.616842	-0.514808	-0.414194
O142	O	1.116842	-0.014808	0.085806
C143	C	0.644869	-0.533754	-0.325847
C144	C	1.144869	-0.033754	0.174153
H145	H	0.713163	-0.579248	-0.327812
H146	H	1.213163	-0.079248	0.172188
H147	H	0.650367	-0.454839	-0.285829
H148	H	1.150367	0.045161	0.214171
H149	H	0.593744	-0.582492	-0.292462
H150	H	1.093744	-0.082492	0.207538
H151	H	0.611672	-0.786137	-0.632061
H152	H	1.111672	-0.286137	-0.132061
H153	H	1.140561	-0.779773	-1.015631
H154	H	1.640561	-0.279773	-0.515631
H155	H	1.150354	-0.768965	-0.845253
H156	H	1.650354	-0.268965	-0.345253
O157	O	1.435572	-1.042323	-0.487450
O158	O	1.935572	-0.542323	0.012550
C159	C	1.400248	-0.968375	-0.420511
C160	C	1.900248	-0.468375	0.079489
H161	H	1.326389	-0.982338	-0.409084
H162	H	1.826389	-0.482338	0.090916
H163	H	1.439092	-0.978501	-0.355285
H164	H	1.939092	-0.478501	0.144715
H165	H	1.406700	-0.884491	-0.443034
H166	H	1.906700	-0.384491	0.056966
O167	O	1.180587	-0.735493	-1.166803
O168	O	1.680587	-0.235493	-0.666803
C169	C	1.187558	-0.727705	-1.260463
C170	C	1.687558	-0.227705	-0.760463
H171	H	1.256228	-0.698805	-1.277295
H172	H	1.756228	-0.198805	-0.777295
H173	H	1.179366	-0.808926	-1.295804
H174	H	1.679366	-0.308926	-0.795804
H175	H	1.132718	-0.669091	-1.284026
H176	H	1.632718	-0.169091	-0.784026
H177	H	0.938141	-0.477276	-0.384212
H178	H	1.438141	0.022724	0.115788
O179	O	1.417987	-0.472681	-0.994778
O180	O	1.917987	0.027319	-0.494778
C181	C	1.465240	-0.420424	-1.059289
C182	C	1.965240	0.079576	-0.559289
H183	H	1.424567	-0.418352	-1.124104
H184	H	1.924567	0.081648	-0.624104
H185	H	1.476420	-0.335870	-1.032718
H186	H	1.976420	0.164130	-0.532718
H187	H	1.532943	-0.464791	-1.073210
H188	H	2.032943	0.035209	-0.573210
O189	O	1.316215	-1.027125	-0.351518
O190	O	1.816215	-0.527125	0.148482
C191	C	1.296096	-1.061443	-0.265902
C192	C	1.796096	-0.561443	0.234098
H193	H	1.254015	-1.133889	-0.273658
H194	H	1.754015	-0.633889	0.226342
H195	H	1.361218	-1.083199	-0.229284
H196	H	1.861218	-0.583199	0.270716
H197	H	1.256787	-0.994993	-0.225534
H198	H	1.756787	-0.494993	0.274466
O199	O	1.215307	-1.040268	-0.658509
O200	O	1.715307	-0.540268	-0.158509
C201	C	1.299148	-1.084947	-0.689506
C202	C	1.799148	-0.584947	-0.189506
H203	H	1.318896	-1.157643	-0.650461
H204	H	1.818896	-0.657643	-0.150461
H205	H	1.294166	-1.109377	-0.764071
H206	H	1.794166	-0.609377	-0.264071
H207	H	1.352178	-1.023950	-0.679055
H208	H	1.852178	-0.523950	-0.179055
O209	O	1.215230	-1.233662	-0.659060
O210	O	1.715230	-0.733662	-0.159060
C211	C	1.148413	-1.191462	-0.716177
C212	C	1.648413	-0.691462	-0.216177
H213	H	1.119386	-1.112385	-0.685184
H214	H	1.619386	-0.612385	-0.185184
H215	H	1.179203	-1.178726	-0.784351
H216	H	1.679203	-0.678726	-0.284351
H217	H	1.092621	-1.249148	-0.725186
H218	H	1.592621	-0.749148	-0.225186
H219	H	1.131307	-1.034056	-0.553424
H220	H	1.631307	-0.534056	-0.053424
O221	O	1.118787	-1.221674	-0.549913
O222	O	1.618787	-0.721674	-0.049913
C223	C	1.127102	-1.283325	-0.474137
C224	C	1.627102	-0.783325	0.025863
H225	H	1.191394	-1.264601	-0.436354
H226	H	1.691394	-0.764601	0.063646
H227	H	1.066807	-1.264123	-0.428009
H228	H	1.566807	-0.764123	0.071991
H229	H	1.129827	-1.371101	-0.496771
H230	H	1.629827	-0.871101	0.003229
H231	H	1.185468	-1.206601	-0.387705
H232	H	1.685468	-0.706601	0.112295
H233	H	1.387759	-1.237265	-0.607169
H234	H	1.887759	-0.737265	-0.107169
O235	O	1.173534	-1.017749	-0.382273
O236	O	1.673534	-0.517749	0.117727
C237	C	1.105288	-1.050050	-0.441704
C238	C	1.605288	-0.550050	0.058296
H239	H	1.128703	-1.127191	-0.480102
H240	H	1.628703	-0.627191	0.019898
H241	H	1.042112	-1.063096	-0.401858
H242	H	1.542112	-0.563096	0.098142
H243	H	1.089862	-0.985986	-0.491209
H244	H	1.589862	-0.485986	0.008791
H245	H	1.382895	-1.054579	-0.610788
H246	H	1.882895	-0.554579	-0.110788
