data_functionalizedCrystal
_audit_creation_method	'MofGen! by Chris Wilmer'
_symmetry_space_group_name_H-M	'P1'
_symmetry_Int_Tables_number	1
_symmetry_cell_setting	triclinic
loop_
_symmetry_equiv_pos_as_xyz
  x,y,z
_cell_length_a	18.101398
_cell_length_b	18.101395
_cell_length_c	18.101398
_cell_angle_alpha	90.017121
_cell_angle_beta	89.998527
_cell_angle_gamma	90.026661
loop_
_atom_site_label
_atom_site_type_symbol
_atom_site_fract_x
_atom_site_fract_y
_atom_site_fract_z
Zn1	Zn	1.132039	-0.294993	0.418558
Zn2	Zn	1.131959	-0.418819	0.294720
Zn3	Zn	1.008222	-0.294987	0.294751
Zn4	Zn	1.008149	-0.418788	0.418540
O5	O	1.070092	-0.356897	0.356643
O6	O	1.235661	-0.311435	0.402126
O7	O	1.115542	-0.402403	0.191092
O8	O	1.024711	-0.191355	0.311195
O9	O	1.235603	-0.402410	0.311143
O10	O	1.115679	-0.191359	0.402156
O11	O	1.024633	-0.311424	0.191114
O12	O	0.904580	-0.311393	0.311177
O13	O	1.024586	-0.402356	0.522176
O14	O	0.904526	-0.402349	0.402125
O15	O	1.115607	-0.311404	0.522189
O16	O	1.115471	-0.522448	0.311125
O17	O	1.024508	-0.522425	0.402095
C18	C	0.877682	-0.356868	0.356653
C19	C	0.795368	-0.356873	0.356675
C20	C	1.069993	-0.549307	0.356621
C21	C	1.070018	-0.631621	0.356636
C22	C	0.496277	-0.356917	0.356644
C23	C	0.527593	-0.414420	0.413583
C24	C	0.613211	-0.414240	0.413817
C25	C	0.644659	-0.356896	0.356659
C26	C	0.613601	-0.278897	0.377985
C27	C	0.527955	-0.279242	0.378390
C28	C	0.527839	-0.376724	0.278242
C29	C	0.613489	-0.378435	0.278661
C30	C	0.728519	-0.356879	0.356667
C31	C	0.412417	-0.356928	0.356638
C32	C	1.070181	-0.930712	0.356676
C33	C	1.013082	-0.899403	0.414054
C34	C	1.012811	-0.813785	0.413875
C35	C	1.070100	-0.782330	0.356657
C36	C	1.048986	-0.813466	0.278611
C37	C	1.048618	-0.899111	0.278954
C38	C	1.148519	-0.899066	0.376657
C39	C	1.148058	-0.813415	0.378369
C40	C	1.070056	-0.698470	0.356641
C41	C	1.070223	-1.014572	0.356687
C42	C	1.263254	-0.356926	0.356633
C43	C	1.345568	-0.356939	0.356628
C44	C	1.070097	-0.356877	0.549805
C45	C	1.070099	-0.356869	0.632119
C46	C	1.070212	-0.163735	0.356681
C47	C	1.070263	-0.081421	0.356697
C48	C	1.070100	-0.356883	0.782827
C49	C	1.127365	-0.299661	0.814189
C50	C	1.127590	-0.299837	0.899807
C51	C	1.070101	-0.356895	0.931210
C52	C	1.090982	-0.435001	0.900098
C53	C	1.091397	-0.434662	0.814453
C54	C	0.991810	-0.336684	0.814396
C55	C	0.992230	-0.334970	0.900048
C56	C	1.070101	-0.356907	1.015069
C57	C	1.070103	-0.356876	0.698968
C58	C	1.070087	-0.356925	1.164232
C59	C	1.070102	-0.356909	1.081918
H60	H	0.506980	-0.472450	0.400367
H61	H	0.633702	-0.401136	0.471908
H62	H	1.192849	-0.791999	0.339623
H63	H	0.991354	-0.919146	0.262027
H64	H	0.507983	-0.262441	0.435705
H65	H	0.507241	-0.234863	0.338820
C66	C	0.498531	-0.396940	0.491608
H67	H	0.467398	-0.354748	0.489635
H68	H	0.471267	-0.437968	0.509718
H69	H	0.539006	-0.387304	0.523606
H70	H	1.191059	-0.919311	0.334867
H71	H	0.635054	-0.261792	0.434677
C72	C	1.109935	-0.221623	0.928235
H73	H	1.110031	-0.221630	0.980719
H74	H	1.146218	-0.188002	0.910686
H75	H	1.062639	-0.206991	0.910843
H76	H	1.088403	-0.919823	0.234746
H77	H	0.633796	-0.435831	0.262577
H78	H	0.506230	-0.432627	0.258861
C79	C	1.167436	-0.458489	0.929054
H80	H	1.179582	-0.505827	0.909919
H81	H	1.203481	-0.423594	0.913625
H82	H	1.166410	-0.460544	0.981486
C83	C	1.169572	-0.785932	0.455963
H84	H	1.216777	-0.804929	0.468786
H85	H	1.171209	-0.733479	0.456138
H86	H	1.134002	-0.802449	0.490843
C87	C	0.642401	-0.325960	0.218270
H88	H	0.673997	-0.290064	0.239932
H89	H	0.669143	-0.353498	0.182486
H90	H	0.601896	-0.301927	0.195144
C91	C	0.966059	-0.261041	0.785251
H92	H	1.002820	-0.241069	0.753554
H93	H	0.921250	-0.266918	0.758571
H94	H	0.958241	-0.228461	0.825654
C95	C	0.500468	-0.320156	0.220924
H96	H	0.469954	-0.284637	0.244618
H97	H	0.541649	-0.296046	0.199072
H98	H	0.472895	-0.344889	0.183729
H99	H	1.026019	-0.792733	0.471745
H100	H	1.026159	-0.919962	0.472112
H101	H	1.114484	-0.241567	0.793617
C102	C	1.205292	-0.317532	0.785125
H103	H	1.203080	-0.359715	0.753962
H104	H	1.223642	-0.276597	0.757891
H105	H	1.237228	-0.327325	0.825596
H106	H	0.976479	-0.277490	0.920385
C107	C	0.935115	-0.928545	0.396400
H108	H	0.937209	-0.959708	0.354212
H109	H	0.916911	-0.955795	0.437387
H110	H	0.903124	-0.888106	0.386694
C111	C	0.934373	-0.786181	0.395986
H112	H	0.902551	-0.827310	0.388794
H113	H	0.916575	-0.757038	0.435838
H114	H	0.935600	-0.757172	0.352275
H115	H	0.633973	-0.234892	0.337807
H116	H	1.148618	-0.451748	0.794474
H117	H	1.089267	-0.793091	0.234695
H118	H	1.185603	-0.313231	0.920295
H119	H	1.051470	-0.478750	0.793704
C120	C	1.036371	-0.494180	0.927574
H121	H	1.000266	-0.471726	0.958340
H122	H	1.012771	-0.516682	0.886444
H123	H	1.062386	-0.530637	0.954905
H124	H	0.947305	-0.373591	0.921422
C125	C	1.174528	-0.928184	0.452229
H126	H	1.137848	-0.959916	0.472304
H127	H	1.219332	-0.954821	0.446228
H128	H	1.182430	-0.887773	0.484787
C129	C	0.934171	-0.392975	0.786994
H130	H	0.886979	-0.380484	0.806257
H131	H	0.932451	-0.392139	0.734551
H132	H	0.947526	-0.441034	0.803281
C133	C	0.641581	-0.492378	0.395771
H134	H	0.600763	-0.524518	0.388233
H135	H	0.670840	-0.490754	0.352235
H136	H	0.670632	-0.510076	0.435724
C137	C	0.972443	-0.784580	0.255335
H138	H	0.953251	-0.753555	0.293069
H139	H	0.976882	-0.757239	0.210769
H140	H	0.939966	-0.825134	0.247824
