data_functionalizedCrystal
_audit_creation_method	'MofGen! by Chris Wilmer'
_symmetry_space_group_name_H-M	'P1'
_symmetry_Int_Tables_number	1
_symmetry_cell_setting	triclinic
loop_
_symmetry_equiv_pos_as_xyz
  x,y,z
_cell_length_a	14.519731
_cell_length_b	19.188930
_cell_length_c	17.666332
_cell_angle_alpha	90.023234
_cell_angle_beta	90.007449
_cell_angle_gamma	83.416816
loop_
_atom_site_label
_atom_site_type_symbol
_atom_site_fract_x
_atom_site_fract_y
_atom_site_fract_z
O1	O	0.115136	0.926566	0.063193
O2	O	0.615136	1.426566	0.563193
O3	O	0.130635	0.723311	0.063142
O4	O	0.630635	1.223311	0.563142
O5	O	-0.011385	0.830320	0.063162
O6	O	0.488615	1.330320	0.563162
O7	O	0.257156	0.819557	0.063173
O8	O	0.757156	1.319557	0.563173
O9	O	-0.011393	0.830301	-0.062735
O10	O	0.488607	1.330301	0.437265
O11	O	0.130627	0.723292	-0.062755
O12	O	0.630627	1.223292	0.437245
O13	O	0.115128	0.926547	-0.062703
O14	O	0.615128	1.426547	0.437297
Cu15	Cu	0.122877	0.824918	-0.074225
Cu16	Cu	0.622877	1.324918	0.425775
Cu17	Cu	0.122886	0.824940	0.074663
Cu18	Cu	0.622886	1.324940	0.574663
O19	O	0.257148	0.819539	-0.062724
O20	O	0.757148	1.319539	0.437276
C21	C	-0.045745	0.829806	0.000213
C22	C	0.454255	1.329806	0.500213
C23	C	-0.148116	0.828295	0.000213
C24	C	0.351884	1.328295	0.500213
C25	C	0.130129	0.697289	0.000187
C26	C	0.630129	1.197289	0.500187
C27	C	0.128623	0.619779	0.000167
C28	C	0.628623	1.119779	0.500167
C29	C	-0.231253	0.827067	0.000214
C30	C	0.268747	1.327067	0.500214
C31	C	-0.335552	0.825533	0.000219
C32	C	0.164448	1.325533	0.500219
C33	C	-0.418683	0.824315	0.000224
C34	C	0.081317	1.324315	0.500224
C35	C	-0.522989	0.822781	0.000228
C36	C	-0.022989	1.322781	0.500228
C37	C	0.211955	0.575156	0.000182
C38	C	0.711955	1.075156	0.500182
C39	C	0.210540	0.502327	0.000190
C40	C	0.710540	1.002327	0.500190
C41	C	0.125787	0.474124	0.000199
C42	C	0.625787	0.974124	0.500199
C43	C	0.042443	0.518756	0.000179
C44	C	0.542443	1.018756	0.500179
C45	C	0.043861	0.591584	0.000163
C46	C	0.543861	1.091584	0.500163
N47	N	0.061006	0.365916	0.043074
N48	N	0.561006	0.865916	0.543074
N49	N	0.059665	0.296733	0.043091
N50	N	0.559665	0.796733	0.543091
C51	C	0.121510	0.254700	0.000245
C52	C	0.621510	0.754700	0.500245
N53	N	0.184760	0.284463	-0.042610
N54	N	0.684760	0.784463	0.457390
N55	N	0.186104	0.353653	-0.042623
N56	N	0.686104	0.853653	0.457377
C57	C	0.124240	0.395156	0.000215
C58	C	0.624240	0.895156	0.500215
C59	C	0.203313	0.131108	0.000268
C60	C	0.703313	0.631108	0.500268
C61	C	0.201894	0.058278	0.000271
C62	C	0.701894	0.558278	0.500271
C63	C	0.033795	0.074708	0.000268
C64	C	0.533795	0.574708	0.500268
C65	C	0.035217	0.147537	0.000256
C66	C	0.535217	0.647537	0.500256
C67	C	0.119978	0.175732	0.000260
C68	C	0.619978	0.675732	0.500260
C69	C	0.291508	0.820052	0.000227
C70	C	0.791508	1.320052	0.500227
C71	C	0.393879	0.821563	0.000233
C72	C	0.893879	1.321563	0.500233
C73	C	0.115634	0.952570	0.000253
C74	C	0.615634	1.452570	0.500253
C75	C	0.117141	1.030080	0.000278
C76	C	0.617141	1.530080	0.500278
N77	N	0.122870	0.824908	-0.178944
N78	N	0.622870	1.324908	0.321056
C79	C	0.060015	0.872307	-0.218545
C80	C	0.560015	1.372307	0.281455
C81	C	0.060010	0.872311	-0.297792
C82	C	0.560010	1.372311	0.202208
C83	C	0.122877	0.824922	-0.337436
C84	C	0.622877	1.324922	0.162564
C85	C	0.185738	0.777514	-0.297826
C86	C	0.685738	1.277514	0.202174
C87	C	0.185734	0.777507	-0.218580
C88	C	0.685734	1.277507	0.281420
N89	N	0.204515	0.816141	-0.461853
N90	N	0.704515	1.316141	0.038147
N91	N	0.204515	0.816153	-0.537133
N92	N	0.704515	1.316153	-0.037133
C93	C	0.122890	0.824941	-0.576200
C94	C	0.622890	1.324941	-0.076200
N95	N	0.041262	0.833731	-0.537143
N96	N	0.541262	1.333731	-0.037143
N97	N	0.041263	0.833723	-0.461855
N98	N	0.541263	1.333723	0.038145
C99	C	0.122888	0.824925	-0.423365
C100	C	0.622888	1.324925	0.076635
C101	C	0.060024	0.872347	-0.701730
C102	C	0.560024	1.372347	-0.201730
C103	C	0.060019	0.872346	-0.780979
C104	C	0.560019	1.372346	-0.280979
C105	C	0.185755	0.777553	-0.781011
C106	C	0.685755	1.277553	-0.281011
C107	C	0.185752	0.777551	-0.701764
C108	C	0.685752	1.277551	-0.201764
C109	C	0.122888	0.824951	-0.662128
C110	C	0.622888	1.324951	-0.162128
N111	N	0.122885	0.824956	0.179382
N112	N	0.622885	1.324956	0.679382
H113	H	0.280975	0.598108	0.000187
H114	H	0.780975	1.098108	0.500187
F115	F	0.252657	0.727115	-0.823199
F116	F	0.752657	1.227115	-0.323199
F117	F	0.290594	0.010787	0.000284
F118	F	0.790594	0.510787	0.500284
F119	F	-0.006893	0.922751	-0.176363
F120	F	0.493107	1.422751	0.323637
F121	F	-0.053479	0.195029	0.000244
F122	F	0.446521	0.695029	0.500244
H123	H	0.272331	0.154065	0.000260
H124	H	0.772331	0.654065	0.500260
H125	H	-0.035212	0.051746	0.000321
H126	H	0.464788	0.551746	0.500321
F127	F	0.252656	0.727105	-0.659614
F128	F	0.752656	1.227105	-0.159614
H129	H	0.008823	0.910910	-0.330041
H130	H	0.508823	1.410910	0.169959
H131	H	0.008834	0.910941	-0.669457
H132	H	0.508834	1.410941	-0.169457
H133	H	0.236924	0.738929	-0.330108
H134	H	0.736924	1.238929	0.169892
H135	H	0.236920	0.738908	-0.186336
H136	H	0.736920	1.238908	0.313664
H137	H	0.278401	0.465989	0.000201
H138	H	0.778401	0.965989	0.500201
F139	F	-0.047757	0.488740	0.000184
F140	F	0.452243	0.988740	0.500184
F141	F	-0.044837	0.639076	0.000147
F142	F	0.455163	1.139076	0.500147
H143	H	0.008829	0.910942	-0.813223
H144	H	0.508829	1.410942	-0.313223
