data_functionalizedCrystal
_audit_creation_method	'MofGen! by Chris Wilmer'
_symmetry_space_group_name_H-M	'P1'
_symmetry_Int_Tables_number	1
_symmetry_cell_setting	triclinic
loop_
_symmetry_equiv_pos_as_xyz
  x,y,z
_cell_length_a	10.654554
_cell_length_b	15.538191
_cell_length_c	9.730223
_cell_angle_alpha	90.002740
_cell_angle_beta	89.999030
_cell_angle_gamma	65.879468
loop_
_atom_site_label
_atom_site_type_symbol
_atom_site_fract_x
_atom_site_fract_y
_atom_site_fract_z
O1	O	1.606156	0.131932	-0.114299
O2	O	1.234805	0.144495	-0.114295
O3	O	1.492767	0.001557	-0.114304
O4	O	1.348194	0.274870	-0.114289
O5	O	1.492763	0.001561	0.114276
O6	O	1.234801	0.144499	0.114285
O7	O	1.606152	0.131935	0.114281
Zn8	Zn	1.420476	0.138218	0.150575
Zn9	Zn	1.420481	0.138213	-0.150589
O10	O	1.348190	0.274873	0.114291
C11	C	1.188437	0.143574	-0.000004
C12	C	1.050285	0.140811	-0.000004
C13	C	1.507891	-0.033437	-0.000019
C14	C	1.552947	-0.137716	-0.000033
C15	C	0.909494	0.051456	-0.000026
C16	C	1.039303	0.054052	-0.000012
C17	C	0.931449	0.224981	0.000005
C18	C	0.801643	0.222385	0.000000
C19	C	0.971764	-0.047228	-0.000042
C20	C	1.101573	-0.044633	-0.000028
C21	C	1.105329	-0.428437	0.000001
C22	C	1.147697	-0.526425	0.000004
C23	C	1.386010	-0.547308	0.000001
C24	C	1.343661	-0.449320	-0.000008
C25	C	1.203319	-0.389891	-0.000007
C26	C	1.441651	-0.410774	-0.000017
C27	C	1.399306	-0.312794	-0.000019
C28	C	1.258970	-0.253359	-0.000013
C29	C	1.160974	-0.291911	-0.000009
C30	C	1.581993	-0.470204	-0.000009
C31	C	1.679983	-0.431658	-0.000017
C32	C	1.637638	-0.333677	-0.000029
C33	C	1.497302	-0.274242	-0.000023
C34	C	1.735634	-0.295125	-0.000033
C35	C	1.693289	-0.197145	-0.000035
C36	C	1.454957	-0.176262	-0.000025
C37	C	1.652520	0.132857	-0.000012
C38	C	1.790671	0.135620	-0.000022
C39	C	1.333066	0.309868	0.000002
C40	C	1.288010	0.414147	0.000007
N41	N	1.420482	0.138220	0.356112
N42	N	1.420488	0.138203	-0.356125
C43	C	1.534719	0.074949	0.428034
C44	C	1.534721	0.074938	0.571916
C45	C	1.306240	0.201477	0.571943
C46	C	1.306236	0.201483	0.428063
C47	C	1.666633	0.001895	0.428019
C48	C	1.666635	0.001884	0.571902
H49	H	0.704897	0.290919	0.000020
H50	H	1.794250	-0.480058	-0.000013
Cl51	Cl	0.945255	0.334051	0.000031
H52	H	1.213208	0.252995	0.369505
Cl53	Cl	1.685627	-0.109555	0.367706
Cl54	Cl	0.939427	-0.095744	-0.152423
H55	H	1.668013	-0.066335	0.616514
H56	H	1.213224	0.252983	0.630541
H57	H	1.224495	-0.173578	-0.000007
Cl58	Cl	1.816477	-0.148683	-0.000019
Cl59	Cl	1.562433	-0.622026	0.000009
H60	H	1.067891	-0.557804	0.000031
Cl61	Cl	1.193563	-0.090666	0.152350
Cl62	Cl	1.804027	0.026722	0.632205
H63	H	1.160711	-0.081813	-0.095692
Cl64	Cl	0.954272	-0.106812	0.147634
H65	H	1.616466	-0.549985	-0.000019
H66	H	1.340676	-0.127871	-0.000033
Cl67	Cl	1.790887	0.037225	0.359109
H68	H	1.046693	-0.243520	-0.000017
H69	H	0.991049	-0.380046	-0.000007
H70	H	1.849900	-0.343526	-0.000021
