data_functionalizedCrystal
_audit_creation_method	'MofGen! by Chris Wilmer'
_symmetry_space_group_name_H-M	'P1'
_symmetry_Int_Tables_number	1
_symmetry_cell_setting	triclinic
loop_
_symmetry_equiv_pos_as_xyz
  x,y,z
_cell_length_a	14.519709
_cell_length_b	11.792241
_cell_length_c	10.268362
_cell_angle_alpha	89.994572
_cell_angle_beta	90.001032
_cell_angle_gamma	83.936780
loop_
_atom_site_label
_atom_site_type_symbol
_atom_site_fract_x
_atom_site_fract_y
_atom_site_fract_z
O1	O	1.224412	0.148781	-0.108131
O2	O	1.557745	0.482114	0.225202
O3	O	1.891079	0.815448	0.558536
O4	O	0.955999	0.166302	-0.108171
O5	O	1.289333	0.499635	0.225162
O6	O	1.622666	0.832969	0.558496
O7	O	1.096719	-0.007665	-0.108141
O8	O	1.430053	0.325668	0.225192
O9	O	1.763386	0.659002	0.558526
O10	O	1.083692	0.322748	-0.108161
O11	O	1.417025	0.656082	0.225172
O12	O	1.750359	0.989415	0.558506
O13	O	1.096707	-0.007672	0.108460
O14	O	1.430040	0.325661	0.441793
O15	O	1.763374	0.658994	0.775126
O16	O	0.955987	0.166295	0.108430
O17	O	1.289320	0.499628	0.441763
O18	O	1.622654	0.832961	0.775096
O19	O	1.224400	0.148774	0.108470
O20	O	1.557733	0.482107	0.441803
O21	O	1.891066	0.815441	0.775136
Cu22	Cu	1.090192	0.157534	0.128227
Cu23	Cu	1.423526	0.490867	0.461560
Cu24	Cu	1.756859	0.824200	0.794894
Cu25	Cu	1.090207	0.157542	-0.127928
Cu26	Cu	1.423540	0.490876	0.205405
Cu27	Cu	1.756873	0.824209	0.538738
O28	O	1.083680	0.322741	0.108440
O29	O	1.417013	0.656074	0.441773
O30	O	1.750346	0.989408	0.775106
C31	C	1.095895	-0.049955	0.000159
C32	C	1.429228	0.283378	0.333492
C33	C	1.762562	0.616712	0.666826
C34	C	1.093446	-0.175955	0.000157
C35	C	1.426779	0.157378	0.333491
C36	C	1.760112	0.490711	0.666824
C37	C	0.921630	0.165482	0.000124
C38	C	1.254964	0.498815	0.333458
C39	C	1.588297	0.832148	0.666791
C40	C	0.819240	0.163035	0.000109
C41	C	1.152573	0.496368	0.333443
C42	C	1.485907	0.829702	0.666776
C43	C	1.088942	-0.406642	0.000135
C44	C	1.422275	-0.073309	0.333468
C45	C	1.755608	0.260024	0.666801
C46	C	1.091444	-0.278271	0.000147
C47	C	1.424777	0.055062	0.333480
C48	C	1.758111	0.388396	0.666814
C49	C	0.444311	0.154027	0.000169
C50	C	0.777645	0.487360	0.333502
C51	C	1.110978	0.820694	0.666836
C52	C	0.548628	0.156528	0.000152
C53	C	0.881962	0.489862	0.333485
C54	C	1.215295	0.823195	0.666819
C55	C	0.631772	0.158531	0.000138
C56	C	0.965106	0.491864	0.333471
C57	C	1.298439	0.825197	0.666805
C58	C	0.736096	0.161033	0.000123
C59	C	1.069429	0.494366	0.333457
C60	C	1.402763	0.827699	0.666790
C61	C	1.258769	0.149594	0.000171
C62	C	1.592102	0.482927	0.333505
C63	C	1.925435	0.816261	0.666838
C64	C	1.361159	0.152041	0.000178
C65	C	1.694492	0.485374	0.333511
C66	C	2.027826	0.818708	0.666845
C67	C	1.084504	0.365031	0.000137
C68	C	1.417838	0.698364	0.333470
C69	C	1.751171	1.031698	0.666804
C70	C	1.086954	0.491031	0.000130
C71	C	1.420287	0.824364	0.333463
C72	C	1.753620	1.157698	0.666797
N73	N	1.090189	0.157527	0.308393
N74	N	1.423522	0.490860	0.641726
N75	N	1.756855	0.824194	0.975060
N76	N	1.090218	0.157540	-0.308094
N77	N	1.423551	0.490873	0.025239
N78	N	1.756884	0.824207	0.358572
C79	C	1.090202	0.157540	0.574063
C80	C	1.423535	0.490873	0.907397
C81	C	1.756869	0.824207	1.240730
C82	C	1.090192	0.157536	0.426226
C83	C	1.423525	0.490869	0.759559
C84	C	1.756858	0.824203	1.092892
