data_functionalizedCrystal
_audit_creation_method	'MofGen! by Chris Wilmer'
_symmetry_space_group_name_H-M	'P1'
_symmetry_Int_Tables_number	1
_symmetry_cell_setting	triclinic
loop_
_symmetry_equiv_pos_as_xyz
  x,y,z
_cell_length_a	16.120490
_cell_length_b	12.645330
_cell_length_c	16.120297
_cell_angle_alpha	87.125115
_cell_angle_beta	89.870317
_cell_angle_gamma	87.105131
loop_
_atom_site_label
_atom_site_type_symbol
_atom_site_fract_x
_atom_site_fract_y
_atom_site_fract_z
Zn1	Zn	1.247526	-0.537168	0.534551
Zn2	Zn	1.580859	-0.203835	0.867885
Zn3	Zn	1.914193	0.129498	1.201218
Zn4	Zn	1.254502	-0.705931	0.395499
Zn5	Zn	1.587835	-0.372598	0.728832
Zn6	Zn	1.921168	-0.039265	1.062165
Zn7	Zn	1.115513	-0.519245	0.388472
Zn8	Zn	1.448846	-0.185912	0.721805
Zn9	Zn	1.782180	0.147421	1.055139
Zn10	Zn	1.108457	-0.704945	0.527472
Zn11	Zn	1.441791	-0.371612	0.860805
Zn12	Zn	1.775124	-0.038278	1.194138
O13	O	1.181500	-0.616823	0.461498
O14	O	1.514833	-0.283489	0.794832
O15	O	1.848166	0.049844	1.128165
O16	O	1.364820	-0.567469	0.522009
O17	O	1.698153	-0.234136	0.855343
O18	O	2.031486	0.099198	1.188676
O19	O	1.241937	-0.674079	0.278201
O20	O	1.575270	-0.340746	0.611534
O21	O	1.908604	-0.007412	0.944868
O22	O	1.133058	-0.373279	0.407872
O23	O	1.466392	-0.039946	0.741205
O24	O	1.799725	0.293387	1.074538
O25	O	1.369944	-0.691458	0.419848
O26	O	1.703278	-0.358125	0.753181
O27	O	2.036611	-0.024791	1.086515
O28	O	1.230048	-0.386447	0.515196
O29	O	1.563381	-0.053114	0.848529
O30	O	1.896715	0.280219	1.181862
O31	O	1.139822	-0.536922	0.273038
O32	O	1.473156	-0.203588	0.606372
O33	O	1.806489	0.129745	0.939705
O34	O	0.998209	-0.535965	0.401007
O35	O	1.331542	-0.202632	0.734340
O36	O	1.664876	0.130701	1.067674
O37	O	1.121033	-0.689777	0.644777
O38	O	1.454366	-0.356444	0.978110
O39	O	1.787699	-0.023110	1.311443
O40	O	0.993025	-0.672398	0.503129
O41	O	1.326359	-0.339064	0.836463
O42	O	1.659692	-0.005731	1.169796
O43	O	1.223206	-0.566512	0.649978
O44	O	1.556539	-0.233179	0.983311
O45	O	1.889873	0.100154	1.316645
O46	O	1.235095	-0.854144	0.412983
O47	O	1.568428	-0.520811	0.746316
O48	O	1.901762	-0.187477	1.079650
O49	O	1.127797	-0.853419	0.509943
O50	O	1.461130	-0.520086	0.843276
O51	O	1.794463	-0.186753	1.176610
C52	C	0.965444	-0.602130	0.450538
C53	C	1.298777	-0.268797	0.783871
C54	C	1.632111	0.064536	1.117205
C55	C	0.873014	-0.595872	0.445869
C56	C	1.206347	-0.262538	0.779202
C57	C	1.539680	0.070795	1.112535
C58	C	0.660060	-0.649279	0.485720
C59	C	0.993393	-0.315946	0.819053
C60	C	1.326726	0.017388	1.152387
C61	C	0.703787	-0.584455	0.437343
C62	C	1.037121	-0.251121	0.770676
C63	C	1.370454	0.082212	1.104009
C64	C	0.797954	-0.590809	0.442088
C65	C	1.131287	-0.257476	0.775421
C66	C	1.464620	0.075858	1.108755
C67	C	0.565885	-0.642926	0.480976
C68	C	0.899218	-0.309593	0.814309
C69	C	1.232551	0.023741	1.147642
C70	C	1.181459	-0.892248	0.461477
C71	C	1.514792	-0.558915	0.794810
C72	C	1.848126	-0.225582	1.128143
C73	C	1.181516	-1.010083	0.461499
C74	C	1.514850	-0.676750	0.794832
C75	C	1.848183	-0.343417	1.128166
C76	C	1.248921	-1.178044	0.400366
C77	C	1.582254	-0.844711	0.733699
C78	C	1.915588	-0.511377	1.067033
C79	C	1.249122	-1.055508	0.400534
C80	C	1.582455	-0.722174	0.733867
C81	C	1.915789	-0.388841	1.067201
C82	C	1.200837	-1.061450	0.550355
C83	C	1.534170	-0.728117	0.883688
C84	C	1.867503	-0.394783	1.217022
C85	C	1.201363	-1.184062	0.550039
C86	C	1.534696	-0.850728	0.883373
C87	C	1.868029	-0.517395	1.216706
C88	C	1.094722	-1.170067	0.434638
C89	C	1.428055	-0.836734	0.767972
C90	C	1.761389	-0.503400	1.101305
C91	C	1.095243	-1.047371	0.432694
C92	C	1.428576	-0.714038	0.766027
C93	C	1.761910	-0.380704	1.099361
C94	C	1.398399	-0.631573	0.472502
C95	C	1.731732	-0.298239	0.805836
C96	C	2.065065	0.035094	1.139169
C97	C	1.490828	-0.637859	0.477191
C98	C	1.824161	-0.304525	0.810525
C99	C	2.157495	0.028808	1.143858
C100	C	1.170554	-0.630034	0.678393
C101	C	1.503888	-0.296701	1.011727
C102	C	1.837221	0.036633	1.345060
C103	C	1.165890	-0.635664	0.770821
C104	C	1.499223	-0.302331	1.104154
C105	C	1.832557	0.031003	1.437488
C106	C	1.181562	-0.340324	0.461540
C107	C	1.514895	-0.006991	0.794873
C108	C	1.848229	0.326343	1.128206
C109	C	1.181589	-0.222497	0.461557
C110	C	1.514922	0.110837	0.794891
C111	C	1.848255	0.444170	1.128224
C112	C	1.192450	-0.603589	0.245450
C113	C	1.525783	-0.270256	0.578783
C114	C	1.859117	0.063078	0.912116
C115	C	1.197275	-0.597672	0.153031
C116	C	1.530609	-0.264338	0.486364
C117	C	1.863942	0.068995	0.819697
C118	C	1.157344	-0.645917	0.940046
C119	C	1.490677	-0.312584	1.273379
C120	C	1.824010	0.020750	1.606713
C121	C	1.205819	-0.587421	0.983811
C122	C	1.539152	-0.254088	1.317144
C123	C	1.872486	0.079245	1.650477
C124	C	1.201064	-0.593126	1.077974
C125	C	1.534397	-0.259793	1.411307
C126	C	1.867731	0.073540	1.744640
C127	C	1.162098	-0.640214	0.845875
C128	C	1.495431	-0.306880	1.179208
C129	C	1.828765	0.026453	1.512541
H130	H	1.237549	-1.020513	0.334788
H131	H	1.570882	-0.687179	0.668121
H132	H	1.904216	-0.353846	1.001455
H133	H	1.154226	-1.213743	0.597443
H134	H	1.487560	-0.880409	0.930777
H135	H	1.820893	-0.547076	1.264110
O136	O	0.659698	-0.504632	0.377752
O137	O	0.993031	-0.171298	0.711085
O138	O	1.326365	0.162035	1.044419
H139	H	0.675578	-0.423427	0.392941
H140	H	1.008911	-0.090094	0.726275
H141	H	1.342245	0.243239	1.059608
H142	H	0.693342	-0.709545	0.530697
H143	H	1.026676	-0.376211	0.864030
H144	H	1.360009	-0.042878	1.197363
O145	O	1.097643	-0.717925	0.984085
O146	O	1.430976	-0.384591	1.317418
O147	O	1.764310	-0.051258	1.650751
H148	H	1.112706	-0.801108	0.968194
H149	H	1.446039	-0.467774	1.301527
H150	H	1.779372	-0.134441	1.634861
H151	H	1.153095	-1.032253	0.597360
H152	H	1.486429	-0.698919	0.930693
H153	H	1.819762	-0.365586	1.264026
H154	H	1.313009	-1.214077	0.418340
H155	H	1.646343	-0.880743	0.751673
H156	H	1.979676	-0.547410	1.085006
O157	O	1.234348	-1.211461	0.313189
O158	O	1.567681	-0.878128	0.646522
O159	O	1.901014	-0.544795	0.979856
H160	H	1.178895	-1.259993	0.312518
H161	H	1.512228	-0.926660	0.645851
H162	H	1.845562	-0.593327	0.979184
H163	H	1.313551	-1.031436	0.418692
H164	H	1.646885	-0.698103	0.752025
H165	H	1.980218	-0.364769	1.085359
H166	H	1.080595	-1.013205	0.367282
H167	H	1.413928	-0.679872	0.700615
H168	H	1.747262	-0.346538	1.033948
H169	H	1.264726	-1.218108	0.572324
H170	H	1.598059	-0.884775	0.905657
H171	H	1.931392	-0.551441	1.238990
H172	H	1.250891	-0.533056	0.950561
H173	H	1.584224	-0.199723	1.283894
H174	H	1.917557	0.133611	1.617227
O175	O	1.283789	-1.027980	0.580250
O176	O	1.617122	-0.694647	0.913583
O177	O	1.950456	-0.361314	1.246916
H178	H	1.311384	-0.974793	0.531975
H179	H	1.644717	-0.641459	0.865309
H180	H	1.978050	-0.308126	1.198642
H181	H	1.076295	-1.195761	0.370741
H182	H	1.409628	-0.862427	0.704074
H183	H	1.742962	-0.529094	1.037408
O184	O	1.025674	-1.005826	0.486919
O185	O	1.359007	-0.672492	0.820252
O186	O	1.692341	-0.339159	1.153586
H187	H	1.051619	-0.957745	0.535468
H188	H	1.384952	-0.624412	0.868801
H189	H	1.718285	-0.291078	1.202135
H190	H	1.044609	-1.198709	0.479152
H191	H	1.377942	-0.865376	0.812486
H192	H	1.711275	-0.532043	1.145819
