data_functionalizedCrystal
_audit_creation_method	'MofGen! by Chris Wilmer'
_symmetry_space_group_name_H-M	'P1'
_symmetry_Int_Tables_number	1
_symmetry_cell_setting	triclinic
loop_
_symmetry_equiv_pos_as_xyz
  x,y,z
_cell_length_a	10.489711
_cell_length_b	10.489716
_cell_length_c	18.366186
_cell_angle_alpha	89.997846
_cell_angle_beta	89.989433
_cell_angle_gamma	84.528072
loop_
_atom_site_label
_atom_site_type_symbol
_atom_site_fract_x
_atom_site_fract_y
_atom_site_fract_z
O1	O	1.694068	0.179791	-0.060569
O2	O	2.194068	0.679791	0.439431
O3	O	1.322866	0.196724	-0.060564
O4	O	1.822866	0.696724	0.439436
O5	O	1.516930	0.002657	-0.060569
O6	O	2.016930	0.502657	0.439431
O7	O	1.500004	0.373858	-0.060564
O8	O	2.000004	0.873858	0.439436
O9	O	1.516897	0.002647	0.060530
O10	O	2.016897	0.502647	0.560530
O11	O	1.322833	0.196714	0.060536
O12	O	1.822833	0.696714	0.560536
O13	O	1.694035	0.179781	0.060531
O14	O	2.194035	0.679781	0.560531
Zn15	Zn	1.508428	0.188246	0.079760
Zn16	Zn	2.008428	0.688246	0.579760
Zn17	Zn	1.508472	0.188259	-0.079793
Zn18	Zn	2.008472	0.688259	0.420207
O19	O	1.499971	0.373848	0.060536
O20	O	1.999971	0.873848	0.560536
C21	C	1.275317	0.195448	-0.000014
C22	C	1.775317	0.695448	0.499986
C23	C	1.133686	0.191646	-0.000012
C24	C	1.633686	0.691646	0.499988
C25	C	0.951289	0.308352	-0.000019
C26	C	1.451289	0.808352	0.499981
C27	C	1.043457	0.250060	-0.059727
C28	C	1.543457	0.750060	0.440273
C29	C	1.043397	0.250019	0.059668
C30	C	1.543397	0.750019	0.559668
C31	C	0.973516	0.126516	-0.059785
C32	C	1.473516	0.626516	0.440215
C33	C	0.973447	0.126492	0.059663
C34	C	1.473447	0.626492	0.559663
C35	C	1.065587	0.068111	-0.000060
C36	C	1.565587	0.568111	0.499940
C37	C	1.515642	-0.044880	-0.000022
C38	C	2.015642	0.455120	0.499978
C39	C	1.511837	-0.186511	-0.000028
C40	C	2.011837	0.313489	0.499972
C41	C	1.630843	-0.284198	-0.000023
C42	C	2.130843	0.215802	0.499977
C43	C	1.567974	-0.361547	-0.059729
C44	C	2.067974	0.138453	0.440271
C45	C	1.567913	-0.361520	0.059666
C46	C	2.067913	0.138480	0.559666
C47	C	1.449017	-0.261995	-0.059783
C48	C	1.949017	0.238005	0.440217
C49	C	1.448975	-0.261963	0.059665
C50	C	1.948975	0.238037	0.559665
C51	C	1.386018	-0.339263	-0.000055
C52	C	1.886018	0.160737	0.499945
C53	C	1.741584	0.181057	-0.000021
C54	C	2.241584	0.681057	0.499979
C55	C	1.883215	0.184859	-0.000028
C56	C	2.383215	0.684859	0.499972
C57	C	1.501259	0.421385	-0.000013
C58	C	2.001259	0.921385	0.499987
C59	C	1.505064	0.563016	-0.000012
C60	C	2.005064	1.063016	0.499988
N61	N	1.508408	0.188236	0.188651
N62	N	2.008408	0.688236	0.688651
N63	N	1.508503	0.188259	-0.188685
N64	N	2.008503	0.688259	0.311315
C65	C	1.594368	0.102346	0.226749
C66	C	2.094368	0.602346	0.726749
C67	C	1.594376	0.102341	0.302977
C68	C	2.094376	0.602341	0.802977
C69	C	1.508436	0.188247	0.341104
C70	C	2.008436	0.688247	0.841104
C71	C	1.422460	0.274143	0.302997
C72	C	1.922460	0.774143	0.802997
C73	C	1.422445	0.274138	0.226770
C74	C	1.922445	0.774138	0.726770
C75	C	1.492780	0.304270	0.461866
C76	C	1.992780	0.804270	0.961866
C77	C	1.492804	0.304278	0.538091
C78	C	1.992804	0.804278	1.038091
C79	C	1.508473	0.188263	0.576212
C80	C	2.008473	0.688263	1.076212
C81	C	1.524145	0.072237	0.538098
C82	C	2.024145	0.572237	1.038098
C83	C	1.524131	0.072232	0.461871
C84	C	2.024131	0.572232	0.961871
C85	C	1.508441	0.188262	0.423759
C86	C	2.008441	0.688262	0.923759
C87	C	1.594446	0.102360	0.696965
C88	C	2.094446	0.602360	1.196965
C89	C	1.594445	0.102353	0.773194
C90	C	2.094445	0.602353	1.273194
C91	C	1.422535	0.274167	0.773212
C92	C	1.922535	0.774167	1.273212
C93	C	1.422530	0.274163	0.696984
C94	C	1.922530	0.774163	1.196984
C95	C	1.508492	0.188261	0.658865
C96	C	2.008492	0.688261	1.158865
H97	H	1.074334	0.302289	0.110147
H98	H	1.574334	0.802289	0.610147
Cl99	Cl	1.790658	-0.246109	-0.000116
Cl100	Cl	2.290658	0.253891	0.499884
Cl101	Cl	0.874551	0.465059	-0.000105
Cl102	Cl	1.374551	0.965059	0.499895
H103	H	1.352484	0.344088	0.334043
H104	H	1.852484	0.844088	0.834043
Cl105	Cl	0.925989	0.045910	-0.137808
Cl106	Cl	1.425989	0.545910	0.362192
H107	H	1.398767	-0.218444	0.110146
H108	H	1.898767	0.281556	0.610146
Cl109	Cl	0.925529	0.045878	0.137601
Cl110	Cl	1.425529	0.545878	0.637601
H111	H	1.352445	0.344081	0.195750
H112	H	1.852445	0.844081	0.695750
H113	H	1.618162	-0.405002	0.110141
H114	H	2.118162	0.094998	0.610141
H115	H	1.282425	-0.363682	-0.000086
H116	H	1.782425	0.136318	0.499914
Cl117	Cl	1.645555	-0.428707	-0.137664
Cl118	Cl	2.145555	0.071293	0.362336
Cl119	Cl	1.314487	0.382154	0.821137
Cl120	Cl	1.814487	0.882154	1.321137
Cl121	Cl	1.702426	-0.005649	0.178829
Cl122	Cl	2.202426	0.494351	0.678829
Cl123	Cl	1.091310	0.330736	-0.137663
Cl124	Cl	1.591310	0.830736	0.362337
H125	H	1.480050	0.398753	0.569118
H126	H	1.980050	0.898753	1.069118
H127	H	1.664377	0.032396	0.334002
H128	H	2.164377	0.532396	0.834002
Cl129	Cl	1.543819	-0.073622	0.413959
Cl130	Cl	2.043819	0.426378	0.913959
H131	H	1.479999	0.398749	0.430835
H132	H	1.979999	0.898749	0.930835
Cl133	Cl	1.371524	-0.195131	-0.137804
Cl134	Cl	1.871524	0.304869	0.362196
H135	H	1.536904	-0.022233	0.569134
H136	H	2.036904	0.477767	1.069134
H137	H	1.115053	-0.033485	-0.000091
H138	H	1.615053	0.466515	0.499909
Cl139	Cl	1.314467	0.382151	0.649085
Cl140	Cl	1.814467	0.882151	1.149085
H141	H	1.664438	0.032410	0.665927
H142	H	2.164438	0.532410	1.165927
H143	H	1.664441	0.032404	0.804214
H144	H	2.164441	0.532404	1.304214
