data_functionalizedCrystal
_audit_creation_method	'MofGen! by Chris Wilmer'
_symmetry_space_group_name_H-M	'P1'
_symmetry_Int_Tables_number	1
_symmetry_cell_setting	triclinic
loop_
_symmetry_equiv_pos_as_xyz
  x,y,z
_cell_length_a	16.109301
_cell_length_b	11.792254
_cell_length_c	14.586319
_cell_angle_alpha	89.996031
_cell_angle_beta	89.998857
_cell_angle_gamma	83.830091
loop_
_atom_site_label
_atom_site_type_symbol
_atom_site_fract_x
_atom_site_fract_y
_atom_site_fract_z
O1	O	1.103822	0.145886	-0.076190
O2	O	0.861846	0.164041	-0.076203
O3	O	0.988701	-0.010258	-0.076190
O4	O	0.976968	0.320184	-0.076204
O5	O	0.988692	-0.010260	0.076291
O6	O	0.861837	0.164038	0.076278
O7	O	1.103813	0.145883	0.076290
Cu8	Cu	0.982824	0.154960	0.090207
Cu9	Cu	0.982835	0.154963	-0.090120
O10	O	0.976959	0.320182	0.076277
C11	C	0.830863	0.163304	0.000036
C12	C	0.738558	0.161099	0.000031
C13	C	0.430015	0.257316	0.000043
C14	C	0.516746	0.259399	0.000037
C15	C	0.535639	0.052599	0.000034
C16	C	0.448910	0.050518	0.000032
C17	C	0.396100	0.152880	0.000042
C18	C	0.569559	0.157044	0.000037
C19	C	0.663596	0.159300	0.000032
C20	C	0.302058	0.150623	0.000046
C21	C	0.987957	-0.052543	0.000050
C22	C	0.985745	-0.178537	0.000049
C23	C	0.983947	-0.280858	0.000046
C24	C	0.981700	-0.409225	0.000037
C25	C	1.134796	0.146620	0.000050
C26	C	1.227102	0.148825	0.000048
C27	C	0.977702	0.362467	0.000035
C28	C	0.979915	0.488461	0.000030
N29	N	0.982823	0.154957	0.217038
N30	N	0.982843	0.154957	-0.216951
C31	C	1.039013	0.077804	0.452051
C32	C	1.039016	0.077801	0.548032
C33	C	0.926647	0.232114	0.548030
C34	C	0.926641	0.232111	0.452050
C35	C	0.982829	0.154957	0.404063
C36	C	0.982837	0.154958	0.596024
C37	C	0.982839	0.154955	0.700091
C38	C	0.982826	0.154958	0.299989
H39	H	0.578647	-0.030740	0.000028
H40	H	0.880901	0.294933	0.587110
O41	O	0.412321	-0.062128	0.000041
H42	H	0.463611	-0.132958	0.000052
O43	O	0.373061	0.367721	0.000045
H44	H	0.333101	0.371721	0.062199
O45	O	0.553322	0.372044	0.000054
H46	H	0.532138	0.421245	-0.062085
H47	H	1.084764	0.014979	0.412982
O48	O	1.099624	-0.005399	0.599794
H49	H	1.138698	-0.059036	0.550297
O50	O	0.866043	0.315333	0.400281
H51	H	0.826982	0.368996	0.449772
