data_functionalizedCrystal
_audit_creation_method	'MofGen! by Chris Wilmer'
_symmetry_space_group_name_H-M	'P1'
_symmetry_Int_Tables_number	1
_symmetry_cell_setting	triclinic
loop_
_symmetry_equiv_pos_as_xyz
  x,y,z
_cell_length_a	16.109301
_cell_length_b	9.016244
_cell_length_c	16.109304
_cell_angle_alpha	89.999429
_cell_angle_beta	83.462059
_cell_angle_gamma	90.004619
loop_
_atom_site_label
_atom_site_type_symbol
_atom_site_fract_x
_atom_site_fract_y
_atom_site_fract_z
O1	O	1.103137	0.123237	0.106864
O2	O	0.861075	0.123260	0.120163
O3	O	0.988754	0.123249	-0.007518
O4	O	0.975457	0.123248	0.234544
O5	O	0.988736	-0.123432	-0.007515
O6	O	0.861056	-0.123421	0.120166
O7	O	1.103118	-0.123444	0.106866
Cu8	Cu	0.982085	-0.145956	0.113516
Cu9	Cu	0.982108	0.145772	0.113513
O10	O	0.975439	-0.123433	0.234547
C11	C	0.830091	-0.000078	0.119626
C12	C	0.737795	-0.000069	0.118010
N13	N	0.982076	-0.351142	0.113518
C14	C	0.515524	-0.000086	0.190018
C15	C	0.428803	-0.000096	0.188494
C16	C	0.448676	-0.000089	0.037005
C17	C	0.535395	-0.000090	0.038530
C18	C	0.568816	-0.000081	0.115039
C19	C	0.395377	-0.000090	0.111990
C20	C	0.301351	-0.000100	0.110337
C21	C	0.662848	-0.000074	0.116693
C22	C	0.913570	-0.586169	0.181594
C23	C	0.913718	-0.414278	0.181845
C24	C	1.068823	-0.413489	0.132444
C25	C	1.068448	-0.585434	0.132925
C26	C	0.964700	-0.585684	0.026289
C27	C	0.962700	-0.413729	0.026874
C28	C	1.134102	-0.000103	0.107404
C29	C	1.226398	-0.000102	0.109019
C30	C	0.988206	-0.000088	-0.038491
C31	C	0.986590	-0.000078	-0.130786
N32	N	0.982124	0.350958	0.113504
C33	C	0.982866	0.134382	-0.343125
C34	C	0.981340	0.134381	-0.429845
C35	C	0.981324	-0.134564	-0.429839
C36	C	0.982844	-0.134561	-0.343120
C37	C	0.983620	-0.000084	-0.299766
C38	C	0.980573	-0.000088	-0.473205
C39	C	0.978919	-0.000090	-0.567231
C40	C	0.985273	-0.000081	-0.205734
C41	C	0.975987	-0.000092	0.265520
C42	C	0.977603	-0.000093	0.357816
H43	H	0.542732	-0.000090	0.252316
H44	H	0.924541	-0.629364	0.245951
O45	O	1.086882	-0.633089	0.208799
C46	C	1.187250	-0.634440	0.308867
C47	C	1.166472	-0.580358	0.222928
H48	H	1.251605	-0.591856	0.320310
H49	H	1.138394	-0.590747	0.359751
H50	H	1.187152	-0.760861	0.310136
H51	H	1.166581	-0.453946	0.221578
H52	H	1.215331	-0.624163	0.172082
O53	O	0.983543	-0.265057	-0.300862
C54	C	0.985925	-0.384232	-0.167265
C55	C	0.985120	-0.236350	-0.215017
H56	H	0.987218	-0.361074	-0.097854
H57	H	0.927460	-0.450564	-0.176625
H58	H	1.043757	-0.450548	-0.191984
H59	H	0.927327	-0.169914	-0.190329
H60	H	1.043624	-0.170131	-0.205659
O61	O	0.980433	-0.265225	-0.471901
C62	C	0.908003	-0.495132	-0.488964
C63	C	0.908895	-0.347196	-0.441278
H64	H	0.850180	-0.561462	-0.464211
H65	H	0.906737	-0.472123	-0.558396
H66	H	0.966475	-0.561379	-0.479548
H67	H	0.850435	-0.280875	-0.450625
H68	H	0.910205	-0.370310	-0.371863
O69	O	0.377154	-0.000030	0.261406
C70	C	0.366600	-0.000117	0.411822
C71	C	0.425188	-0.000154	0.329309
H72	H	0.405412	-0.000249	0.466743
H73	H	0.325522	0.103140	0.414953
H74	H	0.325485	-0.103331	0.414852
H75	H	0.466356	0.102990	0.326224
H76	H	0.466209	-0.103479	0.326212
O77	O	1.131180	-0.634809	0.075992
C78	C	1.245029	-0.568757	-0.027610
C79	C	1.174035	-0.512647	0.036853
H80	H	1.279686	-0.470018	-0.059285
H81	H	1.290335	-0.638734	0.005284
H82	H	1.217582	-0.639076	-0.076597
H83	H	1.201408	-0.442268	0.085856
H84	H	1.128739	-0.442750	0.003900
O85	O	1.131218	-0.364633	0.074974
C86	C	1.260151	-0.227771	0.050241
C87	C	1.189555	-0.283041	0.115415
H88	H	1.307325	-0.161767	0.082910
H89	H	1.292670	-0.326781	0.016650
H90	H	1.232682	-0.153760	0.002898
H91	H	1.216955	-0.357026	0.162810
H92	H	1.157044	-0.183963	0.148942
H93	H	1.014692	-0.626340	-0.024381
H94	H	0.983495	0.243883	-0.307828
O95	O	0.836365	-0.635297	0.168319
C96	C	0.697291	-0.568970	0.140506
C97	C	0.784696	-0.513122	0.155514
H98	H	0.655486	-0.470220	0.130167
H99	H	0.702678	-0.643533	0.082990
H100	H	0.668985	-0.634515	0.197317
H101	H	0.813052	-0.447514	0.098752
H102	H	0.779254	-0.438636	0.213062
O103	O	0.416167	0.000178	-0.037290
C104	C	0.329759	0.127947	-0.126903
C105	C	0.366532	0.127840	-0.042742
H106	H	0.289606	0.231134	-0.131331
H107	H	0.382713	0.128043	-0.180266
H108	H	0.289684	0.024668	-0.131393
H109	H	0.406597	0.231101	-0.038170
H110	H	0.313538	0.127666	0.010580
O111	O	0.587051	-0.000018	-0.034386
C112	C	0.597618	-0.000103	-0.184803
C113	C	0.539024	-0.000142	-0.102294
H114	H	0.558812	-0.000234	-0.239728
H115	H	0.638705	0.103155	-0.187932
H116	H	0.638724	-0.103316	-0.187827
H117	H	0.497865	0.103001	-0.099215
H118	H	0.497993	-0.103468	-0.099199
O119	O	0.836784	-0.363827	0.168548
C120	C	0.716256	-0.220418	0.222176
C121	C	0.803395	-0.277399	0.237312
H122	H	0.689228	-0.150555	0.277769
H123	H	0.721670	-0.149824	0.163093
H124	H	0.673333	-0.318794	0.214480
H125	H	0.846365	-0.179113	0.245047
H126	H	0.797916	-0.348038	0.296378
H127	H	1.084543	-0.370413	0.195325
H128	H	0.902824	-0.629126	0.008083
O129	O	0.886631	-0.364876	0.009707
C130	C	0.800341	-0.153432	-0.012388
C131	C	0.886534	-0.208567	0.007031
H132	H	0.800229	-0.027051	-0.014541
H133	H	0.786675	-0.199181	-0.075394
H134	H	0.750285	-0.193261	0.038459
H135	H	0.936645	-0.168758	-0.043762
H136	H	0.900129	-0.162830	0.070062
H137	H	0.924838	-0.373133	0.246568
O138	O	1.018406	-0.362729	-0.036467
C139	C	1.123964	-0.425547	-0.149184
C140	C	1.060890	-0.483502	-0.077493
H141	H	1.158342	-0.523161	-0.182362
H142	H	1.089378	-0.361190	-0.195544
H143	H	1.170912	-0.349360	-0.122677
H144	H	1.013926	-0.559748	-0.103925
H145	H	1.095533	-0.547775	-0.031144
H146	H	0.980725	0.243877	-0.465145
