data_functionalizedCrystal
_audit_creation_method	'MofGen! by Chris Wilmer'
_symmetry_space_group_name_H-M	'P1'
_symmetry_Int_Tables_number	1
_symmetry_cell_setting	triclinic
loop_
_symmetry_equiv_pos_as_xyz
  x,y,z
_cell_length_a	16.992695
_cell_length_b	14.971506
_cell_length_c	14.048226
_cell_angle_alpha	89.993237
_cell_angle_beta	89.999985
_cell_angle_gamma	92.854695
loop_
_atom_site_label
_atom_site_type_symbol
_atom_site_fract_x
_atom_site_fract_y
_atom_site_fract_z
O1	O	-0.102266	1.194121	-0.079154
O2	O	0.397734	1.694121	0.420846
O3	O	-0.114487	0.934582	-0.079153
O4	O	0.385513	1.434582	0.420847
O5	O	0.005768	1.063311	-0.079162
O6	O	0.505768	1.563311	0.420838
O7	O	-0.222520	1.065392	-0.079145
O8	O	0.277480	1.565392	0.420855
O9	O	0.005775	1.063294	0.079159
O10	O	0.505775	1.563294	0.579159
O11	O	-0.114479	0.934565	0.079168
O12	O	0.385521	1.434565	0.579168
O13	O	-0.102259	1.194104	0.079167
O14	O	0.397741	1.694104	0.579167
Zn15	Zn	-0.108368	1.064332	0.104305
Zn16	Zn	0.391632	1.564332	0.604305
Zn17	Zn	-0.108377	1.064354	-0.104291
Zn18	Zn	0.391623	1.564354	0.395709
O19	O	-0.222513	1.065375	0.079176
O20	O	0.277487	1.565375	0.579176
C21	C	-0.113934	0.901211	0.000007
C22	C	0.386066	1.401211	0.500007
C23	C	-0.112287	0.801799	0.000007
C24	C	0.387713	1.301799	0.500007
C25	C	-0.176652	0.368038	0.000002
C26	C	0.323348	0.868038	0.500002
C27	C	-0.178192	0.461447	-0.000002
C28	C	0.321808	0.961447	0.499998
C29	C	-0.107538	0.513703	-0.000003
C30	C	0.392462	1.013703	0.499997
C31	C	-0.035339	0.472545	-0.000009
C32	C	0.464661	0.972545	0.499991
C33	C	-0.033799	0.379139	-0.000012
C34	C	0.466201	0.879139	0.499988
C35	C	-0.038554	0.667234	-0.000001
C36	C	0.461446	1.167234	0.499999
C37	C	-0.040093	0.760648	0.000003
C38	C	0.459907	1.260648	0.500003
C39	C	-0.182947	0.749543	0.000009
C40	C	0.317053	1.249543	0.500009
C41	C	-0.181407	0.656136	0.000006
C42	C	0.318593	1.156136	0.500006
C43	C	-0.109207	0.614985	0.000002
C44	C	0.390793	1.114985	0.500002
C45	C	-0.251731	1.068060	0.000017
C46	C	0.248269	1.568060	0.500017
C47	C	-0.338784	1.076047	0.000023
C48	C	0.161216	1.576047	0.500023
C49	C	-0.388947	0.998983	0.000023
C50	C	0.111053	1.498983	0.500023
C51	C	-0.470741	1.006493	0.000011
C52	C	0.029259	1.506493	0.500011
C53	C	-0.502370	1.091068	0.000006
C54	C	-0.002370	1.591068	0.500006
C55	C	-0.452201	1.168138	0.000004
C56	C	0.047799	1.668138	0.500004
C57	C	-0.370408	1.160627	0.000009
C58	C	0.129592	1.660627	0.500009
C59	C	-0.745999	1.122198	-0.000015
C60	C	-0.245999	1.622198	0.499985
C61	C	-0.827798	1.129703	-0.000018
C62	C	-0.327798	1.629703	0.499982
C63	C	-0.846333	0.968057	-0.000012
C64	C	-0.346333	1.468057	0.499988
C65	C	-0.764538	0.960554	-0.000001
C66	C	-0.264538	1.460554	0.499999
C67	C	-0.714376	1.037624	-0.000009
C68	C	-0.214376	1.537624	0.499991
N69	N	-0.585977	1.098747	-0.000003
N70	N	-0.085977	1.598747	0.499997
N71	N	-0.630771	1.029944	-0.000006
N72	N	-0.130771	1.529944	0.499994
C73	C	0.034986	1.060626	-0.000005
C74	C	0.534986	1.560626	0.499995
C75	C	0.122039	1.052639	-0.000018
C76	C	0.622039	1.552639	0.499982
C77	C	-0.102811	1.227476	0.000004
C78	C	0.397189	1.727476	0.500004
C79	C	-0.104458	1.326887	-0.000002
C80	C	0.395542	1.826887	0.499998
N81	N	-0.108361	1.064323	0.246665
N82	N	0.391639	1.564323	0.746665
N83	N	-0.108378	1.064370	-0.246651
N84	N	0.391622	1.564370	0.253349
C85	C	-0.055134	1.121345	0.296479
C86	C	0.444866	1.621345	0.796479
C87	C	-0.055134	1.121351	0.396137
C88	C	0.444866	1.621351	0.896137
C89	C	-0.108364	1.064339	0.445979
C90	C	0.391636	1.564339	0.945979
C91	C	-0.161594	1.007311	0.396158
C92	C	0.338406	1.507311	0.896158
C93	C	-0.161590	1.007301	0.296502
C94	C	0.338410	1.507301	0.796502
C95	C	-0.161599	1.007337	0.603872
C96	C	0.338401	1.507337	1.103872
C97	C	-0.161604	1.007348	0.703535
C98	C	0.338396	1.507348	1.203535
C99	C	-0.055144	1.121387	0.703507
C100	C	0.444856	1.621387	1.203507
C101	C	-0.055140	1.121377	0.603851
C102	C	0.444860	1.621377	1.103851
C103	C	-0.108370	1.064350	0.554037
C104	C	0.391630	1.564350	1.054037
H105	H	0.017439	0.803192	-0.000005
H106	H	0.517439	1.303192	0.499995
H107	H	-0.738792	0.891684	-0.000008
H108	H	-0.238792	1.391684	0.499992
H109	H	-0.511581	0.943739	0.000008
H110	H	-0.011581	1.443739	0.500008
H111	H	-0.011799	1.167805	0.563270
H112	H	0.488201	1.667805	1.063270
H113	H	0.024988	0.345635	-0.000017
H114	H	0.524988	0.845635	0.499983
H115	H	-0.011793	1.167782	0.436695
H116	H	0.488207	1.667782	0.936695
Br117	Br	0.059432	0.611387	-0.000003
Br118	Br	0.559432	1.111387	0.499997
H119	H	-0.705166	1.184954	-0.000016
H120	H	-0.205166	1.684954	0.499984
H121	H	-0.204931	0.960867	0.255944
H122	H	0.295069	1.460867	0.755944
Br123	Br	0.017093	1.198784	0.771115
Br124	Br	0.517093	1.698784	1.271115
Br125	Br	0.017106	1.198730	0.228847
Br126	Br	0.517106	1.698730	0.728847
Br127	Br	-0.272545	0.297129	0.000015
Br128	Br	0.227455	0.797129	0.500015
H129	H	-0.853547	1.198577	-0.000021
H130	H	-0.353547	1.698577	0.499979
H131	H	-0.363201	0.930114	0.000039
H132	H	0.136799	1.430114	0.500039
H133	H	-0.204949	0.960922	0.744111
H134	H	0.295051	1.460922	1.244111
H135	H	-0.204943	0.960896	0.563316
H136	H	0.295057	1.460896	1.063316
H137	H	-0.887184	0.905312	-0.000006
H138	H	-0.387184	1.405312	0.499994
H139	H	-0.238940	0.613591	0.000013
H140	H	0.261060	1.113591	0.500013
H141	H	0.022188	0.515100	-0.000016
H142	H	0.522188	1.015100	0.499984
Br143	Br	-0.495125	1.282920	-0.000014
Br144	Br	0.004875	1.782920	0.499986
Br145	Br	-0.233831	0.929928	0.463796
Br146	Br	0.266169	1.429928	0.963796
H147	H	-0.236980	0.494947	-0.000008
H148	H	0.263020	0.994947	0.499992
H149	H	-0.329565	1.223381	0.000005
H150	H	0.170435	1.723381	0.500005
Br151	Br	-0.280932	0.805388	0.000031
Br152	Br	0.219068	1.305388	0.500031
