data_functionalizedCrystal
_audit_creation_method	'MofGen! by Chris Wilmer'
_symmetry_space_group_name_H-M	'P1'
_symmetry_Int_Tables_number	1
_symmetry_cell_setting	triclinic
loop_
_symmetry_equiv_pos_as_xyz
  x,y,z
_cell_length_a	14.853567
_cell_length_b	14.421503
_cell_length_c	14.853567
_cell_angle_alpha	90.005344
_cell_angle_beta	96.365070
_cell_angle_gamma	89.989953
loop_
_atom_site_label
_atom_site_type_symbol
_atom_site_fract_x
_atom_site_fract_y
_atom_site_fract_z
O1	O	1.196350	0.077040	-0.117698
O2	O	0.933891	0.077055	-0.131719
O3	O	1.072131	0.077050	0.006522
O4	O	1.058110	0.077045	-0.255938
O5	O	1.072148	-0.077174	0.006513
O6	O	0.933908	-0.077169	-0.131728
O7	O	1.196367	-0.077184	-0.117707
Cu8	Cu	1.065139	-0.091258	-0.124718
Cu9	Cu	1.065119	0.091129	-0.124707
O10	O	1.058127	-0.077179	-0.255947
C11	C	0.900311	-0.000055	-0.131088
C12	C	0.800227	-0.000049	-0.129184
N13	N	1.065160	-0.219539	-0.124725
C14	C	0.387693	-0.000068	-0.039019
C15	C	0.366412	-0.000070	-0.203251
C16	C	0.460446	-0.000067	-0.205042
C17	C	0.518108	-0.000063	-0.123819
C18	C	0.481736	-0.000062	-0.040806
C19	C	0.496825	-0.000059	-0.288053
C20	C	0.590864	-0.000055	-0.289846
C21	C	0.648528	-0.000058	-0.208623
C22	C	0.612150	-0.000058	-0.125607
C23	C	0.669812	-0.000054	-0.044384
C24	C	0.633437	-0.000060	0.038633
C25	C	0.539399	-0.000065	0.040417
C26	C	0.742565	-0.000053	-0.210407
C27	C	0.763855	-0.000048	-0.046172
C28	C	1.129096	-0.469170	-0.060789
C29	C	1.047611	-0.530962	-0.043178
C30	C	1.065139	-0.408701	-0.124714
C31	C	1.146604	-0.531003	-0.142272
C32	C	1.065127	-0.591422	-0.124701
C33	C	0.983614	-0.469132	-0.107063
C34	C	1.082661	-0.469167	-0.206193
C35	C	1.001118	-0.530931	-0.188616
C36	C	1.065148	-0.303440	-0.124719
C37	C	1.065110	-0.696681	-0.124697
C38	C	1.229947	-0.000072	-0.118337
C39	C	1.330031	-0.000072	-0.120241
C40	C	1.071504	-0.000059	0.040106
C41	C	1.069601	-0.000051	0.140189
N42	N	1.065106	0.219410	-0.124693
C43	C	1.058754	-0.000068	-0.289531
C44	C	1.060657	-0.000070	-0.389615
C45	C	0.979435	-0.000064	0.552723
C46	C	1.143668	-0.000073	0.574004
C47	C	1.145458	-0.000068	0.479971
C48	C	1.064235	-0.000062	0.422309
C49	C	0.981223	-0.000061	0.458680
C50	C	1.228469	-0.000078	0.443591
C51	C	1.230262	-0.000073	0.349552
C52	C	1.149039	-0.000061	0.291889
C53	C	1.066023	-0.000059	0.328266
C54	C	0.984800	-0.000053	0.270604
C55	C	0.901783	-0.000045	0.306979
C56	C	0.899999	-0.000049	0.401017
C57	C	1.150823	-0.000057	0.197851
C58	C	0.986588	-0.000051	0.176561
H59	H	0.810798	-0.000048	0.019971
H60	H	1.218414	-0.000070	0.168238
Cl61	Cl	0.917518	-0.572538	-0.272079
H62	H	0.449870	-0.000052	-0.354180
Cl63	Cl	1.334624	-0.000068	0.303832
H64	H	0.680397	-0.000051	0.104764
H65	H	1.097518	-0.442002	-0.275081
Cl66	Cl	0.293923	-0.000062	-0.305354
H67	H	0.509774	-0.000093	0.108005
H68	H	0.914699	-0.442069	-0.092128
H69	H	1.032780	-0.558107	0.025732
H70	H	0.620472	-0.000049	-0.357443
Cl71	Cl	0.341967	-0.000081	0.065340
Cl72	Cl	1.330570	-0.000105	0.516083
H73	H	0.772178	-0.000049	-0.277998
Cl74	Cl	1.212512	-0.427297	0.022718
H75	H	0.920445	-0.000042	0.129618
H76	H	1.215503	-0.558180	-0.157129
H77	H	0.835652	-0.000047	0.260019
Cl78	Cl	0.795645	-0.000036	0.446752
H79	H	0.911844	-0.000053	0.582344
H80	H	1.209795	-0.000085	0.620958
