data_functionalizedCrystal
_audit_creation_method	'MofGen! by Chris Wilmer'
_symmetry_space_group_name_H-M	'P1'
_symmetry_Int_Tables_number	1
_symmetry_cell_setting	triclinic
loop_
_symmetry_equiv_pos_as_xyz
  x,y,z
_cell_length_a	19.805407
_cell_length_b	19.805405
_cell_length_c	19.805399
_cell_angle_alpha	89.970699
_cell_angle_beta	89.982197
_cell_angle_gamma	90.023727
loop_
_atom_site_label
_atom_site_type_symbol
_atom_site_fract_x
_atom_site_fract_y
_atom_site_fract_z
Zn1	Zn	1.034736	-0.269527	-0.382680
Zn2	Zn	1.368069	0.063806	-0.049346
Zn3	Zn	1.701402	0.397139	0.283987
Zn4	Zn	1.034650	-0.382716	-0.269488
Zn5	Zn	1.367984	-0.049382	0.063845
Zn6	Zn	1.701317	0.283951	0.397179
Zn7	Zn	0.921550	-0.269541	-0.269508
Zn8	Zn	1.254884	0.063793	0.063826
Zn9	Zn	1.588217	0.397126	0.397159
Zn10	Zn	0.921514	-0.382674	-0.382638
Zn11	Zn	1.254847	-0.049341	-0.049305
Zn12	Zn	1.588180	0.283992	0.284029
O13	O	0.978113	-0.326115	-0.326078
O14	O	1.311446	0.007219	0.007255
O15	O	1.644779	0.340552	0.340588
O16	O	1.129441	-0.284554	-0.367674
O17	O	1.462774	0.048780	-0.034340
O18	O	1.796108	0.382113	0.298993
O19	O	1.019627	-0.367726	-0.174774
O20	O	1.352960	-0.034392	0.158559
O21	O	1.686294	0.298941	0.491893
O22	O	0.936615	-0.174822	-0.284546
O23	O	1.269949	0.158511	0.048788
O24	O	1.603282	0.491844	0.382121
O25	O	1.129378	-0.367713	-0.284512
O26	O	1.462712	-0.034379	0.048821
O27	O	1.796045	0.298954	0.382155
O28	O	1.019772	-0.174813	-0.367693
O29	O	1.353106	0.158521	-0.034359
O30	O	1.686439	0.491854	0.298974
O31	O	0.936533	-0.284576	-0.174788
O32	O	1.269866	0.048757	0.158545
O33	O	1.603200	0.382090	0.491878
O34	O	0.826829	-0.284536	-0.284506
O35	O	1.160162	0.048797	0.048828
O36	O	1.493496	0.382130	0.382161
O37	O	0.936553	-0.367642	-0.477360
O38	O	1.269887	-0.034309	-0.144027
O39	O	1.603220	0.299024	0.189306
O40	O	0.826802	-0.367655	-0.367622
O41	O	1.160135	-0.034322	-0.034289
O42	O	1.493469	0.299011	0.299045
O43	O	1.019737	-0.284514	-0.477391
O44	O	1.353070	0.048820	-0.144057
O45	O	1.686404	0.382153	0.189276
O46	O	1.019592	-0.477427	-0.284472
O47	O	1.352925	-0.144093	0.048861
O48	O	1.686258	0.189240	0.382195
O49	O	0.936471	-0.477397	-0.367603
O50	O	1.269804	-0.144063	-0.034270
O51	O	1.603137	0.189270	0.299064
C52	C	0.802257	-0.326093	-0.326062
C53	C	1.135590	0.007240	0.007271
C54	C	1.468923	0.340573	0.340605
C55	C	0.727025	-0.326101	-0.326071
C56	C	1.060358	0.007233	0.007262
C57	C	1.393691	0.340566	0.340596
C58	C	0.691714	-0.282876	-0.369439
C59	C	1.025047	0.050457	-0.036106
C60	C	1.358380	0.383790	0.297228
C61	C	0.621025	-0.282880	-0.369442
C62	C	0.954359	0.050454	-0.036108
C63	C	1.287692	0.383787	0.297225
C64	C	0.585649	-0.326112	-0.326079
C65	C	0.918982	0.007222	0.007254
C66	C	1.252316	0.340555	0.340588
C67	C	0.620965	-0.369338	-0.282706
C68	C	0.954298	-0.036005	0.050627
C69	C	1.287632	0.297329	0.383960
C70	C	0.691652	-0.369330	-0.282701
C71	C	1.024985	-0.035997	0.050633
C72	C	1.358319	0.297336	0.383966
C73	C	0.335892	-0.369368	-0.282727
C74	C	0.669225	-0.036035	0.050606
C75	C	1.002558	0.297298	0.383940
C76	C	0.265199	-0.369374	-0.282737
C77	C	0.598533	-0.036040	0.050596
C78	C	0.931866	0.297293	0.383929
C79	C	0.265265	-0.282918	-0.369468
C80	C	0.598598	0.050416	-0.036134
C81	C	0.931931	0.383749	0.297199
C82	C	0.335952	-0.282910	-0.369462
C83	C	0.669285	0.050423	-0.036129
C84	C	1.002619	0.383756	0.297204
C85	C	0.371262	-0.326134	-0.326087
C86	C	0.704595	0.007200	0.007246
C87	C	1.037928	0.340533	0.340579
C88	C	0.447910	-0.326128	-0.326084
C89	C	0.781243	0.007205	0.007249
C90	C	1.114577	0.340538	0.340583
C91	C	0.509002	-0.326121	-0.326085
C92	C	0.842335	0.007213	0.007248
C93	C	1.175669	0.340546	0.340581
C94	C	0.978036	-0.501971	-0.326046
C95	C	1.311370	-0.168637	0.007288
C96	C	1.644703	0.164696	0.340621
C97	C	0.978066	-0.577203	-0.326054
C98	C	1.311399	-0.243869	0.007279
C99	C	1.644732	0.089464	0.340612
C100	C	1.021389	-0.612540	-0.282813
C101	C	1.354722	-0.279207	0.050520
C102	C	1.688056	0.054127	0.383853
C103	C	1.021418	-0.683228	-0.282828
C104	C	1.354751	-0.349895	0.050505
C105	C	1.688084	-0.016562	0.383838
C106	C	0.978119	-0.718578	-0.326081
C107	C	1.311453	-0.385245	0.007252
C108	C	1.644786	-0.051911	0.340585
C109	C	0.934794	-0.683236	-0.369327
C110	C	1.268128	-0.349902	-0.035994
C111	C	1.601461	-0.016569	0.297340
C112	C	0.934769	-0.612549	-0.369315
C113	C	1.268103	-0.279215	-0.035982
C114	C	1.601436	0.054118	0.297352
C115	C	0.934894	-0.968309	-0.369377
C116	C	1.268227	-0.634976	-0.036044
C117	C	1.601561	-0.301642	0.297290
C118	C	0.934921	-1.039001	-0.369384
C119	C	1.268254	-0.705668	-0.036051
C120	C	1.601587	-0.372334	0.297282
C121	C	1.021542	-1.038989	-0.282890
C122	C	1.354876	-0.705656	0.050443
C123	C	1.688209	-0.372322	0.383776
C124	C	1.021517	-0.968302	-0.282878
C125	C	1.354851	-0.634968	0.050455
C126	C	1.688184	-0.301635	0.383788
C127	C	0.978195	-0.932965	-0.326126
C128	C	1.311529	-0.599632	0.007207
C129	C	1.644862	-0.266299	0.340540
C130	C	0.978165	-0.856317	-0.326110
C131	C	1.311499	-0.522984	0.007223
C132	C	1.644832	-0.189650	0.340556
C133	C	0.978145	-0.795225	-0.326094
C134	C	1.311478	-0.461892	0.007239
C135	C	1.644812	-0.128559	0.340573
C136	C	1.154655	-0.326136	-0.326095
C137	C	1.487989	0.007197	0.007238
C138	C	1.821322	0.340530	0.340571
C139	C	1.229887	-0.326146	-0.326102
C140	C	1.563221	0.007188	0.007231
C141	C	1.896554	0.340521	0.340564
C142	C	0.978151	-0.326072	-0.502621
C143	C	1.311484	0.007261	-0.169288
C144	C	1.644817	0.340595	0.164046
C145	C	0.978167	-0.326054	-0.577853
C146	C	1.311500	0.007280	-0.244520
C147	C	1.644833	0.340613	0.088814
C148	C	0.978207	-0.149572	-0.326126
C149	C	1.311541	0.183762	0.007207
C150	C	1.644874	0.517095	0.340541
C151	C	0.978248	-0.074340	-0.326146
C152	C	1.311581	0.258994	0.007187
C153	C	1.644915	0.592327	0.340520
C154	C	1.021481	-0.282767	-0.613214
C155	C	1.354815	0.050567	-0.279881
C156	C	1.688148	0.383900	0.053452
C157	C	1.021488	-0.282747	-0.683903
C158	C	1.354822	0.050586	-0.350569
C159	C	1.688155	0.383920	-0.017236
C160	C	0.978184	-0.326018	-0.719229
C161	C	1.311517	0.007315	-0.385895
C162	C	1.644850	0.340648	-0.052562
C163	C	0.934864	-0.369308	-0.683863
C164	C	1.268197	-0.035974	-0.350529
C165	C	1.601531	0.297359	-0.017196
C166	C	0.934854	-0.369323	-0.613176
C167	C	1.268188	-0.035990	-0.279842
C168	C	1.601521	0.297343	0.053491
C169	C	0.934902	-0.369244	-0.968936
C170	C	1.268236	-0.035911	-0.635603
C171	C	1.601569	0.297422	-0.302270
C172	C	0.934917	-0.369227	-1.039628
C173	C	1.268250	-0.035894	-0.706295
C174	C	1.601584	0.297440	-0.372962
C175	C	1.021536	-0.282668	-1.039663
C176	C	1.354870	0.050665	-0.706330
C177	C	1.688203	0.383999	-0.372997
C178	C	1.021527	-0.282684	-0.968976
C179	C	1.354860	0.050650	-0.635643
C180	C	1.688193	0.383983	-0.302309
C181	C	0.978205	-0.325970	-0.933616
C182	C	1.311538	0.007363	-0.600283
C183	C	1.644872	0.340697	-0.266950
C184	C	0.978197	-0.325990	-0.856968
C185	C	1.311530	0.007343	-0.523634
C186	C	1.644864	0.340677	-0.190301
C187	C	0.978194	-0.326002	-0.795876
C188	C	1.311528	0.007331	-0.462543
C189	C	1.644861	0.340664	-0.129209
C190	C	0.978114	-0.326108	-0.150222
C191	C	1.311447	0.007225	0.183111
C192	C	1.644780	0.340558	0.516444
C193	C	0.978229	-0.325936	-0.074991
C194	C	1.311562	0.007398	0.258343
C195	C	1.644895	0.340731	0.591676
H196	H	0.592278	-0.247684	-0.404757
H197	H	0.925611	0.085650	-0.071424
H198	H	1.258945	0.418983	0.261909
H199	H	0.899602	-0.404538	-0.712631
H200	H	1.232935	-0.071204	-0.379298
H201	H	1.566269	0.262129	-0.045964
F202	F	1.067470	-0.574925	-0.236772
F203	F	1.400803	-0.241591	0.096561
F204	F	1.734136	0.091742	0.429894
H205	H	0.236507	-0.247721	-0.404783
H206	H	0.569840	0.085613	-0.071450
H207	H	0.903174	0.418946	0.261883
F208	F	1.067530	-0.720834	-0.236807
F209	F	1.400863	-0.387501	0.096526
F210	F	1.734197	-0.054167	0.429860
H211	H	0.236398	-0.404580	-0.247424
H212	H	0.569731	-0.071247	0.085909
H213	H	0.903065	0.262087	0.419243
H214	H	0.364632	-0.404564	-0.247409
H215	H	0.697966	-0.071231	0.085924
H216	H	1.031299	0.262103	0.419258
H217	H	0.720512	-0.247674	-0.404752
H218	H	1.053845	0.085660	-0.071418
H219	H	1.387179	0.418993	0.261915
F220	F	0.373598	-0.236900	-0.415617
F221	F	0.706931	0.096433	-0.082284
F222	F	1.040265	0.429766	0.251049
F223	F	0.888823	-0.415284	-1.077224
F224	F	1.222157	-0.081951	-0.743890
F225	F	1.555490	0.251382	-0.410557
F226	F	0.888751	-0.415394	-0.575542
F227	F	1.222084	-0.082061	-0.242209
F228	F	1.555418	0.251273	0.091125
F229	F	0.583313	-0.415345	-0.236553
F230	F	0.916646	-0.082012	0.096780
F231	F	1.249980	0.251322	0.430114
H232	H	0.720401	-0.404528	-0.247386
H233	H	1.053735	-0.071194	0.085948
H234	H	1.387068	0.262139	0.419281
H235	H	1.056773	-0.939522	-0.247655
H236	H	1.390106	-0.606189	0.085678
H237	H	1.723439	-0.272856	0.419011
F238	F	0.888795	-0.415314	-0.931313
F239	F	1.222129	-0.081980	-0.597979
F240	F	1.555462	0.251353	-0.264646
H241	H	1.056820	-1.067768	-0.247678
H242	H	1.390153	-0.734435	0.085655
H243	H	1.723487	-0.401101	0.418988
F244	F	0.888835	-1.076621	-0.415424
F245	F	1.222169	-0.743288	-0.082090
F246	F	1.555502	-0.409955	0.251243
F247	F	0.888786	-0.930710	-0.415405
F248	F	1.222119	-0.597377	-0.082071
F249	F	1.555453	-0.264044	0.251262
H250	H	1.056747	-0.247532	-0.584457
H251	H	1.390081	0.085802	-0.251123
H252	H	1.723414	0.419135	0.082210
F253	F	0.888717	-0.720859	-0.415364
F254	F	1.222050	-0.387526	-0.082031
F255	F	1.555383	-0.054193	0.251303
H256	H	0.899492	-0.583777	-0.404527
H257	H	1.232826	-0.250444	-0.071194
H258	H	1.566159	0.082889	0.262140
F259	F	1.067613	-0.236698	-0.721534
F260	F	1.400946	0.096636	-0.388200
F261	F	1.734280	0.429969	-0.054867
H262	H	1.056792	-0.247450	-0.940217
H263	H	1.390125	0.085883	-0.606884
H264	H	1.723459	0.419217	-0.273550
F265	F	1.067642	-0.236596	-1.077301
F266	F	1.400975	0.096737	-0.743968
F267	F	1.734308	0.430071	-0.410635
