data_functionalizedCrystal
_audit_creation_method	'MofGen! by Chris Wilmer'
_symmetry_space_group_name_H-M	'P1'
_symmetry_Int_Tables_number	1
_symmetry_cell_setting	triclinic
loop_
_symmetry_equiv_pos_as_xyz
  x,y,z
_cell_length_a	14.853558
_cell_length_b	14.853567
_cell_length_c	7.088929
_cell_angle_alpha	83.771294
_cell_angle_beta	96.212767
_cell_angle_gamma	83.633032
loop_
_atom_site_label
_atom_site_type_symbol
_atom_site_fract_x
_atom_site_fract_y
_atom_site_fract_z
O1	O	1.187129	0.126918	-0.158947
O2	O	0.924668	0.140949	-0.158954
O3	O	1.062909	0.002704	-0.158957
O4	O	1.048888	0.265163	-0.158945
O5	O	1.081383	-0.015813	0.159018
O6	O	0.943142	0.122432	0.159020
O7	O	1.205604	0.108401	0.159027
Cu8	Cu	1.076060	0.113726	0.188058
Cu9	Cu	1.054212	0.135624	-0.187985
O10	O	1.067363	0.246646	0.159030
C11	C	0.900316	0.131056	0.000032
C12	C	0.800232	0.129156	0.000028
C13	C	0.743141	0.138359	-0.173307
C14	C	0.763281	0.118160	0.173361
C15	C	0.669247	0.116370	0.173365
C16	C	0.612156	0.125572	0.000029
C17	C	0.649099	0.136565	-0.173309
C18	C	0.632299	0.105367	0.346700
C19	C	0.538260	0.103575	0.346710
C20	C	0.481166	0.112784	0.173372
C21	C	0.518114	0.123779	0.000027
C22	C	0.461023	0.132982	-0.173308
C23	C	0.497968	0.143983	-0.346656
C24	C	0.592005	0.145775	-0.346647
C25	C	0.387130	0.110993	0.173363
C26	C	0.366981	0.131188	-0.173311
C27	C	1.071511	-0.040143	0.000025
C28	C	1.069606	-0.140226	0.000009
C29	C	0.979442	-0.552758	0.000043
C30	C	1.143675	-0.574045	0.000047
C31	C	1.145465	-0.480011	0.000036
C32	C	1.064242	-0.422346	0.000031
C33	C	0.981229	-0.458715	0.000037
C34	C	1.228477	-0.443635	0.000049
C35	C	1.230270	-0.349596	0.000040
C36	C	1.149045	-0.291928	0.000021
C37	C	1.066029	-0.328303	0.000025
C38	C	0.984806	-0.270638	0.000021
C39	C	0.901788	-0.307010	0.000011
C40	C	0.900004	-0.401048	0.000019
C41	C	1.150829	-0.197890	0.000014
C42	C	0.986593	-0.176595	0.000015
C43	C	1.229955	0.118294	0.000037
C44	C	1.330039	0.120195	0.000028
C45	C	1.058761	0.289493	0.000043
C46	C	1.060665	0.389577	0.000048
N47	N	1.091433	0.098323	0.452545
N48	N	1.038845	0.151020	-0.452472
H49	H	0.622095	0.154730	-0.487777
C50	C	0.812445	-0.243567	0.000006
N51	N	0.745154	-0.195778	-0.000001
C52	C	0.435157	0.154102	-0.537319
N53	N	0.387843	0.161724	-0.680922
C54	C	0.695094	0.095317	0.537355
N55	N	0.742393	0.087777	0.680964
H56	H	1.218421	-0.168281	0.000034
C57	C	0.304188	0.141311	-0.363998
N58	N	0.256892	0.148932	-0.507624
C59	C	0.783781	0.150456	-0.363980
N60	N	0.814393	0.159566	-0.507597
C61	C	0.965210	0.224791	0.437228
N62	N	0.909746	0.280356	0.354138
C63	C	1.165072	0.024548	0.562853
N64	N	1.220534	-0.031020	0.645938
H65	H	0.508188	0.094616	0.487860
C66	C	0.826077	0.108085	0.364019
N67	N	0.873377	0.100517	0.507631
C68	C	0.346494	0.098890	0.364033
N69	N	0.315889	0.089776	0.507657
C70	C	0.897238	-0.113170	0.000004
N71	N	0.829936	-0.065398	-0.000004
H72	H	0.832415	-0.430671	0.000013
C73	C	1.321590	-0.309594	0.000035
N74	N	1.390372	-0.279464	0.000025
C75	C	0.888127	-0.592769	0.000050
N76	N	0.819349	-0.622907	0.000064
C77	C	1.317817	-0.507072	0.000068
N78	N	1.385111	-0.554857	0.000079
C79	C	1.233016	-0.637479	0.000062
N80	N	1.300311	-0.685262	0.000070
