data_functionalizedCrystal
_audit_creation_method	'MofGen! by Chris Wilmer'
_symmetry_space_group_name_H-M	'P1'
_symmetry_Int_Tables_number	1
_symmetry_cell_setting	triclinic
loop_
_symmetry_equiv_pos_as_xyz
  x,y,z
_cell_length_a	27.731994
_cell_length_b	26.210047
_cell_length_c	27.732048
_cell_angle_alpha	90.009213
_cell_angle_beta	97.368405
_cell_angle_gamma	89.989378
loop_
_atom_site_label
_atom_site_type_symbol
_atom_site_fract_x
_atom_site_fract_y
_atom_site_fract_z
O1	O	0.640953	-0.042362	-0.057391
O2	O	0.500156	-0.042379	-0.066164
O3	O	0.574927	-0.042360	0.008620
O4	O	0.566182	-0.042381	-0.132175
O5	O	0.574903	0.042498	0.008620
O6	O	0.500132	0.042479	-0.066164
O7	O	0.640929	0.042496	-0.057391
Cu8	Cu	0.570528	0.050236	-0.061778
Cu9	Cu	0.570557	-0.050119	-0.061777
O10	O	0.566158	0.042477	-0.132175
C11	C	0.482137	0.000047	-0.065984
C12	C	0.428480	0.000041	-0.065442
C13	C	0.095749	0.046317	-0.062026
C14	C	-0.105909	0.046324	-0.059965
O15	O	-0.131993	0.085663	-0.059678
N16	N	-0.131111	0.000067	-0.059708
C17	C	-0.105895	-0.046193	-0.059964
O18	O	-0.131957	-0.085537	-0.059694
C19	C	0.095763	-0.046199	-0.062022
C20	C	0.120961	0.000060	-0.062283
C21	C	0.120947	0.092573	-0.062287
C22	C	0.171359	0.092571	-0.062805
C23	C	0.196571	0.046313	-0.063062
C24	C	0.171372	0.000058	-0.062801
C25	C	0.120979	-0.092459	-0.062275
C26	C	0.171396	-0.092457	-0.062788
C27	C	0.196595	-0.046197	-0.063049
C28	C	0.246996	-0.046201	-0.063577
N29	N	0.272198	0.000055	-0.063833
C30	C	0.246985	0.046312	-0.063576
C31	C	-0.211768	-0.046187	-0.058884
C32	C	-0.262183	-0.046186	-0.058371
C33	C	-0.262193	0.046331	-0.058370
C34	C	-0.211779	0.046329	-0.058888
C35	C	-0.186566	0.000069	-0.059141
C36	C	0.352852	0.046305	-0.064664
C37	C	0.403268	0.046298	-0.065184
C38	C	0.403274	-0.046218	-0.065182
C39	C	0.352863	-0.046213	-0.064665
C40	C	0.327654	0.000053	-0.064404
O41	O	0.273112	-0.085520	-0.063859
O42	O	0.273058	0.085650	-0.063836
C43	C	0.045338	0.046319	-0.061508
C44	C	0.020139	0.000064	-0.061247
C45	C	0.045351	-0.046193	-0.061505
C46	C	-0.030275	0.000065	-0.060734
C47	C	-0.055488	0.046323	-0.060476
C48	C	-0.030286	0.092579	-0.060733
C49	C	0.020125	0.092577	-0.061251
C50	C	0.020150	-0.092449	-0.061248
C51	C	-0.030262	-0.092443	-0.060731
C52	C	-0.055474	-0.046186	-0.060474
N53	N	0.570512	0.120820	-0.061778
C54	C	0.599646	0.473333	-0.090886
C55	C	0.599659	0.686992	-0.090887
O56	O	0.624421	0.714613	-0.115629
N57	N	0.570564	0.713714	-0.061778
C58	C	0.541465	0.687017	-0.032664
O59	O	0.516722	0.714649	-0.007901
C60	C	0.541455	0.473360	-0.032660
C61	C	0.570549	0.446641	-0.061775
C62	C	0.628738	0.446614	-0.119998
C63	C	0.628733	0.393203	-0.120000
C64	C	0.599635	0.366510	-0.090889
C65	C	0.570543	0.393229	-0.061777
C66	C	0.512359	0.446665	-0.003544
C67	C	0.512360	0.393247	-0.003545
C68	C	0.541454	0.366528	-0.032660
C69	C	0.541440	0.313126	-0.032667
N70	N	0.570536	0.286404	-0.061777
C71	C	0.599633	0.313096	-0.090888
C72	C	0.541472	0.799191	-0.032668
C73	C	0.541474	0.852605	-0.032670
C74	C	0.599669	0.852576	-0.090893
C75	C	0.599664	0.799160	-0.090894
C76	C	0.570568	0.772469	-0.061778
C77	C	0.599619	0.200928	-0.090889
C78	C	0.599610	0.147512	-0.090889
C79	C	0.541417	0.147546	-0.032664
C80	C	0.541424	0.200958	-0.032666
C81	C	0.570529	0.227647	-0.061779
O82	O	0.516696	0.285471	-0.007935
O83	O	0.624381	0.285456	-0.115639
C84	C	0.599652	0.526745	-0.090885
C85	C	0.570560	0.553464	-0.061773
C86	C	0.541463	0.526771	-0.032662
C87	C	0.570562	0.606878	-0.061774
C88	C	0.599659	0.633570	-0.090885
C89	C	0.628755	0.606848	-0.119994
C90	C	0.628749	0.553437	-0.119996
C91	C	0.512367	0.553493	-0.003552
C92	C	0.512374	0.606905	-0.003554
C93	C	0.541472	0.633597	-0.032664
C94	C	0.658949	0.000068	-0.057571
C95	C	0.712605	0.000071	-0.058114
C96	C	0.574732	0.000070	0.026627
C97	C	0.574179	0.000074	0.080282
N98	N	0.570571	0.879297	-0.061781
C99	C	0.566353	0.000046	-0.150182
C100	C	0.566906	0.000038	-0.203837
C101	C	0.614884	0.000053	0.419105
C102	C	0.612833	0.000046	0.620764
O103	O	0.650055	0.000028	0.652027
N104	N	0.568496	0.000041	0.639879
C105	C	0.524670	0.000034	0.608576
O106	O	0.486912	0.000024	0.629462
C107	C	0.526721	0.000038	0.406918
C108	C	0.571060	0.000048	0.387805
C109	C	0.659220	0.000063	0.399992
C110	C	0.659732	0.000068	0.349580
C111	C	0.615908	0.000062	0.318281
C112	C	0.571573	0.000053	0.337394
C113	C	0.482895	0.000028	0.375615
C114	C	0.483412	0.000027	0.325198
C115	C	0.527751	0.000037	0.306086
C116	C	0.528262	0.000052	0.255683
N117	N	0.572598	0.000057	0.236567
C118	C	0.616421	0.000062	0.267867
C119	C	0.523596	0.000033	0.714450
C120	C	0.523083	0.000033	0.764864
C121	C	0.611246	0.000044	0.777049
C122	C	0.611759	0.000048	0.726633
C123	C	0.567932	0.000038	0.695335
C124	C	0.617494	0.000073	0.161998
C125	C	0.618002	0.000079	0.111581
C126	C	0.529839	0.000066	0.099401
C127	C	0.529331	0.000062	0.149813
C128	C	0.573162	0.000063	0.181111
O129	O	0.491060	0.000064	0.224391
O130	O	0.654174	0.000061	0.246971
C131	C	0.614372	0.000049	0.469517
C132	C	0.570036	0.000039	0.488629
C133	C	0.526213	0.000034	0.457330
C134	C	0.569523	0.000039	0.539043
C135	C	0.613346	0.000044	0.570343
C136	C	0.657683	0.000049	0.551228
C137	C	0.658195	0.000054	0.500816
C138	C	0.481876	0.000029	0.476445
C139	C	0.481367	0.000025	0.526857
C140	C	0.525191	0.000030	0.558157
H141	H	-0.050823	0.130243	-0.060526
C142	C	0.199128	-0.143346	-0.063069
C143	C	0.227978	-0.156080	-0.105416
C144	C	0.255708	-0.206969	-0.105699
C145	C	0.254588	-0.245123	-0.063637
C146	C	0.225736	-0.232390	-0.021287
C147	C	0.198006	-0.181501	-0.021004
H148	H	0.228809	-0.127835	-0.136556
H149	H	0.277066	-0.216394	-0.137049
H150	H	0.275115	-0.282794	-0.063846
H151	H	0.224905	-0.260635	0.009853
H152	H	0.176648	-0.172076	0.010346
H153	H	0.493226	0.000068	0.165375
C154	C	0.481636	0.000058	0.064965
C155	C	0.469888	-0.044010	0.028625
C156	C	0.421685	-0.044022	-0.005814
C157	C	0.385229	0.000033	-0.003912
C158	C	0.396977	0.044104	0.032430
C159	C	0.445180	0.044117	0.066868
H160	H	0.496875	-0.076625	0.027215
H161	H	0.412989	-0.076647	-0.032716
H162	H	0.349546	0.000024	-0.029405
H163	H	0.369989	0.076719	0.033839
H164	H	0.453876	0.076741	0.093770
H165	H	0.191871	0.130240	-0.063015
H166	H	0.445258	0.000021	0.542413
H167	H	0.695837	0.000074	0.334024
H168	H	0.694301	0.000062	0.485260
H169	H	-0.050775	-0.130116	-0.060522
C170	C	0.480351	0.363888	0.028483
C171	C	0.440796	0.327175	0.004959
C172	C	0.408786	0.297817	0.036985
C173	C	0.416331	0.305172	0.092535
C174	C	0.455887	0.341886	0.116062
C175	C	0.487897	0.371244	0.084036
H176	H	0.435210	0.321729	-0.036166
H177	H	0.379504	0.270639	0.019568
H178	H	0.392635	0.283440	0.116243
H179	H	0.461474	0.347332	0.157186
H180	H	0.517180	0.398422	0.101453
H181	H	0.488672	0.531766	0.020155
C182	C	0.666779	0.000088	0.090559
C183	C	0.703063	0.044155	0.102530
C184	C	0.751838	0.044162	0.081510
C185	C	0.764328	0.000102	0.048519
C186	C	0.728042	-0.043968	0.036547
C187	C	0.679267	-0.043976	0.057567
H188	H	0.693818	0.076774	0.126953
H189	H	0.778699	0.076786	0.090373
H190	H	0.800433	0.000107	0.032959
H191	H	0.737287	-0.076587	0.012124
H192	H	0.652406	-0.076600	0.048704
C193	C	0.047877	-0.143337	-0.061534
C194	C	0.046753	-0.181495	-0.019475
C195	C	0.074476	-0.232387	-0.019765
C196	C	0.103324	-0.245121	-0.062113
C197	C	0.104449	-0.206962	-0.104175
C198	C	0.076726	-0.156070	-0.103886
H199	H	0.025397	-0.172070	0.011876
H200	H	0.073643	-0.260635	0.011373
H201	H	0.123846	-0.282794	-0.062327
H202	H	0.125805	-0.216388	-0.135527
H203	H	0.077559	-0.127822	-0.135023
H204	H	0.332344	-0.083880	-0.064460
H205	H	0.623355	0.777409	-0.114602
H206	H	0.694908	0.000065	0.425472
C207	C	0.631683	0.881943	-0.122910
C208	C	0.631686	0.940697	-0.122902
C209	C	0.663703	0.970067	-0.154912
C210	C	0.695716	0.940684	-0.186930
C211	C	0.695714	0.881927	-0.186938
C212	C	0.663697	0.852557	-0.154928
H213	H	0.607987	0.962451	-0.099200
H214	H	0.663704	1.013563	-0.154906
H215	H	0.719417	0.962426	-0.210626
H216	H	0.719413	0.860173	-0.210641
H217	H	0.663696	0.809061	-0.154935
H218	H	0.517727	0.222713	-0.008964
C219	C	0.665708	0.000079	0.196421
C220	C	0.702127	0.044152	0.194517
C221	C	0.750340	0.044163	0.228939
C222	C	0.762134	0.000099	0.265266
C223	C	0.725715	-0.043978	0.267171
C224	C	0.677501	-0.043988	0.232748
H225	H	0.693397	0.076774	0.167624
H226	H	0.777300	0.076792	0.227529
H227	H	0.797825	0.000106	0.290748
H228	H	0.734445	-0.076600	0.294063
H229	H	0.650541	-0.076617	0.234159
H230	H	0.487905	0.000026	0.688970
C231	C	0.631617	0.118122	-0.122916
C232	C	0.671163	0.081393	-0.099391
C233	C	0.703169	0.052006	-0.131416
C234	C	0.695630	0.059347	-0.186966
C235	C	0.656082	0.096078	-0.210494
C236	C	0.624075	0.125465	-0.178469
H237	H	0.676746	0.075957	-0.058267
H238	H	0.732446	0.024815	-0.113999
H239	H	0.719323	0.037593	-0.210673
H240	H	0.650499	0.101514	-0.251618
H241	H	0.594799	0.152656	-0.195886
H242	H	0.623320	0.222653	-0.114595
H243	H	0.647863	0.000056	0.711076
C244	C	0.705889	0.000053	0.585663
C245	C	0.717644	0.044115	0.622009
C246	C	0.765848	0.044115	0.656447
C247	C	0.802296	0.000055	0.654539
C248	C	0.790542	-0.044010	0.618192
C249	C	0.742338	-0.044011	0.583754
H250	H	0.690662	0.076734	0.623422
H251	H	0.774549	0.076735	0.683353
H252	H	0.837979	0.000055	0.680032
H253	H	0.817524	-0.076630	0.616778
H254	H	0.733637	-0.076631	0.556847
C255	C	0.433666	0.000028	0.442021
C256	C	0.397237	-0.044037	0.443922
C257	C	0.349023	-0.044033	0.409500
C258	C	0.337238	0.000036	0.373178
C259	C	0.373668	0.044105	0.371276
C260	C	0.421882	0.044101	0.405698
H261	H	0.405960	-0.076662	0.470811
H262	H	0.322056	-0.076655	0.410909
H263	H	0.301547	0.000039	0.347697
H264	H	0.364945	0.076730	0.344387
H265	H	0.448850	0.076723	0.404289
H266	H	0.100425	0.130243	-0.062076
C267	C	0.660741	0.363818	-0.152024
C268	C	0.716292	0.371157	-0.144502
C269	C	0.748304	0.341778	-0.176528
C270	C	0.724765	0.305059	-0.216074
C271	C	0.669212	0.297717	-0.223598
C272	C	0.637200	0.327097	-0.191573
H273	H	0.733719	0.398341	-0.115226
H274	H	0.789428	0.347212	-0.170958
H275	H	0.748463	0.283310	-0.239781
H276	H	0.651785	0.270534	-0.252874
H277	H	0.596076	0.321662	-0.197142
C278	C	0.660756	0.524051	-0.152021
C279	C	0.716307	0.531388	-0.144501
C280	C	0.748316	0.502007	-0.176528
C281	C	0.724775	0.465288	-0.216073
C282	C	0.669222	0.457949	-0.223595
C283	C	0.637212	0.487331	-0.191568
H284	H	0.733736	0.558571	-0.115225
H285	H	0.789441	0.507440	-0.170960
H286	H	0.748471	0.443538	-0.239781
H287	H	0.651793	0.430766	-0.252871
H288	H	0.596088	0.481898	-0.197136
C289	C	0.509459	0.769836	-0.000641
C290	C	0.532993	0.733120	0.038907
C291	C	0.500977	0.703768	0.070932
C292	C	0.445428	0.711133	0.063409
C293	C	0.421891	0.747850	0.023859
C294	C	0.453906	0.777202	-0.008166
H295	H	0.574117	0.727667	0.044478
H296	H	0.518401	0.676588	0.100209
H297	H	0.421728	0.689405	0.087115
H298	H	0.380767	0.753303	0.018288
H299	H	0.436482	0.804382	-0.037444
C300	C	0.430984	0.097187	-0.065466
C301	C	0.418236	0.135347	-0.107382
C302	C	0.445950	0.186235	-0.107661
C303	C	0.486413	0.198963	-0.066024
C304	C	0.499164	0.160802	-0.024105
C305	C	0.471449	0.109914	-0.023826
H306	H	0.388281	0.125927	-0.138207
H307	H	0.436511	0.214484	-0.138693
H308	H	0.506929	0.236633	-0.066231
H309	H	0.529119	0.170222	0.006720
H310	H	0.480889	0.081665	0.007206
H311	H	-0.191265	0.083998	-0.059101
C312	C	0.660763	0.636217	-0.152016
C313	C	0.700311	0.672931	-0.128482
C314	C	0.732319	0.702303	-0.160500
C315	C	0.724779	0.694961	-0.216052
C316	C	0.685229	0.658244	-0.239589
C317	C	0.653221	0.628873	-0.207571
H318	H	0.705894	0.678368	-0.087357
H319	H	0.761597	0.729483	-0.143076
H320	H	0.748474	0.716703	-0.239753
H321	H	0.679646	0.652807	-0.280714
H322	H	0.623944	0.601693	-0.224995
H323	H	0.652436	0.468341	-0.143704
H324	H	0.517725	0.125804	-0.008964
C325	C	0.480359	0.476041	0.028492
C326	C	0.487915	0.468687	0.084040
C327	C	0.455914	0.498060	0.116081
C328	C	0.416356	0.534786	0.092573
C329	C	0.408798	0.542141	0.037022
C330	C	0.440799	0.512769	0.004981
H331	H	0.517200	0.441499	0.101444
H332	H	0.461509	0.492615	0.157204
H333	H	0.392667	0.556530	0.116292
H334	H	0.379513	0.569330	0.019618
H335	H	0.435204	0.518214	-0.036142
C336	C	0.474308	0.000028	0.785883
C337	C	0.438000	0.044086	0.773924
C338	C	0.389223	0.044078	0.794940
C339	C	0.376756	0.000012	0.827916
C340	C	0.413065	-0.044050	0.839876
C341	C	0.461841	-0.044042	0.818860
H342	H	0.447228	0.076710	0.749512
H343	H	0.362345	0.076696	0.786086
H344	H	0.340648	0.000005	0.843473
H345	H	0.403837	-0.076674	0.864288
H346	H	0.488720	-0.076659	0.827714
C347	C	0.435201	0.000019	0.290770
C348	C	0.398779	-0.044053	0.292670
C349	C	0.350568	-0.044060	0.258242
C350	C	0.338780	0.000004	0.221915
C351	C	0.375203	0.044079	0.220014
C352	C	0.423414	0.044086	0.254441
H353	H	0.407504	-0.076675	0.319562
H354	H	0.323606	-0.076688	0.259650
H355	H	0.303092	-0.000002	0.196430
H356	H	0.366478	0.076700	0.193121
H357	H	0.450376	0.076713	0.253033
H358	H	-0.282730	0.083996	-0.058162
H359	H	0.423811	-0.083880	-0.065394
H360	H	0.332332	0.083978	-0.064456
H361	H	-0.282696	-0.083855	-0.058166
H362	H	0.646929	0.000048	0.802541
H363	H	0.517777	0.874355	-0.008967
H364	H	0.446789	0.000016	0.391167
H365	H	-0.191245	-0.083860	-0.059090
H366	H	0.100471	-0.130128	-0.062061
H367	H	0.040637	0.130246	-0.061464
H368	H	0.488678	0.628655	0.020154
