data_functionalizedCrystal
_audit_creation_method	'MofGen! by Chris Wilmer'
_symmetry_space_group_name_H-M	'P1'
_symmetry_Int_Tables_number	1
_symmetry_cell_setting	triclinic
loop_
_symmetry_equiv_pos_as_xyz
  x,y,z
_cell_length_a	14.908571
_cell_length_b	13.897447
_cell_length_c	14.908308
_cell_angle_alpha	93.268353
_cell_angle_beta	90.175053
_cell_angle_gamma	86.715799
loop_
_atom_site_label
_atom_site_type_symbol
_atom_site_fract_x
_atom_site_fract_y
_atom_site_fract_z
Zn1	Zn	1.345302	-0.503381	-0.587592
Zn2	Zn	1.353885	-0.655952	-0.437235
Zn3	Zn	1.203617	-0.484854	-0.428589
Zn4	Zn	1.194912	-0.654806	-0.578887
O5	O	1.274429	-0.574748	-0.508076
O6	O	1.472267	-0.531853	-0.574908
O7	O	1.341186	-0.625981	-0.310263
O8	O	1.222463	-0.352334	-0.449706
O9	O	1.478572	-0.643946	-0.464442
O10	O	1.326559	-0.365946	-0.566525
O11	O	1.230785	-0.500276	-0.303911
O12	O	1.076636	-0.499165	-0.441265
O13	O	1.207627	-0.641993	-0.705866
O14	O	1.070241	-0.624028	-0.551688
O15	O	1.318118	-0.530742	-0.712262
O16	O	1.332745	-0.790777	-0.456001
O17	O	1.215949	-0.789935	-0.560071
C18	C	1.040813	-0.559462	-0.494594
C19	C	0.940870	-0.552947	-0.488848
C20	C	1.274357	-0.825356	-0.508051
C21	C	1.274407	-0.932575	-0.508075
C22	C	0.746464	-0.670908	-0.592879
C23	C	0.652559	-0.664790	-0.587484
C24	C	0.659151	-0.534589	-0.472666
C25	C	0.753057	-0.540707	-0.478062
C26	C	0.796710	-0.608870	-0.538170
C27	C	0.890618	-0.614992	-0.543560
C28	C	0.897208	-0.484787	-0.428748
C29	C	0.803303	-0.478669	-0.423352
C30	C	1.274449	-1.019649	-0.508098
C31	C	1.274511	-1.128886	-0.508124
C32	C	1.508957	-0.590094	-0.521610
C33	C	1.608899	-0.596634	-0.527378
C34	C	1.260944	-0.588306	-0.742601
C35	C	1.255198	-0.594084	-0.842542
C36	C	1.274525	-0.323164	-0.508122
C37	C	1.274565	-0.215953	-0.508142
C38	C	1.359451	-0.489072	-1.037003
C39	C	1.354054	-0.494498	-1.130906
C40	C	1.239004	-0.610355	-1.124254
C41	C	1.244401	-0.604929	-1.030350
C42	C	1.304627	-0.544287	-0.986728
C43	C	1.310028	-0.538867	-0.892823
C44	C	1.194973	-0.654718	-0.886173
C45	C	1.189577	-0.660144	-0.980076
C46	C	1.287913	-0.561176	-0.274466
C47	C	1.293834	-0.555138	-0.174535
H48	H	0.926159	-0.670495	-0.592502
C49	C	0.851343	-0.808270	-0.611227
C50	C	0.794452	-0.745835	-0.658943
H51	H	0.880962	-0.854531	-0.652013
H52	H	0.894704	-0.772194	-0.579429
H53	H	0.816939	-0.840440	-0.569888
H54	H	0.828857	-0.713659	-0.700277
H55	H	0.751085	-0.781915	-0.690756
H56	H	0.611652	-0.715306	-0.632036
C57	C	0.560422	-0.507071	-0.345706
C58	C	0.611139	-0.459648	-0.406633
H59	H	0.530780	-0.460798	-0.304947
H60	H	0.517078	-0.543153	-0.377523
H61	H	0.599017	-0.549412	-0.313317
H62	H	0.572543	-0.417313	-0.439027
H63	H	0.654488	-0.423550	-0.374813
C64	C	1.125817	-0.724325	-1.108257
C65	C	1.172803	-0.677003	-1.172213
H66	H	1.084943	-0.765466	-1.137867
H67	H	1.167084	-0.761670	-1.073892
H68	H	1.093545	-0.677928	-1.069648
H69	H	1.205081	-0.723400	-1.210819
H70	H	1.131530	-0.639656	-1.206593
C71	C	1.152158	-0.697851	-0.739273
C72	C	1.134704	-0.715415	-0.830908
H73	H	1.114948	-0.735320	-0.705157
H74	H	1.213445	-0.715028	-0.727374
H75	H	1.139901	-0.631292	-0.723141
H76	H	1.146968	-0.781973	-0.847042
H77	H	1.073403	-0.698243	-0.842813
H78	H	0.938129	-0.434274	-0.384197
H79	H	1.398695	-0.449534	-1.171836
H80	H	0.767747	-0.423171	-0.374416
C81	C	1.423198	-0.424884	-0.908834
C82	C	1.376222	-0.472206	-0.844871
H83	H	1.464058	-0.383723	-0.879229
H84	H	1.455475	-0.471271	-0.947434
H85	H	1.381916	-0.387549	-0.943207
H86	H	1.417504	-0.509547	-0.810502
H87	H	1.343944	-0.425813	-0.806255
H88	H	1.408494	-0.439700	-1.001485
H89	H	1.140541	-0.709515	-1.015606
