data_functionalizedCrystal
_audit_creation_method	'MofGen! by Chris Wilmer'
_symmetry_space_group_name_H-M	'P1'
_symmetry_Int_Tables_number	1
_symmetry_cell_setting	triclinic
loop_
_symmetry_equiv_pos_as_xyz
  x,y,z
_cell_length_a	27.731994
_cell_length_b	26.809956
_cell_length_c	27.732048
_cell_angle_alpha	90.009578
_cell_angle_beta	82.631595
_cell_angle_gamma	90.009960
loop_
_atom_site_label
_atom_site_type_symbol
_atom_site_fract_x
_atom_site_fract_y
_atom_site_fract_z
O1	O	0.640953	0.041414	0.057391
O2	O	0.500155	0.041431	0.066164
O3	O	0.574927	0.041412	-0.008620
O4	O	0.566181	0.041432	0.132175
O5	O	0.574904	-0.041547	-0.008620
O6	O	0.500132	-0.041528	0.066164
O7	O	0.640930	-0.041545	0.057391
Zn8	Zn	0.570527	-0.054708	0.061778
Zn9	Zn	0.570558	0.054594	0.061778
O10	O	0.566158	-0.041527	0.132175
C11	C	0.482137	-0.000046	0.065984
C12	C	0.428480	-0.000040	0.065442
N13	N	0.570510	-0.129304	0.061777
C14	C	0.095749	-0.045281	0.062026
C15	C	-0.105909	-0.045287	0.059964
O16	O	-0.131992	-0.083746	0.059677
N17	N	-0.131111	-0.000066	0.059708
C18	C	-0.105896	0.045160	0.059964
O19	O	-0.131958	0.083623	0.059694
C20	C	0.095762	0.045165	0.062023
C21	C	0.120961	-0.000059	0.062283
C22	C	0.120949	-0.090501	0.062286
C23	C	0.171360	-0.090499	0.062804
C24	C	0.196572	-0.045277	0.063062
C25	C	0.171372	-0.000057	0.062801
C26	C	0.120977	0.090390	0.062275
C27	C	0.171395	0.090388	0.062789
C28	C	0.196594	0.045164	0.063050
C29	C	0.246996	0.045167	0.063577
N30	N	0.272198	-0.000054	0.063833
C31	C	0.246986	-0.045276	0.063576
C32	C	-0.211769	0.045154	0.058885
C33	C	-0.262183	0.045152	0.058371
C34	C	-0.262193	-0.045294	0.058370
C35	C	-0.211778	-0.045293	0.058887
C36	C	-0.186566	-0.000067	0.059141
C37	C	0.352853	-0.045268	0.064664
C38	C	0.403268	-0.045262	0.065184
C39	C	0.403274	0.045184	0.065182
C40	C	0.352863	0.045179	0.064665
C41	C	0.327654	-0.000052	0.064404
O42	O	0.273111	0.083606	0.063859
O43	O	0.273059	-0.083733	0.063835
C44	C	0.045338	-0.045283	0.061508
C45	C	0.020139	-0.000063	0.061247
C46	C	0.045351	0.045160	0.061505
C47	C	-0.030275	-0.000064	0.060734
C48	C	-0.055487	-0.045286	0.060476
C49	C	-0.030285	-0.090507	0.060732
C50	C	0.020126	-0.090505	0.061250
C51	C	0.020149	0.090381	0.061249
C52	C	-0.030263	0.090375	0.060732
C53	C	-0.055475	0.045153	0.060474
C54	C	0.599649	-0.473930	0.090883
C55	C	0.599665	-0.682808	0.090882
O56	O	0.624426	-0.709811	0.115623
N57	N	0.570569	-0.708931	0.061773
C58	C	0.541470	-0.682833	0.032659
O59	O	0.516727	-0.709845	0.007895
C60	C	0.541458	-0.473956	0.032657
C61	C	0.570551	-0.447835	0.061772
C62	C	0.628741	-0.447809	0.119995
C63	C	0.628734	-0.395592	0.119997
C64	C	0.599637	-0.369497	0.090886
C65	C	0.570545	-0.395618	0.061774
C66	C	0.512362	-0.447858	0.003540
C67	C	0.512362	-0.395636	0.003542
C68	C	0.541455	-0.369514	0.032657
C69	C	0.541441	-0.317307	0.032665
N70	N	0.570536	-0.291183	0.061775
C71	C	0.599634	-0.317278	0.090885
C72	C	0.541478	-0.792496	0.032662
C73	C	0.541481	-0.844715	0.032663
C74	C	0.599676	-0.844686	0.090886
C75	C	0.599670	-0.792466	0.090888
C76	C	0.570574	-0.766372	0.061772
C77	C	0.599619	-0.207620	0.090887
C78	C	0.599608	-0.155399	0.090888
C79	C	0.541415	-0.155433	0.032663
C80	C	0.541423	-0.207649	0.032664
C81	C	0.570529	-0.233742	0.061777
O82	O	0.516696	-0.290272	0.007933
O83	O	0.624382	-0.290257	0.115637
C84	C	0.599655	-0.526146	0.090881
C85	C	0.570564	-0.552267	0.061768
C86	C	0.541466	-0.526172	0.032658
C87	C	0.570566	-0.604486	0.061769
C88	C	0.599664	-0.630581	0.090880
C89	C	0.628759	-0.604458	0.119990
C90	C	0.628753	-0.552241	0.119991
C91	C	0.512370	-0.552296	0.003548
C92	C	0.512378	-0.604512	0.003549
C93	C	0.541476	-0.630608	0.032660
C94	C	0.658949	-0.000067	0.057571
C95	C	0.712605	-0.000070	0.058114
C96	C	0.574732	-0.000069	-0.026627
C97	C	0.574179	-0.000073	-0.080282
N98	N	0.570578	0.129190	0.061774
C99	C	0.614884	-0.000052	-0.419105
C100	C	0.612833	-0.000045	-0.620764
O101	O	0.650055	-0.000028	-0.652027
N102	N	0.568496	-0.000040	-0.639879
C103	C	0.524670	-0.000033	-0.608576
O104	O	0.486912	-0.000024	-0.629462
C105	C	0.526721	-0.000037	-0.406918
C106	C	0.571061	-0.000047	-0.387805
C107	C	0.659220	-0.000061	-0.399992
C108	C	0.659732	-0.000066	-0.349580
C109	C	0.615908	-0.000061	-0.318281
C110	C	0.571573	-0.000052	-0.337394
C111	C	0.482895	-0.000027	-0.375615
C112	C	0.483412	-0.000027	-0.325198
C113	C	0.527751	-0.000037	-0.306086
C114	C	0.528262	-0.000051	-0.255683
N115	N	0.572598	-0.000056	-0.236567
C116	C	0.616421	-0.000061	-0.267867
C117	C	0.523596	-0.000032	-0.714450
C118	C	0.523083	-0.000032	-0.764864
C119	C	0.611246	-0.000043	-0.777049
C120	C	0.611759	-0.000047	-0.726633
C121	C	0.567932	-0.000037	-0.695335
C122	C	0.617494	-0.000071	-0.161998
C123	C	0.618002	-0.000078	-0.111581
C124	C	0.529839	-0.000064	-0.099401
C125	C	0.529331	-0.000060	-0.149813
C126	C	0.573162	-0.000062	-0.181111
O127	O	0.491060	-0.000063	-0.224391
O128	O	0.654174	-0.000060	-0.246971
C129	C	0.614372	-0.000047	-0.469517
C130	C	0.570036	-0.000038	-0.488629
C131	C	0.526213	-0.000033	-0.457330
C132	C	0.569523	-0.000038	-0.539043
C133	C	0.613346	-0.000043	-0.570343
C134	C	0.657683	-0.000048	-0.551228
C135	C	0.658195	-0.000052	-0.500816
C136	C	0.481876	-0.000028	-0.476445
C137	C	0.481367	-0.000024	-0.526857
C138	C	0.525191	-0.000029	-0.558157
C139	C	0.566353	-0.000045	0.150182
C140	C	0.566906	-0.000037	0.203837
H141	H	0.423783	-0.082091	0.065398
Br142	Br	0.668235	-0.516799	0.159512
H143	H	0.653186	-0.000070	-0.187475
Br144	Br	0.639120	-0.243024	0.130398
Br145	Br	0.472874	-0.483295	-0.035975
Br146	Br	0.639167	-0.880111	0.130393
Br147	Br	0.205608	0.151769	0.063130
H148	H	0.693365	-0.000054	-0.576720
Br149	Br	0.422395	-0.000019	-0.433975
Br150	Br	0.501933	-0.243100	-0.006844
H151	H	0.487905	-0.000025	-0.688970
H152	H	0.652438	-0.469050	0.143701
H153	H	0.517783	-0.771255	0.008951
Br154	Br	0.470368	-0.000058	-0.056914
H155	H	0.488667	-0.374392	-0.020169
Br156	Br	0.318661	0.106554	0.064321
H157	H	0.423810	0.082003	0.065394
Br158	Br	0.501986	-0.880159	-0.006842
H159	H	0.694908	-0.000064	-0.425472
Br160	Br	0.318649	-0.106653	0.064308
H161	H	-0.191246	0.081984	0.059091
H162	H	0.191873	-0.127325	0.063014
Br163	Br	-0.064512	-0.151880	0.060386
H164	H	0.517723	-0.134177	0.008963
Br165	Br	0.718373	-0.000063	-0.474886
H166	H	0.623300	-0.134134	0.114599
H167	H	0.652449	-0.625713	0.143695
Br168	Br	0.472887	-0.639956	-0.035965
Br169	Br	0.421187	-0.000014	-0.552788
H170	H	0.488676	-0.531055	-0.020159
H171	H	0.652427	-0.374329	0.143703
Br172	Br	0.462906	-0.000031	-0.790795
H173	H	0.100426	-0.127329	0.062075
Br174	Br	0.639157	-0.757022	0.130401
Br175	Br	0.678181	-0.000092	-0.085647
H176	H	0.695837	-0.000072	-0.334024
H177	H	0.647863	-0.000054	-0.711076
Br178	Br	0.670720	-0.000048	-0.819536
H179	H	0.446789	-0.000016	-0.391167
H180	H	0.447722	-0.000018	-0.299716
H181	H	0.493226	-0.000066	-0.165375
H182	H	-0.191264	-0.082118	0.059100
H183	H	-0.282729	-0.082116	0.058161
H184	H	-0.282697	0.081978	0.058166
H185	H	0.100469	0.127217	0.062062
H186	H	0.040639	-0.127331	0.061463
H187	H	-0.050776	0.127205	0.060523
H188	H	0.040671	0.127207	0.061457
