data_functionalizedCrystal
_audit_creation_method	'MofGen! by Chris Wilmer'
_symmetry_space_group_name_H-M	'P1'
_symmetry_Int_Tables_number	1
_symmetry_cell_setting	triclinic
loop_
_symmetry_equiv_pos_as_xyz
  x,y,z
_cell_length_a	14.908520
_cell_length_b	14.908932
_cell_length_c	17.077396
_cell_angle_alpha	86.725961
_cell_angle_beta	93.268321
_cell_angle_gamma	83.580804
loop_
_atom_site_label
_atom_site_type_symbol
_atom_site_fract_x
_atom_site_fract_y
_atom_site_fract_z
Zn1	Zn	-0.280480	-1.362988	-0.389591
Zn2	Zn	-0.431862	-1.354147	-0.266366
Zn3	Zn	-0.289249	-1.211621	-0.266367
Zn4	Zn	-0.440541	-1.202855	-0.405609
O5	O	-0.360533	-1.282903	-0.331984
O6	O	-0.293259	-1.488479	-0.366541
O7	O	-0.412981	-1.335209	-0.156523
O8	O	-0.161415	-1.239069	-0.276010
O9	O	-0.404479	-1.481983	-0.276008
O10	O	-0.154973	-1.350277	-0.366542
O11	O	-0.308204	-1.230496	-0.156524
O12	O	-0.316620	-1.083795	-0.291543
O13	O	-0.419271	-1.224129	-0.513328
O14	O	-0.427774	-1.077355	-0.393843
O15	O	-0.301675	-1.341778	-0.501560
O16	O	-0.559683	-1.326709	-0.291540
O17	O	-0.566060	-1.215556	-0.393841
C18	C	-0.374091	-1.047732	-0.344432
C19	C	-0.379913	-0.947124	-0.349777
C20	C	-0.446079	-0.801987	-0.410487
C21	C	-0.440609	-0.896517	-0.405472
C22	C	-0.324685	-0.903194	-0.299092
C23	C	-0.330155	-0.808663	-0.304107
C24	C	-0.390853	-0.758063	-0.359808
C25	C	-0.396317	-0.663531	-0.364826
C26	C	-0.280399	-0.670209	-0.258443
C27	C	-0.274929	-0.764739	-0.253428
C28	C	-0.595714	-1.269247	-0.344444
C29	C	-0.696321	-1.263487	-0.349797
C30	C	-0.878664	-1.368528	-0.253403
C31	C	-0.973193	-1.363119	-0.258430
C32	C	-0.979910	-1.247267	-0.364880
C33	C	-0.885381	-1.252675	-0.359854
C34	C	-0.834761	-1.313307	-0.304112
C35	C	-0.740231	-1.318710	-0.299083
C36	C	-0.746949	-1.202863	-0.405536
C37	C	-0.841478	-1.197455	-0.410563
C38	C	-0.124432	-1.296637	-0.319490
C39	C	-0.023819	-1.302490	-0.314166
C40	C	-0.360463	-1.282962	-0.536721
C41	C	-0.360433	-1.282987	-0.623969
C42	C	-0.346914	-0.518992	-0.319482
C43	C	-0.341089	-0.619601	-0.314141
C44	C	-0.299196	-1.344249	-0.658832
C45	C	-0.299165	-1.344261	-0.740810
C46	C	-0.360377	-1.283015	-0.787924
C47	C	-0.421617	-1.221747	-0.753055
C48	C	-0.421643	-1.221731	-0.671078
C49	C	-0.421560	-1.221786	-0.923921
C50	C	-0.421536	-1.221803	-1.005903
C51	C	-0.299083	-1.344317	-0.993652
C52	C	-0.299109	-1.344301	-0.911675
C53	C	-0.360350	-1.283033	-0.876813
C54	C	-0.360534	-1.282900	-0.128036
C55	C	-0.360299	-1.283065	-0.040766
H56	H	-0.235426	-0.634437	-0.217179
H57	H	-0.249270	-1.394177	-0.873317
Cl58	Cl	-0.510041	-0.951733	-0.469184
Cl59	Cl	-0.222244	-1.421252	-0.599611
H60	H	-0.699017	-1.368077	-0.253694
Cl61	Cl	-0.815026	-1.444734	-0.183320
H62	H	-0.471417	-1.171882	-0.895538
Cl63	Cl	-1.043560	-1.171063	-0.434958
Cl64	Cl	-0.905121	-1.121240	-0.480635
H65	H	-0.225513	-0.805951	-0.208076
H66	H	-1.008935	-1.408087	-0.217139
Cl67	Cl	-0.691752	-1.133427	-0.469279
Cl68	Cl	-0.498627	-1.144709	-0.627250
H69	H	-0.249216	-1.394202	-1.022041
H70	H	-0.471453	-1.171876	-0.791422
Cl71	Cl	-0.222215	-1.421318	-0.784634
Cl72	Cl	-0.472620	-0.599920	-0.434850
Cl73	Cl	-0.498479	-1.144798	-1.065131
H74	H	-0.495494	-0.760788	-0.455847
Cl75	Cl	-0.248392	-0.966820	-0.229070
