data_functionalizedCrystal
_audit_creation_method	'MofGen! by Chris Wilmer'
_symmetry_space_group_name_H-M	'P1'
_symmetry_Int_Tables_number	1
_symmetry_cell_setting	triclinic
loop_
_symmetry_equiv_pos_as_xyz
  x,y,z
_cell_length_a	16.625546
_cell_length_b	16.959455
_cell_length_c	16.959447
_cell_angle_alpha	90.022996
_cell_angle_beta	90.032298
_cell_angle_gamma	90.019488
loop_
_atom_site_label
_atom_site_type_symbol
_atom_site_fract_x
_atom_site_fract_y
_atom_site_fract_z
Zn1	Zn	-0.321049	1.208391	0.447026
Zn2	Zn	-0.455897	1.208302	0.314843
Zn3	Zn	-0.321075	1.076214	0.314849
Zn4	Zn	-0.455836	1.076179	0.446968
O5	O	-0.388464	1.142271	0.380921
O6	O	-0.338951	1.318990	0.429513
O7	O	-0.438048	1.190758	0.204233
O8	O	-0.208239	1.093799	0.332410
O9	O	-0.438023	1.318925	0.332399
O10	O	-0.208220	1.190909	0.429520
O11	O	-0.338995	1.093713	0.204238
O12	O	-0.338937	0.965598	0.332354
O13	O	-0.437921	1.093740	0.557586
O14	O	-0.437946	0.965572	0.429420
O15	O	-0.338893	1.190876	0.557629
O16	O	-0.568721	1.190724	0.332342
O17	O	-0.568677	1.093653	0.429414
C18	C	-0.388438	0.936905	0.380882
C19	C	-0.388446	0.849048	0.380883
C20	C	-0.440000	0.477528	0.330328
C21	C	-0.336996	0.477618	0.431611
C22	C	-0.336982	0.560164	0.431592
C23	C	-0.388479	0.601396	0.380941
C24	C	-0.439990	0.560082	0.330309
C25	C	-0.285479	0.601484	0.482228
C26	C	-0.285464	0.684034	0.482211
C27	C	-0.336958	0.725268	0.431556
C28	C	-0.388469	0.683949	0.380922
C29	C	-0.439967	0.725181	0.330271
C30	C	-0.491475	0.683864	0.279632
C31	C	-0.491484	0.601315	0.279654
C32	C	-0.336949	0.807816	0.431534
C33	C	-0.439957	0.807735	0.330252
C34	C	-0.597955	1.142197	0.380888
C35	C	-0.687576	1.142237	0.380901
C36	C	-1.015752	1.142375	0.380983
C37	C	-0.924443	1.142334	0.380962
C38	C	-0.851667	1.142305	0.380941
C39	C	-0.760353	1.142266	0.380922
C40	C	-0.178155	1.142368	0.380972
C41	C	-0.088534	1.142409	0.380994
C42	C	-0.388397	1.142314	0.587090
C43	C	-0.388369	1.142332	0.674946
C44	C	-0.388491	1.348440	0.380962
C45	C	-0.388503	1.436296	0.380979
C46	C	-0.388473	1.142275	0.175555
C47	C	-0.388274	1.142410	0.087699
C48	C	-0.336711	1.091875	1.046431
C49	C	-0.439856	1.192928	1.046414
C50	C	-0.439875	1.192914	0.963868
C51	C	-0.388312	1.142379	0.922600
C52	C	-0.336730	1.091858	0.963877
C53	C	-0.491462	1.243429	0.922584
C54	C	-0.491483	1.243417	0.840033
C55	C	-0.439915	1.192885	0.798763
C56	C	-0.388331	1.142362	0.840046
C57	C	-0.336768	1.091827	0.798778
C58	C	-0.285179	1.041308	0.840059
C59	C	-0.285162	1.041326	0.922608
C60	C	-0.439932	1.192867	0.716215
C61	C	-0.336787	1.091810	0.716224
H62	H	-0.243522	0.717668	0.523444
H63	H	-0.481929	1.234005	0.682607
O64	O	-0.547110	1.297920	0.795516
H65	H	-0.610389	1.284350	0.811337
O66	O	-0.495499	0.852207	0.275619
H67	H	-0.531317	0.809606	0.240416
O68	O	-0.229562	0.986808	0.795542
H69	H	-0.243375	0.924766	0.811362
H70	H	-0.533408	0.717446	0.238396
O71	O	-0.547039	0.556755	0.225041
H72	H	-0.538399	0.492427	0.233572
O73	O	-0.229508	0.986855	0.967130
H74	H	-0.238159	0.995358	1.031464
H75	H	-0.294706	1.050745	1.080046
H76	H	-0.481935	0.443884	0.289097
O77	O	-0.495469	1.247433	1.090918
H78	H	-0.486788	1.238959	1.155254
O79	O	-0.547071	1.297932	0.967095
H80	H	-0.610356	1.284337	0.951238
H81	H	-0.295073	0.444042	0.472853
H82	H	-0.243557	0.567906	0.523470
H83	H	-0.295013	0.841453	0.472765
O84	O	-0.281167	1.037309	0.671713
H85	H	-0.245296	1.002184	0.714289
