data_functionalizedCrystal
_audit_creation_method	'MofGen! by Chris Wilmer'
_symmetry_space_group_name_H-M	'P1'
_symmetry_Int_Tables_number	1
_symmetry_cell_setting	triclinic
loop_
_symmetry_equiv_pos_as_xyz
  x,y,z
_cell_length_a	14.446369
_cell_length_b	14.446369
_cell_length_c	17.917559
_cell_angle_alpha	63.036342
_cell_angle_beta	90.003555
_cell_angle_gamma	60.000221
loop_
_atom_site_label
_atom_site_type_symbol
_atom_site_fract_x
_atom_site_fract_y
_atom_site_fract_z
Zr1	Zr	0.897097	1.002563	-0.093843
O2	O	0.755735	1.182786	-0.208056
O3	O	0.940427	0.813401	-0.058830
O4	O	0.948849	0.989663	-0.208050
O5	O	0.740675	1.019816	0.058871
O6	O	1.101186	0.989655	-0.208046
O7	O	0.747313	1.006524	-0.058836
O8	O	1.086121	0.674355	0.058882
O9	O	0.755740	1.335117	-0.208057
O10	O	1.072600	0.894510	-0.043895
O11	O	0.953958	0.904436	0.043945
O12	O	0.963874	1.111962	-0.131742
O13	O	0.845233	1.121888	-0.043902
Zr14	Zr	1.129469	1.023750	0.093893
Zr15	Zr	1.140057	1.002550	-0.093836
Zr16	Zr	0.886509	1.023762	0.093886
Zr17	Zr	0.897105	1.245513	-0.093844
Zr18	Zr	1.129461	0.780800	0.093894
O19	O	1.086139	1.212911	0.058880
O20	O	1.101193	1.182768	-0.208046
O21	O	0.740681	1.212929	0.058870
O22	O	1.270831	0.843526	0.208106
O23	O	1.285885	0.813383	-0.058820
O24	O	0.925373	0.843544	0.208096
O25	O	1.285891	1.006496	-0.058821
O26	O	1.077717	1.036649	0.208100
O27	O	0.925380	1.036657	0.208095
O28	O	1.279253	1.019788	0.058886
O29	O	0.948861	1.335107	-0.208051
O30	O	1.077705	0.691205	0.208101
O31	O	1.270826	0.691195	0.208106
O32	O	1.279241	0.674345	0.058887
O33	O	0.747325	1.351967	-0.058838
O34	O	0.940445	1.351957	-0.058832
O35	O	1.062692	0.914350	0.131792
O36	O	1.181333	0.904424	0.043952
O37	O	1.072607	1.121876	-0.043896
O38	O	0.953966	1.131802	0.043944
C39	C	1.013273	0.709263	0.000026
C40	C	1.013269	0.606124	0.000026
C41	C	0.938437	0.573096	0.055434
C42	C	0.938749	0.465494	0.055728
C43	C	1.134595	0.375931	0.040147
C44	C	1.134162	0.483224	0.040568
C45	C	0.967806	0.643055	-0.095538
C46	C	0.965319	0.536898	-0.095395
C47	C	0.709377	1.013172	0.000016
C48	C	0.606235	1.013177	0.000013
C49	C	0.390979	1.150340	-0.055113
C50	C	0.498229	1.150402	-0.055423
C51	C	0.605188	0.937384	-0.040398
C52	C	0.497442	0.938249	-0.040802
C53	C	0.491111	0.950701	0.095621
C54	C	0.597089	0.953387	0.095470
C55	C	1.317189	1.013140	0.000033
C56	C	1.420331	1.013135	0.000036
C57	C	1.026526	0.986639	-0.234795
C58	C	1.031021	0.977639	-0.314491
C59	C	1.013293	1.317049	0.000024
C60	C	1.013296	1.420188	0.000023
C61	C	0.987314	1.065098	-0.539523
C62	C	1.039249	0.961220	-0.460424
C63	C	1.034669	0.970358	-0.379220
C64	C	0.991893	1.055961	-0.620736
C65	C	1.000040	1.039673	0.234845
C66	C	0.995545	1.048673	0.314541
C67	C	1.317178	0.709247	0.000035
C68	C	1.420318	0.606103	0.000038
C69	C	1.000029	0.735780	0.234846
C70	C	0.995531	0.641641	0.314542
C71	C	1.303935	0.735764	0.234855
C72	C	1.402580	0.641620	0.314554
C73	C	0.722631	1.290548	-0.234805
C74	C	0.623986	1.384692	-0.314504
C75	C	0.709387	1.317065	0.000015
C76	C	0.606248	1.420209	0.000012
C77	C	1.026536	1.290532	-0.234796
C78	C	1.031034	1.384671	-0.314493
C79	C	1.050176	0.602608	0.397831
C80	C	1.045945	0.514169	0.472721
C81	C	0.987075	0.464758	0.464321
C82	C	0.932424	0.503799	0.381023
C83	C	0.936649	0.592243	0.306135
C84	C	1.510844	0.592228	0.306130
C85	C	1.603541	0.503782	0.381008
C86	C	1.587971	0.464724	0.464310
C87	C	1.479695	0.514125	0.472732
C88	C	1.387001	0.602576	0.397855
C89	C	0.515722	1.434096	-0.306080
C90	C	0.423025	1.522572	-0.380959
C91	C	0.438595	1.561636	-0.464260
C92	C	0.546871	1.512228	-0.472683
C93	C	0.639565	1.423760	-0.397805
C94	C	1.089914	1.434055	-0.306064
C95	C	1.094163	1.522496	-0.380940
C96	C	1.039524	1.561559	-0.464243
C97	C	0.980642	1.512165	-0.472670
C98	C	0.976401	1.423719	-0.397795
C99	C	1.635573	0.466007	0.055158
C100	C	1.528327	0.572968	0.055472
C101	C	1.421363	0.483812	0.040449
C102	C	1.529106	0.376477	0.040849
C103	C	1.535432	0.536045	-0.095575
C104	C	1.429458	0.644537	-0.095421
H105	H	0.875975	0.572967	-0.125372
O106	O	0.698612	0.821388	0.154483
H107	H	0.689436	0.782014	0.221291
H108	H	0.499761	1.198668	-0.125933
H109	H	1.504570	0.342283	0.003273
H110	H	0.928450	1.383520	-0.404671
O111	O	1.157666	1.575765	-0.371836
H112	H	1.225079	1.553538	-0.403734
O113	O	1.604207	0.583411	-0.140293
H114	H	1.552432	0.665080	-0.207560
O115	O	1.687958	0.369311	0.545066
H116	H	1.685664	0.285471	0.584606
H117	H	0.727717	1.383535	-0.404675
H118	H	0.849291	0.499004	0.028841
O119	O	0.982532	0.369360	0.545101
H120	H	0.932411	0.341556	0.525275
H121	H	0.939416	1.160886	-0.546255
H122	H	1.510311	0.506596	-0.136859
O123	O	1.270229	0.655820	0.406945
H124	H	1.274987	0.613778	0.477451
O125	O	0.529926	0.804479	0.008948
H126	H	0.495061	0.788859	0.065325
O127	O	0.877713	0.634325	0.216304
H128	H	0.890526	0.704133	0.165632
H129	H	1.087146	0.865424	-0.453692
H130	H	0.503023	1.402295	-0.238258
H131	H	1.134409	1.402265	-0.238240
H132	H	0.334871	1.562785	-0.374084
O133	O	0.338613	1.657053	-0.545020
H134	H	0.340905	1.740896	-0.584554
H135	H	1.042985	1.633579	-0.525204
O136	O	0.563658	1.554355	-0.562532
H137	H	0.481007	1.624159	-0.613176
O138	O	0.921698	1.554314	-0.562522
H139	H	0.934533	1.624126	-0.613163
O140	O	1.720317	0.450493	0.371915
H141	H	1.715561	0.492498	0.301409
O142	O	0.819603	0.686600	0.020021
H143	H	0.812602	0.767773	-0.037446
H144	H	0.884493	0.463555	0.374196
O145	O	1.532482	0.687272	0.019576
H146	H	1.611289	0.666473	0.001840
O147	O	1.709070	0.511294	0.019448
H148	H	1.725470	0.501623	-0.037987
H149	H	0.681296	0.836202	-0.002164
H150	H	1.686604	0.384253	0.125242
O151	O	1.527662	0.634344	0.216291
H152	H	1.445025	0.704143	0.165628
O153	O	0.979519	0.536037	0.148266
H154	H	1.053005	0.541037	0.155115
H155	H	1.526807	0.543464	0.125983
H156	H	0.451066	0.980925	-0.111140
H157	H	1.575483	0.293665	0.111185
H158	H	0.516218	0.849704	0.136906
O159	O	0.980288	0.358185	0.149100
H160	H	1.000237	0.383029	0.194220
H161	H	1.345252	0.501744	0.002216
H162	H	1.415299	0.453121	0.110119
O163	O	0.494070	1.228490	-0.019529
H164	H	0.566608	1.169063	0.039558
H165	H	0.611254	0.978991	-0.110068
H166	H	1.431684	0.731613	-0.125608
O167	O	1.113670	0.655899	0.406902
H168	H	1.150940	0.613898	0.477406
O169	O	1.030674	0.502127	-0.154639
H170	H	1.098673	0.400663	-0.116832
O171	O	1.182785	0.439694	0.133703
H172	H	1.206381	0.342362	0.178018
H173	H	1.352813	0.671635	-0.139967
O174	O	1.104913	0.472064	0.562553
H175	H	1.042967	0.494785	0.598868
O176	O	1.211650	0.507044	-0.009446
H177	H	1.249272	0.441943	-0.033820
O178	O	1.462916	0.471969	0.562584
H179	H	1.502197	0.494648	0.598901
O180	O	1.211366	0.332412	-0.010758
H181	H	1.214816	0.252784	-0.008739
H182	H	0.880056	0.732856	-0.129084
O183	O	1.183681	0.263912	0.132390
H184	H	1.130574	0.290051	0.173365
O185	O	1.039734	0.671654	-0.150484
H186	H	1.107529	0.659655	-0.109982
H187	H	0.335504	1.209678	-0.028143
O188	O	0.323428	1.214056	-0.147961
H189	H	0.310667	1.148428	-0.155000
H190	H	0.594870	1.008732	0.125660
O191	O	0.422346	1.016547	0.140342
H192	H	0.336944	1.094516	0.094933
