data_functionalizedCrystal
_audit_creation_method	'MofGen! by Chris Wilmer'
_symmetry_space_group_name_H-M	'P1'
_symmetry_Int_Tables_number	1
_symmetry_cell_setting	triclinic
loop_
_symmetry_equiv_pos_as_xyz
  x,y,z
_cell_length_a	12.594516
_cell_length_b	11.169417
_cell_length_c	11.169409
_cell_angle_alpha	89.980176
_cell_angle_beta	90.031354
_cell_angle_gamma	89.983069
loop_
_atom_site_label
_atom_site_type_symbol
_atom_site_fract_x
_atom_site_fract_y
_atom_site_fract_z
Zn1	Zn	-0.423631	-1.834915	0.678551
Zn2	Zn	0.076369	-1.334915	1.178551
Zn3	Zn	-0.601657	-1.834784	0.477871
Zn4	Zn	-0.101657	-1.334784	0.977871
Zn5	Zn	-0.423696	-1.634201	0.477885
Zn6	Zn	0.076304	-1.134201	0.977885
Zn7	Zn	-0.601571	-1.634188	0.678516
Zn8	Zn	-0.101571	-1.134188	1.178516
O9	O	-0.512639	-1.734522	0.578206
O10	O	-0.012639	-1.234522	1.078206
O11	O	-0.447256	-2.002847	0.651939
O12	O	0.052744	-1.502847	1.151939
O13	O	-0.578114	-1.808127	0.309923
O14	O	-0.078114	-1.308127	0.809923
O15	O	-0.274741	-1.660886	0.504524
O16	O	0.225259	-1.160886	1.004524
O17	O	-0.578051	-2.002751	0.504501
O18	O	-0.078051	-1.502751	1.004501
O19	O	-0.274694	-1.808349	0.651953
O20	O	0.225306	-1.308349	1.151953
O21	O	-0.447366	-1.660759	0.309934
O22	O	0.052634	-1.160759	0.809934
O23	O	-0.447282	-1.466249	0.504491
O24	O	0.052718	-0.966249	1.004491
O25	O	-0.577903	-1.660864	0.846471
O26	O	-0.077903	-1.160864	1.346471
O27	O	-0.577966	-1.466240	0.651893
O28	O	-0.077966	-0.966240	1.151893
O29	O	-0.447172	-1.808337	0.846496
O30	O	0.052828	-1.308337	1.346496
O31	O	-0.750592	-1.808115	0.504467
O32	O	-0.250592	-1.308115	1.004467
O33	O	-0.750528	-1.660738	0.651880
O34	O	-0.250528	-1.160738	1.151880
C35	C	-0.789180	-1.734443	0.578194
C36	C	-0.289180	-1.234443	1.078194
C37	C	-0.907485	-1.734519	0.578229
C38	C	-0.407485	-1.234519	1.078229
C39	C	-0.512623	-1.422697	0.578190
C40	C	-0.012623	-0.922697	1.078190
C41	C	-0.512641	-1.289297	0.578212
C42	C	-0.012641	-0.789297	1.078212
C43	C	-0.512520	-1.734614	0.891249
C44	C	-0.012520	-1.234614	1.391249
C45	C	-0.512470	-1.734653	1.024649
C46	C	-0.012470	-1.234653	1.524649
C47	C	-0.976742	-1.654353	0.658351
C48	C	-0.476742	-1.154353	1.158351
C49	C	-1.047617	-1.625107	0.548838
C50	C	-0.547617	-1.125107	1.048838
C51	C	-1.047410	-1.763875	0.687761
C52	C	-0.547410	-1.263875	1.187761
C53	C	-0.976801	-1.705215	0.468658
C54	C	-0.476801	-1.205215	0.968658
C55	C	-0.976588	-1.844034	0.607656
C56	C	-0.476588	-1.344034	1.107656
C57	C	-1.047430	-1.814829	0.498067
C58	C	-0.547430	-1.314829	0.998067
C59	C	-0.235018	-1.734634	0.578244
C60	C	0.264982	-1.234634	1.078244
C61	C	-0.116712	-1.734681	0.578260
C62	C	0.383288	-1.234681	1.078260
C63	C	-0.512656	-2.047564	0.578222
C64	C	-0.012656	-1.547564	1.078222
C65	C	-0.512663	-2.180964	0.578229
C66	C	-0.012663	-1.680964	1.078229
C67	C	-0.512680	-1.734499	0.266381
C68	C	-0.012680	-1.234499	0.766381
C69	C	-0.512430	-1.734692	0.132982
C70	C	-0.012430	-1.234692	0.632982
H71	H	-0.945703	-1.586438	0.726008
H72	H	-0.445703	-1.086438	1.226008
H73	H	-0.945914	-1.680344	0.376015
H74	H	-0.445914	-1.180344	0.876015
H75	H	-1.078839	-1.532568	0.523974
H76	H	-0.578839	-1.032568	1.023974
O77	O	-1.088295	-1.904728	0.408243
O78	O	-0.588295	-1.404728	0.908243
H79	H	-1.059863	-1.880147	0.317463
H80	H	-0.559863	-1.380147	0.817463
H81	H	-0.945368	-1.936553	0.632572
H82	H	-0.445368	-1.436553	1.132572
H83	H	-1.078426	-1.788639	0.780379
H84	H	-0.578426	-1.288639	1.280379
