data_functionalizedCrystal
_audit_creation_method	'MofGen! by Chris Wilmer'
_symmetry_space_group_name_H-M	'P1'
_symmetry_Int_Tables_number	1
_symmetry_cell_setting	triclinic
loop_
_symmetry_equiv_pos_as_xyz
  x,y,z
_cell_length_a	15.995350
_cell_length_b	12.503572
_cell_length_c	14.044220
_cell_angle_alpha	86.156832
_cell_angle_beta	91.659374
_cell_angle_gamma	86.485305
loop_
_atom_site_label
_atom_site_type_symbol
_atom_site_fract_x
_atom_site_fract_y
_atom_site_fract_z
O1	O	1.124525	-0.089231	-0.116702
O2	O	0.881878	-0.089254	-0.131788
O3	O	0.999559	-0.089232	0.013739
O4	O	1.006844	-0.089253	-0.262229
O5	O	0.990710	0.089408	0.002777
O6	O	0.873029	0.089386	-0.142751
O7	O	1.115676	0.089409	-0.127664
Cu8	Cu	0.993545	0.105709	-0.136208
Cu9	Cu	1.004010	-0.105554	-0.123244
O10	O	0.997995	0.089387	-0.273191
C11	C	0.846212	0.000064	-0.136645
C12	C	0.753123	0.000055	-0.134775
N13	N	0.986190	0.254300	-0.145326
N14	N	1.011370	-0.254145	-0.114118
C15	C	0.414873	0.000078	-0.128061
C16	C	0.454546	0.000484	-0.024443
C17	C	0.551396	0.000074	-0.026288
C18	C	0.582682	0.000067	-0.131391
C19	C	0.550467	-0.101944	-0.176251
C20	C	0.453640	-0.102022	-0.173643
C21	C	0.443398	0.101125	-0.188250
C22	C	0.540276	0.102466	-0.188308
C23	C	0.677521	0.000058	-0.133279
C24	C	0.320034	0.000081	-0.126176
C25	C	1.151342	0.000089	-0.122807
C26	C	1.244432	0.000090	-0.124677
C27	C	0.991946	0.000088	0.043572
C28	C	0.982435	0.000088	0.148798
C29	C	0.975372	0.473413	-0.158747
C30	C	1.022186	0.526749	-0.100701
C31	C	1.016166	0.648671	-0.108168
C32	C	0.981391	0.351480	-0.151281
C33	C	1.005609	0.000065	-0.303024
C34	C	1.015120	0.000057	-0.408250
C35	C	0.965048	0.000071	0.341460
C36	C	1.032504	0.000074	0.399093
C37	C	1.022829	0.000065	0.506297
C38	C	0.974721	0.000081	0.234246
H39	H	0.573201	0.073201	0.009407
H40	H	0.930777	0.519312	-0.214048
H41	H	1.097524	0.000008	0.367926
H42	H	0.429305	0.073642	0.012496
H43	H	0.435475	-0.072263	0.021259
H44	H	1.066785	0.480844	-0.045397
H45	H	0.436325	-0.178274	-0.131684
H46	H	0.579860	-0.073174	0.018662
H47	H	0.427305	-0.106656	-0.249451
H48	H	0.900036	0.000063	0.372630
H49	H	0.570547	-0.105743	-0.253235
H50	H	0.416502	0.178448	-0.159112
H51	H	0.579949	-0.177859	-0.136087
H52	H	0.561067	0.177934	-0.155622
H53	H	0.561060	0.108623	-0.265331
H54	H	0.417310	0.101810	-0.264707
