data_functionalizedCrystal
_audit_creation_method	'MofGen! by Chris Wilmer'
_symmetry_space_group_name_H-M	'P1'
_symmetry_Int_Tables_number	1
_symmetry_cell_setting	triclinic
loop_
_symmetry_equiv_pos_as_xyz
  x,y,z
_cell_length_a	29.839131
_cell_length_b	19.077105
_cell_length_c	19.077174
_cell_angle_alpha	94.516248
_cell_angle_beta	87.729939
_cell_angle_gamma	87.737628
loop_
_atom_site_label
_atom_site_type_symbol
_atom_site_fract_x
_atom_site_fract_y
_atom_site_fract_z
Zn1	Zn	0.218280	-1.093604	-0.441818
Zn2	Zn	0.290261	-1.088756	-0.323922
Zn3	Zn	0.212000	-0.970992	-0.319217
Zn4	Zn	0.290232	-0.975650	-0.437040
O5	O	0.252693	-1.032251	-0.380499
O6	O	0.230469	-1.191610	-0.430148
O7	O	0.277264	-1.069156	-0.224649
O8	O	0.149969	-0.987337	-0.335510
O9	O	0.283353	-1.188048	-0.343531
O10	O	0.154583	-1.077420	-0.425585
O11	O	0.219766	-0.982636	-0.221191
O12	O	0.219737	-0.872961	-0.330877
O13	O	0.283303	-0.995275	-0.536324
O14	O	0.277214	-0.876383	-0.417442
O15	O	0.230441	-1.081936	-0.539834
O16	O	0.353121	-1.073672	-0.338898
O17	O	0.353100	-0.990574	-0.422005
C18	C	0.369412	-1.032122	-0.380459
C19	C	0.419346	-1.032132	-0.380468
C20	C	0.247791	-0.849094	-0.373131
C21	C	0.245705	-0.770739	-0.369995
C22	C	0.135520	-1.032400	-0.380556
C23	C	0.085588	-1.032463	-0.380580
C24	C	0.728996	-1.075605	-0.337295
C25	C	0.916672	-1.075693	-0.337326
O26	O	0.940939	-1.112552	-0.300587
N27	N	0.940141	-1.032399	-0.380559
C28	C	0.916687	-0.989083	-0.423790
O29	O	0.940955	-0.952267	-0.460568
C30	C	0.729012	-0.988999	-0.423763
C31	C	0.705546	-1.032291	-0.380522
C32	C	0.705530	-1.118893	-0.294058
C33	C	0.658614	-1.118868	-0.294048
C34	C	0.635163	-1.075554	-0.337275
C35	C	0.658630	-1.032266	-0.380511
C36	C	0.705560	-0.945688	-0.466997
C37	C	0.658638	-0.945672	-0.466988
C38	C	0.635172	-0.988964	-0.423747
C39	C	0.588263	-0.988926	-0.423728
N40	N	0.564795	-1.032220	-0.380495
C41	C	0.588245	-1.075534	-0.337268
C42	C	1.015219	-0.989129	-0.423801
C43	C	1.062138	-0.989149	-0.423807
C44	C	1.062120	-1.075760	-0.337343
C45	C	1.015200	-1.075736	-0.337334
C46	C	0.991751	-1.032423	-0.380568
C47	C	0.489717	-1.075477	-0.337250
C48	C	0.442797	-1.075446	-0.337242
C49	C	0.442819	-0.988839	-0.423708
C50	C	0.489735	-0.988867	-0.423714
C51	C	0.513183	-1.032192	-0.380483
O52	O	0.563968	-0.952092	-0.460453
O53	O	0.563970	-1.112357	-0.300507
C54	C	0.775913	-1.075630	-0.337305
C55	C	0.799379	-1.032341	-0.380542
C56	C	0.775929	-0.989028	-0.423769
C57	C	0.846297	-1.032361	-0.380548
C58	C	0.869747	-1.075675	-0.337321
C59	C	0.846279	-1.118969	-0.294088
C60	C	0.799363	-1.118944	-0.294078
C61	C	0.799397	-0.945734	-0.467001
C62	C	0.846313	-0.945762	-0.467007
C63	C	0.869763	-0.989076	-0.423781
C64	C	0.257569	-1.039666	-0.564373
C65	C	0.259647	-1.042826	-0.642729
C66	C	0.257615	-1.216123	-0.387897
C67	C	0.259712	-1.294478	-0.391050
C68	C	0.274692	-0.735725	-0.413521
C69	C	0.272726	-0.662102	-0.410578
C70	C	0.241776	-0.623495	-0.364105
C71	C	0.212786	-0.658514	-0.320578
C72	C	0.214750	-0.732136	-0.323525
C73	C	0.232687	-0.403119	-0.350470
C74	C	0.230726	-0.329492	-0.347525
C75	C	0.290665	-0.333085	-0.437525
C76	C	0.292628	-0.406708	-0.440465
C77	C	0.263637	-0.441721	-0.396941
N78	N	0.239767	-0.548241	-0.361094
N79	N	0.265644	-0.516973	-0.399956
C80	C	0.230687	-0.999266	-0.677740
C81	C	0.232643	-1.002232	-0.751363
C82	C	0.263557	-1.048762	-0.789974
C83	C	0.292519	-1.092324	-0.754958
C84	C	0.290565	-1.089354	-0.681336
C85	C	0.272613	-1.062473	-1.010355
C86	C	0.274564	-1.065442	-1.083982
C87	C	0.214688	-0.975348	-1.080382
C88	C	0.212735	-0.972385	-1.006759
C89	C	0.241699	-1.015944	-0.971749
N90	N	0.265556	-1.051797	-0.865230
N91	N	0.239702	-1.012905	-0.896495
C92	C	0.247805	-1.024905	-0.197343
C93	C	0.245605	-1.021882	-0.118993
H94	H	0.423692	-1.110699	-0.302027
C95	C	0.632807	-1.166498	-0.246491
H96	H	0.653499	-1.192299	-0.220758
H97	H	0.612992	-1.138318	-0.214662
H98	H	0.616017	-1.198276	-0.274722
C99	C	0.322420	-1.137269	-0.642823
H100	H	0.341109	-1.165411	-0.676362
H101	H	0.340509	-1.109117	-0.613009
H102	H	0.305295	-1.166852	-0.615347
H103	H	0.187584	-0.627075	-0.282742
C104	C	0.196686	-0.948076	-0.635274
H105	H	0.179723	-0.922552	-0.666672
H106	H	0.177070	-0.973901	-0.607645
H107	H	0.212293	-0.916179	-0.605313
C108	C	0.196676	-0.287025	-0.296407
H109	H	0.179689	-0.318422	-0.270912
H110	H	0.212247	-0.257041	-0.264490
H111	H	0.177082	-0.259422	-0.322291
C112	C	0.326688	-0.449173	-0.491557
H113	H	0.323714	-0.498033	-0.487065
H114	H	0.321115	-0.439051	-0.538470
H115	H	0.356259	-0.436638	-0.480637
H116	H	0.314267	-0.304570	-0.472962
H117	H	0.724618	-1.154168	-0.258857
H118	H	0.191144	-0.760643	-0.288086
C119	C	0.200785	-0.954320	-0.789873
H120	H	0.182091	-0.926190	-0.756334
H121	H	0.217907	-0.924738	-0.817349
H122	H	0.182696	-0.982478	-0.819687
C123	C	0.872080	-1.166612	-0.246539
H124	H	0.903383	-1.160425	-0.252746
H125	H	0.862881	-1.154423	-0.198749
H126	H	0.865900	-1.214386	-0.258803
H127	H	0.187564	-0.934493	-0.975326
H128	H	0.423718	-0.953571	-0.458901
C129	C	0.182833	-0.927432	-1.118891
H130	H	0.164141	-0.899298	-1.085351
H131	H	0.199957	-0.897853	-1.146367
H132	H	0.164741	-0.955585	-1.148705
H133	H	0.299738	-1.103335	-1.115418
H134	H	0.780307	-0.910463	-0.502203
H135	H	0.296202	-1.097934	-0.981858
C136	C	0.326521	-1.143512	-0.797425
H137	H	0.343490	-1.169026	-0.766027
H138	H	0.310919	-1.175407	-0.827387
H139	H	0.346138	-1.117679	-0.825052
C140	C	0.989392	-1.123361	-0.289775
H141	H	1.010082	-1.149161	-0.264037
H142	H	0.969576	-1.095178	-0.257950
H143	H	0.972602	-1.155142	-0.318004
C144	C	1.087920	-1.123402	-0.289792
H145	H	1.119224	-1.117212	-0.295995
H146	H	1.078719	-1.111214	-0.242003
H147	H	1.081742	-1.171177	-0.302058
C148	C	0.515503	-1.123128	-0.289692
H149	H	0.494802	-1.148897	-0.263938
H150	H	0.535316	-1.154925	-0.317913
H151	H	0.532294	-1.094950	-0.257869
C152	C	0.632847	-0.898028	-0.514547
H153	H	0.653545	-0.872248	-0.540295
H154	H	0.616053	-0.926200	-0.546364
H155	H	0.613035	-0.866229	-0.486317
C156	C	0.304637	-0.623588	-0.458413
H157	H	0.323362	-0.657124	-0.486493
H158	H	0.287559	-0.596113	-0.488045
H159	H	0.322692	-0.593772	-0.430196
C160	C	1.087945	-0.941524	-0.471367
H161	H	1.067256	-0.915733	-0.497114
H162	H	1.104739	-0.909748	-0.443149
H163	H	1.107757	-0.969719	-0.503196
H164	H	0.724658	-0.910432	-0.502205
C165	C	0.989430	-0.941475	-0.471353
H166	H	1.010131	-0.915691	-0.497092
H167	H	0.972637	-0.969638	-0.503178
H168	H	0.969620	-0.909680	-0.443118
H169	H	0.508843	-0.953618	-0.458926
C170	C	0.773556	-1.166570	-0.246518
H171	H	0.794248	-1.192371	-0.220784
H172	H	0.753742	-1.138387	-0.214690
H173	H	0.756765	-1.198349	-0.274745
H174	H	0.299896	-0.767154	-0.451361
C175	C	0.872123	-0.898141	-0.514576
H176	H	0.903426	-0.904353	-0.508394
H177	H	0.865942	-0.910332	-0.562359
H178	H	0.862929	-0.850359	-0.502314
C179	C	0.200805	-0.441623	-0.302582
H180	H	0.182097	-0.408084	-0.274476
H181	H	0.182738	-0.471462	-0.330746
H182	H	0.217916	-0.469074	-0.272965
