data_functionalizedCrystal
_audit_creation_method	'MofGen! by Chris Wilmer'
_symmetry_space_group_name_H-M	'P1'
_symmetry_Int_Tables_number	1
_symmetry_cell_setting	triclinic
loop_
_symmetry_equiv_pos_as_xyz
  x,y,z
_cell_length_a	10.908937
_cell_length_b	11.026607
_cell_length_c	9.482900
_cell_angle_alpha	78.599815
_cell_angle_beta	83.036371
_cell_angle_gamma	95.664014
loop_
_atom_site_label
_atom_site_type_symbol
_atom_site_fract_x
_atom_site_fract_y
_atom_site_fract_z
O1	O	1.677380	0.201080	-0.120940
O2	O	1.324446	0.110542	-0.120933
O3	O	1.471661	0.326560	-0.120931
O4	O	1.530164	-0.014939	-0.120942
O5	O	1.441792	0.282536	0.120862
O6	O	1.294577	0.066518	0.120860
O7	O	1.647510	0.157056	0.120852
Cu8	Cu	1.468316	0.107768	0.142933
Cu9	Cu	1.503640	0.159830	-0.143014
O10	O	1.500295	-0.058962	0.120850
C11	C	1.263626	0.080069	-0.000035
C12	C	1.126899	0.054871	-0.000032
C13	C	0.915324	0.120786	-0.000056
C14	C	1.056636	0.146827	-0.000037
C15	C	1.445935	0.347581	-0.000036
C16	C	1.413762	0.475804	-0.000040
C17	C	1.708331	0.187530	-0.000049
C18	C	1.845059	0.212729	-0.000061
N19	N	1.443480	0.071152	0.344053
C20	C	1.526022	-0.079983	-0.000048
C21	C	1.558196	-0.208204	-0.000053
C22	C	1.502597	0.567537	-0.000044
C23	C	1.469348	0.700062	-0.000049
N24	N	1.528484	0.196457	-0.344134
C25	C	1.496305	0.149035	0.416253
C26	C	1.475652	0.118563	0.583670
H27	H	1.101092	0.244831	-0.000037
H28	H	1.658887	0.772249	-0.000165
H29	H	1.588997	0.285704	0.593743
H30	H	1.313093	0.495382	-0.000048
H31	H	1.556815	0.238276	0.354126
H32	H	1.415127	0.029323	0.645794
Cl33	Cl	1.350039	-0.066623	0.439966
H34	H	1.082446	-0.043131	-0.000046
Cl35	Cl	0.846693	-0.030514	-0.000087
H36	H	1.603266	0.547959	-0.000038
Cl37	Cl	0.913693	0.364034	-0.000057
Cl38	Cl	1.313911	0.730269	-0.000060
