data_functionalizedCrystal
_audit_creation_method	'MofGen! by Chris Wilmer'
_symmetry_space_group_name_H-M	'P1'
_symmetry_Int_Tables_number	1
_symmetry_cell_setting	triclinic
loop_
_symmetry_equiv_pos_as_xyz
  x,y,z
_cell_length_a	11.792241
_cell_length_b	11.792241
_cell_length_c	8.140239
_cell_angle_alpha	90.003307
_cell_angle_beta	89.997269
_cell_angle_gamma	84.193416
loop_
_atom_site_label
_atom_site_type_symbol
_atom_site_fract_x
_atom_site_fract_y
_atom_site_fract_z
O1	O	1.506904	0.155566	0.136455
O2	O	1.176563	0.171599	0.136493
O3	O	1.349750	-0.001588	0.136461
O4	O	1.333717	0.328753	0.136486
O5	O	1.349744	-0.001590	-0.136766
O6	O	1.176557	0.171597	-0.136734
O7	O	1.506898	0.155564	-0.136773
Zn8	Zn	1.341727	0.163581	-0.180134
Zn9	Zn	1.341734	0.163582	0.179854
O10	O	1.333711	0.328751	-0.136741
C11	C	1.134269	0.170591	-0.000116
C12	C	1.008255	0.167576	-0.000101
C13	C	1.348740	-0.043880	-0.000152
C14	C	1.345726	-0.169894	-0.000150
C15	C	1.340183	-0.400606	-0.000122
C16	C	1.343262	-0.272221	-0.000137
C17	C	0.777543	0.162034	-0.000149
C18	C	0.905928	0.165113	-0.000123
C19	C	1.549192	0.156572	-0.000160
C20	C	1.675206	0.159587	-0.000164
C21	C	1.334721	0.371043	-0.000124
C22	C	1.337736	0.497057	-0.000116
N23	N	1.341730	0.163579	-0.425817
N24	N	1.341740	0.163575	0.425537
