data_functionalizedCrystal
_audit_creation_method	'MofGen! by Chris Wilmer'
_symmetry_space_group_name_H-M	'P1'
_symmetry_Int_Tables_number	1
_symmetry_cell_setting	triclinic
loop_
_symmetry_equiv_pos_as_xyz
  x,y,z
_cell_length_a	14.853567
_cell_length_b	17.666332
_cell_length_c	14.853567
_cell_angle_alpha	89.997328
_cell_angle_beta	96.365070
_cell_angle_gamma	90.006378
loop_
_atom_site_label
_atom_site_type_symbol
_atom_site_fract_x
_atom_site_fract_y
_atom_site_fract_z
O1	O	1.196371	0.062890	-0.117706
O2	O	0.933911	0.062902	-0.131727
O3	O	1.072152	0.062898	0.006513
O4	O	1.058130	0.062894	-0.255946
O5	O	1.072128	-0.062999	0.006521
O6	O	0.933887	-0.062995	-0.131720
O7	O	1.196347	-0.063007	-0.117698
Cu8	Cu	1.065115	-0.074496	-0.124708
Cu9	Cu	1.065143	0.074391	-0.124717
O10	O	1.058106	-0.063003	-0.255939
C11	C	0.900311	-0.000045	-0.131088
C12	C	0.800227	-0.000040	-0.129184
C13	C	0.387693	-0.000056	-0.039019
C14	C	0.366412	-0.000057	-0.203251
C15	C	0.460446	-0.000055	-0.205041
C16	C	0.518108	-0.000052	-0.123819
C17	C	0.481736	-0.000051	-0.040806
C18	C	0.496825	-0.000048	-0.288053
C19	C	0.590864	-0.000045	-0.289846
C20	C	0.648528	-0.000047	-0.208623
C21	C	0.612150	-0.000047	-0.125607
C22	C	0.669812	-0.000044	-0.044384
C23	C	0.633437	-0.000049	0.038633
C24	C	0.539399	-0.000053	0.040417
C25	C	0.742565	-0.000043	-0.210407
C26	C	0.763855	-0.000039	-0.046172
N27	N	1.065101	-0.179216	-0.124702
C28	C	1.126334	-0.218827	-0.063519
C29	C	1.126339	-0.298075	-0.063514
C30	C	1.065120	-0.337708	-0.124708
C31	C	1.003876	-0.298087	-0.185896
C32	C	1.003866	-0.218841	-0.185893
N33	N	1.053744	-0.462127	-0.204466
N34	N	1.053759	-0.537408	-0.204467
C35	C	1.065144	-0.576472	-0.124721
N36	N	1.076532	-0.537412	-0.044972
N37	N	1.076522	-0.462124	-0.044973
C38	C	1.065123	-0.423637	-0.124719
C39	C	1.126386	-0.702013	-0.063529
C40	C	1.126385	-0.781262	-0.063523
C41	C	1.003926	-0.781272	-0.185912
C42	C	1.003923	-0.702025	-0.185910
C43	C	1.065157	-0.662400	-0.124719
C44	C	1.229947	-0.000059	-0.118337
C45	C	1.330031	-0.000059	-0.120241
C46	C	1.071504	-0.000048	0.040106
C47	C	1.069601	-0.000042	0.140189
N48	N	1.065164	0.179110	-0.124717
C49	C	1.058754	-0.000055	-0.289531
C50	C	1.060657	-0.000057	-0.389615
C51	C	0.979435	-0.000052	0.552723
C52	C	1.143668	-0.000060	0.574004
C53	C	1.145458	-0.000055	0.479971
C54	C	1.064235	-0.000050	0.422309
C55	C	0.981223	-0.000050	0.458680
C56	C	1.228469	-0.000063	0.443591
C57	C	1.230262	-0.000060	0.349552
C58	C	1.149039	-0.000050	0.291889
C59	C	1.066023	-0.000048	0.328266
C60	C	0.984800	-0.000043	0.270604
C61	C	0.901783	-0.000037	0.306979
C62	C	0.899999	-0.000040	0.401017
C63	C	1.150823	-0.000047	0.197851
C64	C	0.986588	-0.000041	0.176561
H65	H	0.319459	-0.000054	-0.269379
H66	H	0.449870	-0.000043	-0.354180
H67	H	1.176244	-0.669749	-0.013700
H68	H	1.297860	-0.000064	0.319944
H69	H	0.509774	-0.000076	0.108005
C70	C	0.936511	-0.175263	-0.253202
C71	C	0.869193	-0.218850	-0.320543
C72	C	0.801839	-0.175269	-0.387854
C73	C	0.801804	-0.088102	-0.387826
C74	C	0.869124	-0.044510	-0.320483
C75	C	0.936478	-0.088090	-0.253171
H76	H	0.869218	-0.283381	-0.320566
H77	H	0.752004	-0.207540	-0.437706
H78	H	0.751944	-0.055841	-0.437654
H79	H	0.869100	0.020021	-0.320460
H80	H	0.986313	-0.055820	-0.203320
H81	H	1.209795	-0.000070	0.620958
C82	C	0.808690	-0.000038	0.441036
C83	C	0.741176	-0.065409	0.419330
C84	C	0.649870	-0.065410	0.459356
C85	C	0.626077	-0.000040	0.521088
C86	C	0.693592	0.065335	0.542797
C87	C	0.784898	0.065336	0.502771
H88	H	0.758788	-0.113804	0.373630
H89	H	0.599891	-0.113806	0.443285
H90	H	0.558486	-0.000041	0.550717
H91	H	0.675980	0.113731	0.588497
H92	H	0.834877	0.113732	0.518842
C93	C	1.193704	-0.341658	0.003787
C94	C	1.261084	-0.298071	0.071065
C95	C	1.328451	-0.341650	0.138364
C96	C	1.328438	-0.428818	0.138386
C97	C	1.261055	-0.472411	0.071106
C98	C	1.193689	-0.428831	0.003806
H99	H	1.261096	-0.233540	0.071051
H100	H	1.378331	-0.309380	0.188170
H101	H	1.378306	-0.461078	0.188205
H102	H	1.261044	-0.536942	0.071119
H103	H	1.143808	-0.461102	-0.046000
H104	H	1.294596	-0.000074	0.490546
H105	H	0.810798	-0.000040	0.019971
H106	H	0.680397	-0.000042	0.104764
H107	H	0.358072	-0.000063	0.028572
H108	H	0.920445	-0.000034	0.129618
H109	H	0.620472	-0.000040	-0.357443
H110	H	0.772178	-0.000040	-0.277998
C111	C	1.193744	-0.824840	0.003783
C112	C	1.261117	-0.781253	0.071068
C113	C	1.328477	-0.824833	0.138374
C114	C	1.328464	-0.912000	0.138394
C115	C	1.261089	-0.955593	0.071106
C116	C	1.193729	-0.912013	0.003800
H117	H	1.261128	-0.716722	0.071055
H118	H	1.378352	-0.792562	0.188185
H119	H	1.378329	-0.944261	0.188218
H120	H	1.261078	-1.020124	0.071119
H121	H	1.143854	-0.944283	-0.046010
H122	H	1.176193	-0.186567	-0.013692
H123	H	0.954029	-0.330360	-0.235720
C124	C	0.936574	-0.658445	-0.253221
C125	C	0.869256	-0.702032	-0.320561
C126	C	0.801902	-0.658452	-0.387873
C127	C	0.801866	-0.571284	-0.387845
C128	C	0.869187	-0.527692	-0.320502
C129	C	0.936540	-0.571273	-0.253190
H130	H	0.869280	-0.766563	-0.320585
H131	H	0.752067	-0.690722	-0.437725
H132	H	0.752007	-0.539023	-0.437673
H133	H	0.869162	-0.463161	-0.320479
H134	H	0.986375	-0.539002	-0.203339
H135	H	0.954077	-0.813541	-0.235734
H136	H	0.835652	-0.000038	0.260019
H137	H	0.911844	-0.000044	0.582344
H138	H	1.218414	-0.000057	0.168238
