data_functionalizedCrystal
_audit_creation_method	'MofGen! by Chris Wilmer'
_symmetry_space_group_name_H-M	'P1'
_symmetry_Int_Tables_number	1
_symmetry_cell_setting	triclinic
loop_
_symmetry_equiv_pos_as_xyz
  x,y,z
_cell_length_a	12.759395
_cell_length_b	18.050582
_cell_length_c	12.759394
_cell_angle_alpha	89.980122
_cell_angle_beta	90.015525
_cell_angle_gamma	89.986559
loop_
_atom_site_label
_atom_site_type_symbol
_atom_site_fract_x
_atom_site_fract_y
_atom_site_fract_z
Zn1	Zn	1.606185	-0.419897	-0.418314
Zn2	Zn	1.606100	-0.295713	-0.593995
Zn3	Zn	1.430508	-0.295724	-0.418333
Zn4	Zn	1.430475	-0.419865	-0.593954
O5	O	1.518317	-0.357800	-0.506149
O6	O	1.753195	-0.403433	-0.441628
O7	O	1.582785	-0.191790	-0.570718
O8	O	1.453861	-0.312215	-0.271309
O9	O	1.753132	-0.312195	-0.570700
O10	O	1.582930	-0.403444	-0.271295
O11	O	1.453778	-0.191798	-0.441660
O12	O	1.283482	-0.312183	-0.441620
O13	O	1.453805	-0.523794	-0.570630
O14	O	1.283458	-0.403388	-0.570648
O15	O	1.582899	-0.523817	-0.441588
O16	O	1.582753	-0.312164	-0.741010
O17	O	1.453723	-0.403377	-0.740980
C18	C	1.245349	-0.357784	-0.506132
C19	C	1.128573	-0.357795	-0.506150
C20	C	0.909163	-0.452642	-0.640748
C21	C	0.964041	-0.500047	-0.708026
C22	C	1.073763	-0.500038	-0.708013
C23	C	1.128608	-0.452616	-0.640717
C24	C	1.073730	-0.405210	-0.573440
C25	C	0.964006	-0.405226	-0.573458
C26	C	1.073694	-0.310389	-0.438873
C27	C	0.963972	-0.310401	-0.438879
C28	C	1.128539	-0.262967	-0.371578
C29	C	1.073660	-0.215564	-0.304293
C30	C	0.963932	-0.215576	-0.304308
C31	C	0.909093	-0.262995	-0.371601
C32	C	1.518358	-0.551505	-0.506102
C33	C	1.518375	-0.634051	-0.506082
C34	C	1.448228	-0.833489	-0.576159
C35	C	1.544087	-0.882880	-0.601840
C36	C	1.518427	-0.785182	-0.506002
C37	C	1.422621	-0.882873	-0.480293
C38	C	1.518469	-0.931167	-0.505927
C39	C	1.614336	-0.833485	-0.531733
C40	C	1.492806	-0.833474	-0.410141
C41	C	1.588731	-0.882842	-0.435785
C42	C	1.518402	-0.701083	-0.506048
C43	C	1.518505	-1.015264	-0.505880
C44	C	1.792350	-0.357816	-0.506166
C45	C	1.909127	-0.357823	-0.506174
C46	C	1.518254	-0.357782	-0.779116
C47	C	1.518323	-0.357799	-0.895893
C48	C	1.518336	-0.164848	-0.506119
C49	C	1.518522	-0.082302	-0.505843
C50	C	1.652783	-0.262889	-0.895871
C51	C	1.720041	-0.215443	-0.950721
C52	C	1.720102	-0.215463	-1.060443
C53	C	1.652901	-0.262936	-1.115317
C54	C	1.585644	-0.310382	-1.060467
C55	C	1.585587	-0.310356	-0.950743
C56	C	1.451190	-0.405295	-1.060489
C57	C	1.451122	-0.405272	-0.950767
C58	C	1.383989	-0.452768	-1.115363
C59	C	1.316725	-0.500211	-1.060513
C60	C	1.316665	-0.500189	-0.950785
C61	C	1.383864	-0.452718	-0.895917
C62	C	1.518409	-0.357834	-0.232115
C63	C	1.518448	-0.357849	-0.115339
H64	H	0.819752	-0.263013	-0.371615
H65	H	0.819822	-0.452661	-0.640755
H66	H	1.565783	-0.904581	-0.682875
H67	H	1.774874	-0.176832	-1.105101
H68	H	0.919374	-0.538656	-0.762818
H69	H	1.118445	-0.538638	-0.762798
O70	O	1.384145	-0.452910	-1.221946
C71	C	1.411109	-0.524168	-1.379314
C72	C	1.410997	-0.524105	-1.258610
H73	H	1.432794	-0.581728	-1.408994
H74	H	1.470755	-0.482146	-1.409149
H75	H	1.329776	-0.508683	-1.409159
H76	H	1.492285	-0.539609	-1.228675
H77	H	1.351295	-0.566112	-1.228846
H78	H	1.217880	-0.262959	-0.371577
H79	H	1.383815	-0.452690	-0.806576
H80	H	1.262020	-0.538863	-1.105200
H81	H	0.919256	-0.176972	-0.249523
O82	O	1.251235	-0.546306	-0.897669
C83	C	1.117937	-0.640493	-0.909285
C84	C	1.191963	-0.588288	-0.969562
H85	H	1.070012	-0.674460	-0.967384
H86	H	1.062923	-0.606397	-0.858020
H87	H	1.166135	-0.679307	-0.857813
H88	H	1.143850	-0.549463	-1.021091
H89	H	1.246980	-0.622430	-1.020761
O90	O	1.785410	-0.169302	-0.897578
C91	C	1.918722	-0.075120	-0.909138
C92	C	1.844765	-0.127349	-0.969447
H93	H	1.966714	-0.041177	-0.967218
H94	H	1.973677	-0.109195	-0.857718
H95	H	1.870465	-0.036284	-0.857819
H96	H	1.892937	-0.166196	-1.020823
H97	H	1.789807	-0.093228	-1.020801
H98	H	1.217950	-0.452606	-0.640722
O99	O	1.127098	-0.169572	-0.238965
C100	C	1.296120	-0.127495	-0.179363
C101	C	1.235729	-0.179629	-0.253385
H102	H	1.383959	-0.135596	-0.191012
H103	H	1.274654	-0.140647	-0.094651
H104	H	1.274444	-0.067599	-0.197680
H105	H	1.257373	-0.239542	-0.235163
H106	H	1.257200	-0.166413	-0.338076
H107	H	1.341582	-0.904568	-0.458579
O108	O	1.653067	-0.262844	-1.221900
C109	C	1.726987	-0.210839	-1.379343
C110	C	1.726890	-0.210854	-1.258639
H111	H	1.786683	-0.168821	-1.409084
H112	H	1.645689	-0.195345	-1.409276
H113	H	1.748711	-0.268390	-1.409030
H114	H	1.705212	-0.153321	-1.228863
H115	H	1.808198	-0.226390	-1.228777
H116	H	1.388919	-0.811820	-0.635567
H117	H	1.695399	-0.811882	-0.553538
O118	O	1.659793	-0.908504	-0.365085
C119	C	1.841048	-0.912280	-0.312264
C120	C	1.760683	-0.883181	-0.392412
H121	H	1.922632	-0.891806	-0.334317
H122	H	1.840155	-0.975435	-0.312264
H123	H	1.819831	-0.891099	-0.230824
H124	H	1.781844	-0.904308	-0.473892
H125	H	1.761591	-0.820027	-0.392321
H126	H	1.471082	-0.811756	-0.329129
H127	H	1.652726	-0.262858	-0.806530
