data_functionalizedCrystal
_audit_creation_method	'MofGen! by Chris Wilmer'
_symmetry_space_group_name_H-M	'P1'
_symmetry_Int_Tables_number	1
_symmetry_cell_setting	triclinic
loop_
_symmetry_equiv_pos_as_xyz
  x,y,z
_cell_length_a	15.944545
_cell_length_b	15.021413
_cell_length_c	11.026607
_cell_angle_alpha	90.001144
_cell_angle_beta	83.958906
_cell_angle_gamma	89.990408
loop_
_atom_site_label
_atom_site_type_symbol
_atom_site_fract_x
_atom_site_fract_y
_atom_site_fract_z
O1	O	1.138167	0.073971	-0.156465
O2	O	0.896535	0.073985	-0.175769
O3	O	0.997325	0.073976	0.010537
O4	O	1.037377	0.073980	-0.342771
O5	O	0.997341	-0.074089	0.010525
O6	O	0.896551	-0.074079	-0.175781
O7	O	1.138184	-0.074093	-0.156477
Zn8	Zn	1.017370	-0.097595	-0.166131
Zn9	Zn	1.017348	0.097486	-0.166116
O10	O	1.037394	-0.074084	-0.342783
C11	C	0.865128	-0.000046	-0.174975
C12	C	0.771519	-0.000040	-0.172577
N13	N	1.017391	-0.230732	-0.166140
C14	C	0.482346	-0.000051	-0.049928
C15	C	0.541875	-0.073056	-0.109065
C16	C	0.434582	-0.000055	-0.164023
C17	C	0.541843	0.072924	-0.109084
C18	C	0.600130	-0.000046	-0.168219
C19	C	0.492878	-0.073121	-0.223129
C20	C	0.492841	0.072925	-0.223132
C21	C	0.552349	-0.000098	-0.282352
C22	C	0.339214	-0.000061	-0.161602
C23	C	0.695497	-0.000047	-0.170649
C24	C	1.064005	-0.470396	-0.079973
C25	C	0.984542	-0.529721	-0.056401
C26	C	1.017369	-0.412339	-0.166125
C27	C	1.096803	-0.529756	-0.189625
C28	C	1.017355	-0.587763	-0.166108
C29	C	0.937860	-0.470358	-0.142499
C30	C	1.050178	-0.470388	-0.275771
C31	C	0.970667	-0.529686	-0.252246
C32	C	1.017379	-0.311282	-0.166132
C33	C	1.017337	-0.688819	-0.166102
C34	C	1.169590	-0.000061	-0.157271
C35	C	1.263199	-0.000061	-0.159670
C36	C	0.989944	-0.000055	0.055742
C37	C	0.967917	-0.000051	0.190457
N38	N	1.017332	0.230624	-0.166096
C39	C	1.044774	-0.000052	-0.387988
C40	C	1.066801	-0.000050	-0.522704
C41	C	1.028737	-0.000053	0.264260
C42	C	1.005973	-0.000048	0.403495
H43	H	0.563528	-0.134777	-0.060885
C44	C	0.876048	0.000096	0.243805
C45	C	0.859884	0.076265	0.315671
C46	C	0.775265	0.076425	0.364843
H47	H	0.840750	0.000143	0.179573
H48	H	0.864913	-0.051508	0.292666
H49	H	0.871010	0.127855	0.266812
H50	H	0.895161	0.076234	0.379922
H51	H	0.764131	0.024821	0.413705
H52	H	0.739975	0.076469	0.300603
H53	H	0.764289	0.128099	0.413619
C54	C	0.441704	-0.000326	0.081107
C55	C	0.466450	-0.076946	0.140295
C56	C	0.429018	-0.077240	0.260996
H57	H	0.459148	0.050948	0.122180
H58	H	0.382075	0.000157	0.081757
H59	H	0.526067	-0.077420	0.139652
H60	H	0.449006	-0.128233	0.099259
H61	H	0.369389	-0.076757	0.261647
H62	H	0.446465	-0.025962	0.302058
H63	H	0.445797	-0.129229	0.301168
C64	C	0.918156	-0.564239	-0.349537
C65	C	0.969131	-0.615513	-0.433931
C66	C	0.920788	-0.647349	-0.523575
H67	H	0.873376	-0.599889	-0.312478
H68	H	0.895576	-0.515396	-0.390176
H69	H	0.991698	-0.664348	-0.393297
H70	H	1.013910	-0.579881	-0.471021
H71	H	0.898207	-0.598507	-0.564214
H72	H	0.876009	-0.682996	-0.486504
H73	H	0.955368	-0.682135	-0.580852
C74	C	0.464357	-0.155543	-0.287433
C75	C	0.534874	-0.206685	-0.329618
C76	C	0.508633	-0.282613	-0.388868
H77	H	0.427843	-0.189769	-0.231984
H78	H	0.435247	-0.138127	-0.354478
H79	H	0.563971	-0.224103	-0.262582
H80	H	0.571396	-0.172487	-0.385082
H81	H	0.479522	-0.265196	-0.455914
H82	H	0.472118	-0.316830	-0.333412
H83	H	0.556474	-0.317317	-0.417508
H84	H	0.582706	-0.000140	-0.380687
C85	C	0.463963	0.155330	-0.287114
C86	C	0.488560	0.231565	-0.226940
C87	C	0.461960	0.307500	-0.285826
H88	H	0.488898	0.155979	-0.369232
H89	H	0.404291	0.154484	-0.285739
H90	H	0.548220	0.232411	-0.228329
H91	H	0.463627	0.230946	-0.144826
H92	H	0.402288	0.306654	-0.284450
H93	H	0.486897	0.308140	-0.367942
H94	H	0.478638	0.359234	-0.245000
C95	C	0.570548	0.155188	-0.044614
C96	C	0.534828	0.154843	0.076945
C97	C	0.561239	0.230612	0.136376
H98	H	0.630279	0.154960	-0.047106
H99	H	0.552946	0.207054	-0.084259
H100	H	0.552435	0.102992	0.116579
H101	H	0.475099	0.155085	0.079473
H102	H	0.543637	0.282478	0.096732
H103	H	0.620969	0.230377	0.133875
H104	H	0.537001	0.230392	0.218857
H105	H	1.077957	-0.444306	-0.368474
C106	C	1.116382	-0.435547	0.017297
C107	C	1.065599	-0.382980	0.100286
C108	C	1.113816	-0.350851	0.189899
H109	H	1.138226	-0.484230	0.059102
H110	H	1.161692	-0.400711	-0.020018
H111	H	1.020305	-0.417815	0.137598
H112	H	1.043755	-0.334284	0.058518
H113	H	1.159126	-0.316015	0.152584
H114	H	1.135658	-0.399540	0.231694
H115	H	1.079369	-0.315174	0.246211
C116	C	0.947390	-0.564354	0.067242
C117	C	0.864710	-0.532947	0.092439
C118	C	0.830469	-0.564819	0.206337
H119	H	0.947090	-0.627585	0.066256
H120	H	0.980543	-0.544032	0.128408
H121	H	0.831565	-0.553275	0.031289
H122	H	0.864986	-0.469721	0.093450
H123	H	0.863623	-0.544496	0.267503
H124	H	0.830174	-0.628048	0.205340
H125	H	0.774370	-0.543507	0.223453
C126	C	0.848299	-0.435549	-0.115812
C127	C	0.849357	-0.342347	-0.116062
C128	C	0.766874	-0.310249	-0.091473
H129	H	0.815029	-0.456233	-0.176611
H130	H	0.824903	-0.456304	-0.038144
H131	H	0.872742	-0.321601	-0.193720
H132	H	0.882611	-0.321640	-0.055264
H133	H	0.743478	-0.331004	-0.013804
H134	H	0.733610	-0.330939	-0.152274
H135	H	0.767581	-0.247009	-0.091628
C136	C	1.186450	-0.564381	-0.216014
C137	C	1.234997	-0.534301	-0.125576
C138	C	1.317590	-0.566148	-0.149859
H139	H	1.185907	-0.627612	-0.216548
H140	H	1.210095	-0.543141	-0.293300
H141	H	1.211358	-0.555546	-0.048310
H142	H	1.235564	-0.471074	-0.125027
H143	H	1.341235	-0.544907	-0.227145
H144	H	1.317039	-0.629378	-0.150393
H145	H	1.350541	-0.545737	-0.088508
H146	H	1.097660	-0.000062	0.224365
C147	C	0.914099	0.000099	0.456837
C148	C	0.897935	0.076267	0.528704
C149	C	0.813316	0.076427	0.577876
H150	H	0.878801	0.000145	0.392605
H151	H	0.902964	-0.051505	0.505699
H152	H	0.909061	0.127858	0.479845
H153	H	0.933212	0.076237	0.592955
H154	H	0.802182	0.024823	0.626737
H155	H	0.778026	0.076471	0.513636
H156	H	0.802340	0.128102	0.626651
H157	H	1.135729	0.000012	0.437409
