data_functionalizedCrystal
_audit_creation_method	'MofGen! by Chris Wilmer'
_symmetry_space_group_name_H-M	'P1'
_symmetry_Int_Tables_number	1
_symmetry_cell_setting	triclinic
loop_
_symmetry_equiv_pos_as_xyz
  x,y,z
_cell_length_a	8.597282
_cell_length_b	8.559649
_cell_length_c	7.088929
_cell_angle_alpha	84.674985
_cell_angle_beta	103.972939
_cell_angle_gamma	77.625070
loop_
_atom_site_label
_atom_site_type_symbol
_atom_site_fract_x
_atom_site_fract_y
_atom_site_fract_z
O1	O	0.035739	-2.103777	-0.153070
O2	O	0.535739	-1.603777	0.346930
O3	O	-0.046707	-1.638460	-0.166659
O4	O	0.453293	-1.138460	0.333341
O5	O	0.228467	-1.884154	-0.121322
O6	O	0.728467	-1.384154	0.378678
O7	O	-0.239434	-1.858083	-0.198407
O8	O	0.260566	-1.358083	0.301593
O9	O	0.265315	-1.916989	0.202724
O10	O	0.765315	-1.416989	0.702724
O11	O	-0.009858	-1.671295	0.157387
O12	O	0.490142	-1.171295	0.657387
O13	O	0.072587	-2.136612	0.170976
O14	O	0.572587	-1.636612	0.670976
Cu15	Cu	0.034729	-1.906951	0.193769
Cu16	Cu	0.534729	-1.406951	0.693769
Cu17	Cu	-0.008848	-1.868120	-0.189453
Cu18	Cu	0.491152	-1.368120	0.310547
O19	O	-0.202586	-1.890917	0.125639
O20	O	0.297414	-1.390917	0.625639
C21	C	-0.034531	-1.595339	-0.005667
C22	C	0.465469	-1.095339	0.494333
C23	C	-0.053129	-1.417933	-0.008734
C24	C	0.446871	-0.917933	0.491266
C25	C	0.306237	-1.899601	0.050474
C26	C	0.806237	-1.399601	0.550474
C27	C	0.483069	-1.896688	0.079594
C28	C	0.983069	-1.396688	0.579594
N29	N	0.065381	-1.934274	0.463307
N30	N	0.565381	-1.434274	0.963307
C31	C	0.719643	-1.875471	-0.046161
C32	C	1.219643	-1.375471	0.453839
C33	C	0.542811	-1.878383	-0.075290
C34	C	1.042811	-1.378383	0.424710
C35	C	0.060411	-2.179732	0.009979
C36	C	0.560411	-1.679732	0.509979
C37	C	0.079007	-2.357137	0.013033
C38	C	0.579007	-1.857137	0.513033
N39	N	-0.039486	-1.840810	-0.458989
N40	N	0.460514	-1.340810	0.041011
H41	H	0.567202	-1.910127	0.234481
H42	H	1.067202	-1.410127	0.734481
F43	F	0.207424	-2.060908	0.593434
F44	F	0.707424	-1.560908	1.093434
F45	F	0.432831	-1.860792	-0.277757
F46	F	0.932831	-1.360792	0.222243
F47	F	-0.219606	-1.308563	-0.036177
F48	F	0.280394	-0.808563	0.463823
F49	F	0.245473	-1.466496	0.040447
F50	F	0.745473	-0.966496	0.540447
H51	H	-0.148161	-1.743945	0.441460
H52	H	0.351839	-1.243945	0.941460
