data_functionalizedCrystal
_audit_creation_method	'MofGen! by Chris Wilmer'
_symmetry_space_group_name_H-M	'P1'
_symmetry_Int_Tables_number	1
_symmetry_cell_setting	triclinic
loop_
_symmetry_equiv_pos_as_xyz
  x,y,z
_cell_length_a	15.944499
_cell_length_b	23.532407
_cell_length_c	22.610064
_cell_angle_alpha	89.991285
_cell_angle_beta	89.981678
_cell_angle_gamma	83.163143
loop_
_atom_site_label
_atom_site_type_symbol
_atom_site_fract_x
_atom_site_fract_y
_atom_site_fract_z
O1	O	1.113947	0.073308	-0.049226
O2	O	1.613947	0.573308	0.450774
O3	O	0.869315	0.082394	-0.049220
O4	O	1.369315	0.582394	0.450780
O5	O	0.999008	-0.005053	-0.049213
O6	O	1.499008	0.494947	0.450787
O7	O	0.984254	0.160755	-0.049234
O8	O	1.484254	0.660755	0.450766
O9	O	0.998969	-0.005052	0.049157
O10	O	1.498969	0.494948	0.549157
O11	O	0.869276	0.082395	0.049149
O12	O	1.369276	0.582395	0.549149
O13	O	1.113908	0.073309	0.049143
O14	O	1.613908	0.573309	0.549143
Zn15	Zn	0.991586	0.077852	0.064764
Zn16	Zn	1.491586	0.577852	0.564764
Zn17	Zn	0.991638	0.077851	-0.064841
Zn18	Zn	1.491638	0.577851	0.435159
O19	O	0.984215	0.160756	0.049135
O20	O	1.484215	0.660756	0.549135
C21	C	0.838004	0.082023	-0.000035
C22	C	1.338004	0.582023	0.499965
C23	C	0.744765	0.080907	-0.000032
C24	C	1.244765	0.580907	0.499968
C25	C	0.452801	0.131712	-0.000047
C26	C	0.952801	0.631712	0.499953
C27	C	0.514072	0.105302	-0.048546
C28	C	1.014072	0.605302	0.451454
C29	C	0.409163	0.076856	-0.000045
C30	C	0.909163	0.576856	0.499955
C31	C	0.514020	0.105288	0.048438
C32	C	1.014020	0.605288	0.548438
C33	C	0.574055	0.078849	-0.000038
C34	C	1.074055	0.578849	0.499962
C35	C	0.469206	0.050430	-0.048584
C36	C	0.969206	0.550430	0.451416
C37	C	0.469147	0.050424	0.048444
C38	C	0.969147	0.550424	0.548444
C39	C	0.530401	0.023974	-0.000067
C40	C	1.030401	0.523974	0.499933
C41	C	0.314172	0.075709	-0.000050
C42	C	0.814172	0.575709	0.499950
C43	C	0.669044	0.079992	-0.000037
C44	C	1.169044	0.579992	0.499963
C45	C	0.998613	-0.026270	-0.000026
C46	C	1.498613	0.473730	0.499974
C47	C	0.997483	-0.089491	-0.000022
C48	C	1.497483	0.410509	0.499978
C49	C	1.067148	-0.488333	-0.000056
C50	C	1.567148	0.011667	0.499944
C51	C	1.066099	-0.547737	-0.000060
C52	C	1.566099	-0.047737	0.499940
O53	O	1.130679	-0.584240	-0.000084
O54	O	1.630679	-0.084240	0.499916
N55	N	0.988996	-0.570653	-0.000058
N56	N	1.488996	-0.070653	0.499942
C57	C	0.912938	-0.534160	-0.000057
C58	C	1.412938	-0.034160	0.499943
O59	O	0.847260	-0.559106	-0.000056
O60	O	1.347260	-0.059106	0.499944
C61	C	0.913989	-0.474757	-0.000057
C62	C	1.413989	0.025243	0.499943
C63	C	0.991096	-0.451845	-0.000053
C64	C	1.491096	0.048155	0.499947
C65	C	1.144249	-0.465421	-0.000053
C66	C	1.644249	0.034579	0.499947
C67	C	1.145298	-0.406021	-0.000047
C68	C	1.645298	0.093979	0.499953
C69	C	1.069246	-0.369533	-0.000045
C70	C	1.569246	0.130467	0.499955
C71	C	0.992145	-0.392445	-0.000048
C72	C	1.492145	0.107555	0.499952
C73	C	0.837931	-0.438266	-0.000061
C74	C	1.337931	0.061734	0.499939
C75	C	0.838988	-0.378859	-0.000061
C76	C	1.338988	0.121141	0.499939
C77	C	0.916096	-0.355948	-0.000057
C78	C	1.416096	0.144052	0.499943
C79	C	0.917142	-0.296557	-0.000040
C80	C	1.417142	0.203443	0.499960
N81	N	0.994244	-0.273642	-0.000042
N82	N	1.494244	0.226358	0.499958
C83	C	1.070296	-0.310130	-0.000045
C84	C	1.570296	0.189870	0.499955
C85	C	0.910739	-0.658911	-0.000059
C86	C	1.410739	-0.158911	0.499941
C87	C	0.909688	-0.718313	-0.000055
C88	C	1.409688	-0.218313	0.499945
C89	C	1.062848	-0.731886	-0.000059
C90	C	1.562848	-0.231886	0.499941
C91	C	1.063899	-0.672483	-0.000059
C92	C	1.563899	-0.172483	0.499941
C93	C	0.987841	-0.635996	-0.000061
C94	C	1.487841	-0.135996	0.499939
C95	C	1.072493	-0.185385	-0.000032
C96	C	1.572493	0.314615	0.499968
C97	C	1.073536	-0.125979	-0.000024
C98	C	1.573536	0.374021	0.499976
C99	C	0.920375	-0.112411	-0.000023
C100	C	1.420375	0.387589	0.499977
C101	C	0.919333	-0.171812	-0.000028
C102	C	1.419333	0.328188	0.499972
C103	C	0.995398	-0.208298	-0.000035
C104	C	1.495398	0.291702	0.499965
O105	O	0.852596	-0.260020	-0.000019
O106	O	1.352596	0.239980	0.499981
O107	O	1.135963	-0.285176	-0.000053
O108	O	1.635963	0.214824	0.499947
C109	C	1.145219	0.073680	-0.000044
C110	C	1.645219	0.573680	0.499956
C111	C	1.238458	0.074796	-0.000050
C112	C	1.738458	0.574796	0.499950
C113	C	0.984611	0.181973	-0.000052
C114	C	1.484611	0.681973	0.499948
C115	C	0.985740	0.245194	-0.000061
C116	C	1.485740	0.745194	0.499939
N117	N	0.991557	0.077852	0.153217
N118	N	1.491557	0.577852	0.653217
C119	C	1.042285	0.112407	0.561852
C120	C	1.542285	0.612407	1.061852
C121	C	1.042294	0.112406	0.623772
C122	C	1.542294	0.612406	1.123772
O123	O	1.085395	0.141779	0.655786
O124	O	1.585395	0.641779	1.155786
N125	N	0.991645	0.077851	0.654754
N126	N	1.491645	0.577851	1.154754
C127	C	0.940988	0.043290	0.623812
C128	C	1.440988	0.543290	1.123812
O129	O	0.897908	0.013897	0.655850
O130	O	1.397908	0.513897	1.155850
C131	C	0.940984	0.043288	0.561894
C132	C	1.440984	0.543288	1.061894
C133	C	0.991630	0.077850	0.530915
C134	C	1.491630	0.577850	1.030915
C135	C	1.092928	0.146965	0.530874
C136	C	1.592928	0.646965	1.030874
C137	C	1.092917	0.146967	0.468958
C138	C	1.592917	0.646967	0.968958
C139	C	1.042262	0.112410	0.438021
C140	C	1.542262	0.612410	0.938021
C141	C	0.991619	0.077851	0.468999
C142	C	1.491619	0.577851	0.968999
C143	C	0.890332	0.008724	0.530953
C144	C	1.390332	0.508724	1.030953
C145	C	0.890332	0.008725	0.469030
C146	C	1.390332	0.508725	0.969030
C147	C	0.940979	0.043287	0.438052
C148	C	1.440979	0.543287	0.938052
C149	C	0.940953	0.043296	0.376147
C150	C	1.440953	0.543296	0.876147
N151	N	0.991603	0.077851	0.345165
N152	N	1.491603	0.577851	0.845165
C153	C	1.042258	0.112408	0.376102
C154	C	1.542258	0.612408	0.876102
C155	C	0.941003	0.043295	0.753846
C156	C	1.441003	0.543295	1.253846
C157	C	0.941003	0.043300	0.815764
C158	C	1.441003	0.543300	1.315764
C159	C	1.042310	0.112415	0.815719
C160	C	1.542310	0.612415	1.315719
C161	C	1.042306	0.112413	0.753800
C162	C	1.542306	0.612413	1.253800
C163	C	0.991653	0.077850	0.722864
C164	C	1.491653	0.577850	1.222864
C165	C	1.042230	0.112409	0.246075
C166	C	1.542230	0.612409	0.746075
C167	C	1.042212	0.112409	0.184154
C168	C	1.542212	0.612409	0.684154
C169	C	0.940908	0.043292	0.184204
C170	C	1.440908	0.543292	0.684204
C171	C	0.940922	0.043294	0.246119
C172	C	1.440922	0.543294	0.746119
C173	C	0.991590	0.077854	0.277053
C174	C	1.491590	0.577854	0.777053
O175	O	0.897877	0.013936	0.344094
O176	O	1.397877	0.513936	0.844094
O177	O	1.085339	0.141790	0.344056
O178	O	1.585339	0.641790	0.844056
N179	N	0.991661	0.077855	0.846706
N180	N	1.491661	0.577855	1.346706
H181	H	0.449439	0.027250	-0.089632
H182	H	0.949439	0.527250	0.410368
Br183	Br	1.168547	-0.641395	-0.000053
Br184	Br	1.668547	-0.141395	0.499947
Br185	Br	1.161639	0.193886	0.426925
Br186	Br	1.661639	0.693886	0.926925
H187	H	0.533991	0.128506	-0.089552
H188	H	1.033991	0.628506	0.410448
H189	H	0.777051	-0.349153	-0.000064
H190	H	1.277051	0.150847	0.499936
H191	H	0.419087	0.177237	-0.000100
H192	H	0.919087	0.677237	0.499900
Br193	Br	1.111059	0.159313	0.857717
Br194	Br	1.611059	0.659313	1.357717
H195	H	0.563962	-0.021592	-0.000087
H196	H	1.063962	0.478408	0.499913
Br197	Br	1.161683	0.193870	0.572848
Br198	Br	1.661683	0.693870	1.072848
H199	H	1.206184	-0.495124	-0.000057
H200	H	1.706184	0.004876	0.499943
H201	H	0.449209	0.027241	0.089453
H202	H	0.949209	0.527241	0.589453
H203	H	0.533883	0.128500	0.089438
H204	H	1.033883	0.628500	0.589438
Br205	Br	1.178188	-0.094889	-0.000019
Br206	Br	1.678188	0.405111	0.499981
H207	H	1.208087	-0.387372	-0.000047
H208	H	1.708087	0.112628	0.499953
H209	H	1.134434	-0.215086	-0.000040
H210	H	1.634434	0.284914	0.499960
H211	H	1.124774	-0.761606	-0.000063
H212	H	1.624774	-0.261606	0.499937
Br213	Br	0.872249	-0.003597	0.857798
Br214	Br	1.372249	0.496403	1.357798
Br215	Br	0.821591	-0.038183	0.572980
Br216	Br	1.321591	0.461817	1.072980
H217	H	0.846899	-0.736962	-0.000048
H218	H	1.346899	-0.236962	0.499952
H219	H	0.848799	-0.629205	-0.000056
H220	H	1.348799	-0.129205	0.499944
Br221	Br	0.872177	-0.003605	0.288163
Br222	Br	1.372177	0.496395	0.788163
Br223	Br	0.872244	-0.003610	0.711868
Br224	Br	1.372244	0.496390	1.211868
H225	H	0.849084	-0.019421	0.443845
H226	H	1.349084	0.480579	0.943845
Br227	Br	0.814686	-0.202907	-0.000020
Br228	Br	1.314686	0.297093	0.499980
Br229	Br	0.733279	-0.469344	-0.000068
Br230	Br	1.233279	0.030656	0.499932
H231	H	0.858456	-0.082692	-0.000019
H232	H	1.358456	0.417308	0.499981
Br233	Br	1.110942	0.159323	0.142115
Br234	Br	1.610942	0.659323	0.642115
Br235	Br	1.110994	0.159312	0.288047
Br236	Br	1.610994	0.659312	0.788047
H237	H	1.083546	0.140557	0.728582
H238	H	1.583546	0.640557	1.228582
H239	H	0.899664	0.015158	0.159004
H240	H	1.399664	0.515158	0.659004
