data_functionalizedCrystal
_audit_creation_method	'MofGen! by Chris Wilmer'
_symmetry_space_group_name_H-M	'P1'
_symmetry_Int_Tables_number	1
_symmetry_cell_setting	triclinic
loop_
_symmetry_equiv_pos_as_xyz
  x,y,z
_cell_length_a	16.109301
_cell_length_b	15.995350
_cell_length_c	15.186229
_cell_angle_alpha	89.998487
_cell_angle_beta	89.999362
_cell_angle_gamma	83.476928
loop_
_atom_site_label
_atom_site_type_symbol
_atom_site_fract_x
_atom_site_fract_y
_atom_site_fract_z
O1	O	1.103160	0.107624	-0.073168
O2	O	0.861101	0.121018	-0.073182
O3	O	0.988747	-0.007569	-0.073174
O4	O	0.975514	0.236210	-0.073176
O5	O	0.988739	-0.007570	0.073283
O6	O	0.861093	0.121016	0.073275
O7	O	1.103151	0.107622	0.073289
Zn8	Zn	0.982121	0.114319	0.096535
Zn9	Zn	0.982132	0.114321	-0.096428
O10	O	0.975505	0.236208	0.073281
C11	C	0.830122	0.120474	0.000045
C12	C	0.737826	0.118848	0.000040
C13	C	0.515573	0.191366	0.000049
C14	C	0.428853	0.189831	0.000055
C15	C	0.448686	0.037268	0.000053
C16	C	0.535405	0.038804	0.000053
C17	C	0.568846	0.115855	0.000047
C18	C	0.395406	0.112785	0.000052
C19	C	0.301380	0.111120	0.000058
C20	C	0.662879	0.117520	0.000043
C21	C	0.988196	-0.038764	0.000053
C22	C	0.986556	-0.131714	0.000048
C23	C	0.980665	-0.469460	0.000050
C24	C	0.889758	-0.422001	-0.000283
C25	C	0.891399	-0.325311	0.000047
C26	C	0.983587	-0.301900	0.000049
C27	C	1.028421	-0.342991	0.083684
C28	C	1.026137	-0.439626	0.083754
C29	C	1.028025	-0.439983	-0.082795
C30	C	1.028003	-0.343037	-0.083901
C31	C	0.985243	-0.207203	0.000051
C32	C	0.979012	-0.564157	0.000054
C33	C	1.134130	0.108166	0.000060
C34	C	1.226426	0.109792	0.000059
C35	C	0.976056	0.267404	0.000052
C36	C	0.977697	0.360354	0.000051
N37	N	0.982119	0.114317	0.228228
N38	N	0.982140	0.114317	-0.228121
C39	C	1.038660	0.057398	0.453954
C40	C	1.038662	0.057396	0.546144
C41	C	0.925593	0.171238	0.546146
C42	C	0.925587	0.171236	0.453958
C43	C	0.982125	0.114316	0.407865
C44	C	0.982134	0.114317	0.592242
C45	C	0.982136	0.114315	0.692198
C46	C	0.982122	0.114317	0.307902
H47	H	0.542798	0.254106	0.000051
H48	H	0.879562	0.217582	0.583685
N49	N	0.374448	0.266972	0.000064
N50	N	0.404321	0.335757	0.000063
H51	H	0.365898	0.390242	0.000072
N52	N	0.414538	-0.041441	0.000042
N53	N	0.462116	-0.108856	0.000039
H54	H	0.438001	-0.164448	0.000029
N55	N	0.589816	-0.038341	0.000060
N56	N	0.559950	-0.107130	0.000061
H57	H	0.598377	-0.161612	0.000070
H58	H	0.998306	-0.460513	-0.146186
H59	H	0.855912	-0.297438	0.060099
H60	H	0.997275	-0.314602	0.145921
N61	N	1.113379	-0.325276	0.087586
N62	N	1.129669	-0.250792	0.091274
H63	H	1.189670	-0.238277	0.094027
H64	H	0.995224	-0.315779	-0.145772
H65	H	0.856156	-0.296879	-0.059906
N66	N	0.844189	-0.445233	-0.075531
N67	N	0.878175	-0.497042	-0.129792
H68	H	0.845993	-0.513453	-0.182941
N69	N	1.112334	-0.323770	-0.090238
N70	N	1.141203	-0.279212	-0.032725
H71	H	1.200763	-0.265600	-0.037197
N72	N	0.844379	-0.446576	0.074533
N73	N	0.878700	-0.498891	0.128098
H74	H	0.846653	-0.516249	0.180938
H75	H	1.084695	0.011050	0.416427
N76	N	0.985114	-0.462568	0.162183
N77	N	0.958365	-0.407236	0.216486
H78	H	0.929391	-0.423433	0.271878
N79	N	1.112109	-0.479841	-0.083483
N80	N	1.137145	-0.529752	-0.023289
H81	H	1.196528	-0.557903	-0.023765
H82	H	0.879546	0.217586	0.416429
N83	N	1.096395	-0.000758	0.593228
N84	N	1.070008	-0.052743	0.644661
H85	H	1.110779	-0.093824	0.677913
H86	H	1.092880	-0.471892	0.087550
