data_functionalizedCrystal
_audit_creation_method	'MofGen! by Chris Wilmer'
_symmetry_space_group_name_H-M	'P1'
_symmetry_Int_Tables_number	1
_symmetry_cell_setting	triclinic
loop_
_symmetry_equiv_pos_as_xyz
  x,y,z
_cell_length_a	8.597366
_cell_length_b	17.019294
_cell_length_c	7.681481
_cell_angle_alpha	80.410874
_cell_angle_beta	103.474720
_cell_angle_gamma	84.889302
loop_
_atom_site_label
_atom_site_type_symbol
_atom_site_fract_x
_atom_site_fract_y
_atom_site_fract_z
O1	O	2.097875	0.109934	0.155185
O2	O	1.633589	0.122602	0.082822
O3	O	1.880487	0.000539	0.138798
O4	O	1.850977	0.231997	0.099209
O5	O	1.910877	-0.014519	0.438551
O6	O	1.663979	0.107544	0.382574
O7	O	2.128265	0.094876	0.454938
Zn8	Zn	1.900947	0.098819	0.466349
Zn9	Zn	1.860907	0.118659	0.071411
O10	O	1.881366	0.216939	0.398961
C11	C	1.589410	0.114552	0.223769
C12	C	1.412494	0.112989	0.197164
C13	C	1.895163	-0.036608	0.293085
C14	C	1.893596	-0.124860	0.306224
C15	C	1.876298	-0.158109	0.149004
C16	C	1.874816	-0.241032	0.161353
C17	C	1.890643	-0.290704	0.330927
C18	C	1.907937	-0.257450	0.488159
C19	C	1.909408	-0.174528	0.475806
C20	C	1.887021	-0.541485	0.376398
C21	C	1.885554	-0.624412	0.388740
C22	C	1.852430	-0.607987	0.061933
C23	C	1.853911	-0.525065	0.049596
C24	C	1.871197	-0.491818	0.206826
C25	C	1.889134	-0.375465	0.343555
C26	C	1.872695	-0.407058	0.194195
C27	C	2.172444	0.102926	0.313987
C28	C	2.349358	0.104490	0.340580
C29	C	1.866691	0.254086	0.244671
C30	C	1.868257	0.342339	0.231520
N31	N	1.928284	0.085279	0.735885
N32	N	1.833582	0.132193	-0.198122
H33	H	1.331202	0.119065	0.054015
H34	H	1.923471	-0.147458	0.603828
O35	O	1.446530	0.097138	0.511305
C36	C	1.562932	0.028684	0.548799
H37	H	1.579732	0.013092	0.415075
H38	H	1.682552	0.041729	0.632384
H39	H	1.520640	-0.024119	0.629257
O40	O	1.860834	-0.109970	-0.015877
C41	C	1.845287	-0.157105	-0.151987
H42	H	1.798606	-0.215329	-0.103434
H43	H	1.756699	-0.122357	-0.282351
H44	H	1.967978	-0.171744	-0.180240
O45	O	1.857755	-0.273337	0.008621
C46	C	1.717816	-0.311820	-0.016373
H47	H	1.631102	-0.285207	0.057019
H48	H	1.656814	-0.302461	-0.168255
H49	H	1.752372	-0.378910	0.041901
H50	H	2.024974	0.037397	0.833024
O51	O	1.835370	-0.640183	-0.090949
C52	C	1.687498	-0.605930	-0.215639
H53	H	1.647261	-0.545050	-0.185588
H54	H	1.703417	-0.597617	-0.360541
H55	H	1.592247	-0.647423	-0.201621
H56	H	1.841025	-0.484626	-0.088488
H57	H	1.898436	-0.664854	0.526833
H58	H	1.901129	-0.514427	0.504432
O59	O	1.923091	-0.305769	0.652747
C60	C	1.785103	-0.345209	0.647370
H61	H	1.724447	-0.347500	0.499910
H62	H	1.822154	-0.409020	0.730230
H63	H	1.697129	-0.311000	0.707623
O64	O	1.857516	-0.358900	0.029414
C65	C	1.985223	-0.383148	-0.044640
H66	H	2.034915	-0.448695	0.018202
H67	H	1.938958	-0.376434	-0.198724
H68	H	2.085060	-0.343925	-0.013282
O69	O	1.904311	-0.423792	0.508140
C70	C	1.766324	-0.463232	0.502768
H71	H	1.705649	-0.465511	0.355305
H72	H	1.803381	-0.527048	0.585599
H73	H	1.678365	-0.429032	0.563054
O74	O	1.718442	0.189362	0.685846
C75	C	1.792083	0.243813	0.582136
H76	H	1.914472	0.213500	0.577842
H77	H	1.711990	0.263032	0.437366
H78	H	1.809332	0.298938	0.647333
