data_functionalizedCrystal
_audit_creation_method	'MofGen! by Chris Wilmer'
_symmetry_space_group_name_H-M	'P1'
_symmetry_Int_Tables_number	1
_symmetry_cell_setting	triclinic
loop_
_symmetry_equiv_pos_as_xyz
  x,y,z
_cell_length_a	11.792241
_cell_length_b	9.065218
_cell_length_c	8.140239
_cell_angle_alpha	89.997198
_cell_angle_beta	90.003672
_cell_angle_gamma	95.395350
loop_
_atom_site_label
_atom_site_type_symbol
_atom_site_fract_x
_atom_site_fract_y
_atom_site_fract_z
O1	O	0.166430	-1.958838	0.136619
O2	O	0.499763	-1.625505	0.469952
O3	O	0.833096	-1.292172	0.803285
O4	O	0.180081	-1.529425	0.136621
O5	O	0.513415	-1.196092	0.469954
O6	O	0.846748	-0.862759	0.803288
O7	O	0.008143	-1.754552	0.136608
O8	O	0.341476	-1.421219	0.469942
O9	O	0.674809	-1.087886	0.803275
O10	O	0.338368	-1.733711	0.136631
O11	O	0.671702	-1.400378	0.469965
O12	O	1.005035	-1.067044	0.803298
O13	O	0.008141	-1.754540	-0.136619
O14	O	0.341474	-1.421207	0.196714
O15	O	0.674807	-1.087873	0.530048
O16	O	0.180079	-1.529413	-0.136606
O17	O	0.513412	-1.196080	0.196727
O18	O	0.846746	-0.862746	0.530061
O19	O	0.166428	-1.958826	-0.136608
O20	O	0.499761	-1.625492	0.196725
O21	O	0.833094	-1.292159	0.530058
Zn22	Zn	0.173253	-1.744117	-0.179988
Zn23	Zn	0.506586	-1.410784	0.153345
Zn24	Zn	0.839920	-1.077451	0.486679
Zn25	Zn	0.173256	-1.744134	0.180000
Zn26	Zn	0.506589	-1.410800	0.513334
Zn27	Zn	0.839922	-1.077467	0.846667
O28	O	0.338366	-1.733699	-0.136596
O29	O	0.671699	-1.400365	0.196738
O30	O	1.005033	-1.067032	0.530071
C31	C	0.178768	-1.474445	0.000008
C32	C	0.512102	-1.141112	0.333341
C33	C	0.845435	-0.807778	0.666674
C34	C	0.174845	-1.310639	0.000008
C35	C	0.508179	-0.977305	0.333342
C36	C	0.841512	-0.643972	0.666675
C37	C	-0.034156	-1.753237	-0.000005
C38	C	0.299177	-1.419904	0.333329
C39	C	0.632510	-1.086570	0.666662
C40	C	-0.160192	-1.749319	-0.000003
C41	C	0.173141	-1.415985	0.333330
C42	C	0.506475	-1.082652	0.666664
C43	C	0.167741	-2.013806	0.000008
C44	C	0.501074	-1.680473	0.333342
C45	C	0.834407	-1.347140	0.666675
C46	C	0.171664	-2.177612	0.000019
C47	C	0.504997	-1.844279	0.333352
C48	C	0.838330	-1.510946	0.666685
C49	C	-0.390944	-1.742113	0.000024
C50	C	-0.057611	-1.408780	0.333358
C51	C	0.275723	-1.075447	0.666691
C52	C	-0.262537	-1.746117	0.000009
C53	C	0.070797	-1.412783	0.333343
C54	C	0.404130	-1.079450	0.666676
C55	C	0.380665	-1.735014	0.000021
C56	C	0.713999	-1.401681	0.333354
C57	C	1.047332	-1.068347	0.666688
C58	C	0.506701	-1.738933	0.000030
C59	C	0.840034	-1.405599	0.333363
C60	C	1.173367	-1.072266	0.666697
N61	N	0.173251	-1.744117	-0.425671
N62	N	0.506584	-1.410784	-0.092337
N63	N	0.839917	-1.077450	0.240996
N64	N	0.173249	-1.744146	0.425683
N65	N	0.506583	-1.410813	0.759016
N66	N	0.839916	-1.077479	1.092350
