data_functionalizedCrystal
_audit_creation_method	'MofGen! by Chris Wilmer'
_symmetry_space_group_name_H-M	'P1'
_symmetry_Int_Tables_number	1
_symmetry_cell_setting	triclinic
loop_
_symmetry_equiv_pos_as_xyz
  x,y,z
_cell_length_a	13.032831
_cell_length_b	12.759400
_cell_length_c	13.033454
_cell_angle_alpha	97.215029
_cell_angle_beta	89.091650
_cell_angle_gamma	97.180361
loop_
_atom_site_label
_atom_site_type_symbol
_atom_site_fract_x
_atom_site_fract_y
_atom_site_fract_z
Zn1	Zn	1.498577	0.510089	-0.780885
Zn2	Zn	1.520314	0.710550	-0.608898
Zn3	Zn	1.348418	0.515689	-0.587115
Zn4	Zn	1.326574	0.666525	-0.759031
O5	O	1.423471	0.600713	-0.683982
O6	O	1.645384	0.552761	-0.776333
O7	O	1.515751	0.705470	-0.462084
O8	O	1.368382	0.367927	-0.612849
O9	O	1.661354	0.700040	-0.649975
O10	O	1.478703	0.363813	-0.755211
O11	O	1.389460	0.562307	-0.446080
O12	O	1.201598	0.519617	-0.591658
O13	O	1.331152	0.625005	-0.905854
O14	O	1.185549	0.630435	-0.717964
O15	O	1.457522	0.510072	-0.921910
O16	O	1.494569	0.851729	-0.628784
O17	O	1.352229	0.819384	-0.739086
C18	C	1.423413	0.873677	-0.683953
C19	C	1.423478	0.990457	-0.683987
C20	C	1.156255	0.570857	-0.650076
C21	C	1.041936	0.558106	-0.635596
C22	C	1.389475	0.562002	-0.952244
C23	C	1.374988	0.545506	-1.066561
C24	C	0.983068	0.607368	-0.691540
C25	C	0.864913	0.594191	-0.676575
C26	C	1.691730	0.630687	-0.718021
C27	C	1.806046	0.643460	-0.732527
C28	C	1.423555	0.326684	-0.684038
C29	C	1.423590	0.209908	-0.684061
C30	C	1.497658	1.062124	-0.626635
C31	C	1.497717	1.171851	-0.626674
C32	C	1.349406	1.138232	-0.741420
C33	C	1.349353	1.028508	-0.741386
C34	C	1.583281	1.081535	-0.560383
C35	C	1.583340	1.191261	-0.560423
C36	C	1.431016	0.608986	-1.125445
C37	C	1.416044	0.591938	-1.243598
C38	C	1.457394	0.639204	-0.416772
C39	C	1.472080	0.655427	-0.302481
H40	H	1.020142	0.659294	-0.750518
Br41	Br	0.803135	0.507619	-0.578280
Br42	Br	1.276570	0.433874	-1.128317
Br43	Br	1.317622	0.480302	-1.305350
H44	H	1.660195	1.057490	-0.591873
H45	H	1.490071	0.675951	-1.088387
H46	H	1.289057	1.169227	-0.788154
H47	H	0.843114	0.695387	-0.791512
H48	H	1.564383	1.055300	-0.481072
H49	H	1.004861	0.506171	-0.576625
Br50	Br	1.703401	1.255069	-0.624102
Br51	Br	1.564741	1.256196	-0.423152
Br52	Br	1.248693	0.931246	-0.819247
H53	H	1.531140	0.722397	-1.265429
