data_functionalizedCrystal
_audit_creation_method	'MofGen! by Chris Wilmer'
_symmetry_space_group_name_H-M	'P1'
_symmetry_Int_Tables_number	1
_symmetry_cell_setting	triclinic
loop_
_symmetry_equiv_pos_as_xyz
  x,y,z
_cell_length_a	13.262415
_cell_length_b	13.339070
_cell_length_c	12.376457
_cell_angle_alpha	104.410245
_cell_angle_beta	94.194898
_cell_angle_gamma	99.430224
loop_
_atom_site_label
_atom_site_type_symbol
_atom_site_fract_x
_atom_site_fract_y
_atom_site_fract_z
O1	O	0.489180	1.394803	0.244437
O2	O	0.423157	1.095806	0.224133
O3	O	0.312349	1.243619	0.190063
O4	O	0.599989	1.246990	0.278507
O5	O	0.340002	1.206676	0.010553
O6	O	0.450811	1.058863	0.044623
O7	O	0.516834	1.357860	0.064928
Zn8	Zn	0.488213	1.202496	0.026274
Zn9	Zn	0.451778	1.251170	0.262786
O10	O	0.627642	1.210047	0.098998
C11	C	0.425832	1.038890	0.130948
C12	C	0.392588	0.924337	0.120725
C13	C	0.288608	1.221939	0.088759
C14	C	0.176667	1.212367	0.054346
C15	C	0.651069	0.577047	0.200222
C16	C	0.682306	0.684675	0.209831
C17	C	0.609879	0.744596	0.187555
C18	C	0.506211	0.696878	0.155669
C19	C	0.474970	0.589241	0.146067
C20	C	0.433779	0.756790	0.133401
C21	C	0.330111	0.709072	0.101514
C22	C	0.298876	0.601445	0.091914
C23	C	0.371302	0.541524	0.114190
C24	C	0.465020	0.864427	0.143002
C25	C	0.288921	0.876621	0.088848
C26	C	0.257684	0.768993	0.079238
C27	C	-0.199161	1.265941	0.348749
C28	C	-0.093986	1.274944	0.381088
C29	C	-0.026318	1.259300	0.299405
C30	C	-0.063834	1.234652	0.185378
C31	C	-0.169019	1.225656	0.153036
C32	C	0.003824	1.219016	0.103692
C33	C	-0.033692	1.194368	-0.010336
C34	C	-0.138867	1.185373	-0.042672
C35	C	-0.206535	1.201017	0.039011
C36	C	0.109009	1.228011	0.136034
C37	C	0.139151	1.187727	-0.059679
C38	C	0.033976	1.178724	-0.092018
C39	C	0.651383	1.231727	0.200304
C40	C	0.763323	1.241301	0.234724
C41	C	0.514159	1.414776	0.158114
C42	C	0.547402	1.529330	0.168344
N43	N	0.513080	1.169285	-0.135138
C44	C	0.369161	1.361481	-0.534374
C45	C	0.351755	1.384720	-0.421386
C46	C	0.392084	1.330863	-0.349819
C47	C	0.449824	1.253764	-0.391250
C48	C	0.467239	1.230528	-0.504247
C49	C	0.490162	1.199910	-0.319692
C50	C	0.547901	1.122811	-0.361123
C51	C	0.565313	1.099579	-0.474109
C52	C	0.524983	1.153436	-0.545676
C53	C	0.472747	1.223145	-0.206695
C54	C	0.570825	1.092193	-0.176568
C55	C	0.588231	1.068954	-0.289556
N56	N	0.426906	1.284389	0.424197
H57	H	0.549428	0.903267	0.168960
C58	C	0.703855	0.467917	0.313116
C59	C	0.730668	0.511179	0.224707
H60	H	0.752997	0.427247	0.328227
H61	H	0.702748	0.523044	0.378323
H62	H	0.637639	0.424104	0.292743
H63	H	0.796880	0.554998	0.245083
H64	H	0.731785	0.456043	0.159486
H65	H	0.194247	1.174991	-0.126192
C66	C	0.575541	0.924890	-0.138723
C67	C	0.615161	1.032985	-0.097912
H68	H	0.602918	0.888345	-0.090161
H69	H	0.502668	0.912982	-0.141736
H70	H	0.594184	0.900032	-0.211944
H71	H	0.596511	1.057845	-0.024694
H72	H	0.688050	1.044900	-0.094886
C73	C	0.189226	1.440356	-0.435393
C74	C	0.288145	1.469398	-0.376110
H75	H	0.149911	1.492616	-0.407514
H76	H	0.193980	1.434107	-0.512912
H77	H	0.156697	1.374654	-0.425942
H78	H	0.320677	1.535096	-0.385568
H79	H	0.283395	1.475658	-0.298572
H80	H	0.139544	1.248079	0.228876
C81	C	0.107931	1.294113	0.452283
C82	C	0.089291	1.269182	0.334950
H83	H	0.179305	1.300204	0.474227
H84	H	0.087343	1.359063	0.483787
H85	H	0.069798	1.239967	0.478405
H86	H	0.127419	1.323332	0.308828
H87	H	0.109891	1.204224	0.303433
C88	C	-0.134353	1.313851	0.571286
C89	C	-0.052751	1.302026	0.506420
H90	H	-0.108894	1.330563	0.648664
H91	H	-0.165986	1.369049	0.557297
H92	H	-0.183512	1.249950	0.551899
H93	H	-0.003595	1.365929	0.525801
H94	H	-0.021101	1.246823	0.520416
H95	H	0.612337	1.036809	-0.507839
H96	H	0.345875	0.453884	0.106367
H97	H	0.539151	1.134513	-0.637682
C98	C	0.467371	1.391333	-0.157135
C99	C	0.372948	1.356406	-0.225621
H100	H	0.455550	1.407109	-0.080459
H101	H	0.507518	1.337709	-0.171564
H102	H	0.503073	1.452880	-0.172925
H103	H	0.337249	1.294855	-0.209837
H104	H	0.332785	1.410034	-0.211186
H105	H	0.425736	1.285920	-0.172972
C106	C	-0.098507	1.146450	-0.232880
C107	C	-0.180106	1.158286	-0.168011
H108	H	-0.123969	1.129721	-0.310258
H109	H	-0.049352	1.210340	-0.213507
H110	H	-0.066872	1.091246	-0.218879
H111	H	-0.211737	1.213495	-0.182006
H112	H	-0.229280	1.094388	-0.187392
C113	C	0.258330	1.348470	-0.701553
C114	C	0.324836	1.420669	-0.613044
H115	H	0.230960	1.385016	-0.750119
H116	H	0.295218	1.299242	-0.742382
H117	H	0.203697	1.312199	-0.672183
H118	H	0.379474	1.456935	-0.642414
H119	H	0.287947	1.469916	-0.572210
H120	H	0.635244	1.006178	-0.323303
H121	H	-0.254263	1.278683	0.415243
H122	H	0.229944	0.925410	0.070713
C123	C	0.124942	0.597707	0.135073
C124	C	0.184921	0.548999	0.056872
H125	H	0.054590	0.565334	0.113434
H126	H	0.146352	0.590438	0.207211
H127	H	0.133193	0.670382	0.137595
H128	H	0.176675	0.476325	0.054357
H129	H	0.163503	0.556258	-0.015285
H130	H	0.635318	0.832232	0.195384
C131	C	0.083749	0.765239	0.122402
C132	C	0.143731	0.716538	0.044199
H133	H	0.013400	0.732857	0.100765
H134	H	0.105165	0.757973	0.194540
H135	H	0.091992	0.837913	0.124922
H136	H	0.135494	0.643865	0.041685
H137	H	0.122308	0.723793	-0.027958
H138	H	-0.292179	1.193686	0.012686
C139	C	0.853229	0.661801	0.262386
C140	C	0.796253	0.737121	0.244868
H141	H	0.923580	0.694181	0.284009
H142	H	0.827741	0.632962	0.320111
H143	H	0.847018	0.607187	0.194909
H144	H	0.802458	0.791732	0.312348
H145	H	0.821748	0.765977	0.187140
H146	H	0.003414	1.158656	-0.184861
