data_functionalizedCrystal
_audit_creation_method	'MofGen! by Chris Wilmer'
_symmetry_space_group_name_H-M	'P1'
_symmetry_Int_Tables_number	1
_symmetry_cell_setting	triclinic
loop_
_symmetry_equiv_pos_as_xyz
  x,y,z
_cell_length_a	13.101039
_cell_length_b	10.723024
_cell_length_c	10.723024
_cell_angle_alpha	95.532131
_cell_angle_beta	86.604576
_cell_angle_gamma	86.610607
loop_
_atom_site_label
_atom_site_type_symbol
_atom_site_fract_x
_atom_site_fract_y
_atom_site_fract_z
O1	O	0.085205	-1.663994	0.168199
O2	O	0.085208	-1.300842	0.184952
O3	O	0.085203	-1.490794	-0.005000
O4	O	0.085211	-1.474041	0.358152
O5	O	-0.085226	-1.477165	0.008651
O6	O	-0.085221	-1.287213	0.198604
O7	O	-0.085224	-1.650365	0.181851
Zn8	Zn	-0.112282	-1.466625	0.192395
Zn9	Zn	0.112266	-1.484582	0.174408
O10	O	-0.085219	-1.460413	0.371803
C11	C	-0.000006	-1.247528	0.190559
C12	C	-0.000005	-1.108974	0.186911
N13	N	-0.265530	-1.454380	0.204669
C14	C	-0.000011	-1.482761	-0.044674
C15	C	-0.000007	-1.479113	-0.183229
C16	C	-0.474572	-1.437719	0.221381
C17	C	-0.525450	-1.513494	0.145416
C18	C	-0.641768	-1.504223	0.154715
C19	C	-0.358244	-1.446988	0.212084
N20	N	0.265514	-1.496837	0.162124
C21	C	-0.000008	-1.703679	0.176244
C22	C	-0.000002	-1.842234	0.179891
C23	C	-0.000002	-1.033991	0.293198
C24	C	-0.000000	-0.890788	0.289431
C25	C	-0.000006	-1.585401	-0.258211
C26	C	-0.000003	-1.581634	-0.401415
C27	C	-0.000003	-1.468446	0.411477
C28	C	0.000000	-1.472094	0.550031
H29	H	-0.481650	-1.585329	0.073398
H30	H	-0.518367	-1.365890	0.293396
Br31	Br	0.000016	-0.783405	0.441097
Br32	Br	-0.000019	-1.039281	0.030587
Br33	Br	0.000003	-1.741727	-0.188520
Br34	Br	-0.000005	-1.103683	0.449524
Br35	Br	-0.000013	-1.320421	-0.342591
H36	H	0.000002	-0.906659	0.088895
H37	H	-0.000007	-1.672624	-0.465847
H38	H	0.000001	-1.385328	-0.225051
