data_functionalizedCrystal
_audit_creation_method	'MofGen! by Chris Wilmer'
_symmetry_space_group_name_H-M	'P1'
_symmetry_Int_Tables_number	1
_symmetry_cell_setting	triclinic
loop_
_symmetry_equiv_pos_as_xyz
  x,y,z
_cell_length_a	16.974800
_cell_length_b	9.198806
_cell_length_c	16.974813
_cell_angle_alpha	93.657744
_cell_angle_beta	83.627081
_cell_angle_gamma	86.347127
loop_
_atom_site_label
_atom_site_type_symbol
_atom_site_fract_x
_atom_site_fract_y
_atom_site_fract_z
O1	O	1.049039	0.009272	0.100721
O2	O	1.549039	0.509272	0.600721
O3	O	0.818818	0.037882	0.113569
O4	O	1.318818	0.537882	0.613569
O5	O	0.940347	0.009273	-0.007965
O6	O	1.440347	0.509273	0.492035
O7	O	0.927511	0.037882	0.222256
O8	O	1.427511	0.537882	0.722256
O9	O	0.940337	-0.232511	-0.007966
O10	O	1.440337	0.267489	0.492034
O11	O	0.818809	-0.203901	0.113569
O12	O	1.318809	0.296099	0.613569
O13	O	1.049029	-0.232512	0.100721
O14	O	1.549029	0.267488	0.600721
Cu15	Cu	0.933918	-0.240283	0.107145
Cu16	Cu	1.433918	0.259717	0.607145
Cu17	Cu	0.933929	0.045654	0.107145
Cu18	Cu	1.433929	0.545654	0.607145
O19	O	0.927501	-0.203902	0.222256
O20	O	1.427501	0.296098	0.722256
C21	C	0.789355	-0.079599	0.113083
C22	C	1.289355	0.420401	0.613083
C23	C	0.701580	-0.069439	0.111623
C24	C	1.201580	0.430561	0.611623
C25	C	0.660343	-0.196466	0.110935
C26	C	1.160343	0.303534	0.610935
C27	C	0.577870	-0.186926	0.109551
C28	C	1.077870	0.313074	0.609551
C29	C	0.536636	-0.050356	0.108860
C30	C	1.036636	0.449644	0.608860
C31	C	0.577879	0.076680	0.109546
C32	C	1.077879	0.576680	0.609546
C33	C	0.660351	0.067137	0.110924
C34	C	1.160351	0.567137	0.610924
C35	C	0.289983	-0.007684	0.104732
C36	C	0.789983	0.492316	0.604732
C37	C	0.207505	0.001850	0.103355
C38	C	0.707505	0.501850	0.603355
C39	C	0.207502	-0.261757	0.103359
C40	C	0.707502	0.238243	0.603359
C41	C	0.289974	-0.271287	0.104742
C42	C	0.789974	0.228713	0.604742
C43	C	0.331211	-0.144252	0.105424
C44	C	0.831211	0.355748	0.605424
N45	N	0.452335	-0.040600	0.107448
N46	N	0.952335	0.459400	0.607448
N47	N	0.415511	-0.154010	0.106830
N48	N	0.915511	0.345990	0.606830
N49	N	0.933916	-0.441397	0.107144
N50	N	1.433916	0.058603	0.607144
C51	C	0.984944	-0.525633	0.055893
C52	C	1.484944	-0.025633	0.555893
C53	C	0.984957	-0.693047	0.055890
C54	C	1.484957	-0.193047	0.555890
C55	C	1.078492	-0.115027	0.101208
C56	C	1.578492	0.384973	0.601208
C57	C	1.166267	-0.125177	0.102668
C58	C	1.666267	0.374823	0.602668
N59	N	0.933938	0.246767	0.107140
N60	N	1.433938	0.746767	0.607140
C61	C	0.939853	-0.115026	-0.037423
C62	C	1.439853	0.384974	0.462577
C63	C	0.938389	-0.125176	-0.125198
C64	C	1.438389	0.374824	0.374802
C65	C	0.937708	0.001851	-0.166431
C66	C	1.437708	0.501851	0.333569
C67	C	0.936327	-0.007690	-0.248904
C68	C	1.436327	0.492310	0.251096
C69	C	0.935632	-0.144260	-0.290144
C70	C	1.435632	0.355740	0.209856
C71	C	0.936311	-0.271296	-0.248906
C72	C	1.436311	0.228704	0.251094
C73	C	0.937686	-0.261753	-0.166433
C74	C	1.437686	0.238247	0.333567
C75	C	0.931513	-0.186933	-0.536800
C76	C	1.431513	0.313067	-0.036800
C77	C	0.930140	-0.196467	-0.619279
C78	C	1.430140	0.303533	-0.119279
C79	C	0.930154	0.067140	-0.619271
C80	C	1.430154	0.567140	-0.119271
C81	C	0.931534	0.076670	-0.536798
C82	C	1.431534	0.576670	-0.036798
C83	C	0.932209	-0.050365	-0.495566
C84	C	1.432209	0.449635	0.004434
N85	N	0.934223	-0.154016	-0.374446
N86	N	1.434223	0.345984	0.125554
N87	N	0.933612	-0.040607	-0.411265
N88	N	1.433612	0.459393	0.088735
C89	C	0.927994	-0.079600	0.251714
C90	C	1.427994	0.420400	0.751714
C91	C	0.929459	-0.069440	0.339489
C92	C	1.429459	0.430560	0.839489
H93	H	0.323542	-0.382497	0.105301
H94	H	0.823542	0.117503	0.605301
Cl95	Cl	0.155657	-0.421449	0.102499
Cl96	Cl	0.655657	0.078551	0.602499
Cl97	Cl	0.935472	0.152009	-0.300736
Cl98	Cl	1.435472	0.652009	0.199264
H99	H	0.693925	0.170577	0.111486
H100	H	1.193925	0.670577	0.611486
H101	H	1.028620	-0.473813	0.012013
H102	H	1.528620	0.026187	0.512013
Cl103	Cl	0.526046	0.248365	0.108648
Cl104	Cl	1.026046	0.748365	0.608648
H105	H	1.028647	-0.765440	0.012014
H106	H	1.528647	-0.265440	0.512014
H107	H	0.890251	-0.680849	0.151024
H108	H	1.390251	-0.180849	0.651024
Cl109	Cl	0.155668	0.173551	0.102490
Cl110	Cl	0.655668	0.673551	0.602490
H111	H	0.890235	-0.493220	0.151018
H112	H	1.390235	0.006780	0.651018
H113	H	0.693909	-0.307675	0.111504
H114	H	1.193909	0.192325	0.611504
Cl115	Cl	0.938586	0.173547	-0.114595
Cl116	Cl	1.438586	0.673547	0.385405
Cl117	Cl	0.932409	0.248365	-0.484959
Cl118	Cl	1.432409	0.748365	0.015041
H119	H	0.929603	0.170565	-0.652851
H120	H	1.429603	0.670565	-0.152851
H121	H	0.323548	0.095758	0.105284
H122	H	0.823548	0.595758	0.605284
Cl123	Cl	0.929271	-0.368169	-0.671124
Cl124	Cl	1.429271	0.131831	-0.171124
H125	H	0.932078	-0.290377	-0.503242
H126	H	1.432078	0.209623	-0.003242
Cl127	Cl	0.935428	-0.442984	-0.300750
Cl128	Cl	1.435428	0.057016	0.199250
H129	H	0.544300	-0.290366	0.108977
H130	H	1.044300	0.209634	0.608977
Cl131	Cl	0.938541	-0.421451	-0.114598
Cl132	Cl	1.438541	0.078549	0.385402
