data_functionalizedCrystal
_audit_creation_method	'MofGen! by Chris Wilmer'
_symmetry_space_group_name_H-M	'P1'
_symmetry_Int_Tables_number	1
_symmetry_cell_setting	triclinic
loop_
_symmetry_equiv_pos_as_xyz
  x,y,z
_cell_length_a	11.792241
_cell_length_b	11.792254
_cell_length_c	16.053802
_cell_angle_alpha	92.583162
_cell_angle_beta	87.405349
_cell_angle_gamma	84.196007
loop_
_atom_site_label
_atom_site_type_symbol
_atom_site_fract_x
_atom_site_fract_y
_atom_site_fract_z
O1	O	1.511669	0.150823	-0.069348
O2	O	1.845002	0.484157	0.263985
O3	O	2.178336	0.817490	0.597318
O4	O	1.181330	0.166855	-0.069368
O5	O	1.514663	0.500188	0.263966
O6	O	1.847997	0.833521	0.597299
O7	O	1.354508	-0.006330	-0.069352
O8	O	1.687841	0.327003	0.263982
O9	O	2.021175	0.660336	0.597315
O10	O	1.338491	0.324008	-0.069364
O11	O	1.671824	0.657341	0.263969
O12	O	2.005158	0.990675	0.597302
O13	O	1.344976	0.003163	0.069506
O14	O	1.678309	0.336496	0.402840
O15	O	2.011642	0.669830	0.736173
O16	O	1.171798	0.176348	0.069490
O17	O	1.505131	0.509681	0.402824
O18	O	1.838464	0.843014	0.736157
O19	O	1.502137	0.160316	0.069510
O20	O	1.835470	0.493650	0.402843
O21	O	2.168803	0.826983	0.736176
Zn22	Zn	1.335454	0.169839	0.091547
Zn23	Zn	1.668787	0.503173	0.424880
Zn24	Zn	2.002120	0.836506	0.758213
Zn25	Zn	1.348013	0.157332	-0.091405
Zn26	Zn	1.681346	0.490665	0.241929
Zn27	Zn	2.014680	0.823998	0.575262
O28	O	1.328959	0.333501	0.069494
O29	O	1.662292	0.666834	0.402827
O30	O	1.995625	1.000168	0.736160
C31	C	1.348733	-0.043874	0.000077
C32	C	1.682066	0.289459	0.333410
C33	C	2.015399	0.622792	0.666744
C34	C	1.345713	-0.169887	0.000076
C35	C	1.679046	0.163446	0.333409
C36	C	2.012379	0.496779	0.666743
C37	C	1.134273	0.170594	0.000059
C38	C	1.467606	0.503927	0.333392
C39	C	1.800940	0.837261	0.666725
C40	C	1.008260	0.167579	0.000051
C41	C	1.341593	0.500912	0.333385
C42	C	1.674926	0.834246	0.666718
C43	C	1.343259	-0.272224	0.000073
C44	C	1.676592	0.061109	0.333406
C45	C	2.009926	0.394442	0.666740
C46	C	1.340191	-0.400611	0.000065
C47	C	1.673524	-0.067278	0.333398
C48	C	2.006858	0.266055	0.666732
C49	C	0.777545	0.162038	0.000076
C50	C	1.110879	0.495371	0.333409
C51	C	1.444212	0.828704	0.666742
C52	C	0.905932	0.165117	0.000062
C53	C	1.239265	0.498450	0.333396
C54	C	1.572598	0.831783	0.666729
C55	C	1.549194	0.156577	0.000081
C56	C	1.882527	0.489910	0.333415
C57	C	2.215860	0.823244	0.666748
C58	C	1.675207	0.159591	0.000083
C59	C	2.008541	0.492925	0.333416
C60	C	2.341874	0.826258	0.666750
C61	C	1.334734	0.371045	0.000063
C62	C	1.668067	0.704379	0.333396
C63	C	2.001401	1.037712	0.666730
C64	C	1.337754	0.497058	0.000059
C65	C	1.671088	0.830391	0.333392
C66	C	2.004421	1.163725	0.666725
N67	N	1.326890	0.178375	0.216406
N68	N	1.660224	0.511708	0.549740
N69	N	1.993557	0.845041	0.883073
N70	N	1.356585	0.148787	-0.216264
N71	N	1.689918	0.482121	0.117069
N72	N	2.023252	0.815454	0.450402
C73	C	1.400605	0.104711	0.260107
C74	C	1.733938	0.438044	0.593440
C75	C	2.067272	0.771377	0.926774
C76	C	1.394626	0.110692	0.347513
C77	C	1.727959	0.444026	0.680847
C78	C	2.061292	0.777359	1.014180
C79	C	1.314936	0.190344	0.391217
C80	C	1.648270	0.523677	0.724550
C81	C	1.981603	0.857010	1.057884
C82	C	1.241214	0.264011	0.347510
C83	C	1.574547	0.597344	0.680843
C84	C	1.907880	0.930678	1.014177
C85	C	1.247188	0.258023	0.260106
C86	C	1.580522	0.591357	0.593439
C87	C	1.913855	0.924690	0.926772
C88	C	1.288837	0.216467	0.652624
C89	C	1.622171	0.549800	0.985958
C90	C	1.955504	0.883133	1.319291
C91	C	1.282870	0.222451	0.740035
C92	C	1.616204	0.555785	1.073368
C93	C	1.949537	0.889118	1.406702
C94	C	1.436282	0.069130	0.740032
C95	C	1.769615	0.402464	1.073365
C96	C	2.102948	0.735797	1.406699
C97	C	1.442254	0.063154	0.652626
C98	C	1.775587	0.396488	0.985959
C99	C	2.108921	0.729821	1.319292
C100	C	1.368527	0.136817	0.608926
C101	C	1.701861	0.470151	0.942260
C102	C	2.035194	0.803484	1.275593
N103	N	1.308825	0.196462	0.480560
N104	N	1.642158	0.529795	0.813894
N105	N	1.975491	0.863129	1.147227
N106	N	1.374634	0.130693	0.519585
N107	N	1.707968	0.464026	0.852918
N108	N	2.041301	0.797359	1.186252
H109	H	1.465501	0.039855	0.224529
H110	H	1.798835	0.373188	0.557862
H111	H	2.132168	0.706521	0.891196
H112	H	1.454649	0.050709	0.383094
H113	H	1.787982	0.384042	0.716427
H114	H	2.121316	0.717375	1.049761
F115	F	1.527069	-0.021618	0.606114
F116	F	1.860402	0.311715	0.939447
F117	F	2.193736	0.645049	1.272781
F118	F	1.198050	0.307235	0.786542
F119	F	1.531383	0.640568	1.119876
F120	F	1.864716	0.973902	1.453209
F121	F	1.156395	0.348778	0.394024
F122	F	1.489729	0.682111	0.727357
F123	F	1.823062	1.015445	1.060690
F124	F	1.514739	-0.009265	0.786545
F125	F	1.848072	0.324069	1.119878
F126	F	2.181406	0.657402	1.453212
H127	H	1.228808	0.276448	0.617051
H128	H	1.562141	0.609782	0.950384
H129	H	1.895475	0.943115	1.283718
H130	H	1.187161	0.318007	0.224525
H131	H	1.520494	0.651340	0.557858
H132	H	1.853827	0.984673	0.891192
