data_functionalizedCrystal
_audit_creation_method	'MofGen! by Chris Wilmer'
_symmetry_space_group_name_H-M	'P1'
_symmetry_Int_Tables_number	1
_symmetry_cell_setting	triclinic
loop_
_symmetry_equiv_pos_as_xyz
  x,y,z
_cell_length_a	6.817900
_cell_length_b	11.102291
_cell_length_c	14.858340
_cell_angle_alpha	93.470357
_cell_angle_beta	104.519754
_cell_angle_gamma	108.605753
loop_
_atom_site_label
_atom_site_type_symbol
_atom_site_fract_x
_atom_site_fract_y
_atom_site_fract_z
V1	V	-4.064506	-0.176650	-0.289961
O2	O	-4.024433	0.007655	-0.284441
O3	O	-4.041605	-0.349465	-0.287979
O4	O	-4.020778	-0.174298	-0.416423
O5	O	-4.045405	-0.168724	-0.155107
V6	V	-4.544224	-0.154562	-0.273831
O7	O	-4.334110	-0.225102	-0.325343
O8	O	-4.724818	-0.106109	-0.238450
O9	O	-4.343918	0.018253	-0.275814
O10	O	-4.701694	-0.338866	-0.279352
O11	O	-4.680722	-0.162487	-0.408685
O12	O	-4.364746	-0.156913	-0.147370
C13	C	-3.892658	-0.391582	-0.283404
C14	C	-3.955252	-0.532863	-0.282627
C15	C	-4.089806	-0.750371	-0.366700
C16	C	-4.031012	-0.617623	-0.367429
C17	C	-3.938306	-0.580856	-0.197090
C18	C	-3.997113	-0.713602	-0.196362
C19	C	-4.165546	-0.835126	-0.451507
C20	C	-4.182500	-0.787142	-0.537044
C21	C	-4.123706	-0.654394	-0.537773
C22	C	-4.047959	-0.569630	-0.452966
C23	C	-3.866089	-0.168138	-0.447247
C24	C	-3.911789	-0.167359	-0.550630
C25	C	-3.948899	-0.166725	-0.634588
C26	C	-3.995471	-0.165925	-0.739917
C27	C	-4.032605	-0.165286	-0.823869
C28	C	-4.079181	-0.164488	-0.929205
C29	C	-4.156208	0.060364	-0.280385
C30	C	-4.072853	0.201643	-0.281169
C31	C	-4.182777	-0.163077	-0.116541
C32	C	-4.116315	-0.163850	-0.013157
H33	H	-4.137537	-0.615330	-0.607422
H34	H	-4.244190	-0.856165	-0.606092
O35	O	-3.856569	-0.489438	-0.105622
H36	H	-3.964563	-0.432916	-0.105346
H37	H	-3.983304	-0.752672	-0.126716
H38	H	-4.000108	-0.461540	-0.453567
H39	H	-4.213417	-0.943218	-0.450923
