data_functionalizedCrystal
_audit_creation_method	'MofGen! by Chris Wilmer'
_symmetry_space_group_name_H-M	'P1'
_symmetry_Int_Tables_number	1
_symmetry_cell_setting	triclinic
loop_
_symmetry_equiv_pos_as_xyz
  x,y,z
_cell_length_a	11.792254
_cell_length_b	19.188930
_cell_length_c	10.868271
_cell_angle_alpha	89.989749
_cell_angle_beta	89.995741
_cell_angle_gamma	83.671689
loop_
_atom_site_label
_atom_site_type_symbol
_atom_site_fract_x
_atom_site_fract_y
_atom_site_fract_z
O1	O	1.505467	0.095737	-0.102336
O2	O	1.838800	0.429071	0.230997
O3	O	2.172134	0.762404	0.564330
O4	O	1.174980	0.105590	-0.102341
O5	O	1.508314	0.438924	0.230993
O6	O	1.841647	0.772257	0.564326
O7	O	1.349761	-0.000938	-0.102314
O8	O	1.683094	0.332396	0.231019
O9	O	2.016427	0.665729	0.564352
O10	O	1.330686	0.202265	-0.102363
O11	O	1.664020	0.535598	0.230971
O12	O	1.997353	0.868932	0.564304
O13	O	1.349746	-0.000942	0.102330
O14	O	1.683080	0.332392	0.435664
O15	O	2.016413	0.665725	0.768997
O16	O	1.174966	0.105586	0.102304
O17	O	1.508299	0.438919	0.435637
O18	O	1.841633	0.772253	0.768971
O19	O	1.505453	0.095733	0.102308
O20	O	1.838786	0.429066	0.435642
O21	O	2.172119	0.762400	0.768975
Zn22	Zn	1.340207	0.100659	0.134798
Zn23	Zn	1.673540	0.433992	0.468131
Zn24	Zn	2.006874	0.767326	0.801465
Zn25	Zn	1.340226	0.100664	-0.134830
Zn26	Zn	1.673559	0.433998	0.198503
Zn27	Zn	2.006892	0.767331	0.531836
O28	O	1.330672	0.202261	0.102282
O29	O	1.664005	0.535594	0.435615
O30	O	1.997339	0.868928	0.768949
C31	C	1.132692	0.104968	-0.000018
C32	C	1.466025	0.438301	0.333315
C33	C	1.799358	0.771634	0.666648
C34	C	1.006706	0.103110	-0.000019
C35	C	1.340040	0.436443	0.333314
C36	C	1.673373	0.769776	0.666648
C37	C	0.904392	0.101600	-0.000024
C38	C	1.237726	0.434934	0.333309
C39	C	1.571059	0.768267	0.666643
C40	C	0.776034	0.099713	-0.000024
C41	C	1.109367	0.433046	0.333309
C42	C	1.442701	0.766379	0.666642
C43	C	1.349136	-0.026954	0.000012
C44	C	1.682469	0.306379	0.333345
C45	C	2.015802	0.639712	0.666678
C46	C	1.347282	-0.104469	0.000022
C47	C	1.680615	0.228864	0.333355
C48	C	2.013948	0.562197	0.666689
C49	C	1.449837	-0.148809	0.000029
C50	C	1.783170	0.184524	0.333363
C51	C	2.116504	0.517857	0.666696
C52	C	1.448095	-0.221643	0.000010
C53	C	1.781428	0.111690	0.333343
C54	C	2.114762	0.445023	0.666676
C55	C	1.343792	-0.250134	0.000007
C56	C	1.677125	0.083200	0.333341
C57	C	2.010458	0.416533	0.666674
C58	C	1.241223	-0.205784	-0.000007
C59	C	1.574556	0.127550	0.333327
C60	C	1.907889	0.460883	0.666660
C61	C	1.242968	-0.132951	0.000001
C62	C	1.576301	0.200382	0.333334
C63	C	1.909634	0.533715	0.666667
N64	N	1.264059	-0.358594	0.069651
N65	N	1.597393	-0.025260	0.402984
N66	N	1.930726	0.308073	0.736318
N67	N	1.262409	-0.427782	0.069646
N68	N	1.595742	-0.094448	0.402980
N69	N	1.929076	0.238885	0.736313
C70	C	1.338528	-0.469572	-0.000018
C71	C	1.671861	-0.136239	0.333316
C72	C	2.005195	0.197095	0.666649
N73	N	1.416378	-0.439562	-0.069662
N74	N	1.749711	-0.106229	0.263672
N75	N	2.083044	0.227105	0.597005
N76	N	1.418032	-0.370368	-0.069652
N77	N	1.751365	-0.037035	0.263682
N78	N	2.084698	0.296299	0.597015
C79	C	1.341888	-0.329107	-0.000001
C80	C	1.675221	0.004227	0.333332
C81	C	2.008555	0.337560	0.666665
C82	C	1.439202	-0.592887	-0.000034
C83	C	1.772535	-0.259554	0.333300
C84	C	2.105868	0.073779	0.666633
C85	C	1.437455	-0.665722	-0.000061
C86	C	1.770789	-0.332389	0.333272
C87	C	2.104122	0.000945	0.666606
C88	C	1.230580	-0.649861	-0.000065
C89	C	1.563914	-0.316528	0.333268
C90	C	1.897247	0.016806	0.666602
C91	C	1.232330	-0.577028	-0.000050
C92	C	1.565663	-0.243694	0.333283
C93	C	1.898996	0.089639	0.666617
C94	C	1.336643	-0.548546	-0.000028
C95	C	1.669977	-0.215212	0.333305
C96	C	2.003310	0.118121	0.666638
C97	C	1.547741	0.096356	-0.000016
C98	C	1.881074	0.429689	0.333317
C99	C	2.214408	0.763022	0.666650
C100	C	1.673726	0.098214	-0.000024
C101	C	2.007060	0.431547	0.333309
C102	C	2.340393	0.764880	0.666643
C103	C	1.331297	0.228278	-0.000047
C104	C	1.664630	0.561611	0.333287
C105	C	1.997964	0.894944	0.666620
C106	C	1.333151	0.305793	-0.000065
C107	C	1.666485	0.639126	0.333268
C108	C	1.999818	0.972459	0.666602
N109	N	1.340202	0.100655	0.318812
N110	N	1.673536	0.433988	0.652145
N111	N	2.006869	0.767321	0.985479
N112	N	1.340239	0.100663	-0.318844
N113	N	1.673573	0.433996	0.014489
N114	N	2.006906	0.767330	0.347822
C115	C	1.340220	0.100663	0.569818
C116	C	1.673553	0.433996	0.903151
C117	C	2.006887	0.767330	1.236485
C118	C	1.340207	0.100660	0.430141
C119	C	1.673540	0.433994	0.763474
C120	C	2.006873	0.767327	1.096807
H121	H	1.534777	-0.125624	0.000043
H122	H	1.868111	0.207709	0.333376
H123	H	2.201444	0.541042	0.666709
O124	O	1.132630	-0.534024	-0.000205
O125	O	1.465964	-0.200690	0.333128
O126	O	1.799297	0.132643	0.666462
C127	C	1.069298	-0.546970	-0.106210
C128	C	1.402631	-0.213637	0.227123
C129	C	1.735965	0.119696	0.560457
H130	H	1.097445	-0.602101	-0.141553
H131	H	1.430778	-0.268767	0.191781
H132	H	1.764112	0.064566	0.525114
H133	H	0.974614	-0.542213	-0.082373
H134	H	1.307947	-0.208879	0.250960
H135	H	1.641280	0.124454	0.584293
H136	H	1.084622	-0.507068	-0.180421
H137	H	1.417955	-0.173735	0.152912
H138	H	1.751288	0.159599	0.486246
H139	H	1.520972	-0.701824	-0.000062
H140	H	1.854305	-0.368491	0.333272
H141	H	2.187639	-0.035157	0.666605
H142	H	1.531611	-0.257752	0.000011
H143	H	1.864944	0.075581	0.333344
H144	H	2.198277	0.408915	0.666677
H145	H	1.156298	-0.228985	-0.000011
H146	H	1.489632	0.104348	0.333322
H147	H	1.822965	0.437682	0.666655
O148	O	1.143266	-0.089947	-0.000163
O149	O	1.476599	0.243386	0.333170
O150	O	1.809932	0.576720	0.666504
C151	C	1.079936	-0.102890	-0.106172
C152	C	1.413269	0.230443	0.227161
C153	C	1.746603	0.563777	0.560495
H154	H	1.108081	-0.158020	-0.141517
H155	H	1.441414	0.175313	0.191816
H156	H	1.774747	0.508647	0.525149
H157	H	0.985251	-0.098130	-0.082339
H158	H	1.318584	0.235203	0.250994
H159	H	1.651917	0.568536	0.584328
H160	H	1.095265	-0.062986	-0.180379
H161	H	1.428598	0.270347	0.152954
H162	H	1.761931	0.603680	0.486288
H163	H	1.524140	-0.569696	-0.000022
H164	H	1.857474	-0.236363	0.333312
H165	H	2.190807	0.096970	0.666645
H166	H	1.145654	-0.673057	-0.000073
H167	H	1.478988	-0.339723	0.333261
H168	H	1.812321	-0.006390	0.666594
