data_functionalizedCrystal
_audit_creation_method	'MofGen! by Chris Wilmer'
_symmetry_space_group_name_H-M	'P1'
_symmetry_Int_Tables_number	1
_symmetry_cell_setting	triclinic
loop_
_symmetry_equiv_pos_as_xyz
  x,y,z
_cell_length_a	16.974800
_cell_length_b	10.654545
_cell_length_c	16.053802
_cell_angle_alpha	92.592866
_cell_angle_beta	91.074188
_cell_angle_gamma	83.936430
loop_
_atom_site_label
_atom_site_type_symbol
_atom_site_fract_x
_atom_site_fract_y
_atom_site_fract_z
O1	O	1.049953	0.160086	0.001545
O2	O	1.549953	0.660086	0.501545
O3	O	0.820596	0.179311	-0.013959
O4	O	1.320596	0.679311	0.486041
O5	O	0.940547	-0.013097	-0.005850
O6	O	1.440547	0.486903	0.494150
O7	O	0.930002	0.352493	-0.006564
O8	O	1.430002	0.852493	0.493436
O9	O	0.933944	-0.002550	0.132562
O10	O	1.433944	0.497450	0.632562
O11	O	0.813993	0.189857	0.124453
O12	O	1.313993	0.689857	0.624453
O13	O	1.043350	0.170633	0.139957
O14	O	1.543350	0.670633	0.639957
Zn15	Zn	0.927623	0.181920	0.154181
Zn16	Zn	1.427623	0.681920	0.654181
Zn17	Zn	0.936323	0.168024	-0.028183
Zn18	Zn	1.436323	0.668024	0.471817
O19	O	0.923399	0.363040	0.131848
O20	O	1.423399	0.863040	0.631848
C21	C	0.787927	0.183660	0.053262
C22	C	1.287927	0.683660	0.553262
C23	C	0.700419	0.180890	0.047346
C24	C	1.200419	0.680890	0.547346
C25	C	0.655713	0.185336	0.120018
C26	C	1.155713	0.685336	0.620018
C27	C	0.573492	0.182714	0.114462
C28	C	1.073492	0.682714	0.614462
C29	C	0.535977	0.175656	0.036234
C30	C	1.035977	0.675656	0.536234
C31	C	0.580689	0.171206	-0.036443
C32	C	1.080689	0.671206	0.463557
C33	C	0.662909	0.173819	-0.030887
C34	C	1.162909	0.673819	0.469113
C35	C	0.290460	0.167216	0.011524
C36	C	0.790460	0.667216	0.511524
C37	C	0.208233	0.164607	0.005973
C38	C	0.708233	0.664607	0.505973
C39	C	0.201042	0.176112	0.156879
C40	C	0.701042	0.676112	0.656879
C41	C	0.283264	0.178732	0.162429
C42	C	0.783264	0.678732	0.662429
C43	C	0.327969	0.174276	0.089752
C44	C	0.827969	0.674276	0.589752
N45	N	0.451933	0.172980	0.030553
N46	N	0.951933	0.672980	0.530553
N47	N	0.412012	0.176943	0.095433
N48	N	0.912012	0.676943	0.595433
C49	C	0.936471	-0.054613	0.063302
C50	C	1.436471	0.445387	0.563302
C51	C	0.934154	-0.194032	0.063141
C52	C	1.434154	0.305968	0.563141
C53	C	0.941362	-0.205539	-0.087760
C54	C	1.441362	0.294461	0.412240
C55	C	0.943880	-0.276791	-0.163284
C56	C	1.443880	0.223209	0.336716
C57	C	0.941703	-0.407787	-0.163432
C58	C	1.441703	0.092213	0.336568
C59	C	0.937005	-0.467533	-0.088049
C60	C	1.437005	0.032467	0.411951
C61	C	0.934487	-0.396281	-0.012525
C62	C	1.434487	0.103719	0.487475
C63	C	0.936667	-0.265283	-0.012385
C64	C	1.436667	0.234717	0.487615
C65	C	0.927274	-0.384773	0.138374
C66	C	1.427274	0.115227	0.638374
C67	C	0.929456	-0.253778	0.138524
C68	C	1.429456	0.246222	0.638524
C69	C	0.922576	-0.444519	0.213757
C70	C	1.422576	0.055481	0.713757
C71	C	0.920063	-0.373268	0.289283
C72	C	1.420063	0.126732	0.789283
C73	C	0.922241	-0.242264	0.289428
C74	C	1.422241	0.257736	0.789428
C75	C	0.926938	-0.182526	0.214047
C76	C	1.426938	0.317474	0.714047
C77	C	1.076019	0.166284	0.072734
C78	C	1.576019	0.666284	0.572734
C79	C	1.163527	0.169052	0.078645
C80	C	1.663527	0.669052	0.578645
C81	C	0.927475	0.404556	0.062694
C82	C	1.427475	0.904556	0.562694
C83	C	0.929792	0.543975	0.062850
C84	C	1.429792	1.043975	0.562850
N85	N	0.921692	0.191403	0.278641
N86	N	1.421692	0.691403	0.778641
N87	N	0.942260	0.158531	-0.152642
N88	N	1.442260	0.658531	0.347358
C89	C	0.972750	0.109562	0.325786
C90	C	1.472750	0.609562	0.825786
C91	C	0.968609	0.116208	0.412913
C92	C	1.468609	0.616208	0.912913
C93	C	0.913412	0.204700	0.452893
C94	C	1.413412	0.704700	0.952893
C95	C	0.862348	0.286544	0.405741
C96	C	1.362348	0.786544	0.905741
C97	C	0.866487	0.279892	0.318615
C98	C	1.366487	0.779892	0.818615
C99	C	0.895335	0.233722	0.713080
C100	C	1.395335	0.733722	1.213080
C101	C	0.891202	0.240371	0.800212
C102	C	1.391202	0.740371	1.300212
C103	C	0.997462	0.070032	0.807378
C104	C	1.497462	0.570032	1.307378
C105	C	1.001598	0.063393	0.720251
C106	C	1.501598	0.563393	1.220251
C107	C	0.950532	0.145232	0.673107
C108	C	1.450532	0.645232	1.173107
N109	N	0.909179	0.211498	0.541950
N110	N	1.409179	0.711498	1.041950
N111	N	0.954762	0.138428	0.584050
N112	N	1.454762	0.638428	1.084050
H113	H	0.326850	0.163584	-0.047654
H114	H	0.826850	0.663584	0.452346
H115	H	0.164634	0.179738	0.216048
H116	H	0.664634	0.679738	0.716048
H117	H	0.699308	0.170202	-0.090064
H118	H	1.199308	0.670202	0.409936
F119	F	0.840989	0.320824	0.662912
F120	F	1.340989	0.820824	1.162912
F121	F	0.803599	0.380720	0.448290
F122	F	1.303599	0.880720	0.948290
F123	F	0.525914	0.187462	0.191809
F124	F	1.025914	0.687462	0.691809
H125	H	0.916233	-0.421922	0.350653
H126	H	1.416233	0.078078	0.850653
H127	H	0.947704	-0.228132	-0.224660
H128	H	1.447704	0.271868	0.275340
H129	H	1.017701	0.037508	0.293241
H130	H	1.517701	0.537508	0.793241
F131	F	0.920252	-0.583935	0.213597
F132	F	1.420252	-0.083935	0.713597
F133	F	0.323183	0.186251	0.245690
F134	F	0.823183	0.686251	0.745690
H135	H	0.928716	-0.075864	0.214158
H136	H	1.428716	0.424136	0.714158
H137	H	0.943144	-0.098878	-0.087647
H138	H	1.443144	0.401122	0.412353
H139	H	1.039037	0.003401	0.845771
H140	H	1.539037	0.503401	1.345771
F141	F	0.832451	0.334565	0.842756
F142	F	1.332451	0.834565	1.342756
H143	H	0.177691	0.158863	-0.057733
H144	H	0.677691	0.658863	0.442267
F145	F	0.944378	-0.483620	-0.243812
F146	F	1.444378	0.016380	0.256188
H147	H	0.824909	0.346533	0.280230
H148	H	1.324909	0.846533	0.780230
H149	H	1.046544	-0.008664	0.687702
H150	H	1.546544	0.491336	1.187702
F151	F	0.695631	0.192856	0.203279
F152	F	1.195631	0.692856	0.703279
F153	F	0.540764	0.163656	-0.119700
F154	F	1.040764	0.663656	0.380300
H155	H	0.935224	-0.574195	-0.088177
H156	H	1.435224	-0.074195	0.411823
H157	H	0.920178	-0.184255	0.350928
H158	H	1.420178	0.315745	0.850928
F159	F	1.022950	0.029103	0.463089
F160	F	1.522950	0.529103	0.963089
