data_functionalizedCrystal
_audit_creation_method	'MofGen! by Chris Wilmer'
_symmetry_space_group_name_H-M	'P1'
_symmetry_Int_Tables_number	1
_symmetry_cell_setting	triclinic
loop_
_symmetry_equiv_pos_as_xyz
  x,y,z
_cell_length_a	23.532407
_cell_length_b	19.288865
_cell_length_c	18.366186
_cell_angle_alpha	90.011479
_cell_angle_beta	89.988493
_cell_angle_gamma	97.007538
loop_
_atom_site_label
_atom_site_type_symbol
_atom_site_fract_x
_atom_site_fract_y
_atom_site_fract_z
O1	O	0.755438	-0.084319	-0.060599
O2	O	0.589600	-0.096519	-0.060592
O3	O	0.677311	0.010726	-0.060581
O4	O	0.667727	-0.191564	-0.060610
O5	O	0.677296	0.010731	0.060518
O6	O	0.589585	-0.096514	0.060507
O7	O	0.755423	-0.084314	0.060501
Zn8	Zn	0.672502	-0.090413	0.079731
Zn9	Zn	0.672521	-0.090420	-0.079823
O10	O	0.667712	-0.191559	0.060490
C11	C	0.568376	-0.096206	-0.000042
C12	C	0.505157	-0.095272	-0.000039
C13	C	0.676995	0.036604	-0.000029
C14	C	0.676069	0.113705	-0.000023
C15	C	0.776647	-0.084627	-0.000052
C16	C	0.839866	-0.085561	-0.000059
C17	C	1.238850	-0.027954	-0.000026
C18	C	1.298252	-0.028822	-0.000023
O19	O	1.334886	0.024580	0.000011
N20	N	1.321010	-0.092579	-0.000034
C21	C	1.284363	-0.155473	-0.000041
O22	O	1.309175	-0.209783	-0.000049
C23	C	1.224962	-0.154604	-0.000039
C24	C	1.202207	-0.090843	-0.000035
C25	C	1.216094	0.035802	-0.000022
C26	C	1.156696	0.036669	-0.000026
C27	C	1.120054	-0.026220	-0.000035
C28	C	1.142809	-0.089976	-0.000040
C29	C	1.188316	-0.217497	-0.000040
C30	C	1.128912	-0.216623	-0.000038
C31	C	1.106157	-0.152862	-0.000034
C32	C	1.046769	-0.151997	-0.000053
N33	N	1.024011	-0.088240	-0.000042
C34	C	1.060653	-0.025351	-0.000033
C35	C	1.409109	-0.157292	-0.000044
C36	C	1.468509	-0.158161	-0.000051
C37	C	1.482394	-0.031510	-0.000032
C38	C	1.422993	-0.030641	-0.000030
C39	C	1.386351	-0.093535	-0.000033
C40	C	0.935913	-0.023534	-0.000043
C41	C	0.876509	-0.022672	-0.000050
C42	C	0.862629	-0.149323	-0.000066
C43	C	0.922028	-0.150185	-0.000062
C44	C	0.958669	-0.087285	-0.000048
O45	O	1.010100	-0.205371	-0.000084
O46	O	1.035833	0.028950	-0.000015
C47	C	0.668028	-0.217437	-0.000064
C48	C	0.668954	-0.294538	-0.000075
N49	N	0.672493	-0.090408	0.188622
C50	C	0.727534	0.158560	-0.000021
C51	C	0.726664	0.231004	-0.000033
C52	C	0.674327	0.258590	-0.000031
C53	C	0.622855	0.213725	-0.000037
C54	C	0.623727	0.141283	-0.000033
C55	C	0.633179	0.366753	0.042389
C56	C	0.632310	0.439194	0.042389
C57	C	0.671638	0.482028	-0.000048
C58	C	0.711845	0.452412	-0.042475
C59	C	0.712716	0.379969	-0.042471
C60	C	0.673377	0.337141	-0.000036
C61	C	0.722163	0.605436	-0.000059
C62	C	0.721292	0.677881	-0.000075
C63	C	0.617481	0.660601	-0.000072
C64	C	0.618354	0.588157	-0.000064
C65	C	0.670697	0.560579	-0.000054
N66	N	0.672535	-0.090420	-0.188714
C67	C	0.711344	-0.042943	0.226727
C68	C	0.711347	-0.042940	0.302955
C69	C	0.672505	-0.090414	0.341075
C70	C	0.633647	-0.137882	0.302960
C71	C	0.633640	-0.137880	0.226734
C72	C	0.664881	-0.153725	0.461826
C73	C	0.664892	-0.153729	0.538051
C74	C	0.672521	-0.090422	0.576182
C75	C	0.680153	-0.027109	0.538079
C76	C	0.680147	-0.027107	0.461853
C77	C	0.672507	-0.090422	0.423730
C78	C	0.711378	-0.042950	0.696943
C79	C	0.711378	-0.042946	0.773172
C80	C	0.633680	-0.137895	0.773176
C81	C	0.633678	-0.137893	0.696948
C82	C	0.672530	-0.090421	0.658836
H83	H	0.857985	0.029252	-0.000049
Cl84	Cl	0.655342	-0.233320	0.413898
H85	H	0.602020	-0.176535	0.334001
H86	H	1.487030	-0.210082	-0.000065
Cl87	Cl	0.793336	0.123894	-0.000030
H88	H	0.743870	0.487285	-0.077031
H89	H	0.764784	0.582981	-0.000055
H90	H	0.686365	0.024441	0.569124
Cl91	Cl	0.584796	-0.197555	0.178827
H92	H	0.965739	0.027685	-0.000032
Cl93	Cl	1.363050	-0.236366	-0.000057
Cl94	Cl	0.760182	0.016737	0.178816
H95	H	0.602044	-0.176546	0.665920
Cl96	Cl	1.128100	0.116831	-0.000028
Cl97	Cl	0.760218	0.016732	0.649029
Cl98	Cl	0.763256	0.342739	-0.095810
Cl99	Cl	1.262150	0.114873	-0.000010
H100	H	0.576446	0.551635	-0.000061
Cl101	Cl	0.583733	0.312912	0.095745
Cl102	Cl	1.082851	-0.295695	-0.000039
Cl103	Cl	0.785997	0.734272	-0.000078
H104	H	0.574867	0.683060	-0.000075
H105	H	0.832784	-0.200525	-0.000077
H106	H	0.581816	0.104761	-0.000034
Cl107	Cl	1.394393	0.049518	-0.000022
Cl108	Cl	0.760194	0.016735	0.350867
Cl109	Cl	0.584846	-0.197571	0.821092
H110	H	1.206832	-0.269419	-0.000047
Cl111	Cl	0.581766	0.476419	0.095729
H112	H	0.768575	0.267532	-0.000034
Cl113	Cl	1.528470	0.047551	-0.000021
H114	H	0.940555	-0.202105	-0.000066
Cl115	Cl	0.557060	0.248404	-0.000041
H116	H	0.686359	0.024445	0.430832
Cl117	Cl	0.655302	-0.233321	0.585945
Cl118	Cl	0.760220	0.016733	0.821079
