data_functionalizedCrystal
_audit_creation_method	'MofGen! by Chris Wilmer'
_symmetry_space_group_name_H-M	'P1'
_symmetry_Int_Tables_number	1
_symmetry_cell_setting	triclinic
loop_
_symmetry_equiv_pos_as_xyz
  x,y,z
_cell_length_a	19.805405
_cell_length_b	13.033652
_cell_length_c	19.805399
_cell_angle_alpha	97.154698
_cell_angle_beta	90.029301
_cell_angle_gamma	82.780243
loop_
_atom_site_label
_atom_site_type_symbol
_atom_site_fract_x
_atom_site_fract_y
_atom_site_fract_z
Zn1	Zn	-0.137899	-1.597535	0.251485
Zn2	Zn	-0.251098	-1.597403	0.138305
Zn3	Zn	-0.152310	-1.422787	0.152664
Zn4	Zn	-0.265449	-1.422731	0.265799
O5	O	-0.201689	-1.510114	0.202063
O6	O	-0.140878	-1.743751	0.224472
O7	O	-0.238019	-1.574208	0.045495
O8	O	-0.055676	-1.446046	0.165792
O9	O	-0.224045	-1.743654	0.141318
O10	O	-0.045087	-1.574433	0.238396
O11	O	-0.165440	-1.445919	0.056045
O12	O	-0.179356	-1.276546	0.179672
O13	O	-0.248503	-1.445950	0.358615
O14	O	-0.262478	-1.276505	0.262792
O15	O	-0.154793	-1.574378	0.348098
O16	O	-0.347725	-1.574154	0.155198
O17	O	-0.358268	-1.445823	0.248868
C18	C	-0.224038	-1.238609	0.224344
C19	C	-0.233616	-1.122458	0.233891
C20	C	-0.196697	-1.070667	0.197088
C21	C	-0.206595	-0.950618	0.206955
C22	C	-0.377555	-1.509996	0.202040
C23	C	-0.452783	-1.510042	0.202045
C24	C	-0.482609	-1.576928	0.153311
C25	C	-0.553294	-1.576973	0.153323
C26	C	-0.594152	-1.510124	0.202065
C27	C	-0.564321	-1.443234	0.250804
C28	C	-0.493637	-1.443196	0.250795
C29	C	-0.849381	-1.443389	0.250842
C30	C	-0.920070	-1.443430	0.250846
C31	C	-0.909038	-1.577165	0.153369
C32	C	-0.838354	-1.577127	0.153360
C33	C	-0.808529	-1.510242	0.202101
C34	C	-0.731885	-1.510196	0.202089
C35	C	-0.670795	-1.510164	0.202075
C36	C	-0.025134	-1.510260	0.202099
C37	C	0.050103	-1.510323	0.202114
C38	C	-0.201641	-1.510172	0.378601
C39	C	-0.201621	-1.510197	0.453831
C40	C	-0.179247	-0.782679	0.179692
C41	C	-0.169671	-0.898830	0.170147
C42	C	-0.201682	-1.510116	0.026207
C43	C	-0.201495	-1.510293	-0.049039
C44	C	-0.152824	-1.577071	0.483701
C45	C	-0.152803	-1.577082	0.554388
C46	C	-0.201584	-1.510223	0.595205
C47	C	-0.250384	-1.443342	0.565331
C48	C	-0.250401	-1.443327	0.494645
C49	C	-0.250316	-1.443401	0.850400
C50	C	-0.250296	-1.443424	0.921090
C51	C	-0.152718	-1.577156	0.910143
C52	C	-0.152735	-1.577141	0.839457
C53	C	-0.201533	-1.510256	0.809590
C54	C	-0.201554	-1.510244	0.732942
C55	C	-0.201566	-1.510240	0.671851
H56	H	-0.449347	-1.631360	0.113617
C57	C	-0.099162	-1.650612	0.438809
H58	H	-0.070093	-1.690432	0.466725
H59	H	-0.121309	-1.696119	0.407492
H60	H	-0.072965	-1.610644	0.414523
C61	C	-0.117067	-0.958977	0.117711
H62	H	-0.117310	-1.031772	0.117960
H63	H	-0.128372	-0.941106	0.073674
H64	H	-0.073059	-0.941169	0.129160
H65	H	-0.597592	-1.388810	0.290494
H66	H	-0.290130	-1.388861	0.470328
H67	H	-0.272553	-1.077922	0.272703
H68	H	-0.112983	-1.631613	0.934469
H69	H	-0.577575	-1.631438	0.113638
C70	C	-0.259196	-0.890470	0.259394
H71	H	-0.258944	-0.817675	0.259150
H72	H	-0.303203	-0.908276	0.247955
H73	H	-0.247880	-0.908339	0.303433
C74	C	-0.793414	-1.650663	0.099745
H75	H	-0.821301	-1.690514	0.070726
H76	H	-0.769169	-1.610706	0.073507
H77	H	-0.762053	-1.696158	0.121931
C78	C	-0.941847	-1.650746	0.099758
H79	H	-0.989795	-1.641206	0.106746
H80	H	-0.931558	-1.635484	0.055524
H81	H	-0.924435	-1.720947	0.103940
H82	H	-0.953335	-1.388995	0.290543
C83	C	-0.099143	-1.650667	0.587243
H84	H	-0.106116	-1.641102	0.635186
H85	H	-0.103290	-1.720860	0.569892
H86	H	-0.054915	-1.635428	0.576926
C87	C	-0.816583	-1.369800	0.304444
H88	H	-0.851043	-1.329983	0.333466
H89	H	-0.785676	-1.409717	0.330681
H90	H	-0.792804	-1.324276	0.282250
C91	C	-0.460824	-1.369623	0.304401
H92	H	-0.412876	-1.379181	0.297420
H93	H	-0.478232	-1.299424	0.300225
H94	H	-0.471114	-1.384891	0.348637
C95	C	-0.099075	-1.650681	0.794562
H96	H	-0.070005	-1.690504	0.822476
H97	H	-0.121224	-1.696185	0.763245
H98	H	-0.072879	-1.610713	0.770276
H99	H	-0.290021	-1.388975	0.954322
H100	H	-0.290058	-1.388955	0.826090
C101	C	-0.304041	-1.369800	0.610228
H102	H	-0.297048	-1.379394	0.656603
H103	H	-0.299919	-1.299593	0.604405
H104	H	-0.348267	-1.385062	0.597376
H105	H	-0.157765	-1.115202	0.158272
