data_functionalizedCrystal
_audit_creation_method	'MofGen! by Chris Wilmer'
_symmetry_space_group_name_H-M	'P1'
_symmetry_Int_Tables_number	1
_symmetry_cell_setting	triclinic
loop_
_symmetry_equiv_pos_as_xyz
  x,y,z
_cell_length_a	12.594517
_cell_length_b	12.594516
_cell_length_c	13.897441
_cell_angle_alpha	89.973623
_cell_angle_beta	89.987647
_cell_angle_gamma	90.011939
loop_
_atom_site_label
_atom_site_type_symbol
_atom_site_fract_x
_atom_site_fract_y
_atom_site_fract_z
Zn1	Zn	1.627276	-0.423825	-0.545194
Zn2	Zn	2.127276	0.076175	-0.045194
Zn3	Zn	1.627164	-0.601836	-0.383907
Zn4	Zn	2.127164	-0.101836	0.116093
Zn5	Zn	1.449277	-0.423859	-0.383936
Zn6	Zn	1.949277	0.076141	0.116064
Zn7	Zn	1.449262	-0.601749	-0.545183
Zn8	Zn	1.949262	-0.101749	-0.045183
O9	O	1.538245	-0.512817	-0.464555
O10	O	2.038245	-0.012817	0.035445
O11	O	1.776207	-0.447461	-0.523791
O12	O	2.276207	0.052539	-0.023791
O13	O	1.603527	-0.578277	-0.248929
O14	O	2.103527	-0.078277	0.251071
O15	O	1.472942	-0.274909	-0.405343
O16	O	1.972942	0.225091	0.094657
O17	O	1.776125	-0.578244	-0.405294
O18	O	2.276125	-0.078244	0.094706
O19	O	1.603717	-0.274884	-0.523819
O20	O	2.103717	0.225116	-0.023819
O21	O	1.472834	-0.447519	-0.248950
O22	O	1.972834	0.052481	0.251050
O23	O	1.300329	-0.447434	-0.405333
O24	O	1.800329	0.052566	0.094667
O25	O	1.472917	-0.578097	-0.680166
O26	O	1.972917	-0.078097	-0.180166
O27	O	1.300318	-0.578130	-0.523801
O28	O	1.800318	-0.078130	-0.023801
O29	O	1.603703	-0.447377	-0.680174
O30	O	2.103703	0.052623	-0.180174
O31	O	1.603512	-0.750770	-0.405284
O32	O	2.103512	-0.250770	0.094716
O33	O	1.472808	-0.750706	-0.523773
O34	O	1.972808	-0.250706	-0.023773
C35	C	1.261704	-0.512777	-0.464570
C36	C	1.761704	-0.012777	0.035430
C37	C	1.143399	-0.512785	-0.464599
C38	C	1.643399	-0.012785	0.035401
C39	C	1.074170	-0.584010	-0.528909
C40	C	1.574170	-0.084010	-0.028909
C41	C	1.003362	-0.486964	-0.552630
C42	C	1.503362	0.013036	-0.052630
C43	C	1.003408	-0.609912	-0.440857
C44	C	1.503408	-0.109912	0.059143
C45	C	1.074149	-0.415688	-0.488366
C46	C	1.574149	0.084312	0.011634
C47	C	1.074200	-0.538701	-0.376552
C48	C	1.574200	-0.038701	0.123448
C49	C	1.003424	-0.441588	-0.400239
C50	C	1.503424	0.058412	0.099761
C51	C	1.538175	-0.789358	-0.464545
C52	C	2.038175	-0.289358	0.035455
C53	C	1.538243	-0.907664	-0.464574
C54	C	2.038243	-0.407664	0.035426
C55	C	1.467146	-0.976921	-0.528974
C56	C	1.967146	-0.476921	-0.028974
C57	C	1.441211	-1.047785	-0.440961
C58	C	1.941211	-0.547785	0.059039
C59	C	1.564275	-1.047599	-0.552602
C60	C	2.064275	-0.547599	-0.052602
C61	C	1.512257	-0.976969	-0.376514
C62	C	2.012257	-0.476969	0.123486
C63	C	1.635365	-0.976777	-0.488214
C64	C	2.135365	-0.476777	0.011786
C65	C	1.609467	-1.047609	-0.400140
C66	C	2.109467	-0.547609	0.099860
C67	C	1.815866	-0.512858	-0.464541
C68	C	2.315866	-0.012858	0.035459
C69	C	1.934171	-0.512876	-0.464535
C70	C	2.434171	-0.012876	0.035465
C71	C	1.538320	-0.512723	-0.716148
C72	C	2.038320	-0.012723	-0.216148
C73	C	1.538353	-0.512683	-0.823362
C74	C	2.038353	-0.012683	-0.323362
C75	C	1.538344	-0.235196	-0.464585
C76	C	2.038344	0.264804	0.035415
C77	C	1.538386	-0.116891	-0.464599
C78	C	2.038386	0.383109	0.035401
C79	C	1.538382	-0.512611	-1.019657
C80	C	2.038382	-0.012611	-0.519657
C81	C	1.538362	-0.512654	-0.910425
C82	C	2.038362	-0.012654	-0.410425
C83	C	1.538231	-0.512834	-0.213941
C84	C	2.038231	-0.012834	0.286059
C85	C	1.538405	-0.512574	-0.106727
C86	C	2.038405	-0.012574	0.393273
H87	H	0.972557	-0.381325	-0.345827
H88	H	1.472557	0.118675	0.154173
H89	H	1.490202	-0.946072	-0.302058
H90	H	1.990202	-0.446072	0.197942
H91	H	0.972246	-0.465076	-0.627062
H92	H	1.472246	0.034924	-0.127062
H93	H	1.105236	-0.644126	-0.583364
H94	H	1.605236	-0.144126	-0.083364
H95	H	1.105093	-0.333563	-0.508504
H96	H	1.605093	0.166437	-0.008504
C97	C	1.116277	-0.568308	-0.276033
C98	C	1.616277	-0.068308	0.223967
H99	H	1.092100	-0.637343	-0.259280
H100	H	1.592100	-0.137343	0.240720
H101	H	1.091002	-0.518450	-0.230163
H102	H	1.591002	-0.018450	0.269837
H103	H	1.191699	-0.567422	-0.276650
H104	H	1.691699	-0.067422	0.223350
H105	H	1.586234	-1.078624	-0.627037
H106	H	2.086234	-0.578624	-0.127037
C107	C	0.961413	-0.720815	-0.413769
C108	C	1.461413	-0.220815	0.086231
H109	H	0.985644	-0.771296	-0.459553
H110	H	1.485644	-0.271296	0.040447
H111	H	0.885996	-0.719881	-0.413371
H112	H	1.385996	-0.219881	0.086629
H113	H	0.986709	-0.739696	-0.351683
H114	H	1.486709	-0.239696	0.148317
H115	H	1.406914	-0.945882	-0.583357
H116	H	1.906914	-0.445882	-0.083357
H117	H	1.359143	-1.078998	-0.420986
H118	H	1.859143	-0.578998	0.079014
C119	C	1.690769	-1.089287	-0.326502
C120	C	2.190769	-0.589287	0.173498
H121	H	1.672154	-1.064973	-0.264035
H122	H	2.172154	-0.564973	0.235965
H123	H	1.759503	-1.063900	-0.342753
H124	H	2.259503	-0.563900	0.157247
H125	H	1.690787	-1.164712	-0.327276
H126	H	2.190787	-0.664712	0.172724
C127	C	1.746224	-0.934647	-0.515236
C128	C	2.246224	-0.434647	-0.015236
H129	H	1.764572	-0.958797	-0.577819
H130	H	2.264572	-0.458797	-0.077819
H131	H	1.796929	-0.959928	-0.470122
H132	H	2.296929	-0.459928	0.029878
H133	H	1.745561	-0.859225	-0.514456
H134	H	2.245561	-0.359225	-0.014456
