data_functionalizedCrystal
_audit_creation_method	'MofGen! by Chris Wilmer'
_symmetry_space_group_name_H-M	'P1'
_symmetry_Int_Tables_number	1
_symmetry_cell_setting	triclinic
loop_
_symmetry_equiv_pos_as_xyz
  x,y,z
_cell_length_a	14.044220
_cell_length_b	14.519709
_cell_length_c	12.503552
_cell_angle_alpha	93.525226
_cell_angle_beta	93.839891
_cell_angle_gamma	91.565489
loop_
_atom_site_label
_atom_site_type_symbol
_atom_site_fract_x
_atom_site_fract_y
_atom_site_fract_z
O1	O	1.263541	-0.217493	0.089211
O2	O	1.596874	0.115841	0.422544
O3	O	1.930208	0.449174	0.755877
O4	O	0.987560	-0.209467	0.089238
O5	O	1.320893	0.123866	0.422571
O6	O	1.654226	0.457200	0.755904
O7	O	1.132867	-0.079832	0.089214
O8	O	1.466200	0.253501	0.422547
O9	O	1.799534	0.586834	0.755880
O10	O	1.118234	-0.347128	0.089235
O11	O	1.451567	-0.013794	0.422568
O12	O	1.784900	0.319539	0.755901
O13	O	1.121926	-0.089590	-0.089427
O14	O	1.455260	0.243743	0.243906
O15	O	1.788593	0.577077	0.577240
O16	O	0.976619	-0.219225	-0.089403
O17	O	1.309952	0.114109	0.243930
O18	O	1.643286	0.447442	0.577264
O19	O	1.252600	-0.227250	-0.089430
O20	O	1.585934	0.106083	0.243903
O21	O	1.919267	0.439416	0.577237
Cu22	Cu	1.113611	-0.224128	-0.105728
Cu23	Cu	1.446944	0.109205	0.227605
Cu24	Cu	1.780277	0.442538	0.560939
Cu25	Cu	1.126549	-0.212589	0.105535
Cu26	Cu	1.459883	0.120744	0.438869
Cu27	Cu	1.793216	0.454078	0.772202
O28	O	1.107293	-0.356885	-0.089406
O29	O	1.440626	-0.023552	0.243927
O30	O	1.773960	0.309781	0.577260
C31	C	0.946769	-0.210833	-0.000079
C32	C	1.280103	0.122500	0.333254
C33	C	1.613436	0.455833	0.666587
C34	C	0.841526	-0.200356	-0.000069
C35	C	1.174860	0.132978	0.333264
C36	C	1.508193	0.466311	0.666597
N37	N	1.104517	-0.232245	-0.254319
N38	N	1.437851	0.101089	0.079014
N39	N	1.771184	0.434422	0.412348
C40	C	1.126715	-0.050296	-0.000107
C41	C	1.460048	0.283037	0.333227
C42	C	1.793381	0.616370	0.666560
C43	C	1.124671	0.052250	-0.000107
C44	C	1.458004	0.385583	0.333226
C45	C	1.791337	0.718916	0.666560
C46	C	0.648831	-0.181202	-0.000092
C47	C	0.982164	0.152131	0.333241
C48	C	1.315498	0.485464	0.666575
C49	C	0.591324	-0.255510	-0.000091
C50	C	0.924657	0.077823	0.333242
C51	C	1.257991	0.411156	0.666576
C52	C	0.484102	-0.244853	-0.000104
C53	C	0.817435	0.088480	0.333230
C54	C	1.150768	0.421813	0.666563
C55	C	0.756063	-0.191858	-0.000079
C56	C	1.089397	0.141475	0.333254
C57	C	1.422730	0.474809	0.666587
C58	C	1.293391	-0.225884	-0.000111
C59	C	1.626724	0.107449	0.333223
C60	C	1.960058	0.440783	0.666556
C61	C	1.398634	-0.236361	-0.000114
C62	C	1.731968	0.096972	0.333220
C63	C	2.065301	0.430305	0.666553
C64	C	1.113446	-0.386421	-0.000083
C65	C	1.446779	-0.053088	0.333250
C66	C	1.780112	0.280246	0.666583
C67	C	1.115490	-0.488967	-0.000076
C68	C	1.448823	-0.155633	0.333257
C69	C	1.782156	0.177700	0.666591
C70	C	1.117148	0.427754	-0.000078
C71	C	1.450482	0.761087	0.333255
C72	C	1.783815	1.094421	0.666588
C73	C	1.119237	0.323277	-0.000087
C74	C	1.452571	0.656610	0.333247
C75	C	1.785904	0.989944	0.666580
C76	C	1.120909	0.240005	-0.000094
C77	C	1.454243	0.573339	0.333240
C78	C	1.787576	0.906672	0.666573
C79	C	1.122999	0.135522	-0.000100
C80	C	1.456332	0.468855	0.333233
C81	C	1.789666	0.802188	0.666567
C82	C	1.149022	-0.192523	-0.526760
C83	C	1.482355	0.140810	-0.193426
C84	C	1.815688	0.474143	0.139907
C85	C	1.091149	-0.244185	-0.473426
C86	C	1.424482	0.089149	-0.140093
C87	C	1.757816	0.422482	0.193241
C88	C	1.098589	-0.237540	-0.351504
C89	C	1.431922	0.095794	-0.018170
C90	C	1.765256	0.429127	0.315163
C91	C	1.141583	-0.199167	-0.648693
C92	C	1.474916	0.134166	-0.315360
C93	C	1.808249	0.467499	0.017974
N94	N	1.135650	-0.204466	0.254127
N95	N	1.468983	0.128867	0.587460
N96	N	1.802317	0.462201	0.920793
H97	H	0.622617	-0.327131	-0.000080
H98	H	0.955950	0.006202	0.333253
H99	H	1.289284	0.339535	0.666587
F100	F	1.019086	-0.308520	-0.533428
F101	F	1.352419	0.024814	-0.200095
F102	F	1.685753	0.358147	0.133239
F103	F	0.607932	-0.087594	-0.000102
F104	F	0.941265	0.245739	0.333231
F105	F	1.274598	0.579072	0.666564
H106	H	1.204153	-0.143308	-0.480858
H107	H	1.537486	0.190025	-0.147525
H108	H	1.870820	0.523359	0.185808
