data_functionalizedCrystal
_audit_creation_method	'MofGen! by Chris Wilmer'
_symmetry_space_group_name_H-M	'P1'
_symmetry_Int_Tables_number	1
_symmetry_cell_setting	triclinic
loop_
_symmetry_equiv_pos_as_xyz
  x,y,z
_cell_length_a	10.654545
_cell_length_b	14.044220
_cell_length_c	9.730223
_cell_angle_alpha	90.007173
_cell_angle_beta	90.003812
_cell_angle_gamma	88.835978
loop_
_atom_site_label
_atom_site_type_symbol
_atom_site_fract_x
_atom_site_fract_y
_atom_site_fract_z
O1	O	1.681230	0.133213	0.114280
O2	O	2.181230	0.633213	0.614280
O3	O	1.317027	0.145911	0.114287
O4	O	1.817027	0.645911	0.614287
O5	O	1.493662	0.001542	0.114270
O6	O	1.993662	0.501542	0.614270
O7	O	1.504596	0.277583	0.114297
O8	O	2.004596	0.777583	0.614297
O9	O	1.493646	0.001533	-0.114310
O10	O	1.993646	0.501533	0.385690
O11	O	1.317011	0.145902	-0.114293
O12	O	1.817011	0.645902	0.385707
O13	O	1.681214	0.133205	-0.114300
O14	O	2.181214	0.633205	0.385700
Zn15	Zn	1.499110	0.139552	-0.150588
Zn16	Zn	1.999110	0.639552	0.349412
Zn17	Zn	1.499131	0.139564	0.150575
Zn18	Zn	1.999131	0.639564	0.650575
O19	O	1.504579	0.277574	-0.114283
O20	O	2.004579	0.777574	0.385717
C21	C	1.270128	0.144975	-0.000003
C22	C	1.770128	0.644975	0.499997
C23	C	1.130404	0.142189	-0.000001
C24	C	1.630404	0.642189	0.499999
C25	C	1.064759	0.140872	-0.124601
C26	C	1.564759	0.640872	0.375399
C27	C	0.933475	0.138238	-0.124601
C28	C	1.433475	0.638238	0.375399
C29	C	0.933492	0.138241	0.124609
C30	C	1.433492	0.638241	0.624609
C31	C	1.064774	0.140868	0.124608
C32	C	1.564774	0.640868	0.624608
C33	C	1.488868	-0.033808	-0.000020
C34	C	1.988868	0.466192	0.499980
C35	C	1.474593	-0.139128	-0.000022
C36	C	1.974593	0.360872	0.499978
C37	C	1.448494	-0.331961	-0.000002
C38	C	1.948494	0.168039	0.499998
C39	C	1.549742	-0.388929	0.000001
C40	C	2.049742	0.111071	0.500001
C41	C	1.535220	-0.496228	0.000012
C42	C	2.035220	0.003772	0.500012
C43	C	1.463014	-0.224652	-0.000013
C44	C	1.963014	0.275348	0.499987
C45	C	1.728114	0.134140	-0.000007
C46	C	2.228114	0.634140	0.499993
C47	C	1.867838	0.136927	-0.000000
C48	C	2.367838	0.636927	0.500000
C49	C	1.509373	0.312924	0.000011
C50	C	2.009373	0.812924	0.500011
C51	C	1.523649	0.418244	0.000021
C52	C	2.023649	0.918244	0.500021
N53	N	1.499105	0.139544	-0.356125
N54	N	1.999105	0.639544	0.143875
C55	C	1.416474	0.081494	-0.571992
C56	C	1.916474	0.581494	-0.071992
C57	C	1.416455	0.081480	-0.428109
C58	C	1.916455	0.581480	0.071891
C59	C	1.581786	0.197617	-0.428031
C60	C	2.081786	0.697617	0.071969
C61	C	1.581809	0.197625	-0.571911
C62	C	2.081809	0.697625	-0.071911
N63	N	1.499146	0.139565	0.356112
N64	N	1.999146	0.639565	0.856112
H65	H	1.118224	0.141938	0.226079
H66	H	1.618224	0.641938	0.726079
H67	H	1.647329	-0.357118	0.000091
H68	H	2.147329	0.142882	0.500091
H69	H	1.349165	0.034217	-0.630592
H70	H	1.849165	0.534217	-0.130592
O71	O	0.862666	0.136827	-0.258989
O72	O	1.362666	0.636827	0.241011
H73	H	0.930362	0.138194	-0.345632
H74	H	1.430362	0.638194	0.154368
O75	O	1.670930	0.260241	-0.350389
O76	O	2.170930	0.760241	0.149611
H77	H	1.728430	0.300616	-0.424560
H78	H	2.228430	0.800616	0.075440
H79	H	1.350914	-0.363770	0.000003
H80	H	1.850914	0.136230	0.500003
H81	H	1.118190	0.141947	-0.226065
H82	H	1.618190	0.641947	0.273935
H83	H	1.649138	0.244914	-0.630450
H84	H	2.149138	0.744914	-0.130450
O85	O	1.327281	0.018854	-0.350559
O86	O	1.827281	0.518854	0.149441
H87	H	1.269801	-0.021509	-0.424787
H88	H	1.769801	0.478491	0.075213
O89	O	0.862707	0.136831	0.259007
O90	O	1.362707	0.636831	0.759007
H91	H	0.760388	0.134794	0.238078
H92	H	1.260388	0.634794	0.738078
