data_functionalizedCrystal
_audit_creation_method	'MofGen! by Chris Wilmer'
_symmetry_space_group_name_H-M	'P1'
_symmetry_Int_Tables_number	1
_symmetry_cell_setting	triclinic
loop_
_symmetry_equiv_pos_as_xyz
  x,y,z
_cell_length_a	16.625548
_cell_length_b	16.625545
_cell_length_c	12.759393
_cell_angle_alpha	89.966045
_cell_angle_beta	89.978375
_cell_angle_gamma	90.026626
loop_
_atom_site_label
_atom_site_type_symbol
_atom_site_fract_x
_atom_site_fract_y
_atom_site_fract_z
Zn1	Zn	1.232672	-0.320931	-0.594053
Zn2	Zn	1.232565	-0.455788	-0.418366
Zn3	Zn	1.097831	-0.320975	-0.418383
Zn4	Zn	1.097797	-0.455728	-0.593998
O5	O	1.165216	-0.388355	-0.506200
O6	O	1.345490	-0.338826	-0.570764
O7	O	1.214662	-0.437948	-0.271347
O8	O	1.115777	-0.208137	-0.441716
O9	O	1.345412	-0.437905	-0.441688
O10	O	1.214844	-0.208104	-0.570780
O11	O	1.115673	-0.338902	-0.271359
O12	O	0.984994	-0.338844	-0.441662
O13	O	1.115718	-0.437803	-0.741026
O14	O	0.984969	-0.437846	-0.570686
O15	O	1.214810	-0.338768	-0.741067
O16	O	1.214629	-0.568612	-0.441634
O17	O	1.115615	-0.568568	-0.570670
C18	C	1.165128	-0.597846	-0.506167
C19	C	1.165165	-0.687467	-0.506188
C20	C	0.955725	-0.388344	-0.506171
C21	C	0.866104	-0.388358	-0.506183
C22	C	1.165196	-0.760250	-0.506209
C23	C	1.165243	-0.851558	-0.506232
C24	C	1.165285	-0.924334	-0.506245
C25	C	1.165331	-1.015649	-0.506267
C26	C	0.537928	-0.388363	-0.506228
C27	C	0.629237	-0.388360	-0.506212
C28	C	0.702013	-0.388361	-0.506205
C29	C	0.793328	-0.388357	-0.506190
C30	C	1.375525	-0.388367	-0.506230
C31	C	1.465146	-0.388373	-0.506243
C32	C	1.165272	-0.388274	-0.780233
C33	C	1.165296	-0.388239	-0.897010
C34	C	1.165326	-0.178046	-0.506256
C35	C	1.165373	-0.088425	-0.506280
C36	C	1.113771	-0.336656	-0.951878
C37	C	1.113790	-0.336631	-1.061602
C38	C	1.216866	-0.439774	-1.061581
C39	C	1.216842	-0.439803	-0.951859
C40	C	1.165206	-0.388378	-0.233233
C41	C	1.165339	-0.388186	-0.116456
H42	H	1.071799	-0.294670	-0.907224
H43	H	1.258833	-0.481755	-1.106252
H44	H	1.071833	-0.294628	-1.106271
H45	H	1.258802	-0.481811	-0.907184
