data_functionalizedCrystal
_audit_creation_method	'MofGen! by Chris Wilmer'
_symmetry_space_group_name_H-M	'P1'
_symmetry_Int_Tables_number	1
_symmetry_cell_setting	triclinic
loop_
_symmetry_equiv_pos_as_xyz
  x,y,z
_cell_length_a	16.956995
_cell_length_b	23.532407
_cell_length_c	15.455313
_cell_angle_alpha	87.356440
_cell_angle_beta	92.484637
_cell_angle_gamma	79.451574
loop_
_atom_site_label
_atom_site_type_symbol
_atom_site_fract_x
_atom_site_fract_y
_atom_site_fract_z
O1	O	1.061369	0.020953	0.072193
O2	O	0.829053	0.040954	0.072184
O3	O	0.952216	-0.052279	0.072173
O4	O	0.938206	0.114186	0.072204
O5	O	0.945173	-0.046968	-0.072088
O6	O	0.822010	0.046265	-0.072077
O7	O	1.054326	0.026264	-0.072068
Cu8	Cu	0.937525	0.036749	-0.085245
Cu9	Cu	0.945854	0.030469	0.085361
O10	O	0.931164	0.119497	-0.072057
C11	C	0.795815	0.044633	0.000052
C12	C	0.707271	0.047678	0.000048
C13	C	0.207792	0.070453	0.000085
C14	C	0.290990	0.067588	0.000083
C15	C	0.342503	0.013809	0.000067
C16	C	0.310815	-0.037109	0.000060
C17	C	0.227619	-0.034243	0.000068
C18	C	0.592387	-0.000374	0.000049
C19	C	0.675588	-0.003236	0.000039
C20	C	0.655756	0.101462	0.000064
C21	C	0.572559	0.104322	0.000066
C22	C	0.540879	0.053405	0.000064
N23	N	0.427545	0.010879	0.000063
N24	N	0.455839	0.056335	0.000074
C25	C	0.948338	-0.070824	0.000040
C26	C	0.947264	-0.133995	0.000033
C27	C	1.013424	-0.535947	0.000084
C28	C	1.012428	-0.595304	0.000090
O29	O	1.073758	-0.634689	0.000124
N30	N	0.939207	-0.614779	0.000087
C31	C	0.866979	-0.574894	0.000085
O32	O	0.804607	-0.596909	0.000084
C33	C	0.867976	-0.515537	0.000085
C34	C	0.941201	-0.496066	0.000080
C35	C	1.086643	-0.516474	0.000079
C36	C	1.087639	-0.457121	0.000071
C37	C	1.015416	-0.417240	0.000067
C38	C	0.942197	-0.436712	0.000072
C39	C	0.795748	-0.475653	0.000090
C40	C	0.796752	-0.416294	0.000091
C41	C	0.869977	-0.396822	0.000085
C42	C	0.870969	-0.337477	0.000060
N43	N	0.944190	-0.318002	0.000063
C44	C	1.016413	-0.357883	0.000067
C45	C	0.864890	-0.699546	0.000088
C46	C	0.863891	-0.758901	0.000082
C47	C	1.009341	-0.779308	0.000088
C48	C	1.010339	-0.719952	0.000088
C49	C	0.938110	-0.680071	0.000091
C50	C	1.018499	-0.233236	0.000049
C51	C	1.019488	-0.173876	0.000037
C52	C	0.874039	-0.153475	0.000036
C53	C	0.873049	-0.212829	0.000043
C54	C	0.945285	-0.252709	0.000052
O55	O	0.809671	-0.298059	0.000029
O56	O	1.078775	-0.335860	0.000080
C57	C	1.087564	0.022584	0.000066
C58	C	1.176109	0.019539	0.000075
C59	C	0.935042	0.138042	0.000078
C60	C	0.936115	0.201212	0.000090
N61	N	0.931673	0.041166	-0.205240
C62	C	0.984015	0.001570	-0.250639
C63	C	0.979596	0.004916	-0.341446
C64	C	0.922839	0.047860	-0.386853
C65	C	0.870492	0.087457	-0.341448
C66	C	0.874907	0.084109	-0.250642
C67	C	0.903781	0.062296	-0.658433
C68	C	0.899371	0.065643	-0.749245
C69	C	1.008475	-0.016900	-0.749237
C70	C	1.012889	-0.020242	-0.658430
C71	C	0.960538	0.019353	-0.613032
N72	N	0.918323	0.051281	-0.479673
N73	N	0.965051	0.015929	-0.520214
N74	N	0.951713	0.026047	0.205356
H75	H	0.681560	0.142916	0.000067
C76	C	0.557540	-0.056380	0.000037
C77	C	0.506741	-0.071571	0.074951
C78	C	0.471888	-0.127579	0.074937
C79	C	0.487835	-0.168395	0.000009
C80	C	0.538636	-0.153205	-0.074910
C81	C	0.573489	-0.097197	-0.074896
H82	H	0.494934	-0.041355	0.130421
H83	H	0.434281	-0.138823	0.130397
H84	H	0.462034	-0.209856	-0.000001
H85	H	0.550443	-0.183421	-0.130381
H86	H	0.611096	-0.085953	-0.130357
H87	H	1.077321	-0.265700	0.000060
H88	H	0.201825	-0.075703	0.000062
C89	C	0.325832	0.123598	0.000085
C90	C	0.302543	0.169931	-0.074823
C91	C	0.337381	0.225946	-0.074823
C92	C	0.395508	0.235626	0.000086
C93	C	0.418801	0.189291	0.074999
C94	C	0.383963	0.133277	0.074999
H95	H	0.259510	0.162766	-0.130280
H96	H	0.320137	0.260246	-0.130279
H97	H	0.421298	0.277091	0.000086
H98	H	0.461833	0.196456	0.130456
H99	H	0.401206	0.098977	0.130455
H100	H	0.165854	0.114246	0.000092
C101	C	1.046450	-0.045670	-0.200696
C102	C	1.051313	-0.049356	-0.100813
C103	C	1.113748	-0.096599	-0.050873
C104	C	1.171319	-0.140155	-0.100816
C105	C	1.166457	-0.136471	-0.200705
C106	C	1.104022	-0.089228	-0.250645
H107	H	1.008694	-0.017112	-0.063837
H108	H	1.117347	-0.099326	0.023071
H109	H	1.217537	-0.175127	-0.063848
H110	H	1.209076	-0.168715	-0.237681
H111	H	1.100424	-0.086500	-0.324589
H112	H	0.530622	0.148115	0.000082
H113	H	1.059105	-0.055211	-0.621461
C114	C	0.715195	-0.497057	0.000101
C115	C	0.651673	-0.477714	-0.074803
C116	C	0.571113	-0.499114	-0.074790
C117	C	0.554075	-0.539857	0.000127
C118	C	0.617599	-0.559202	0.075037
C119	C	0.698159	-0.537802	0.075024
H120	H	0.664284	-0.447552	-0.130266
H121	H	0.524089	-0.484794	-0.130244
H122	H	0.494440	-0.555698	0.000137
H123	H	0.604988	-0.589364	0.130501
H124	H	0.745184	-0.552122	0.130478
C125	C	1.168191	-0.435710	0.000082
C126	C	1.224403	-0.449549	-0.074817
C127	C	1.304960	-0.428145	-0.074799
C128	C	1.329307	-0.392902	0.000118
C129	C	1.273094	-0.379062	0.075023
C130	C	1.192536	-0.400466	0.075005
H131	H	1.206381	-0.475639	-0.130279
H132	H	1.346572	-0.438391	-0.130248
H133	H	1.388940	-0.377058	0.000132
H134	H	1.291115	-0.352971	0.130486
H135	H	1.150924	-0.390220	0.130454
C136	C	0.808057	0.134697	-0.391391
C137	C	0.803233	0.138411	-0.491274
C138	C	0.740799	0.185654	-0.541214
C139	C	0.683188	0.229183	-0.491271
C140	C	0.688009	0.225471	-0.391382
C141	C	0.750444	0.178228	-0.341442
H142	H	0.845882	0.106186	-0.528250
H143	H	0.737230	0.188401	-0.615158
H144	H	0.636970	0.264155	-0.528239
H145	H	0.645360	0.257696	-0.354406
H146	H	0.754012	0.175481	-0.267498
H147	H	1.022216	-0.027327	-0.378410
C148	C	0.717298	-0.372425	0.000092
C149	C	0.660825	-0.374919	0.075005
C150	C	0.581372	-0.331052	0.075003
C151	C	0.558392	-0.284690	0.000089
C152	C	0.614865	-0.282194	-0.074829
C153	C	0.694318	-0.326061	-0.074828
H154	H	0.677836	-0.409241	0.130465
H155	H	0.539567	-0.332900	0.130464
H156	H	0.499576	-0.252217	0.000089
H157	H	0.597855	-0.247873	-0.130290
H158	H	0.736123	-0.324213	-0.130288
C159	C	0.836930	0.112883	-0.799191
C160	C	0.779348	0.156435	-0.749253
C161	C	0.716911	0.203675	-0.799197
C162	C	0.712057	0.207362	-0.899080
C163	C	0.769642	0.163809	-0.949024
C164	C	0.832078	0.116570	-0.899080
H165	H	0.782939	0.153707	-0.675308
H166	H	0.674284	0.235916	-0.762225
H167	H	0.665838	0.242332	-0.936052
H168	H	0.766050	0.166537	-1.022968
H169	H	0.874706	0.084329	-0.936052
H170	H	0.717530	-0.047032	0.000030
H171	H	0.352765	-0.080897	0.000052
C172	C	1.166098	-0.560337	0.000079
C173	C	1.222564	-0.557830	-0.074838
C174	C	1.302024	-0.601689	-0.074846
C175	C	1.325020	-0.648054	0.000061
C176	C	1.268553	-0.650562	0.074983
C177	C	1.189092	-0.606704	0.074992
H178	H	1.205543	-0.523506	-0.130294
H179	H	1.343825	-0.599831	-0.130309
H180	H	1.383841	-0.680520	0.000055
H181	H	1.285574	-0.684886	0.130439
H182	H	1.147292	-0.608562	0.130454
H183	H	1.051095	-0.049138	-0.786208
H184	H	1.079119	-0.158026	0.000031
H185	H	1.069965	-0.704103	0.000084
H186	H	1.068149	-0.811790	0.000094
H187	H	0.804263	-0.774748	0.000071
H188	H	0.806069	-0.667077	0.000083
H189	H	0.813422	-0.228682	0.000023
H190	H	0.815236	-0.120993	0.000029
H191	H	0.861157	0.094538	-0.621478
H192	H	0.832284	0.116352	-0.213679
