data_functionalizedCrystal
_audit_creation_method	'MofGen! by Chris Wilmer'
_symmetry_space_group_name_H-M	'P1'
_symmetry_Int_Tables_number	1
_symmetry_cell_setting	triclinic
loop_
_symmetry_equiv_pos_as_xyz
  x,y,z
_cell_length_a	14.971486
_cell_length_b	17.699083
_cell_length_c	14.048226
_cell_angle_alpha	89.992674
_cell_angle_beta	89.998499
_cell_angle_gamma	83.448572
loop_
_atom_site_label
_atom_site_type_symbol
_atom_site_fract_x
_atom_site_fract_y
_atom_site_fract_z
O1	O	1.186608	0.098633	-0.079053
O2	O	1.686608	0.598633	0.420947
O3	O	0.926167	0.110445	-0.079079
O4	O	1.426167	0.610445	0.420921
O5	O	1.063746	-0.005632	-0.079057
O6	O	1.563746	0.494368	0.420943
O7	O	1.049030	0.214710	-0.079075
O8	O	1.549030	0.714710	0.420925
O9	O	1.063729	-0.005639	0.079264
O10	O	1.563729	0.494361	0.579264
O11	O	0.926151	0.110438	0.079242
O12	O	1.426151	0.610438	0.579242
O13	O	1.186591	0.098626	0.079268
O14	O	1.686591	0.598626	0.579268
Zn15	Zn	1.056368	0.104531	0.104392
Zn16	Zn	1.556368	0.604531	0.604392
Zn17	Zn	1.056390	0.104540	-0.104203
Zn18	Zn	1.556390	0.604540	0.395797
O19	O	1.049013	0.214703	0.079246
O20	O	1.549013	0.714703	0.579246
C21	C	0.892836	0.109913	0.000078
C22	C	1.392836	0.609913	0.500078
C23	C	0.793544	0.108330	0.000068
C24	C	1.293544	0.608330	0.500068
C25	C	0.736085	0.176522	0.000064
C26	C	1.236085	0.676522	0.500064
C27	C	0.642790	0.175030	0.000078
C28	C	1.142790	0.675030	0.500078
C29	C	0.606958	0.105346	0.000090
C30	C	1.106958	0.605346	0.500090
C31	C	0.664425	0.037148	0.000097
C32	C	1.164425	0.537148	0.500097
C33	C	0.757717	0.038641	0.000090
C34	C	1.257717	0.538641	0.500090
C35	C	0.469973	0.034042	0.000111
C36	C	0.969973	0.534042	0.500111
C37	C	0.376674	0.032549	0.000117
C38	C	0.876674	0.532549	0.500117
C39	C	0.355046	0.170431	0.000099
C40	C	0.855046	0.670431	0.500099
C41	C	0.448339	0.171924	0.000092
C42	C	0.948339	0.671924	0.500092
C43	C	0.505799	0.103726	0.000097
C44	C	1.005799	0.603726	0.500097
C45	C	1.063210	-0.033834	0.000104
C46	C	1.563210	0.466166	0.500104
C47	C	1.061628	-0.117856	0.000104
C48	C	1.561628	0.382144	0.500104
C49	C	1.142384	-0.166278	0.000113
C50	C	1.642384	0.333722	0.500113
C51	C	1.140892	-0.245225	0.000105
C52	C	1.640892	0.254775	0.500105
C53	C	1.058644	-0.275748	0.000094
C54	C	1.558644	0.224252	0.500094
C55	C	0.977882	-0.227320	0.000081
C56	C	1.477882	0.272680	0.500081
C57	C	0.979375	-0.148374	0.000083
C58	C	1.479375	0.351626	0.500083
C59	C	0.971860	-0.545698	0.000073
C60	C	1.471860	-0.045698	0.500073
C61	C	0.970374	-0.624649	0.000074
C62	C	1.470374	-0.124649	0.500074
C63	C	1.133378	-0.642548	0.000095
C64	C	1.633378	-0.142548	0.500095
C65	C	1.134871	-0.563603	0.000096
C66	C	1.634871	-0.063603	0.500096
C67	C	1.054109	-0.515181	0.000079
C68	C	1.554109	-0.015181	0.500079
C69	C	1.055728	-0.429578	0.000087
C70	C	1.555728	0.070422	0.500087
C71	C	1.057024	-0.361350	0.000093
C72	C	1.557024	0.138650	0.500093
C73	C	1.219923	0.099158	0.000109
C74	C	1.719923	0.599158	0.500109
C75	C	1.319214	0.100741	0.000112
C76	C	1.819214	0.600741	0.500112
C77	C	1.049549	0.242905	0.000083
C78	C	1.549549	0.742905	0.500083
C79	C	1.051131	0.326927	0.000077
C80	C	1.551131	0.826927	0.500077
N81	N	1.056360	0.104524	0.246753
N82	N	1.556360	0.604524	0.746753
N83	N	1.056406	0.104541	-0.246564
N84	N	1.556406	0.604541	0.253436
C85	C	1.117299	0.053147	0.296581
C86	C	1.617299	0.553147	0.796581
C87	C	1.117305	0.053146	0.396238
C88	C	1.617305	0.553146	0.896238
C89	C	1.056376	0.104528	0.446066
C90	C	1.556376	0.604528	0.946066
C91	C	0.995431	0.155908	0.396231
C92	C	1.495431	0.655908	0.896231
C93	C	0.995421	0.155904	0.296576
C94	C	1.495421	0.655904	0.796576
C95	C	0.995456	0.155913	0.603946
C96	C	1.495456	0.655913	1.103946
C97	C	0.995467	0.155918	0.703608
C98	C	1.495467	0.655918	1.203608
C99	C	1.117340	0.053156	0.703608
C100	C	1.617340	0.553156	1.203608
C101	C	1.117331	0.053152	0.603953
C102	C	1.617331	0.553152	1.103953
C103	C	1.056386	0.104533	0.554125
C104	C	1.556386	0.604533	1.054125
H105	H	0.804501	-0.016888	0.000093
H106	H	1.304501	0.483112	0.500093
H107	H	1.209360	-0.141433	0.000128
H108	H	1.709360	0.358567	0.500128
F109	F	0.930616	0.210605	0.756632
F110	F	1.430616	0.710605	1.256632
F111	F	1.226844	-0.296757	0.000117
F112	F	1.726844	0.203243	0.500117
F113	F	1.182182	-0.001529	0.550921
F114	F	1.682182	0.498471	1.050921
H115	H	0.308257	0.225960	0.000099
H116	H	0.808257	0.725960	0.500099
F117	F	0.531125	-0.038542	0.000120
F118	F	1.031125	0.461458	0.500120
F119	F	0.893423	-0.096840	0.000070
F120	F	1.393423	0.403160	0.500070
H121	H	0.477510	0.228667	0.000073
H122	H	0.977510	0.728667	0.500073
F123	F	1.182154	-0.001538	0.243559
F124	F	1.682154	0.498462	0.743559
F125	F	0.885907	-0.494174	0.000052
F126	F	1.385907	0.005826	0.500052
H127	H	0.635242	-0.019590	0.000121
H128	H	1.135242	0.480410	0.500121
H129	H	1.201846	-0.538756	0.000110
H130	H	1.701846	-0.038756	0.500110
F131	F	1.219332	-0.694088	0.000110
F132	F	1.719332	-0.194088	0.500110
H133	H	0.910914	-0.252178	0.000066
H134	H	1.410914	0.247822	0.500066
H135	H	0.903394	-0.649498	0.000067
H136	H	1.403394	-0.149498	0.500067
F137	F	1.182162	-0.001536	0.449269
F138	F	1.682162	0.498464	0.949269
H139	H	0.945826	0.197751	0.563379
H140	H	1.445826	0.697751	1.063379
F141	F	0.930580	0.210589	0.449263
F142	F	1.430580	0.710589	0.949263
H143	H	0.347502	-0.024194	0.000127
H144	H	0.847502	0.475806	0.500127
F145	F	0.930559	0.210585	0.243546
F146	F	1.430559	0.710585	0.743546
F147	F	0.774212	0.250691	0.000045
F148	F	1.274212	0.750691	0.500045
F149	F	0.581641	0.247610	0.000070
F150	F	1.081641	0.747610	0.500070
H151	H	1.166963	0.011319	0.744184
H152	H	1.666963	0.511319	1.244184
