data_functionalizedCrystal
_audit_creation_method	'MofGen! by Chris Wilmer'
_symmetry_space_group_name_H-M	'P1'
_symmetry_Int_Tables_number	1
_symmetry_cell_setting	triclinic
loop_
_symmetry_equiv_pos_as_xyz
  x,y,z
_cell_length_a	16.120530
_cell_length_b	16.120531
_cell_length_c	16.120297
_cell_angle_alpha	95.610581
_cell_angle_beta	89.871860
_cell_angle_gamma	89.826117
loop_
_atom_site_label
_atom_site_type_symbol
_atom_site_fract_x
_atom_site_fract_y
_atom_site_fract_z
Zn1	Zn	1.224939	0.422260	0.554785
Zn2	Zn	1.724939	0.922260	1.054785
Zn3	Zn	1.224819	0.554943	0.422081
Zn4	Zn	1.724819	1.054943	0.922081
Zn5	Zn	1.093680	0.408176	0.408028
Zn6	Zn	1.593680	0.908176	0.908028
Zn7	Zn	1.078817	0.554176	0.554013
Zn8	Zn	1.578817	1.054176	1.054013
O9	O	1.155564	0.484889	0.484727
O10	O	1.655564	0.984889	0.984727
O11	O	1.340958	0.446077	0.543385
O12	O	1.840958	0.946077	1.043385
O13	O	1.213594	0.529901	0.303585
O14	O	1.713594	1.029901	0.803585
O15	O	1.117362	0.293415	0.421938
O16	O	1.617362	0.793415	0.921938
O17	O	1.340870	0.543558	0.445888
O18	O	1.840870	1.043558	0.945888
O19	O	1.213797	0.303763	0.529759
O20	O	1.713797	0.803763	1.029759
O21	O	1.117246	0.422072	0.293260
O22	O	1.617246	0.922072	0.793260
O23	O	0.975673	0.421328	0.421190
O24	O	1.475673	0.921328	0.921190
O25	O	1.092030	0.542250	0.670748
O26	O	1.592030	1.042250	1.170748
O27	O	0.964753	0.528593	0.528444
O28	O	1.464753	1.028593	1.028444
O29	O	1.199385	0.445332	0.671315
O30	O	1.699385	0.945332	1.171315
O31	O	1.199181	0.671471	0.445140
O32	O	1.699181	1.171471	0.945140
O33	O	1.091914	0.670907	0.542070
O34	O	1.591914	1.170907	1.042070
C35	C	0.940126	0.473350	0.473209
C36	C	1.440126	0.973350	0.973209
C37	C	0.847959	0.468434	0.468302
C38	C	1.347959	0.968434	0.968302
C39	C	0.679209	0.459440	0.459350
C40	C	1.179209	0.959440	0.959350
C41	C	0.632752	0.510402	0.510167
C42	C	1.132752	1.010402	1.010167
C43	C	0.538854	0.505398	0.505186
C44	C	1.038854	1.005398	1.005186
C45	C	0.773116	0.464443	0.464330
C46	C	1.273116	0.964443	0.964330
C47	C	1.143943	0.701432	0.495066
C48	C	1.643943	1.201432	0.995066
C49	C	1.139046	0.794075	0.499521
C50	C	1.639046	1.294075	0.999521
C51	C	1.130110	0.963697	0.507672
C52	C	1.630110	1.463697	1.007672
C53	C	1.181051	1.005240	0.461737
C54	C	1.681051	1.505240	0.961737
C55	C	1.176079	1.099623	0.466272
C56	C	1.676079	1.599623	0.966272
C57	C	1.135081	0.869305	0.503138
C58	C	1.635081	1.369305	1.003138
C59	C	1.371842	0.496474	0.496290
C60	C	1.871842	0.996474	0.996290
C61	C	1.464007	0.501411	0.501218
C62	C	1.964007	1.001411	1.001218
C63	C	1.144063	0.495277	0.702119
C64	C	1.644063	0.995277	1.202119
C65	C	1.139162	0.499703	0.794758
C66	C	1.639162	0.999703	1.294758
C67	C	1.167222	1.267500	0.474350
C68	C	1.667222	1.767500	0.974350
C69	C	1.172117	1.174856	0.469885
C70	C	1.672117	1.674856	0.969885
C71	C	1.167071	0.474484	0.268181
C72	C	1.667071	0.974484	0.768181
C73	C	1.172145	0.469831	0.175539
C74	C	1.672145	0.969831	0.675539
C75	C	1.130185	0.507765	0.964369
C76	C	1.630185	1.007765	1.464369
C77	C	1.181119	0.461772	1.005934
C78	C	1.681119	0.961772	1.505934
C79	C	1.176124	0.466258	1.100311
C80	C	1.676124	0.966258	1.600311
C81	C	1.135179	0.503280	0.869983
C82	C	1.635179	1.003280	1.369983
H83	H	0.648464	0.412057	0.412107
H84	H	1.148464	0.912057	0.912107
H85	H	1.228397	0.969922	0.419004
H86	H	1.728397	1.469922	0.919004
H87	H	1.082831	0.550507	0.999661
H88	H	1.582831	1.050507	1.499661
C89	C	1.066143	1.011407	0.565389
C90	C	1.566143	1.511407	1.065389
N91	N	1.017959	1.047351	0.608856
N92	N	1.517959	1.547351	1.108856
C93	C	0.674288	0.574427	0.573990
C94	C	1.174288	1.074427	1.073990
N95	N	0.705577	0.622652	0.622057
N96	N	1.205577	1.122652	1.122057
H97	H	1.228476	0.419027	0.970640
H98	H	1.728476	0.919027	1.470640
