data_functionalizedCrystal
_audit_creation_method	'MofGen! by Chris Wilmer'
_symmetry_space_group_name_H-M	'P1'
_symmetry_Int_Tables_number	1
_symmetry_cell_setting	triclinic
loop_
_symmetry_equiv_pos_as_xyz
  x,y,z
_cell_length_a	16.959455
_cell_length_b	16.959454
_cell_length_c	16.959447
_cell_angle_alpha	89.973182
_cell_angle_beta	89.983056
_cell_angle_gamma	90.017022
loop_
_atom_site_label
_atom_site_type_symbol
_atom_site_fract_x
_atom_site_fract_y
_atom_site_fract_z
Zn1	Zn	1.208404	-0.314730	-0.446928
Zn2	Zn	1.708404	0.185270	0.053072
Zn3	Zn	1.208321	-0.446922	-0.314758
Zn4	Zn	1.708321	0.053078	0.185242
Zn5	Zn	1.076227	-0.314755	-0.314766
Zn6	Zn	1.576227	0.185245	0.185234
Zn7	Zn	1.076197	-0.446863	-0.446897
Zn8	Zn	1.576197	0.053137	0.053103
O9	O	1.142287	-0.380817	-0.380837
O10	O	1.642287	0.119183	0.119163
O11	O	1.319004	-0.332280	-0.429406
O12	O	1.819004	0.167720	0.070594
O13	O	1.190775	-0.429425	-0.204148
O14	O	1.690775	0.070575	0.295852
O15	O	1.093807	-0.204140	-0.332314
O16	O	1.593807	0.295860	0.167686
O17	O	1.318943	-0.429401	-0.332301
O18	O	1.818943	0.070599	0.167699
O19	O	1.190918	-0.204122	-0.429413
O20	O	1.690918	0.295878	0.070587
O21	O	1.093726	-0.332322	-0.204154
O22	O	1.593726	0.167678	0.295846
O23	O	0.965612	-0.332265	-0.332283
O24	O	1.465612	0.167735	0.167717
O25	O	1.093758	-0.429300	-0.557512
O26	O	1.593758	0.070700	-0.057512
O27	O	0.965590	-0.429324	-0.429359
O28	O	1.465590	0.070676	0.070641
O29	O	1.190889	-0.332222	-0.557535
O30	O	1.690889	0.167778	-0.057535
O31	O	1.190747	-0.557525	-0.332270
O32	O	1.690747	-0.057525	0.167730
O33	O	1.093677	-0.557482	-0.429352
O34	O	1.593677	-0.057482	0.070648
C35	C	0.936921	-0.380791	-0.380819
C36	C	1.436921	0.119209	0.119181
C37	C	0.849064	-0.380799	-0.380830
C38	C	1.349064	0.119201	0.119170
C39	C	0.477576	-0.330237	-0.330395
C40	C	0.977576	0.169763	0.169605
C41	C	0.477602	-0.431463	-0.431324
C42	C	0.977602	0.068537	0.068676
C43	C	0.560148	-0.431451	-0.431320
C44	C	1.060148	0.068549	0.068680
C45	C	0.601411	-0.380833	-0.380851
C46	C	1.101411	0.119167	0.119149
C47	C	0.560129	-0.330226	-0.330387
C48	C	1.060129	0.169774	0.169613
C49	C	0.601436	-0.482063	-0.481777
C50	C	1.101436	0.017937	0.018223
C51	C	0.683987	-0.482055	-0.481773
C52	C	1.183987	0.017945	0.018227
C53	C	0.725252	-0.431432	-0.431308
C54	C	1.225252	0.068568	0.068692
C55	C	0.683965	-0.380822	-0.380843
C56	C	1.183965	0.119178	0.119157
C57	C	0.725228	-0.330203	-0.330374
C58	C	1.225228	0.169797	0.169626
C59	C	0.683943	-0.279589	-0.279913
C60	C	1.183943	0.220411	0.220087
C61	C	0.601394	-0.279603	-0.279922
C62	C	1.101394	0.220397	0.220078
C63	C	0.807801	-0.431418	-0.431299
C64	C	1.307801	0.068582	0.068701
C65	C	0.807782	-0.330192	-0.330366
C66	C	1.307782	0.169808	0.169634
C67	C	1.142221	-0.586184	-0.380824
C68	C	1.642221	-0.086184	0.119176
C69	C	1.142265	-0.674040	-0.380844
C70	C	1.642265	-0.174040	0.119156
C71	C	1.091816	-1.045523	-0.431382
C72	C	1.591816	-0.545523	0.068618
C73	C	1.192979	-1.045509	-0.330373
C74	C	1.692979	-0.545509	0.169627
C75	C	1.192951	-0.962963	-0.330365
C76	C	1.692951	-0.462963	0.169635
C77	C	1.142354	-0.921693	-0.380867
C78	C	1.642354	-0.421693	0.119133
C79	C	1.091785	-0.962970	-0.431375
C80	C	1.591785	-0.462970	0.068625
C81	C	1.243514	-0.921680	-0.279852
C82	C	1.743514	-0.421680	0.220148
C83	C	1.243487	-0.839129	-0.279842
C84	C	1.743487	-0.339129	0.220158
C85	C	1.192894	-0.797858	-0.330348
C86	C	1.692894	-0.297858	0.169652
C87	C	1.142323	-0.839140	-0.380859
C88	C	1.642323	-0.339140	0.119141
C89	C	1.091727	-0.797870	-0.431360
C90	C	1.591727	-0.297870	0.068640
C91	C	1.041160	-0.839150	-0.481876
C92	C	1.541160	-0.339150	0.018124
C93	C	1.041192	-0.921699	-0.481881
C94	C	1.541192	-0.421699	0.018119
C95	C	1.192862	-0.715310	-0.330343
C96	C	1.692862	-0.215310	0.169657
C97	C	1.091696	-0.715317	-0.431353
C98	C	1.591696	-0.215317	0.068647
C99	C	1.348455	-0.380844	-0.380856
C100	C	1.848455	0.119156	0.119144
C101	C	1.436312	-0.380856	-0.380864
C102	C	1.936312	0.119144	0.119136
C103	C	1.142330	-0.380752	-0.587006
C104	C	1.642330	0.119248	-0.087006
C105	C	1.142348	-0.380724	-0.674862
C106	C	1.642348	0.119276	-0.174862
C107	C	1.142375	-0.174649	-0.380868
C108	C	1.642375	0.325351	0.119132
C109	C	1.142413	-0.086793	-0.380881
C110	C	1.642413	0.413207	0.119119
C111	C	1.091888	-0.330083	-1.046347
C112	C	1.591888	0.169917	-0.546347
C113	C	1.192946	-0.431198	-1.046329
C114	C	1.692946	0.068802	-0.546329
C115	C	1.192932	-0.431216	-0.963783
C116	C	1.692932	0.068784	-0.463783
C117	C	1.142395	-0.380668	-0.922515
C118	C	1.642395	0.119332	-0.422515
C119	C	1.091871	-0.330102	-0.963794
C120	C	1.591871	0.169898	-0.463794
C121	C	1.243449	-0.481787	-0.922498
C122	C	1.743449	0.018213	-0.422498
C123	C	1.243437	-0.481808	-0.839947
C124	C	1.743437	0.018192	-0.339947
C125	C	1.192903	-0.431256	-0.798678
C126	C	1.692903	0.068744	-0.298678
C127	C	1.142378	-0.380687	-0.839962
C128	C	1.642378	0.119313	-0.339962
C129	C	1.091841	-0.330139	-0.798694
C130	C	1.591841	0.169861	-0.298694
C131	C	1.041319	-0.279565	-0.839976
C132	C	1.541319	0.220435	-0.339976
C133	C	1.041337	-0.279549	-0.922525
C134	C	1.541337	0.220451	-0.422525
C135	C	1.192885	-0.431272	-0.716130
C136	C	1.692885	0.068728	-0.216130
C137	C	1.091824	-0.330157	-0.716141
C138	C	1.591824	0.169843	-0.216141
C139	C	1.142291	-0.380826	-0.175471
C140	C	1.642291	0.119174	0.324529
C141	C	1.142426	-0.380631	-0.087615
C142	C	1.642426	0.119369	0.412385
H143	H	0.567834	-0.523280	-0.522860
H144	H	1.067834	-0.023280	-0.022860
H145	H	0.717595	-0.523267	-0.522863
H146	H	1.217595	-0.023267	-0.022863
H147	H	0.443957	-0.289026	-0.289313
H148	H	0.943957	0.210974	0.210687
H149	H	0.841373	-0.288967	-0.289273
H150	H	1.341373	0.211033	0.210727
N151	N	0.728459	-0.224996	-0.225486
N152	N	1.228459	0.275004	0.274514
H153	H	0.714115	-0.168535	-0.237862
H154	H	1.214115	0.331465	0.262138
H155	H	0.714055	-0.237265	-0.169009
H156	H	1.214055	0.262735	0.330991
H157	H	1.284701	-0.955288	-0.238731
H158	H	1.784701	-0.455288	0.261269
N159	N	1.298031	-0.794609	-0.225369
N160	N	1.798031	-0.294609	0.274631
H161	H	1.330090	-0.833280	-0.193381
H162	H	1.830090	-0.333280	0.306619
H163	H	1.334577	-0.760323	-0.257583
H164	H	1.834577	-0.260323	0.242417
H165	H	1.234167	-1.079115	-0.289252
H166	H	1.734167	-0.579115	0.210748
N167	N	0.986585	-0.794629	-0.536335
N168	N	1.486585	-0.294629	-0.036335
H169	H	1.018673	-0.760332	-0.572985
H170	H	1.518673	-0.260332	-0.072985
H171	H	0.954564	-0.833347	-0.568286
H172	H	1.454564	-0.333347	-0.068286
N173	N	1.297959	-0.536297	-0.967008
N174	N	1.797959	-0.036297	-0.467008
H175	H	1.329960	-0.568337	-0.928332
H176	H	1.829960	-0.068337	-0.428332
H177	H	1.265776	-0.572861	-1.001251
H178	H	1.765776	-0.072861	-0.501251
N179	N	0.433093	-0.486058	-0.485748
N180	N	0.933093	0.013942	0.014252
H181	H	0.398861	-0.453984	-0.522432
H182	H	0.898861	0.046016	-0.022432
H183	H	0.471819	-0.518106	-0.517664
H184	H	0.971819	-0.018106	-0.017664
N185	N	0.852331	-0.486007	-0.485712
N186	N	1.352331	0.013993	0.014288
H187	H	0.813665	-0.518078	-0.517680
H188	H	1.313665	-0.018078	-0.017680
H189	H	0.886600	-0.453876	-0.522346
H190	H	1.386600	0.046124	-0.022346
N191	N	0.556866	-0.225041	-0.225475
N192	N	1.056866	0.274959	0.274525
H193	H	0.498311	-0.232741	-0.233129
H194	H	0.998311	0.267259	0.266871
H195	H	0.571286	-0.237297	-0.169010
H196	H	1.071286	0.262703	0.330990
H197	H	1.234029	-0.681703	-0.289211
H198	H	1.734029	-0.181703	0.210789
N199	N	1.037126	-0.670806	-0.485826
N200	N	1.537126	-0.170806	0.014174
H201	H	1.005100	-0.709485	-0.517825
H202	H	1.505100	-0.209485	-0.017825
H203	H	1.000551	-0.636602	-0.453615
H204	H	1.500551	-0.136602	0.046385
N205	N	1.247440	-0.485726	-1.090834
N206	N	1.747440	0.014274	-0.590834
H207	H	1.239781	-0.478045	-1.149392
H208	H	1.739781	0.021955	-0.649392
H209	H	1.303897	-0.473439	-1.076420
H210	H	1.803897	0.026561	-0.576420
H211	H	1.000022	-0.955316	-0.523007
H212	H	1.500022	-0.455316	-0.023007
H213	H	1.050648	-1.079137	-0.472513
H214	H	1.550648	-0.579137	0.027487
H215	H	1.050673	-0.288991	-0.682546
H216	H	1.550673	0.211009	-0.182546
N217	N	1.297925	-0.536351	-0.795425
N218	N	1.797925	-0.036351	-0.295425
H219	H	1.329941	-0.568370	-0.834094
H220	H	1.829941	-0.068370	-0.334094
H221	H	1.334513	-0.504187	-0.761189
H222	H	1.834513	-0.004187	-0.261189
N223	N	0.986807	-0.225052	-0.795463
N224	N	1.486807	0.274948	-0.295463
H225	H	0.994463	-0.232745	-0.736906
H226	H	1.494463	0.267255	-0.236906
H227	H	0.999136	-0.168596	-0.809899
H228	H	1.499136	0.331404	-0.309899
H229	H	1.000204	-0.238376	-0.956144
H230	H	1.500204	0.261624	-0.456144
N231	N	1.247364	-0.485818	-0.671606
N232	N	1.747364	0.014182	-0.171606
H233	H	1.279376	-0.517838	-0.710278
H234	H	1.779376	-0.017838	-0.210278
H235	H	1.283955	-0.453660	-0.637369
H236	H	1.783955	0.046340	-0.137369
H237	H	1.050757	-0.288905	-1.079963
H238	H	1.550757	0.211095	-0.579963
