data_functionalizedCrystal
_audit_creation_method	'MofGen! by Chris Wilmer'
_symmetry_space_group_name_H-M	'P1'
_symmetry_Int_Tables_number	1
_symmetry_cell_setting	triclinic
loop_
_symmetry_equiv_pos_as_xyz
  x,y,z
_cell_length_a	25.639242
_cell_length_b	25.639240
_cell_length_c	16.625539
_cell_angle_alpha	89.966677
_cell_angle_beta	90.021538
_cell_angle_gamma	89.964534
loop_
_atom_site_label
_atom_site_type_symbol
_atom_site_fract_x
_atom_site_fract_y
_atom_site_fract_z
Zn1	Zn	0.799246	0.208257	0.455902
Zn2	Zn	0.799152	0.295695	0.321057
Zn3	Zn	0.711811	0.208264	0.321080
Zn4	Zn	0.711760	0.295652	0.455845
O5	O	0.755492	0.251967	0.388471
O6	O	0.872399	0.219871	0.438029
O7	O	0.787547	0.284118	0.208228
O8	O	0.723470	0.135098	0.338998
O9	O	0.872329	0.284112	0.338959
O10	O	0.787708	0.135093	0.438051
O11	O	0.723379	0.219883	0.208245
O12	O	0.638639	0.219841	0.338943
O13	O	0.723384	0.284038	0.568685
O14	O	0.638602	0.284044	0.437954
O15	O	0.787659	0.219829	0.568727
O16	O	0.787498	0.368855	0.338904
O17	O	0.723292	0.368823	0.437932
C18	C	0.619650	0.251939	0.388445
C19	C	0.561536	0.251939	0.388453
C20	C	0.755394	0.387810	0.388427
C21	C	0.755399	0.445924	0.388435
C22	C	0.310386	0.218576	0.440151
C23	C	0.364991	0.218571	0.440146
O24	O	0.393265	0.190182	0.484096
N25	N	0.392262	0.251961	0.388480
C26	C	0.364926	0.285362	0.336821
O27	O	0.393136	0.313762	0.292876
C28	C	0.310322	0.285369	0.336831
C29	C	0.283054	0.251973	0.388494
C30	C	0.283118	0.185184	0.491811
C31	C	0.228517	0.185189	0.491814
C32	C	0.201185	0.218586	0.440157
C33	C	0.228454	0.251978	0.388498
C34	C	0.282987	0.318772	0.285176
C35	C	0.228380	0.318777	0.285191
C36	C	0.201112	0.285381	0.336854
C37	C	0.146521	0.285380	0.336844
N38	N	0.119250	0.251990	0.388510
C39	C	0.146582	0.218593	0.440167
C40	C	0.479596	0.285344	0.336807
C41	C	0.534199	0.285334	0.336793
C42	C	0.534260	0.218545	0.440119
C43	C	0.479657	0.218552	0.440128
C44	C	0.452325	0.251955	0.388473
C45	C	0.031917	0.218605	0.440169
C46	C	-0.022689	0.218611	0.440166
C47	C	-0.022745	0.285402	0.336843
C48	C	0.031856	0.285395	0.336843
C49	C	0.059185	0.251994	0.388513
O50	O	0.118212	0.313756	0.292919
O51	O	0.118365	0.190202	0.484113
C52	C	0.788968	0.806291	0.336964
C53	C	0.788984	0.860895	0.336972
O54	O	0.817456	0.889135	0.293185
N55	N	0.755534	0.888206	0.388489
C56	C	0.722070	0.860910	0.440008
O57	O	0.693620	0.889154	0.483828
C58	C	0.722057	0.806307	0.440003
C59	C	0.755505	0.778998	0.388477
C60	C	0.822414	0.778982	0.285443
C61	C	0.822397	0.724382	0.285434
C62	C	0.788935	0.697090	0.336947
C63	C	0.755489	0.724398	0.388468
C64	C	0.688596	0.779012	0.491525
C65	C	0.688586	0.724405	0.491517
C66	C	0.722035	0.697096	0.439991
C67	C	0.722009	0.642505	0.439973
N68	N	0.755459	0.615194	0.388456
C69	C	0.788922	0.642486	0.336943
C70	C	0.722101	0.975581	0.440014
C71	C	0.722111	1.030183	0.440014
C72	C	0.789025	1.030164	0.336980
C73	C	0.789012	0.975561	0.336975
C74	C	0.755550	0.948269	0.388497
C75	C	0.788883	0.527821	0.336928
C76	C	0.788862	0.473216	0.336922
C77	C	0.721950	0.473239	0.439959
C78	C	0.721969	0.527840	0.439963
C79	C	0.755440	0.555130	0.388445
O80	O	0.693553	0.614230	0.483740
O81	O	0.817371	0.614235	0.293137
C82	C	0.891865	0.251996	0.388498
C83	C	0.949979	0.252008	0.388509
C84	C	0.755526	0.251928	0.598780
C85	C	0.755541	0.251911	0.688401
C86	C	0.755586	1.115594	0.388519
C87	C	0.755576	1.057480	0.388504
C88	C	0.755488	0.251968	0.178980
C89	C	0.755575	0.251837	0.089360
C90	C	0.755565	0.251853	1.016577
C91	C	0.755557	0.251871	0.925269
C92	C	0.755553	0.251883	0.852492
C93	C	0.755544	0.251900	0.761178
H94	H	0.054162	0.191407	0.482243
H95	H	0.206320	0.157997	0.533887
H96	H	0.556396	0.312523	0.294715
O97	O	0.450118	0.321363	0.281075
H98	H	0.478259	0.344573	0.245144
O99	O	0.686025	1.059631	0.495579
H100	H	0.691650	1.102187	0.486931
O101	O	0.858515	0.808411	0.229882
H102	H	0.852916	0.850970	0.238535
O103	O	0.061266	0.321411	0.281113
H104	H	0.086143	0.297976	0.240151
H105	H	0.694848	0.953363	0.481966
O106	O	0.198905	0.354804	0.229469
H107	H	0.156354	0.349202	0.238150
O108	O	0.312593	0.149159	0.547530
H109	H	0.337473	0.122526	0.511512
O110	O	0.652519	0.808454	0.547105
H111	H	0.658141	0.851010	0.538462
O112	O	0.685858	0.443794	0.495513
H113	H	0.662597	0.471953	0.531341
O114	O	0.652488	0.694968	0.547077
H115	H	0.629230	0.723134	0.582896
O116	O	-0.052229	0.321423	0.281128
H117	H	-0.094778	0.315816	0.289821
O118	O	0.824943	0.443760	0.281351
H119	H	0.848219	0.471916	0.245542
H120	H	0.457458	0.191358	0.482197
O121	O	0.824979	0.557252	0.281358
H122	H	0.848226	0.529082	0.245528
O123	O	0.858481	0.694930	0.229872
H124	H	0.881754	0.723089	0.194066
O125	O	0.563744	0.182526	0.495845
H126	H	0.606293	0.188139	0.487161
H127	H	0.305180	0.345966	0.243106
H128	H	0.816249	0.953330	0.295019
O129	O	0.685893	0.557299	0.495533
H130	H	0.662623	0.529145	0.531354
H131	H	0.816274	1.052395	0.295038
H132	H	-0.044888	0.191414	0.482236
