data_functionalizedCrystal
_audit_creation_method	'MofGen! by Chris Wilmer'
_symmetry_space_group_name_H-M	'P1'
_symmetry_Int_Tables_number	1
_symmetry_cell_setting	triclinic
loop_
_symmetry_equiv_pos_as_xyz
  x,y,z
_cell_length_a	18.050588
_cell_length_b	18.050591
_cell_length_c	18.050582
_cell_angle_alpha	89.980240
_cell_angle_beta	89.978848
_cell_angle_gamma	90.026009
loop_
_atom_site_label
_atom_site_type_symbol
_atom_site_fract_x
_atom_site_fract_y
_atom_site_fract_z
Zn1	Zn	-0.295777	1.135286	-0.420016
Zn2	Zn	0.037556	1.468619	-0.086682
Zn3	Zn	0.370890	1.801952	0.246651
Zn4	Zn	-0.419960	1.135193	-0.295829
Zn5	Zn	-0.086627	1.468527	0.037505
Zn6	Zn	0.246706	1.801860	0.370838
Zn7	Zn	-0.295781	1.011105	-0.295829
Zn8	Zn	0.037552	1.344438	0.037504
Zn9	Zn	0.370886	1.677771	0.370837
Zn10	Zn	-0.419922	1.011050	-0.419967
Zn11	Zn	-0.086589	1.344383	-0.086633
Zn12	Zn	0.246745	1.677717	0.246700
O13	O	-0.357860	1.073158	-0.357910
O14	O	-0.024527	1.406492	-0.024577
O15	O	0.308807	1.739825	0.308757
O16	O	-0.312265	1.239198	-0.403562
O17	O	0.021069	1.572531	-0.070229
O18	O	0.354402	1.905865	0.263104
O19	O	-0.403505	1.118717	-0.191904
O20	O	-0.070172	1.452050	0.141429
O21	O	0.263161	1.785384	0.474762
O22	O	-0.191856	1.027639	-0.312324
O23	O	0.141478	1.360973	0.021010
O24	O	0.474811	1.694306	0.354343
O25	O	-0.403502	1.239130	-0.312323
O26	O	-0.070168	1.572464	0.021011
O27	O	0.263165	1.905797	0.354344
O28	O	-0.191853	1.118874	-0.403563
O29	O	0.141480	1.452208	-0.070230
O30	O	0.474814	1.785541	0.263104
O31	O	-0.312271	1.027550	-0.191905
O32	O	0.021062	1.360883	0.141429
O33	O	0.354395	1.694216	0.474762
O34	O	-0.312234	0.907173	-0.312276
O35	O	0.021099	1.240506	0.021057
O36	O	0.354433	1.573840	0.354390
O37	O	-0.403436	1.027546	-0.523898
O38	O	-0.070103	1.360879	-0.190565
O39	O	0.263230	1.694212	0.142769
O40	O	-0.403440	0.907133	-0.403479
O41	O	-0.070107	1.240466	-0.070146
O42	O	0.263227	1.573799	0.263187
O43	O	-0.312227	1.118821	-0.523934
O44	O	0.021106	1.452154	-0.190601
O45	O	0.354439	1.785488	0.142733
O46	O	-0.523880	1.118664	-0.312275
O47	O	-0.190546	1.451997	0.021058
O48	O	0.142787	1.785331	0.354391
O49	O	-0.523852	1.027456	-0.403479
O50	O	-0.190518	1.360790	-0.070146
O51	O	0.142815	1.694123	0.263188
C52	C	-0.357834	0.880206	-0.357873
C53	C	-0.024501	1.213540	-0.024540
C54	C	0.308833	1.546873	0.308794
C55	C	-0.357841	0.797661	-0.357875
C56	C	-0.024507	1.130994	-0.024541
C57	C	0.308826	1.464327	0.308792
C58	C	-0.308192	0.548835	-0.308396
C59	C	0.025142	0.882169	0.024938
C60	C	0.358475	1.215502	0.358271
C61	C	-0.290110	0.598268	-0.376171
C62	C	0.043223	0.931601	-0.042838
C63	C	0.376556	1.264934	0.290495
C64	C	-0.357879	0.500540	-0.357936
C65	C	-0.024545	0.833873	-0.024602
C66	C	0.308788	1.167207	0.308731
C67	C	-0.375906	0.598189	-0.290134
C68	C	-0.042573	0.931523	0.043200
C69	C	0.290761	1.264856	0.376533
C70	C	-0.357858	0.646525	-0.357902
C71	C	-0.024525	0.979859	-0.024569
C72	C	0.308809	1.313192	0.308765
C73	C	-0.339763	0.548885	-0.425747
C74	C	-0.006429	0.882219	-0.092414
C75	C	0.326904	1.215552	0.240919
C76	C	-0.425589	0.548803	-0.339664
C77	C	-0.092256	0.882136	-0.006331
C78	C	0.241077	1.215469	0.327003
C79	C	-0.407534	0.598213	-0.407486
C80	C	-0.074201	0.931546	-0.074153
C81	C	0.259133	1.264879	0.259180
C82	C	-0.357888	0.416442	-0.357954
C83	C	-0.024555	0.749775	-0.024620
C84	C	0.308778	1.083108	0.308713
C85	C	-0.357848	0.730622	-0.357891
C86	C	-0.024515	1.063955	-0.024558
C87	C	0.308818	1.397288	0.308775
C88	C	-0.550812	1.073064	-0.357888
C89	C	-0.217479	1.406398	-0.024555
C90	C	0.115854	1.739731	0.308779
C91	C	-0.633358	1.073092	-0.357903
C92	C	-0.300025	1.406425	-0.024570
C93	C	0.033309	1.739759	0.308763
C94	C	-0.882195	1.023571	-0.407500
C95	C	-0.548862	1.356905	-0.074167
C96	C	-0.215529	1.690238	0.259167
C97	C	-0.832731	1.091288	-0.425730
C98	C	-0.499397	1.424621	-0.092397
C99	C	-0.166064	1.757954	0.240937
C100	C	-0.930478	1.073246	-0.357945
C101	C	-0.597145	1.406579	-0.024611
C102	C	-0.263812	1.739913	0.308722
C103	C	-0.832861	1.005457	-0.339729
C104	C	-0.499528	1.338791	-0.006396
C105	C	-0.166194	1.672124	0.326937
C106	C	-0.784493	1.073167	-0.357926
C107	C	-0.451160	1.406500	-0.024593
C108	C	-0.117827	1.739833	0.308741
C109	C	-0.882101	1.140999	-0.376210
C110	C	-0.548768	1.474332	-0.042876
C111	C	-0.215434	1.807665	0.290457
C112	C	-0.882236	1.055123	-0.290177
C113	C	-0.548902	1.388456	0.043156
C114	C	-0.215569	1.721790	0.376489
C115	C	-0.832794	1.122886	-0.308382
C116	C	-0.499460	1.456219	0.024952
C117	C	-0.166127	1.789553	0.358285
C118	C	-1.014577	1.073291	-0.357957
C119	C	-0.681243	1.406624	-0.024624
C120	C	-0.347910	1.739958	0.308710
C121	C	-0.700397	1.073130	-0.357913
C122	C	-0.367063	1.406463	-0.024580
C123	C	-0.033730	1.739796	0.308753
C124	C	-0.164154	1.073273	-0.357949
C125	C	0.169179	1.406607	-0.024615
C126	C	0.502512	1.739940	0.308718
C127	C	-0.081609	1.073322	-0.357965
C128	C	0.251725	1.406655	-0.024632
C129	C	0.585058	1.739989	0.308701
C130	C	-0.357887	1.266864	-0.357948
C131	C	-0.024554	1.600197	-0.024615
C132	C	0.308780	1.933531	0.308719
C133	C	-0.357898	1.349410	-0.357964
C134	C	-0.024565	1.682743	-0.024631
C135	C	0.308768	2.016076	0.308703
C136	C	-0.357827	1.073188	-0.551616
C137	C	-0.024494	1.406521	-0.218282
C138	C	0.308840	1.739854	0.115051
C139	C	-0.357813	1.073200	-0.634162
C140	C	-0.024480	1.406533	-0.300828
C141	C	0.308854	1.739867	0.032505
C142	C	-0.407345	1.023602	-0.833593
C143	C	-0.074011	1.356936	-0.500260
C144	C	0.259322	1.690269	-0.166926
C145	C	-0.425502	1.091357	-0.882990
C146	C	-0.092169	1.424690	-0.549657
C147	C	0.241164	1.758024	-0.216324
C148	C	-0.357756	1.073237	-0.785292
C149	C	-0.024423	1.406570	-0.451959
C150	C	0.308910	1.739903	-0.118625
C151	C	-0.339578	1.005519	-0.882976
C152	C	-0.006245	1.338852	-0.549643
C153	C	0.327089	1.672186	-0.216310
C154	C	-0.357703	1.073266	-0.931277
C155	C	-0.024370	1.406599	-0.597944
C156	C	0.308964	1.739933	-0.264611
C157	C	-0.375950	1.141027	-0.833602
C158	C	-0.042616	1.474360	-0.500269
C159	C	0.290717	1.807694	-0.166936
C160	C	-0.289994	1.055143	-0.833584
C161	C	0.043339	1.388476	-0.500251
C162	C	0.376673	1.721810	-0.166917
C163	C	-0.308126	1.122945	-0.882959
C164	C	0.025208	1.456278	-0.549626
C165	C	0.358541	1.789611	-0.216293
C166	C	-0.357789	1.073219	-0.701194
C167	C	-0.024456	1.406552	-0.367860
C168	C	0.308878	1.739885	-0.034527
C169	C	-0.357670	1.073292	-1.015374
C170	C	-0.024337	1.406625	-0.682041
C171	C	0.308996	1.739958	-0.348707
C172	C	-0.357839	1.073172	-0.164958
C173	C	-0.024506	1.406506	0.168375
C174	C	0.308827	1.739839	0.501709
C175	C	-0.357644	1.073304	-0.082413
C176	C	-0.024311	1.406637	0.250921
C177	C	0.309023	1.739970	0.584254
H178	H	-0.449544	0.619756	-0.449415
H179	H	-0.116211	0.953089	-0.116081
H180	H	0.217122	1.286422	0.217252
H181	H	-0.391162	0.619849	-0.232809
H182	H	-0.057828	0.953182	0.100525
H183	H	0.275505	1.286516	0.433858
H184	H	-0.232728	1.039802	-0.811866
H185	H	0.100606	1.373135	-0.478533
H186	H	0.433939	1.706468	-0.145199
H187	H	-0.449335	0.981668	-0.811918
H188	H	-0.116001	1.315001	-0.478585
H189	H	0.217332	1.648334	-0.145251
H190	H	-0.266168	1.164980	-0.904498
H191	H	0.067166	1.498313	-0.571165
H192	H	0.400499	1.831646	-0.237831
C193	C	-0.319057	0.519751	-0.503213
C194	C	0.014276	0.853084	-0.169879
C195	C	0.347610	1.186418	0.163454
N196	N	-0.303458	0.497805	-0.561557
N197	N	0.029875	0.831138	-0.228224
N198	N	0.363208	1.164472	0.105109
H199	H	-0.811228	0.948163	-0.324331
H200	H	-0.477895	1.281496	0.009002
H201	H	-0.144561	1.614829	0.342336
H202	H	-0.482844	0.527060	-0.324199
H203	H	-0.149510	0.860393	0.009134
H204	H	0.183823	1.193726	0.342468
H205	H	-0.903884	0.981648	-0.449447
H206	H	-0.570551	1.314982	-0.116114
H207	H	-0.237217	1.648315	0.217219
H208	H	-0.391368	1.198324	-0.812005
H209	H	-0.058034	1.531657	-0.478672
H210	H	0.275299	1.864990	-0.145338
H211	H	-0.482785	1.106679	-0.904692
H212	H	-0.149452	1.440012	-0.571359
H213	H	0.183882	1.773345	-0.238025
H214	H	-0.324225	0.948239	-0.904665
H215	H	0.009108	1.281572	-0.571332
H216	H	0.342442	1.614905	-0.237998
C217	C	-0.803359	1.111960	-0.503142
C218	C	-0.470026	1.445294	-0.169809
C219	C	-0.136693	1.778627	0.163525
N220	N	-0.781241	1.127528	-0.561451
N221	N	-0.447908	1.460861	-0.228117
N222	N	-0.114575	1.794194	0.105216
C223	C	-0.251396	0.519539	-0.251892
C224	C	0.081937	0.852872	0.081441
C225	C	0.415271	1.186206	0.414775
N226	N	-0.208616	0.497471	-0.209338
N227	N	0.124718	0.830804	0.123996
N228	N	0.458051	1.164137	0.457329
H229	H	-0.903996	1.039803	-0.232893
H230	H	-0.570663	1.373136	0.100441
H231	H	-0.237329	1.706470	0.433774
H232	H	-0.232837	0.619982	-0.391625
H233	H	0.100496	0.953315	-0.058292
H234	H	0.433829	1.286648	0.275042
H235	H	-0.903642	1.198310	-0.391675
H236	H	-0.570308	1.531643	-0.058341
H237	H	-0.236975	1.864977	0.274992
H238	H	-0.811240	1.164909	-0.266466
H239	H	-0.477907	1.498242	0.066867
H240	H	-0.144573	1.831576	0.400201
