data_functionalizedCrystal
_audit_creation_method	'MofGen! by Chris Wilmer'
_symmetry_space_group_name_H-M	'P1'
_symmetry_Int_Tables_number	1
_symmetry_cell_setting	triclinic
loop_
_symmetry_equiv_pos_as_xyz
  x,y,z
_cell_length_a	16.120484
_cell_length_b	12.759401
_cell_length_c	12.759393
_cell_angle_alpha	90.020566
_cell_angle_beta	92.864008
_cell_angle_gamma	87.076339
loop_
_atom_site_label
_atom_site_type_symbol
_atom_site_fract_x
_atom_site_fract_y
_atom_site_fract_z
Zn1	Zn	-0.331905	-1.584980	-0.615177
Zn2	Zn	0.168095	-1.084980	-0.115177
Zn3	Zn	-0.471340	-1.575928	-0.448390
Zn4	Zn	0.028660	-1.075928	0.051610
Zn5	Zn	-0.331941	-1.409276	-0.439516
Zn6	Zn	0.168059	-0.909276	0.060484
Zn7	Zn	-0.471274	-1.400332	-0.624024
Zn8	Zn	0.028726	-0.900332	-0.124024
O9	O	-0.401615	-1.492629	-0.531776
O10	O	0.098385	-0.992629	-0.031776
O11	O	-0.350414	-1.730799	-0.593064
O12	O	0.149586	-1.230799	-0.093064
O13	O	-0.452891	-1.553777	-0.300194
O14	O	0.047109	-1.053777	0.199806
O15	O	-0.215271	-1.440115	-0.455401
O16	O	0.284729	-0.940115	0.044599
O17	O	-0.452856	-1.724149	-0.470526
O18	O	0.047144	-1.224149	0.029474
O19	O	-0.215245	-1.569204	-0.584459
O20	O	0.284755	-1.069204	-0.084459
O21	O	-0.350476	-1.431338	-0.293674
O22	O	0.149524	-0.931338	0.206326
O23	O	-0.350411	-1.261070	-0.463980
O24	O	0.149589	-0.761070	0.036020
O25	O	-0.452743	-1.424871	-0.769869
O26	O	0.047257	-0.924871	-0.269869
O27	O	-0.452778	-1.254498	-0.599537
O28	O	0.047222	-0.754498	-0.099537
O29	O	-0.350350	-1.560531	-0.763369
O30	O	0.149650	-1.060531	-0.263369
O31	O	-0.587996	-1.545104	-0.479104
O32	O	-0.087996	-1.045104	0.020896
O33	O	-0.587948	-1.416094	-0.608142
O34	O	-0.087948	-0.916094	-0.108142
C35	C	-0.401592	-1.219663	-0.531756
C36	C	0.098408	-0.719663	-0.031756
C37	C	-0.401603	-1.102886	-0.531773
C38	C	0.098397	-0.602886	-0.031773
C39	C	-0.348356	-1.051481	-0.595688
C40	C	0.151644	-0.551481	-0.095688
C41	C	-0.348361	-0.941757	-0.595693
C42	C	0.151639	-0.441757	-0.095693
C43	C	-0.454867	-0.934851	-0.467868
C44	C	0.045133	-0.434851	0.032132
C45	C	-0.454857	-1.044574	-0.467857
C46	C	0.045143	-0.544574	0.032143
C47	C	-0.618222	-1.478675	-0.545569
C48	C	-0.118222	-0.978675	-0.045569
C49	C	-0.710887	-1.472801	-0.551504
C50	C	-0.210887	-0.972801	-0.051504
C51	C	-0.880548	-1.462084	-0.562362
C52	C	-0.380548	-0.962084	-0.062362
C53	C	-0.921842	-1.523363	-0.501208
C54	C	-0.421842	-1.023363	-0.001208
C55	C	-1.016247	-1.517400	-0.507249
C56	C	-0.516247	-1.017400	-0.007249
C57	C	-0.786134	-1.468045	-0.556322
C58	C	-0.286134	-0.968045	-0.056322
C59	C	-0.184162	-1.506667	-0.517953
C60	C	0.315838	-1.006667	-0.017953
C61	C	-0.091497	-1.512649	-0.512063
C62	C	0.408503	-1.012649	-0.012063
C63	C	-0.401535	-1.492713	-0.805805
C64	C	0.098465	-0.992713	-0.305805
C65	C	-0.401501	-1.492749	-0.922579
C66	C	0.098499	-0.992749	-0.422579
C67	C	-0.401631	-0.766661	-0.531793
C68	C	0.098369	-0.266661	-0.031793
C69	C	-0.401618	-0.883439	-0.531789
C70	C	0.098382	-0.383439	-0.031789
C71	C	-0.348176	-1.563392	-0.974058
C72	C	0.151824	-1.063392	-0.474058
C73	C	-0.348140	-1.563412	-1.083780
C74	C	0.151860	-1.063412	-0.583780
C75	C	-0.454761	-1.422142	-1.090535
C76	C	0.045239	-0.922142	-0.590535
C77	C	-0.454792	-1.422117	-0.980815
C78	C	0.045208	-0.922117	-0.480815
C79	C	-0.401635	-1.492610	-0.258810
C80	C	0.098365	-0.992610	0.241190
C81	C	-0.401434	-1.492793	-0.142021
C82	C	0.098566	-0.992793	0.357979
H83	H	-0.304990	-1.098956	-0.647729
H84	H	0.195010	-0.598956	-0.147729
H85	H	-0.498215	-1.364583	-0.938900
H86	H	0.001785	-0.864583	-0.438900
Cl87	Cl	-0.281107	-1.652234	-1.148492
Cl88	Cl	0.218893	-1.152234	-0.648492
Cl89	Cl	-0.281417	-0.877139	-0.676045
Cl90	Cl	0.218583	-0.377139	-0.176045
Cl91	Cl	-0.521815	-0.861537	-0.387525
Cl92	Cl	-0.021815	-0.361537	0.112475
Cl93	Cl	-0.281178	-1.652181	-0.900851
Cl94	Cl	0.218822	-1.152181	-0.400851
Cl95	Cl	-0.866962	-1.611273	-0.413363
Cl96	Cl	-0.366962	-1.111273	0.086637
H97	H	-0.498218	-1.086428	-0.415805
H98	H	0.001782	-0.586428	0.084195
Cl99	Cl	-0.935428	-1.374172	-0.650194
Cl100	Cl	-0.435428	-0.874172	-0.150194
H101	H	-0.498151	-1.364639	-1.137964
H102	H	0.001849	-0.864639	-0.637964
