data_functionalizedCrystal
_audit_creation_method	'MofGen! by Chris Wilmer'
_symmetry_space_group_name_H-M	'P1'
_symmetry_Int_Tables_number	1
_symmetry_cell_setting	triclinic
loop_
_symmetry_equiv_pos_as_xyz
  x,y,z
_cell_length_a	19.805407
_cell_length_b	19.805404
_cell_length_c	19.805399
_cell_angle_alpha	90.027110
_cell_angle_beta	90.024201
_cell_angle_gamma	90.028840
loop_
_atom_site_label
_atom_site_type_symbol
_atom_site_fract_x
_atom_site_fract_y
_atom_site_fract_z
Zn1	Zn	1.034721	-0.269492	0.382805
Zn2	Zn	1.534721	0.230508	0.882805
Zn3	Zn	1.034629	-0.382681	0.269618
Zn4	Zn	1.534629	0.117319	0.769618
Zn5	Zn	0.921535	-0.269510	0.269621
Zn6	Zn	1.421535	0.230490	0.769621
Zn7	Zn	0.921493	-0.382643	0.382756
Zn8	Zn	1.421493	0.117357	0.882756
O9	O	0.978095	-0.326082	0.326200
O10	O	1.478095	0.173918	0.826200
O11	O	1.129425	-0.284516	0.367811
O12	O	1.629425	0.215484	0.867811
O13	O	1.019607	-0.367691	0.174902
O14	O	1.519607	0.132309	0.674902
O15	O	0.936606	-0.174791	0.284657
O16	O	1.436606	0.325209	0.784657
O17	O	1.129358	-0.367675	0.284652
O18	O	1.629358	0.132325	0.784652
O19	O	1.019763	-0.174778	0.367813
O20	O	1.519763	0.325222	0.867813
O21	O	0.936517	-0.284545	0.174904
O22	O	1.436517	0.215455	0.674904
O23	O	0.826813	-0.284509	0.284609
O24	O	1.326813	0.215491	0.784609
O25	O	0.936533	-0.367611	0.477479
O26	O	1.436533	0.132389	0.977479
O27	O	0.826782	-0.367627	0.367728
O28	O	1.326782	0.132373	0.867728
O29	O	1.019721	-0.284479	0.477515
O30	O	1.519721	0.215521	0.977515
O31	O	1.019565	-0.477392	0.284604
O32	O	1.519565	0.022608	0.784604
O33	O	0.936444	-0.477365	0.367726
O34	O	1.436444	0.022635	0.867726
C35	C	0.802238	-0.326066	0.326164
C36	C	1.302238	0.173934	0.826164
C37	C	0.727006	-0.326076	0.326165
C38	C	1.227006	0.173924	0.826165
C39	C	0.265217	-0.369443	0.369456
C40	C	0.765217	0.130557	0.869456
C41	C	0.335905	-0.369442	0.369441
C42	C	0.835905	0.130558	0.869441
C43	C	0.371245	-0.326098	0.326226
C44	C	0.871245	0.173902	0.826226
C45	C	0.335892	-0.282757	0.283018
C46	C	0.835892	0.217243	0.783018
C47	C	0.265205	-0.282762	0.283030
C48	C	0.765205	0.217238	0.783030
C49	C	0.620965	-0.282736	0.282971
C50	C	1.120965	0.217264	0.782971
C51	C	0.691658	-0.282733	0.282964
C52	C	1.191658	0.217267	0.782964
C53	C	0.691666	-0.369416	0.369382
C54	C	1.191666	0.130584	0.869382
C55	C	0.620979	-0.369421	0.369394
C56	C	1.120979	0.130579	0.869394
C57	C	0.585632	-0.326083	0.326183
C58	C	1.085632	0.173917	0.826183
C59	C	0.508984	-0.326086	0.326198
C60	C	1.008984	0.173914	0.826198
C61	C	0.447892	-0.326091	0.326214
C62	C	0.947892	0.173909	0.826214
C63	C	0.978009	-0.501938	0.326174
C64	C	1.478009	-0.001938	0.826174
C65	C	0.978034	-0.577170	0.326185
C66	C	1.478034	-0.077170	0.826185
C67	C	1.021542	-1.038952	0.283013
C68	C	1.521542	-0.538952	0.783013
C69	C	1.021510	-0.968264	0.283000
C70	C	1.521510	-0.468264	0.783000
C71	C	0.978183	-0.932931	0.326236
C72	C	1.478183	-0.432931	0.826236
C73	C	0.934880	-0.968291	0.369483
C74	C	1.434880	-0.468291	0.869483
C75	C	0.934909	-1.038978	0.369492
C76	C	1.434909	-0.538978	0.869492
C77	C	0.934763	-0.683217	0.369446
C78	C	1.434763	-0.183217	0.869446
C79	C	0.934739	-0.612525	0.369434
C80	C	1.434739	-0.112525	0.869434
C81	C	1.021364	-0.612504	0.282954
C82	C	1.521364	-0.112504	0.782954
C83	C	1.021392	-0.683191	0.282963
C84	C	1.521392	-0.183191	0.782963
C85	C	0.978087	-0.718544	0.326207
C86	C	1.478087	-0.218544	0.826207
C87	C	0.978121	-0.795192	0.326220
C88	C	1.478121	-0.295192	0.826220
C89	C	0.978152	-0.856284	0.326227
C90	C	1.478152	-0.356284	0.826227
C91	C	1.154637	-0.326097	0.326237
C92	C	1.654637	0.173903	0.826237
C93	C	1.229869	-0.326104	0.326252
C94	C	1.729869	0.173896	0.826252
C95	C	0.978132	-0.326039	0.502743
C96	C	1.478132	0.173961	1.002743
C97	C	0.978149	-0.326021	0.577975
C98	C	1.478149	0.173979	1.077975
C99	C	0.978199	-0.149539	0.326241
C100	C	1.478199	0.350461	0.826241
C101	C	0.978244	-0.074307	0.326258
C102	C	1.478244	0.425693	0.826258
C103	C	0.978096	-0.326075	0.150344
C104	C	1.478096	0.173925	0.650344
C105	C	0.978211	-0.325903	0.075112
C106	C	1.478211	0.174097	0.575112
C107	C	1.021466	-0.282732	0.613339
C108	C	1.521466	0.217268	1.113339
C109	C	1.021473	-0.282712	0.684028
C110	C	1.521473	0.217288	1.184028
C111	C	0.978165	-0.325985	0.719351
C112	C	1.478165	0.174015	1.219351
C113	C	0.934844	-0.369276	0.683981
C114	C	1.434844	0.130724	1.183981
C115	C	0.934834	-0.369292	0.613294
C116	C	1.434834	0.130708	1.113294
C117	C	0.934882	-0.369213	0.969055
C118	C	1.434882	0.130787	1.469055
C119	C	0.934896	-0.369195	1.039747
C120	C	1.434896	0.130805	1.539747
C121	C	1.021521	-0.282634	1.039788
C122	C	1.521521	0.217366	1.539788
C123	C	1.021511	-0.282649	0.969101
C124	C	1.521511	0.217351	1.469101
C125	C	0.978187	-0.325937	0.933738
C126	C	1.478187	0.174063	1.433738
C127	C	0.978179	-0.325957	0.857090
C128	C	1.478179	0.174043	1.357090
C129	C	0.978176	-0.325969	0.795998
C130	C	1.478176	0.174031	1.295998
H131	H	0.236448	-0.404735	0.404650
H132	H	0.736448	0.095265	0.904650
O133	O	0.370142	-0.240561	0.241068
O134	O	0.870142	0.259439	0.741068
C135	C	0.352918	-0.173120	0.255989
C136	C	0.852918	0.326880	0.755989
H137	H	0.301612	-0.171754	0.282022
H138	H	0.801612	0.328246	0.782022
H139	H	0.350481	-0.142711	0.207192
H140	H	0.850481	0.357289	0.707192
H141	H	0.392734	-0.150361	0.290817
H142	H	0.892734	0.349639	0.790817
H143	H	0.899599	-0.939519	0.404684
H144	H	1.399599	-0.439519	0.904684
O145	O	0.370137	-0.411562	0.411474
O146	O	0.870137	0.088438	0.911474
C147	C	0.323788	-0.449828	0.449610
C148	C	0.823788	0.050172	0.949610
H149	H	0.273415	-0.422108	0.452011
H150	H	0.773415	0.077892	0.952011
H151	H	0.344240	-0.457116	0.502922
H152	H	0.844240	0.042884	1.002922
H153	H	0.316230	-0.501202	0.424735
H154	H	0.816230	-0.001202	0.924735
H155	H	1.056827	-1.067715	0.247809
H156	H	1.556827	-0.567715	0.747809
O157	O	0.725883	-0.240610	0.240914
O158	O	1.225883	0.259390	0.740914
C159	C	0.679528	-0.202349	0.202787
C160	C	1.179528	0.297651	0.702787
H161	H	0.629125	-0.230071	0.200402
H162	H	1.129125	0.269929	0.700402
H163	H	0.699928	-0.195066	0.149468
H164	H	1.199928	0.304934	0.649468
H165	H	0.672048	-0.150972	0.227658
H166	H	1.172048	0.349028	0.727658
O167	O	1.063506	-0.240512	0.934824
O168	O	1.563506	0.259488	1.434824
C169	C	1.048761	-0.173052	0.952130
C170	C	1.548761	0.326948	1.452130
H171	H	0.994692	-0.169633	0.971546
H172	H	1.494692	0.330367	1.471546
H173	H	1.054603	-0.139618	0.905657
H174	H	1.554603	0.360382	1.405657
H175	H	1.085062	-0.155354	0.993179
H176	H	1.585062	0.344646	1.493179
O177	O	1.063605	-0.240791	0.578998
O178	O	1.563605	0.259209	1.078998
C179	C	1.107283	-0.279335	0.538098
C180	C	1.607283	0.220665	1.038098
H181	H	1.111441	-0.332639	0.559386
H182	H	1.611441	0.167361	1.059386
H183	H	1.159385	-0.254855	0.537315
H184	H	1.659385	0.245145	1.037315
H185	H	1.086346	-0.281677	0.484519
H186	H	1.586346	0.218323	0.984519
O187	O	1.063392	-0.578234	0.240844
O188	O	1.563392	-0.078234	0.740844
C189	C	1.048638	-0.595553	0.173372
C190	C	1.548638	-0.095553	0.673372
H191	H	1.022641	-0.646901	0.171952
H192	H	1.522641	-0.146901	0.671952
H193	H	1.097506	-0.597947	0.143074
H194	H	1.597506	-0.097947	0.643074
H195	H	1.013837	-0.555817	0.150531
H196	H	1.513837	-0.055817	0.650531
H197	H	0.236426	-0.247469	0.247851
H198	H	0.736426	0.252531	0.747851
O199	O	0.892582	-0.578307	0.411456
O200	O	1.392582	-0.078307	0.911456
C201	C	0.854377	-0.624667	0.449638
C202	C	1.354377	-0.124667	0.949638
H203	H	0.852067	-0.675075	0.421920
H204	H	1.352067	-0.175075	0.921920
H205	H	0.801038	-0.604282	0.456798
H206	H	1.301038	-0.104282	0.956798
H207	H	0.879132	-0.632133	0.501072
H208	H	1.379132	-0.132133	1.001072
H209	H	0.720453	-0.404706	0.404565
H210	H	1.220453	0.095294	0.904565
H211	H	1.056795	-0.247384	1.068589
H212	H	1.556795	0.252616	1.568589
O213	O	0.892873	-1.073428	0.411439
O214	O	1.392873	-0.573428	0.911439
C215	C	0.902199	-1.143394	0.402187
C216	C	1.402199	-0.643394	0.902187
H217	H	0.924403	-1.153059	0.349977
H218	H	1.424403	-0.653059	0.849977
H219	H	0.851508	-1.170302	0.406728
H220	H	1.351508	-0.670302	0.906728
H221	H	0.938227	-1.163398	0.442375
H222	H	1.438227	-0.663398	0.942375
H223	H	1.056766	-0.939479	0.247786
H224	H	1.556766	-0.439479	0.747786
O225	O	0.892685	-0.411251	0.578913
O226	O	1.392685	0.088749	1.078913
C227	C	0.848994	-0.372726	0.538009
C228	C	1.348994	0.127274	1.038009
H229	H	0.844847	-0.319410	0.559320
H230	H	1.344847	0.180590	1.059320
H231	H	0.796891	-0.397203	0.537191
H232	H	1.296891	0.102797	1.037191
H233	H	0.869911	-0.370412	0.484441
H234	H	1.369911	0.129588	0.984441
O235	O	1.063593	-0.717415	0.240998
O236	O	1.563593	-0.217415	0.740998
C237	C	1.131025	-0.700054	0.255890
C238	C	1.631025	-0.200054	0.755890
H239	H	1.132358	-0.648721	0.281920
H240	H	1.632358	-0.148721	0.781920
H241	H	1.161414	-0.697608	0.207081
H242	H	1.661414	-0.197608	0.707081
H243	H	1.153829	-0.739795	0.290712
H244	H	1.653829	-0.239795	0.790712
O245	O	0.586755	-0.411590	0.411394
O246	O	1.086755	0.088410	0.911394
C247	C	0.633113	-0.449832	0.449536
C248	C	1.133113	0.050168	0.949536
H249	H	0.683485	-0.452135	0.421802
H250	H	1.183485	0.047865	0.921802
H251	H	0.612669	-0.503171	0.456662
H252	H	1.112669	-0.003171	0.956662
H253	H	0.640670	-0.425114	0.500985
H254	H	1.140670	0.074886	1.000985
O255	O	1.063618	-0.240643	0.718276
O256	O	1.563618	0.259357	1.218276
C257	C	1.101831	-0.202445	0.671941
C258	C	1.601831	0.297555	1.171941
H259	H	1.104148	-0.230182	0.621547
H260	H	1.604148	0.269818	1.121547
H261	H	1.155167	-0.195229	0.692381
H262	H	1.655167	0.304771	1.192381
H263	H	1.077079	-0.151037	0.664427
H264	H	1.577079	0.348963	1.164427
H265	H	0.899580	-0.404507	0.712747
H266	H	1.399580	0.095493	1.212747
O267	O	0.892732	-0.411163	0.934672
O268	O	1.392732	0.088837	1.434672
C269	C	0.849046	-0.372628	0.893771
C270	C	1.349046	0.127372	1.393771
H271	H	0.844901	-0.319316	0.915092
H272	H	1.344901	0.180684	1.415092
H273	H	0.796942	-0.397101	0.892944
H274	H	1.296942	0.102899	1.392944
H275	H	0.869969	-0.370305	0.840206
H276	H	1.369969	0.129695	1.340206
H277	H	0.592195	-0.247451	0.247783
H278	H	1.092195	0.252549	0.747783
O279	O	0.892798	-0.717625	0.411492
O280	O	1.392798	-0.217625	0.911492
C281	C	0.931324	-0.758438	0.455266
C282	C	1.431324	-0.258438	0.955266
H283	H	0.982634	-0.769003	0.431445
H284	H	1.482634	-0.269003	0.931445
H285	H	0.903765	-0.808161	0.464324
H286	H	1.403765	-0.308161	0.964324
H287	H	0.938727	-0.731153	0.505426
H288	H	1.438727	-0.231153	1.005426
H289	H	0.899628	-0.404435	1.068505
H290	H	1.399628	0.095565	1.568505
