data_functionalizedCrystal
_audit_creation_method	'MofGen! by Chris Wilmer'
_symmetry_space_group_name_H-M	'P1'
_symmetry_Int_Tables_number	1
_symmetry_cell_setting	triclinic
loop_
_symmetry_equiv_pos_as_xyz
  x,y,z
_cell_length_a	13.262390
_cell_length_b	10.654550
_cell_length_c	9.130313
_cell_angle_alpha	89.995631
_cell_angle_beta	74.079185
_cell_angle_gamma	84.458071
loop_
_atom_site_label
_atom_site_type_symbol
_atom_site_fract_x
_atom_site_fract_y
_atom_site_fract_z
O1	O	1.393925	0.169161	-0.677091
O2	O	1.088470	0.187553	-0.555411
O3	O	1.248221	-0.004419	-0.619040
O4	O	1.234175	0.361132	-0.613463
O5	O	1.248210	-0.004425	-0.375436
O6	O	1.088459	0.187547	-0.311808
O7	O	1.393914	0.169155	-0.433488
Cu8	Cu	1.241186	0.178351	-0.350405
Cu9	Cu	1.241199	0.178357	-0.638494
O10	O	1.234164	0.361127	-0.369860
C11	C	1.049352	0.186519	-0.418029
C12	C	0.932810	0.183432	-0.371604
C13	C	1.247184	-0.051214	-0.496828
C14	C	1.244098	-0.190642	-0.495601
C15	C	1.338157	-0.270616	-0.533070
C16	C	1.335251	-0.401621	-0.531931
C17	C	1.144220	-0.372666	-0.455843
C18	C	1.147127	-0.241663	-0.456994
C19	C	0.604330	0.174726	-0.771913
C20	C	0.713828	0.177620	-0.815535
C21	C	0.768579	0.179074	-0.704556
C22	C	0.713821	0.177632	-0.549947
C23	C	0.604314	0.174728	-0.506322
C24	C	0.768563	0.179076	-0.438965
C25	C	0.713805	0.177634	-0.284356
C26	C	0.604309	0.174731	-0.240738
C27	C	0.549558	0.173277	-0.351717
C28	C	0.878070	0.181980	-0.482590
C29	C	0.878054	0.181982	-0.216999
C30	C	0.768556	0.179088	-0.173377
C31	C	1.433032	0.170189	-0.570873
C32	C	1.549574	0.173275	-0.617308
C33	C	1.235200	0.407922	-0.492074
C34	C	1.238286	0.547349	-0.493311
N35	N	1.241184	0.178345	-0.147782
N36	N	1.241208	0.178353	-0.841121
C37	C	1.311946	0.093376	-0.099314
C38	C	1.311956	0.093376	0.054019
C39	C	1.170439	0.263326	0.110404
C40	C	1.170425	0.263319	-0.042924
H41	H	1.417117	-0.229079	-0.564510
Cl42	Cl	1.028872	-0.141116	-0.409898
Cl43	Cl	1.081456	0.370140	-0.103860
Cl44	Cl	0.535503	0.172833	-0.911412
Cl45	Cl	0.946894	0.183794	-0.676947
Cl46	Cl	0.906234	0.182719	-0.759397
Cl47	Cl	1.453502	-0.502156	-0.579040
Cl48	Cl	1.400915	-0.013449	0.114945
H49	H	0.460395	0.170925	-0.316208
H50	H	1.065270	-0.414224	-0.424407
Cl51	Cl	1.081493	0.370150	0.242228
H52	H	0.559731	0.173534	-0.114847
Cl53	Cl	0.782658	0.179428	-1.009890
Cl54	Cl	0.699706	0.177274	0.020981
Cl55	Cl	0.946877	0.183799	-0.077474
H56	H	1.369561	0.024184	-0.184687
