data_functionalizedCrystal
_audit_creation_method	'MofGen! by Chris Wilmer'
_symmetry_space_group_name_H-M	'P1'
_symmetry_Int_Tables_number	1
_symmetry_cell_setting	triclinic
loop_
_symmetry_equiv_pos_as_xyz
  x,y,z
_cell_length_a	15.944551
_cell_length_b	14.044191
_cell_length_c	12.503572
_cell_angle_alpha	86.162165
_cell_angle_beta	93.522593
_cell_angle_gamma	88.345257
loop_
_atom_site_label
_atom_site_type_symbol
_atom_site_fract_x
_atom_site_fract_y
_atom_site_fract_z
O1	O	0.198087	1.263184	-0.089272
O2	O	0.190772	0.987215	-0.089286
O3	O	0.072720	1.132735	-0.089269
O4	O	0.316139	1.117664	-0.089289
O5	O	0.081614	1.121791	0.089372
O6	O	0.199667	0.976271	0.089355
O7	O	0.206981	1.252240	0.089368
Cu8	Cu	0.204136	1.113256	0.105673
Cu9	Cu	0.193617	1.126199	-0.105591
O10	O	0.325034	1.106720	0.089351
C11	C	0.192020	0.946428	0.000033
C12	C	0.182476	0.841202	0.000028
C13	C	0.232714	0.590918	0.000035
C14	C	0.165042	0.648543	0.000038
C15	C	0.174745	0.755748	0.000033
C16	C	0.223013	0.483703	0.000040
C17	C	0.045826	1.126637	0.000051
C18	C	-0.047560	1.124761	0.000052
C19	C	-0.269510	1.030078	0.000032
C20	C	-0.322848	1.068650	0.088115
C21	C	-0.218541	1.121368	0.000043
C22	C	-0.331599	1.079462	-0.088010
C23	C	-0.383700	1.118084	0.000031
C24	C	-0.270646	1.159961	0.088199
C25	C	-0.279395	1.170765	-0.088006
C26	C	-0.332710	1.209402	0.000098
C27	C	-0.123397	1.123257	0.000052
C28	C	-0.478842	1.116202	0.000030
C29	C	0.351927	1.112818	0.000029
C30	C	0.445314	1.114694	0.000021
C31	C	0.205733	1.293027	0.000047
C32	C	0.215277	1.398253	0.000045
N33	N	0.211534	1.104160	0.254264
N34	N	0.186213	1.135302	-0.254182
C35	C	0.222424	1.090779	0.473378
C36	C	0.175326	1.148680	0.526711
C37	C	0.181385	1.141235	0.648634
C38	C	0.216366	1.098223	0.351444
H39	H	0.297932	0.622097	0.000026
O40	O	0.087178	0.611477	-0.000106
C41	C	-0.049485	0.605913	-0.092698
C42	C	0.038654	0.647982	-0.092649
H43	H	-0.088735	0.635395	-0.167523
H44	H	-0.081417	0.626312	-0.017991
H45	H	-0.043530	0.524822	-0.092646
H46	H	0.032774	0.729076	-0.092739
H47	H	0.070553	0.627508	-0.167350
O48	O	0.275944	1.025061	0.528299
C49	C	0.330796	0.957575	0.701671
C50	C	0.270163	1.032053	0.639591
H51	H	0.326129	0.963190	0.791661
H52	H	0.397927	0.971388	0.679714
H53	H	0.313174	0.882956	0.679587
H54	H	0.287708	1.106702	0.661641
H55	H	0.203048	1.018157	0.661554
O56	O	-0.365627	1.299822	0.000079
C57	C	-0.491157	1.399681	-0.000729
C58	C	-0.453997	1.297233	-0.000722
H59	H	-0.562608	1.397621	-0.001354
H60	H	-0.472502	1.443438	-0.075136
H61	H	-0.465857	1.433829	0.074382
H62	H	-0.479278	1.263002	-0.075782
H63	H	-0.472645	1.253545	0.073734
O64	O	0.121726	1.214522	0.472121
C65	C	0.018495	1.341541	0.483686
C66	C	0.079141	1.267005	0.545648
H67	H	-0.015938	1.384007	0.543105
H68	H	-0.029125	1.303751	0.431065
H69	H	0.055703	1.392091	0.431002
H70	H	0.042003	1.216433	0.598390
H71	H	0.126761	1.304858	0.598200
O72	O	-0.236563	0.939648	0.000317
C73	C	-0.221169	0.783690	0.093466
C74	C	-0.258514	0.886071	0.093285
H75	H	-0.238917	0.740338	0.168612
H76	H	-0.149789	0.785945	0.092768
H77	H	-0.247206	0.748973	0.019099
H78	H	-0.232542	0.920848	0.167640
H79	H	-0.329893	0.883750	0.093928
O80	O	-0.345916	1.017297	0.177026
C81	C	-0.420210	1.017989	0.339090
C82	C	-0.394131	1.076269	0.238465
H83	H	-0.459211	1.065637	0.388780
H84	H	-0.361595	0.989558	0.389292
H85	H	-0.459181	0.955594	0.313648
H86	H	-0.355179	1.138705	0.263812
H87	H	-0.452780	1.104627	0.188288
O88	O	-0.238788	1.200476	0.177105
C89	C	-0.114484	1.247745	0.276820
C90	C	-0.150451	1.201830	0.176102
H91	H	-0.043060	1.248873	0.276031
H92	H	-0.132655	1.204498	0.351825
H93	H	-0.141123	1.323927	0.277129
H94	H	-0.123831	1.125653	0.175688
H95	H	-0.132287	1.245148	0.101142
O96	O	-0.256386	1.222101	-0.176951
C97	C	-0.261392	1.237737	-0.370353
C98	C	-0.287491	1.179509	-0.269702
H99	H	-0.286544	1.203336	-0.445368
H100	H	-0.189890	1.239220	-0.369142
H101	H	-0.288470	1.313813	-0.371055
H102	H	-0.260471	1.103407	-0.268934
H103	H	-0.358997	1.178105	-0.270952
O104	O	-0.363331	1.038698	-0.176818
C105	C	-0.367087	0.898067	-0.277123
C106	C	-0.331079	0.944130	-0.176524
H107	H	-0.341039	0.821595	-0.276907
H108	H	-0.348381	0.940772	-0.352219
H109	H	-0.438554	0.897717	-0.276680
H110	H	-0.259609	0.944488	-0.176863
H111	H	-0.349850	0.901410	-0.101473
