data_functionalizedCrystal
_audit_creation_method	'MofGen! by Chris Wilmer'
_symmetry_space_group_name_H-M	'P1'
_symmetry_Int_Tables_number	1
_symmetry_cell_setting	triclinic
loop_
_symmetry_equiv_pos_as_xyz
  x,y,z
_cell_length_a	13.596369
_cell_length_b	14.971486
_cell_length_c	14.971486
_cell_angle_alpha	96.385871
_cell_angle_beta	89.993775
_cell_angle_gamma	89.996008
loop_
_atom_site_label
_atom_site_type_symbol
_atom_site_fract_x
_atom_site_fract_y
_atom_site_fract_z
O1	O	-0.081679	-1.186940	0.116565
O2	O	0.251655	-0.853607	0.449898
O3	O	0.584988	-0.520273	0.783232
O4	O	-0.081706	-0.926540	0.130524
O5	O	0.251628	-0.593206	0.463857
O6	O	0.584961	-0.259873	0.797190
O7	O	-0.081684	-1.063719	-0.006656
O8	O	0.251649	-0.730386	0.326678
O9	O	0.584982	-0.397053	0.660011
O10	O	-0.081700	-1.049760	0.253744
O11	O	0.251633	-0.716427	0.587078
O12	O	0.584967	-0.383094	0.920411
O13	O	0.081898	-1.063717	-0.006664
O14	O	0.415232	-0.730384	0.326669
O15	O	0.748565	-0.397050	0.660002
O16	O	0.081877	-0.926538	0.130515
O17	O	0.415211	-0.593204	0.463848
O18	O	0.748544	-0.259871	0.797182
O19	O	0.081904	-1.186938	0.116556
O20	O	0.415237	-0.853604	0.449890
O21	O	0.748571	-0.520271	0.783223
Zn22	Zn	0.107863	-1.056737	0.123534
Zn23	Zn	0.441196	-0.723404	0.456868
Zn24	Zn	0.774530	-0.390071	0.790201
Zn25	Zn	-0.107665	-1.056740	0.123546
Zn26	Zn	0.225669	-0.723407	0.456879
Zn27	Zn	0.559002	-0.390073	0.790212
O28	O	0.081883	-1.049758	0.253736
O29	O	0.415216	-0.716425	0.587069
O30	O	0.748550	-0.383092	0.920402
C31	C	0.000082	-0.893214	0.129895
C32	C	0.333416	-0.559881	0.463228
C33	C	0.666749	-0.226547	0.796562
C34	C	0.000072	-0.793917	0.128024
C35	C	0.333406	-0.460583	0.461358
C36	C	0.666739	-0.127250	0.794691
N37	N	-0.254756	-1.056743	0.123547
N38	N	0.078577	-0.723409	0.456880
N39	N	0.411910	-0.390076	0.790214
C40	C	0.000107	-1.063094	-0.039985
C41	C	0.333440	-0.729761	0.293348
C42	C	0.666773	-0.396427	0.626682
C43	C	0.000106	-1.061223	-0.139282
C44	C	0.333439	-0.727890	0.194051
C45	C	0.666772	-0.394556	0.527385
C46	C	-0.656047	-1.056738	0.123537
C47	C	-0.322714	-0.723405	0.456870
C48	C	0.010619	-0.390071	0.790204
C49	C	-0.544396	-1.056736	0.123542
C50	C	-0.211063	-0.723403	0.456876
C51	C	0.122271	-0.390070	0.790209
C52	C	-0.455405	-1.056740	0.123542
C53	C	-0.122072	-0.723406	0.456875
C54	C	0.211261	-0.390073	0.790208
C55	C	-0.343747	-1.056739	0.123548
C56	C	-0.010414	-0.723406	0.456881
C57	C	0.322920	-0.390073	0.790214
N58	N	0.254955	-1.056742	0.123526
N59	N	0.588288	-0.723408	0.456859
N60	N	0.921622	-0.390075	0.790193
C61	C	0.000114	-1.220263	0.117185
C62	C	0.333447	-0.886930	0.450518
C63	C	0.666781	-0.553597	0.783851
C64	C	0.000118	-1.319561	0.119056
C65	C	0.333451	-0.986227	0.452389
C66	C	0.666784	-0.652894	0.785722
C67	C	0.000069	-0.736692	0.208614
C68	C	0.333402	-0.403358	0.541947
C69	C	0.666736	-0.070025	0.875280
C70	C	0.000084	-0.643392	0.206850
C71	C	0.333417	-0.310059	0.540184
C72	C	0.666750	0.023275	0.873517
C73	C	0.000095	-0.607320	0.124497
C74	C	0.333428	-0.273986	0.457831
C75	C	0.666762	0.059347	0.791164
C76	C	0.000101	-0.664552	0.043902
C77	C	0.333435	-0.331219	0.377235
C78	C	0.666768	0.002114	0.710569
C79	C	0.000094	-0.757850	0.045666
C80	C	0.333427	-0.424517	0.378999
C81	C	0.666760	-0.091183	0.712333
C82	C	0.000115	-0.470090	0.040231
C83	C	0.333448	-0.136757	0.373564
C84	C	0.666782	0.196577	0.706897
C85	C	0.000121	-0.376786	0.038466
C86	C	0.333454	-0.043453	0.371800
C87	C	0.666788	0.289881	0.705133
C88	C	0.000105	-0.355632	0.201415
C89	C	0.333439	-0.022299	0.534749
C90	C	0.666772	0.311035	0.868082
C91	C	0.000098	-0.448930	0.203179
C92	C	0.333431	-0.115596	0.536513
C93	C	0.666764	0.217737	0.869846
C94	C	0.000102	-0.506156	0.122584
C95	C	0.333435	-0.172822	0.455917
C96	C	0.666769	0.160511	0.789250
C97	C	0.000115	-1.141812	-0.196507
C98	C	0.333448	-0.808479	0.136826
C99	C	0.666781	-0.475146	0.470159
C100	C	0.000105	-1.140049	-0.289807
C101	C	0.333438	-0.806716	0.043527
C102	C	0.666771	-0.473383	0.376860
C103	C	0.000092	-1.057696	-0.325879
C104	C	0.333426	-0.724363	0.007454
C105	C	0.666759	-0.391029	0.340788
C106	C	0.000080	-0.977101	-0.268646
C107	C	0.333414	-0.643767	0.064687
C108	C	0.666747	-0.310434	0.398020
C109	C	0.000084	-0.978865	-0.175349
C110	C	0.333417	-0.645531	0.157985
C111	C	0.666750	-0.312198	0.491318
C112	C	0.000077	-0.973430	-0.463109
C113	C	0.333410	-0.640096	-0.129776
C114	C	0.666743	-0.306763	0.203558
C115	C	0.000075	-0.971665	-0.556413
C116	C	0.333409	-0.638332	-0.223080
C117	C	0.666742	-0.304998	0.110254
C118	C	0.000098	-1.134614	-0.577567
C119	C	0.333431	-0.801281	-0.244233
C120	C	0.666764	-0.467947	0.089100
C121	C	0.000101	-1.136378	-0.484269
C122	C	0.333434	-0.803045	-0.150936
C123	C	0.666767	-0.469712	0.182397
C124	C	0.000090	-1.055782	-0.427043
C125	C	0.333424	-0.722449	-0.093710
C126	C	0.666757	-0.389116	0.239624
C127	C	0.000090	-1.050384	0.287065
C128	C	0.333423	-0.717050	0.620398
C129	C	0.666756	-0.383717	0.953731
C130	C	0.000084	-1.052254	0.386362
C131	C	0.333418	-0.718921	0.719695
C132	C	0.666751	-0.385588	1.053028
H133	H	0.000059	-0.766054	0.275675
H134	H	0.333393	-0.432720	0.609008
H135	H	0.666726	-0.099387	0.942342
Cl136	Cl	0.000168	-0.331439	-0.065065
Cl137	Cl	0.333501	0.001894	0.268268
Cl138	Cl	0.666834	0.335228	0.601602
H139	H	0.000124	-0.635175	-0.023152
H140	H	0.333458	-0.301842	0.310182
H141	H	0.666791	0.031492	0.643515
H142	H	0.000080	-0.596802	0.272474
H143	H	0.333413	-0.263469	0.605808
H144	H	0.666747	0.069864	0.939141
H145	H	0.000130	-1.208874	-0.167145
H146	H	0.333464	-0.875541	0.166188
H147	H	0.666797	-0.542207	0.499522
Cl148	Cl	0.000053	-0.873570	-0.313995
Cl149	Cl	0.333386	-0.540237	0.019339
Cl150	Cl	0.666720	-0.206903	0.352672
H151	H	0.000120	-0.516682	-0.025399
H152	H	0.333453	-0.183348	0.307934
H153	H	0.666787	0.149985	0.641268
Cl154	Cl	0.000061	-0.868134	-0.601760
Cl155	Cl	0.333394	-0.534800	-0.268426
Cl156	Cl	0.666728	-0.201467	0.064907
Cl157	Cl	0.000119	-1.241366	-0.361744
Cl158	Cl	0.333452	-0.908033	-0.028411
Cl159	Cl	0.666785	-0.574700	0.304923
H160	H	0.000096	-0.804443	-0.019958
H161	H	0.333429	-0.471109	0.313375
H162	H	0.666762	-0.137776	0.646708
H163	H	0.000066	-0.907800	-0.416517
H164	H	0.333399	-0.574466	-0.083184
H165	H	0.666732	-0.241133	0.250150
H166	H	0.000117	-1.203437	-0.454903
H167	H	0.333451	-0.870104	-0.121569
H168	H	0.666784	-0.536771	0.211764
H169	H	0.000076	-0.913240	-0.128756
H170	H	0.333409	-0.579907	0.204577
H171	H	0.666743	-0.246574	0.537911
H172	H	0.000103	-1.200238	-0.624165
H173	H	0.333436	-0.866905	-0.290832
H174	H	0.666769	-0.533572	0.042501
H175	H	0.000079	-0.478296	0.270239
H176	H	0.333412	-0.144963	0.603572
H177	H	0.666746	0.188370	0.936905
H178	H	0.000106	-0.309033	0.267039
H179	H	0.333439	0.024300	0.600373
H180	H	0.666773	0.357633	0.933706
