data_functionalizedCrystal
_audit_creation_method	'MofGen! by Chris Wilmer'
_symmetry_space_group_name_H-M	'P1'
_symmetry_Int_Tables_number	1
_symmetry_cell_setting	triclinic
loop_
_symmetry_equiv_pos_as_xyz
  x,y,z
_cell_length_a	27.732048
_cell_length_b	14.519709
_cell_length_c	12.996460
_cell_angle_alpha	89.999966
_cell_angle_beta	89.988908
_cell_angle_gamma	96.838600
loop_
_atom_site_label
_atom_site_type_symbol
_atom_site_fract_x
_atom_site_fract_y
_atom_site_fract_z
O1	O	0.063362	-1.222766	-0.085445
O2	O	0.070824	-0.954160	-0.085477
O3	O	-0.003264	-1.096805	-0.085440
O4	O	0.137450	-1.080121	-0.085482
O5	O	-0.003268	-1.096791	0.085693
O6	O	0.070820	-0.954145	0.085656
O7	O	0.063358	-1.222752	0.085689
Cu8	Cu	0.067089	-1.088447	0.101299
Cu9	Cu	0.067093	-1.088464	-0.101087
O10	O	0.137446	-1.080106	0.085652
C11	C	0.070474	-0.919799	0.000086
C12	C	0.069432	-0.817435	0.000074
C13	C	-0.021274	-1.096448	0.000129
C14	C	-0.074934	-1.095393	0.000138
C15	C	0.063708	-1.257113	0.000124
C16	C	0.064750	-1.359476	0.000129
C17	C	-0.413378	-1.173048	0.000094
C18	C	-0.615057	-1.169135	0.000080
O19	O	-0.645973	-1.240145	0.000043
N20	N	-0.634585	-1.084552	0.000070
C21	C	-0.603690	-1.000941	0.000058
O22	O	-0.624927	-0.928909	0.000039
C23	C	-0.402012	-1.004855	0.000065
C24	C	-0.382487	-1.089444	0.000085
C25	C	-0.393853	-1.257630	0.000113
C26	C	-0.343436	-1.258607	0.000122
C27	C	-0.312545	-1.175003	0.000113
C28	C	-0.332071	-1.090421	0.000094
C29	C	-0.371118	-0.921246	0.000045
C30	C	-0.320696	-0.922232	0.000045
C31	C	-0.301171	-1.006820	0.000064
C32	C	-0.250763	-1.007794	0.000094
N33	N	-0.231235	-1.092377	0.000104
C34	C	-0.262126	-1.175981	0.000113
C35	C	-0.709574	-0.998893	0.000056
C36	C	-0.759993	-0.997914	0.000056
C37	C	-0.771356	-1.166108	0.000076
C38	C	-0.720936	-1.167086	0.000083
C39	C	-0.690045	-1.083476	0.000065
C40	C	-0.156247	-1.178028	0.000133
C41	C	-0.105825	-1.178998	0.000147
C42	C	-0.094466	-1.010804	0.000122
C43	C	-0.144883	-1.009833	0.000114
C44	C	-0.175773	-1.093453	0.000116
O45	O	-0.219818	-0.936822	0.000119
O46	O	-0.240879	-1.248004	0.000109
C47	C	-0.463795	-1.172071	0.000085
C48	C	-0.483320	-1.087489	0.000066
C49	C	-0.452429	-1.003885	0.000057
C50	C	-0.533740	-1.086510	0.000066
C51	C	-0.564631	-1.170115	0.000076
C52	C	-0.545103	-1.254698	0.000085
C53	C	-0.494686	-1.255675	0.000094
C54	C	-0.471957	-0.919302	0.000048
C55	C	-0.522375	-0.918331	0.000039
C56	C	-0.553266	-1.001936	0.000049
C57	C	0.155456	-1.080464	0.000080
C58	C	0.209116	-1.081518	0.000065
N59	N	0.067085	-1.088442	0.243646
C60	C	0.065596	-0.442606	0.000122
C61	C	0.066661	-0.546896	0.000108
C62	C	0.067514	-0.630018	0.000097
C63	C	0.068579	-0.734314	0.000085
N64	N	0.067093	-1.088477	-0.243434
C65	C	0.067094	-1.088463	0.663460
C66	C	0.067093	-1.088454	0.546655
C67	C	0.067090	-1.088453	0.453557
C68	C	0.067088	-1.088443	0.336744
H69	H	-0.089931	-1.247882	0.000166
H70	H	-0.478794	-1.324556	0.000110
O71	O	-0.392169	-0.830009	0.000025
H72	H	-0.379759	-0.789891	-0.069739
O73	O	-0.427167	-1.347812	0.000126
H74	H	-0.450416	-1.351381	0.069878
H75	H	-0.570263	-1.322771	0.000097
H76	H	-0.295547	-0.854144	0.000029
H77	H	-0.705043	-1.235965	0.000098
O78	O	-0.322386	-1.349849	0.000124
H79	H	-0.299698	-1.354335	0.069879
H80	H	-0.069306	-0.942736	0.000118
O81	O	-0.438642	-0.829124	0.000041
H82	H	-0.415407	-0.825545	0.069794
H83	H	-0.796516	-1.234182	0.000084
H84	H	-0.181392	-1.246119	0.000131
H85	H	-0.160781	-0.940955	0.000126
O86	O	-0.543432	-0.827091	0.000020
H87	H	-0.513476	-0.769126	0.000006
H88	H	-0.775885	-0.929034	0.000058
H89	H	-0.684426	-0.930803	0.000042
