data_functionalizedCrystal
_audit_creation_method	'MofGen! by Chris Wilmer'
_symmetry_space_group_name_H-M	'P1'
_symmetry_Int_Tables_number	1
_symmetry_cell_setting	triclinic
loop_
_symmetry_equiv_pos_as_xyz
  x,y,z
_cell_length_a	10.654562
_cell_length_b	18.266242
_cell_length_c	10.654550
_cell_angle_alpha	90.003914
_cell_angle_beta	84.487503
_cell_angle_gamma	90.011751
loop_
_atom_site_label
_atom_site_type_symbol
_atom_site_fract_x
_atom_site_fract_y
_atom_site_fract_z
O1	O	1.667840	0.060927	0.176475
O2	O	1.302364	0.060918	0.193264
O3	O	1.493505	0.060920	0.002130
O4	O	1.476699	0.060925	0.367608
O5	O	1.493472	-0.060842	0.002125
O6	O	1.302331	-0.060844	0.193258
O7	O	1.667807	-0.060835	0.176469
Zn8	Zn	1.485064	-0.080172	0.184863
Zn9	Zn	1.485107	0.080255	0.184870
O10	O	1.476666	-0.060837	0.367602
C11	C	1.255549	0.000036	0.192025
C12	C	1.116107	0.000032	0.188327
C13	C	1.050558	-0.066335	0.186599
C14	C	0.919536	-0.066322	0.183134
C15	C	0.919622	0.066429	0.183131
C16	C	1.050643	0.066416	0.186586
C17	C	1.116022	-0.132719	0.188339
C18	C	1.050473	-0.199091	0.186612
C19	C	0.919451	-0.199079	0.183147
C20	C	0.853978	-0.132694	0.181409
N21	N	1.485043	-0.189659	0.184857
C22	C	1.561865	-0.227958	0.261747
C23	C	1.561885	-0.304603	0.261743
C24	C	1.485062	-0.342946	0.184864
C25	C	1.408235	-0.304637	0.107959
C26	C	1.408226	-0.227993	0.107955
N27	N	1.375030	-0.463301	0.180471
N28	N	1.375042	-0.536109	0.180482
C29	C	1.485087	-0.573868	0.184869
N30	N	1.595120	-0.536068	0.189270
N31	N	1.595106	-0.463254	0.189265
C32	C	1.485064	-0.426053	0.184859
C33	C	1.561937	-0.695275	0.261760
C34	C	1.561960	-0.771921	0.261748
C35	C	1.408299	-0.771953	0.107970
C36	C	1.408287	-0.695308	0.107975
C37	C	1.485104	-0.656974	0.184877
C38	C	1.714621	0.000049	0.177708
C39	C	1.854064	0.000057	0.181406
C40	C	1.492254	0.000040	-0.044671
C41	C	1.488563	0.000042	-0.184114
N42	N	1.485137	0.189742	0.184866
C43	C	1.601103	0.000043	-0.263595
C44	C	1.597627	0.000048	-0.394615
C45	C	1.369059	0.000049	-0.366662
C46	C	1.372537	0.000049	-0.235644
C47	C	1.717129	0.000036	-0.212064
C48	C	1.829680	0.000036	-0.291546
C49	C	1.826203	0.000041	-0.422567
C50	C	1.710176	0.000046	-0.474106
C51	C	1.477916	0.000045	0.414403
C52	C	1.481608	0.000047	0.553847
H53	H	1.222707	-0.132736	0.191164
H54	H	0.866086	-0.253122	0.181731
C55	C	0.847595	0.139447	0.181230
N56	N	0.793343	0.194445	0.179803
C57	C	0.709849	-0.132685	0.177592
N58	N	0.601292	-0.132679	0.174723
H59	H	1.345666	-0.196810	0.045341
H60	H	1.103791	-0.253138	0.188018
H61	H	1.624487	-0.664061	0.324377
H62	H	1.624443	-0.335793	0.324360
H63	H	1.924144	0.000050	-0.249574
H64	H	1.104013	0.120458	0.188000
C65	C	1.646449	-0.814051	0.346363
N66	N	1.710077	-0.845783	0.410108
C67	C	1.323793	-0.814125	0.023400
N68	N	1.260143	-0.845893	-0.040303
C69	C	1.950009	0.000041	-0.509994
N70	N	2.043264	0.000035	-0.575841
H71	H	1.624420	-0.196751	0.324361
H72	H	1.345686	-0.335860	0.045362
C73	C	1.323762	-0.653177	0.023403
N74	N	1.260095	-0.621444	-0.040302
C75	C	1.241438	0.000043	-0.423362
N76	N	1.145312	0.000033	-0.466067
C77	C	1.248736	0.000043	-0.148211
N78	N	1.155486	0.000038	-0.082355
C79	C	1.720964	0.000031	-0.067940
N80	N	1.723851	0.000026	0.040615
C81	C	1.706359	0.000056	-0.618235
N82	N	1.703485	0.000060	-0.726791
