data_functionalizedCrystal
_audit_creation_method	'MofGen! by Chris Wilmer'
_symmetry_space_group_name_H-M	'P1'
_symmetry_Int_Tables_number	1
_symmetry_cell_setting	triclinic
loop_
_symmetry_equiv_pos_as_xyz
  x,y,z
_cell_length_a	12.759401
_cell_length_b	12.759399
_cell_length_c	12.759393
_cell_angle_alpha	90.030906
_cell_angle_beta	90.020566
_cell_angle_gamma	90.013324
loop_
_atom_site_label
_atom_site_type_symbol
_atom_site_fract_x
_atom_site_fract_y
_atom_site_fract_z
Zn1	Zn	-1.606263	0.418266	-0.594007
Zn2	Zn	-1.606153	0.593981	-0.418326
Zn3	Zn	-1.430562	0.418311	-0.418343
Zn4	Zn	-1.430553	0.593898	-0.593964
O5	O	-1.518383	0.506114	-0.506160
O6	O	-1.753270	0.441591	-0.570713
O7	O	-1.582818	0.570732	-0.271307
O8	O	-1.453919	0.271284	-0.441670
O9	O	-1.753189	0.570688	-0.441641
O10	O	-1.583006	0.271251	-0.570730
O11	O	-1.453812	0.441669	-0.271320
O12	O	-1.283540	0.441587	-0.441629
O13	O	-1.453903	0.570546	-0.740991
O14	O	-1.283533	0.570590	-0.570657
O15	O	-1.582997	0.441510	-0.741022
O16	O	-1.582809	0.740991	-0.441599
O17	O	-1.453796	0.740930	-0.570640
C18	C	-1.245415	0.506085	-0.506141
C19	C	-1.128639	0.506098	-0.506157
C20	C	-1.073820	0.438997	-0.573468
C21	C	-0.964096	0.439003	-0.573473
C22	C	-0.964020	0.573222	-0.438854
C23	C	-1.073742	0.573210	-0.438845
C24	C	-1.518318	0.779081	-0.506136
C25	C	-1.518387	0.895858	-0.506161
C26	C	-1.518461	0.506013	-0.780193
C27	C	-1.518495	0.505970	-0.896970
C28	C	-0.792416	0.506134	-0.506176
C29	C	-0.909193	0.506117	-0.506172
C30	C	-1.518476	0.232081	-0.506207
C31	C	-1.518516	0.115304	-0.506227
C32	C	-1.585641	0.950717	-0.439046
C33	C	-1.585708	1.060441	-0.439081
C34	C	-1.451259	1.060437	-0.573349
C35	C	-1.451198	0.950715	-0.573319
C36	C	-1.585719	0.438770	-0.951850
C37	C	-1.585737	0.438725	-1.061574
C38	C	-1.451303	0.573088	-1.061529
C39	C	-1.451281	0.573128	-0.951806
C40	C	-1.518365	0.506139	-0.233192
C41	C	-1.518535	0.505886	-0.116416
H42	H	-0.919467	0.384361	-0.628283
O43	O	-1.127115	0.638450	-0.373602
C44	C	-1.190583	0.706387	-0.433296
H45	H	-1.207057	0.669427	-0.512980
H46	H	-1.267721	0.720403	-0.390473
H47	H	-1.148296	0.784266	-0.444706
O48	O	-1.650888	0.373377	-0.898630
C49	C	-1.627981	0.268657	-0.925481
H50	H	-1.544056	0.263337	-0.955628
H51	H	-1.637035	0.216774	-0.853337
H52	H	-1.684328	0.241178	-0.989187
H53	H	-1.640476	0.384003	-1.106253
O54	O	-1.386102	1.113682	-0.638727
C55	C	-1.408977	1.086750	-0.743451
H56	H	-1.492890	1.056517	-0.748821
H57	H	-1.399941	1.158874	-0.795366
H58	H	-1.352600	1.023084	-0.770849
O59	O	-1.386119	0.638293	-1.114961
C60	C	-1.400535	0.623833	-1.223574
H61	H	-1.481631	0.589431	-1.238579
H62	H	-1.393388	0.702514	-1.265258
H63	H	-1.338245	0.567865	-1.254712
H64	H	-1.640352	0.906055	-0.384363
H65	H	-1.396532	0.627849	-0.907122
H66	H	-1.640474	1.105102	-0.384430
H67	H	-1.118514	0.384347	-0.628275
O68	O	-1.386013	0.897371	-0.638630
C69	C	-1.445763	0.833783	-0.706501
H70	H	-1.528523	0.866782	-0.713070
H71	H	-1.407724	0.832497	-0.787322
H72	H	-1.449356	0.750651	-0.673994
O73	O	-0.910642	0.638529	-0.373628
C74	C	-0.847176	0.706448	-0.433333
H75	H	-0.880281	0.713032	-0.516064
H76	H	-0.845904	0.787257	-0.395194
H77	H	-0.764025	0.673979	-0.437018
