data_functionalizedCrystal
_audit_creation_method	'MofGen! by Chris Wilmer'
_symmetry_space_group_name_H-M	'P1'
_symmetry_Int_Tables_number	1
_symmetry_cell_setting	triclinic
loop_
_symmetry_equiv_pos_as_xyz
  x,y,z
_cell_length_a	26.809956
_cell_length_b	19.188930
_cell_length_c	19.188930
_cell_angle_alpha	83.144779
_cell_angle_beta	89.999211
_cell_angle_gamma	89.977321
loop_
_atom_site_label
_atom_site_type_symbol
_atom_site_fract_x
_atom_site_fract_y
_atom_site_fract_z
O1	O	0.041646	-0.926150	-0.087158
O2	O	0.041612	-0.722839	-0.098892
O3	O	0.041620	-0.830362	0.008631
O4	O	0.041638	-0.818628	-0.194681
O5	O	-0.041339	-0.830342	0.008614
O6	O	-0.041347	-0.722819	-0.098908
O7	O	-0.041314	-0.926130	-0.087174
Zn8	Zn	-0.054502	-0.824471	-0.093044
Zn9	Zn	0.054800	-0.824498	-0.093022
O10	O	-0.041322	-0.818607	-0.194697
C11	C	0.000128	-0.696818	-0.098520
C12	C	0.000115	-0.619313	-0.097380
N13	N	-0.129098	-0.824458	-0.093058
C14	C	0.000139	-0.829972	0.034634
C15	C	0.000134	-0.828831	0.112138
C16	C	-0.473721	-0.872103	-0.045423
C17	C	-0.682598	-0.872119	-0.045412
O18	O	-0.709599	-0.912600	-0.004915
N19	N	-0.708725	-0.824502	-0.093007
C20	C	-0.682629	-0.776873	-0.140604
O21	O	-0.709645	-0.736367	-0.181082
C22	C	-0.473753	-0.776854	-0.140611
C23	C	-0.447628	-0.824480	-0.093018
C24	C	-0.447596	-0.919724	0.002167
C25	C	-0.395380	-0.919722	0.002161
C26	C	-0.369288	-0.872099	-0.045434
C27	C	-0.395412	-0.824478	-0.093024
C28	C	-0.447658	-0.729223	-0.188205
C29	C	-0.395435	-0.729221	-0.188201
C30	C	-0.369311	-0.776847	-0.140608
C31	C	-0.317104	-0.776852	-0.140625
N32	N	-0.290977	-0.824470	-0.093030
C33	C	-0.317069	-0.872093	-0.045435
C34	C	-0.792293	-0.776888	-0.140598
C35	C	-0.844512	-0.776893	-0.140598
C36	C	-0.844477	-0.872139	-0.045404
C37	C	-0.792257	-0.872136	-0.045409
C38	C	-0.766166	-0.824506	-0.093004
C39	C	-0.207411	-0.872086	-0.045451
C40	C	-0.155190	-0.872081	-0.045463
C41	C	-0.155229	-0.776834	-0.140653
C42	C	-0.207446	-0.776840	-0.140644
C43	C	-0.233535	-0.824469	-0.093037
O44	O	-0.290071	-0.736387	-0.181095
O45	O	-0.290045	-0.912583	-0.004954
C46	C	-0.525937	-0.872105	-0.045417
C47	C	-0.552061	-0.824484	-0.093007
C48	C	-0.525969	-0.776861	-0.140602
C49	C	-0.604280	-0.824489	-0.093006
C50	C	-0.630372	-0.872113	-0.045411
C51	C	-0.604245	-0.919730	0.002184
C52	C	-0.552029	-0.919728	0.002178
C53	C	-0.552096	-0.729243	-0.188197
C54	C	-0.604312	-0.729249	-0.188188
C55	C	-0.630404	-0.776873	-0.140592
N56	N	0.129396	-0.824517	-0.093002
C57	C	0.000171	-0.952151	-0.087546
C58	C	0.000188	-1.029656	-0.088687
C59	C	0.000128	-0.574389	-0.160470
C60	C	0.000133	-0.501566	-0.159399
C61	C	0.000136	-0.473669	-0.095233
C62	C	0.000120	-0.518603	-0.032133
C63	C	0.000109	-0.591425	-0.033207
N64	N	0.028386	-0.365696	-0.046180
N65	N	0.028397	-0.296517	-0.045165
C66	C	0.000166	-0.254260	-0.091994
N67	N	-0.028070	-0.283794	-0.139889
N68	N	-0.028079	-0.352979	-0.140906
C69	C	0.000147	-0.394707	-0.094061
C70	C	0.000184	-0.130372	-0.153928
C71	C	0.000187	-0.057547	-0.152853
C72	C	0.000178	-0.074586	-0.025586
C73	C	0.000170	-0.147409	-0.026662
C74	C	0.000176	-0.175298	-0.090835
C75	C	0.000161	-0.818997	-0.220700
C76	C	0.000168	-0.820138	-0.298204
C77	C	0.000142	-0.891922	0.157062
C78	C	0.000150	-0.890850	0.229886
C79	C	0.000140	-0.826684	0.257782
C80	C	0.000135	-0.763585	0.212849
C81	C	0.000132	-0.764658	0.140026
N82	N	-0.028101	-0.777630	0.365782
N83	N	-0.028099	-0.776614	0.434960
C84	C	0.000150	-0.823446	0.477191
N85	N	0.028390	-0.871342	0.447631
N86	N	0.028386	-0.872359	0.378446
C87	C	0.000143	-0.825513	0.336745
C88	C	0.000167	-0.885379	0.601079
C89	C	0.000178	-0.884305	0.673904
C90	C	0.000157	-0.757038	0.656865
C91	C	0.000151	-0.758114	0.584042
C92	C	0.000154	-0.822287	0.556154
H93	H	-0.133921	-0.910866	-0.006707
C94	C	0.000122	-0.693004	0.243532
H95	H	0.000119	-0.701400	0.293337
H96	H	0.029047	-0.667041	0.228098
H97	H	-0.028816	-0.667030	0.228098
H98	H	0.000128	-0.495885	0.020111
C99	C	0.000156	-0.452141	-0.228801
H100	H	0.000162	-0.479180	-0.267173
H101	H	-0.028767	-0.423348	-0.231041
H102	H	0.029096	-0.423410	-0.231010
C103	C	0.000155	-0.960253	0.279311
H104	H	0.000153	-0.998624	0.252272
H105	H	0.029085	-0.962491	0.308075
H106	H	-0.028778	-0.962463	0.308071
H107	H	-0.625498	-0.958510	0.040936
H108	H	0.000134	-0.597091	-0.212725
H109	H	-0.228647	-0.910868	-0.006684
C110	C	0.000119	-0.695256	0.090608
H111	H	0.000111	-0.656885	0.117649
H112	H	0.029045	-0.693036	0.061840
H113	H	-0.028818	-0.693024	0.061853
C114	C	0.000098	-0.640846	0.036194
H115	H	0.000090	-0.688211	0.026364
H116	H	0.029027	-0.632435	0.062522
H117	H	-0.028837	-0.632390	0.062508
H118	H	-0.374194	-0.690433	-0.226958
C119	C	-0.873243	-0.724506	-0.192950
H120	H	-0.850220	-0.696139	-0.221288
H121	H	-0.893608	-0.749523	-0.221958
H122	H	-0.893619	-0.695521	-0.167896
H123	H	0.000162	-0.183988	0.024713
H124	H	0.000187	-0.935683	0.710481
H125	H	0.000182	-0.153080	-0.206181
C126	C	0.000201	-0.008130	-0.222257
H127	H	0.000208	-0.035172	-0.260626
H128	H	-0.028725	0.020656	-0.224494
H129	H	0.029139	0.020607	-0.224472
H130	H	-0.228716	-0.738066	-0.179406
H131	H	-0.770990	-0.910916	-0.006654
H132	H	0.000210	-0.051874	0.026659
H133	H	0.000171	-0.937632	0.578372
C134	C	-0.873182	-0.924522	0.006954
H135	H	-0.850148	-0.952886	0.035301
H136	H	-0.893561	-0.899492	0.035950
H137	H	-0.893543	-0.953511	-0.018094
H138	H	0.000151	-0.704792	0.679578
C139	C	0.000134	-0.688713	0.534624
H140	H	0.000125	-0.650343	0.561666
H141	H	0.029061	-0.686491	0.505857
H142	H	-0.028802	-0.686483	0.505867
C143	C	0.000154	-0.962509	0.126388
H144	H	0.000165	-0.999930	0.163578
H145	H	-0.028775	-0.965569	0.098333
H146	H	0.029089	-0.965578	0.098337
C147	C	-0.763599	-0.724497	-0.192962
H148	H	-0.786642	-0.696147	-0.221308
H149	H	-0.743237	-0.695504	-0.167926
H150	H	-0.743222	-0.749524	-0.221970
H151	H	-0.468836	-0.958505	0.040928
C152	C	-0.366650	-0.972102	0.054522
H153	H	-0.389674	-1.000456	0.082870
H154	H	-0.346268	-1.001091	0.029486
H155	H	-0.346290	-0.947070	0.083528
H156	H	-0.468921	-0.690442	-0.226959
H157	H	-0.133977	-0.738061	-0.179407
H158	H	-0.530762	-0.958509	0.040933
H159	H	-0.625579	-0.690468	-0.226950
H160	H	-0.530856	-0.690461	-0.226954
