data_functionalizedCrystal
_audit_creation_method	'MofGen! by Chris Wilmer'
_symmetry_space_group_name_H-M	'P1'
_symmetry_Int_Tables_number	1
_symmetry_cell_setting	triclinic
loop_
_symmetry_equiv_pos_as_xyz
  x,y,z
_cell_length_a	12.759401
_cell_length_b	29.839131
_cell_length_c	29.839125
_cell_angle_alpha	89.982291
_cell_angle_beta	89.989553
_cell_angle_gamma	90.042945
loop_
_atom_site_label
_atom_site_type_symbol
_atom_site_fract_x
_atom_site_fract_y
_atom_site_fract_z
Zn1	Zn	1.605962	-0.178898	-0.253987
Zn2	Zn	1.605804	-0.254010	-0.178857
Zn3	Zn	1.430293	-0.178897	-0.178871
Zn4	Zn	1.430171	-0.254004	-0.253960
O5	O	1.518058	-0.216452	-0.216419
O6	O	1.752962	-0.188865	-0.244026
O7	O	1.582507	-0.244048	-0.115992
O8	O	1.453714	-0.116030	-0.188853
O9	O	1.752846	-0.244049	-0.188828
O10	O	1.582777	-0.116031	-0.244040
O11	O	1.453560	-0.188863	-0.116002
O12	O	1.283256	-0.188857	-0.188827
O13	O	1.453505	-0.244039	-0.316831
O14	O	1.283166	-0.244038	-0.243995
O15	O	1.582659	-0.188859	-0.316850
O16	O	1.582388	-0.316876	-0.188802
O17	O	1.453352	-0.316872	-0.243980
C18	C	1.245090	-0.216447	-0.216410
C19	C	1.128314	-0.216455	-0.216417
C20	C	1.517868	-0.333175	-0.216397
C21	C	1.517883	-0.383109	-0.216402
C22	C	1.073432	-0.245231	-0.245097
C23	C	0.963708	-0.245233	-0.245106
C24	C	0.963756	-0.187681	-0.187750
C25	C	1.073479	-0.187677	-0.187744
C26	C	1.585369	-0.692742	-0.187730
C27	C	1.585499	-0.880415	-0.187747
O28	O	1.642728	-0.904672	-0.163351
N29	N	1.518276	-0.903894	-0.216453
C30	C	1.451020	-0.880452	-0.245158
O31	O	1.393853	-0.904728	-0.269578
C32	C	1.450896	-0.692780	-0.245143
C33	C	1.518116	-0.669303	-0.216432
C34	C	1.652585	-0.669266	-0.159021
C35	C	1.652548	-0.622350	-0.159016
C36	C	1.585295	-0.598911	-0.187718
C37	C	1.518079	-0.622388	-0.216426
C38	C	1.383647	-0.669338	-0.273850
C39	C	1.383624	-0.622417	-0.273845
C40	C	1.450844	-0.598941	-0.245134
C41	C	1.450789	-0.552033	-0.245123
N42	N	1.518013	-0.528555	-0.216417
C43	C	1.585265	-0.551994	-0.187715
C44	C	1.451088	-0.978983	-0.245164
C45	C	1.451117	-1.025900	-0.245167
C46	C	1.585598	-1.025861	-0.187756
C47	C	1.585563	-0.978942	-0.187751
C48	C	1.518311	-0.955504	-0.216458
C49	C	1.585182	-0.453468	-0.187704
C50	C	1.585136	-0.406548	-0.187700
C51	C	1.450659	-0.406592	-0.245112
C52	C	1.450701	-0.453508	-0.245115
C53	C	1.517971	-0.476944	-0.216410
O54	O	1.393599	-0.527748	-0.269509
O55	O	1.642440	-0.527709	-0.163306
C56	C	1.585406	-0.739658	-0.187735
C57	C	1.518191	-0.763134	-0.216443
C58	C	1.450938	-0.739695	-0.245146
C59	C	1.518220	-0.810052	-0.216447
C60	C	1.585473	-0.833491	-0.187745
C61	C	1.652696	-0.810012	-0.159039
C62	C	1.652659	-0.763097	-0.159033
C63	C	1.383715	-0.763174	-0.273852
C64	C	1.383757	-0.810090	-0.273855
C65	C	1.451009	-0.833529	-0.245152
C66	C	1.792091	-0.216458	-0.216428
C67	C	1.908868	-0.216461	-0.216432
C68	C	1.518086	-0.216448	-0.333597
C69	C	1.518098	-0.216446	-0.383532
C70	C	1.518277	-0.099274	-0.216451
C71	C	1.518370	-0.049339	-0.216465
C72	C	1.585419	-0.187639	-0.693188
C73	C	1.585471	-0.187601	-0.880861
O74	O	1.642631	-0.163150	-0.905137
N75	N	1.518238	-0.216326	-0.904317
C76	C	1.450981	-0.245061	-0.880851
O77	O	1.393789	-0.269490	-0.905108
C78	C	1.450925	-0.245097	-0.693179
C79	C	1.518170	-0.216373	-0.669726
C80	C	1.652658	-0.158917	-0.669735
C81	C	1.652648	-0.158929	-0.622820
C82	C	1.585400	-0.187662	-0.599357
C83	C	1.518160	-0.216384	-0.622810
C84	C	1.383664	-0.273829	-0.669714
C85	C	1.383654	-0.273835	-0.622793
C86	C	1.450899	-0.245111	-0.599340
C87	C	1.450902	-0.245130	-0.552433
N88	N	1.518136	-0.216404	-0.528977
C89	C	1.585384	-0.187671	-0.552440
C90	C	1.451017	-0.245041	-0.979382
C91	C	1.451033	-0.245033	-1.026300
C92	C	1.585521	-0.187572	-1.026307
C93	C	1.585510	-0.187582	-0.979388
C94	C	1.518251	-0.216316	-0.955926
C95	C	1.585360	-0.187697	-0.453914
C96	C	1.585347	-0.187713	-0.406994
C97	C	1.450855	-0.245172	-0.406991
C98	C	1.450871	-0.245158	-0.453907
C99	C	1.518127	-0.216417	-0.477367
O100	O	1.393763	-0.269564	-0.528128
O101	O	1.642552	-0.163239	-0.528175
C102	C	1.585429	-0.187627	-0.740104
C103	C	1.518190	-0.216350	-0.763557
C104	C	1.450941	-0.245083	-0.740095
C105	C	1.518205	-0.216341	-0.810475
C106	C	1.585454	-0.187608	-0.833937
C107	C	1.652687	-0.158882	-0.810482
C108	C	1.652677	-0.158894	-0.763566
C109	C	1.383707	-0.273809	-0.763550
C110	C	1.383723	-0.273795	-0.810466
C111	C	1.450972	-0.245061	-0.833928
C112	C	1.518090	-0.216424	-0.099696
C113	C	1.518281	-0.216299	-0.049762
H114	H	1.118076	-0.268663	-0.268446
N115	N	0.907652	-0.274637	-0.274394
N116	N	0.846373	-0.303243	-0.258536
H117	H	0.806783	-0.324011	-0.279221
N118	N	1.129562	-0.158288	-0.158445
N119	N	1.227527	-0.158290	-0.158444
H120	H	1.267138	-0.137534	-0.137754
N121	N	1.382326	-0.274400	-0.955419
N122	N	1.419225	-0.303035	-0.929237
H123	H	1.370714	-0.323771	-0.912313
N124	N	1.721300	-0.693197	-0.129699
N125	N	1.781305	-0.672221	-0.104073
H126	H	1.829836	-0.689119	-0.083360
H127	H	1.396286	-0.268428	-1.045391
H128	H	1.329009	-0.829200	-0.297234
H129	H	1.707287	-0.603239	-0.135638
N130	N	1.721381	-0.129537	-0.834460
N131	N	1.721371	-0.129536	-0.876350
H132	H	1.769880	-0.108811	-0.893288
N133	N	0.907741	-0.158283	-0.158467
N134	N	0.846572	-0.129682	-0.174330
H135	H	0.807012	-0.108919	-0.153648
H136	H	1.396106	-0.268568	-0.387880
N137	N	1.653804	-0.382575	-0.158366
N138	N	1.713845	-0.403512	-0.132741
H139	H	1.762341	-0.386583	-0.112025
H140	H	1.328951	-0.744094	-0.297225
H141	H	1.639961	-0.472544	-0.164331
N142	N	1.654230	-0.954970	-0.158420
N143	N	1.714263	-0.975909	-0.132794
H144	H	1.762764	-0.958982	-0.112078
N145	N	1.654285	-1.049814	-0.158438
N146	N	1.654294	-1.091705	-0.158449
H147	H	1.702805	-1.108625	-0.137746
H148	H	1.640110	-0.164322	-0.387901
H149	H	1.707435	-0.135504	-0.744475
N150	N	1.382430	-1.049871	-0.274490
N151	N	1.322391	-1.028932	-0.300113
H152	H	1.273880	-1.045859	-0.320825
N153	N	1.382382	-0.955052	-0.274493
N154	N	1.322372	-0.976026	-0.300118
H155	H	1.273844	-0.959127	-0.320831
N156	N	1.314974	-0.693304	-0.303181
N157	N	1.254945	-0.672362	-0.328806
H158	H	1.206442	-0.689287	-0.349523
N159	N	1.314925	-0.598484	-0.303175
N160	N	1.254921	-0.619454	-0.328806
H161	H	1.206402	-0.602552	-0.349520
N162	N	1.382015	-0.477484	-0.274437
N163	N	1.321965	-0.456548	-0.300058
H164	H	1.273457	-0.473478	-0.320769
H165	H	1.395900	-0.387501	-0.268480
N166	N	1.315031	-0.303145	-0.834412
N167	N	1.254995	-0.328796	-0.813452
H168	H	1.206477	-0.349523	-0.830363
N169	N	1.721327	-0.739127	-0.129701
N170	N	1.781363	-0.760068	-0.104078
H171	H	1.829865	-0.743142	-0.083361
N172	N	1.654059	-0.158334	-0.477866
N173	N	1.714082	-0.132693	-0.456913
H174	H	1.762605	-0.111956	-0.473828
H175	H	1.707453	-0.829104	-0.135667
H176	H	1.707405	-0.135538	-0.603728
N177	N	1.721359	-0.129559	-0.693690
N178	N	1.781380	-0.103918	-0.672735
H179	H	1.829910	-0.083183	-0.689649
N180	N	1.315000	-0.303162	-0.739595
N181	N	1.254978	-0.328805	-0.760548
H182	H	1.206452	-0.349539	-0.743631
N183	N	1.654207	-0.158239	-0.955440
N184	N	1.714246	-0.132590	-0.976400
H185	H	1.762765	-0.111864	-0.959490
H186	H	1.640279	-0.164176	-1.045418
N187	N	1.314961	-0.303175	-0.693652
N188	N	1.218023	-0.300194	-0.688400
H189	H	1.169497	-0.320923	-0.705303
N190	N	1.314934	-0.303186	-0.598836
N191	N	1.254902	-0.328826	-0.619785
H192	H	1.206369	-0.349556	-0.602866
H193	H	1.396124	-0.268552	-0.473003
