data_functionalizedCrystal
_audit_creation_method	'MofGen! by Chris Wilmer'
_symmetry_space_group_name_H-M	'P1'
_symmetry_Int_Tables_number	1
_symmetry_cell_setting	triclinic
loop_
_symmetry_equiv_pos_as_xyz
  x,y,z
_cell_length_a	15.944564
_cell_length_b	15.944480
_cell_length_c	14.586319
_cell_angle_alpha	89.996782
_cell_angle_beta	89.994473
_cell_angle_gamma	83.486891
loop_
_atom_site_label
_atom_site_type_symbol
_atom_site_fract_x
_atom_site_fract_y
_atom_site_fract_z
O1	O	-0.108048	-1.114566	0.076223
O2	O	-0.121466	-0.870009	0.076230
O3	O	0.007519	-0.998960	0.076217
O4	O	-0.237033	-0.985614	0.076235
O5	O	0.007522	-0.998950	-0.076263
O6	O	-0.121463	-0.869998	-0.076251
O7	O	-0.108045	-1.114555	-0.076258
Cu8	Cu	-0.114754	-0.992276	-0.090177
Cu9	Cu	-0.114758	-0.992288	0.090149
O10	O	-0.237030	-0.985604	-0.076246
C11	C	-0.120918	-0.838708	-0.000010
C12	C	-0.119280	-0.745459	-0.000008
C13	C	0.038814	-0.998399	-0.000023
C14	C	0.132059	-0.996732	-0.000024
C15	C	-0.195210	-0.509701	-0.000000
C16	C	-0.154271	-0.459136	-0.075188
C17	C	-0.116243	-0.574737	-0.000009
C18	C	-0.154255	-0.459150	0.075146
C19	C	-0.113316	-0.409826	-0.000006
C20	C	-0.075325	-0.525400	-0.075258
C21	C	-0.075321	-0.525418	0.075143
C22	C	-0.034323	-0.474885	-0.000063
C23	C	-0.117932	-0.669737	-0.000011
C24	C	-0.111622	-0.314828	-0.000010
C25	C	0.346893	-0.912815	-0.000010
C26	C	0.407921	-0.951771	-0.075194
C27	C	0.302783	-0.993717	-0.000018
C28	C	0.407902	-0.951800	0.075140
C29	C	0.467694	-0.990799	-0.000008
C30	C	0.362583	-1.032695	-0.075263
C31	C	0.362557	-1.032713	0.075138
C32	C	0.423568	-1.071728	-0.000064
C33	C	0.207782	-0.995396	-0.000024
C34	C	0.562694	-0.989126	-0.000008
C35	C	0.731673	-0.986154	-0.000004
C36	C	0.638424	-0.987786	-0.000000
N37	N	-0.114751	-0.992273	-0.217009
C38	C	-0.108605	-0.145854	-0.000014
C39	C	-0.110277	-0.239099	-0.000005
C40	C	-0.057655	-1.049395	-0.548008
C41	C	-0.057655	-1.049393	-0.452027
C42	C	-0.171856	-0.935173	-0.452027
C43	C	-0.171859	-0.935179	-0.548006
C44	C	-0.114754	-0.992290	-0.595994
C45	C	-0.114751	-0.992281	-0.404034
C46	C	-0.114752	-0.992278	-0.299967
C47	C	-0.114754	-0.992294	-0.700068
N48	N	-0.114754	-0.992297	0.216981
H49	H	-0.263229	-0.525328	-0.000066
H50	H	-0.011162	-1.095895	-0.412959
O51	O	-0.233468	-0.873606	-0.599774
H52	H	-0.273175	-0.833892	-0.550282
O53	O	-0.233423	-0.873553	-0.400270
H54	H	-0.223818	-0.883128	-0.325467
O55	O	0.335946	-1.078010	0.159353
H56	H	0.367917	-1.143578	0.159910
H57	H	0.313568	-0.845666	-0.000083
H58	H	0.342603	-1.066880	-0.138895
O59	O	-0.198434	-0.420797	-0.159383
H60	H	-0.252191	-0.374474	-0.138206
H61	H	0.033747	-0.459416	-0.000111
O62	O	-0.031186	-0.563564	-0.159554
H63	H	-0.032802	-0.632973	-0.158913
O64	O	-0.031180	-0.563775	0.159335
H65	H	-0.076005	-0.597202	0.199940
O66	O	-0.198440	-0.420830	0.159342
H67	H	-0.265170	-0.434484	0.159182
H68	H	0.428022	-0.917548	-0.138754
H69	H	0.456743	-1.138936	-0.000108
H70	H	-0.011158	-1.095899	-0.587078
H71	H	0.427968	-0.917576	0.138706
