data_functionalizedCrystal
_audit_creation_method	'MofGen! by Chris Wilmer'
_symmetry_space_group_name_H-M	'P1'
_symmetry_Int_Tables_number	1
_symmetry_cell_setting	triclinic
loop_
_symmetry_equiv_pos_as_xyz
  x,y,z
_cell_length_a	27.731993
_cell_length_b	27.732048
_cell_length_c	26.809956
_cell_angle_alpha	90.000636
_cell_angle_beta	90.002784
_cell_angle_gamma	97.368475
loop_
_atom_site_label
_atom_site_type_symbol
_atom_site_fract_x
_atom_site_fract_y
_atom_site_fract_z
O1	O	0.640948	-0.057385	-0.041351
O2	O	1.140948	0.442615	0.458649
O3	O	0.500151	-0.066158	-0.041382
O4	O	1.000151	0.433842	0.458618
O5	O	0.574923	0.008626	-0.041356
O6	O	1.074923	0.508626	0.458644
O7	O	0.566177	-0.132169	-0.041377
O8	O	1.066177	0.367831	0.458623
O9	O	0.574908	0.008615	0.041603
O10	O	1.074908	0.508615	0.541603
O11	O	0.500137	-0.066169	0.041577
O12	O	1.000137	0.433831	0.541577
O13	O	0.640934	-0.057396	0.041609
O14	O	1.140934	0.442604	0.541609
Zn15	Zn	0.570533	-0.061784	0.054764
Zn16	Zn	1.070533	0.438216	0.554764
Zn17	Zn	0.570552	-0.061769	-0.054538
Zn18	Zn	1.070552	0.438231	0.445462
O19	O	0.566163	-0.132180	0.041582
O20	O	1.066163	0.367820	0.541582
C21	C	0.482137	-0.065983	0.000094
C22	C	0.982137	0.434017	0.500094
C23	C	0.428480	-0.065441	0.000082
C24	C	0.928480	0.434559	0.500082
C25	C	0.045328	-0.061504	-0.045114
C26	C	0.545328	0.438496	0.454886
C27	C	0.246985	-0.063571	-0.045128
C28	C	0.746985	0.436429	0.454872
O29	O	0.273065	-0.063814	-0.083588
O30	O	0.773065	0.436186	0.416412
N31	N	0.272198	-0.063836	0.000092
N32	N	0.772198	0.436164	0.500092
C33	C	0.246993	-0.063581	0.045319
C34	C	0.746993	0.436419	0.545319
O35	O	0.273066	-0.063849	0.083781
O36	O	0.773066	0.436151	0.583781
C37	C	0.045337	-0.061510	0.045332
C38	C	0.545337	0.438490	0.545332
C39	C	0.020127	-0.061251	0.000109
C40	C	0.520127	0.438749	0.500109
C41	C	0.020117	-0.061244	-0.090333
C42	C	0.520117	0.438756	0.409667
C43	C	-0.030295	-0.060730	-0.090329
C44	C	0.469705	0.439270	0.409671
C45	C	-0.055496	-0.060476	-0.045106
C46	C	0.444504	0.439524	0.454894
C47	C	-0.030285	-0.060736	0.000113
C48	C	0.469715	0.439264	0.500113
C49	C	0.020134	-0.061252	0.090558
C50	C	0.520134	0.438748	0.590558
C51	C	-0.030283	-0.060733	0.090558
C52	C	0.469717	0.439267	0.590558
C53	C	-0.055493	-0.060473	0.045335
C54	C	0.444507	0.439527	0.545335
C55	C	-0.105898	-0.059969	0.045340
C56	C	0.394102	0.440031	0.545340
N57	N	-0.131110	-0.059704	0.000120
N58	N	0.368890	0.440296	0.500120
C59	C	-0.105909	-0.059958	-0.045103
C60	C	0.394091	0.440042	0.454897
C61	C	0.352866	-0.064669	0.045309
C62	C	0.852866	0.435331	0.545309
C63	C	0.403279	-0.065187	0.045306
C64	C	0.903279	0.434813	0.545306
C65	C	0.403268	-0.065177	-0.045141
C66	C	0.903268	0.434823	0.454859
C67	C	0.352853	-0.064662	-0.045138
C68	C	0.852853	0.435338	0.454862
C69	C	0.327653	-0.064404	0.000089
C70	C	0.827653	0.435596	0.500089
C71	C	-0.211777	-0.058878	-0.045091
C72	C	0.288223	0.441122	0.454909
C73	C	-0.262194	-0.058366	-0.045083
C74	C	0.237806	0.441634	0.454917
C75	C	-0.262178	-0.058374	0.045363
C76	C	0.237822	0.441626	0.545363
C77	C	-0.211766	-0.058889	0.045356
C78	C	0.288234	0.441111	0.545356
C79	C	-0.186567	-0.059139	0.000124
C80	C	0.313433	0.440861	0.500124
O81	O	-0.132008	-0.059720	0.083780
O82	O	0.367992	0.440280	0.583780
O83	O	-0.131989	-0.059679	-0.083559
O84	O	0.368011	0.440321	0.416441
C85	C	0.095740	-0.062018	-0.045118
C86	C	0.595740	0.437982	0.454882
C87	C	0.120950	-0.062279	0.000101
C88	C	0.620950	0.437721	0.500101
C89	C	0.095749	-0.062025	0.045325
C90	C	0.595749	0.437975	0.545325
C91	C	0.171364	-0.062797	0.000098
C92	C	0.671364	0.437203	0.500098
C93	C	0.196565	-0.063051	-0.045125
C94	C	0.696565	0.436949	0.454875
C95	C	0.171352	-0.062786	-0.090345
C96	C	0.671352	0.437214	0.409655
C97	C	0.120941	-0.062272	-0.090341
C98	C	0.620941	0.437728	0.409659
C99	C	0.120962	-0.062290	0.090545
C100	C	0.620962	0.437710	0.590545
C101	C	0.171373	-0.062805	0.090537
C102	C	0.671373	0.437195	0.590537
C103	C	0.196574	-0.063058	0.045314
C104	C	0.696574	0.436942	0.545314
C105	C	0.574732	0.026628	0.000125
C106	C	1.074732	0.526628	0.500125
C107	C	0.574179	0.080282	0.000129
C108	C	1.074179	0.580282	0.500129
C109	C	0.658949	-0.057570	0.000132
C110	C	1.158949	0.442430	0.500132
C111	C	0.712605	-0.058113	0.000140
C112	C	1.212605	0.441887	0.500140
C113	C	0.566353	-0.150181	0.000100
C114	C	1.066353	0.349819	0.500100
C115	C	0.566906	-0.203836	0.000093
C116	C	1.066906	0.296164	0.500093
N117	N	0.570524	-0.061794	0.129360
N118	N	1.070524	0.438206	0.629360
C119	C	0.614884	0.419105	0.000113
C120	C	1.114884	0.919105	0.500113
C121	C	0.612833	0.620765	0.000105
C122	C	1.112833	1.120765	0.500105
O123	O	0.650055	0.652028	0.000092
O124	O	1.150055	1.152028	0.500092
N125	N	0.568497	0.639880	0.000096
N126	N	1.068497	1.139880	0.500096
C127	C	0.524670	0.608576	0.000085
C128	C	1.024670	1.108576	0.500085
O129	O	0.486912	0.629462	0.000072
O130	O	0.986912	1.129462	0.500072
C131	C	0.526721	0.406918	0.000089
C132	C	1.026721	0.906918	0.500089
C133	C	0.571061	0.387806	0.000103
C134	C	1.071061	0.887806	0.500103
C135	C	0.659220	0.399993	0.000126
C136	C	1.159220	0.899993	0.500126
C137	C	0.659732	0.349581	0.000131
C138	C	1.159732	0.849581	0.500131
C139	C	0.615909	0.318282	0.000122
C140	C	1.115909	0.818282	0.500122
C141	C	0.571573	0.337394	0.000108
C142	C	1.071573	0.837394	0.500108
C143	C	0.482895	0.375616	0.000074
C144	C	0.982895	0.875616	0.500074
C145	C	0.483412	0.325199	0.000074
C146	C	0.983412	0.825199	0.500074
C147	C	0.527751	0.306087	0.000089
C148	C	1.027751	0.806087	0.500089
C149	C	0.528262	0.255683	0.000103
C150	C	1.028262	0.755683	0.500103
N151	N	0.572598	0.236568	0.000112
N152	N	1.072598	0.736568	0.500112
C153	C	0.616422	0.267867	0.000122
C154	C	1.116422	0.767867	0.500122
C155	C	0.523596	0.714450	0.000084
C156	C	1.023596	1.214450	0.500084
C157	C	0.523083	0.764865	0.000084
C158	C	1.023083	1.264865	0.500084
C159	C	0.611246	0.777049	0.000103
C160	C	1.111246	1.277049	0.500103
C161	C	0.611759	0.726634	0.000107
C162	C	1.111759	1.226634	0.500107
C163	C	0.567932	0.695335	0.000093
C164	C	1.067932	1.195335	0.500093
C165	C	0.617494	0.161998	0.000132
C166	C	1.117494	0.661998	0.500132
C167	C	0.618003	0.111582	0.000138
C168	C	1.118003	0.611582	0.500138
C169	C	0.529839	0.099401	0.000117
C170	C	1.029839	0.599401	0.500117
C171	C	0.529331	0.149814	0.000113
C172	C	1.029331	0.649814	0.500113
C173	C	0.573162	0.181112	0.000118
C174	C	1.073162	0.681112	0.500118
O175	O	0.491060	0.224392	0.000111
O176	O	0.991060	0.724392	0.500111
O177	O	0.654174	0.246972	0.000124
O178	O	1.154174	0.746972	0.500124
C179	C	0.614372	0.469517	0.000108
C180	C	1.114372	0.969517	0.500108
C181	C	0.570036	0.488630	0.000094
C182	C	1.070036	0.988630	0.500094
C183	C	0.526213	0.457331	0.000085
C184	C	1.026213	0.957331	0.500085
C185	C	0.569523	0.539044	0.000094
C186	C	1.069523	1.039044	0.500094
C187	C	0.613346	0.570343	0.000103
C188	C	1.113346	1.070343	0.500103
C189	C	0.657683	0.551228	0.000113
C190	C	1.157683	1.051228	0.500113
C191	C	0.658195	0.500817	0.000117
C192	C	1.158195	1.000817	0.500117
C193	C	0.481876	0.476446	0.000075
C194	C	0.981876	0.976446	0.500075
C195	C	0.481368	0.526858	0.000071
C196	C	0.981368	1.026858	0.500071
C197	C	0.525191	0.558157	0.000081
C198	C	1.025191	1.058157	0.500081
N199	N	0.570565	-0.061756	-0.129134
N200	N	1.070565	0.438244	0.370866
C201	C	0.603656	-0.028663	0.473998
C202	C	1.103656	0.471337	0.973998
C203	C	0.603668	-0.028656	0.682876
C204	C	1.103668	0.471344	1.182876
O205	O	0.631819	-0.000489	0.709889
O206	O	1.131819	0.499511	1.209889
N207	N	0.570555	-0.061759	0.708988
N208	N	1.070555	0.438241	1.208988
C209	C	0.537434	-0.094864	0.682877
C210	C	1.037434	0.405136	1.182877
O211	O	0.509266	-0.123016	0.709879
O212	O	1.009266	0.376984	1.209879
C213	C	0.537421	-0.094869	0.474000
C214	C	1.037421	0.405131	0.974000
C215	C	0.570539	-0.061767	0.447891
C216	C	1.070539	0.438233	0.947891
C217	C	0.636772	0.004437	0.447889
C218	C	1.136772	0.504437	0.947889
C219	C	0.636771	0.004433	0.395673
C220	C	1.136771	0.504433	0.895673
C221	C	0.603654	-0.028671	0.369565
C222	C	1.103654	0.471329	0.869565
C223	C	0.570538	-0.061771	0.395675
C224	C	1.070538	0.438229	0.895675
C225	C	0.504298	-0.127971	0.447890
C226	C	1.004298	0.372029	0.947890
C227	C	0.504297	-0.127968	0.395668
C228	C	1.004297	0.372032	0.895668
C229	C	0.537415	-0.094867	0.369559
C230	C	1.037415	0.405133	0.869559
C231	C	0.537419	-0.094878	0.317351
C232	C	1.037419	0.405122	0.817351
N233	N	0.570533	-0.061775	0.291239
N234	N	1.070533	0.438225	0.791239
C235	C	0.603650	-0.028671	0.317347
C236	C	1.103650	0.471329	0.817347
C237	C	0.537444	-0.094860	0.792540
C238	C	1.037444	0.405140	1.292540
C239	C	0.537448	-0.094859	0.844759
C240	C	1.037448	0.405141	1.344759
C241	C	0.603681	-0.028650	0.844754
C242	C	1.103681	0.471350	1.344754
C243	C	0.603679	-0.028653	0.792534
C244	C	1.103679	0.471347	1.292534
C245	C	0.570557	-0.061757	0.766428
C246	C	1.070557	0.438243	1.266428
C247	C	0.603644	-0.028683	0.207689
C248	C	1.103644	0.471317	0.707689
C249	C	0.603641	-0.028691	0.155468
C250	C	1.103641	0.471309	0.655468
C251	C	0.537406	-0.094898	0.155477
C252	C	1.037406	0.405102	0.655477
C253	C	0.537411	-0.094891	0.207693
C254	C	1.037411	0.405109	0.707693
C255	C	0.570532	-0.061780	0.233798
C256	C	1.070532	0.438220	0.733798
O257	O	0.509280	-0.123026	0.290305
O258	O	1.009280	0.376974	0.790305
O259	O	0.631806	-0.000516	0.290335
O260	O	1.131806	0.499484	0.790335
C261	C	0.603658	-0.028659	0.526214
C262	C	1.103658	0.471341	1.026214
C263	C	0.570542	-0.061759	0.552324
C264	C	1.070542	0.438241	1.052324
C265	C	0.537425	-0.094862	0.526216
C266	C	1.037425	0.405138	1.026216
C267	C	0.570546	-0.061758	0.604542
C268	C	1.070546	0.438242	1.104542
C269	C	0.603663	-0.028655	0.630650
C270	C	1.103663	0.471345	1.130650
C271	C	0.636777	0.004448	0.604538
C272	C	1.136777	0.504448	1.104538
C273	C	0.636775	0.004444	0.552322
C274	C	1.136775	0.504444	1.052322
C275	C	0.504312	-0.127965	0.552328
C276	C	1.004312	0.372035	1.052328
C277	C	0.504316	-0.127959	0.604545
C278	C	1.004316	0.372041	1.104545
C279	C	0.537433	-0.094855	0.630652
C280	C	1.037433	0.405145	1.130652
H281	H	0.423795	-0.065385	-0.081964
H282	H	0.923795	0.434615	0.418036
O283	O	-0.184569	-0.059174	0.094129
O284	O	0.315431	0.440826	0.594129
H285	H	-0.189685	-0.026117	0.115816
H286	H	0.310315	0.473883	0.615816
H287	H	0.191895	-0.063020	0.127366
H288	H	0.691895	0.436980	0.627366
H289	H	0.630647	-0.001697	0.866020
H290	H	1.130647	0.498303	1.366020
O291	O	0.468595	-0.163674	0.632694
O292	O	0.968595	0.336326	1.132694
H293	H	0.445251	-0.143497	0.656486
H294	H	0.945251	0.356503	1.156486
H295	H	0.510444	-0.121852	0.134212
H296	H	1.010444	0.378148	0.634212
O297	O	0.047322	-0.061532	0.139333
O298	O	0.547322	0.438468	0.639333
H299	H	0.065728	-0.094729	0.141495
H300	H	0.565728	0.405271	0.641495
O301	O	0.664770	0.195749	0.000146
O302	O	1.164770	0.695749	0.500146
H303	H	0.666663	0.219007	-0.033668
H304	H	1.166663	0.719007	0.466332
H305	H	0.100448	-0.062081	0.127372
H306	H	0.600448	0.437919	0.627372
H307	H	0.654110	0.096024	0.000151
H308	H	1.154110	0.596024	0.500151
H309	H	-0.191266	-0.059083	-0.081923
H310	H	0.308734	0.440917	0.418077
O311	O	0.707555	0.328969	0.000132
O312	O	1.207555	0.828969	0.500132
H313	H	0.737938	0.359210	0.000130
H314	H	1.237938	0.859210	0.500130
H315	H	0.694908	0.425472	0.000132
H316	H	1.194908	0.925472	0.500132
H317	H	0.447722	0.299717	0.000062
H318	H	0.947722	0.799717	0.500062
O319	O	0.639361	0.007021	0.127311
O320	O	1.139361	0.507021	0.627311
H321	H	0.619185	0.030367	0.103519
H322	H	1.119185	0.530367	0.603519
H323	H	0.477329	-0.154925	0.469141
H324	H	0.977329	0.345075	0.969141
H325	H	-0.050798	-0.060527	0.127387
H326	H	0.449202	0.439473	0.627387
O327	O	0.198543	-0.063052	-0.139121
O328	O	0.698543	0.436948	0.360879
H329	H	0.216960	-0.096241	-0.141289
H330	H	0.716960	0.403759	0.358711
O331	O	0.468563	-0.163668	0.367513
O332	O	0.968563	0.336332	0.867513
H333	H	0.474117	-0.158107	0.326815
H334	H	0.974117	0.341893	0.826815
H335	H	-0.050816	-0.060516	-0.127155
H336	H	0.449184	0.439484	0.372845
O337	O	0.325661	-0.064446	0.094080
O338	O	0.825661	0.435554	0.594080
H339	H	0.307230	-0.031267	0.096280
H340	H	0.807230	0.468733	0.596280
O341	O	0.325669	-0.064367	-0.093916
O342	O	0.825669	0.435633	0.406084
H343	H	0.330787	-0.097419	-0.115611
H344	H	0.830787	0.402581	0.384389
H345	H	0.510447	-0.121851	0.228952
H346	H	1.010447	0.378149	0.728952
H347	H	0.663740	0.031396	0.469141
H348	H	1.163740	0.531396	0.969141
O349	O	-0.289377	-0.058080	-0.093866
O350	O	0.210623	0.441920	0.406134
H351	H	-0.316901	-0.090806	-0.096043
H352	H	0.183099	0.409194	0.403957
H353	H	0.510484	-0.121819	0.866013
H354	H	1.010484	0.378181	1.366013
H355	H	0.423800	-0.065407	0.082131
H356	H	0.923800	0.434593	0.582131
H357	H	0.477343	-0.154922	0.531076
H358	H	0.977343	0.345078	1.031076
H359	H	0.663744	0.031401	0.625803
H360	H	1.163744	0.531401	1.125803
H361	H	-0.282706	-0.058170	0.082183
H362	H	0.217294	0.441830	0.582183
O363	O	0.672491	0.040152	0.524163
O364	O	1.172491	0.540152	1.024163
H365	H	0.695513	0.063172	0.551097
H366	H	1.195513	0.563172	1.051097
H367	H	0.647864	0.711077	0.000118
H368	H	1.147864	1.211077	0.500118
H369	H	0.630614	-0.001719	0.228937
H370	H	1.130614	0.498281	0.728937
O371	O	0.435070	0.396219	0.000059
O372	O	0.935070	0.896219	0.500059
H373	H	0.432733	0.418898	-0.033754
H374	H	0.932733	0.918898	0.466246
H375	H	0.663737	0.031388	0.374418
H376	H	1.163737	0.531388	0.874418
H377	H	0.446189	0.450966	0.000067
H378	H	0.946189	0.950966	0.500067
O379	O	0.093754	-0.061973	-0.139117
O380	O	0.593754	0.438027	0.360883
H381	H	0.119756	-0.062226	-0.170560
H382	H	0.619756	0.437774	0.329440
H383	H	0.646929	0.802542	0.000111
H384	H	1.146929	1.302542	0.500111
H385	H	0.486977	0.780421	0.000081
H386	H	0.986977	1.280421	0.500081
H387	H	0.487905	0.688970	0.000073
H388	H	0.987905	1.188970	0.500073
H389	H	0.494160	0.073909	0.000111
H390	H	0.994160	0.573909	0.500111
O391	O	0.047294	-0.061521	-0.139114
O392	O	0.547294	0.438479	0.360886
H393	H	0.021286	-0.061256	-0.170552
H394	H	0.521286	0.438744	0.329448
O395	O	0.481510	0.170433	0.000099
O396	O	0.981510	0.670433	0.500099
H397	H	0.451123	0.140196	0.000091
H398	H	0.951123	0.640196	0.500091
H399	H	0.694301	0.485261	0.000129
H400	H	1.194301	0.985261	0.500129
H401	H	0.693365	0.576721	0.000122
H402	H	1.193365	1.076721	0.500122
O403	O	0.433542	0.547470	0.000057
O404	O	0.933542	1.047470	0.500057
H405	H	0.403157	0.517231	0.000047
H406	H	0.903157	1.017231	0.500047
O407	O	0.639395	0.007053	0.764374
O408	O	1.139395	0.507053	1.264374
H409	H	0.662420	0.030072	0.791306
H410	H	1.162420	0.530072	1.291306
O411	O	0.501722	-0.130570	0.764385
O412	O	1.001722	0.369430	1.264385
H413	H	0.478704	-0.153589	0.791320
H414	H	0.978704	0.346411	1.291320
