data_functionalizedCrystal
_audit_creation_method	'MofGen! by Chris Wilmer'
_symmetry_space_group_name_H-M	'P1'
_symmetry_Int_Tables_number	1
_symmetry_cell_setting	triclinic
loop_
_symmetry_equiv_pos_as_xyz
  x,y,z
_cell_length_a	14.519709
_cell_length_b	12.996460
_cell_length_c	17.699083
_cell_angle_alpha	89.992964
_cell_angle_beta	96.518420
_cell_angle_gamma	89.999966
loop_
_atom_site_label
_atom_site_type_symbol
_atom_site_fract_x
_atom_site_fract_y
_atom_site_fract_z
O1	O	1.223447	0.085435	-0.099215
O2	O	0.954920	0.085467	-0.110899
O3	O	1.096770	0.085441	0.005111
O4	O	1.081597	0.085461	-0.215224
O5	O	1.096756	-0.085693	0.005117
O6	O	0.954906	-0.085667	-0.110892
O7	O	1.223432	-0.085699	-0.099209
Cu8	Cu	1.089168	-0.101309	-0.105050
Cu9	Cu	1.089185	0.101077	-0.105057
O10	O	1.081583	-0.085673	-0.215218
C11	C	0.920556	-0.000096	-0.110351
C12	C	0.818181	-0.000084	-0.108719
C13	C	0.443311	-0.000132	-0.102712
C14	C	0.547612	-0.000118	-0.104380
C15	C	0.630743	-0.000107	-0.105716
C16	C	0.735050	-0.000096	-0.107384
N17	N	1.089162	-0.243656	-0.105044
C18	C	1.089184	-0.663470	-0.105058
C19	C	1.089175	-0.546665	-0.105057
C20	C	1.089173	-0.453567	-0.105052
C21	C	1.089164	-0.336754	-0.105049
C22	C	1.257797	-0.000134	-0.099756
C23	C	1.360171	-0.000139	-0.101388
C24	C	1.096219	-0.000126	0.033312
C25	C	1.094588	-0.000126	0.117335
N26	N	1.089198	0.243424	-0.105057
C27	C	1.082134	-0.000104	-0.243420
C28	C	1.083765	-0.000097	-0.327442
C29	C	1.177851	-0.000138	0.165718
C30	C	1.176313	-0.000128	0.244665
C31	C	1.091511	-0.000115	0.275229
C32	C	1.008242	-0.000101	0.226840
C33	C	1.009781	-0.000103	0.147894
C34	C	1.002033	-0.000092	0.545221
C35	C	1.000501	-0.000093	0.624173
C36	C	1.168566	-0.000117	0.641992
C37	C	1.170105	-0.000119	0.563046
C38	C	1.086836	-0.000099	0.514664
C39	C	1.088505	-0.000108	0.429060
C40	C	1.089841	-0.000114	0.360831
H41	H	1.246907	-0.000155	0.140840
H42	H	1.244114	-0.000140	0.284056
C43	C	0.918195	-0.000090	0.094670
H44	H	0.931256	-0.000082	0.043275
H45	H	0.883404	-0.059761	0.103949
H46	H	0.883425	0.059603	0.103943
C47	C	1.263386	-0.000129	0.529430
H48	H	1.312756	-0.000124	0.569553
H49	H	1.267478	-0.059806	0.499007
H50	H	1.267479	0.059558	0.499001
C51	C	0.914959	-0.000078	0.260454
H52	H	0.865591	-0.000060	0.220330
H53	H	0.910854	-0.059753	0.290887
H54	H	0.910876	0.059611	0.290873
C55	C	1.260161	-0.000122	0.695214
H56	H	1.247104	-0.000107	0.746610
H57	H	1.294937	-0.059805	0.685945
H58	H	1.294943	0.059559	0.685928
C59	C	0.907215	-0.000065	0.657792
H60	H	0.857842	-0.000042	0.617671
H61	H	0.903109	-0.059740	0.688224
H62	H	0.903139	0.059623	0.688213
H63	H	0.934231	-0.000076	0.505837
