data_functionalizedCrystal
_audit_creation_method	'MofGen! by Chris Wilmer'
_symmetry_space_group_name_H-M	'P1'
_symmetry_Int_Tables_number	1
_symmetry_cell_setting	triclinic
loop_
_symmetry_equiv_pos_as_xyz
  x,y,z
_cell_length_a	14.446369
_cell_length_b	14.446369
_cell_length_c	14.446369
_cell_angle_alpha	60.000250
_cell_angle_beta	89.999999
_cell_angle_gamma	60.002158
loop_
_atom_site_label
_atom_site_type_symbol
_atom_site_fract_x
_atom_site_fract_y
_atom_site_fract_z
Zr1	Zr	0.891731	1.013284	-0.121568
O2	O	0.743932	1.206387	-0.269370
O3	O	0.937038	0.820170	-0.076252
O4	O	0.937040	1.013278	-0.269371
O5	O	0.743930	1.013287	0.076078
O6	O	1.089369	1.013287	-0.269379
O7	O	0.743930	1.013278	-0.076251
O8	O	1.089365	0.667851	0.076075
O9	O	0.743933	1.358723	-0.269377
O10	O	1.070044	0.899611	-0.056939
O11	O	0.956363	0.899611	0.056748
O12	O	0.956365	1.126971	-0.170625
O13	O	0.842684	1.126971	-0.056937
Zr14	Zr	1.134678	1.013311	0.121366
Zr15	Zr	1.134678	1.013297	-0.121581
Zr16	Zr	0.891731	1.013297	0.121379
Zr17	Zr	0.891733	1.256242	-0.121579
Zr18	Zr	1.134675	0.770353	0.121377
O19	O	1.089370	1.206425	0.076051
O20	O	1.089371	1.206406	-0.269388
O21	O	0.743931	1.206406	0.076069
O22	O	1.282477	0.820208	0.269168
O23	O	1.282477	0.820189	-0.076271
O24	O	0.937038	0.820189	0.269187
O25	O	1.282479	1.013308	-0.076279
O26	O	1.089368	1.013316	0.269170
O27	O	0.937040	1.013308	0.269178
O28	O	1.282479	1.013316	0.076049
O29	O	0.937043	1.358733	-0.269387
O30	O	1.089365	0.667861	0.269186
O31	O	1.282476	0.667872	0.269175
O32	O	1.282476	0.667861	0.076065
O33	O	0.743933	1.358733	-0.076267
O34	O	0.937043	1.358744	-0.076277
O35	O	1.070044	0.899623	0.170423
O36	O	1.183725	0.899623	0.056736
O37	O	1.070046	1.126984	-0.056950
O38	O	0.956365	1.126984	0.056738
C39	C	1.013202	0.709394	-0.000087
C40	C	1.013201	0.606252	-0.000082
C41	C	0.941845	0.459242	0.071949
C42	C	0.941457	0.566862	0.071658
C43	C	0.960897	0.655238	-0.123614
C44	C	0.960361	0.548006	-0.123240
C45	C	1.136910	0.372804	0.050356
C46	C	1.136728	0.478954	0.052877
C47	C	0.709315	1.013281	-0.000084
C48	C	0.606178	1.013275	-0.000079
C49	C	0.531194	0.869894	0.071251
C50	C	0.638522	0.869797	0.071659
C51	C	0.531618	1.084506	0.052217
C52	C	0.424760	1.083595	0.052732
C53	C	0.423186	1.086539	-0.123819
C54	C	0.531858	1.083836	-0.123616
C55	C	1.317094	1.013314	-0.000117
C56	C	1.420231	1.013320	-0.000122
C57	C	1.013205	1.013281	-0.303990
C58	C	1.013205	1.013275	-0.407127
C59	C	1.013207	1.317201	-0.000115
C60	C	1.013208	1.420343	-0.000119
C61	C	1.085259	0.869894	-0.482107
C62	C	1.084947	0.869797	-0.374778
C63	C	0.889682	1.084496	-0.481684
C64	C	0.890077	1.083586	-0.588543
C65	C	1.063675	1.086548	-0.590126
C66	C	1.066175	1.083846	-0.481454
C67	C	1.013204	1.013314	0.303789
C68	C	1.013204	1.013320	0.406926
C69	C	1.317091	0.709411	-0.000103
C70	C	1.420227	0.606274	-0.000104
C71	C	1.013201	0.709411	0.303803
C72	C	1.013200	0.606274	0.406945
C73	C	1.317091	0.709427	0.303786
C74	C	1.420227	0.606297	0.406923
C75	C	0.709318	1.317167	-0.303988
C76	C	0.606182	1.420298	-0.407124
C77	C	0.709318	1.317184	-0.000098
C78	C	0.606181	1.420320	-0.000098
C79	C	1.013207	1.317184	-0.304004
C80	C	1.013209	1.420320	-0.407146
C81	C	1.638583	0.459977	0.071215
C82	C	1.531358	0.566894	0.071627
C83	C	1.423554	0.479419	0.052198
C84	C	1.531316	0.372047	0.052711
C85	C	1.529945	0.547017	-0.123848
C86	C	1.423983	0.655483	-0.123643
C87	C	0.941154	0.459956	0.481938
C88	C	0.941459	0.566877	0.374604
C89	C	1.136725	0.479428	0.481498
C90	C	1.136337	0.372053	0.588361
C91	C	0.962741	0.547016	0.589949
C92	C	0.960234	0.655486	0.481272
C93	C	1.495208	0.459970	0.625283
C94	C	1.387880	0.566903	0.518057
C95	C	1.494765	0.479452	0.410236
C96	C	1.601623	0.372065	0.517998
C97	C	1.603239	0.547010	0.516651
C98	C	1.494568	0.655491	0.410689
H99	H	0.869334	0.588696	-0.163648
N100	N	0.532575	0.795700	0.191396
H101	H	0.604132	0.703673	0.236665
H102	H	0.464383	0.792410	0.190824
H103	H	1.681454	0.522217	0.489204
N104	N	1.596186	0.599449	-0.181725
H105	H	1.545710	0.680686	-0.260952
H106	H	1.663148	0.530823	-0.185707
N107	N	1.493809	0.341219	0.698096
H108	H	1.490712	0.326362	0.773838
H109	H	1.564750	0.261960	0.710054
H110	H	1.180609	0.279064	0.139920
N111	N	0.498056	1.222491	-0.199976
H112	H	0.452749	1.273540	-0.168990
H113	H	0.450475	1.265197	-0.278666
N114	N	0.417751	1.025730	-0.181687
H115	H	0.419768	1.074192	-0.260914
H116	H	0.345144	1.031370	-0.185668
H117	H	1.532972	0.656242	0.036548
N118	N	1.534560	0.517286	0.192488
H119	H	1.534124	0.576909	0.210084
H120	H	1.605718	0.425776	0.245644
H121	H	1.607369	0.586568	0.566676
N122	N	1.420750	0.428320	0.171639
H123	H	1.351689	0.426925	0.176884
H124	H	1.417364	0.487172	0.191990
H125	H	0.976541	0.530159	0.162623
H126	H	1.008982	0.526037	-0.179853
H127	H	0.850499	0.656219	0.320337
H128	H	1.190330	0.346829	-0.001886
H129	H	1.157181	1.031906	-0.430039
N130	N	0.841462	0.777476	-0.177499
H131	H	0.808530	0.808231	-0.256960
H132	H	0.842562	0.848244	-0.180442
H133	H	0.504389	1.190000	0.002738
H134	H	1.175802	0.439361	0.143884
H135	H	1.192944	0.342104	0.666939
H136	H	0.851137	0.494998	0.037249
N137	N	0.710439	0.795755	0.025221
H138	H	0.719415	0.855787	-0.044362
H139	H	0.672496	0.762889	0.004360
N140	N	0.319592	1.226496	-0.194595
H141	H	0.270955	1.242453	-0.146829
H142	H	0.274681	1.242967	-0.261199
H143	H	1.010378	0.684023	-0.179632
N144	N	1.315969	0.685244	0.520202
H145	H	1.306993	0.763808	0.451200
H146	H	1.353913	0.668153	0.591014
N147	N	1.213102	0.507422	-0.009415
H148	H	1.168509	0.603670	-0.073136
H149	H	1.243742	0.454189	-0.041573
N150	N	0.820592	0.684485	0.025295
H151	H	0.784181	0.719025	-0.054624
H152	H	0.819922	0.754881	0.024991
H153	H	0.346181	1.188825	0.004106
H154	H	1.019149	1.188520	-0.506972
N155	N	1.711390	0.341225	0.191362
H156	H	1.731860	0.367520	0.236627
H157	H	1.782868	0.273604	0.190791
H158	H	1.014976	0.522233	0.668161
N159	N	1.528379	0.698040	0.305839
H160	H	1.573673	0.621750	0.300092
H161	H	1.575976	0.729132	0.310719
H162	H	0.533528	0.813596	0.036355
N163	N	1.601254	0.251860	0.584695
H164	H	1.671597	0.175530	0.592216
H165	H	1.531770	0.269103	0.543909
H166	H	1.175905	0.813918	-0.320507
N167	N	1.316612	0.517303	0.521286
H168	H	1.354878	0.425806	0.592447
H169	H	1.307824	0.516022	0.452661
N170	N	0.709781	0.795292	0.192529
H171	H	0.671508	0.762393	0.245752
H172	H	0.718574	0.855116	0.202618
H173	H	0.583220	1.035038	0.142381
H174	H	0.425028	1.032981	0.143756
H175	H	0.869233	0.745973	0.429853
N176	N	1.710052	0.509313	0.024985
H177	H	1.722085	0.506470	-0.042668
H178	H	1.785820	0.452098	0.085629
N179	N	1.210944	0.508885	0.517561
H180	H	1.178386	0.544510	0.563277
H181	H	1.214205	0.575890	0.448127
H182	H	0.583280	1.031900	-0.162684
N183	N	1.496027	0.332337	-0.011676
H184	H	1.524812	0.349843	-0.078097
H185	H	1.410600	0.384610	-0.040188
N186	N	1.426404	0.428375	0.407421
H187	H	1.475105	0.346743	0.409590
H188	H	1.358586	0.497303	0.335552
N189	N	1.530825	0.508923	0.306558
H190	H	1.501207	0.486471	0.263308
H191	H	1.616311	0.455030	0.330662
H192	H	1.011423	1.192216	-0.668326
N193	N	1.206059	0.795320	-0.479001
H194	H	1.215254	0.853778	-0.549495
H195	H	1.224606	0.716124	-0.475574
H196	H	1.050573	0.813878	-0.481069
H197	H	1.680201	0.342107	0.491342
H198	H	1.492883	0.497198	0.679247
H199	H	0.833468	1.188815	-0.667124
N200	N	1.424691	0.775331	-0.175401
H201	H	1.422583	0.797672	-0.119071
H202	H	1.356112	0.851313	-0.246024
H203	H	1.049943	0.813547	-0.320988
N204	N	1.426473	0.775331	0.411405
H205	H	1.357567	0.846968	0.340560
H206	H	1.474806	0.806415	0.413878
N207	N	0.836567	1.016525	-0.588186
H208	H	0.812945	0.987831	-0.518752
H209	H	0.893193	0.937521	-0.587066
N210	N	0.815469	1.224237	-0.517765
H211	H	0.861316	1.242764	-0.486050
H212	H	0.749770	1.237785	-0.488159
N213	N	1.598086	0.251894	0.173295
H214	H	1.557371	0.269033	0.225616
H215	H	1.675935	0.230764	0.195568
N216	N	0.835766	1.018972	-0.413346
H217	H	0.832731	1.023019	-0.345521
H218	H	0.882177	0.924516	-0.386745
N219	N	1.022524	0.698047	0.515082
H220	H	1.086248	0.685972	0.482555
H221	H	1.054674	0.643315	0.600471
H222	H	1.153261	1.040655	-0.594245
H223	H	1.345291	0.501658	0.002726
N224	N	1.189830	0.251863	0.587973
H225	H	1.133247	0.230550	0.586809
H226	H	1.258645	0.175596	0.658316
H227	H	1.502498	0.522223	-0.177271
N228	N	0.988079	0.341509	0.192730
H229	H	0.984812	0.272904	0.193521
H230	H	0.941069	0.368686	0.237462
N231	N	1.319148	0.698010	-0.200003
H232	H	1.267504	0.685923	-0.155397
H233	H	1.341746	0.643263	-0.230647
H234	H	0.849961	0.497190	0.479606
N235	N	0.987093	0.341198	0.480551
H236	H	1.054378	0.261867	0.551488
H237	H	1.011407	0.355948	0.411738
N238	N	0.987816	0.517248	0.303353
H239	H	1.067730	0.435457	0.348732
H240	H	0.988128	0.586654	0.233254
H241	H	1.177413	0.440870	0.429890
N242	N	0.844078	0.599430	0.595414
H243	H	0.821836	0.541599	0.599862
H244	H	0.789573	0.691395	0.525230
