data_functionalizedCrystal
_audit_creation_method	'MofGen! by Chris Wilmer'
_symmetry_space_group_name_H-M	'P1'
_symmetry_Int_Tables_number	1
_symmetry_cell_setting	triclinic
loop_
_symmetry_equiv_pos_as_xyz
  x,y,z
_cell_length_a	12.594517
_cell_length_b	18.050589
_cell_length_c	12.594509
_cell_angle_alpha	90.027696
_cell_angle_beta	90.014305
_cell_angle_gamma	90.028178
loop_
_atom_site_label
_atom_site_type_symbol
_atom_site_fract_x
_atom_site_fract_y
_atom_site_fract_z
Zn1	Zn	1.627177	-0.295638	0.601665
Zn2	Zn	1.627030	-0.419842	0.423688
Zn3	Zn	1.449181	-0.295670	0.423715
Zn4	Zn	1.449125	-0.419791	0.601640
O5	O	1.538128	-0.357735	0.512677
O6	O	1.776103	-0.312122	0.578055
O7	O	1.603400	-0.403405	0.274745
O8	O	1.472877	-0.191741	0.447343
O9	O	1.775995	-0.403374	0.447296
O10	O	1.603650	-0.191718	0.578081
O11	O	1.472735	-0.312177	0.274766
O12	O	1.300228	-0.312127	0.447318
O13	O	1.472782	-0.403287	0.750589
O14	O	1.300187	-0.403318	0.578039
O15	O	1.603596	-0.312072	0.750607
O16	O	1.603346	-0.523760	0.447271
O17	O	1.472640	-0.523722	0.578012
C18	C	1.261587	-0.357721	0.512679
C19	C	1.143282	-0.357732	0.512706
C20	C	1.003274	-0.407421	0.583673
C21	C	1.074039	-0.425498	0.486531
C22	C	1.074088	-0.339689	0.609836
C23	C	1.003261	-0.375868	0.415481
C24	C	1.003305	-0.290028	0.538852
C25	C	1.074038	-0.308079	0.441643
C26	C	1.538000	-0.550687	0.512659
C27	C	1.538042	-0.633233	0.512687
C28	C	1.467034	-0.832690	0.583759
C29	C	1.441086	-0.882135	0.486637
C30	C	1.538147	-0.784363	0.512701
C31	C	1.564147	-0.882000	0.609834
C32	C	1.538246	-0.930348	0.512723
C33	C	1.512147	-0.832721	0.415528
C34	C	1.635254	-0.832582	0.538790
C35	C	1.609342	-0.882004	0.441601
C36	C	1.538087	-0.700265	0.512690
C37	C	1.538306	-1.014445	0.512723
C38	C	1.815749	-0.357750	0.512675
C39	C	1.934054	-0.357756	0.512674
C40	C	1.538199	-0.357670	0.790298
C41	C	1.538230	-0.357642	0.908603
C42	C	1.538286	-0.164029	0.512718
C43	C	1.538354	-0.081484	0.512735
C44	C	1.538118	-0.357746	0.236136
C45	C	1.538294	-0.357565	0.117831
C46	C	1.467103	-0.407226	0.977847
C47	C	1.564218	-0.425371	1.048625
C48	C	1.441191	-0.339452	1.048624
C49	C	1.635396	-0.375823	0.977824
C50	C	1.512303	-0.289873	0.977816
C51	C	1.609485	-0.307993	1.048563
H52	H	0.972210	-0.232778	0.561015
C53	C	0.850150	-0.463134	0.664427
C54	C	0.961317	-0.464169	0.664609
H55	H	0.824249	-0.498166	0.714395
H56	H	0.824866	-0.475493	0.595601
H57	H	0.825942	-0.415043	0.683180
H58	H	0.985525	-0.512259	0.645848
H59	H	0.986611	-0.451815	0.733449
C60	C	1.302490	-0.248294	1.053329
C61	C	1.330374	-0.318719	1.090608
H62	H	1.234079	-0.235499	1.079253
H63	H	1.301511	-0.248623	0.977921
H64	H	1.352965	-0.212998	1.077548
H65	H	1.279903	-0.354016	1.066383
H66	H	1.331345	-0.318395	1.166032
C67	C	1.078431	-0.180680	0.387062
C68	C	1.115727	-0.251367	0.360519
H69	H	1.104165	-0.145674	0.336973
H70	H	1.102821	-0.167746	0.455993
H71	H	1.003010	-0.180682	0.386204
H72	H	1.191148	-0.251368	0.361385
H73	H	1.091342	-0.264305	0.291571
C74	C	1.080275	-0.554740	0.531077
C75	C	1.115990	-0.502802	0.456645
H76	H	1.106177	-0.602464	0.512632
H77	H	1.004867	-0.555416	0.531480
H78	H	1.105578	-0.541567	0.599597
H79	H	1.090681	-0.515972	0.388127
H80	H	1.191415	-0.502128	0.456231
C81	C	1.694710	-0.885135	0.748712
C82	C	1.593792	-0.911224	0.720709
H83	H	1.713006	-0.903180	0.817160
H84	H	1.694242	-0.832520	0.749659
H85	H	1.745327	-0.902023	0.698316
H86	H	1.543174	-0.894331	0.771101
H87	H	1.594253	-0.963850	0.719770
C88	C	1.080357	-0.371167	0.794931
C89	C	1.116086	-0.319066	0.720741
H90	H	1.106279	-0.358436	0.863400
H91	H	1.105621	-0.418923	0.775858
H92	H	1.004939	-0.371465	0.795862
H93	H	1.191504	-0.318772	0.719804
H94	H	1.090828	-0.271297	0.739819
H95	H	0.972281	-0.391209	0.333303
H96	H	1.407000	-0.449222	0.946797
C97	C	1.284149	-0.828469	0.637190
C98	C	1.385738	-0.803449	0.664764
H99	H	1.233960	-0.810411	0.687192
H100	H	1.283183	-0.881085	0.637310
H101	H	1.266401	-0.810867	0.568371
H102	H	1.403489	-0.821056	0.733580
H103	H	1.386707	-0.750822	0.664654
C104	C	1.331782	-0.989089	0.456242
C105	C	1.330287	-0.911524	0.456849
H106	H	1.263379	-1.007229	0.437851
H107	H	1.350700	-1.006680	0.524743
H108	H	1.382269	-1.005960	0.405704
H109	H	1.279805	-0.894653	0.507392
H110	H	1.311356	-0.893926	0.388337
C111	C	1.519251	-0.554570	1.054938
C112	C	1.593869	-0.502691	1.090625
H113	H	1.537550	-0.602303	1.080871
H114	H	1.518814	-0.555269	0.979530
H115	H	1.450786	-0.541327	1.080227
H116	H	1.662333	-0.515931	1.065329
H117	H	1.594317	-0.501993	1.166049
C118	C	1.482545	-0.726057	0.305624
C119	C	1.482375	-0.803627	0.304617
H120	H	1.464155	-0.708097	0.237156
H121	H	1.551270	-0.708683	0.324254
H122	H	1.432310	-0.708786	0.356136
H123	H	1.532616	-0.820898	0.254111
H124	H	1.413640	-0.821009	0.285975
C125	C	1.745195	-0.396534	0.824854
C126	C	1.746248	-0.396648	0.936027
H127	H	1.813626	-0.409397	0.799051
H128	H	1.726651	-0.348575	0.800027
H129	H	1.694603	-0.431563	0.800088
H130	H	1.796834	-0.361615	0.960793
H131	H	1.764805	-0.444615	0.960864
C132	C	1.663153	-0.886051	0.258816
C133	C	1.690581	-0.911061	0.360405
H134	H	1.713300	-0.903996	0.208689
H135	H	1.663148	-0.833435	0.257968
H136	H	1.594412	-0.903773	0.240890
H137	H	1.759319	-0.893335	0.378335
H138	H	1.690597	-0.963689	0.361256
C139	C	1.820785	-0.829158	0.495249
C140	C	1.746026	-0.803175	0.568613
H141	H	1.889171	-0.811006	0.513675
H142	H	1.802442	-0.812312	0.426208
H143	H	1.821452	-0.881778	0.496125
H144	H	1.745353	-0.750554	0.567732
H145	H	1.764374	-0.820017	0.637672
H146	H	1.669732	-0.266028	1.079417
C147	C	1.483863	-0.213295	0.824614
C148	C	1.482620	-0.212573	0.935781
H149	H	1.465535	-0.165572	0.798665
H150	H	1.434018	-0.248663	0.799358
H151	H	1.552885	-0.226129	0.800430
H152	H	1.413595	-0.199745	0.959966
H153	H	1.532467	-0.177194	0.961048
