data_functionalizedCrystal
_audit_creation_method	'MofGen! by Chris Wilmer'
_symmetry_space_group_name_H-M	'P1'
_symmetry_Int_Tables_number	1
_symmetry_cell_setting	triclinic
loop_
_symmetry_equiv_pos_as_xyz
  x,y,z
_cell_length_a	10.654550
_cell_length_b	10.868271
_cell_length_c	10.654550
_cell_angle_alpha	89.999759
_cell_angle_beta	95.515097
_cell_angle_gamma	90.007891
loop_
_atom_site_label
_atom_site_type_symbol
_atom_site_fract_x
_atom_site_fract_y
_atom_site_fract_z
O1	O	1.667842	0.102420	-0.176393
O2	O	1.302363	0.102400	-0.193199
O3	O	1.493505	0.102406	-0.002056
O4	O	1.476699	0.102414	-0.367535
O5	O	1.493488	-0.102239	-0.002062
O6	O	1.302346	-0.102245	-0.193205
O7	O	1.667824	-0.102225	-0.176399
Zn8	Zn	1.485082	-0.134726	-0.184803
Zn9	Zn	1.485105	0.134902	-0.184795
O10	O	1.476682	-0.102230	-0.367541
C11	C	1.255556	0.000075	-0.191968
C12	C	1.116113	0.000068	-0.188276
N13	N	1.485076	-0.318740	-0.184807
C14	C	1.036627	0.000088	-0.300817
C15	C	0.905607	0.000109	-0.297341
C16	C	0.933570	0.000095	-0.068771
C17	C	1.064588	0.000065	-0.072249
C18	C	1.020482	0.000102	-0.432780
C19	C	0.889461	0.000123	-0.429304
C20	C	1.485085	-0.430078	-0.184808
C21	C	1.485102	-0.569756	-0.184796
C22	C	1.714631	0.000103	-0.177630
C23	C	1.854074	0.000119	-0.181321
C24	C	1.492263	0.000085	0.044739
C25	C	1.488571	0.000089	0.184182
N26	N	1.485121	0.318916	-0.184780
C27	C	1.477925	0.000093	-0.414336
C28	C	1.481616	0.000097	-0.553779
C29	C	1.601112	0.000092	0.263668
C30	C	1.597636	0.000100	0.394688
C31	C	1.369066	0.000098	0.366725
C32	C	1.372544	0.000099	0.235707
C33	C	1.733075	0.000087	0.279813
C34	C	1.729599	0.000096	0.410834
H35	H	1.129302	0.000030	0.019393
H36	H	1.784698	0.085728	0.250458
O37	O	1.782980	-0.105504	0.237477
C38	C	1.872883	-0.304062	0.292100
C39	C	1.816621	-0.184443	0.340245
H40	H	1.900073	-0.367927	0.375160
H41	H	1.960179	-0.281486	0.242445
H42	H	1.799956	-0.351365	0.223025
H43	H	1.889454	-0.137081	0.409365
H44	H	1.729300	-0.207098	0.389824
H45	H	1.274601	0.000107	0.408693
O46	O	1.062822	0.105555	-0.482990
C47	C	1.008188	0.303823	-0.573603
C48	C	0.960063	0.184447	-0.516799
H49	H	0.925136	0.367650	-0.600930
H50	H	1.057700	0.280890	-0.660892
H51	H	1.077383	0.351340	-0.500949
H52	H	0.890824	0.136871	-0.589359
H53	H	0.910626	0.207459	-0.429485
O54	O	1.263104	0.000052	0.158674
C55	C	1.036028	0.000141	0.144770
C56	C	1.159878	0.000165	0.232154
H57	H	0.952537	0.000260	0.204143
H58	H	1.031835	-0.085521	0.082753
H59	H	1.032030	0.085766	0.082707
H60	H	1.163959	-0.085401	0.294294
H61	H	1.164020	0.085885	0.294085
O62	O	1.055439	-0.102199	-0.494165
C63	C	1.058578	-0.323812	-0.499996
C64	C	1.018945	-0.208064	-0.430344
H65	H	1.029066	-0.409433	-0.448440
H66	H	1.165273	-0.323939	-0.502799
H67	H	1.010656	-0.323746	-0.600379
H68	H	1.066779	-0.208053	-0.329931
H69	H	0.912240	-0.207981	-0.427643
H70	H	0.891602	0.000111	0.025694
H71	H	0.843782	-0.088227	-0.469187
H72	H	0.847736	0.085774	-0.479023
H73	H	1.769487	0.088458	0.456480
H74	H	1.779313	-0.085543	0.452591
