data_functionalizedCrystal
_audit_creation_method	'MofGen! by Chris Wilmer'
_symmetry_space_group_name_H-M	'P1'
_symmetry_Int_Tables_number	1
_symmetry_cell_setting	triclinic
loop_
_symmetry_equiv_pos_as_xyz
  x,y,z
_cell_length_a	10.654550
_cell_length_b	23.532357
_cell_length_c	22.610064
_cell_angle_alpha	89.989969
_cell_angle_beta	89.981186
_cell_angle_gamma	83.656597
loop_
_atom_site_label
_atom_site_type_symbol
_atom_site_fract_x
_atom_site_fract_y
_atom_site_fract_z
O1	O	1.665295	0.079985	-0.049241
O2	O	2.165295	0.579985	0.450759
O3	O	1.299573	0.087606	-0.049232
O4	O	1.799573	0.587606	0.450768
O5	O	1.493495	0.000934	-0.049225
O6	O	1.993495	0.500934	0.450775
O7	O	1.471373	0.166657	-0.049249
O8	O	1.971373	0.666657	0.450751
O9	O	1.493438	0.000934	0.049144
O10	O	1.993438	0.500934	0.549144
O11	O	1.299516	0.087606	0.049137
O12	O	1.799516	0.587606	0.549137
O13	O	1.665239	0.079985	0.049128
O14	O	2.165239	0.579985	0.549128
Zn15	Zn	1.482368	0.083795	0.064751
Zn16	Zn	1.982368	0.583795	0.564751
Zn17	Zn	1.482443	0.083796	-0.064855
Zn18	Zn	1.982443	0.583796	0.435145
O19	O	1.471316	0.166657	0.049120
O20	O	1.971316	0.666657	0.549120
C21	C	1.252764	0.087046	-0.000047
C22	C	1.752764	0.587046	0.499953
C23	C	1.113375	0.085372	-0.000043
C24	C	1.613375	0.585372	0.499957
C25	C	1.032252	0.136403	-0.000059
C26	C	1.532252	0.636403	0.499941
C27	C	0.901282	0.134827	-0.000069
C28	C	1.401282	0.634827	0.499931
C29	C	0.932570	0.031184	-0.000049
C30	C	1.432570	0.531184	0.499951
C31	C	1.063537	0.032761	-0.000035
C32	C	1.563537	0.532761	0.499965
C33	C	1.014187	0.196241	-0.000072
C34	C	1.514187	0.696241	0.499928
C35	C	0.883217	0.194664	-0.000082
C36	C	1.383217	0.694664	0.499918
C37	C	1.492913	-0.020286	-0.000038
C38	C	1.992913	0.479714	0.499962
C39	C	1.491250	-0.083516	-0.000033
C40	C	1.991250	0.416484	0.499967
C41	C	1.480836	-0.475595	-0.053686
C42	C	1.980836	0.024405	0.446314
C43	C	1.479255	-0.535005	-0.053689
C44	C	1.979255	-0.035005	0.446311
O45	O	1.478421	-0.565726	-0.099292
O46	O	1.978421	-0.065726	0.400708
N47	N	1.478440	-0.564721	-0.000069
N48	N	1.978440	-0.064721	0.499931
C49	C	1.479194	-0.535024	0.053559
C50	C	1.979194	-0.035024	0.553559
O51	O	1.478354	-0.565755	0.099167
O52	O	1.978354	-0.065755	0.599167
C53	C	1.480766	-0.475615	0.053561
C54	C	1.980766	0.024385	0.553561
C55	C	1.481594	-0.445902	-0.000063
C56	C	1.981594	0.054098	0.499937
C57	C	1.481663	-0.445882	-0.107305
C58	C	1.981663	0.054118	0.392695
C59	C	1.483246	-0.386477	-0.107302
C60	C	1.983246	0.113523	0.392698
C61	C	1.484004	-0.356784	-0.053678
C62	C	1.984004	0.143216	0.446322
C63	C	1.483177	-0.386497	-0.000059
C64	C	1.983177	0.113503	0.499941
C65	C	1.481511	-0.445919	0.107188
C66	C	1.981511	0.054081	0.607188
C67	C	1.483082	-0.386505	0.107186
C68	C	1.983082	0.113495	0.607186
C69	C	1.483910	-0.356793	0.053562
C70	C	1.983910	0.143207	0.553562
C71	C	1.485519	-0.297399	0.053568
C72	C	1.985519	0.202601	0.553568
N73	N	1.486334	-0.267682	-0.000053
N74	N	1.986334	0.232318	0.499947
C75	C	1.485576	-0.297375	-0.053676
C76	C	1.985576	0.202625	0.446324
C77	C	1.475889	-0.659787	0.053549
C78	C	1.975889	-0.159787	0.553549
C79	C	1.474326	-0.719196	0.053547
C80	C	1.974326	-0.219196	0.553547
C81	C	1.474385	-0.719172	-0.053701
C82	C	1.974385	-0.219172	0.446299
C83	C	1.475957	-0.659763	-0.053698
C84	C	1.975957	-0.159763	0.446302
C85	C	1.476704	-0.630071	-0.000072
C86	C	1.976704	-0.130071	0.499928
C87	C	1.488903	-0.172619	-0.053664
C88	C	1.988903	0.327381	0.446336
C89	C	1.490492	-0.113208	-0.053656
C90	C	1.990492	0.386792	0.446344
C91	C	1.490427	-0.113237	0.053591
C92	C	1.990427	0.386763	0.553591
C93	C	1.488844	-0.172643	0.053583
C94	C	1.988844	0.327357	0.553583
C95	C	1.488078	-0.202332	-0.000049
C96	C	1.988078	0.297668	0.499951
O97	O	1.486349	-0.266639	0.099147
O98	O	1.986349	0.233361	0.599147
O99	O	1.486400	-0.266635	-0.099276
O100	O	1.986400	0.233365	0.400724
C101	C	1.712047	0.080545	-0.000059
C102	C	2.212047	0.580545	0.499941
C103	C	1.851437	0.082219	-0.000067
C104	C	2.351437	0.582219	0.499933
C105	C	1.471898	0.187877	-0.000067
C106	C	1.971898	0.687877	0.499933
C107	C	1.473562	0.251107	-0.000077
C108	C	1.973562	0.751107	0.499923
N109	N	1.482327	0.083795	0.153203
N110	N	1.982327	0.583795	0.653203
N111	N	1.482495	0.083792	-0.153307
N112	N	1.982495	0.583792	0.346693
C113	C	1.558157	0.118650	0.561837
C114	C	2.058157	0.618650	1.061837
C115	C	1.558173	0.118649	0.623757
C116	C	2.058173	0.618649	1.123757
O117	O	1.622597	0.148281	0.655770
O118	O	2.122597	0.648281	1.155770
N119	N	1.482467	0.083789	0.654740
N120	N	1.982467	0.583789	1.154740
C121	C	1.406750	0.048924	0.623800
C122	C	1.906750	0.548924	1.123800
O123	O	1.342359	0.019273	0.655839
O124	O	1.842359	0.519273	1.155839
C125	C	1.406742	0.048923	0.561881
C126	C	1.906742	0.548923	1.061881
C127	C	1.482443	0.083789	0.530902
C128	C	1.982443	0.583789	1.030902
C129	C	1.633854	0.153513	0.530858
C130	C	2.133854	0.653513	1.030858
C131	C	1.633836	0.153515	0.468942
C132	C	2.133836	0.653515	0.968942
C133	C	1.558122	0.118654	0.438006
C134	C	2.058122	0.618654	0.938006
C135	C	1.482425	0.083791	0.468986
C136	C	1.982425	0.583791	0.968986
C137	C	1.331032	0.014056	0.530942
C138	C	1.831032	0.514056	1.030942
C139	C	1.331032	0.014057	0.469019
C140	C	1.831032	0.514057	0.969019
C141	C	1.406733	0.048923	0.438039
C142	C	1.906733	0.548923	0.938039
C143	C	1.406693	0.048932	0.376134
C144	C	1.906693	0.548932	0.876134
N145	N	1.482399	0.083792	0.345151
N146	N	1.982399	0.583792	0.845151
C147	C	1.558113	0.118653	0.376087
C148	C	2.058113	0.618653	0.876087
C149	C	1.406775	0.048929	0.753834
C150	C	1.906775	0.548929	1.253834
C151	C	1.406775	0.048933	0.815751
C152	C	1.906775	0.548933	1.315751
C153	C	1.558200	0.118657	0.815704
C154	C	2.058200	0.618657	1.315704
C155	C	1.558192	0.118656	0.753785
C156	C	2.058192	0.618656	1.253785
C157	C	1.482481	0.083789	0.722851
C158	C	1.982481	0.583789	1.222851
C159	C	1.558069	0.118655	0.246060
C160	C	2.058069	0.618655	0.746060
C161	C	1.558041	0.118656	0.184139
C162	C	2.058041	0.618656	0.684139
C163	C	1.406621	0.048930	0.184191
C164	C	1.906621	0.548930	0.684191
C165	C	1.406644	0.048931	0.246107
C166	C	1.906644	0.548931	0.746107
C167	C	1.482378	0.083795	0.277040
C168	C	1.982378	0.583795	0.777040
O169	O	1.342306	0.019314	0.344082
O170	O	1.842306	0.519314	0.844082
O171	O	1.622507	0.148294	0.344041
O172	O	2.122507	0.648294	0.844041
H173	H	1.491169	-0.089019	-0.097325
H174	H	1.991169	0.410981	0.402675
H175	H	0.836941	0.212748	0.042384
H176	H	1.336941	0.712748	0.542384
Br177	Br	1.660936	0.165974	0.711748
Br178	Br	2.160936	0.665974	1.211748
Br179	Br	1.491458	-0.072929	0.126362
Br180	Br	1.991458	0.427071	0.626362
Br181	Br	1.173631	-0.036498	0.000004
Br182	Br	1.673631	0.463502	0.500004
Br183	Br	1.303999	0.001611	0.711857
Br184	Br	1.803999	0.501611	1.211857
H185	H	1.473764	-0.743358	-0.097364
H186	H	1.973764	-0.243358	0.402636
Br187	Br	1.480382	-0.486228	0.179968
Br188	Br	1.980382	0.013772	0.679968
Br189	Br	1.072651	0.227995	-0.070862
Br190	Br	1.572651	0.727995	0.429138
Br191	Br	1.477080	-0.619445	-0.126476
Br192	Br	1.977080	-0.119445	0.373524
Br193	Br	1.660853	0.165971	0.288031
Br194	Br	2.160853	0.665971	0.788031
Br195	Br	1.487750	-0.212970	0.126359
Br196	Br	1.987750	0.287030	0.626359
H197	H	0.840785	0.217210	-0.041256
H198	H	1.340785	0.717210	0.458744
H199	H	1.488274	-0.196785	-0.097337
H200	H	1.988274	0.303215	0.402663
H201	H	1.483916	-0.362289	-0.150968
H202	H	1.983916	0.137711	0.349032
Br203	Br	1.061795	0.235249	0.068535
Br204	Br	1.561795	0.735249	0.568535
H205	H	1.481041	-0.470051	-0.150974
H206	H	1.981041	0.029949	0.349026
H207	H	1.473671	-0.743384	0.097213
H208	H	1.973671	-0.243384	0.597213
Br209	Br	1.476911	-0.619497	0.126335
Br210	Br	1.976911	-0.119497	0.626335
Br211	Br	0.864925	-0.040214	-0.000037
Br212	Br	1.364925	0.459786	0.499963
Br213	Br	1.484093	-0.346212	0.179969
Br214	Br	1.984093	0.153788	0.679969
H215	H	1.619686	0.147050	0.158918
H216	H	2.119686	0.647050	0.658918
Br217	Br	1.736554	0.200847	0.426908
Br218	Br	2.236554	0.700847	0.926908
H219	H	1.695516	0.181901	0.556039
H220	H	2.195516	0.681901	1.056039
Br221	Br	1.228285	-0.033265	0.572970
Br222	Br	1.728285	0.466735	1.072970
H223	H	1.619849	0.147043	0.840903
H224	H	2.119849	0.647043	1.340903
Br225	Br	1.304009	0.001623	0.857787
Br226	Br	1.804009	0.501623	1.357787
H227	H	1.344986	0.020547	0.271332
H228	H	1.844986	0.520547	0.771332
H229	H	1.269377	-0.014337	0.443835
H230	H	1.769377	0.485663	0.943835
H231	H	1.344973	0.020548	0.158992
H232	H	1.844973	0.520548	0.658992
