data_functionalizedCrystal
_audit_creation_method	'MofGen! by Chris Wilmer'
_symmetry_space_group_name_H-M	'P1'
_symmetry_Int_Tables_number	1
_symmetry_cell_setting	triclinic
loop_
_symmetry_equiv_pos_as_xyz
  x,y,z
_cell_length_a	6.817900
_cell_length_b	27.923497
_cell_length_c	27.923559
_cell_angle_alpha	97.590127
_cell_angle_beta	98.965071
_cell_angle_gamma	98.964248
loop_
_atom_site_label
_atom_site_type_symbol
_atom_site_fract_x
_atom_site_fract_y
_atom_site_fract_z
V1	V	-3.954328	-0.067819	-0.151591
O2	O	-3.966068	0.002549	-0.148377
O3	O	-3.884366	-0.133791	-0.150871
O4	O	-3.884362	-0.067087	-0.217561
O5	O	-3.966072	-0.064616	-0.081225
V6	V	-4.443544	-0.059365	-0.143136
O7	O	-4.203097	-0.086363	-0.170137
O8	O	-4.644972	-0.040822	-0.124590
O9	O	-4.290300	0.006606	-0.143857
O10	O	-4.549201	-0.129733	-0.146351
O11	O	-4.549197	-0.062568	-0.213503
O12	O	-4.290304	-0.060097	-0.077166
C13	C	-3.724819	-0.149864	-0.148561
C14	C	-3.748760	-0.203798	-0.148411
C15	C	-3.724813	-0.064776	-0.233630
C16	C	-3.748749	-0.064614	-0.287563
C17	C	-3.920608	-0.108134	-0.629156
C18	C	-4.010668	-0.107555	-0.831862
O19	O	-4.042132	-0.145295	-0.864147
N20	N	-3.998716	-0.063018	-0.850066
C21	C	-3.964260	-0.018624	-0.817590
O22	O	-3.956181	0.019271	-0.837726
C23	C	-3.874215	-0.019203	-0.614886
C24	C	-3.886149	-0.063742	-0.596684
C25	C	-3.932543	-0.152669	-0.610954
C26	C	-3.910018	-0.152813	-0.560280
C27	C	-3.875559	-0.108422	-0.527809
C28	C	-3.863625	-0.063886	-0.546011
C29	C	-3.839774	0.025191	-0.582411
C30	C	-3.817268	0.025042	-0.531732
C31	C	-3.829202	-0.019497	-0.513531
C32	C	-3.806641	-0.019639	-0.462865
N33	N	-3.818593	-0.064175	-0.444661
C34	C	-3.853052	-0.108567	-0.477133
C35	C	-4.011532	-0.018322	-0.924014
C36	C	-4.034040	-0.018177	-0.974690
C37	C	-4.080450	-0.107109	-0.988958
C38	C	-4.057928	-0.107254	-0.938281
C39	C	-4.023484	-0.062859	-0.905810
C40	C	-3.805745	-0.108866	-0.370714
C41	C	-3.783208	-0.109006	-0.320035
C42	C	-3.736810	-0.020075	-0.305771
C43	C	-3.759335	-0.019934	-0.356446
C44	C	-3.793810	-0.064334	-0.388916
O45	O	-3.775195	0.018081	-0.430552
O46	O	-3.861168	-0.146456	-0.456988
C47	C	-3.943133	-0.107990	-0.679830
C48	C	-3.931198	-0.063454	-0.698032
C49	C	-3.896739	-0.019062	-0.665560
C50	C	-3.953706	-0.063309	-0.748707
C51	C	-3.988165	-0.107701	-0.781179
C52	C	-4.000117	-0.152237	-0.762975
C53	C	-3.977592	-0.152381	-0.712301
C54	C	-3.884788	0.025474	-0.683764
C55	C	-3.907312	0.025615	-0.734438
C56	C	-3.941771	-0.018777	-0.766910
C57	C	-3.874196	-0.531114	-0.102970
C58	C	-3.964250	-0.733818	-0.102382
O59	O	-3.956249	-0.753966	-0.064493
N60	N	-3.998704	-0.766295	-0.146773
C61	C	-4.010659	-0.748093	-0.191313
O62	O	-4.042051	-0.780367	-0.229057
C63	C	-3.920618	-0.545389	-0.191901
C64	C	-3.886143	-0.512914	-0.147507
C65	C	-3.839725	-0.498640	-0.058579
C66	C	-3.817202	-0.447966	-0.058727
C67	C	-3.829150	-0.429767	-0.103264
C68	C	-3.863620	-0.462241	-0.147654
C69	C	-3.932587	-0.527188	-0.236441
C70	C	-3.910078	-0.476508	-0.236584
C71	C	-3.875603	-0.444034	-0.192190
C72	C	-3.853045	-0.393369	-0.192339
N73	N	-3.818591	-0.360892	-0.147948
C74	C	-3.806643	-0.379092	-0.103411
C75	C	-4.057925	-0.854514	-0.191002
C76	C	-4.080432	-0.905190	-0.190855
C77	C	-4.034026	-0.890912	-0.101924
C78	C	-4.011505	-0.840236	-0.102071
C79	C	-4.023471	-0.822038	-0.146611
C80	C	-3.759343	-0.272675	-0.103723
C81	C	-3.736812	-0.221997	-0.103874
C82	C	-3.783231	-0.236280	-0.192806
C83	C	-3.805750	-0.286952	-0.192655
C84	C	-3.793810	-0.305148	-0.148110
O85	O	-3.861045	-0.373187	-0.230208
O86	O	-3.775294	-0.346810	-0.065673
C87	C	-3.896718	-0.581787	-0.102822
C88	C	-3.931189	-0.614261	-0.147212
C89	C	-3.943137	-0.596062	-0.191750
C90	C	-3.953696	-0.664936	-0.147066
C91	C	-3.941748	-0.683136	-0.102528
C92	C	-3.907294	-0.650659	-0.058138
C93	C	-3.884771	-0.599986	-0.058285
C94	C	-3.977591	-0.628538	-0.236140
C95	C	-4.000110	-0.679211	-0.235989
C96	C	-3.988162	-0.697410	-0.191452
C97	C	-4.113188	0.022677	-0.146165
C98	C	-4.068484	0.076611	-0.146318
C99	C	-4.113195	-0.062410	-0.061095
C100	C	-4.068499	-0.062569	-0.007161
H101	H	-3.792923	-0.145277	-0.305218
H102	H	-3.987324	-0.613726	-0.272409
H103	H	-3.789145	-0.421529	-0.022577
H104	H	-3.829997	-0.513451	-0.022310
H105	H	-3.833813	-0.145020	-0.397146
H106	H	-3.897556	-0.665485	-0.021874
H107	H	-4.067647	-0.143521	-0.923465
H108	H	-3.856700	-0.573549	-0.022135
H109	H	-3.789226	0.061195	-0.505296
H110	H	-3.749627	0.016333	-0.371266
H111	H	-3.960607	-0.188820	-0.637388
H112	H	-4.028166	-0.705648	-0.272143
H113	H	-4.108504	-0.143254	-1.015405
H114	H	-4.024293	0.018091	-0.989504
H115	H	-3.919848	-0.461696	-0.272856
H116	H	-3.983431	-0.813797	-0.065921
H117	H	-3.708744	0.016068	-0.279324
H118	H	-4.024292	-0.905738	-0.065659
H119	H	-3.856734	0.061624	-0.657330
H120	H	-4.108470	-0.931627	-0.227005
H121	H	-3.919750	-0.189082	-0.545466
H122	H	-3.987313	-0.188650	-0.697487
H123	H	-3.708733	-0.195558	-0.067722
H124	H	-4.028166	-0.188382	-0.789422
H125	H	-3.897576	0.061887	-0.749252
H126	H	-3.983485	0.017831	-0.897579
H127	H	-4.067667	-0.839704	-0.227274
H128	H	-3.792945	-0.221453	-0.229067
H129	H	-3.749618	-0.287483	-0.067450
H130	H	-3.830037	0.061460	-0.597221
H131	H	-3.960658	-0.553621	-0.272591
H132	H	-3.833788	-0.313394	-0.228803
