data_functionalizedCrystal
_audit_creation_method	'MofGen! by Chris Wilmer'
_symmetry_space_group_name_H-M	'P1'
_symmetry_Int_Tables_number	1
_symmetry_cell_setting	triclinic
loop_
_symmetry_equiv_pos_as_xyz
  x,y,z
_cell_length_a	10.654559
_cell_length_b	27.731996
_cell_length_c	26.809956
_cell_angle_alpha	89.998344
_cell_angle_beta	89.990880
_cell_angle_gamma	83.555036
loop_
_atom_site_label
_atom_site_type_symbol
_atom_site_fract_x
_atom_site_fract_y
_atom_site_fract_z
O1	O	1.664957	0.067902	-0.041490
O2	O	1.299205	0.074365	-0.041491
O3	O	1.493474	0.000806	-0.041479
O4	O	1.470687	0.141461	-0.041501
O5	O	1.493438	0.000817	0.041480
O6	O	1.299168	0.074376	0.041469
O7	O	1.664920	0.067913	0.041470
Zn8	Zn	1.482038	0.071146	0.054641
Zn9	Zn	1.482087	0.071132	-0.054662
O10	O	1.470651	0.141472	0.041458
C11	C	1.252409	0.073895	-0.000011
C12	C	1.113027	0.072473	-0.000011
C13	C	1.063386	0.027825	-0.000003
C14	C	0.932420	0.026491	-0.000006
C15	C	0.900747	0.114457	-0.000024
C16	C	1.031711	0.115790	-0.000024
C17	C	1.081671	-0.022961	0.000010
C18	C	0.950705	-0.024295	0.000006
C19	C	1.492988	-0.017199	0.000002
C20	C	1.491578	-0.070864	0.000007
C21	C	1.482727	-0.403641	-0.045238
C22	C	1.477373	-0.605333	-0.045247
O23	O	1.476644	-0.631414	-0.083706
N24	N	1.476688	-0.630548	-0.000027
C25	C	1.477334	-0.605337	0.045200
O26	O	1.476615	-0.631411	0.083662
C27	C	1.482679	-0.403646	0.045208
C28	C	1.483376	-0.378434	-0.000016
C29	C	1.483424	-0.378429	-0.090458
C30	C	1.484769	-0.328010	-0.090456
C31	C	1.485418	-0.302802	-0.045233
C32	C	1.484722	-0.328014	-0.000013
C33	C	1.483315	-0.378435	0.090433
C34	C	1.484648	-0.328009	0.090431
C35	C	1.485346	-0.302797	0.045208
C36	C	1.486716	-0.252387	0.045212
N37	N	1.487401	-0.227172	-0.000009
C38	C	1.486752	-0.252380	-0.045231
C39	C	1.474530	-0.711228	0.045192
C40	C	1.473196	-0.761651	0.045190
C41	C	1.473233	-0.761643	-0.045257
C42	C	1.474576	-0.711220	-0.045254
C43	C	1.475215	-0.686013	-0.000029
C44	C	1.489578	-0.146495	-0.045222
C45	C	1.490929	-0.096071	-0.045216
C46	C	1.490885	-0.096083	0.045231
C47	C	1.489541	-0.146503	0.045225
C48	C	1.488884	-0.171707	-0.000006
O49	O	1.487432	-0.226275	0.083651
O50	O	1.487443	-0.226295	-0.083688
C51	C	1.481382	-0.454061	-0.045241
C52	C	1.480686	-0.479273	-0.000021
C53	C	1.481335	-0.454066	0.045201
C54	C	1.479352	-0.529696	-0.000023
C55	C	1.478703	-0.554903	-0.045246
C56	C	1.479388	-0.529688	-0.090466
C57	C	1.480733	-0.479269	-0.090464
C58	C	1.480650	-0.479281	0.090422
C59	C	1.479306	-0.529701	0.090416
C60	C	1.478657	-0.554908	0.045193
C61	C	1.711716	0.068383	-0.000011
C62	C	1.851098	0.069806	-0.000014
C63	C	1.471137	0.159477	-0.000024
C64	C	1.472547	0.213142	-0.000033
N65	N	1.482015	0.071156	0.129237
N66	N	1.482121	0.071118	-0.129258
C67	C	1.568098	0.038568	0.473868
C68	C	1.568128	0.038561	0.682745
O69	O	1.641268	0.010855	0.709754
N70	N	1.482094	0.071121	0.708864
C71	C	1.396040	0.103684	0.682759
O72	O	1.322855	0.131375	0.709767
C73	C	1.396005	0.103688	0.473883
C74	C	1.482054	0.071129	0.447767
C75	C	1.654139	0.006011	0.447752
C76	C	1.654135	0.006015	0.395536
C77	C	1.568091	0.038576	0.369435
C78	C	1.482050	0.071133	0.395551
C79	C	1.309947	0.136248	0.447779
C80	C	1.309944	0.136245	0.395557
C81	C	1.395992	0.103686	0.369441
C82	C	1.396002	0.103698	0.317234
N83	N	1.482036	0.071137	0.291116
C84	C	1.568081	0.038576	0.317216
C85	C	1.396066	0.103680	0.792423
C86	C	1.396076	0.103679	0.844642
C87	C	1.568163	0.038555	0.844624
C88	C	1.568158	0.038559	0.792404
C89	C	1.482101	0.071119	0.766304
C90	C	1.568067	0.038587	0.207558
C91	C	1.568059	0.038595	0.155337
C92	C	1.395969	0.103717	0.155359
C93	C	1.395980	0.103711	0.207576
C94	C	1.482034	0.071142	0.233674
O95	O	1.322891	0.131384	0.290194
O96	O	1.641237	0.010882	0.290199
C97	C	1.568102	0.038564	0.526084
C98	C	1.482061	0.071121	0.552200
C99	C	1.396017	0.103682	0.526099
C100	C	1.482071	0.071120	0.604419
C101	C	1.568116	0.038560	0.630519
C102	C	1.654150	0.005999	0.604401
C103	C	1.654146	0.006003	0.552185
C104	C	1.309983	0.136242	0.552217
C105	C	1.309995	0.136236	0.604434
C106	C	1.396039	0.103675	0.630534
H107	H	1.489037	-0.167010	-0.082053
H108	H	0.834524	0.149724	-0.000035
H109	H	1.124248	-0.042104	-0.034704
H110	H	1.478865	-0.550221	-0.127288
O111	O	1.488824	-0.173704	0.093998
H112	H	1.402598	-0.192656	0.096162
H113	H	1.724206	-0.020506	0.468999
H114	H	1.482749	-0.398954	0.127259
O115	O	0.912897	-0.050585	0.046003
H116	H	0.846087	-0.025832	0.068504
H117	H	1.472647	-0.782175	0.082016
H118	H	1.325924	0.130228	0.228840
O119	O	1.475307	-0.684026	-0.094030
H120	H	1.474622	-0.710030	-0.125474
H121	H	1.638225	0.012046	0.771144
O122	O	1.485352	-0.300821	0.139211
H123	H	1.484655	-0.326828	0.170654
H124	H	1.724199	-0.020499	0.374275
H125	H	1.239926	0.162754	0.625693
O126	O	1.142988	-0.043271	0.047461
H127	H	1.069586	-0.055120	0.072617
H128	H	1.491419	-0.075550	0.082050
O129	O	1.660896	0.003462	0.235698
H130	H	1.608532	-0.020230	0.259490
H131	H	1.072122	0.152146	-0.000039
O132	O	1.481463	-0.452077	-0.139240
H133	H	1.480770	-0.478082	-0.170683
O134	O	1.660963	0.003431	0.872779
H135	H	1.646497	0.008901	0.913477
H136	H	0.915780	-0.040475	-0.035812
O137	O	1.491664	-0.068876	-0.093994
H138	H	1.490968	-0.094878	-0.125439
O139	O	1.481374	-0.452100	0.139202
H140	H	1.395499	-0.457759	0.160892
H141	H	1.485332	-0.307486	-0.127281
O142	O	1.482693	-0.405613	-0.139238
H143	H	1.483396	-0.379602	-0.170677
O144	O	1.475237	-0.684049	0.093977
H145	H	1.390221	-0.657057	0.096153
H146	H	1.239862	0.162760	0.374309
H147	H	1.724215	-0.020510	0.530925
O148	O	1.303170	0.138834	0.127200
H149	H	1.243339	0.161478	0.154129
O150	O	1.746955	-0.029123	0.632556
H151	H	1.732484	-0.023654	0.673254
O152	O	1.660851	0.003468	0.127169
H153	H	1.721485	0.024029	0.103374
H154	H	1.239914	0.162757	0.530970
O155	O	1.472517	-0.788834	-0.094035
H156	H	1.471459	-0.828130	-0.086434
H157	H	1.478748	-0.550224	0.127245
H158	H	1.326021	0.130197	0.865901
H159	H	1.239878	0.162760	0.469035
H160	H	1.325986	0.130195	0.771176
