data_functionalizedCrystal
_audit_creation_method	'MofGen! by Chris Wilmer'
_symmetry_space_group_name_H-M	'P1'
_symmetry_Int_Tables_number	1
_symmetry_cell_setting	triclinic
loop_
_symmetry_equiv_pos_as_xyz
  x,y,z
_cell_length_a	10.654541
_cell_length_b	15.944551
_cell_length_c	9.730217
_cell_angle_alpha	89.995798
_cell_angle_beta	89.999932
_cell_angle_gamma	83.991333
loop_
_atom_site_label
_atom_site_type_symbol
_atom_site_fract_x
_atom_site_fract_y
_atom_site_fract_z
O1	O	1.666312	0.117965	-0.114251
O2	O	2.166312	0.617965	0.385749
O3	O	1.300688	0.129208	-0.114263
O4	O	1.800688	0.629208	0.385737
O5	O	1.493484	0.001369	-0.114245
O6	O	1.993484	0.501369	0.385755
O7	O	1.473516	0.245804	-0.114270
O8	O	1.973516	0.745804	0.385730
O9	O	1.493478	0.001368	0.114335
O10	O	1.993478	0.501368	0.614335
O11	O	1.300682	0.129206	0.114317
O12	O	1.800682	0.629206	0.614317
O13	O	1.666306	0.117964	0.114329
O14	O	2.166306	0.617964	0.614329
Zn15	Zn	1.483493	0.123585	0.150615
Zn16	Zn	1.983493	0.623585	0.650615
Zn17	Zn	1.483501	0.123587	-0.150549
Zn18	Zn	1.983501	0.623587	0.349451
O19	O	1.473510	0.245802	0.114310
O20	O	1.973510	0.745802	0.614310
C21	C	1.253897	0.128382	0.000025
C22	C	1.753897	0.628382	0.500025
C23	C	1.114486	0.125914	0.000021
C24	C	1.614486	0.625914	0.500021
C25	C	1.084537	0.278779	-0.000012
C26	C	1.584537	0.778779	0.499988
C27	C	1.004069	0.354048	-0.000034
C28	C	1.504069	0.854048	0.499966
C29	C	0.873081	0.351724	-0.000035
C30	C	1.373081	0.851724	0.499965
C31	C	0.822560	0.274122	-0.000010
C32	C	1.322560	0.774122	0.499990
C33	C	0.903028	0.198852	0.000012
C34	C	1.403028	0.698852	0.500012
C35	C	1.034017	0.201185	0.000009
C36	C	1.534017	0.701185	0.500009
C37	C	0.932976	0.045989	0.000055
C38	C	1.432976	0.545989	0.500055
C39	C	1.063965	0.048311	0.000046
C40	C	1.563965	0.548311	0.500046
C41	C	0.882455	-0.031613	0.000080
C42	C	1.382455	0.468387	0.500080
C43	C	0.962924	-0.106885	0.000092
C44	C	1.462924	0.393115	0.500092
C45	C	1.093919	-0.104557	0.000091
C46	C	1.593919	0.395443	0.500091
C47	C	1.144433	-0.026958	0.000068
C48	C	1.644433	0.473042	0.500068
C49	C	1.492652	-0.029930	0.000046
C50	C	1.992652	0.470070	0.500046
C51	C	1.490167	-0.123190	0.000046
C52	C	1.990167	0.376810	0.500046
C53	C	1.364722	-0.338772	0.000023
C54	C	1.864722	0.161228	0.500023
C55	C	1.422972	-0.399453	0.112729
C56	C	1.922972	0.100547	0.612729
C57	C	1.485671	-0.293942	0.000036
C58	C	1.985671	0.206058	0.500036
C59	C	1.423006	-0.399436	-0.112633
C60	C	1.923006	0.100564	0.387367
C61	C	1.481319	-0.458880	0.000019
C62	C	1.981319	0.041120	0.500019
C63	C	1.543954	-0.353395	0.112834
C64	C	2.043954	0.146605	0.612834
C65	C	1.543971	-0.353371	-0.112629
C66	C	2.043971	0.146629	0.387371
C67	C	1.602309	-0.414034	0.000104
C68	C	2.102309	0.085966	0.500104
C69	C	1.488175	-0.198925	0.000046
C70	C	1.988175	0.301075	0.500046
C71	C	1.478825	-0.553896	0.000019
C72	C	1.978825	-0.053896	0.500019
C73	C	1.713097	0.118790	0.000037
C74	C	2.213097	0.618790	0.500037
C75	C	1.852508	0.121258	0.000033
C76	C	2.352508	0.621258	0.500033
C77	C	1.474342	0.277102	0.000017
C78	C	1.974342	0.777102	0.500017
C79	C	1.476827	0.370362	0.000007
C80	C	1.976827	0.870362	0.500007
N81	N	1.483497	0.123584	0.356151
N82	N	1.983497	0.623584	0.856151
N83	N	1.483507	0.123582	-0.356086
N84	N	1.983507	0.623582	0.143914
C85	C	1.654288	0.010416	0.356159
C86	C	2.154288	0.510416	0.856159
C87	C	1.739691	-0.046165	0.428102
C88	C	2.239691	0.453835	0.928102
C89	C	1.739704	-0.046166	0.571982
C90	C	2.239704	0.453834	1.071982
C91	C	1.654302	0.010420	0.643921
C92	C	2.154302	0.510420	1.143921
C93	C	1.568898	0.067001	0.571978
C94	C	2.068898	0.567001	1.071978
C95	C	1.568897	0.066997	0.428095
C96	C	2.068897	0.566997	0.928095
C97	C	1.398103	0.180163	0.571971
C98	C	1.898103	0.680163	1.071971
C99	C	1.398094	0.180169	0.428091
C100	C	1.898094	0.680169	0.928091
C101	C	1.312700	0.236748	0.643910
C102	C	1.812700	0.736748	1.143910
C103	C	1.227301	0.293335	0.571967
C104	C	1.727301	0.793335	1.071967
C105	C	1.227292	0.293334	0.428078
C106	C	1.727292	0.793334	0.928078
C107	C	1.312691	0.236750	0.356147
C108	C	1.812691	0.736750	0.856147
H109	H	0.807563	0.413015	-0.000043
H110	H	1.307563	0.913015	0.499957
H111	H	0.715901	0.272236	0.000005
H112	H	1.215901	0.772236	0.500005
Br113	Br	1.197395	-0.284226	0.000191
Br114	Br	1.697395	0.215774	0.500191
H115	H	0.775797	-0.033501	0.000086
H116	H	1.275797	0.466499	0.500086
Br117	Br	1.312704	0.236745	0.839177
Br118	Br	1.812704	0.736745	1.339177
Br119	Br	1.111398	0.370114	0.669601
Br120	Br	1.611398	0.870114	1.169601
H121	H	1.251088	-0.025055	0.000051
H122	H	1.751088	0.474945	0.500051
H123	H	1.371836	-0.419808	-0.207924
H124	H	1.871836	0.080192	0.292076
H125	H	1.809243	-0.092242	0.630559
H126	H	2.309243	0.407758	1.130559
H127	H	1.654307	0.010409	0.761076
H128	H	2.154307	0.510409	1.261076
H129	H	1.157742	0.339406	0.369509
H130	H	1.657742	0.839406	0.869509
Br131	Br	1.312695	0.236749	0.160880
Br132	Br	1.812695	0.736749	0.660880
H133	H	0.921778	-0.170062	0.000111
H134	H	1.421778	0.329938	0.500111
H135	H	1.595065	-0.333109	0.208223
H136	H	2.095065	0.166891	0.708223
Br137	Br	1.654299	0.010425	0.160892
Br138	Br	2.154299	0.510425	0.660892
Br139	Br	1.629170	-0.319323	-0.271445
Br140	Br	2.129170	0.180677	0.228555
Br141	Br	1.769781	-0.468335	0.000206
Br142	Br	2.269781	0.031665	0.500206
H143	H	1.159430	-0.165851	0.000114
H144	H	1.659430	0.334149	0.500114
H145	H	1.191193	0.280679	-0.000042
H146	H	1.691193	0.780679	0.499958
Br147	Br	1.855583	-0.122962	0.330470
Br148	Br	2.355583	0.377038	0.830470
H149	H	1.371813	-0.419858	0.208009
H150	H	1.871813	0.080142	0.708009
H151	H	1.045218	0.417231	-0.000051
H152	H	1.545218	0.917231	0.499949
