data_functionalizedCrystal
_audit_creation_method	'MofGen! by Chris Wilmer'
_symmetry_space_group_name_H-M	'P1'
_symmetry_Int_Tables_number	1
_symmetry_cell_setting	triclinic
loop_
_symmetry_equiv_pos_as_xyz
  x,y,z
_cell_length_a	12.827893
_cell_length_b	12.827892
_cell_length_c	12.827885
_cell_angle_alpha	89.970024
_cell_angle_beta	90.021189
_cell_angle_gamma	89.986399
loop_
_atom_site_label
_atom_site_type_symbol
_atom_site_fract_x
_atom_site_fract_y
_atom_site_fract_z
Zn1	Zn	-1.597670	-0.416032	-0.590901
Zn2	Zn	-1.097670	0.083968	-0.090901
Zn3	Zn	-1.597564	-0.590810	-0.416160
Zn4	Zn	-1.097564	-0.090810	0.083840
Zn5	Zn	-1.422911	-0.416078	-0.416169
Zn6	Zn	-0.922911	0.083922	0.083831
Zn7	Zn	-1.422896	-0.590727	-0.590855
Zn8	Zn	-0.922896	-0.090727	-0.090855
O9	O	-1.510260	-0.503412	-0.503521
O10	O	-1.010260	-0.003412	-0.003521
O11	O	-1.743892	-0.439233	-0.567737
O12	O	-1.243892	0.060767	-0.067737
O13	O	-1.574358	-0.567685	-0.269925
O14	O	-1.074358	-0.067685	0.230075
O15	O	-1.446144	-0.269836	-0.439370
O16	O	-0.946144	0.230164	0.060630
O17	O	-1.743814	-0.567641	-0.439356
O18	O	-1.243814	-0.067641	0.060644
O19	O	-1.574538	-0.269802	-0.567745
O20	O	-1.074538	0.230198	-0.067745
O21	O	-1.446041	-0.439310	-0.269931
O22	O	-0.946041	0.060690	0.230069
O23	O	-1.276673	-0.439230	-0.439325
O24	O	-0.776673	0.060770	0.060675
O25	O	-1.446118	-0.567499	-0.737097
O26	O	-0.946118	-0.067499	-0.237097
O27	O	-1.276662	-0.567543	-0.567666
O28	O	-0.776662	-0.067543	-0.067666
O29	O	-1.574524	-0.439152	-0.737131
O30	O	-1.074524	0.060848	-0.237131
O31	O	-1.574343	-0.737035	-0.439311
O32	O	-1.074343	-0.237035	0.060689
O33	O	-1.446016	-0.736974	-0.567658
O34	O	-0.946016	-0.236974	-0.067658
C35	C	-1.238750	-0.503383	-0.503492
C36	C	-0.738750	-0.003383	-0.003492
C37	C	-1.122597	-0.503396	-0.503504
C38	C	-0.622597	-0.003396	-0.003504
C39	C	-1.070851	-0.439967	-0.567129
C40	C	-0.570851	0.060033	-0.067129
C41	C	-0.950800	-0.439979	-0.567143
C42	C	-0.450800	0.060021	-0.067143
C43	C	-1.510195	-0.774922	-0.503502
C44	C	-1.010195	-0.274922	-0.003502
C45	C	-1.510262	-0.891075	-0.503528
C46	C	-1.010262	-0.391075	-0.003528
C47	C	-0.782830	-0.503432	-0.503542
C48	C	-0.282830	-0.003432	-0.003542
C49	C	-0.898983	-0.503419	-0.503530
C50	C	-0.398983	-0.003419	-0.003530
C51	C	-1.573768	-0.942759	-0.567109
C52	C	-1.073768	-0.442759	-0.067109
C53	C	-1.573839	-1.062810	-0.567139
C54	C	-1.073839	-0.562810	-0.067139
C55	C	-1.510331	-0.503311	-0.776091
C56	C	-1.010331	-0.003311	-0.276091
C57	C	-1.510362	-0.503269	-0.892245
C58	C	-1.010362	-0.003269	-0.392245
C59	C	-1.510354	-0.230841	-0.503563
C60	C	-1.010354	0.269159	-0.003563
C61	C	-1.510394	-0.114688	-0.503581
C62	C	-1.010394	0.385312	-0.003581
C63	C	-1.573907	-0.439746	-0.944046
C64	C	-1.073907	0.060254	-0.444046
C65	C	-1.573940	-0.439700	-1.064097
C66	C	-1.073940	0.060300	-0.564097
C67	C	-1.510249	-0.503436	-0.232011
C68	C	-1.010249	-0.003436	0.267989
C69	C	-1.510422	-0.503185	-0.115859
C70	C	-1.010422	-0.003185	0.384141
H71	H	-1.078022	-0.557707	-0.449042
H72	H	-0.578022	-0.057707	0.050958
F73	F	-1.439259	-0.949400	-0.432410
F74	F	-0.939259	-0.449400	0.067590
F75	F	-1.439329	-1.056602	-0.432421
F76	F	-0.939329	-0.556602	0.067579
H77	H	-1.628212	-1.107258	-0.621569
H78	H	-1.128212	-0.607258	-0.121569
F79	F	-1.645058	-0.368619	-1.122320
F80	F	-1.145058	0.131381	-0.622320
F81	F	-1.644756	-0.884434	-0.638243
F82	F	-1.144756	-0.384434	-0.138243
F83	F	-1.644967	-0.368682	-0.885851
F84	F	-1.144967	0.131318	-0.385851
H85	H	-1.456019	-0.557575	-1.071317
H86	H	-0.956019	-0.057575	-0.571317
H87	H	-0.906300	-0.385678	-0.621617
H88	H	-0.406300	0.114322	-0.121617
F89	F	-1.439275	-0.574306	-0.950440
F90	F	-0.939275	-0.074306	-0.450440
H91	H	-0.943477	-0.557732	-0.449062
H92	H	-0.443477	-0.057732	0.050938
H93	H	-1.115425	-0.385650	-0.621585
H94	H	-0.615425	0.114350	-0.121585
