data_functionalizedCrystal
_audit_creation_method	'MofGen! by Chris Wilmer'
_symmetry_space_group_name_H-M	'P1'
_symmetry_Int_Tables_number	1
_symmetry_cell_setting	triclinic
loop_
_symmetry_equiv_pos_as_xyz
  x,y,z
_cell_length_a	16.992695
_cell_length_b	19.288864
_cell_length_c	18.366186
_cell_angle_alpha	90.022894
_cell_angle_beta	89.993794
_cell_angle_gamma	93.097766
loop_
_atom_site_label
_atom_site_type_symbol
_atom_site_fract_x
_atom_site_fract_y
_atom_site_fract_z
O1	O	0.097795	-0.927052	-0.060785
O2	O	0.597795	-0.427052	0.439215
O3	O	0.110988	-0.725561	-0.060736
O4	O	0.610988	-0.225561	0.439264
O5	O	-0.009748	-0.825499	-0.060755
O6	O	0.490252	-0.325499	0.439245
O7	O	0.218531	-0.827114	-0.060767
O8	O	0.718531	-0.327114	0.439233
O9	O	-0.009754	-0.825480	0.060345
O10	O	0.490246	-0.325480	0.560345
O11	O	0.110982	-0.725542	0.060363
O12	O	0.610982	-0.225542	0.560363
O13	O	0.097789	-0.927034	0.060314
O14	O	0.597789	-0.427034	0.560314
Zn15	Zn	0.104385	-0.826285	0.079566
Zn16	Zn	0.604385	-0.326285	0.579566
Zn17	Zn	0.104392	-0.826309	-0.079988
Zn18	Zn	0.604392	-0.326309	0.420012
O19	O	0.218525	-0.827096	0.060333
O20	O	0.718525	-0.327096	0.560333
C21	C	0.110560	-0.699650	-0.000180
C22	C	0.610560	-0.199650	0.499820
C23	C	0.109286	-0.622472	-0.000161
C24	C	0.609286	-0.122472	0.499839
C25	C	-0.038957	-0.823411	-0.000205
C26	C	0.461043	-0.323411	0.499795
C27	C	-0.125979	-0.817211	-0.000203
C28	C	0.374021	-0.317211	0.499797
C29	C	0.098217	-0.952944	-0.000244
C30	C	0.598217	-0.452944	0.499756
C31	C	0.099491	-1.030122	-0.000268
C32	C	0.599491	-0.530122	0.499732
C33	C	-0.176431	-0.877039	-0.000217
C34	C	0.323569	-0.377039	0.499783
C35	C	-0.258197	-0.871208	-0.000223
C36	C	0.241803	-0.371208	0.499777
C37	C	-0.289509	-0.805549	-0.000209
C38	C	0.210491	-0.305549	0.499791
C39	C	-0.239051	-0.745717	-0.000197
C40	C	0.260949	-0.245717	0.499803
C41	C	-0.157287	-0.751548	-0.000197
C42	C	0.342713	-0.251548	0.499803
C43	C	-0.533022	-0.781382	-0.000213
C44	C	-0.033022	-0.281382	0.499787
C45	C	-0.614793	-0.775556	-0.000211
C46	C	-0.114793	-0.275556	0.499789
C47	C	-0.633933	-0.901048	-0.000238
C48	C	-0.133933	-0.401048	0.499762
C49	C	-0.552166	-0.906873	-0.000233
C50	C	-0.052166	-0.406873	0.499767
C51	C	-0.501715	-0.847041	-0.000225
C52	C	-0.001715	-0.347041	0.499775
N53	N	-0.373087	-0.799588	-0.000212
N54	N	0.126913	-0.299588	0.499788
N55	N	-0.418138	-0.853002	-0.000227
N56	N	0.081862	-0.353002	0.499773
C57	C	0.247733	-0.829183	-0.000219
C58	C	0.747733	-0.329183	0.499781
C59	C	0.334756	-0.835384	-0.000225
C60	C	0.834756	-0.335384	0.499775
N61	N	0.104379	-0.826273	0.188457
N62	N	0.604379	-0.326273	0.688457
C63	C	0.180128	-0.581905	-0.000176
C64	C	0.680128	-0.081905	0.499824
C65	C	0.178931	-0.509388	-0.000184
C66	C	0.678931	-0.009388	0.499816
C67	C	0.106888	-0.477442	-0.000191
C68	C	0.606888	0.022558	0.499809
C69	C	0.036036	-0.518018	-0.000172
C70	C	0.536036	-0.018018	0.499828
C71	C	0.037235	-0.590534	-0.000157
C72	C	0.537235	-0.090534	0.499843
C73	C	0.050255	-0.365885	-0.042639
C74	C	0.550255	0.134115	0.457361
C75	C	0.049059	-0.293371	-0.042659
C76	C	0.549059	0.206629	0.457341
C77	C	0.103186	-0.253780	-0.000235
C78	C	0.603186	0.246220	0.499765
C79	C	0.158522	-0.286712	0.042199
C80	C	0.658522	0.213288	0.542199
C81	C	0.159722	-0.359227	0.042214
C82	C	0.659722	0.140773	0.542214
C83	C	0.105579	-0.398811	-0.000207
C84	C	0.605579	0.101189	0.499793
C85	C	0.172735	-0.134581	-0.000258
C86	C	0.672735	0.365419	0.499742
C87	C	0.171535	-0.062063	-0.000261
C88	C	0.671535	0.437937	0.499739
C89	C	0.028638	-0.070695	-0.000257
C90	C	0.528638	0.429305	0.499743
C91	C	0.029840	-0.143212	-0.000246
C92	C	0.529840	0.356788	0.499754
C93	C	0.101891	-0.175150	-0.000250
C94	C	0.601891	0.324850	0.499750
N95	N	0.104392	-0.826326	-0.188879
N96	N	0.604392	-0.326326	0.311121
C97	C	0.050943	-0.870543	0.226549
C98	C	0.550943	-0.370543	0.726549
C99	C	0.050940	-0.870547	0.302777
C100	C	0.550940	-0.370547	0.802777
C101	C	0.104385	-0.826289	0.340910
C102	C	0.604385	-0.326289	0.840910
C103	C	0.157825	-0.782011	0.302808
C104	C	0.657825	-0.282011	0.802808
C105	C	0.157822	-0.782003	0.226582
C106	C	0.657822	-0.282003	0.726582
C107	C	0.175814	-0.821154	0.461668
C108	C	0.675814	-0.321154	0.961668
C109	C	0.175819	-0.821167	0.537893
C110	C	0.675819	-0.321167	1.037893
C111	C	0.104395	-0.826310	0.576017
C112	C	0.604395	-0.326310	1.076017
C113	C	0.032964	-0.831454	0.537908
C114	C	0.532964	-0.331454	1.037908
C115	C	0.032961	-0.831446	0.461681
C116	C	0.532961	-0.331446	0.961681
C117	C	0.104394	-0.826293	0.423564
C118	C	0.604394	-0.326293	0.923564
C119	C	0.050951	-0.870586	0.696764
C120	C	0.550951	-0.370586	1.196764
C121	C	0.050947	-0.870585	0.772994
C122	C	0.550947	-0.370585	1.272994
C123	C	0.157839	-0.782053	0.773024
C124	C	0.657839	-0.282053	1.273024
C125	C	0.157837	-0.782050	0.696796
C126	C	0.657837	-0.282050	1.196796
C127	C	0.104394	-0.826320	0.658671
C128	C	0.604394	-0.326320	1.158671
H129	H	-0.150943	-0.930505	-0.000224
H130	H	0.349057	-0.430505	0.499776
Br131	Br	-0.021587	-0.930620	0.174807
Br132	Br	0.478413	-0.430620	0.674807
H133	H	-0.020455	-0.623564	-0.000145
H134	H	0.479545	-0.123564	0.499855
H135	H	-0.675018	-0.949760	-0.000246
H136	H	-0.175018	-0.449760	0.499754
H137	H	-0.299272	-0.919927	-0.000232
H138	H	0.200728	-0.419927	0.499768
H139	H	0.233980	-0.816954	0.430633
H140	H	0.733980	-0.316954	0.930633
H141	H	0.202597	-0.254478	0.076745
H142	H	0.702597	0.245522	0.576745
Br143	Br	-0.509676	-0.995985	-0.000275
Br144	Br	-0.009676	-0.495985	0.499725
H145	H	-0.640283	-0.722085	-0.000188
H146	H	-0.140283	-0.222085	0.499812
H147	H	0.204776	-0.386037	0.076768
H148	H	0.704776	0.113963	0.576768
H149	H	-0.491954	-0.732662	-0.000206
H150	H	0.008046	-0.232662	0.499794
H151	H	-0.264552	-0.692255	-0.000191
H152	H	0.235448	-0.192255	0.499809
Br153	Br	-0.088815	-0.670349	-0.000184
Br154	Br	0.411185	-0.170349	0.499816
Br155	Br	-0.069138	-0.027348	-0.000255
Br156	Br	0.430862	0.472652	0.499745
Br157	Br	0.270516	-0.177931	-0.000258
Br158	Br	0.770516	0.322069	0.499742
H159	H	0.201340	-0.745974	0.333860
H160	H	0.701340	-0.245974	0.833860
Br161	Br	0.230346	-0.721918	0.174881
Br162	Br	0.730346	-0.221918	0.674881
H163	H	0.238798	-0.607904	-0.000180
H164	H	0.738798	-0.107904	0.499820
H165	H	0.229226	-0.029034	-0.000270
H166	H	0.729226	0.470966	0.499730
H167	H	0.007424	-0.906598	0.333797
H168	H	0.507424	-0.406598	0.833797
Br169	Br	-0.066309	-0.198272	-0.000227
Br170	Br	0.433691	0.301728	0.499773
Br171	Br	0.275081	-0.454320	-0.000200
Br172	Br	0.775081	0.045680	0.499800
H173	H	0.004004	-0.266564	-0.077214
H174	H	0.504004	0.233436	0.422786
Br175	Br	-0.063976	-0.838421	0.409962
Br176	Br	0.436024	-0.338421	0.909962
H177	H	0.006177	-0.398115	-0.077190
H178	H	0.506177	0.101885	0.422810
H179	H	-0.022623	-0.492003	-0.000188
H180	H	0.477377	0.007997	0.499812
Br181	Br	-0.063975	-0.838443	0.589638
Br182	Br	0.436025	-0.338443	1.089638
Br183	Br	-0.021580	-0.930664	0.645021
Br184	Br	0.478420	-0.430664	1.145021
H185	H	0.007429	-0.906633	0.804009
H186	H	0.507429	-0.406633	1.304009
Br187	Br	0.230365	-0.721980	0.824769
Br188	Br	0.730365	-0.221980	1.324769
H189	H	0.201352	-0.746004	0.665779
H190	H	0.701352	-0.246004	1.165779
Br191	Br	0.272759	-0.814193	0.589605
Br192	Br	0.772759	-0.314193	1.089605
