data_functionalizedCrystal
_audit_creation_method	'MofGen! by Chris Wilmer'
_symmetry_space_group_name_H-M	'P1'
_symmetry_Int_Tables_number	1
_symmetry_cell_setting	triclinic
loop_
_symmetry_equiv_pos_as_xyz
  x,y,z
_cell_length_a	19.077068
_cell_length_b	18.215407
_cell_length_c	18.215399
_cell_angle_alpha	89.982223
_cell_angle_beta	87.731836
_cell_angle_gamma	87.677405
loop_
_atom_site_label
_atom_site_type_symbol
_atom_site_fract_x
_atom_site_fract_y
_atom_site_fract_z
Zn1	Zn	-0.280290	-1.113284	0.427832
Zn2	Zn	-0.397991	-1.108243	0.309703
Zn3	Zn	-0.280303	-0.990216	0.304785
Zn4	Zn	-0.397942	-0.985235	0.432730
O5	O	-0.339132	-1.049244	0.368763
O6	O	-0.295918	-1.215599	0.412171
O7	O	-0.382406	-1.092561	0.206068
O8	O	-0.181811	-1.010736	0.316999
O9	O	-0.382393	-1.211895	0.325382
O10	O	-0.181801	-1.101154	0.407402
O11	O	-0.295941	-1.005847	0.202454
O12	O	-0.295893	-0.886572	0.321749
O13	O	-0.382309	-1.002246	0.535064
O14	O	-0.382322	-0.882912	0.415750
O15	O	-0.295871	-1.096323	0.531465
O16	O	-0.496476	-1.087731	0.330131
O17	O	-0.496440	-0.997357	0.420519
C18	C	-0.339104	-0.858039	0.368747
C19	C	-0.339110	-0.776240	0.368759
C20	C	-0.294169	-0.589970	0.414027
C21	C	-0.294173	-0.513111	0.414029
C22	C	-0.384084	-0.509271	0.323504
C23	C	-0.384076	-0.586129	0.323499
C24	C	-0.339120	-0.626476	0.368764
C25	C	-0.339131	-0.472760	0.368772
C26	C	-0.339136	-0.389426	0.368774
C27	C	-0.339114	-0.709815	0.368761
C28	C	-0.521995	-1.041476	0.376406
C29	C	-0.600225	-1.038220	0.379701
C30	C	-0.636973	-1.083780	0.334228
C31	C	-0.710478	-1.080722	0.337331
C32	C	-0.747234	-1.032100	0.385904
C33	C	-0.710481	-0.986539	0.431382
C34	C	-0.636977	-0.989601	0.428282
C35	C	-0.967067	-1.017896	0.400221
C36	C	-1.040576	-1.014835	0.403315
C37	C	-1.040569	-1.109020	0.309265
C38	C	-0.967063	-1.112074	0.306166
C39	C	-0.930317	-1.066516	0.351647
N40	N	-0.822368	-1.028971	0.389075
N41	N	-0.855184	-1.069649	0.348479
C42	C	-0.155554	-1.057063	0.361105
C43	C	-0.077324	-1.060395	0.357842
C44	C	-0.339083	-1.049291	0.560714
C45	C	-0.339063	-1.049311	0.642512
C46	C	-0.339152	-0.241196	0.368777
C47	C	-0.339141	-0.322996	0.368777
C48	C	-0.339129	-1.049242	0.177556
C49	C	-0.338952	-1.049373	0.095750
C50	C	-0.294012	-1.098316	0.828831
C51	C	-0.293991	-1.098326	0.905689
C52	C	-0.384004	-1.000363	0.909425
C53	C	-0.384021	-1.000350	0.832569
C54	C	-0.339026	-1.049331	0.792274
C55	C	-0.338989	-1.049353	0.945988
C56	C	-0.338967	-1.049363	1.029321
C57	C	-0.339046	-1.049320	0.708936
H58	H	-0.607051	-1.123369	0.294671
H59	H	-0.420639	-0.960486	0.942243
H60	H	-0.257336	-1.138213	0.935451
H61	H	-0.257568	-0.483392	0.450885
H62	H	-0.420686	-0.476411	0.286651
C63	C	-0.244510	-1.152190	0.784509
N64	N	-0.207221	-1.192767	0.751128
C65	C	-0.750898	-1.130836	0.287302
N66	N	-0.781341	-1.168584	0.249616
H67	H	-0.420681	-0.615852	0.286637
H68	H	-0.937138	-1.151666	0.266614
C69	C	-0.433540	-0.946458	0.792353
N70	N	-0.470834	-0.905866	0.762062
H71	H	-0.740413	-0.946953	0.470934
H72	H	-0.607058	-0.952503	0.465312
H73	H	-1.070496	-1.146112	0.272238
C74	C	-0.244710	-0.634350	0.463813
N75	N	-0.207453	-0.667775	0.501311
H76	H	-1.070501	-0.975250	0.442882
C77	C	-0.926656	-0.967817	0.450289
N78	N	-0.896215	-0.930109	0.488017
