data_functionalizedCrystal
_audit_creation_method	'MofGen! by Chris Wilmer'
_symmetry_space_group_name_H-M	'P1'
_symmetry_Int_Tables_number	1
_symmetry_cell_setting	triclinic
loop_
_symmetry_equiv_pos_as_xyz
  x,y,z
_cell_length_a	17.640280
_cell_length_b	18.215407
_cell_length_c	18.215399
_cell_angle_alpha	89.980167
_cell_angle_beta	101.224603
_cell_angle_gamma	101.199291
loop_
_atom_site_label
_atom_site_type_symbol
_atom_site_fract_x
_atom_site_fract_y
_atom_site_fract_z
Zn1	Zn	-0.314661	-1.184366	0.356963
Zn2	Zn	0.018673	-0.851032	0.690296
Zn3	Zn	0.352006	-0.517699	1.023629
Zn4	Zn	-0.446838	-1.209181	0.209048
Zn5	Zn	-0.113505	-0.875848	0.542382
Zn6	Zn	0.219829	-0.542514	0.875715
Zn7	Zn	-0.314687	-1.061303	0.233905
Zn8	Zn	0.018647	-0.727970	0.567239
Zn9	Zn	0.351980	-0.394636	0.900572
Zn10	Zn	-0.446794	-1.086163	0.332082
Zn11	Zn	-0.113461	-0.752829	0.665415
Zn12	Zn	0.219873	-0.419496	0.998748
O13	O	-0.380745	-1.135253	0.282999
O14	O	-0.047412	-0.801920	0.616333
O15	O	0.285922	-0.468586	0.949666
O16	O	-0.332202	-1.290643	0.337352
O17	O	0.001131	-0.957310	0.670685
O18	O	0.334465	-0.623976	1.004018
O19	O	-0.429337	-1.189546	0.109356
O20	O	-0.096004	-0.856213	0.442689
O21	O	0.237329	-0.522879	0.776023
O22	O	-0.204079	-1.056838	0.271045
O23	O	0.129254	-0.723505	0.604378
O24	O	0.462587	-0.390172	0.937711
O25	O	-0.429312	-1.308875	0.228680
O26	O	-0.095979	-0.975542	0.562013
O27	O	0.237355	-0.642208	0.895346
O28	O	-0.204060	-1.147252	0.361454
O29	O	0.129273	-0.813918	0.694788
O30	O	0.462606	-0.480585	1.028121
O31	O	-0.332246	-1.080901	0.127618
O32	O	0.001087	-0.747567	0.460951
O33	O	0.334421	-0.414234	0.794285
O34	O	-0.332203	-0.961615	0.246918
O35	O	0.001130	-0.628282	0.580252
O36	O	0.334463	-0.294948	0.913585
O37	O	-0.429237	-1.099208	0.438372
O38	O	-0.095904	-0.765875	0.771705
O39	O	0.237430	-0.432541	1.105039
O40	O	-0.429262	-0.979879	0.319048
O41	O	-0.095929	-0.646546	0.652381
O42	O	0.237404	-0.313213	0.985715
O43	O	-0.332159	-1.171357	0.456652
O44	O	0.001174	-0.838024	0.789985
O45	O	0.334507	-0.504691	1.123319
O46	O	-0.557436	-1.213652	0.204553
O47	O	-0.224103	-0.880318	0.537887
O48	O	0.109230	-0.546985	0.871220
O49	O	-0.557404	-1.123271	0.294945
O50	O	-0.224071	-0.789937	0.628279
O51	O	0.109263	-0.456604	0.961612
C52	C	-0.586099	-1.173871	0.244368
C53	C	-0.252765	-0.840538	0.577702
C54	C	0.080568	-0.507205	0.911035
C55	C	-0.673950	-1.190460	0.227866
C56	C	-0.340616	-0.857127	0.561200
C57	C	-0.007283	-0.523793	0.894533
C58	C	-0.380731	-0.944044	0.282981
C59	C	-0.047398	-0.610711	0.616314
C60	C	0.285935	-0.277378	0.949648
C61	C	-0.380745	-0.862248	0.282987
C62	C	-0.047411	-0.528915	0.616320
C63	C	0.285922	-0.195581	0.949653
C64	C	-0.380690	-1.135288	0.474963
C65	C	-0.047357	-0.801954	0.808296
C66	C	0.285976	-0.468621	1.141629
C67	C	-0.380667	-1.135302	0.556766
C68	C	-0.047334	-0.801969	0.890099
C69	C	0.285999	-0.468636	1.223433
C70	C	-0.962935	-1.009534	0.408631
C71	C	-0.629601	-0.676201	0.741964
C72	C	-0.296268	-0.342868	1.075297
C73	C	-1.045484	-1.025123	0.393101
C74	C	-0.712151	-0.691790	0.726435
C75	C	-0.378817	-0.358457	1.059768
C76	C	-1.045452	-1.119295	0.299071
C77	C	-0.712119	-0.785962	0.632405
C78	C	-0.378786	-0.452629	0.965738
C79	C	-0.962901	-1.103717	0.314596
C80	C	-0.629568	-0.770384	0.647929
C81	C	-0.296234	-0.437050	0.981262
C82	C	-0.921649	-1.048835	0.369375
C83	C	-0.588315	-0.715502	0.702709
C84	C	-0.254982	-0.382168	1.036042
C85	C	-0.921615	-1.143018	0.275340
C86	C	-0.588282	-0.809684	0.608674
C87	C	-0.254949	-0.476351	0.942007
C88	C	-0.839071	-1.127438	0.290861
C89	C	-0.505738	-0.794104	0.624194
C90	C	-0.172405	-0.460771	0.957527
C91	C	-0.797813	-1.072557	0.345636
C92	C	-0.464480	-0.739223	0.678970
C93	C	-0.131146	-0.405890	1.012303
C94	C	-0.839105	-1.033255	0.384896
C95	C	-0.505771	-0.699922	0.718229
C96	C	-0.172438	-0.366588	1.051563
C97	C	-0.962869	-1.197896	0.220557
C98	C	-0.629536	-0.864562	0.553890
C99	C	-0.296202	-0.531229	0.887223
C100	C	-0.921583	-1.237196	0.181301
C101	C	-0.588250	-0.903863	0.514635
C102	C	-0.254917	-0.570530	0.847968
C103	C	-0.839038	-1.221620	0.196825
C104	C	-0.505704	-0.888287	0.530159
C105	C	-0.172371	-0.554953	0.863492
C106	C	-0.797780	-1.166739	0.251601
C107	C	-0.464446	-0.833406	0.584935
C108	C	-0.131113	-0.500073	0.918268
C109	C	-0.797746	-1.260922	0.157566
C110	C	-0.464413	-0.927589	0.490899
C111	C	-0.131079	-0.594255	0.824233
C112	C	-0.715202	-1.245342	0.173086
C113	C	-0.381869	-0.912008	0.506420
C114	C	-0.048535	-0.578675	0.839753
C115	C	-0.715236	-1.151159	0.267122
C116	C	-0.381902	-0.817826	0.600455
C117	C	-0.048569	-0.484493	0.933788
C118	C	-0.174589	-1.096504	0.321798
C119	C	0.158744	-0.763171	0.655131
C120	C	0.492077	-0.429837	0.988464
C121	C	-0.086738	-1.079991	0.338331
C122	C	0.246595	-0.746658	0.671664
C123	C	0.579928	-0.413325	1.004998
C124	C	-0.380759	-1.327209	0.283018
C125	C	-0.047426	-0.993875	0.616352
C126	C	0.285908	-0.660542	0.949685
C127	C	-0.380765	-1.409009	0.283027
C128	C	-0.047432	-1.075675	0.616360
C129	C	0.285902	-0.742342	0.949693
C130	C	-0.431363	-0.683598	0.320471
C131	C	-0.098029	-0.350265	0.653804
C132	C	0.235304	-0.016932	0.987137
C133	C	-0.431365	-0.606740	0.320479
C134	C	-0.098032	-0.273407	0.653813
C135	C	0.235302	0.059927	0.987146
C136	C	-0.330142	-0.587662	0.245542
C137	C	0.003192	-0.254329	0.578875
C138	C	0.336525	0.079004	0.912208
C139	C	-0.330136	-0.664519	0.245538
C140	C	0.003198	-0.331185	0.578871
C141	C	0.336531	0.002148	0.912204
C142	C	-0.380751	-0.712485	0.283000
C143	C	-0.047417	-0.379152	0.616334
C144	C	0.285916	-0.045819	0.949667
C145	C	-0.380759	-0.558771	0.283013
C146	C	-0.047426	-0.225438	0.616346
C147	C	0.285908	0.107896	0.949680
C148	C	-0.380761	-0.475438	0.283022
C149	C	-0.047428	-0.142104	0.616355
C150	C	0.285905	0.191229	0.949689
C151	C	-0.380748	-0.795824	0.282993
C152	C	-0.047414	-0.462491	0.616326
C153	C	0.285919	-0.129157	0.949659
C154	C	-0.380742	-1.135250	0.091794
C155	C	-0.047409	-0.801917	0.425127
C156	C	0.285924	-0.468584	0.758460
C157	C	-0.380543	-1.135336	0.010033
C158	C	-0.047209	-0.802003	0.343366
C159	C	0.286124	-0.468669	0.676699
C160	C	-0.330072	-1.172878	0.754489
C161	C	0.003262	-0.839545	1.087822
C162	C	0.336595	-0.506212	1.421155
C163	C	-0.330049	-1.172883	0.831352
C164	C	0.003285	-0.839550	1.164685
C165	C	0.336618	-0.506216	1.498018
C166	C	-0.431141	-1.097755	0.812304
C167	C	-0.097807	-0.764422	1.145638
C168	C	0.235526	-0.431089	1.478971
C169	C	-0.431159	-1.097747	0.735444
C170	C	-0.097826	-0.764413	1.068777
C171	C	0.235508	-0.431080	1.402110
C172	C	-0.380626	-1.135313	0.706537
C173	C	-0.047292	-0.801979	1.039871
C174	C	0.286041	-0.468646	1.373204
C175	C	-0.380584	-1.135326	0.860261
C176	C	-0.047251	-0.801992	1.193595
C177	C	0.286082	-0.468659	1.526928
C178	C	-0.380560	-1.135330	0.943600
C179	C	-0.047226	-0.801997	1.276933
C180	C	0.286107	-0.468664	1.610266
C181	C	-0.380649	-1.135307	0.623194
C182	C	-0.047316	-0.801974	0.956527
C183	C	0.286018	-0.468641	1.289861
H184	H	-0.681646	-1.106474	0.311735
H185	H	-0.348313	-0.773141	0.645068
H186	H	-0.014980	-0.439808	0.978401
Br187	Br	-0.261442	-1.223874	0.896425
Br188	Br	0.071891	-0.890540	1.229759
Br189	Br	0.405225	-0.557207	1.563092
H190	H	-0.730600	-1.059867	0.358267
H191	H	-0.397267	-0.726534	0.691600
H192	H	-0.063934	-0.393201	1.024934
H193	H	-0.955182	-1.281879	0.136698
H194	H	-0.621849	-0.948546	0.470031
H195	H	-0.288516	-0.615212	0.803364
H196	H	-0.288934	-0.548599	0.215039
H197	H	0.044399	-0.215266	0.548373
H198	H	0.377733	0.118068	0.881706
Br199	Br	-0.261435	-0.703725	0.194690
Br200	Br	0.071898	-0.370392	0.528023
Br201	Br	0.405231	-0.037059	0.861357
H202	H	-0.472326	-1.067151	0.696400
H203	H	-0.138992	-0.733818	1.029733
H204	H	0.194341	-0.400484	1.363067
H205	H	-0.288922	-1.203465	0.730956
H206	H	0.044411	-0.870131	1.064290
H207	H	0.377745	-0.536798	1.397623
Br208	Br	-0.500052	-0.567539	0.371339
Br209	Br	-0.166719	-0.234205	0.704672
Br210	Br	0.166615	0.099128	1.038005
Br211	Br	-0.783111	-0.958781	0.459250
Br212	Br	-0.449778	-0.625447	0.792584
Br213	Br	-0.116445	-0.292114	1.125917
Br214	Br	-0.906941	-0.935060	0.482985
Br215	Br	-0.573608	-0.601727	0.816319
Br216	Br	-0.240275	-0.268394	1.149652
Br217	Br	-0.499721	-1.046779	0.851539
Br218	Br	-0.166388	-0.713445	1.184872
Br219	Br	0.166946	-0.380112	1.518205
H220	H	-1.079096	-0.993124	0.425081
H221	H	-0.745763	-0.659791	0.758414
H222	H	-0.412429	-0.326458	1.091747
H223	H	-1.079051	-1.163978	0.254467
H224	H	-0.745718	-0.830645	0.587801
H225	H	-0.412385	-0.497311	0.921134
Br226	Br	-1.074895	-1.219068	0.199521
Br227	Br	-0.741561	-0.885735	0.532854
Br228	Br	-0.408228	-0.552402	0.866187
H229	H	-0.681587	-1.277344	0.141120
H230	H	-0.348254	-0.944011	0.474453
H231	H	-0.014920	-0.610677	0.807786
Br232	Br	-0.853741	-1.335394	0.083218
Br233	Br	-0.520408	-1.002061	0.416551
Br234	Br	-0.187074	-0.668728	0.749885
Br235	Br	-0.500052	-0.748694	0.371315
Br236	Br	-0.166719	-0.415360	0.704648
Br237	Br	0.166615	-0.082027	1.037981
