data_functionalizedCrystal
_audit_creation_method	'MofGen! by Chris Wilmer'
_symmetry_space_group_name_H-M	'P1'
_symmetry_Int_Tables_number	1
_symmetry_cell_setting	triclinic
loop_
_symmetry_equiv_pos_as_xyz
  x,y,z
_cell_length_a	14.853567
_cell_length_b	10.967926
_cell_length_c	13.330367
_cell_angle_alpha	102.121537
_cell_angle_beta	90.001398
_cell_angle_gamma	84.184248
loop_
_atom_site_label
_atom_site_type_symbol
_atom_site_fract_x
_atom_site_fract_y
_atom_site_fract_z
O1	O	0.126445	1.655859	0.202850
O2	O	0.138548	1.292597	0.140048
O3	O	0.001318	1.483931	0.173124
O4	O	0.263675	1.464525	0.169775
O5	O	0.001321	1.483902	0.339966
O6	O	0.138551	1.292567	0.306890
O7	O	0.126448	1.655830	0.369692
Cu8	Cu	0.132499	1.474196	0.353525
Cu9	Cu	0.132496	1.474231	0.156215
O10	O	0.263678	1.464495	0.336617
C11	C	0.137669	1.246093	0.215432
C12	C	0.135033	1.107570	0.191484
C13	C	0.133860	1.045797	0.267236
C14	C	0.131136	0.902626	0.242485
C15	C	-0.032274	1.483037	0.256390
C16	C	-0.132372	1.480402	0.255926
C17	C	-0.545565	1.355607	0.234370
C18	C	-0.565645	1.582916	0.273668
C19	C	-0.471598	1.585394	0.274090
C20	C	-0.414530	1.472976	0.254653
C21	C	-0.451509	1.358081	0.234795
C22	C	-0.434613	1.700287	0.293959
C23	C	-0.340560	1.702770	0.294383
C24	C	-0.283490	1.590350	0.274939
C25	C	-0.320474	1.475450	0.255078
C26	C	-0.263406	1.363033	0.235642
C27	C	-0.300388	1.248131	0.215774
C28	C	-0.394439	1.245662	0.215351
C29	C	-0.189440	1.592820	0.275362
C30	C	-0.169350	1.365507	0.236067
C31	C	0.297270	1.465389	0.253349
C32	C	0.397367	1.468024	0.253806
C33	C	0.127327	1.702334	0.294306
C34	C	0.129962	1.840856	0.318248
N35	N	0.132501	1.474181	0.492304
N36	N	0.132487	1.474256	0.017438
C37	C	0.077322	1.398416	0.531730
C38	C	0.187676	1.549961	0.557910
C39	C	0.187676	1.549975	0.662930
C40	C	0.132496	1.474211	0.702356
C41	C	0.077317	1.398431	0.636760
C42	C	0.242847	1.625763	0.728535
C43	C	0.242848	1.625781	0.833563
C44	C	0.187673	1.550009	0.872989
C45	C	0.132492	1.474226	0.807387
C46	C	0.077312	1.398461	0.846812
C47	C	0.022136	1.322670	0.781210
C48	C	0.022142	1.322659	0.676186
C49	C	0.187667	1.550020	0.978013
C50	C	0.077308	1.398476	0.951843
H51	H	-0.122891	1.273961	0.220234
H52	H	0.032378	1.336773	0.983933
H53	H	0.130122	0.849524	0.159303
O54	O	-0.304491	1.814270	0.313696
C55	C	-0.168504	1.918829	0.331685
C56	C	-0.209234	1.792470	0.309828
H57	H	-0.091483	1.901247	0.328544
H58	H	-0.191873	1.974403	0.411133
H59	H	-0.192013	1.974392	0.271481
H60	H	-0.185744	1.736805	0.369967
H61	H	-0.185869	1.736991	0.230350
H62	H	-0.481084	1.791811	0.309792
H63	H	0.134019	1.054463	0.108306
O64	O	0.131209	0.904380	0.417430
C65	C	0.134962	1.105013	0.532531
C66	C	0.133577	1.033226	0.420166
H67	H	0.136858	1.209201	0.534780
H68	H	0.197476	1.068271	0.571074
H69	H	0.071507	1.090713	0.574931
H70	H	0.196988	1.047495	0.377680
H71	H	0.071022	1.069982	0.381701
O72	O	-0.244819	1.139047	0.196871
C73	C	-0.091021	1.042142	0.180186
C74	C	-0.153852	1.165766	0.201584
H75	H	-0.017461	1.063701	0.184010
H76	H	-0.104485	0.985604	0.100567
H77	H	-0.104610	0.985590	0.240215
H78	H	-0.140299	1.222418	0.141619
H79	H	-0.140374	1.222209	0.281232
O80	O	-0.430512	1.134164	0.196125
C81	C	-0.566506	1.029621	0.178013
C82	C	-0.525769	1.155975	0.199818
H83	H	-0.643526	1.047211	0.180970
H84	H	-0.543122	0.974033	0.238245
H85	H	-0.543019	0.974068	0.098600
H86	H	-0.549237	1.211630	0.279201
H87	H	-0.549150	1.211468	0.139524
H88	H	-0.612115	1.674442	0.289500
H89	H	-0.159333	1.686371	0.291545
H90	H	-0.575680	1.262057	0.218189
O91	O	-0.031382	1.249108	0.819672
C92	C	-0.080269	1.181954	0.969872
C93	C	-0.019602	1.265296	0.926442
H94	H	-0.070781	1.195032	1.056205
H95	H	-0.060886	1.079508	0.931558
H96	H	-0.154111	1.209689	0.954008
H97	H	0.054257	1.237672	0.942295
H98	H	-0.039063	1.367721	0.964759
O99	O	-0.031439	1.249174	0.612330
C100	C	-0.080319	1.181971	0.438924
C101	C	-0.019606	1.265262	0.511133
H102	H	-0.070759	1.194929	0.357089
H103	H	-0.154183	1.209679	0.464286
H104	H	-0.060913	1.079562	0.441939
H105	H	-0.038931	1.367694	0.508154
H106	H	0.054243	1.237447	0.485749
O107	O	0.296413	1.699249	0.690065
C108	C	0.345272	1.766451	0.539875
C109	C	0.284581	1.683139	0.583307
H110	H	0.335713	1.753475	0.453560
H111	H	0.419141	1.738777	0.555671
H112	H	0.325844	1.868857	0.578265
H113	H	0.303929	1.580709	0.544944
H114	H	0.210728	1.710919	0.567524
H115	H	0.032401	1.336705	0.478311
H116	H	0.232596	1.611652	0.525804
O117	O	0.296534	1.699426	0.897132
C118	C	0.405957	1.849787	0.912015
C119	C	0.345215	1.766429	0.839905
H120	H	0.445318	1.904000	0.865779
H121	H	0.455406	1.788564	0.950581
H122	H	0.362059	1.918576	0.973093
H123	H	0.389041	1.697628	0.778770
H124	H	0.295761	1.827730	0.801415
O125	O	0.241339	1.623671	1.041587
C126	C	0.350743	1.774059	1.056479
C127	C	0.290016	1.690683	0.984363
H128	H	0.390100	1.828280	1.010245
H129	H	0.400196	1.712848	1.095052
H130	H	0.306835	1.842841	1.117551
H131	H	0.333852	1.621889	0.923234
H132	H	0.240558	1.751972	0.945867
H133	H	0.134866	1.098905	0.350413
