data_functionalizedCrystal
_audit_creation_method	'MofGen! by Chris Wilmer'
_symmetry_space_group_name_H-M	'P1'
_symmetry_Int_Tables_number	1
_symmetry_cell_setting	triclinic
loop_
_symmetry_equiv_pos_as_xyz
  x,y,z
_cell_length_a	18.215407
_cell_length_b	19.076915
_cell_length_c	18.215399
_cell_angle_alpha	87.671555
_cell_angle_beta	90.019833
_cell_angle_gamma	87.667968
loop_
_atom_site_label
_atom_site_type_symbol
_atom_site_fract_x
_atom_site_fract_y
_atom_site_fract_z
Zn1	Zn	1.113256	0.280216	0.404332
Zn2	Zn	1.446589	0.613549	0.737665
Zn3	Zn	1.779923	0.946882	1.070998
Zn4	Zn	1.108201	0.397924	0.276315
Zn5	Zn	1.441534	0.731257	0.609649
Zn6	Zn	1.774868	1.064591	0.942982
Zn7	Zn	0.990188	0.280239	0.281278
Zn8	Zn	1.323521	0.613572	0.614611
Zn9	Zn	1.656854	0.946905	0.947945
Zn10	Zn	0.985193	0.397885	0.399342
Zn11	Zn	1.318526	0.731218	0.732675
Zn12	Zn	1.651859	1.064551	1.066009
O13	O	1.049209	0.339066	0.340317
O14	O	1.382543	0.672399	0.673650
O15	O	1.715876	1.005732	1.006983
O16	O	1.215569	0.295837	0.387361
O17	O	1.548903	0.629170	0.720695
O18	O	1.882236	0.962503	1.054028
O19	O	1.092521	0.382339	0.173988
O20	O	1.425854	0.715672	0.507322
O21	O	1.759188	1.049005	0.840655
O22	O	1.010719	0.181739	0.301767
O23	O	1.344052	0.515072	0.635100
O24	O	1.677386	0.848406	0.968433
O25	O	1.211856	0.382316	0.293308
O26	O	1.545189	0.715650	0.626642
O27	O	1.878522	1.048983	0.959975
O28	O	1.101137	0.181722	0.392174
O29	O	1.434470	0.515056	0.725507
O30	O	1.767803	0.848389	1.058840
O31	O	1.005817	0.295876	0.177634
O32	O	1.339151	0.629209	0.510968
O33	O	1.672484	0.962543	0.844301
O34	O	0.886541	0.295838	0.296928
O35	O	1.219874	0.629171	0.630262
O36	O	1.553208	0.962505	0.963595
O37	O	1.002206	0.382250	0.502989
O38	O	1.335539	0.715583	0.836323
O39	O	1.668872	1.048916	1.169656
O40	O	0.882871	0.382272	0.383669
O41	O	1.216205	0.715605	0.717002
O42	O	1.549538	1.048939	1.050336
O43	O	1.096293	0.295799	0.506655
O44	O	1.429627	0.629132	0.839989
O45	O	1.762960	0.962465	1.173322
O46	O	1.087678	0.496415	0.288470
O47	O	1.421011	0.829749	0.621803
O48	O	1.754344	1.163082	0.955137
O49	O	0.997304	0.496386	0.378857
O50	O	1.330637	0.829720	0.712190
O51	O	1.663971	1.163053	1.045524
C52	C	0.858004	0.339054	0.340296
C53	C	1.191337	0.672387	0.673629
C54	C	1.524670	1.005720	1.006963
C55	C	0.776204	0.339065	0.340304
C56	C	1.109538	0.672399	0.673637
C57	C	1.442871	1.005732	1.006971
C58	C	1.041420	0.521940	0.332599
C59	C	1.374754	0.855273	0.665933
C60	C	1.708087	1.188607	0.999266
C61	C	1.038156	0.600174	0.329323
C62	C	1.371489	0.933507	0.662656
C63	C	1.704822	1.266841	0.995989
C64	C	0.586116	0.384142	0.385408
C65	C	0.919449	0.717476	0.718741
C66	C	1.252782	1.050809	1.052075
C67	C	0.509257	0.384145	0.385417
C68	C	0.842590	0.717478	0.718750
C69	C	1.175924	1.050811	1.052084
C70	C	0.513054	0.294002	0.295241
C71	C	0.846388	0.627335	0.628574
C72	C	1.179721	0.960668	0.961908
C73	C	0.589912	0.293997	0.295236
C74	C	0.923245	0.627330	0.628570
C75	C	1.256579	0.960663	0.961903
C76	C	0.626441	0.339071	0.340319
C77	C	0.959774	0.672404	0.673652
C78	C	1.293107	1.005738	1.006985
C79	C	0.472724	0.339078	0.340332
C80	C	0.806057	0.672412	0.673666
C81	C	1.139391	1.005745	1.006999
C82	C	0.389390	0.339080	0.340342
C83	C	0.722724	0.672414	0.673675
C84	C	1.056057	1.005747	1.007009
C85	C	0.709780	0.339068	0.340310
C86	C	1.043113	0.672401	0.673644
C87	C	1.376446	1.005735	1.006977
C88	C	1.014709	1.040558	0.305844
C89	C	1.348042	1.373891	0.639177
C90	C	1.681375	1.707225	0.972510
C91	C	1.017778	0.967049	0.308923
C92	C	1.351111	1.300382	0.642256
C93	C	1.684445	1.633715	0.975589
C94	C	1.066356	0.930226	0.357569
C95	C	1.399689	1.263559	0.690902
C96	C	1.733023	1.596892	1.024236
C97	C	1.111863	0.966916	0.403145
C98	C	1.445196	1.300249	0.736478
C99	C	1.778529	1.633583	1.069811
C100	C	1.108789	1.040424	0.400069
C101	C	1.442123	1.373757	0.733402
C102	C	1.775456	1.707091	1.066736
C103	C	1.080589	0.710373	0.371823
C104	C	1.413922	1.043706	0.705156
C105	C	1.747255	1.377039	1.038489
C106	C	1.083660	0.636859	0.374893
C107	C	1.416994	0.970193	0.708227
C108	C	1.750327	1.303526	1.041560
C109	C	0.989574	0.636997	0.280672
C110	C	1.322907	0.970330	0.614005
C111	C	1.656241	1.303664	0.947338
C112	C	0.986508	0.710507	0.277597
C113	C	1.319842	1.043840	0.610931
C114	C	1.653175	1.377173	0.944264
C115	C	1.032012	0.747190	0.323176
C116	C	1.365345	1.080524	0.656509
C117	C	1.698679	1.413857	0.989842
N118	N	1.069496	0.855087	0.360716
N119	N	1.402829	1.188421	0.694049
N120	N	1.736163	1.521754	1.027382
N121	N	1.028868	0.822328	0.320032
N122	N	1.362201	1.155661	0.653366
N123	N	1.695534	1.488994	0.986699
C124	C	1.241162	0.339078	0.340338
C125	C	1.574495	0.672412	0.673671
C126	C	1.907828	1.005745	1.007005
C127	C	1.322960	0.339084	0.340347
C128	C	1.656294	0.672417	0.673680
C129	C	1.989627	1.005750	1.007013
C130	C	1.049256	0.339017	0.532272
C131	C	1.382590	0.672351	0.865605
C132	C	1.715923	1.005684	1.198938
C133	C	1.049276	0.338997	0.614072
C134	C	1.382610	0.672330	0.947405
C135	C	1.715943	1.005663	1.280738
C136	C	1.057005	1.155478	0.348087
C137	C	1.390338	1.488811	0.681420
C138	C	1.723671	1.822144	1.014753
C139	C	1.060213	1.077243	0.351415
C140	C	1.393547	1.410577	0.684748
C141	C	1.726880	1.743910	1.018081
C142	C	1.049207	0.339063	0.149111
C143	C	1.382541	0.672397	0.482444
C144	C	1.715874	1.005730	0.815777
C145	C	1.049338	0.338886	0.067320
C146	C	1.382671	0.672219	0.400653
C147	C	1.716005	1.005552	0.733986
C148	C	1.098286	0.293939	0.804177
C149	C	1.431620	0.627273	1.137511
C150	C	1.764953	0.960606	1.470844
C151	C	1.098296	0.293919	0.881037
C152	C	1.431629	0.627252	1.214370
C153	C	1.764963	0.960586	1.547704
C154	C	1.000323	0.383945	0.877208
C155	C	1.333656	0.717278	1.210542
C156	C	1.666989	1.050611	1.543875
C157	C	1.000310	0.383961	0.800350
C158	C	1.333643	0.717295	1.133684
C159	C	1.666977	1.050628	1.467017
C160	C	1.049296	0.338960	0.763837
C161	C	1.382629	0.672293	1.097170
C162	C	1.715963	1.005626	1.430503
C163	C	1.049318	0.338923	0.917554
C164	C	1.382652	0.672256	1.250888
C165	C	1.715985	1.005589	1.584221
C166	C	1.049328	0.338901	1.000889
C167	C	1.382662	0.672234	1.334222
C168	C	1.715995	1.005567	1.667556
C169	C	1.049285	0.338980	0.680497
C170	C	1.382619	0.672314	1.013830
C171	C	1.715952	1.005647	1.347164
H172	H	0.476428	0.420845	0.422135
H173	H	0.809761	0.754179	0.755468
H174	H	1.143094	1.087512	1.088801
O175	O	0.952643	0.427587	0.912648
O176	O	1.285976	0.760921	1.245982
O177	O	1.619310	1.094254	1.579315
C178	C	0.879948	0.412219	0.894491
C179	C	1.213281	0.745553	1.227825
C180	C	1.546615	1.078886	1.561158
H181	H	0.878625	0.355993	0.875746
H182	H	1.211959	0.689326	1.209079
H183	H	1.545292	1.022660	1.542412
H184	H	0.843340	0.418274	0.944773
H185	H	1.176673	0.751607	1.278106
H186	H	1.510007	1.084941	1.611439
H187	H	0.859095	0.449964	0.848276
H188	H	1.192428	0.783297	1.181609
H189	H	1.525761	1.116630	1.514943
H190	H	1.138172	0.257294	0.774451
H191	H	1.471505	0.590628	1.107784
H192	H	1.804839	0.923961	1.441117
O193	O	0.477453	0.250286	0.251470
O194	O	0.810786	0.583620	0.584803
O195	O	1.144119	0.916953	0.918137
C196	C	0.400969	0.259942	0.261155
C197	C	0.734302	0.593275	0.594489
C198	C	1.067636	0.926608	0.927822
H199	H	0.388168	0.314292	0.282870
H200	H	0.721501	0.647625	0.616203
H201	H	1.054835	0.980959	0.949537
H202	H	0.371942	0.255099	0.206246
H203	H	0.705275	0.588433	0.539579
H204	H	1.038609	0.921766	0.872912
H205	H	0.380950	0.218243	0.302180
H206	H	0.714284	0.551576	0.635513
H207	H	1.047617	0.884909	0.968847
O208	O	0.952794	0.427799	0.761186
O209	O	1.286127	0.761132	1.094520
O210	O	1.619460	1.094465	1.427853
C211	C	0.965874	0.497947	0.777011
C212	C	1.299207	0.831280	1.110344
C213	C	1.632541	1.164614	1.443677
H214	H	1.024517	0.501499	0.798002
H215	H	1.357850	0.834833	1.131335
H216	H	1.691184	1.168166	1.464669
H217	H	0.958045	0.532728	0.724990
H218	H	1.291378	0.866062	1.058324
H219	H	1.624712	1.199395	1.391657
H220	H	0.925639	0.516337	0.820834
H221	H	1.258972	0.849670	1.154168
H222	H	1.592305	1.183004	1.487501
H223	H	0.622746	0.257290	0.258519
H224	H	0.956079	0.590623	0.591852
H225	H	1.289412	0.923956	0.925186
O226	O	0.621486	0.427943	0.429273
O227	O	0.954819	0.761276	0.762606
O228	O	1.288152	1.094610	1.095940
C229	C	0.569408	0.467735	0.469059
C230	C	0.902742	0.801069	0.802393
C231	C	1.236075	1.134402	1.135726
H232	H	0.515850	0.438911	0.472873
H233	H	0.849183	0.772245	0.806206
H234	H	1.182516	1.105578	1.139539
H235	H	0.591315	0.475308	0.526710
H236	H	0.924648	0.808642	0.860044
H237	H	1.257981	1.141975	1.193377
H238	H	0.558950	0.521162	0.439769
H239	H	0.892283	0.854495	0.773103
H240	H	1.225616	1.187829	1.106436
O241	O	0.967454	1.076216	0.258569
O242	O	1.300788	1.409549	0.591902
O243	O	1.634121	1.742883	0.925236
C244	C	0.927961	1.028070	0.218996
C245	C	1.261295	1.361403	0.552330
C246	C	1.594628	1.694737	0.885663
H247	H	0.927591	0.975653	0.251332
H248	H	1.260924	1.308986	0.584665
H249	H	1.594258	1.642320	0.917998
H250	H	0.869091	1.049356	0.210206
H251	H	1.202425	1.382690	0.543539
H252	H	1.535758	1.716023	0.876873
H253	H	0.955265	1.020269	0.163453
H254	H	1.288598	1.353602	0.496786
H255	H	1.621932	1.686935	0.830119
H256	H	0.952526	0.607122	0.243565
H257	H	1.285859	0.940456	0.576898
H258	H	1.619193	1.273789	0.910231
O259	O	1.153027	1.076137	0.444233
O260	O	1.486360	1.409470	0.777566
O261	O	1.819694	1.742803	1.110899
C262	C	1.198820	1.118638	0.400603
C263	C	1.532154	1.451972	0.733937
C264	C	1.865487	1.785305	1.067270
H265	H	1.172435	1.129712	0.344345
H266	H	1.505769	1.463046	0.677679
H267	H	1.839102	1.796379	1.011012
H268	H	1.206506	1.170299	0.428433
H269	H	1.539839	1.503633	0.761766
H270	H	1.873173	1.836966	1.095099
H271	H	1.254548	1.090273	0.393753
H272	H	1.587882	1.423606	0.727087
H273	H	1.921215	1.756940	1.060420
O274	O	0.939371	0.746383	0.230374
O275	O	1.272704	1.079716	0.563707
O276	O	1.606038	1.413050	0.897040
C277	C	0.946399	0.819130	0.237449
C278	C	1.279732	1.152463	0.570782
C279	C	1.613065	1.485796	0.904116
H280	H	1.002768	0.829112	0.261170
H281	H	1.336102	1.162446	0.594503
H282	H	1.669435	1.495779	0.927837
H283	H	0.940250	0.847113	0.181154
H284	H	1.273583	1.180446	0.514488
H285	H	1.606916	1.513780	0.847821
H286	H	0.901862	0.839989	0.275743
H287	H	1.235196	1.173322	0.609076
H288	H	1.568529	1.506655	0.942409
O289	O	0.973498	0.931384	0.264758
O290	O	1.306832	1.264718	0.598091
O291	O	1.640165	1.598051	0.931425
C292	C	0.927727	0.888861	0.308388
C293	C	1.261060	1.222195	0.641721
C294	C	1.594393	1.555528	0.975055
H295	H	0.922223	0.910977	0.365421
H296	H	1.255557	1.244310	0.698755
H297	H	1.588890	1.577643	1.032088
H298	H	0.871139	0.888094	0.281749
H299	H	1.204472	1.221427	0.615083
H300	H	1.537806	1.554760	0.948416
H301	H	0.952804	0.833130	0.313274
H302	H	1.286138	1.166463	0.646607
H303	H	1.619471	1.499797	0.979941
H304	H	1.123222	0.606881	0.414509
H305	H	1.456555	0.940215	0.747842
H306	H	1.789888	1.273548	1.081176
O307	O	1.145957	0.250166	0.920111
O308	O	1.479291	0.583499	1.253444
O309	O	1.812624	0.916832	1.586778
C310	C	1.189174	0.210439	0.871399
C311	C	1.522507	0.543772	1.204733
C312	C	1.855840	0.877106	1.538066
H313	H	1.190483	0.239284	0.815394
H314	H	1.523816	0.572617	1.148727
H315	H	1.857149	0.905950	1.482060
H316	H	1.247481	0.202929	0.893935
H317	H	1.580814	0.536262	1.227268
H318	H	1.914148	0.869595	1.560602
H319	H	1.164505	0.156982	0.865480
H320	H	1.497839	0.490316	1.198813
H321	H	1.831172	0.823649	1.532146
H322	H	1.117650	0.740232	0.408927
H323	H	1.450983	1.073565	0.742261
H324	H	1.784316	1.406898	1.075594
H325	H	1.151414	0.936931	0.442757
H326	H	1.484747	1.270264	0.776091
H327	H	1.818080	1.603597	1.109424
