data_functionalizedCrystal
_audit_creation_method	'MofGen! by Chris Wilmer'
_symmetry_space_group_name_H-M	'P1'
_symmetry_Int_Tables_number	1
_symmetry_cell_setting	triclinic
loop_
_symmetry_equiv_pos_as_xyz
  x,y,z
_cell_length_a	14.560438
_cell_length_b	14.560438
_cell_length_c	14.560438
_cell_angle_alpha	60.000713
_cell_angle_beta	90.001034
_cell_angle_gamma	60.000094
loop_
_atom_site_label
_atom_site_type_symbol
_atom_site_fract_x
_atom_site_fract_y
_atom_site_fract_z
Zr1	Zr	0.884744	1.005299	-0.120520
O2	O	0.738093	1.196901	-0.267165
O3	O	0.929701	0.813697	-0.075567
O4	O	0.929695	1.005302	-0.267169
O5	O	0.738102	1.005293	0.075577
O6	O	1.080833	1.005305	-0.267170
O7	O	0.738099	1.005296	-0.075563
O8	O	1.080844	0.662558	0.075571
O9	O	0.738092	1.348040	-0.267164
O10	O	1.061666	0.892507	-0.056394
O11	O	0.948876	0.892504	0.056401
O12	O	0.948869	1.118094	-0.169185
O13	O	0.836079	1.118090	-0.056390
Zr14	Zr	1.125798	1.005299	0.120530
Zr15	Zr	1.125792	1.005303	-0.120522
Zr16	Zr	0.884750	1.005295	0.120532
Zr17	Zr	0.884742	1.246348	-0.120517
Zr18	Zr	1.125799	0.764250	0.120527
O19	O	1.080841	1.196901	0.075577
O20	O	1.080832	1.196907	-0.267168
O21	O	0.738101	1.196895	0.075580
O22	O	1.272449	0.813697	0.267175
O23	O	1.272440	0.813703	-0.075570
O24	O	0.929710	0.813691	0.267178
O25	O	1.272439	1.005305	-0.075567
O26	O	1.080847	1.005296	0.267179
O27	O	0.929708	1.005293	0.267180
O28	O	1.272443	1.005302	0.075573
O29	O	0.929693	1.348043	-0.267165
O30	O	1.080849	0.662555	0.267175
O31	O	1.272450	0.662558	0.267173
O32	O	1.272445	0.662561	0.075569
O33	O	0.738097	1.348037	-0.075559
O34	O	0.929698	1.348040	-0.075561
O35	O	1.061672	0.892504	0.169195
O36	O	1.174462	0.892507	0.056400
O37	O	1.061665	1.118094	-0.056391
O38	O	0.948875	1.118090	0.056404
C39	C	1.005273	0.703783	0.000001
C40	C	1.005273	0.601451	-0.000000
C41	C	1.064146	0.457215	-0.058871
C42	C	1.064145	0.553372	-0.058879
C43	C	0.946388	0.553379	0.058882
C44	C	0.946383	0.457230	0.058884
C45	C	0.703756	1.005294	0.000007
C46	C	0.601425	1.005292	0.000008
C47	C	0.612226	0.887540	0.058880
C48	C	0.516071	0.887546	0.058880
C49	C	0.398318	1.123067	-0.058871
C50	C	0.494472	1.123059	-0.058865
C51	C	1.306785	1.005304	0.000003
C52	C	1.409116	1.005306	0.000002
C53	C	1.005263	1.005304	-0.301515
C54	C	1.005261	1.005306	-0.403847
C55	C	1.005269	1.306815	0.000009
C56	C	1.005268	1.409147	0.000010
C57	C	0.946383	1.123058	-0.510799
C58	C	0.946396	1.123051	-0.606948
C59	C	1.064166	0.887531	-0.489179
C60	C	1.064159	0.887539	-0.393033
C61	C	1.005278	1.005294	0.301524
C62	C	1.005281	1.005292	0.403857
C63	C	1.306787	0.703788	-0.000001
C64	C	1.409119	0.601458	-0.000003
C65	C	1.005280	0.703778	0.301521
C66	C	1.005283	0.601444	0.403852
C67	C	1.306795	0.703783	0.301518
C68	C	1.409129	0.601451	0.403849
C69	C	0.703747	1.306815	-0.301509
C70	C	0.601412	1.409147	-0.403840
C71	C	0.703755	1.306810	0.000011
C72	C	0.601423	1.409140	0.000013
C73	C	1.005261	1.306820	-0.301511
C74	C	1.005258	1.409153	-0.403843
C75	C	1.398319	0.553381	-0.058879
C76	C	1.494475	0.457238	-0.058884
C77	C	1.612226	0.457256	0.058870
C78	C	1.516072	0.553403	0.058869
C79	C	1.064162	0.553366	0.510805
C80	C	1.064152	0.457222	0.606953
C81	C	0.946384	0.457239	0.489181
C82	C	0.946388	0.553388	0.393036
C83	C	1.516081	0.553375	0.393050
C84	C	1.612231	0.457232	0.489204
C85	C	1.494464	0.457246	0.606955
C86	C	1.398316	0.553393	0.510802
H87	H	1.112087	0.592508	-0.106827
F88	F	1.726057	0.406072	0.477702
F89	F	1.126816	0.406045	-0.121530
F90	F	0.883706	1.248395	-0.522313
H91	H	0.898435	0.418098	0.480388
H92	H	1.485673	0.418103	0.694045
F93	F	1.284495	0.604526	-0.121540
H94	H	1.112110	0.791645	-0.305942
F95	F	1.126842	0.604510	0.522321
F96	F	1.726057	0.406100	0.121526
H97	H	0.485669	1.218953	-0.106803
F98	F	1.126816	0.406061	0.720780
F99	F	0.883732	1.248379	-0.720774
F100	F	1.284479	0.604568	0.522300
H101	H	0.898436	0.592537	0.305944
H102	H	1.524891	0.592504	0.305968
H103	H	0.898448	0.592538	0.106817
F104	F	1.482973	0.406077	-0.121550
F105	F	0.883709	0.406074	0.121551
H106	H	0.699308	0.791647	0.106830
F107	F	0.527573	0.762219	0.121544
F108	F	1.126839	0.762202	-0.477681
F109	F	0.284486	1.248395	-0.121526
F110	F	1.527569	0.604578	0.121531
