data_functionalizedCrystal
_audit_creation_method	'MofGen! by Chris Wilmer'
_symmetry_space_group_name_H-M	'P1'
_symmetry_Int_Tables_number	1
_symmetry_cell_setting	triclinic
loop_
_symmetry_equiv_pos_as_xyz
  x,y,z
_cell_length_a	11.026607
_cell_length_b	16.098538
_cell_length_c	11.026607
_cell_angle_alpha	93.325978
_cell_angle_beta	71.413983
_cell_angle_gamma	93.337420
loop_
_atom_site_label
_atom_site_type_symbol
_atom_site_fract_x
_atom_site_fract_y
_atom_site_fract_z
O1	O	1.731195	0.069254	-0.529175
O2	O	2.231195	0.569254	-0.029175
O3	O	1.364615	0.069256	-0.468412
O4	O	1.864615	0.569256	0.031588
O5	O	1.517523	0.069252	-0.315504
O6	O	2.017523	0.569252	0.184496
O7	O	1.578287	0.069258	-0.682083
O8	O	2.078287	0.569258	-0.182083
O9	O	1.508581	-0.069261	-0.324391
O10	O	2.008581	0.430739	0.175609
O11	O	1.355673	-0.069257	-0.477299
O12	O	1.855673	0.430743	0.022701
O13	O	1.722253	-0.069258	-0.538063
O14	O	2.222253	0.430742	-0.038063
Zn15	Zn	1.537543	-0.091250	-0.509092
Zn16	Zn	2.037543	0.408750	-0.009092
Zn17	Zn	1.549325	0.091247	-0.497382
Zn18	Zn	2.049325	0.591247	0.002618
O19	O	1.569345	-0.069255	-0.690970
O20	O	2.069345	0.430745	-0.190970
C21	C	1.312485	-0.000001	-0.461645
C22	C	1.812485	0.499999	0.038355
C23	C	1.170471	-0.000000	-0.428228
C24	C	1.670471	0.500000	0.071772
C25	C	1.116821	0.000002	-0.520498
C26	C	1.616821	0.500002	-0.020498
C27	C	0.970043	0.000003	-0.485962
C28	C	1.470043	0.500003	0.014038
N29	N	1.529512	-0.215799	-0.517084
N30	N	2.029512	0.284201	-0.017084
C31	C	1.594449	-0.259385	-0.452220
C32	C	2.094449	0.240615	0.047780
C33	C	1.588845	-0.346574	-0.457826
C34	C	2.088845	0.153426	0.042174
C35	C	1.518311	-0.390175	-0.528304
C36	C	2.018311	0.109825	-0.028304
C37	C	1.453366	-0.346582	-0.593170
C38	C	1.953366	0.153418	-0.093170
C39	C	1.458963	-0.259395	-0.587556
C40	C	1.958963	0.240605	-0.087556
C41	C	1.498016	-0.653424	-0.548634
C42	C	1.998016	-0.153424	-0.048634
C43	C	1.492427	-0.740618	-0.554246
C44	C	1.992427	-0.240618	-0.054246
C45	C	1.627905	-0.740604	-0.418899
C46	C	2.127905	-0.240604	0.081101
C47	C	1.633502	-0.653415	-0.413298
C48	C	2.133502	-0.153415	0.086702
C49	C	1.568552	-0.609830	-0.478158
C50	C	2.068552	-0.109830	0.021842
C51	C	1.512585	-0.479296	-0.534039
C52	C	2.012585	0.020704	-0.034039
C53	C	1.574271	-0.520710	-0.472415
C54	C	2.074271	-0.020710	0.027585
C55	C	1.774384	-0.000000	-0.544829
C56	C	2.274384	0.500000	-0.044829
C57	C	1.916398	0.000004	-0.578245
C58	C	2.416398	0.500004	-0.078245
C59	C	1.501843	-0.000003	-0.272288
C60	C	2.001843	0.499997	0.227712
C61	C	1.468426	-0.000000	-0.130273
C62	C	1.968426	0.500000	0.369727
N63	N	1.557364	0.215796	-0.489382
N64	N	2.057364	0.715796	0.010618
C65	C	1.585026	0.000002	-0.734186
C66	C	2.085026	0.500002	-0.234186
C67	C	1.618443	0.000005	-0.876200
C68	C	2.118443	0.500005	-0.376200
C69	C	1.560695	0.000001	-0.076624
C70	C	2.060695	0.500001	0.423376
C71	C	1.526160	0.000004	0.070155
C72	C	2.026160	0.500004	0.570155
H73	H	0.907315	0.000022	-0.381391
H74	H	1.407315	0.500022	0.118609
H75	H	1.107739	0.000020	-0.323664
H76	H	1.607739	0.500020	0.176336
H77	H	1.179555	-0.000001	-0.625061
H78	H	1.679555	0.499999	-0.125061
O79	O	1.658915	-0.393578	-0.387886
O80	O	2.158915	0.106422	0.112114
H81	H	1.622082	-0.376849	-0.283912
H82	H	2.122082	0.123151	0.216088
O83	O	0.999471	0.000009	-0.716765
O84	O	1.499471	0.500009	-0.216765
H85	H	1.101721	0.000015	-0.722157
H86	H	1.601721	0.500015	-0.222157
O87	O	1.709565	-0.606387	-0.337269
O88	O	2.209565	-0.106387	0.162731
H89	H	1.753769	-0.651344	-0.293094
H90	H	2.253769	-0.151344	0.206906
H91	H	1.680783	-0.776099	-0.366091
H92	H	2.180783	-0.276099	0.133909
H93	H	1.395928	-0.382087	-0.650550
H94	H	1.895928	0.117913	-0.150550
H95	H	1.434987	-0.776113	-0.611642
H96	H	1.934987	-0.276113	-0.111642
H97	H	1.455157	-0.514803	-0.591427
H98	H	1.955157	-0.014803	-0.091427
H99	H	1.723017	0.000067	0.061076
H100	H	2.223017	0.500067	0.561076
H101	H	1.445134	-0.617944	-0.601449
H102	H	1.945134	-0.117944	-0.101449
O103	O	1.670520	-0.212359	-0.376198
O104	O	2.170520	0.287641	0.123802
H105	H	1.714720	-0.257319	-0.332024
H106	H	2.214720	0.242681	0.167976
H107	H	1.406083	-0.223907	-0.640374
H108	H	1.906083	0.276093	-0.140374
O109	O	1.650314	-0.473681	-0.396375
O110	O	2.150314	0.026319	0.103625
H111	H	1.726519	-0.433939	-0.461016
H112	H	2.226519	0.066061	0.038984
O113	O	1.699208	-0.000001	-0.159703
O114	O	2.199208	0.499999	0.340297
H115	H	1.704597	-0.000008	-0.261952
H116	H	2.204597	0.499992	0.238048
H117	H	1.363863	0.000006	-0.067540
H118	H	1.863863	0.500006	0.432460
O119	O	1.387640	-0.000001	0.153229
O120	O	1.887640	0.499999	0.653229
H121	H	1.382251	-0.000007	0.255478
H122	H	1.882251	0.499993	0.755478
