data_functionalizedCrystal
_audit_creation_method	'MofGen! by Chris Wilmer'
_symmetry_space_group_name_H-M	'P1'
_symmetry_Int_Tables_number	1
_symmetry_cell_setting	triclinic
loop_
_symmetry_equiv_pos_as_xyz
  x,y,z
_cell_length_a	16.625548
_cell_length_b	16.120531
_cell_length_c	16.120256
_cell_angle_alpha	95.612324
_cell_angle_beta	87.121741
_cell_angle_gamma	87.066624
loop_
_atom_site_label
_atom_site_type_symbol
_atom_site_fract_x
_atom_site_fract_y
_atom_site_fract_z
Zn1	Zn	1.191118	0.356739	0.489435
Zn2	Zn	1.441118	0.606739	0.739435
Zn3	Zn	1.691118	0.856739	0.989435
Zn4	Zn	1.941118	1.106739	1.239435
Zn5	Zn	1.191002	0.489424	0.356737
Zn6	Zn	1.441002	0.739424	0.606737
Zn7	Zn	1.691002	0.989424	0.856737
Zn8	Zn	1.941002	1.239424	1.106737
Zn9	Zn	1.063483	0.349673	0.349681
Zn10	Zn	1.313483	0.599673	0.599681
Zn11	Zn	1.563483	0.849673	0.849681
Zn12	Zn	1.813483	1.099673	1.099681
Zn13	Zn	1.049030	0.496472	0.496460
Zn14	Zn	1.299030	0.746472	0.746460
Zn15	Zn	1.549030	0.996472	0.996460
Zn16	Zn	1.799030	1.246472	1.246460
O17	O	1.123658	0.423077	0.423078
O18	O	1.373658	0.673077	0.673078
O19	O	1.623658	0.923077	0.923078
O20	O	1.873658	1.173077	1.173078
O21	O	1.303934	0.374347	0.471846
O22	O	1.553934	0.624347	0.721846
O23	O	1.803934	0.874347	0.971846
O24	O	2.053934	1.124347	1.221846
O25	O	1.180086	0.464979	0.238839
O26	O	1.430086	0.714979	0.488839
O27	O	1.680086	0.964979	0.738839
O28	O	1.930086	1.214979	0.988839
O29	O	1.086511	0.233645	0.362327
O30	O	1.336511	0.483645	0.612327
O31	O	1.586511	0.733645	0.862327
O32	O	1.836511	0.983645	1.112327
O33	O	1.303848	0.471831	0.374353
O34	O	1.553848	0.721831	0.624353
O35	O	1.803848	0.971831	0.874353
O36	O	2.053848	1.221831	1.124353
O37	O	1.180284	0.238837	0.465004
O38	O	1.430284	0.488837	0.715004
O39	O	1.680284	0.738837	0.965004
O40	O	1.930284	0.988837	1.215004
O41	O	1.086399	0.362305	0.233655
O42	O	1.336399	0.612305	0.483655
O43	O	1.586399	0.862305	0.733655
O44	O	1.836399	1.112305	0.983655
O45	O	0.948734	0.369139	0.369138
O46	O	1.198734	0.619139	0.619138
O47	O	1.448734	0.869139	0.869138
O48	O	1.698734	1.119139	1.119138
O49	O	1.061878	0.483843	0.612490
O50	O	1.311878	0.733843	0.862490
O51	O	1.561878	0.983843	1.112490
O52	O	1.811878	1.233843	1.362490
O53	O	0.938116	0.476992	0.476976
O54	O	1.188116	0.726992	0.726976
O55	O	1.438116	0.976992	0.976976
O56	O	1.688116	1.226992	1.226976
O57	O	1.166269	0.381182	0.607329
O58	O	1.416269	0.631182	0.857329
O59	O	1.666269	0.881182	1.107329
O60	O	1.916269	1.131182	1.357329
O61	O	1.166071	0.607324	0.381164
O62	O	1.416071	0.857324	0.631164
O63	O	1.666071	1.107324	0.881164
O64	O	1.916071	1.357324	1.131164
O65	O	1.061765	0.612503	0.483818
O66	O	1.311765	0.862503	0.733818
O67	O	1.561765	1.112503	0.983818
O68	O	1.811765	1.362503	1.233818
C69	C	0.914169	0.423064	0.423054
C70	C	1.164169	0.673064	0.673054
C71	C	1.414169	0.923064	0.923054
C72	C	1.664169	1.173064	1.173054
C73	C	0.824546	0.423080	0.423065
C74	C	1.074546	0.673080	0.673065
C75	C	1.324546	0.923080	0.923065
C76	C	1.574546	1.173080	1.173065
C77	C	0.496369	0.423087	0.423101
C78	C	0.746369	0.673087	0.673101
C79	C	0.996369	0.923087	0.923101
C80	C	1.246369	1.173087	1.173101
C81	C	0.587678	0.423082	0.423088
C82	C	0.837678	0.673082	0.673088
C83	C	1.087678	0.923082	0.923088
C84	C	1.337678	1.173082	1.173088
C85	C	0.660455	0.423084	0.423082
C86	C	0.910455	0.673084	0.673082
C87	C	1.160455	0.923084	0.923082
C88	C	1.410455	1.173084	1.173082
C89	C	0.751770	0.423078	0.423071
C90	C	1.001770	0.673078	0.673071
C91	C	1.251770	0.923078	0.923071
C92	C	1.501770	1.173078	1.173071
C93	C	1.112358	0.640242	0.434037
C94	C	1.362358	0.890242	0.684037
C95	C	1.612358	1.140242	0.934037
C96	C	1.862358	1.390242	1.184037
C97	C	1.107597	0.733148	0.438753
C98	C	1.357597	0.983148	0.688753
C99	C	1.607597	1.233148	0.938753
C100	C	1.857597	1.483148	1.188753
C101	C	1.098907	0.903248	0.447381
C102	C	1.348907	1.153248	0.697381
C103	C	1.598907	1.403248	0.947381
C104	C	1.848907	1.653248	1.197381
C105	C	1.148442	0.942064	0.398728
C106	C	1.398442	1.192064	0.648728
C107	C	1.648442	1.442064	0.898728
C108	C	1.898442	1.692064	1.148728
C109	C	1.143607	1.036713	0.403528
C110	C	1.393607	1.286713	0.653528
C111	C	1.643607	1.536713	0.903528
C112	C	1.893607	1.786713	1.153528
C113	C	1.103741	0.808590	0.442582
C114	C	1.353741	1.058590	0.692582
C115	C	1.603741	1.308590	0.942582
C116	C	1.853741	1.558590	1.192582
C117	C	1.333965	0.423091	0.423103
C118	C	1.583965	0.673091	0.673103
C119	C	1.833965	0.923091	0.923103
C120	C	2.083965	1.173091	1.173103
C121	C	1.423585	0.423097	0.423113
C122	C	1.673585	0.673097	0.673113
C123	C	1.923585	0.923097	0.923113
C124	C	2.173585	1.173097	1.173113
C125	C	1.112474	0.434087	0.641084
C126	C	1.362474	0.684087	0.891084
C127	C	1.612474	0.934087	1.141084
C128	C	1.862474	1.184087	1.391084
C129	C	1.107708	0.438778	0.733986
C130	C	1.357708	0.688778	0.983986
C131	C	1.607708	0.938778	1.233986
C132	C	1.857708	1.188778	1.483986
C133	C	1.134995	1.205064	0.412079
C134	C	1.384995	1.455064	0.662079
C135	C	1.634995	1.705064	0.912079
C136	C	1.884995	1.955064	1.162079
C137	C	1.139755	1.112158	0.407353
C138	C	1.389755	1.362158	0.657353
C139	C	1.639755	1.612158	0.907353
C140	C	1.889755	1.862158	1.157353
C141	C	1.134848	0.412050	0.205917
C142	C	1.384848	0.662050	0.455917
C143	C	1.634848	0.912050	0.705917
C144	C	1.884848	1.162050	0.955917
C145	C	1.139782	0.407123	0.113004
C146	C	1.389782	0.657123	0.363004
C147	C	1.639782	0.907123	0.613004
C148	C	1.889782	1.157123	0.863004
C149	C	1.148511	0.398589	0.942914
C150	C	1.398511	0.648589	1.192914
C151	C	1.648511	0.898589	1.442914
C152	C	1.898511	1.148589	1.692914
C153	C	1.098982	0.447310	0.904070
C154	C	1.348982	0.697310	1.154070
C155	C	1.598982	0.947310	1.404070
C156	C	1.848982	1.197310	1.654070
C157	C	1.103839	0.442561	0.809426
C158	C	1.353839	0.692561	1.059426
C159	C	1.603839	0.942561	1.309426
C160	C	1.853839	1.192561	1.559426
C161	C	1.143655	0.403336	1.037566
C162	C	1.393655	0.653336	1.287566
C163	C	1.643655	0.903336	1.537566
C164	C	1.893655	1.153336	1.787566
H165	H	1.052870	0.941098	0.492635
H166	H	1.302870	1.191098	0.742635
H167	H	1.552870	1.441098	0.992635
H168	H	1.802870	1.691098	1.242635
F169	F	1.208617	0.892591	0.339569
F170	F	1.458617	1.142591	0.589569
F171	F	1.708617	1.392591	0.839569
F172	F	1.958617	1.642591	1.089569
F173	F	1.038791	0.506491	0.953507
F174	F	1.288791	0.756491	1.203507
F175	F	1.538791	1.006491	1.453507
F176	F	1.788791	1.256491	1.703507
F177	F	1.208690	0.339405	0.893477
F178	F	1.458690	0.589405	1.143477
F179	F	1.708690	0.839405	1.393477
F180	F	1.958690	1.089405	1.643477
