data_functionalizedCrystal
_audit_creation_method	'MofGen! by Chris Wilmer'
_symmetry_space_group_name_H-M	'P1'
_symmetry_Int_Tables_number	1
_symmetry_cell_setting	triclinic
loop_
_symmetry_equiv_pos_as_xyz
  x,y,z
_cell_length_a	14.044191
_cell_length_b	15.021413
_cell_length_c	14.044209
_cell_angle_alpha	89.997840
_cell_angle_beta	86.810135
_cell_angle_gamma	89.991171
loop_
_atom_site_label
_atom_site_type_symbol
_atom_site_fract_x
_atom_site_fract_y
_atom_site_fract_z
O1	O	1.277155	0.073999	-0.230192
O2	O	1.000483	0.074010	-0.221879
O3	O	1.134667	0.073992	-0.087700
O4	O	1.142971	0.074017	-0.364371
O5	O	1.134685	-0.074072	-0.087710
O6	O	1.000501	-0.074054	-0.221890
O7	O	1.277173	-0.074065	-0.230202
Zn8	Zn	1.138840	-0.097568	-0.226048
Zn9	Zn	1.138816	0.097513	-0.226034
O10	O	1.142989	-0.074047	-0.364382
C11	C	0.964870	-0.000021	-0.218248
C12	C	0.858727	-0.000017	-0.207401
C13	C	0.613268	-0.000021	-0.264501
C14	C	0.664394	-0.000026	-0.187585
C15	C	0.772531	-0.000021	-0.198613
C16	C	0.505121	-0.000026	-0.253474
N17	N	1.138863	-0.230705	-0.226057
C18	C	1.200922	-0.470373	-0.163998
C19	C	1.113087	-0.529701	-0.138160
C20	C	1.138839	-0.412312	-0.226043
C21	C	1.226648	-0.529726	-0.251823
C22	C	1.138825	-0.587736	-0.226028
C23	C	1.050958	-0.470333	-0.200159
C24	C	1.164579	-0.470354	-0.313864
C25	C	1.076685	-0.529655	-0.288058
C26	C	1.138849	-0.311255	-0.226050
C27	C	1.138805	-0.688792	-0.226022
C28	C	1.312786	-0.000032	-0.233834
C29	C	1.418929	-0.000030	-0.244681
C30	C	1.131041	-0.000041	-0.052083
C31	C	1.120197	-0.000045	0.054060
N32	N	1.138800	0.230651	-0.226017
C33	C	1.100372	-0.000036	0.248398
C34	C	1.177287	-0.000038	0.299526
C35	C	1.166257	-0.000034	0.407663
C36	C	1.111402	-0.000041	0.140252
C37	C	1.146617	-0.000019	0.600001
C38	C	1.157467	-0.000030	0.493859
H39	H	0.626951	0.000030	-0.113452
H40	H	1.186387	-0.444266	-0.388119
H41	H	1.300913	-0.555815	-0.273634
C42	C	1.083674	-0.564941	-0.037824
N43	N	1.061532	-0.591489	0.037749
H44	H	1.024115	-0.555520	-0.340519
C45	C	1.277439	-0.000053	0.248947
N46	N	1.352871	-0.000070	0.210847
H47	H	0.650708	-0.000011	-0.338628
H48	H	0.976669	-0.444354	-0.178265
H49	H	1.253360	-0.444343	-0.111492
H50	H	1.026245	-0.000032	0.285837
