data_functionalizedCrystal
_audit_creation_method	'MofGen! by Chris Wilmer'
_symmetry_space_group_name_H-M	'P1'
_symmetry_Int_Tables_number	1
_symmetry_cell_setting	triclinic
loop_
_symmetry_equiv_pos_as_xyz
  x,y,z
_cell_length_a	14.044220
_cell_length_b	17.699083
_cell_length_c	16.776229
_cell_angle_alpha	89.992455
_cell_angle_beta	90.002022
_cell_angle_gamma	91.764054
loop_
_atom_site_label
_atom_site_type_symbol
_atom_site_fract_x
_atom_site_fract_y
_atom_site_fract_z
O1	O	1.257290	-0.182444	0.066207
O2	O	0.981336	-0.175860	0.066227
O3	O	1.127109	-0.069500	0.066209
O4	O	1.111516	-0.288803	0.066224
O5	O	1.127090	-0.069492	-0.066367
O6	O	0.981317	-0.175852	-0.066350
O7	O	1.257271	-0.182435	-0.066370
Zn8	Zn	1.119290	-0.179142	-0.087409
Zn9	Zn	1.119316	-0.179153	0.087266
O10	O	1.111497	-0.288795	-0.066352
C11	C	0.946018	-0.172974	-0.000059
C12	C	0.840812	-0.164378	-0.000052
C13	C	1.126541	-0.041261	-0.000079
C14	C	1.124865	0.042873	-0.000079
C15	C	1.112066	-0.317035	-0.000062
C16	C	1.113742	-0.401168	-0.000057
C17	C	0.648187	-0.148663	-0.000069
C18	C	0.590414	-0.209629	-0.000068
C19	C	0.483230	-0.200885	-0.000077
C20	C	0.755381	-0.157406	-0.000059
C21	C	1.292588	-0.185321	-0.000082
C22	C	1.397794	-0.193917	-0.000085
N23	N	1.119280	-0.179134	-0.206620
C24	C	1.210431	0.085591	-0.000087
C25	C	1.208850	0.164644	-0.000080
C26	C	1.121702	0.200976	-0.000071
C27	C	1.036130	0.158252	-0.000061
C28	C	1.037712	0.079201	-0.000063
C29	C	1.029750	0.477055	-0.000054
C30	C	1.028175	0.556112	-0.000055
C31	C	1.200888	0.562498	-0.000071
C32	C	1.202470	0.483447	-0.000073
C33	C	1.116898	0.440730	-0.000059
C34	C	1.118613	0.355012	-0.000065
C35	C	1.119987	0.286692	-0.000070
C36	C	1.183848	-0.132061	-0.248345
C37	C	1.183853	-0.132061	-0.331798
C38	C	1.119294	-0.179138	-0.373523
C39	C	1.054719	-0.226214	-0.331793
C40	C	1.054710	-0.226210	-0.248342
C41	C	1.054754	-0.226231	-0.668340
C42	C	1.054770	-0.226233	-0.751796
C43	C	1.183897	-0.132082	-0.751795
C44	C	1.183888	-0.132078	-0.668345
C45	C	1.119310	-0.179150	-0.626621
C46	C	1.119304	-0.179149	-0.536133
C47	C	1.119304	-0.179144	-0.464010
N48	N	1.119334	-0.179155	0.206477
H49	H	0.621449	-0.268391	-0.000060
C50	C	1.298338	0.443486	-0.000082
N51	N	1.370549	0.413388	-0.000086
C52	C	1.254926	-0.080294	-0.797699
N53	N	1.308425	-0.041288	-0.832272
H54	H	0.617153	-0.089906	-0.000077
H55	H	1.281396	0.056016	-0.000099
C56	C	0.983695	-0.277992	-0.377694
N57	N	0.930197	-0.316993	-0.412266
C58	C	1.302980	0.211631	-0.000101
N59	N	1.373882	0.247021	-0.000120
C60	C	1.254869	-0.080270	-0.202455
N61	N	1.308361	-0.041257	-0.167892
C62	C	1.295020	0.609494	-0.000078
N63	N	1.365918	0.644890	-0.000084
C64	C	0.932301	0.596076	-0.000039
N65	N	0.860093	0.626176	-0.000026
H66	H	0.960072	0.442284	-0.000043
H67	H	0.965173	0.187840	-0.000049
C68	C	0.943582	0.032211	-0.000056
N69	N	0.872681	-0.003181	-0.000050
C70	C	1.254861	-0.080256	-0.377691
N71	N	1.308338	-0.041227	-0.412258
H72	H	1.236461	-0.093745	-0.634374
C73	C	0.983740	-0.278020	-0.797693
N74	N	0.930243	-0.317023	-0.832262
C75	C	0.983839	-0.278119	-0.622455
N76	N	0.930466	-0.317241	-0.587892
C77	C	0.983688	-0.278001	-0.202445
N78	N	0.930192	-0.317012	-0.167876
