data_functionalizedCrystal
_audit_creation_method	'MofGen! by Chris Wilmer'
_symmetry_space_group_name_H-M	'P1'
_symmetry_Int_Tables_number	1
_symmetry_cell_setting	triclinic
loop_
_symmetry_equiv_pos_as_xyz
  x,y,z
_cell_length_a	13.897447
_cell_length_b	13.897449
_cell_length_c	12.759387
_cell_angle_alpha	90.021740
_cell_angle_beta	90.031440
_cell_angle_gamma	90.020810
loop_
_atom_site_label
_atom_site_type_symbol
_atom_site_fract_x
_atom_site_fract_y
_atom_site_fract_z
Zn1	Zn	-0.383931	1.474700	0.594035
Zn2	Zn	0.116069	1.974700	1.094035
Zn3	Zn	-0.545259	1.474586	0.418353
Zn4	Zn	-0.045259	1.974586	0.918353
Zn5	Zn	-0.383983	1.313386	0.418368
Zn6	Zn	0.116017	1.813386	0.918368
Zn7	Zn	-0.545189	1.313366	0.593989
Zn8	Zn	-0.045189	1.813366	1.093989
O9	O	-0.464591	1.394009	0.506186
O10	O	0.035409	1.894009	1.006186
O11	O	-0.405339	1.609666	0.570744
O12	O	0.094661	2.109666	1.070744
O13	O	-0.523916	1.453163	0.271334
O14	O	-0.023916	1.953163	0.771334
O15	O	-0.248994	1.334841	0.441696
O16	O	0.251006	1.834841	0.941696
O17	O	-0.523866	1.609583	0.441671
O18	O	-0.023866	2.109583	0.941671
O19	O	-0.248956	1.453358	0.570758
O20	O	0.251044	1.953358	1.070758
O21	O	-0.405427	1.334731	0.271345
O22	O	0.094573	1.834731	0.771345
O23	O	-0.405360	1.178402	0.441651
O24	O	0.094640	1.678402	0.941651
O25	O	-0.523747	1.334806	0.741016
O26	O	-0.023747	1.834806	1.241016
O27	O	-0.523798	1.178387	0.570679
O28	O	-0.023798	1.678387	1.070679
O29	O	-0.405272	1.453338	0.741050
O30	O	0.094728	1.953338	1.241050
O31	O	-0.680231	1.453143	0.441626
O32	O	-0.180231	1.953143	0.941626
O33	O	-0.680180	1.334695	0.570665
O34	O	-0.180180	1.834695	1.070665
C35	C	-0.715205	1.393931	0.506162
C36	C	-0.215205	1.893931	1.006162
C37	C	-0.822419	1.393986	0.506187
C38	C	-0.322419	1.893986	1.006187
C39	C	-0.464578	1.143395	0.506162
C40	C	0.035422	1.643395	1.006162
C41	C	-0.464595	1.036181	0.506177
C42	C	0.035405	1.536181	1.006177
C43	C	-0.909489	1.394032	0.506211
C44	C	-0.409489	1.894032	1.006211
C45	C	-1.018721	1.394100	0.506238
C46	C	-0.518721	1.894100	1.006238
C47	C	-0.464599	0.839886	0.506205
C48	C	0.035401	1.339886	1.006205
C49	C	-0.464594	0.949119	0.506186
C50	C	0.035406	1.449119	1.006186
C51	C	-0.212998	1.394114	0.506234
C52	C	0.287002	1.894114	1.006234
C53	C	-0.105784	1.394159	0.506254
C54	C	0.394216	1.894159	1.006254
C55	C	-0.464496	1.394082	0.780220
C56	C	0.035504	1.894082	1.280220
C57	C	-0.464456	1.394113	0.896997
C58	C	0.035544	1.894113	1.396997
C59	C	-0.464604	1.645602	0.506211
C60	C	0.035396	2.145602	1.006211
C61	C	-0.464610	1.752816	0.506221
C62	C	0.035390	2.252816	1.006221
C63	C	-0.464615	1.393992	0.233219
C64	C	0.035385	1.893992	0.733219
C65	C	-0.464384	1.394148	0.116443
C66	C	0.035616	1.894148	0.616443
C67	C	-0.341095	1.517549	0.897052
C68	C	0.158905	2.017549	1.397052
C69	C	-0.279400	1.579280	0.951940
C70	C	0.220600	2.079280	1.451940
C71	C	-0.279365	1.579303	1.061662
C72	C	0.220635	2.079303	1.561662
C73	C	-0.341029	1.517587	1.116498
C74	C	0.158971	2.017587	1.616498
C75	C	-0.402724	1.455856	1.061609
C76	C	0.097276	1.955856	1.561609
C77	C	-0.402755	1.455841	0.951885
C78	C	0.097245	1.955841	1.451885
C79	C	-0.526078	1.332417	1.061554
C80	C	-0.026078	1.832417	1.561554
C81	C	-0.526120	1.332397	0.951832
C82	C	-0.026120	1.832397	1.451832
C83	C	-0.587743	1.270701	1.116390
C84	C	-0.087743	1.770701	1.616390
C85	C	-0.649444	1.208973	1.061502
C86	C	-0.149444	1.708973	1.561502
C87	C	-0.649477	1.208953	0.951773
C88	C	-0.149477	1.708953	1.451773
C89	C	-0.587815	1.270666	0.896944
C90	C	-0.087815	1.770666	1.396944
H91	H	-0.341126	1.517545	0.807711
H92	H	0.158874	2.017545	1.307711
C93	C	-0.587710	1.270736	1.237087
C94	C	-0.087710	1.770736	1.737087
N95	N	-0.587693	1.270768	1.327997
N96	N	-0.087693	1.770768	1.827997
C97	C	-0.717346	1.141041	0.891405
C98	C	-0.217346	1.641041	1.391405
N99	N	-0.768468	1.089888	0.845939
N100	N	-0.268468	1.589888	1.345939
H101	H	-0.340987	1.517603	1.205839
H102	H	0.159013	2.017603	1.705839
C103	C	-0.587844	1.270648	0.776247
C104	C	-0.087844	1.770648	1.276247
N105	N	-0.587860	1.270634	0.685337
N106	N	-0.087860	1.770634	1.185337
H107	H	-0.699641	1.158723	1.106158
H108	H	-0.199641	1.658723	1.606158
H109	H	-0.229122	1.629564	1.106352
H110	H	0.270878	2.129564	1.606352
C111	C	-0.211572	1.647163	0.891613
C112	C	0.288428	2.147163	1.391613
N113	N	-0.160482	1.698292	0.846177
N114	N	0.339518	2.198292	1.346177
