data_functionalizedCrystal
_audit_creation_method	'MofGen! by Chris Wilmer'
_symmetry_space_group_name_H-M	'P1'
_symmetry_Int_Tables_number	1
_symmetry_cell_setting	triclinic
loop_
_symmetry_equiv_pos_as_xyz
  x,y,z
_cell_length_a	12.759400
_cell_length_b	13.897449
_cell_length_c	12.759393
_cell_angle_alpha	90.023192
_cell_angle_beta	90.031564
_cell_angle_gamma	90.015511
loop_
_atom_site_label
_atom_site_type_symbol
_atom_site_fract_x
_atom_site_fract_y
_atom_site_fract_z
Zn1	Zn	-0.418181	1.474721	0.594113
Zn2	Zn	-0.593900	1.474624	0.418433
Zn3	Zn	-0.418238	1.313411	0.418438
Zn4	Zn	-0.593821	1.313400	0.594060
O5	O	-0.506035	1.394039	0.506261
O6	O	-0.441500	1.609690	0.570829
O7	O	-0.570655	1.453202	0.271413
O8	O	-0.271210	1.334854	0.441766
O9	O	-0.570600	1.609618	0.441757
O10	O	-0.271168	1.453368	0.570833
O11	O	-0.441597	1.334760	0.271416
O12	O	-0.441520	1.178428	0.441715
O13	O	-0.570465	1.334836	0.741088
O14	O	-0.570521	1.178420	0.570743
O15	O	-0.441423	1.453358	0.741127
O16	O	-0.740911	1.453192	0.441706
O17	O	-0.740853	1.334742	0.570739
C18	C	-0.506019	1.143425	0.506224
C19	C	-0.506037	1.036211	0.506234
C20	C	-0.506041	0.949141	0.506251
C21	C	-0.506048	0.839908	0.506283
C22	C	-0.779002	1.393982	0.506239
C23	C	-0.895779	1.394045	0.506265
C24	C	-0.950636	1.455791	0.439152
C25	C	-1.060360	1.455850	0.439184
C26	C	-1.060360	1.332410	0.573446
C27	C	-0.950638	1.332356	0.573418
C28	C	-0.950637	1.527055	0.361634
C29	C	-1.060361	1.527115	0.361666
C30	C	-0.232002	1.394123	0.506306
C31	C	-0.115225	1.394158	0.506325
C32	C	-0.505929	1.394106	0.780295
C33	C	-0.505884	1.394135	0.897071
C34	C	-0.506052	1.645632	0.506298
C35	C	-0.506059	1.752846	0.506314
C36	C	-0.506065	1.394027	0.233294
C37	C	-0.505814	1.394185	0.116518
C38	C	-0.438685	1.455858	0.951955
C39	C	-0.438647	1.455881	1.061679
C40	C	-0.573016	1.332456	1.061626
C41	C	-0.573047	1.332429	0.951904
C42	C	-0.361112	1.527120	0.951987
C43	C	-0.361074	1.527142	1.061711
H44	H	-0.905974	1.282087	0.628076
C45	C	-0.256661	1.490996	1.107717
H46	H	-0.260208	1.492220	1.182077
H47	H	-0.201208	1.531435	1.084768
H48	H	-0.244172	1.427001	1.084703
H49	H	-0.627763	1.282165	0.907221
H50	H	-1.094305	1.598088	0.390885
C51	C	-0.904770	1.490942	0.257172
H52	H	-0.960270	1.474902	0.210670
H53	H	-0.862901	1.435594	0.269587
H54	H	-0.862851	1.540064	0.226802
C55	C	-1.120708	1.264553	0.647302
H56	H	-1.193912	1.273424	0.637704
H57	H	-1.102655	1.278625	0.717902
H58	H	-1.102798	1.199738	0.631848
C59	C	-0.910287	1.627936	0.391167
H60	H	-0.835829	1.627895	0.391136
H61	H	-0.935027	1.644605	0.458990
H62	H	-0.935099	1.673541	0.341577
C63	C	-0.646897	1.264592	1.121945
H64	H	-0.637260	1.273451	1.195153
H65	H	-0.631526	1.199782	1.103956
H66	H	-0.717498	1.278691	1.103948
C67	C	-1.100711	1.500145	0.251736
H68	H	-1.042848	1.489003	0.206506
H69	H	-1.142048	1.551303	0.224757
H70	H	-1.142120	1.443470	0.256129
C71	C	-0.251207	1.500107	0.911779
H72	H	-0.205986	1.489007	0.969700
H73	H	-0.224185	1.551231	0.870431
H74	H	-0.255648	1.443400	0.870410
C75	C	-0.400500	1.622959	0.906008
H76	H	-0.418013	1.665658	0.961458
H77	H	-0.460766	1.611469	0.864083
H78	H	-0.347006	1.650885	0.864125
C79	C	-0.390536	1.628053	1.101956
H80	H	-0.402688	1.669536	1.044050
H81	H	-0.334845	1.652914	1.143337
H82	H	-0.452274	1.623960	1.143299
