data_functionalizedCrystal
_audit_creation_method	'MofGen! by Chris Wilmer'
_symmetry_space_group_name_H-M	'P1'
_symmetry_Int_Tables_number	1
_symmetry_cell_setting	triclinic
loop_
_symmetry_equiv_pos_as_xyz
  x,y,z
_cell_length_a	10.723024
_cell_length_b	19.188930
_cell_length_c	9.798715
_cell_angle_alpha	89.991738
_cell_angle_beta	89.996609
_cell_angle_gamma	83.806325
loop_
_atom_site_label
_atom_site_type_symbol
_atom_site_fract_x
_atom_site_fract_y
_atom_site_fract_z
O1	O	1.655155	0.097922	-0.113499
O2	O	1.291808	0.107295	-0.113506
O3	O	1.483967	0.001021	-0.113476
O4	O	1.462996	0.204196	-0.113529
O5	O	1.483952	0.001021	0.113507
O6	O	1.291793	0.107295	0.113477
O7	O	1.655140	0.097922	0.113483
Zn8	Zn	1.473465	0.102608	0.149518
Zn9	Zn	1.473483	0.102609	-0.149541
O10	O	1.462982	0.204196	0.113453
C11	C	1.245315	0.106613	-0.000015
C12	C	1.106803	0.104572	-0.000016
C13	C	1.483280	-0.024995	0.000019
C14	C	1.481242	-0.102512	0.000031
C15	C	1.030586	0.164037	-0.000033
C16	C	0.887427	0.161930	-0.000034
C17	C	1.593994	-0.146704	0.000040
C18	C	1.592079	-0.219540	0.000018
C19	C	1.477405	-0.248182	0.000015
C20	C	1.364638	-0.203981	-0.000001
C21	C	1.366556	-0.131146	0.000007
N22	N	1.389745	-0.356756	0.077260
N23	N	1.387931	-0.425947	0.077255
C24	C	1.471618	-0.467628	-0.000013
N25	N	1.557208	-0.437506	-0.077259
N26	N	1.559026	-0.368310	-0.077248
C27	C	1.475312	-0.327158	0.000005
C28	C	1.582302	-0.590797	-0.000030
C29	C	1.580382	-0.663634	-0.000061
C30	C	1.352937	-0.648073	-0.000066
C31	C	1.354860	-0.575238	-0.000049
C32	C	1.469546	-0.546604	-0.000025
C33	C	1.701633	0.098604	-0.000011
C34	C	1.840145	0.100645	-0.000019
C35	C	1.463668	0.230211	-0.000045
C36	C	1.465706	0.307729	-0.000066
N37	N	1.473461	0.102608	0.353618
N38	N	1.473497	0.102604	-0.353640
C39	C	1.554147	0.057789	0.421407
C40	C	1.554167	0.057787	0.578570
H41	H	1.071319	0.216508	-0.000039
O42	O	1.636752	0.012076	0.648043
C43	C	1.760327	0.023829	0.613171
H44	H	1.760943	0.079695	0.573791
H45	H	1.822901	0.016063	0.707190
H46	H	1.797065	-0.014768	0.530336
H47	H	0.821937	0.212836	-0.000054
H48	H	1.274736	-0.095165	0.000000
O49	O	0.918382	0.039953	-0.000185
C50	C	0.994552	0.037306	-0.117759
H51	H	1.000709	0.092767	-0.156966
H52	H	1.092556	0.011832	-0.091314
H53	H	0.951989	0.005180	-0.200066
O54	O	1.058430	0.041911	0.000058
C55	C	1.157092	-0.012971	0.000035
H56	H	1.245458	0.006953	0.043004
H57	H	1.130021	-0.057934	0.065943
H58	H	1.175576	-0.032310	-0.108856
O59	O	1.693592	-0.562861	0.000038
C60	C	1.671109	-0.489099	0.000020
H61	H	1.573638	-0.472471	0.042996
H62	H	1.744462	-0.466394	0.065924
H63	H	1.677047	-0.468784	-0.108870
O64	O	1.701531	-0.262548	0.000217
C65	C	1.707214	-0.305139	0.117791
H66	H	1.608184	-0.309296	0.156964
H67	H	1.753996	-0.359648	0.091360
H68	H	1.764058	-0.280915	0.200119
O69	O	1.253321	-0.231882	-0.000184
C70	C	1.245405	-0.273524	-0.117759
H71	H	1.343855	-0.291186	-0.156946
H72	H	1.195925	-0.321452	-0.091326
H73	H	1.190032	-0.241609	-0.200079
H74	H	1.672202	-0.699615	-0.000061
O75	O	1.391251	0.148415	0.576683
C76	C	1.458134	0.191686	0.494034
H77	H	1.555831	0.164223	0.472753
H78	H	1.406109	0.202498	0.393505
H79	H	1.466545	0.243327	0.549007
O80	O	1.241650	-0.676002	-0.000015
C81	C	1.264132	-0.749765	-0.000064
H82	H	1.361596	-0.766404	0.042915
H83	H	1.190768	-0.772486	0.065821
H84	H	1.258210	-0.770051	-0.108965
H85	H	1.687380	-0.123395	0.000055
O86	O	1.245216	-0.532406	0.000021
C87	C	1.143587	-0.573302	-0.000021
H88	H	1.175555	-0.627506	0.042944
H89	H	1.064605	-0.546824	0.065881
H90	H	1.108422	-0.578643	-0.108917
H91	H	1.404392	0.140974	0.411931
H92	H	1.623208	0.019418	0.363095
