data_functionalizedCrystal
_audit_creation_method	'MofGen! by Chris Wilmer'
_symmetry_space_group_name_H-M	'P1'
_symmetry_Int_Tables_number	1
_symmetry_cell_setting	triclinic
loop_
_symmetry_equiv_pos_as_xyz
  x,y,z
_cell_length_a	20.919309
_cell_length_b	21.606444
_cell_length_c	21.606444
_cell_angle_alpha	60.001331
_cell_angle_beta	90.000567
_cell_angle_gamma	57.440098
loop_
_atom_site_label
_atom_site_type_symbol
_atom_site_fract_x
_atom_site_fract_y
_atom_site_fract_z
Zr1	Zr	0.641754	0.629093	-0.057034
O2	O	0.535376	0.766232	-0.159863
O3	O	0.674366	0.497516	-0.025514
O4	O	0.674357	0.626641	-0.154633
O5	O	0.535390	0.637102	0.071110
O6	O	0.783987	0.618380	-0.150505
O7	O	0.535384	0.637107	-0.030744
O8	O	0.784002	0.387399	0.080465
O9	O	0.535374	0.868082	-0.159859
O10	O	0.770089	0.543411	-0.008987
O11	O	0.688277	0.549572	0.063944
O12	O	0.688267	0.701600	-0.088076
O13	O	0.606456	0.707761	-0.015144
Zr14	Zr	0.816610	0.615910	0.111996
Zr15	Zr	0.816601	0.615918	-0.050450
Zr16	Zr	0.641763	0.629085	0.105412
Zr17	Zr	0.641752	0.791534	-0.057029
Zr18	Zr	0.816612	0.453470	0.111991
O19	O	0.783998	0.747487	0.080476
O20	O	0.783986	0.747498	-0.150501
O21	O	0.535388	0.766221	0.071114
O22	O	0.922988	0.478772	0.214825
O23	O	0.922976	0.478783	-0.016153
O24	O	0.674378	0.497505	0.205463
O25	O	0.922974	0.607901	-0.016148
O26	O	0.784007	0.618363	0.209595
O27	O	0.674377	0.626624	0.205467
O28	O	0.922980	0.607896	0.085706
O29	O	0.674355	0.857610	-0.154626
O30	O	0.784009	0.387393	0.209588
O31	O	0.922990	0.376921	0.214821
O32	O	0.922983	0.376927	0.085699
O33	O	0.535381	0.868076	-0.030737
O34	O	0.674362	0.857604	-0.025503
O35	O	0.770097	0.543404	0.143038
O36	O	0.851908	0.537242	0.070106
O37	O	0.770087	0.695431	-0.008982
O38	O	0.688275	0.701593	0.063949
C39	C	0.729184	0.419313	0.027474
C40	C	0.729185	0.350353	0.027472
C41	C	0.510475	0.638982	0.019245
C42	C	0.436248	0.644575	0.016450
C43	C	0.771888	0.314740	-0.010599
C44	C	0.771891	0.249939	-0.010593
C45	C	0.729186	0.220759	0.027479
C46	C	0.686481	0.256375	0.065554
C47	C	0.686484	0.321169	0.065553
C48	C	0.686472	-0.004933	0.065560
C49	C	0.686471	-0.069730	0.065556
C50	C	0.771879	-0.076163	-0.010586
C51	C	0.771881	-0.011369	-0.010587
C52	C	0.729181	0.024238	0.027491
C53	C	0.729180	0.094500	0.027487
C54	C	0.729182	0.150502	0.027479
C55	C	0.444083	0.564632	0.056416
C56	C	0.374336	0.569893	0.053788
C57	C	0.296754	0.655098	0.011189
C58	C	0.288920	0.735047	-0.028779
C59	C	0.358666	0.729785	-0.026146
C60	C	0.084029	0.675116	0.001178
C61	C	0.014281	0.680371	-0.001454
C62	C	0.099702	0.515217	0.081114
C63	C	0.169446	0.509963	0.083740
C64	C	0.161606	0.589912	0.043775
C65	C	0.225460	0.660477	0.008499
C66	C	0.232899	0.584531	0.046470
C67	C	0.947889	0.606021	0.035717
C68	C	1.022116	0.600428	0.038512
C69	C	0.729171	0.622511	-0.175714
C70	C	0.729167	0.622514	-0.244677
C71	C	0.729180	0.825690	0.027487
C72	C	0.729179	0.894650	0.027490
C73	C	0.686457	0.705087	-0.318359
C74	C	0.686464	0.705084	-0.383153
C75	C	0.729177	0.622508	-0.374264
C76	C	0.771893	0.539929	-0.300574
C77	C	0.771890	0.539933	-0.235781
C78	C	0.771906	0.539913	-0.561877
C79	C	0.771903	0.539916	-0.626678
C80	C	0.686479	0.705064	-0.709249
C81	C	0.686477	0.705068	-0.644456
C82	C	0.729196	0.622489	-0.570772
C83	C	0.729189	0.622493	-0.500514
C84	C	0.729180	0.622503	-0.444520
C85	C	0.729193	0.622492	0.230676
C86	C	0.729197	0.622489	0.299639
C87	C	0.947891	0.402833	0.035710
C88	C	1.022119	0.328280	0.038503
C89	C	0.729195	0.419304	0.230670
C90	C	0.729200	0.350340	0.299630
C91	C	0.947903	0.402824	0.238905
C92	C	1.022134	0.328267	0.310661
C93	C	0.510461	0.842180	-0.183943
C94	C	0.436230	0.916736	-0.255699
C95	C	0.510473	0.842170	0.019252
C96	C	0.436245	0.916723	0.016459
C97	C	0.729169	0.825699	-0.175708
C98	C	0.729164	0.894663	-0.244668
C99	C	1.014269	0.296489	-0.001478
C100	C	1.084007	0.226447	0.001131
C101	C	1.161595	0.188194	0.043726
C102	C	1.169445	0.219992	0.083708
C103	C	1.099707	0.290036	0.081095
C104	C	0.771911	0.314735	0.373307
C105	C	0.771912	0.249945	0.438109
C106	C	0.729207	0.220759	0.429232
C107	C	0.686490	0.256371	0.355546
C108	C	0.686485	0.321164	0.290746
C109	C	1.099706	0.290038	0.306289
C110	C	1.169462	0.219992	0.373705
C111	C	1.161643	0.188173	0.445492
C112	C	1.084063	0.226409	0.449863
C113	C	1.014309	0.296458	0.382447
C114	C	0.358658	0.954974	-0.251327
C115	C	0.288902	1.025039	-0.318743
C116	C	0.296721	1.056862	-0.390530
C117	C	0.374301	1.018621	-0.394901
C118	C	0.444055	0.948561	-0.327485
C119	C	0.444095	0.948521	0.056433
C120	C	0.374357	1.018581	0.053806
C121	C	0.296769	1.056836	0.011209
C122	C	0.288919	1.025036	-0.028770
C123	C	0.358657	0.954982	-0.026148
C124	C	0.771878	0.923829	-0.235766
C125	C	0.771890	0.988617	-0.300555
C126	C	0.729182	1.024244	-0.374245
C127	C	0.686467	0.995072	-0.383145
C128	C	0.686460	0.930280	-0.318357
H129	H	0.806663	0.220942	-0.041593
C130	C	0.818865	0.884644	-0.154712
C131	C	0.818871	0.813373	-0.083436
C132	C	0.865866	0.774188	-0.002384
C133	C	0.912854	0.806274	0.007392
C134	C	0.912850	0.877549	-0.063886
C135	C	0.865855	0.916734	-0.144938
H136	H	0.784086	0.789617	-0.090670
H137	H	0.865869	0.721425	0.050381
H138	H	0.947642	0.777268	0.067392
H139	H	0.947635	0.901305	-0.056651
H140	H	0.865852	0.969497	-0.197703
H141	H	1.218374	0.131159	0.045849
H142	H	0.225738	1.056194	-0.063452
H143	H	0.729194	1.077002	-0.426993
C144	C	0.639464	0.898209	-0.328157
C145	C	0.639444	0.826943	-0.256903
C146	C	0.592445	0.794876	-0.266710
C147	C	0.545467	0.834074	-0.347770
C148	C	0.545486	0.905345	-0.419030
C149	C	0.592484	0.937412	-0.409223
H150	H	0.674221	0.797922	-0.196892
H151	H	0.592432	0.742117	-0.213958
H152	H	0.510676	0.810336	-0.355030
H153	H	0.510708	0.934365	-0.479041
H154	H	0.592497	0.990171	-0.461975
C155	C	0.639506	0.224276	0.107435
C156	C	0.661816	0.178046	0.194464
C157	C	0.614838	0.145950	0.236344
C158	C	0.545550	0.160085	0.191195
C159	C	0.523236	0.206318	0.104162
C160	C	0.570215	0.238414	0.062282
H161	H	0.713111	0.167580	0.227890
H162	H	0.631356	0.111725	0.300772
H163	H	0.510774	0.136325	0.222197
H164	H	0.471942	0.216783	0.070736
H165	H	0.553696	0.272638	-0.002146
C166	C	1.254796	0.177896	0.130572
C167	C	1.331497	0.100840	0.133451
C168	C	1.416850	0.058735	0.180321
C169	C	1.425502	0.093687	0.224312
C170	C	1.348798	0.170748	0.221435
C171	C	1.263445	0.212852	0.174564
H172	H	1.325095	0.074962	0.100884
H173	H	1.473631	0.001689	0.182451
H174	H	1.488685	0.062519	0.259008
H175	H	1.355200	0.196625	0.254001
H176	H	1.206664	0.269898	0.172435
H177	H	0.806653	0.012391	-0.041592
C178	C	0.818872	1.020704	-0.290752
C179	C	0.911640	0.951341	-0.245594
C180	C	0.958621	0.983426	-0.235789
C181	C	0.912834	1.084874	-0.271141
C182	C	0.820061	1.154243	-0.316302
C183	C	0.773080	1.122158	-0.326107
H184	H	0.945539	0.876238	-0.219421
H185	H	1.027298	0.932074	-0.202358
H186	H	0.947612	1.108625	-0.263883
H187	H	0.786162	1.229347	-0.342475
H188	H	0.704403	1.173510	-0.359539
H189	H	0.239916	1.113909	-0.445418
C190	C	0.639508	0.360349	0.107430
C191	C	0.592531	0.328256	0.149307
C192	C	0.545557	0.367431	0.191189
C193	C	0.545561	0.438699	0.191194
C194	C	0.592541	0.470795	0.149315
C195	C	0.639514	0.431620	0.107433
H196	H	0.592526	0.275497	0.149306
H197	H	0.510780	0.343671	0.222191
H198	H	0.510789	0.467699	0.222197
H199	H	0.592545	0.523555	0.149317
H200	H	0.674291	0.455380	0.076431
C201	C	0.818884	0.346838	0.383085
C202	C	0.818887	0.418110	0.311819
C203	C	0.865857	0.450215	0.321605
C204	C	0.912824	0.411047	0.402656
C205	C	0.912823	0.339771	0.473928
C206	C	0.865853	0.307666	0.464143
H207	H	0.784117	0.447108	0.251815
H208	H	0.865857	0.502978	0.268844
H209	H	0.947594	0.434813	0.409900
H210	H	0.947593	0.310773	0.533933
H211	H	0.865853	0.254903	0.516903
H212	H	1.077600	0.200567	-0.031428
C213	C	0.639493	0.795903	-0.654236
C214	C	0.685282	0.814277	-0.618877
C215	C	0.638300	0.905114	-0.628660
C216	C	0.545529	0.977578	-0.673802
C217	C	0.499735	0.959206	-0.709164
C218	C	0.546717	0.868369	-0.699381
H219	H	0.753961	0.760633	-0.585458
H220	H	0.672201	0.918714	-0.602482
H221	H	0.510751	1.044821	-0.681044
H222	H	0.431056	1.012850	-0.742584
H223	H	0.512816	0.854769	-0.725559
H224	H	0.352253	0.929095	-0.058698
H225	H	0.651686	0.772323	-0.443147
H226	H	0.806700	0.220957	0.498100
H227	H	0.507251	0.495249	0.091109
C228	C	0.382969	0.481946	0.097769
C229	C	0.427798	0.413088	0.078750
C230	C	0.436439	0.325132	0.122744
C231	C	0.400253	0.306035	0.185756
C232	C	0.355422	0.374895	0.204778
C233	C	0.346780	0.462850	0.160785
H234	H	0.454588	0.427223	0.032102
H235	H	0.469627	0.274158	0.108662
H236	H	0.406650	0.240925	0.218323
H237	H	0.328632	0.360760	0.251427
H238	H	0.313593	0.513825	0.174866
C239	C	0.075395	0.763061	-0.042795
C240	C	0.111595	0.782158	-0.105797
C241	C	0.102960	0.870109	-0.149776
C242	C	0.058125	0.938963	-0.130753
C243	C	0.021922	0.919867	-0.067748
C244	C	0.030557	0.831916	-0.023769
H245	H	0.144787	0.731187	-0.119881
H246	H	0.129760	0.884244	-0.196416
H247	H	0.051733	1.004069	-0.163309
H248	H	-0.011270	0.970839	-0.053664
H249	H	0.003757	0.817781	0.022871
H250	H	1.106088	0.315934	0.247842
H251	H	0.651707	0.350146	0.230757
H252	H	0.380764	1.044461	0.086366
C253	C	1.254792	0.177938	0.368884
C254	C	1.280421	0.131463	0.328204
C255	C	1.365748	0.089412	0.323380
C256	C	1.425446	0.093834	0.359237
C257	C	1.399819	0.140310	0.399919
C258	C	1.314491	0.182362	0.404743
H259	H	1.236228	0.128188	0.301659
H260	H	1.384720	0.055007	0.293264
H261	H	1.488611	0.062705	0.355666
H262	H	1.444012	0.143586	0.426465
H263	H	1.295520	0.216767	0.434859
C264	C	0.639488	1.034272	-0.464209
C265	C	0.661778	0.970253	-0.487220
C266	C	0.614797	1.009459	-0.568286
C267	C	0.545525	1.112685	-0.626341
C268	C	0.523231	1.176711	-0.603332
C269	C	0.570213	1.137504	-0.522266
H270	H	0.713061	0.893833	-0.444243
H271	H	0.631300	0.962063	-0.585319
H272	H	0.510746	1.141708	-0.686352
H273	H	0.471948	1.253130	-0.646309
H274	H	0.553709	1.184900	-0.505233
H275	H	0.951098	0.327634	-0.036173
H276	H	0.806659	0.338498	-0.041605
C277	C	0.818870	0.449102	-0.154727
C278	C	0.818872	0.449101	-0.083455
C279	C	0.865857	0.358267	-0.002401
C280	C	0.912839	0.267434	0.007382
C281	C	0.912838	0.267431	-0.063893
C282	C	0.865854	0.358265	-0.144947
H283	H	0.784092	0.516344	-0.090695
H284	H	0.865857	0.358270	0.050361
H285	H	0.947620	0.200193	0.067383
H286	H	0.947619	0.200187	-0.056654
H287	H	0.865853	0.358262	-0.197709
C288	C	0.350049	0.817724	-0.070112
C289	C	0.264714	0.911449	-0.116973
C290	C	0.256094	0.999390	-0.160937
C291	C	0.332810	0.993607	-0.158040
C292	C	0.418152	0.899878	-0.111177
C293	C	0.426771	0.811937	-0.067213
H294	H	0.207918	0.915733	-0.119119
H295	H	0.192918	1.068774	-0.195628
H296	H	0.326429	1.058706	-0.190585
H297	H	0.474947	0.895594	-0.109031
H298	H	0.489947	0.742553	-0.032522
C299	C	1.075475	0.191387	0.528835
C300	C	1.111693	0.197545	0.585666
C301	C	1.103110	0.162511	0.664641
C302	C	1.058309	0.121319	0.686784
C303	C	1.022089	0.115159	0.629951
C304	C	1.030671	0.150193	0.550976
H305	H	1.144860	0.228039	0.569275
H306	H	1.129923	0.167070	0.706712
H307	H	1.051956	0.095384	0.745246
H308	H	0.988922	0.084665	0.646342
H309	H	1.003858	0.145634	0.508905
C310	C	0.639495	0.795904	-0.790305
C311	C	0.592507	0.886735	-0.800082
C312	C	0.545522	0.977572	-0.881134
C313	C	0.545523	0.977579	-0.952409
C314	C	0.592513	0.886745	-0.942634
C315	C	0.639498	0.795907	-0.861582
H316	H	0.592504	0.886733	-0.747318
H317	H	0.510737	1.044813	-0.888370
H318	H	0.510742	1.044822	-1.012409
H319	H	0.592516	0.886746	-0.995399
H320	H	0.674283	0.728666	-0.854347
C321	C	0.818884	0.449077	-0.480833
C322	C	0.911654	0.376609	-0.453513
C323	C	0.958633	0.285767	-0.372465
C324	C	0.912841	0.267393	-0.318737
C325	C	0.820066	0.339863	-0.346056
C326	C	0.773087	0.430705	-0.427104
H327	H	0.945557	0.390209	-0.493287
H328	H	1.027311	0.232120	-0.352242
H329	H	0.947617	0.200147	-0.258740
H330	H	0.786163	0.326263	-0.306282
H331	H	0.704409	0.484352	-0.447327
H332	H	0.806651	-0.105165	-0.041589
H333	H	0.162285	0.729851	-0.026185
H334	H	0.651706	0.024047	0.096569
H335	H	0.651693	-0.093487	0.096561
H336	H	0.106076	0.450127	0.113651
H337	H	0.232613	0.440580	0.118414
H338	H	-0.048892	0.749759	-0.036147
H339	H	0.225746	0.804422	-0.063460
H340	H	0.296069	0.515158	0.081157
H341	H	0.651669	0.772330	-0.325606
H342	H	1.106111	0.315911	0.113657
H343	H	0.806688	0.472668	-0.619431
H344	H	0.806675	0.472694	-0.293341
H345	H	0.729218	0.168000	0.482003
H346	H	0.239990	1.113878	0.009080
H347	H	0.951149	0.327576	0.386018
H348	H	0.651720	0.232598	0.348330
H349	H	1.218448	0.131134	0.500380
H350	H	0.225740	1.056163	-0.315169
H351	H	0.352276	0.929068	-0.192880
H352	H	0.380658	1.044540	-0.453358
H353	H	0.507216	0.917429	-0.331054
H354	H	0.507266	0.917379	0.091126
