data_functionalizedCrystal
_audit_creation_method	'MofGen! by Chris Wilmer'
_symmetry_space_group_name_H-M	'P1'
_symmetry_Int_Tables_number	1
_symmetry_cell_setting	triclinic
loop_
_symmetry_equiv_pos_as_xyz
  x,y,z
_cell_length_a	11.792254
_cell_length_b	10.268362
_cell_length_c	14.971486
_cell_angle_alpha	89.994507
_cell_angle_beta	96.093637
_cell_angle_gamma	90.004525
loop_
_atom_site_label
_atom_site_type_symbol
_atom_site_fract_x
_atom_site_fract_y
_atom_site_fract_z
O1	O	1.506109	0.108300	-0.122652
O2	O	2.006109	0.608300	0.377348
O3	O	1.175688	0.108303	-0.135275
O4	O	1.675688	0.608303	0.364725
O5	O	1.349755	0.108292	0.001201
O6	O	1.849755	0.608292	0.501201
O7	O	1.332043	0.108311	-0.259128
O8	O	1.832043	0.608311	0.240872
O9	O	1.349740	-0.108309	0.001207
O10	O	1.849740	0.391691	0.501207
O11	O	1.175673	-0.108298	-0.135269
O12	O	1.675673	0.391702	0.364731
O13	O	1.506094	-0.108301	-0.122646
O14	O	2.006094	0.391699	0.377354
Cu15	Cu	1.340882	-0.128077	-0.128957
Cu16	Cu	1.840882	0.371923	0.371043
Cu17	Cu	1.340900	0.128079	-0.128964
Cu18	Cu	1.840900	0.628079	0.371036
O19	O	1.332027	-0.108290	-0.259122
O20	O	1.832027	0.391710	0.240878
C21	C	1.133395	0.000003	-0.134477
C22	C	1.633395	0.500003	0.365523
C23	C	1.007398	0.000004	-0.132097
C24	C	1.507398	0.500004	0.367903
C25	C	0.905073	0.000009	-0.130163
C26	C	1.405073	0.500009	0.369837
C27	C	0.776702	0.000010	-0.127745
C28	C	1.276702	0.500010	0.372255
N29	N	1.340878	-0.308243	-0.128952
N30	N	1.840878	0.191757	0.371048
C31	C	1.340894	-0.573913	-0.128962
C32	C	1.840894	-0.073913	0.371038
C33	C	1.340881	-0.426075	-0.128959
C34	C	1.840881	0.073925	0.371041
C35	C	1.548387	0.000002	-0.123444
C36	C	2.048387	0.500002	0.376556
C37	C	1.674385	0.000010	-0.125824
C38	C	2.174385	0.500010	0.374176
C39	C	1.348955	-0.000008	0.034532
C40	C	1.848955	0.499992	0.534532
C41	C	1.346581	-0.000007	0.133838
C42	C	1.846581	0.499993	0.633838
N43	N	1.340913	0.308245	-0.128962
N44	N	1.840913	0.808245	0.371038
C45	C	1.332827	0.000013	-0.292453
C46	C	1.832827	0.500013	0.207547
C47	C	1.335201	0.000020	-0.391759
C48	C	1.835201	0.500020	0.108241
C49	C	1.448841	-0.000009	0.190650
C50	C	1.948841	0.499991	0.690650
C51	C	1.446603	0.000004	0.283959
C52	C	1.946603	0.500004	0.783959
C53	C	1.342106	0.000010	0.320454
C54	C	1.842106	0.500010	0.820454
C55	C	1.239839	0.000016	0.263634
C56	C	1.739839	0.500016	0.763634
C57	C	1.242077	0.000012	0.170328
C58	C	1.742077	0.500012	0.670328
C59	C	1.235180	0.000021	0.458116
C60	C	1.735180	0.500021	0.958116
C61	C	1.232942	0.000022	0.551429
C62	C	1.732942	0.500022	1.051429
C63	C	1.439707	0.000013	0.571747
C64	C	1.939707	0.500013	1.071747
C65	C	1.441945	0.000009	0.478440
C66	C	1.941945	0.500009	0.978440
C67	C	1.339678	0.000013	0.421627
C68	C	1.839678	0.500013	0.921627
H69	H	1.533935	-0.000021	0.160944
H70	H	2.033935	0.499979	0.660944
H71	H	1.151903	0.000027	0.411860
H72	H	1.651903	0.500027	0.911860
F73	F	1.555442	0.000000	0.344419
F74	F	2.055442	0.500000	0.844419
F75	F	1.121724	0.000026	0.590267
F76	F	1.621724	0.500026	1.090267
H77	H	1.158807	0.000014	0.124072
H78	H	1.658807	0.500014	0.624072
F79	F	1.128624	0.000037	0.302477
F80	F	1.628624	0.500037	0.802477
F81	F	1.553163	0.000006	0.439602
F82	F	2.053163	0.500006	0.939602
H83	H	1.522977	0.000014	0.618009
H84	H	2.022977	0.500014	1.118009
