data_functionalizedCrystal
_audit_creation_method	'MofGen! by Chris Wilmer'
_symmetry_space_group_name_H-M	'P1'
_symmetry_Int_Tables_number	1
_symmetry_cell_setting	triclinic
loop_
_symmetry_equiv_pos_as_xyz
  x,y,z
_cell_length_a	14.519731
_cell_length_b	14.519731
_cell_length_c	9.130313
_cell_angle_alpha	89.994496
_cell_angle_beta	89.996385
_cell_angle_gamma	83.688853
loop_
_atom_site_label
_atom_site_type_symbol
_atom_site_fract_x
_atom_site_fract_y
_atom_site_fract_z
O1	O	1.223863	0.120983	-0.121806
O2	O	1.723863	0.620983	0.378194
O3	O	0.955390	0.135199	-0.121808
O4	O	1.455390	0.635199	0.378192
O5	O	1.096735	-0.006145	-0.121794
O6	O	1.596735	0.493855	0.378206
O7	O	1.082519	0.262328	-0.121821
O8	O	1.582519	0.762328	0.378179
O9	O	1.096725	-0.006149	0.121805
O10	O	1.596725	0.493851	0.621805
O11	O	0.955381	0.135195	0.121790
O12	O	1.455381	0.635195	0.621790
O13	O	1.223854	0.120979	0.121793
O14	O	1.723854	0.620979	0.621793
Cu15	Cu	1.089616	0.128087	0.144034
Cu16	Cu	1.589616	0.628087	0.644034
Cu17	Cu	1.089628	0.128092	-0.144050
Cu18	Cu	1.589628	0.628092	0.355950
O19	O	1.082509	0.262324	0.121778
O20	O	1.582509	0.762324	0.621778
C21	C	0.921026	0.134531	-0.000009
C22	C	1.421026	0.634531	0.499991
C23	C	0.818645	0.132535	-0.000010
C24	C	1.318645	0.632535	0.499990
C25	C	0.735501	0.130913	-0.000016
C26	C	1.235501	0.630913	0.499984
C27	C	0.631192	0.128887	-0.000016
C28	C	1.131192	0.628887	0.499984
C29	C	0.548053	0.127278	-0.000016
C30	C	1.048053	0.627278	0.499984
C31	C	0.443738	0.125252	-0.000019
C32	C	0.943738	0.625252	0.499981
C33	C	1.096064	-0.040507	0.000006
C34	C	1.596064	0.459493	0.500006
C35	C	1.094068	-0.142887	0.000007
C36	C	1.594068	0.357113	0.500007
C37	C	1.092446	-0.226031	0.000003
C38	C	1.592446	0.273969	0.500003
C39	C	1.090419	-0.330340	-0.000008
C40	C	1.590419	0.169660	0.499992
C41	C	1.088811	-0.413479	-0.000017
C42	C	1.588811	0.086521	0.499983
C43	C	1.086785	-0.517795	-0.000026
C44	C	1.586785	-0.017795	0.499974
C45	C	1.258218	0.121648	-0.000009
C46	C	1.758218	0.621648	0.499991
C47	C	1.360598	0.123644	-0.000018
C48	C	1.860598	0.623644	0.499982
C49	C	1.083180	0.296685	-0.000025
C50	C	1.583180	0.796685	0.499975
C51	C	1.085176	0.399066	-0.000035
C52	C	1.585176	0.899066	0.499965
N53	N	1.089615	0.128083	0.346657
N54	N	1.589615	0.628083	0.846657
N55	N	1.089636	0.128088	-0.346672
N56	N	1.589636	0.628088	0.153328
C57	C	1.152223	0.065522	0.423315
C58	C	1.652223	0.565522	0.923315
C59	C	1.152232	0.065522	0.576652
C60	C	1.652232	0.565522	1.076652
C61	C	1.027021	0.190652	0.576659
C62	C	1.527021	0.690652	1.076659
C63	C	1.027009	0.190647	0.423325
C64	C	1.527009	0.690647	0.923325
H65	H	1.203212	0.014578	0.639063
H66	H	1.703212	0.514578	1.139063
H67	H	0.976021	0.241592	0.360905
H68	H	1.476021	0.741592	0.860905
H69	H	0.976050	0.241592	0.639097
H70	H	1.476050	0.741592	1.139097
H71	H	1.203200	0.014577	0.360896
H72	H	1.703200	0.514577	0.860896
