data_functionalizedCrystal
_audit_creation_method	'MofGen! by Chris Wilmer'
_symmetry_space_group_name_H-M	'P1'
_symmetry_Int_Tables_number	1
_symmetry_cell_setting	triclinic
loop_
_symmetry_equiv_pos_as_xyz
  x,y,z
_cell_length_a	11.792241
_cell_length_b	15.711784
_cell_length_c	10.268362
_cell_angle_alpha	89.993292
_cell_angle_beta	89.999021
_cell_angle_gamma	101.891108
loop_
_atom_site_label
_atom_site_type_symbol
_atom_site_fract_x
_atom_site_fract_y
_atom_site_fract_z
O1	O	0.623700	1.149861	-0.108363
O2	O	0.537109	0.897791	-0.108352
O3	O	0.417724	1.029943	-0.108348
O4	O	0.743084	1.017709	-0.108366
O5	O	0.417726	1.029929	0.108252
O6	O	0.537111	0.897777	0.108249
O7	O	0.623702	1.149847	0.108238
Cu8	Cu	0.580406	1.023811	0.128021
Cu9	Cu	0.580404	1.023827	-0.128135
O10	O	0.743086	1.017695	0.108234
C11	C	0.522964	0.865514	-0.000050
C12	C	0.480802	0.769358	-0.000046
C13	C	0.375121	1.029167	-0.000049
C14	C	0.248171	1.026867	-0.000050
C15	C	0.322077	0.643666	-0.000036
C16	C	0.361706	0.734018	-0.000039
C17	C	0.560317	0.714352	-0.000055
C18	C	0.520704	0.623997	-0.000058
C19	C	0.401583	0.588661	-0.000047
C20	C	0.600210	0.568992	-0.000069
C21	C	0.560600	0.478644	-0.000065
C22	C	0.441484	0.443302	-0.000050
C23	C	0.361973	0.498314	-0.000043
C24	C	0.719331	0.604329	-0.000071
C25	C	0.798837	0.549324	-0.000083
C26	C	0.759228	0.458975	-0.000088
C27	C	0.640112	0.423632	-0.000073
C28	C	0.838739	0.403963	-0.000095
C29	C	0.799129	0.313615	-0.000091
C30	C	0.600502	0.333285	-0.000069
C31	C	0.015737	1.022638	-0.000071
C32	C	0.145079	1.024988	-0.000060
C33	C	0.785689	1.018470	-0.000068
C34	C	0.912639	1.020770	-0.000076
C35	C	0.637846	1.182124	-0.000067
C36	C	0.680008	1.278280	-0.000080
N37	N	0.580410	1.023805	0.308187
C38	C	0.580414	1.023811	0.426029
C39	C	0.580409	1.023821	0.573867
N40	N	0.580400	1.023833	0.691699
H41	H	0.503502	0.304513	-0.000073
H42	H	0.409236	0.369735	-0.000035
C43	C	0.291006	0.847016	0.111316
C44	C	0.274297	0.794478	-0.000030
H45	H	0.237038	0.884336	0.111325
H46	H	0.367604	0.880994	0.111296
H47	H	0.279687	0.811347	0.186841
H48	H	0.285625	0.830147	-0.075556
H49	H	0.197681	0.760496	-0.000023
H50	H	0.264973	0.469542	-0.000048
H51	H	0.935728	0.432747	-0.000091
H52	H	0.863872	0.268828	-0.000095
H53	H	0.225076	0.614894	-0.000040
C54	C	0.980324	0.560384	-0.111452
C55	C	0.929773	0.588169	-0.000098
H56	H	1.061160	0.584361	-0.111458
H57	H	0.946006	0.579243	-0.186964
H58	H	0.968103	0.498704	-0.111440
H59	H	0.941986	0.649850	-0.000115
H60	H	0.964102	0.569315	0.075433
H61	H	0.657306	0.743135	-0.000060
H62	H	0.751578	0.677896	-0.000070
