data_functionalizedCrystal
_audit_creation_method	'MofGen! by Chris Wilmer'
_symmetry_space_group_name_H-M	'P1'
_symmetry_Int_Tables_number	1
_symmetry_cell_setting	triclinic
loop_
_symmetry_equiv_pos_as_xyz
  x,y,z
_cell_length_a	8.559649
_cell_length_b	27.731996
_cell_length_c	7.088929
_cell_angle_alpha	83.823571
_cell_angle_beta	95.324505
_cell_angle_gamma	76.200026
loop_
_atom_site_label
_atom_site_type_symbol
_atom_site_fract_x
_atom_site_fract_y
_atom_site_fract_z
O1	O	2.104001	-0.010831	-0.158975
O2	O	1.638163	0.014157	-0.158991
O3	O	1.885597	-0.069243	-0.158941
O4	O	1.856566	0.072569	-0.159025
O5	O	1.918665	-0.080411	0.159041
O6	O	1.671230	0.002989	0.158991
O7	O	2.137068	-0.021999	0.159007
Cu8	Cu	1.907169	-0.010525	0.188033
Cu9	Cu	1.868062	0.002682	-0.188017
O10	O	1.889634	0.061401	0.158957
C11	C	1.595119	0.010466	-0.000002
C12	C	1.417595	0.016103	-0.000006
C13	C	1.901536	-0.092814	0.000056
C14	C	1.899742	-0.146408	0.000076
C15	C	1.870409	-0.472640	-0.173350
C16	C	1.863586	-0.674059	-0.173384
O17	O	1.847306	-0.694919	-0.320797
N18	N	1.880764	-0.705334	-0.000054
C19	C	1.899639	-0.686251	0.173297
O20	O	1.914077	-0.717473	0.320725
C21	C	1.906450	-0.484832	0.173329
C22	C	1.889287	-0.453560	-0.000012
C23	C	1.853246	-0.441368	-0.346678
C24	C	1.854960	-0.391017	-0.346667
C25	C	1.873838	-0.371938	-0.173330
C26	C	1.891001	-0.403209	-0.000002
C27	C	1.925313	-0.465749	0.346678
C28	C	1.927010	-0.415390	0.346671
C29	C	1.909847	-0.384118	0.173329
C30	C	1.911594	-0.333778	0.173346
N31	N	1.894416	-0.302503	0.000015
C32	C	1.875538	-0.321583	-0.173322
C33	C	1.896065	-0.791999	0.173268
C34	C	1.894365	-0.842354	0.173261
C35	C	1.858310	-0.830158	-0.173421
C36	C	1.860021	-0.779803	-0.173412
C37	C	1.878887	-0.760724	-0.000062
C38	C	1.879141	-0.215842	-0.173288
C39	C	1.880864	-0.165488	-0.173262
C40	C	1.916911	-0.177688	0.173419
C41	C	1.915197	-0.228038	0.173394
C42	C	1.896305	-0.247114	0.000026
O43	O	1.927849	-0.312883	0.320682
O44	O	1.861067	-0.290350	-0.320727
C45	C	1.868694	-0.522991	-0.173360
C46	C	1.885858	-0.554262	-0.000033
C47	C	1.904736	-0.535183	0.173305
C48	C	1.884158	-0.604617	-0.000040
C49	C	1.865280	-0.623697	-0.173378
C50	C	1.848102	-0.592422	-0.346708
C51	C	1.849816	-0.542070	-0.346698
C52	C	1.921914	-0.566458	0.346635
C53	C	1.920200	-0.616809	0.346611
C54	C	1.901322	-0.635888	0.173273
C55	C	2.180112	-0.018308	0.000013
C56	C	2.357634	-0.023945	0.000005
C57	C	1.873695	0.084972	-0.000045
C58	C	1.875487	0.138566	-0.000077
N59	N	1.934686	-0.019815	0.452527
N60	N	1.840558	0.011968	-0.452511
H61	H	1.333117	0.054702	-0.000048
H62	H	1.442119	-0.062546	0.000027
O63	O	1.864094	-0.135174	-0.341826
C64	C	1.828248	-0.128408	-0.685685
C65	C	1.847188	-0.162788	-0.494936
H66	H	1.814609	-0.150723	-0.809524
H67	H	1.716139	-0.095950	-0.694490
H68	H	1.940103	-0.113102	-0.694246
H69	H	1.735422	-0.178130	-0.486247
H70	H	1.959364	-0.195219	-0.486211
O71	O	1.860511	-0.234373	-0.341636
C72	C	1.699100	-0.273546	-0.542812
C73	C	1.719973	-0.252563	-0.352119
H74	H	1.585499	-0.288267	-0.551332
H75	H	1.687015	-0.242555	-0.666768
H76	H	1.809420	-0.305384	-0.551452
H77	H	1.609691	-0.220732	-0.343293
H78	H	1.732131	-0.283583	-0.228254
O79	O	1.837918	-0.360658	-0.515156
C80	C	1.668910	-0.324309	-0.811494
C81	C	1.688035	-0.358679	-0.620684
H82	H	1.547751	-0.322707	-0.896884
H83	H	1.673213	-0.285009	-0.782000
H84	H	1.771683	-0.339798	-0.896918
H85	H	1.585290	-0.343236	-0.535164
H86	H	1.683802	-0.397975	-0.650313
O87	O	1.843034	-0.749429	-0.341854
C88	C	1.674145	-0.713025	-0.638219
C89	C	1.693172	-0.747422	-0.447492
H90	H	1.553004	-0.711400	-0.723699
H91	H	1.678472	-0.673735	-0.608604
H92	H	1.776947	-0.728506	-0.723614
H93	H	1.590398	-0.731985	-0.362002
H94	H	1.688915	-0.786707	-0.477242
H95	H	2.032256	-0.052751	0.534202
O96	O	1.724335	0.051320	0.450162
C97	C	1.622426	0.141073	0.388599
C98	C	1.754172	0.096554	0.498920
H99	H	1.646484	0.177655	0.428010
H100	H	1.624665	0.140354	0.228367
H101	H	1.498515	0.138164	0.427847
H102	H	1.878148	0.099434	0.459832
H103	H	1.751790	0.097288	0.659125
O104	O	1.834633	-0.459899	-0.515023
C105	C	1.673257	-0.499069	-0.716256
C106	C	1.694104	-0.478094	-0.525543
H107	H	1.559664	-0.513794	-0.724806
H108	H	1.661171	-0.468072	-0.840192
H109	H	1.783588	-0.530903	-0.724902
H110	H	1.583811	-0.446267	-0.516711
H111	H	1.706263	-0.509119	-0.401698
H112	H	1.842940	-0.845701	-0.314560
O113	O	1.911313	-0.872772	0.341589
C114	C	2.068816	-0.947343	0.542770
C115	C	2.049862	-0.912933	0.352089
H116	H	2.180809	-0.979826	0.551304
H117	H	2.082698	-0.925086	0.666737
H118	H	1.956885	-0.962608	0.551375
H119	H	2.161755	-0.897659	0.343297
H120	H	2.035905	-0.935213	0.228213
H121	H	1.911436	-0.776471	0.314439
O122	O	1.942205	-0.496162	0.515000
C123	C	2.099619	-0.570737	0.716227
C124	C	2.080738	-0.536330	0.525552
H125	H	2.211598	-0.603227	0.724802
H126	H	2.113482	-0.548480	0.840199
H127	H	1.987665	-0.585992	0.724782
H128	H	2.192653	-0.521066	0.516810
H129	H	2.066799	-0.558610	0.401670
H130	H	1.942349	-0.399857	0.487836
O131	O	1.932182	-0.258460	0.341732
C132	C	2.089753	-0.333025	0.542887
C133	C	2.070736	-0.298617	0.352190
H134	H	2.201748	-0.365506	0.551387
H135	H	2.103665	-0.310766	0.666839
H136	H	1.977834	-0.348294	0.551552
H137	H	2.182615	-0.283340	0.343338
H138	H	2.056747	-0.320899	0.228329
H139	H	1.835840	-0.516613	-0.487851
O140	O	1.935507	-0.159195	0.341850
C141	C	2.105318	-0.164844	0.638274
C142	C	2.084516	-0.185828	0.447571
H143	H	2.225770	-0.186374	0.723821
H144	H	2.103690	-0.123488	0.608624
H145	H	2.001818	-0.169157	0.723618
H146	H	2.187985	-0.181550	0.362131
H147	H	2.086074	-0.227176	0.477355
O148	O	1.829515	-0.610888	-0.515205
C149	C	1.659461	-0.605281	-0.811411
C150	C	1.680347	-0.584308	-0.620699
H151	H	1.538850	-0.583807	-0.896739
H152	H	1.762770	-0.600947	-0.897060
H153	H	1.661263	-0.646645	-0.781554
H154	H	1.678506	-0.542939	-0.650383
H155	H	1.577040	-0.588681	-0.535109
H156	H	1.937289	-0.550929	0.487791
O157	O	1.937129	-0.647227	0.514952
C158	C	2.094588	-0.721801	0.716147
C159	C	2.075666	-0.687393	0.525469
H160	H	2.206570	-0.754288	0.724695
H161	H	2.108471	-0.699544	0.840117
H162	H	1.982644	-0.737059	0.724736
H163	H	2.187572	-0.672125	0.516694
H164	H	2.061708	-0.709671	0.401590
