data_functionalizedCrystal
_audit_creation_method	'MofGen! by Chris Wilmer'
_symmetry_space_group_name_H-M	'P1'
_symmetry_Int_Tables_number	1
_symmetry_cell_setting	triclinic
loop_
_symmetry_equiv_pos_as_xyz
  x,y,z
_cell_length_a	23.532407
_cell_length_b	23.532357
_cell_length_c	15.186229
_cell_angle_alpha	89.990735
_cell_angle_beta	89.999328
_cell_angle_gamma	82.838519
loop_
_atom_site_label
_atom_site_type_symbol
_atom_site_fract_x
_atom_site_fract_y
_atom_site_fract_z
O1	O	0.755246	0.069136	-0.073184
O2	O	1.255246	0.569136	0.426816
O3	O	0.589381	0.079140	-0.073199
O4	O	1.089381	0.579140	0.426801
O5	O	0.677330	-0.008796	-0.073173
O6	O	1.177330	0.491204	0.426827
O7	O	0.667297	0.157072	-0.073210
O8	O	1.167297	0.657072	0.426790
O9	O	0.677324	-0.008797	0.073285
O10	O	1.177324	0.491203	0.573285
O11	O	0.589375	0.079138	0.073258
O12	O	1.089375	0.579138	0.573258
O13	O	0.755240	0.069135	0.073274
O14	O	1.255240	0.569135	0.573274
Zn15	Zn	0.672307	0.074136	0.096519
Zn16	Zn	1.172307	0.574136	0.596519
Zn17	Zn	0.672315	0.074138	-0.096444
Zn18	Zn	1.172315	0.574138	0.403556
O19	O	0.667291	0.157070	0.073247
O20	O	1.167291	0.657070	0.573247
C21	C	0.568162	0.078884	0.000028
C22	C	1.068162	0.578884	0.500028
C23	C	0.504945	0.078118	0.000023
C24	C	1.004945	0.578118	0.500023
C25	C	0.677076	-0.030013	0.000059
C26	C	1.177076	0.469987	0.500059
C27	C	0.676322	-0.093232	0.000067
C28	C	1.176322	0.406768	0.500067
C29	C	0.238788	0.022922	0.000059
C30	C	0.738788	0.522922	0.500059
C31	C	0.298188	0.023633	0.000059
C32	C	0.798188	0.523633	0.500059
O33	O	0.334940	-0.020154	0.000099
O34	O	0.834940	0.479846	0.500099
N35	N	0.320805	0.075911	0.000041
N36	N	0.820805	0.575911	0.500041
C37	C	0.284018	0.127480	0.000033
C38	C	0.784018	0.627480	0.500033
O39	O	0.308710	0.172012	0.000019
O40	O	0.808710	0.672012	0.500019
C41	C	0.224619	0.126768	0.000040
C42	C	0.724619	0.626768	0.500040
C43	C	0.202006	0.074487	0.000048
C44	C	0.702006	0.574487	0.500048
C45	C	0.216174	-0.029355	0.000069
C46	C	0.716174	0.470645	0.500069
C47	C	0.156778	-0.030066	0.000068
C48	C	0.656778	0.469934	0.500068
C49	C	0.119996	0.021499	0.000057
C50	C	0.619996	0.521499	0.500057
C51	C	0.142610	0.073776	0.000047
C52	C	0.642610	0.573776	0.500047
C53	C	0.187833	0.178337	0.000037
C54	C	0.687833	0.678337	0.500037
C55	C	0.128431	0.177620	0.000045
C56	C	0.628431	0.677620	0.500045
C57	C	0.105818	0.125339	0.000054
C58	C	0.605818	0.625339	0.500054
C59	C	0.046431	0.124630	0.000035
C60	C	0.546431	0.624630	0.500035
N61	N	0.023815	0.072353	0.000052
N62	N	0.523815	0.572353	0.500052
C63	C	0.060597	0.020787	0.000063
C64	C	0.560597	0.520787	0.500063
C65	C	0.408760	0.128971	0.000020
C66	C	0.908760	0.628971	0.500020
C67	C	0.468158	0.129684	0.000007
C68	C	0.968158	0.629684	0.500007
C69	C	0.482324	0.025837	0.000035
C70	C	0.982324	0.525837	0.500035
C71	C	0.422925	0.025125	0.000042
C72	C	0.922925	0.525125	0.500042
C73	C	0.386143	0.076694	0.000038
C74	C	0.886143	0.576694	0.500038
C75	C	-0.064140	0.019297	0.000060
C76	C	0.435860	0.519297	0.500060
C77	C	-0.123542	0.018591	0.000055
C78	C	0.376458	0.518591	0.500055
C79	C	-0.137702	0.122438	0.000032
C80	C	0.362298	0.622438	0.500032
C81	C	-0.078306	0.123145	0.000032
C82	C	0.421694	0.623145	0.500032
C83	C	-0.041525	0.071570	0.000049
C84	C	0.458475	0.571570	0.500049
O85	O	0.009644	0.168394	-0.000002
O86	O	0.509644	0.668394	0.499998
O87	O	0.035897	-0.023737	0.000089
O88	O	0.535897	0.476263	0.500089
C89	C	0.671588	-0.485242	-0.079815
C90	C	1.171588	0.014758	0.420185
C91	C	0.670871	-0.544642	-0.079820
C92	C	1.170871	-0.044642	0.420180
O93	O	0.670483	-0.575357	-0.147716
O94	O	1.170483	-0.075357	0.352284
N95	N	0.670512	-0.574354	0.000013
N96	N	1.170512	-0.074354	0.500013
C97	C	0.670865	-0.544662	0.079856
C98	C	1.170865	-0.044662	0.579856
O99	O	0.670493	-0.575388	0.147759
O100	O	1.170493	-0.075388	0.647759
C101	C	0.671578	-0.485263	0.079860
C102	C	1.171578	0.014737	0.579860
C103	C	0.671942	-0.455555	0.000022
C104	C	1.171942	0.044445	0.500022
C105	C	0.671952	-0.455534	-0.159646
C106	C	1.171952	0.044466	0.340354
C107	C	0.672670	-0.396139	-0.159641
C108	C	1.172670	0.103861	0.340359
C109	C	0.673025	-0.366452	-0.079804
C110	C	1.173025	0.133548	0.420196
C111	C	0.672661	-0.396160	0.000027
C112	C	1.172661	0.103840	0.500027
C113	C	0.671926	-0.455572	0.159702
C114	C	1.171926	0.044428	0.659702
C115	C	0.672639	-0.396169	0.159699
C116	C	1.172639	0.103831	0.659699
C117	C	0.673004	-0.366461	0.079861
C118	C	1.173004	0.133539	0.579861
C119	C	0.673733	-0.307078	0.079870
C120	C	1.173733	0.192922	0.579870
N121	N	0.674092	-0.277366	0.000037
N122	N	1.174092	0.222634	0.500037
C123	C	0.673738	-0.307053	-0.079800
C124	C	1.173738	0.192947	0.420200
C125	C	0.669366	-0.669404	0.079841
C126	C	1.169366	-0.169404	0.579841
C127	C	0.668657	-0.728802	0.079838
C128	C	1.168657	-0.228802	0.579838
C129	C	0.668662	-0.728777	-0.079838
C130	C	1.168662	-0.228777	0.420162
C131	C	0.669375	-0.669378	-0.079834
C132	C	1.169375	-0.169378	0.420166
C133	C	0.669725	-0.639692	0.000008
C134	C	1.169725	-0.139692	0.500008
C135	C	0.675247	-0.182319	-0.079783
C136	C	1.175247	0.317681	0.420217
C137	C	0.675967	-0.122919	-0.079770
C138	C	1.175967	0.377081	0.420230
C139	C	0.675959	-0.122948	0.079906
C140	C	1.175959	0.377052	0.579906
C141	C	0.675242	-0.182343	0.079894
C142	C	1.175242	0.317657	0.579894
C143	C	0.674883	-0.212027	0.000042
C144	C	1.174883	0.287973	0.500042
O145	O	0.674119	-0.276324	0.147731
O146	O	1.174119	0.223676	0.647731
O147	O	0.674102	-0.276318	-0.147692
O148	O	1.174102	0.223682	0.352308
C149	C	0.776459	0.069390	0.000045
C150	C	1.276459	0.569390	0.500045
C151	C	0.839676	0.070156	0.000044
C152	C	1.339676	0.570156	0.500044
C153	C	0.667545	0.178288	0.000014
C154	C	1.167545	0.678288	0.500014
C155	C	0.668300	0.241506	0.000000
C156	C	1.168300	0.741506	0.500000
N157	N	0.672306	0.074135	0.228212
N158	N	1.172306	0.574135	0.728212
N159	N	0.672320	0.074135	-0.228137
N160	N	1.172320	0.574135	0.271863
C161	C	0.711263	0.035210	0.453946
C162	C	1.211263	0.535210	0.953946
C163	C	0.711265	0.035209	0.546136
C164	C	1.211265	0.535209	1.046136
C165	C	0.633359	0.113062	0.546122
C166	C	1.133359	0.613062	1.046122
C167	C	0.633355	0.113060	0.453934
C168	C	1.133355	0.613060	0.953934
C169	C	0.672310	0.074135	0.407849
C170	C	1.172310	0.574135	0.907849
C171	C	0.672316	0.074135	0.592226
C172	C	1.172316	0.574135	1.092226
C173	C	0.672318	0.074134	0.692182
C174	C	1.172318	0.574134	1.192182
C175	C	0.672308	0.074135	0.307886
C176	C	1.172308	0.574135	0.807886
H177	H	-0.141950	-0.023984	0.000060
H178	H	0.358050	0.476016	0.500060
C179	C	0.671587	-0.488184	-0.247481
C180	C	1.171587	0.011816	0.252519
N181	N	0.671325	-0.512773	-0.313644
N182	N	1.171325	-0.012773	0.186356
H183	H	0.601632	0.144757	0.416399
H184	H	1.101632	0.644757	0.916399
C185	C	0.674846	-0.215024	0.167719
C186	C	1.174846	0.284976	0.667719
N187	N	0.674542	-0.239634	0.233871
N188	N	1.174542	0.260366	0.733871
H189	H	0.601643	0.144754	0.583654
H190	H	1.101643	0.644754	1.083654
H191	H	0.512283	-0.016151	0.000044
H192	H	1.012283	0.483849	0.500044
H193	H	0.676266	-0.098733	-0.144786
H194	H	1.176266	0.401267	0.355214
H195	H	0.672965	-0.371956	-0.224653
H196	H	1.172965	0.128044	0.275347
C197	C	0.674863	-0.214963	-0.167623
C198	C	1.174863	0.285037	0.332377
N199	N	0.674580	-0.239552	-0.233784
N200	N	1.174580	0.260448	0.266216
H201	H	-0.034199	-0.022700	0.000074
H202	H	0.465801	0.477300	0.500074
H203	H	0.138372	-0.072639	0.000079
H204	H	0.638372	0.427361	0.500079
H205	H	0.246117	-0.071348	0.000081
H206	H	0.746117	0.428652	0.500081
H207	H	0.669671	-0.645194	-0.144845
H208	H	1.169671	-0.145194	0.355155
C209	C	0.398056	-0.032388	0.000061
C210	C	0.898056	0.467612	0.500061
N211	N	0.379329	-0.075709	0.000080
N212	N	0.879329	0.424291	0.500080
C213	C	0.673026	-0.363518	0.247535
C214	C	1.173026	0.136482	0.747535
N215	N	0.673320	-0.338926	0.313692
N216	N	1.173320	0.161074	0.813692
C217	C	0.493025	0.187197	-0.000010
C218	C	0.993025	0.687197	0.499990
N219	N	0.511753	0.230518	-0.000015
N220	N	1.011753	0.730518	0.499985
C221	C	0.368305	0.185706	0.000007
C222	C	0.868305	0.685706	0.500007
N223	N	0.337836	0.228438	-0.000002
N224	N	0.837836	0.728438	0.499998
C225	C	0.676343	-0.090280	0.167722
C226	C	1.176343	0.409720	0.667722
N227	N	0.676627	-0.065672	0.233866
N228	N	1.176627	0.434328	0.733866
H229	H	0.669652	-0.645237	0.144862
H230	H	1.169652	-0.145237	0.644862
H231	H	-0.059893	0.165716	0.000024
H232	H	0.440107	0.665716	0.500024
C233	C	0.212694	0.235851	0.000042
C234	C	0.712694	0.735851	0.500042
N235	N	0.231417	0.279174	0.000052
N236	N	0.731417	0.779174	0.500052
C237	C	0.087974	0.234352	0.000038
C238	C	0.587974	0.734352	0.500038
N239	N	0.057503	0.277082	0.000030
N240	N	0.557503	0.777082	0.500030
H241	H	0.668372	-0.752959	-0.144846
H242	H	1.168372	-0.252959	0.355154
C243	C	0.754110	-0.007613	0.403256
C244	C	1.254110	0.492387	0.903256
N245	N	0.786382	-0.039871	0.365078
N246	N	1.286382	0.460129	0.865078
C247	C	0.754111	-0.007616	0.596840
C248	C	1.254111	0.492384	1.096840
N249	N	0.786383	-0.039875	0.635029
N250	N	1.286383	0.460125	1.135029
C251	C	0.671518	-0.488237	0.247532
C252	C	1.171518	0.011763	0.747532
N253	N	0.671207	-0.512838	0.313691
N254	N	1.171207	-0.012838	0.813691
C255	C	-0.178174	0.179157	0.000026
C256	C	0.321826	0.679157	0.500026
N257	N	-0.208659	0.221878	0.000029
N258	N	0.291341	0.721878	0.500029
C259	C	0.668262	-0.761475	0.167666
C260	C	1.168262	-0.261475	0.667666
N261	N	0.667960	-0.786081	0.233821
N262	N	1.167960	-0.286081	0.733821
