data_functionalizedCrystal
_audit_creation_method	'MofGen! by Chris Wilmer'
_symmetry_space_group_name_H-M	'P1'
_symmetry_Int_Tables_number	1
_symmetry_cell_setting	triclinic
loop_
_symmetry_equiv_pos_as_xyz
  x,y,z
_cell_length_a	13.033291
_cell_length_b	13.032721
_cell_length_c	12.827885
_cell_angle_alpha	82.850965
_cell_angle_beta	97.209857
_cell_angle_gamma	105.184202
loop_
_atom_site_label
_atom_site_type_symbol
_atom_site_fract_x
_atom_site_fract_y
_atom_site_fract_z
Zn1	Zn	1.570236	-0.216749	0.818159
Zn2	Zn	1.547549	-0.394407	0.663080
Zn3	Zn	1.392594	-0.239340	0.623696
Zn4	Zn	1.370015	-0.416855	0.818039
O5	O	1.470098	-0.316838	0.730744
O6	O	1.715870	-0.221467	0.814120
O7	O	1.526948	-0.373897	0.511621
O8	O	1.435102	-0.087702	0.633060
O9	O	1.699201	-0.351991	0.700184
O10	O	1.565616	-0.071105	0.775931
O11	O	1.413103	-0.259970	0.482686
O12	O	1.240956	-0.281737	0.632944
O13	O	1.396621	-0.390251	0.964290
O14	O	1.224368	-0.412157	0.775727
O15	O	1.543722	-0.243234	0.964378
O16	O	1.505055	-0.546026	0.700068
O17	O	1.374621	-0.562519	0.813916
C18	C	1.194120	-0.351835	0.700049
C19	C	1.076052	-0.366832	0.686945
C20	C	1.434955	-0.592809	0.761278
C21	C	1.420018	-0.710859	0.774387
C22	C	0.909623	-0.324528	0.724050
C23	C	1.031652	-0.309030	0.737593
C24	C	1.477951	-0.755287	0.723955
C25	C	1.462514	-0.877297	0.737503
C26	C	1.747154	-0.281705	0.761559
C27	C	1.865219	-0.266733	0.774690
C28	C	1.470184	-0.316727	1.003311
C29	C	1.470220	-0.316679	1.119463
C30	C	1.505408	-0.039785	0.700116
C31	C	1.520455	0.078279	0.687064
C32	C	1.470084	-0.316864	0.459235
C33	C	1.470292	-0.316586	0.343074
C34	C	1.543019	-0.243917	1.171290
C35	C	1.543058	-0.243866	1.291339
H36	H	0.857298	-0.385477	0.670664
H37	H	1.083975	-0.248067	0.790973
H38	H	1.401486	-0.929584	0.790717
H39	H	1.023731	-0.427791	0.633560
C40	C	1.386084	-0.400751	1.282879
C41	C	1.308609	-0.365253	1.193455
C42	C	1.224401	-0.449418	1.133251
C43	C	1.217667	-0.569080	1.162471
C44	C	1.295145	-0.604584	1.251899
C45	C	1.379353	-0.520419	1.312103
H46	H	1.313591	-0.276667	1.171821
H47	H	1.167047	-0.423135	1.067050
H48	H	1.155331	-0.631384	1.117904
H49	H	1.290163	-0.693170	1.273533
H50	H	1.436707	-0.546702	1.378304
H51	H	1.605388	-0.181575	1.335911
C52	C	1.602906	-0.851094	0.615179
C53	C	1.721768	-0.850808	0.638889
C54	C	1.804217	-0.780179	0.567006
C55	C	1.767804	-0.709837	0.471413
C56	C	1.648937	-0.710120	0.447698
C57	C	1.566488	-0.780749	0.519582
H58	H	1.748728	-0.902882	0.709657
H59	H	1.892210	-0.779969	0.584561
H60	H	1.828838	-0.657553	0.418200
H61	H	1.621977	-0.658046	0.376931
H62	H	1.478495	-0.780958	0.502026
C63	C	0.935897	-0.184385	0.846808
C64	C	1.006358	-0.220882	0.942293
C65	C	1.077033	-0.138531	1.014413
C66	C	1.077246	-0.019683	0.991047
C67	C	1.006782	0.016821	0.895558
C68	C	0.936107	-0.065530	0.823438
H69	H	1.006202	-0.308866	0.959594
H70	H	1.129195	-0.165554	1.085101
H71	H	1.129564	0.041278	1.044435
H72	H	1.006938	0.104804	0.878257
H73	H	0.883945	-0.038508	0.752750
C74	C	1.560401	-0.684653	0.652079
C75	C	1.523994	-0.614306	0.556487
C76	C	1.606447	-0.543674	0.484611
C77	C	1.725308	-0.543388	0.508327
C78	C	1.761721	-0.613738	0.603923
C79	C	1.679268	-0.684370	0.675799
H80	H	1.436001	-0.614515	0.538927
H81	H	1.579491	-0.491597	0.413844
H82	H	1.786345	-0.491102	0.455119
H83	H	1.849714	-0.613528	0.621483
H84	H	1.706224	-0.736447	0.746566
C85	C	1.627185	-0.159809	1.111178
C86	C	1.591685	-0.082363	1.021776
C87	C	1.675854	0.001747	0.961666
C88	C	1.795523	0.008411	0.990958
C89	C	1.831029	-0.069037	1.080364
C90	C	1.746860	-0.153147	1.140474
H91	H	1.503094	-0.087294	1.000089
H92	H	1.649570	0.059080	0.895482
H93	H	1.857830	0.070674	0.946461
H94	H	1.919620	-0.064107	1.102052
H95	H	1.773144	-0.210480	1.206659
H96	H	1.358994	-0.763150	0.827597
H97	H	1.407917	-0.378930	1.163965
