data_functionalizedCrystal
_audit_creation_method	'MofGen! by Chris Wilmer'
_symmetry_space_group_name_H-M	'P1'
_symmetry_Int_Tables_number	1
_symmetry_cell_setting	triclinic
loop_
_symmetry_equiv_pos_as_xyz
  x,y,z
_cell_length_a	21.295420
_cell_length_b	21.295417
_cell_length_c	14.908803
_cell_angle_alpha	86.719914
_cell_angle_beta	86.709143
_cell_angle_gamma	90.028757
loop_
_atom_site_label
_atom_site_type_symbol
_atom_site_fract_x
_atom_site_fract_y
_atom_site_fract_z
Zn1	Zn	0.941693	-0.271287	0.510058
Zn2	Zn	0.947707	-0.370452	0.359190
Zn3	Zn	0.842527	-0.265199	0.359217
Zn4	Zn	0.836388	-0.376516	0.509996
O5	O	0.892079	-0.320864	0.434615
O6	O	1.030580	-0.284451	0.490059
O7	O	0.938841	-0.351405	0.232953
O8	O	0.855734	-0.177919	0.379264
O9	O	1.034998	-0.357308	0.379217
O10	O	0.928591	-0.182391	0.490086
O11	O	0.861565	-0.274075	0.232973
O12	O	0.753624	-0.279955	0.379204
O13	O	0.845271	-0.367643	0.636245
O14	O	0.749114	-0.361740	0.489981
O15	O	0.922638	-0.290331	0.636290
O16	O	0.932888	-0.459345	0.379157
O17	O	0.851103	-0.463800	0.489954
C18	C	0.728528	-0.320845	0.434589
C19	C	0.658560	-0.320854	0.434600
C20	C	0.891998	-0.484413	0.434565
C21	C	0.892020	-0.554382	0.434574
C22	C	0.156771	-0.363521	0.492241
C23	C	0.222514	-0.363520	0.492231
C24	C	0.257718	-0.320879	0.434644
C25	C	0.227175	-0.278245	0.377045
C26	C	0.161434	-0.278251	0.377050
N27	N	0.361234	-0.265488	0.427861
N28	N	0.423685	-0.265485	0.427862
C29	C	0.455794	-0.320860	0.434625
N30	N	0.423091	-0.376242	0.441404
N31	N	0.360634	-0.376244	0.441408
C32	C	0.329004	-0.320868	0.434632
C33	C	0.557616	-0.363494	0.492205
C34	C	0.623360	-0.363495	0.492189
C35	C	0.628019	-0.278214	0.377007
C36	C	0.562276	-0.278219	0.377018
C37	C	0.527078	-0.320858	0.434622
C38	C	0.934639	-0.584910	0.376941
C39	C	0.934668	-0.650653	0.376962
C40	C	0.892067	-0.685865	0.434605
C41	C	0.849444	-0.655330	0.492249
C42	C	0.849421	-0.589588	0.492234
N43	N	0.836721	-0.789407	0.441474
N44	N	0.836746	-0.851859	0.441483
C45	C	0.892135	-0.883942	0.434657
N46	N	0.947502	-0.851213	0.427803
N47	N	0.947477	-0.788755	0.427789
C48	C	0.892087	-0.757152	0.434629
C49	C	0.934789	-0.985757	0.377043
C50	C	0.934818	-1.051502	0.377070
C51	C	0.849589	-1.056176	0.492353
C52	C	0.849565	-0.990433	0.492331
C53	C	0.892164	-0.955227	0.434671
C54	C	1.056268	-0.320882	0.434642
C55	C	1.126236	-0.320890	0.434653
C56	C	0.882599	-0.330343	0.669916
C57	C	0.878559	-0.334382	0.770187
C58	C	0.892176	-0.156676	0.434685
C59	C	0.892217	-0.086709	0.434715
C60	C	0.951529	-0.261453	0.958656
C61	C	0.947735	-0.265246	1.052869
C62	C	0.867176	-0.345758	1.052829
C63	C	0.870969	-0.341965	0.958616
C64	C	0.913148	-0.299812	0.911532
C65	C	0.916944	-0.296022	0.817317
C66	C	0.836382	-0.376530	0.817279
C67	C	0.832588	-0.380323	0.911492
C68	C	0.901518	-0.311436	1.200230
C69	C	0.905561	-0.307398	1.099959
H70	H	0.128117	-0.398243	0.539143
H71	H	0.951289	-0.261699	0.778983
H72	H	0.969528	-1.076356	0.330140
H73	H	0.247382	-0.398235	0.539129
H74	H	0.985876	-0.227133	0.920320
H75	H	0.528956	-0.398214	0.539108
H76	H	0.255843	-0.243527	0.330155
H77	H	0.136572	-0.243534	0.330154
H78	H	0.814905	-1.084846	0.539291
H79	H	0.648221	-0.398214	0.539081
H80	H	0.805131	-0.407766	0.778901
C81	C	0.803386	-0.957256	0.555009
C82	C	0.836649	-0.921807	0.612886
C83	C	0.794129	-0.891243	0.670650
H84	H	0.777344	-0.930206	0.520562
H85	H	0.778026	-0.987624	0.589396
H86	H	0.861998	-0.891443	0.578503
H87	H	0.862689	-0.948842	0.647353
H88	H	0.768770	-0.921611	0.705036
H89	H	0.768089	-0.864197	0.636195
H90	H	0.816692	-0.867193	0.709931
C91	C	0.786839	-0.426186	0.962501
C92	C	0.801430	-0.487544	0.939547
C93	C	0.759295	-0.529810	0.986508
H94	H	0.790035	-0.423037	1.025374
H95	H	0.745160	-0.416389	0.947039
H96	H	0.843098	-0.497338	0.955015
H97	H	0.798229	-0.490713	0.876682
H98	H	0.717616	-0.520014	0.971046
H99	H	0.762494	-0.526656	1.049379
H100	H	0.769185	-0.571446	0.970934
H101	H	0.814759	-0.684004	0.539185
H102	H	0.832836	-0.380077	1.091181
C103	C	0.666342	-0.231946	0.314578
C104	C	0.730452	-0.241056	0.326911
C105	C	0.765777	-0.198441	0.269420
H106	H	0.658076	-0.238612	0.253906
H107	H	0.655089	-0.190188	0.327899
H108	H	0.741702	-0.282804	0.313583
H109	H	0.738738	-0.234385	0.387571
H110	H	0.754523	-0.156683	0.282741
H111	H	0.757505	-0.205110	0.208752
H112	H	0.809279	-0.204612	0.277786
C113	C	0.529233	-0.231857	0.314468
C114	C	0.574131	-0.194502	0.264048
C115	C	0.543716	-0.151780	0.206421
H116	H	0.505159	-0.254238	0.275021
H117	H	0.502225	-0.205827	0.349032
H118	H	0.601129	-0.220529	0.229486
H119	H	0.598208	-0.172107	0.303471
H120	H	0.516707	-0.125750	0.240985
H121	H	0.519642	-0.174166	0.166980
H122	H	0.574174	-0.126425	0.172210
H123	H	0.969376	-0.675514	0.330030
C124	C	0.980966	-0.546800	0.314318
C125	C	1.018309	-0.587613	0.263867
C126	C	1.060999	-0.552527	0.206181
H127	H	0.958561	-0.519594	0.274892
H128	H	1.007008	-0.522526	0.348841
H129	H	0.992269	-0.611876	0.229347
H130	H	1.040727	-0.614819	0.303269
H131	H	1.087042	-0.528254	0.240705
H132	H	1.038589	-0.525323	0.166762
H133	H	1.086345	-0.580214	0.171950
C134	C	0.803074	-0.556554	0.554841
C135	C	0.765761	-0.601458	0.605318
C136	C	0.723053	-0.571049	0.662991
H137	H	0.825464	-0.532457	0.594250
H138	H	0.777012	-0.529567	0.520308
H139	H	0.791819	-0.628433	0.639848
H140	H	0.743357	-0.625556	0.565932
H141	H	0.696992	-0.544062	0.628458
H142	H	0.745449	-0.546954	0.702394
H143	H	0.697727	-0.601511	0.697240
C144	C	0.989483	-0.223571	1.103870
C145	C	1.027242	-0.185856	1.042467
C146	C	1.065714	-0.147460	1.089416
H147	H	0.964008	-0.197566	1.140635
H148	H	1.015453	-0.249117	1.140597
H149	H	1.001274	-0.160312	1.005756
H150	H	1.052729	-0.211843	1.005701
H151	H	1.091684	-0.173006	1.126143
H152	H	1.040235	-0.121460	1.126179
H153	H	1.091342	-0.121870	1.047761
H154	H	0.969478	-0.957091	0.330096
