data_functionalizedCrystal
_audit_creation_method	'MofGen! by Chris Wilmer'
_symmetry_space_group_name_H-M	'P1'
_symmetry_Int_Tables_number	1
_symmetry_cell_setting	triclinic
loop_
_symmetry_equiv_pos_as_xyz
  x,y,z
_cell_length_a	21.395364
_cell_length_b	17.641079
_cell_length_c	21.395355
_cell_angle_alpha	101.198684
_cell_angle_beta	89.975273
_cell_angle_gamma	78.821123
loop_
_atom_site_label
_atom_site_type_symbol
_atom_site_fract_x
_atom_site_fract_y
_atom_site_fract_z
Zn1	Zn	1.008318	-0.314732	-0.404766
Zn2	Zn	1.029404	-0.446861	-0.321190
Zn3	Zn	0.903533	-0.314728	-0.300002
Zn4	Zn	0.924682	-0.446837	-0.425925
O5	O	0.966484	-0.380790	-0.362971
O6	O	1.098795	-0.332271	-0.393691
O7	O	1.012681	-0.429342	-0.230702
O8	O	0.899757	-0.204145	-0.296176
O9	O	1.114287	-0.429345	-0.332288
O10	O	0.976743	-0.204148	-0.373146
O11	O	0.920203	-0.332265	-0.215136
O12	O	0.818658	-0.332241	-0.316694
O13	O	0.935803	-0.429304	-0.510795
O14	O	0.834197	-0.429301	-0.409210
O15	O	0.997250	-0.332248	-0.495249
O16	O	1.033188	-0.557442	-0.352806
O17	O	0.956249	-0.557424	-0.429755
C18	C	0.803693	-0.380768	-0.362949
C19	C	0.734054	-0.380778	-0.362958
C20	C	0.240381	-0.431421	-0.411120
C21	C	0.305817	-0.431421	-0.411113
C22	C	0.330420	-0.380807	-0.362993
C23	C	0.289584	-0.330203	-0.314867
C24	C	0.224151	-0.330210	-0.314872
C25	C	0.422691	-0.309590	-0.346715
C26	C	0.488123	-0.309582	-0.346714
C27	C	0.532237	-0.380786	-0.362976
C28	C	0.510913	-0.452001	-0.379252
C29	C	0.445480	-0.452008	-0.379256
C30	C	0.401370	-0.380794	-0.362983
C31	C	0.644018	-0.431391	-0.411090
C32	C	0.709455	-0.431392	-0.411079
C33	C	0.693220	-0.330167	-0.314835
C34	C	0.627785	-0.330173	-0.314844
C35	C	0.603188	-0.380783	-0.362974
C36	C	0.999319	-0.586106	-0.395889
C37	C	1.013423	-0.673942	-0.409993
C38	C	1.073337	-0.797678	-0.469964
C39	C	1.060079	-0.715143	-0.456707
C40	C	0.980003	-0.715265	-0.376520
C41	C	0.993252	-0.797801	-0.389772
C42	C	1.039920	-0.839001	-0.436495
C43	C	0.959834	-0.839125	-0.356303
C44	C	0.973084	-0.921654	-0.369553
C45	C	1.019752	-0.962860	-0.416272
C46	C	1.053170	-0.921530	-0.449744
C47	C	0.913170	-0.797923	-0.309578
C48	C	0.879753	-0.839247	-0.276109
C49	C	0.892999	-0.921778	-0.289361
C50	C	0.939666	-0.962983	-0.336080
C51	C	0.859581	-0.963107	-0.255889
C52	C	0.872831	-1.045636	-0.269138
C53	C	0.952916	-1.045512	-0.349330
C54	C	1.129911	-0.380811	-0.362993
C55	C	1.199554	-0.380821	-0.363002
C56	C	0.966534	-0.380774	-0.526391
C57	C	0.966555	-0.380767	-0.596032
C58	C	0.933539	-0.174671	-0.329937
C59	C	0.919499	-0.086836	-0.315860
C60	C	0.998548	-0.330227	-0.620651
C61	C	0.998542	-0.330193	-0.686081
C62	C	0.966551	-0.380713	-0.726891
C63	C	0.934550	-0.431256	-0.702265
C64	C	0.934552	-0.431283	-0.636835
C65	C	0.972983	-0.451867	-0.841974
C66	C	0.972986	-0.451841	-0.907403
C67	C	0.966542	-0.380629	-0.928699
C68	C	0.960108	-0.309441	-0.884557
C69	C	0.960110	-0.309468	-0.819127
C70	C	0.966545	-0.380689	-0.797840
C71	C	0.998530	-0.330049	-1.024264
C72	C	0.998519	-0.330013	-1.089695
C73	C	0.934532	-0.431083	-1.105879
C74	C	0.934538	-0.431112	-1.040448
C75	C	0.966541	-0.380595	-0.999645
C76	C	0.966462	-0.380749	-0.200176
C77	C	0.966527	-0.380533	-0.130501
H78	H	0.742698	-0.472603	-0.450261
H79	H	0.821588	-0.929551	-0.217843
H80	H	1.111326	-0.831225	-0.508022
H81	H	0.845619	-1.079282	-0.241885
F82	F	1.102837	-0.965383	-0.499474
F83	F	0.953251	-0.233646	-0.907215
F84	F	1.033962	-1.050695	-0.430265
F85	F	1.002584	-1.089365	-0.399059
H86	H	0.908501	-0.472387	-0.735497
F87	F	1.032605	-0.276460	-0.577227
H88	H	0.713251	-0.288959	-0.275653
H89	H	1.024584	-0.288911	-0.991039
H90	H	0.428120	-0.509993	-0.392507
F91	F	1.032581	-0.276228	-1.115896
F92	F	0.584331	-0.276311	-0.263633
H93	H	0.942007	-0.681711	-0.338476
H94	H	0.190908	-0.289003	-0.275688
F95	F	0.510812	-0.233789	-0.329401
F96	F	0.315769	-0.276338	-0.263653
H97	H	1.087297	-0.681502	-0.483965
H98	H	0.386776	-0.251604	-0.333461
F99	F	1.032583	-0.276387	-0.712286
H100	H	0.902386	-0.730723	-0.298789
F101	F	0.953259	-0.233706	-0.772152
H102	H	0.841757	-0.805693	-0.238066
F103	F	0.900479	-0.484845	-1.149308
H104	H	0.908490	-0.472271	-1.020405
F105	F	0.979839	-0.527606	-0.954376
F106	F	0.900499	-0.485076	-0.610634
F107	F	0.214208	-0.485289	-0.462342
F108	F	0.349276	-0.485279	-0.462329
F109	F	0.979857	-0.527667	-0.819318
H110	H	0.546831	-0.509982	-0.392498
H111	H	0.623991	-0.472602	-0.450280
