data_functionalizedCrystal
_audit_creation_method	'MofGen! by Chris Wilmer'
_symmetry_space_group_name_H-M	'P1'
_symmetry_Int_Tables_number	1
_symmetry_cell_setting	triclinic
loop_
_symmetry_equiv_pos_as_xyz
  x,y,z
_cell_length_a	19.077260
_cell_length_b	19.077236
_cell_length_c	19.077271
_cell_angle_alpha	90.102669
_cell_angle_beta	94.499739
_cell_angle_gamma	85.317177
loop_
_atom_site_label
_atom_site_type_symbol
_atom_site_fract_x
_atom_site_fract_y
_atom_site_fract_z
Zn1	Zn	0.256430	1.047611	0.450455
Zn2	Zn	0.756430	1.547611	0.950455
Zn3	Zn	0.369553	1.047597	0.337325
Zn4	Zn	0.869553	1.547597	0.837325
Zn5	Zn	0.256026	0.934866	0.328221
Zn6	Zn	0.756026	1.434866	0.828221
Zn7	Zn	0.379003	0.925005	0.450427
Zn8	Zn	0.879003	1.425005	0.950427
O9	O	0.315253	0.988769	0.391607
O10	O	0.815253	1.488769	0.891607
O11	O	0.267649	1.146098	0.439270
O12	O	0.767649	1.646098	0.939270
O13	O	0.350369	1.036764	0.237628
O14	O	0.850369	1.536764	0.737628
O15	O	0.157271	0.953954	0.340637
O16	O	0.657271	1.453954	0.840637
O17	O	0.350760	1.146088	0.356153
O18	O	0.850760	1.646088	0.856153
O19	O	0.157568	1.036787	0.430443
O20	O	0.657568	1.536787	0.930443
O21	O	0.266962	0.953941	0.230939
O22	O	0.766962	1.453941	0.730939
O23	O	0.276126	0.835068	0.340610
O24	O	0.776126	1.335068	0.840610
O25	O	0.366867	0.937147	0.548921
O26	O	0.866867	1.437147	1.048921
O27	O	0.366476	0.827823	0.430395
O28	O	0.866476	1.327823	0.930395
O29	O	0.276813	1.027226	0.548941
O30	O	0.776813	1.527226	1.048941
O31	O	0.469615	1.027202	0.356126
O32	O	0.969615	1.527202	0.856126
O33	O	0.476558	0.937134	0.439222
O34	O	0.976558	1.437134	0.939222
C35	C	0.322283	0.805908	0.384512
C36	C	0.822283	1.305908	0.884512
C37	C	0.325309	0.727678	0.381494
C38	C	0.825309	1.227678	0.881494
C39	C	0.131083	0.996472	0.384528
C40	C	0.631083	1.496472	0.884528
C41	C	0.052601	0.999755	0.381511
C42	C	0.552601	1.499755	0.881511
C43	C	0.283533	0.690926	0.423422
C44	C	0.783533	1.190926	0.923422
C45	C	0.286372	0.617420	0.420580
C46	C	0.786372	1.117420	0.920580
C47	C	0.330991	0.580669	0.375813
C48	C	0.830991	1.080669	0.875813
C49	C	0.372768	0.617427	0.333881
C50	C	0.872768	1.117427	0.833881
C51	C	0.369925	0.690931	0.336719
C52	C	0.869925	1.190931	0.836719
C53	C	0.344122	0.360835	0.362672
C54	C	0.844122	0.860835	0.862672
C55	C	0.346964	0.287326	0.359838
C56	C	0.846964	0.787326	0.859838
C57	C	0.260567	0.287325	0.446537
C58	C	0.760567	0.787325	0.946537
C59	C	0.257731	0.360830	0.449375
C60	C	0.757731	0.860830	0.949375
C61	C	0.299505	0.397582	0.407439
C62	C	0.799505	0.897582	0.907439
N63	N	0.333895	0.505535	0.372909
N64	N	0.833895	1.005535	0.872909
N65	N	0.296596	0.472715	0.410340
N66	N	0.796596	0.972715	0.910340
C67	C	0.019347	0.954402	0.423354
C68	C	0.519347	1.454402	0.923354
C69	C	-0.054396	0.957489	0.420521
C70	C	0.445604	1.457489	0.920521
C71	C	-0.094883	1.005924	0.375840
C72	C	0.405117	1.505924	0.875840
C73	C	-0.061623	1.051282	0.333994
C74	C	0.438377	1.551282	0.833994
C75	C	0.012118	1.048198	0.336832
C76	C	0.512118	1.548198	0.836832
C77	C	-0.315813	1.020178	0.362717
C78	C	0.184187	1.520178	0.862717
C79	C	-0.389559	1.023256	0.359881
C80	C	0.110441	1.523256	0.859881
C81	C	-0.382326	0.929464	0.446409
C82	C	0.117674	1.429464	0.946409
C83	C	-0.308584	0.926382	0.449240
C84	C	0.191416	1.426382	0.949240
C85	C	-0.275331	0.971741	0.407397
C86	C	0.224669	1.471741	0.907397
N87	N	-0.170259	1.009079	0.372941
N88	N	0.329741	1.509079	0.872941
N89	N	-0.199956	0.968590	0.410300
N90	N	0.300044	1.468590	0.910300
C91	C	0.498706	0.981115	0.398675
C92	C	0.998706	1.481115	0.898675
C93	C	0.577187	0.977904	0.401725
C94	C	1.077187	1.477904	0.901725
C95	C	0.322939	0.981088	0.575182
C96	C	0.822939	1.481088	1.075182
C97	C	0.326215	0.977815	0.653411
C98	C	0.826215	1.477815	1.153411
C99	C	0.308196	1.172344	0.398730
C100	C	0.808196	1.672344	0.898730
C101	C	0.305188	1.250573	0.401766
C102	C	0.805188	1.750573	0.901766
C103	C	0.280870	1.023173	0.690175
C104	C	0.780870	1.523173	1.190175
C105	C	0.283945	1.020089	0.763679
C106	C	0.783945	1.520089	1.263679
C107	C	0.332370	0.971650	0.800417
C108	C	0.832370	1.471650	1.300417
C109	C	0.377717	0.926286	0.763648
C110	C	0.877717	1.426286	1.263648
C111	C	0.374638	0.929367	0.690146
C112	C	0.874638	1.429367	1.190146
C113	C	0.346604	0.957402	1.020246
C114	C	0.846604	1.457402	1.520246
C115	C	0.349681	0.954326	1.093754
C116	C	0.849681	1.454326	1.593754
C117	C	0.255908	1.048129	1.093779
C118	C	0.755908	1.548129	1.593779
C119	C	0.252836	1.051209	1.020275
C120	C	0.752836	1.551209	1.520275
C121	C	0.298180	1.005843	0.983512
C122	C	0.798180	1.505843	1.483512
N123	N	0.335516	0.968497	0.875550
N124	N	0.835516	1.468497	1.375550
N125	N	0.295030	1.008992	0.908380
N126	N	0.795030	1.508992	1.408380
C127	C	0.307612	0.996414	1.208746
C128	C	0.807612	1.496414	1.708746
C129	C	0.304336	0.999685	1.130517
C130	C	0.804336	1.499685	1.630517
H131	H	0.247202	0.720843	0.459878
H132	H	0.747202	1.220843	0.959878
C133	C	0.396484	0.907508	0.979813
C134	C	0.896484	1.407508	1.479813
H135	H	0.387713	0.916272	0.930775
H136	H	0.887713	1.416272	1.430775
H137	H	0.444034	0.915320	0.994083
H138	H	0.944034	1.415320	1.494083
H139	H	0.388469	0.860145	0.989626
H140	H	0.888469	1.360145	1.489626
C141	C	0.430984	0.873002	0.804056
C142	C	0.930984	1.373002	1.304056
H143	H	0.457545	0.846425	0.771631
H144	H	0.957545	1.346425	1.271631
H145	H	0.461916	0.897436	0.834957
H146	H	0.961916	1.397436	1.334957
H147	H	0.406350	0.842262	0.830499
H148	H	0.906350	1.342262	1.330499
H149	H	0.389116	0.914878	1.123664
H150	H	0.889116	1.414878	1.623664
H151	H	0.221400	0.390748	0.485831
H152	H	0.721400	0.890748	0.985831
H153	H	0.378139	0.390750	0.328526
H154	H	0.878139	0.890750	0.828526
H155	H	0.403942	0.720854	0.302576
H156	H	0.903942	1.220854	0.802576
H157	H	0.383301	0.257405	0.323383
H158	H	0.883301	0.757405	0.823383
H159	H	0.241439	1.062621	0.660267
H160	H	0.741439	1.562621	1.160267
C161	C	0.234068	1.069987	0.804116
C162	C	0.734068	1.569987	1.304116
H163	H	0.204794	1.099284	0.771709
H164	H	0.704794	1.599284	1.271709
H165	H	0.205536	1.043153	0.830561
H166	H	0.705536	1.543153	1.330561
H167	H	0.261108	1.098322	0.835019
H168	H	0.761108	1.598322	1.335019
C169	C	-0.279241	1.070049	0.316671
C170	C	0.220759	1.570049	0.816671
H171	H	-0.229524	1.061279	0.324757
H172	H	0.270476	1.561279	0.824757
H173	H	-0.292917	1.062216	0.268523
H174	H	0.207083	1.562216	0.768523
H175	H	-0.292708	1.117420	0.328330
H176	H	0.207292	1.617420	0.828330
C177	C	0.214616	0.246900	0.492660
C178	C	0.714616	0.746900	0.992660
H179	H	0.187640	0.279316	0.519731
H180	H	0.687640	0.779316	1.019731
H181	H	0.183792	0.220625	0.463496
H182	H	0.683792	0.720625	0.963496
H183	H	0.244070	0.215827	0.523221
H184	H	0.744070	0.715827	1.023221
C185	C	0.199569	1.104493	0.979867
C186	C	0.699569	1.604493	1.479867
H187	H	0.172999	1.131063	1.012290
H188	H	0.672999	1.631063	1.512290
H189	H	0.224202	1.135229	0.953425
H190	H	0.724202	1.635229	1.453425
H191	H	0.168634	1.080056	0.948964
H192	H	0.668634	1.580056	1.448964
C193	C	0.424534	0.879489	0.649707
C194	C	0.924534	1.379489	1.149707
H195	H	0.453825	0.850208	0.682114
H196	H	0.953825	1.350208	1.182114
H197	H	0.397516	0.851150	0.618795
H198	H	0.897516	1.351150	1.118795
H199	H	0.453061	0.906346	0.623271
H200	H	0.953061	1.406346	1.123271
H201	H	-0.094592	1.090723	0.297617
H202	H	0.405408	1.590723	0.797617
C203	C	0.240420	0.576995	0.466703
C204	C	0.740420	1.076995	0.966703
H205	H	0.213447	0.609410	0.493777
H206	H	0.713447	1.109410	0.993777
H207	H	0.209595	0.550724	0.437537
H208	H	0.709595	1.050724	0.937537
H209	H	0.269874	0.545919	0.497261
H210	H	0.769874	1.045919	0.997261
H211	H	0.052306	0.914961	0.459739
H212	H	0.552306	1.414961	0.959739
C213	C	0.421848	0.577002	0.284639
C214	C	0.921848	1.077002	0.784639
H215	H	0.417565	0.527961	0.288958
H216	H	0.917565	1.027961	0.788958
H217	H	0.408998	0.591449	0.237431
H218	H	0.908998	1.091449	0.737431
H219	H	0.469270	0.586650	0.297162
H220	H	0.969270	1.086650	0.797162
C221	C	-0.090972	0.907593	0.466540
C222	C	0.409028	1.407593	0.966540
H223	H	-0.056299	0.878297	0.493548
H224	H	0.443701	1.378297	0.993548
H225	H	-0.119493	0.934426	0.497148
H226	H	0.380507	1.434426	0.997148
H227	H	-0.119683	0.879258	0.437308
H228	H	0.380317	1.379258	0.937308
H229	H	-0.275624	0.886932	0.485615
H230	H	0.224376	1.386932	0.985615
C231	C	0.048697	1.098083	0.290801
C232	C	0.548697	1.598083	0.790801
H233	H	0.014025	1.127367	0.263779
H234	H	0.514025	1.627367	0.763779
H235	H	0.077411	1.126419	0.320020
H236	H	0.577411	1.626419	0.820020
H237	H	0.077215	1.071236	0.260195
H238	H	0.577215	1.571236	0.760195
H239	H	-0.409407	0.892535	0.480476
H240	H	0.090593	1.392535	0.980476
H241	H	0.218990	1.085062	1.123719
H242	H	0.718990	1.585062	1.623719
H243	H	-0.422521	1.062701	0.323494
H244	H	0.077479	1.562701	0.823494
