data_functionalizedCrystal
_audit_creation_method	'MofGen! by Chris Wilmer'
_symmetry_space_group_name_H-M	'P1'
_symmetry_Int_Tables_number	1
_symmetry_cell_setting	triclinic
loop_
_symmetry_equiv_pos_as_xyz
  x,y,z
_cell_length_a	19.077105
_cell_length_b	18.050589
_cell_length_c	19.077314
_cell_angle_alpha	87.678811
_cell_angle_beta	89.892247
_cell_angle_gamma	87.724731
loop_
_atom_site_label
_atom_site_type_symbol
_atom_site_fract_x
_atom_site_fract_y
_atom_site_fract_z
Zn1	Zn	1.058259	-0.321949	-0.440443
Zn2	Zn	1.391592	0.011385	-0.107110
Zn3	Zn	1.724926	0.344718	0.226223
Zn4	Zn	1.062888	-0.451316	-0.322942
Zn5	Zn	1.396221	-0.117983	0.010391
Zn6	Zn	1.729555	0.215350	0.343724
Zn7	Zn	0.945474	-0.322359	-0.318235
Zn8	Zn	1.278808	0.010975	0.015098
Zn9	Zn	1.612141	0.344308	0.348432
Zn10	Zn	0.940713	-0.441311	-0.435696
Zn11	Zn	1.274046	-0.107978	-0.102363
Zn12	Zn	1.607379	0.225355	0.230971
O13	O	1.001834	-0.384234	-0.379329
O14	O	1.335167	-0.050900	-0.045996
O15	O	1.668500	0.282433	0.287338
O16	O	1.157205	-0.343125	-0.428814
O17	O	1.490538	-0.009792	-0.095480
O18	O	1.823871	0.323541	0.237853
O19	O	1.051243	-0.438569	-0.223985
O20	O	1.384576	-0.105235	0.109348
O21	O	1.717909	0.228098	0.442682
O22	O	0.960491	-0.218381	-0.334463
O23	O	1.293824	0.114952	-0.001130
O24	O	1.627157	0.448285	0.332204
O25	O	1.160606	-0.438171	-0.342486
O26	O	1.493939	-0.104838	-0.009152
O27	O	1.827272	0.228496	0.324181
O28	O	1.043353	-0.218080	-0.424249
O29	O	1.376687	0.115253	-0.090916
O30	O	1.710020	0.448587	0.242418
O31	O	0.964979	-0.343824	-0.220527
O32	O	1.298313	-0.010490	0.112807
O33	O	1.631646	0.322843	0.446140
O34	O	0.846511	-0.334122	-0.329860
O35	O	1.179844	-0.000789	0.003474
O36	O	1.513178	0.332544	0.336807
O37	O	0.952376	-0.421119	-0.534658
O38	O	1.285709	-0.087786	-0.201325
O39	O	1.619042	0.245548	0.132008
O40	O	0.843013	-0.421516	-0.416158
O41	O	1.176346	-0.088183	-0.082824
O42	O	1.509680	0.245150	0.250509
O43	O	1.038736	-0.333424	-0.538146
O44	O	1.372070	-0.000090	-0.204813
O45	O	1.705403	0.333243	0.128520
O46	O	1.046626	-0.553912	-0.337882
O47	O	1.379959	-0.220579	-0.004549
O48	O	1.713293	0.112754	0.328784
O49	O	0.956864	-0.546562	-0.420722
O50	O	1.290198	-0.213228	-0.087389
O51	O	1.623531	0.120105	0.245944
C52	C	0.819266	-0.376779	-0.371983
C53	C	1.152599	-0.043445	-0.038650
C54	C	1.485932	0.289888	0.294684
C55	C	0.741162	-0.373607	-0.368857
C56	C	1.074495	-0.040273	-0.035524
C57	C	1.407828	0.293060	0.297810
C58	C	0.702668	-0.417692	-0.412249
C59	C	1.036001	-0.084359	-0.078915
C60	C	1.369335	0.248974	0.254418
C61	C	0.629281	-0.414702	-0.409315
C62	C	0.962614	-0.081369	-0.075981
C63	C	1.295948	0.251965	0.257352
C64	C	0.594389	-0.367629	-0.362985
C65	C	0.927722	-0.034296	-0.029652
C66	C	1.261055	0.299038	0.303681
C67	C	0.632887	-0.323538	-0.319592
C68	C	0.966221	0.009795	0.013741
C69	C	1.299554	0.343128	0.347075
C70	C	0.706273	-0.326525	-0.322530
C71	C	1.039606	0.006808	0.010804
C72	C	1.372940	0.340141	0.344137
C73	C	0.375102	-0.353804	-0.349392
C74	C	0.708435	-0.020471	-0.016058
C75	C	1.041769	0.312862	0.317275
C76	C	0.301711	-0.350822	-0.346456
C77	C	0.635045	-0.017489	-0.013122
C78	C	0.968378	0.315845	0.320211
C79	C	0.298110	-0.441985	-0.436180
C80	C	0.631443	-0.108652	-0.102846
C81	C	0.964776	0.224681	0.230487
C82	C	0.371497	-0.444971	-0.439111
C83	C	0.704830	-0.111638	-0.105777
C84	C	1.038164	0.221695	0.227556
C85	C	0.409989	-0.400878	-0.395720
C86	C	0.743323	-0.067544	-0.062387
C87	C	1.076656	0.265789	0.270947
N88	N	0.519375	-0.364573	-0.359984
N89	N	0.852709	-0.031240	-0.026650
N90	N	1.186042	0.302094	0.306683
N91	N	0.485001	-0.403931	-0.398725
N92	N	0.818334	-0.070597	-0.065392
N93	N	1.151668	0.262736	0.267941
C94	C	1.001749	-0.577183	-0.379314
C95	C	1.335082	-0.243850	-0.045981
C96	C	1.668416	0.089484	0.287353
C97	C	1.001776	-0.659729	-0.379334
C98	C	1.335110	-0.326396	-0.046000
C99	C	1.668443	0.006938	0.287333
C100	C	0.953011	-0.855212	-0.424367
C101	C	1.286344	-0.521879	-0.091034
C102	C	1.619678	-0.188545	0.242299
C103	C	0.938459	-0.906779	-0.359560
C104	C	1.271792	-0.573446	-0.026226
C105	C	1.605126	-0.240112	0.307107
C106	C	1.001845	-0.810862	-0.379346
C107	C	1.335178	-0.477528	-0.046012
C108	C	1.668512	-0.144195	0.287321
C109	C	1.016431	-0.906378	-0.444162
C110	C	1.349764	-0.573044	-0.110829
C111	C	1.683098	-0.239711	0.222505
C112	C	1.001910	-0.956849	-0.379363
C113	C	1.335243	-0.623516	-0.046029
C114	C	1.668577	-0.290182	0.287304
C115	C	0.987261	-0.861342	-0.314503
C116	C	1.320594	-0.528008	0.018831
C117	C	1.653928	-0.194675	0.352164
C118	C	1.065261	-0.860935	-0.399149
C119	C	1.398594	-0.527602	-0.065816
C120	C	1.731928	-0.194269	0.267517
C121	C	1.050735	-0.912483	-0.334299
C122	C	1.384069	-0.579150	-0.000965
C123	C	1.717402	-0.245816	0.332368
C124	C	1.001806	-0.726762	-0.379337
C125	C	1.335139	-0.393429	-0.046003
C126	C	1.668473	-0.060096	0.287330
C127	C	1.001949	-1.040947	-0.379365
C128	C	1.335283	-0.707614	-0.046031
C129	C	1.668616	-0.374280	0.287302
C130	C	1.185114	-0.391718	-0.386704
C131	C	1.518448	-0.058385	-0.053371
C132	C	1.851781	0.274948	0.279962
C133	C	1.263218	-0.394908	-0.389847
C134	C	1.596551	-0.061575	-0.056514
C135	C	1.929884	0.271759	0.276819
C136	C	0.994509	-0.376110	-0.562612
C137	C	1.327842	-0.042776	-0.229279
C138	C	1.661175	0.290557	0.104055
C139	C	0.991387	-0.372648	-0.640716
C140	C	1.324720	-0.039314	-0.307383
C141	C	1.658054	0.294019	0.025951
C142	C	1.001937	-0.190531	-0.379360
C143	C	1.335270	0.142802	-0.046027
C144	C	1.668603	0.476135	0.287306
C145	C	1.001981	-0.107987	-0.379374
C146	C	1.335314	0.225347	-0.046040
C147	C	1.668647	0.558680	0.287293
C148	C	1.034830	-0.420347	-0.679213
C149	C	1.368163	-0.087014	-0.345879
C150	C	1.701497	0.246320	-0.012546
C151	C	1.031897	-0.417085	-0.752600
C152	C	1.365230	-0.083752	-0.419267
C153	C	1.698564	0.249582	-0.085933
C154	C	0.985517	-0.366127	-0.787489
C155	C	1.318850	-0.032793	-0.454156
C156	C	1.652184	0.300540	-0.120822
C157	C	0.942072	-0.318422	-0.748987
C158	C	1.275406	0.014911	-0.415653
C159	C	1.608739	0.348244	-0.082320
C160	C	0.945009	-0.321681	-0.675601
C161	C	1.278343	0.011652	-0.342268
C162	C	1.611676	0.344986	-0.008935
C163	C	0.971920	-0.351087	-1.006775
C164	C	1.305254	-0.017754	-0.673442
C165	C	1.638587	0.315579	-0.340108
C166	C	0.968985	-0.347833	-1.080166
C167	C	1.302319	-0.014500	-0.746833
C168	C	1.635652	0.318833	-0.413499
C169	C	1.058811	-0.446496	-1.083774
C170	C	1.392144	-0.113162	-0.750441
C171	C	1.725478	0.220171	-0.417107
C172	C	1.061741	-0.449753	-1.010387
C173	C	1.395074	-0.116420	-0.677053
C174	C	1.728408	0.216914	-0.343720
C175	C	1.018299	-0.402046	-0.971891
C176	C	1.351632	-0.068713	-0.638558
C177	C	1.684966	0.264621	-0.305225
N178	N	0.982516	-0.362793	-0.862502
N179	N	1.315850	-0.029459	-0.529169
N180	N	1.649183	0.303874	-0.195836
N181	N	1.021304	-0.405377	-0.896879
N182	N	1.354637	-0.072043	-0.563546
N183	N	1.687970	0.261290	-0.230213
C184	C	1.009170	-0.392274	-0.196761
C185	C	1.342504	-0.058941	0.136572
C186	C	1.675837	0.274392	0.469906
C187	C	1.012428	-0.395533	-0.118663
C188	C	1.345761	-0.062199	0.214671
C189	C	1.679095	0.271134	0.548004
H190	H	0.597943	-0.450602	-0.444648
H191	H	0.931276	-0.117269	-0.111315
H192	H	1.264609	0.216065	0.222018
F193	F	0.257139	-0.488911	-0.482355
F194	F	0.590472	-0.155577	-0.149021
F195	F	0.923805	0.177756	0.184312
F196	F	0.892715	-0.264185	-0.786120
F197	F	1.226048	0.069149	-0.452787
F198	F	1.559381	0.402482	-0.119454
F199	F	0.595750	-0.273434	-0.270289
F200	F	0.929084	0.059899	0.063045
F201	F	1.262417	0.393232	0.396378
H202	H	1.094180	-0.485335	-1.115125
H203	H	1.427514	-0.152001	-0.781792
H204	H	1.760847	0.181332	-0.448458
F205	F	1.135301	-0.834512	-0.421063
F206	F	1.468634	-0.501178	-0.087730
F207	F	1.801968	-0.167845	0.245604
H208	H	0.884861	-0.926994	-0.342824
H209	H	1.218194	-0.593660	-0.009491
H210	H	1.551527	-0.260327	0.323842
H211	H	1.028742	-0.926230	-0.498970
H212	H	1.362076	-0.592896	-0.165636
H213	H	1.695409	-0.259563	0.167697
H214	H	0.737614	-0.290622	-0.287199
H215	H	1.070947	0.042712	0.046134
H216	H	1.404280	0.376045	0.379467
H217	H	0.936544	-0.312244	-0.975441
H218	H	1.269877	0.021090	-0.642107
H219	H	1.603211	0.354423	-0.308774
H220	H	1.067273	-0.455927	-0.783941
H221	H	1.400606	-0.122593	-0.450608
H222	H	1.733939	0.210740	-0.117274
F223	F	0.264578	-0.300723	-0.297139
F224	F	0.597911	0.032610	0.036195
F225	F	0.931245	0.365944	0.369528
H226	H	0.931219	-0.306331	-1.108570
H227	H	1.264552	0.027002	-0.775237
H228	H	1.597885	0.360335	-0.441904
H229	H	0.406434	-0.317906	-0.314054
H230	H	0.739767	0.015427	0.019279
H231	H	1.073101	0.348761	0.352612
H232	H	0.974888	-0.841577	-0.259678
H233	H	1.308221	-0.508244	0.073656
H234	H	1.641554	-0.174911	0.406989
F235	F	0.898961	-0.822512	-0.474057
F236	F	1.232294	-0.489179	-0.140723
F237	F	1.565628	-0.155845	0.192610
H238	H	1.072600	-0.461841	-0.650812
H239	H	1.405933	-0.128507	-0.317479
H240	H	1.739266	0.204826	0.015855
H241	H	1.099497	-0.491260	-0.981985
H242	H	1.432831	-0.157927	-0.648652
H243	H	1.766164	0.175407	-0.315318
H244	H	0.909636	-0.282837	-0.644258
H245	H	1.242969	0.050496	-0.310925
H246	H	1.576302	0.383830	0.022409
H247	H	0.731072	-0.456027	-0.449973
H248	H	1.064405	-0.122694	-0.116640
H249	H	1.397739	0.210640	0.216694
F250	F	0.408627	-0.495075	-0.488419
F251	F	0.741960	-0.161741	-0.155086
F252	F	1.075293	0.171592	0.178247
H253	H	1.092063	-0.937365	-0.296187
H254	H	1.425396	-0.604032	0.037147
H255	H	1.758729	-0.270699	0.370480
