data_functionalizedCrystal
_audit_creation_method	'MofGen! by Chris Wilmer'
_symmetry_space_group_name_H-M	'P1'
_symmetry_Int_Tables_number	1
_symmetry_cell_setting	triclinic
loop_
_symmetry_equiv_pos_as_xyz
  x,y,z
_cell_length_a	14.853567
_cell_length_b	10.723024
_cell_length_c	9.198806
_cell_angle_alpha	89.996352
_cell_angle_beta	90.005182
_cell_angle_gamma	95.948600
loop_
_atom_site_label
_atom_site_type_symbol
_atom_site_fract_x
_atom_site_fract_y
_atom_site_fract_z
O1	O	-0.126445	1.655909	-0.120890
O2	O	-0.138549	1.292634	-0.120896
O3	O	-0.001318	1.483975	-0.120876
O4	O	-0.263675	1.464568	-0.120910
O5	O	-0.001318	1.483960	0.120909
O6	O	-0.138548	1.292619	0.120889
O7	O	-0.126445	1.655894	0.120895
Cu8	Cu	-0.132497	1.474255	0.142969
Cu9	Cu	-0.132497	1.474273	-0.142970
O10	O	-0.263675	1.464553	0.120875
C11	C	-0.137668	1.246136	-0.000004
C12	C	-0.135032	1.107608	-0.000005
C13	C	-0.053174	0.916679	0.000003
C14	C	-0.055896	1.059855	0.000004
C15	C	-0.297269	1.465439	-0.000022
C16	C	-0.397366	1.468075	-0.000035
C17	C	-0.810559	1.592874	0.000019
C18	C	-0.830640	1.365557	0.000014
C19	C	-0.736593	1.363079	0.000000
C20	C	-0.679525	1.475501	-0.000002
C21	C	-0.716503	1.590400	0.000010
C22	C	-0.699607	1.248182	0.000003
C23	C	-0.605555	1.245700	-0.000009
C24	C	-0.548485	1.358123	-0.000022
C25	C	-0.585469	1.473027	-0.000012
C26	C	-0.528401	1.585448	-0.000014
C27	C	-0.565383	1.700353	-0.000015
C28	C	-0.659433	1.702823	-0.000003
C29	C	-0.454435	1.355653	-0.000033
C30	C	-0.434345	1.582974	-0.000024
C31	C	0.032275	1.483088	0.000018
C32	C	0.132373	1.480453	0.000022
C33	C	-0.127326	1.702392	-0.000000
C34	C	-0.129961	1.840919	-0.000008
N35	N	-0.132496	1.474251	0.344083
N36	N	-0.132491	1.474286	-0.344084
C37	C	-0.074623	1.554592	0.416288
C38	C	-0.074619	1.554612	0.583701
H39	H	-0.197716	0.882056	-0.000008
H40	H	-0.182044	1.405504	0.593832
C41	C	-0.948069	1.236484	-0.124269
C42	C	-0.893367	1.241988	0.000017
H43	H	-0.986793	1.160190	-0.124270
H44	H	-0.983549	1.305259	-0.124246
H45	H	-0.910961	1.240249	-0.208580
H46	H	-0.930475	1.238232	0.084329
H47	H	-0.857884	1.173194	0.000007
C48	C	-0.227298	0.944018	-0.124313
C49	C	-0.223782	1.019744	-0.000020
H50	H	-0.282086	0.889763	-0.124315
H51	H	-0.224905	0.995411	-0.208610
H52	H	-0.177292	0.895505	-0.124293
H53	H	-0.273784	1.068264	-0.000046
H54	H	-0.226184	0.968344	0.084299
C55	C	-0.671249	1.897342	0.124287
C56	C	-0.700079	1.829123	0.000002
H57	H	-0.696340	1.975317	0.124283
H58	H	-0.690785	1.851046	0.208589
H59	H	-0.607068	1.911947	0.124261
H60	H	-0.764261	1.814510	0.000033
H61	H	-0.680549	1.875430	-0.084323
H62	H	-0.182038	1.405478	0.406204
H63	H	0.009839	1.124952	0.000004
H64	H	0.014581	0.875542	0.000033
H65	H	-0.387885	1.674523	-0.000035
H66	H	-0.840674	1.686428	0.000013
H67	H	-0.518905	1.791887	-0.000008
H68	H	-0.746079	1.156655	0.000011
C69	C	-0.593738	1.051194	-0.124322
C70	C	-0.564908	1.119400	-0.000027
H71	H	-0.568638	0.973226	-0.124338
H72	H	-0.657910	1.036584	-0.124297
H73	H	-0.574202	1.097511	-0.208627
H74	H	-0.584449	1.073087	0.084279
H75	H	-0.500722	1.134006	-0.000039
H76	H	-0.424328	1.262099	-0.000011
H77	H	-0.025074	1.623358	0.354169
H78	H	-0.025075	1.623400	0.645794
