data_functionalizedCrystal
_audit_creation_method	'MofGen! by Chris Wilmer'
_symmetry_space_group_name_H-M	'P1'
_symmetry_Int_Tables_number	1
_symmetry_cell_setting	triclinic
loop_
_symmetry_equiv_pos_as_xyz
  x,y,z
_cell_length_a	12.759401
_cell_length_b	11.169416
_cell_length_c	12.759393
_cell_angle_alpha	89.970865
_cell_angle_beta	89.981504
_cell_angle_gamma	90.010310
loop_
_atom_site_label
_atom_site_type_symbol
_atom_site_fract_x
_atom_site_fract_y
_atom_site_fract_z
Zn1	Zn	1.606289	-0.477731	-0.593999
Zn2	Zn	1.606197	-0.678464	-0.418327
Zn3	Zn	1.430591	-0.477794	-0.418339
Zn4	Zn	1.430593	-0.678372	-0.593968
O5	O	1.518417	-0.578090	-0.506158
O6	O	1.753297	-0.504371	-0.570704
O7	O	1.582863	-0.651910	-0.271307
O8	O	1.453935	-0.309836	-0.441658
O9	O	1.753230	-0.651849	-0.441638
O10	O	1.583019	-0.309790	-0.570715
O11	O	1.453846	-0.504478	-0.271316
O12	O	1.283570	-0.504389	-0.441628
O13	O	1.453939	-0.651691	-0.740993
O14	O	1.283572	-0.651752	-0.570662
O15	O	1.583022	-0.504282	-0.741016
O16	O	1.582865	-0.846401	-0.441608
O17	O	1.453850	-0.846333	-0.570651
C18	C	1.245450	-0.578068	-0.506144
C19	C	1.128673	-0.578088	-0.506163
C20	C	1.073840	-0.654943	-0.573240
C21	C	0.964116	-0.654958	-0.573251
C22	C	0.964068	-0.501260	-0.439099
C23	C	1.073790	-0.501239	-0.439094
C24	C	1.073866	-0.743683	-0.650688
C25	C	0.964142	-0.743698	-0.650699
C26	C	1.518377	-0.889915	-0.506148
C27	C	1.518455	-1.023315	-0.506178
C28	C	1.792451	-0.578113	-0.506173
C29	C	1.909227	-0.578123	-0.506179
C30	C	1.518491	-0.577969	-0.780192
C31	C	1.518522	-0.577917	-0.896968
C32	C	1.518487	-0.265048	-0.506191
C33	C	1.518516	-0.131648	-0.506206
C34	C	1.585745	-0.501154	-0.951844
C35	C	1.585770	-0.501111	-1.061568
C36	C	1.451347	-0.654605	-1.061531
C37	C	1.451317	-0.654641	-0.951809
C38	C	1.663356	-0.412539	-0.951866
C39	C	1.663381	-0.412496	-1.061590
C40	C	1.518404	-0.578124	-0.233191
C41	C	1.518577	-0.577838	-0.116415
H42	H	1.103673	-0.718894	-0.732094
C43	C	1.119038	-0.861460	-0.611671
C44	C	1.037118	-0.939503	-0.585818
C45	C	1.078691	-1.048013	-0.549882
H46	H	1.160904	-0.847271	-0.551397
H47	H	1.160931	-0.896331	-0.665119
H48	H	0.995243	-0.904639	-0.532374
H49	H	0.995245	-0.953727	-0.646076
H50	H	1.120584	-1.082884	-0.603330
H51	H	1.120557	-1.033812	-0.489611
H52	H	1.023115	-1.100982	-0.532346
H53	H	0.934353	-0.836628	-0.628771
H54	H	1.740630	-0.445860	-0.917831
C55	C	0.918997	-0.699479	-0.753928
C56	C	1.000934	-0.670159	-0.822302
C57	C	0.959385	-0.629430	-0.917404
H58	H	0.877109	-0.630591	-0.741691
H59	H	0.877131	-0.760644	-0.784307
H60	H	1.042783	-0.608999	-0.791929
H61	H	1.042829	-0.739029	-0.834569
H62	H	0.917519	-0.690595	-0.947783
H63	H	0.917497	-0.560545	-0.905156
H64	H	1.014972	-0.609542	-0.963811
C65	C	1.378194	-0.737771	-0.892168
C66	C	1.310847	-0.669810	-0.829208
C67	C	1.243460	-0.746347	-0.774260
H68	H	1.418231	-0.790110	-0.849269
H69	H	1.338112	-0.783439	-0.940508
H70	H	1.350925	-0.624162	-0.780874
H71	H	1.270787	-0.617474	-0.872081
H72	H	1.203378	-0.792015	-0.822600
H73	H	1.283506	-0.798682	-0.731367
H74	H	1.197751	-0.700247	-0.731543
C75	C	1.378506	-0.737863	-1.121265
C76	C	1.392934	-0.721422	-1.229101
C77	C	1.325861	-0.798114	-1.284157
H78	H	1.307872	-0.720376	-1.103408
H79	H	1.393870	-0.818536	-1.103331
H80	H	1.377562	-0.640768	-1.247028
H81	H	1.463554	-0.738918	-1.246990
H82	H	1.341226	-0.878787	-1.266223
H83	H	1.255232	-0.780620	-1.266291
H84	H	1.335649	-0.786978	-1.357329
C85	C	1.771822	-0.445599	-1.101515
C86	C	1.771573	-0.445426	-1.211247
C87	C	1.871450	-0.475890	-1.248063
H88	H	1.790084	-0.523073	-1.076811
H89	H	1.821482	-0.388888	-1.076768
H90	H	1.721929	-0.502134	-1.235984
H91	H	1.753330	-0.367963	-1.235979
H92	H	1.921110	-0.419180	-1.223315
H93	H	1.889703	-0.553362	-1.223352
H94	H	1.871296	-0.475766	-1.322519
C95	C	1.133383	-0.417640	-0.366451
C96	C	1.196377	-0.340772	-0.426060
C97	C	1.251279	-0.263731	-0.359177
H98	H	1.176255	-0.463335	-0.320580
H99	H	1.085016	-0.371807	-0.326527
H100	H	1.244739	-0.386600	-0.465967
H101	H	1.153531	-0.295051	-0.471929
H102	H	1.202911	-0.217898	-0.319253
H103	H	1.294145	-0.309436	-0.313309
H104	H	1.294019	-0.211560	-0.399613
H105	H	1.641581	-0.319593	-0.922107
H106	H	1.634261	-0.324182	-1.095635
H107	H	0.919369	-0.438691	-0.384495
