data_functionalizedCrystal
_audit_creation_method	'MofGen! by Chris Wilmer'
_symmetry_space_group_name_H-M	'P1'
_symmetry_Int_Tables_number	1
_symmetry_cell_setting	triclinic
loop_
_symmetry_equiv_pos_as_xyz
  x,y,z
_cell_length_a	15.298114
_cell_length_b	15.297510
_cell_length_c	19.805399
_cell_angle_alpha	80.348499
_cell_angle_beta	99.673831
_cell_angle_gamma	91.576150
loop_
_atom_site_label
_atom_site_type_symbol
_atom_site_fract_x
_atom_site_fract_y
_atom_site_fract_z
Zn1	Zn	1.278548	0.580213	-0.291679
Zn2	Zn	1.778548	1.080213	0.208321
Zn3	Zn	1.253085	0.726681	-0.200817
Zn4	Zn	1.753085	1.226681	0.299183
Zn5	Zn	1.132086	0.554919	-0.194277
Zn6	Zn	1.632086	1.054919	0.305723
Zn7	Zn	1.106699	0.701327	-0.329720
Zn8	Zn	1.606699	1.201327	0.170280
O9	O	1.192604	0.640785	-0.254123
O10	O	1.692604	1.140785	0.245877
O11	O	1.397728	0.620839	-0.266443
O12	O	1.897728	1.120839	0.233557
O13	O	1.237003	0.703921	-0.105240
O14	O	1.737003	1.203921	0.394760
O15	O	1.172796	0.435705	-0.188540
O16	O	1.672796	0.935705	0.311460
O17	O	1.379021	0.728448	-0.199687
O18	O	1.879021	1.228448	0.300313
O19	O	1.280400	0.454289	-0.260101
O20	O	1.780400	0.954289	0.239899
O21	O	1.148106	0.577729	-0.100435
O22	O	1.648106	1.077729	0.399565
O23	O	1.006161	0.553144	-0.225427
O24	O	1.506161	1.053144	0.274573
O25	O	1.129526	0.685236	-0.419383
O26	O	1.629526	1.185236	0.080617
O27	O	0.987509	0.660709	-0.324936
O28	O	1.487509	1.160709	0.175064
O29	O	1.255783	0.596254	-0.391434
O30	O	1.755783	1.096254	0.108566
O31	O	1.212386	0.845886	-0.236573
O32	O	1.712386	1.345886	0.263427
O33	O	1.104836	0.827259	-0.331278
O34	O	1.604836	1.327259	0.168722
C35	C	0.965057	0.601431	-0.278600
C36	C	1.465057	1.101431	0.221400
C37	C	0.867707	0.584617	-0.289091
C38	C	1.367707	1.084617	0.210909
C39	C	1.153117	0.868358	-0.288775
C40	C	1.653117	1.368358	0.211225
C41	C	1.136304	0.965728	-0.303614
C42	C	1.636304	1.465728	0.196386
C43	C	0.554393	0.760968	-0.179312
C44	C	1.054393	1.260968	0.320688
C45	C	0.645858	0.776765	-0.169451
C46	C	1.145858	1.276765	0.330549
C47	C	0.701325	0.728730	-0.199360
C48	C	1.201325	1.228730	0.300640
C49	C	0.665318	0.664894	-0.239132
C50	C	1.165318	1.164894	0.260868
C51	C	0.573845	0.649090	-0.248991
C52	C	1.073845	1.149090	0.251009
C53	C	0.720776	0.616852	-0.269038
C54	C	1.220776	1.116852	0.230962
C55	C	0.684769	0.553016	-0.308811
C56	C	1.184769	1.053016	0.191189
C57	C	0.593304	0.537216	-0.318668
C58	C	1.093304	1.037216	0.181332
C59	C	0.537838	0.585251	-0.288758
C60	C	1.037838	1.085251	0.211242
C61	C	0.812249	0.632655	-0.259180
C62	C	1.312249	1.132655	0.240820
C63	C	0.831700	0.520778	-0.328859
C64	C	1.331700	1.020778	0.171141
C65	C	0.740235	0.504980	-0.338720
C66	C	1.240235	1.004980	0.161280
C67	C	1.313086	1.278901	-0.148307
C68	C	1.813086	1.778901	0.351693
C69	C	1.328882	1.187416	-0.134362
C70	C	1.828882	1.687416	0.365638
C71	C	1.280739	1.131990	-0.176674
C72	C	1.780739	1.631990	0.323326
C73	C	1.216797	1.168057	-0.232933
C74	C	1.716797	1.668057	0.267067
C75	C	1.200994	1.259549	-0.246876
C76	C	1.700994	1.759549	0.253124
C77	C	1.168647	1.112638	-0.275243
C78	C	1.668647	1.612638	0.224757
C79	C	1.104705	1.148705	-0.331501
C80	C	1.604705	1.648705	0.168499
C81	C	1.088906	1.240189	-0.345442
C82	C	1.588906	1.740189	0.154558
C83	C	1.137049	1.295615	-0.303130
C84	C	1.637049	1.795615	0.196870
C85	C	1.184450	1.021146	-0.261300
C86	C	1.684450	1.521146	0.238700
C87	C	1.072358	1.001794	-0.359868
C88	C	1.572358	1.501794	0.140132
C89	C	1.056562	1.093279	-0.373813
C90	C	1.556562	1.593279	0.126187
C91	C	1.421041	0.680293	-0.229551
C92	C	1.921041	1.180293	0.270449
C93	C	1.518387	0.697129	-0.219080
C94	C	2.018387	1.197129	0.280920
C95	C	1.192663	0.640738	-0.430652
C96	C	1.692663	1.140738	0.069348
C97	C	1.192688	0.640718	-0.505878
C98	C	1.692688	1.140718	-0.005878
C99	C	1.232262	1.412326	-0.219356
C100	C	1.732262	1.912326	0.280644
C101	C	1.249141	1.314967	-0.204562
C102	C	1.749141	1.814967	0.295438
C103	C	1.258432	0.594383	-0.526670
C104	C	1.758432	1.094383	-0.026670
C105	C	1.258445	0.594359	-0.597354
C106	C	1.758445	1.094359	-0.097354
C107	C	1.192718	0.640676	-0.647245
C108	C	1.692718	1.140676	-0.147245
C109	C	1.126968	0.687013	-0.626449
C110	C	1.626968	1.187013	-0.126449
C111	C	1.126951	0.687031	-0.555766
C112	C	1.626951	1.187031	-0.055766
C113	C	1.127031	0.686940	-0.911505
C114	C	1.627031	1.186940	-0.411505
C115	C	1.127054	0.686920	-0.982191
C116	C	1.627054	1.186920	-0.482191
C117	C	1.258525	0.594268	-0.953092
C118	C	1.758525	1.094268	-0.453092
C119	C	1.258509	0.594286	-0.882410
C120	C	1.758509	1.094286	-0.382410
C121	C	1.192756	0.640619	-0.861620
C122	C	1.692756	1.140619	-0.361620
C123	C	1.192742	0.640642	-0.784976
C124	C	1.692742	1.140642	-0.284976
C125	C	1.192735	0.640658	-0.723887
C126	C	1.692735	1.140658	-0.223887
C127	C	1.192607	0.640777	-0.078266
C128	C	1.692607	1.140777	0.421734
C129	C	1.192795	0.640579	-0.002984
C130	C	1.692795	1.140579	0.497016
H131	H	0.841557	0.684631	-0.226797
H132	H	1.341557	1.184631	0.273203
C133	C	1.330738	0.543429	-0.471796
C134	C	1.830738	1.043429	0.028204
N135	N	1.385198	0.505045	-0.430465
N136	N	1.885198	1.005045	0.069535
H137	H	1.293604	1.057499	-0.165316
H138	H	1.793604	1.557499	0.334684
C139	C	1.254787	0.981483	-0.199417
C140	C	1.754787	1.481483	0.300583
N141	N	1.307769	0.951611	-0.152804
N142	N	1.807769	1.451611	0.347196
H143	H	1.380943	1.158054	-0.088556
H144	H	1.880943	1.658054	0.411444
C145	C	0.493376	0.813795	-0.146413
C146	C	0.993376	1.313795	0.353587
N147	N	0.447416	0.853587	-0.121631
N148	N	0.947416	1.353587	0.378369
C149	C	0.437221	0.567869	-0.299597
C150	C	0.937221	1.067869	0.200403
N151	N	0.361435	0.554776	-0.307756
N152	N	0.861435	1.054776	0.192244
C153	C	1.366026	1.339873	-0.101765
C154	C	1.866026	1.839873	0.398235
N155	N	1.405902	1.385798	-0.066704
N156	N	1.905902	1.885798	0.433296
C157	C	1.330811	0.543330	-0.827533
C158	C	1.830811	1.043330	-0.327533
N159	N	1.385267	0.504943	-0.786200
N160	N	1.885267	1.004943	-0.286200
H161	H	1.073527	0.724638	-1.022813
H162	H	1.573527	1.224638	-0.522813
H163	H	0.563992	0.485230	-0.351048
H164	H	1.063992	0.985230	0.148952
C165	C	1.119673	1.396255	-0.318464
C166	C	1.619673	1.896255	0.181536
N167	N	1.106585	1.472058	-0.330011
N168	N	1.606585	1.972058	0.169989
H169	H	1.073502	0.724682	-0.894587
H170	H	1.573502	1.224682	-0.394587
H171	H	0.710905	0.453004	-0.371103
H172	H	1.210905	0.953004	0.128897
H173	H	1.073449	0.724721	-0.667076
H174	H	1.573449	1.224721	-0.167076
H175	H	1.004499	1.122658	-0.419620
H176	H	1.504499	1.622658	0.080380
H177	H	0.775799	0.741595	-0.191328
H178	H	1.275799	1.241595	0.308672
C179	C	0.892710	0.467936	-0.361762
C180	C	1.392710	0.967936	0.138238
N181	N	0.938668	0.428139	-0.386543
N182	N	1.438668	0.928139	0.113457
H183	H	1.036829	1.269550	-0.391245
H184	H	1.536829	1.769550	0.108755
H185	H	1.033154	0.956666	-0.394321
H186	H	1.533154	1.456666	0.105679
C187	C	1.330770	0.543388	-0.620221
C188	C	1.830770	1.043388	-0.120221
N189	N	1.385248	0.504995	-0.637443
N190	N	1.885248	1.004995	-0.137443
C191	C	1.330846	0.543288	-0.975967
C192	C	1.830846	1.043288	-0.475967
N193	N	1.385316	0.504890	-0.993195
N194	N	1.885316	1.004890	-0.493195
H195	H	1.073409	0.724752	-0.538839
H196	H	1.573409	1.224752	-0.038839
H197	H	0.675169	0.828739	-0.137066
H198	H	1.175169	1.328739	0.362934
