data_functionalizedCrystal
_audit_creation_method	'MofGen! by Chris Wilmer'
_symmetry_space_group_name_H-M	'P1'
_symmetry_Int_Tables_number	1
_symmetry_cell_setting	triclinic
loop_
_symmetry_equiv_pos_as_xyz
  x,y,z
_cell_length_a	10.654549
_cell_length_b	10.654555
_cell_length_c	17.766277
_cell_angle_alpha	89.996225
_cell_angle_beta	89.989627
_cell_angle_gamma	84.488236
loop_
_atom_site_label
_atom_site_type_symbol
_atom_site_fract_x
_atom_site_fract_y
_atom_site_fract_z
O1	O	1.667854	0.176429	-0.062608
O2	O	1.302377	0.193229	-0.062605
O3	O	1.493511	0.002091	-0.062606
O4	O	1.476720	0.367567	-0.062607
O5	O	1.493477	0.002081	0.062582
O6	O	1.302343	0.193219	0.062584
O7	O	1.667820	0.176419	0.062581
Cu8	Cu	1.485079	0.184818	0.074013
Cu9	Cu	1.485119	0.184830	-0.074037
O10	O	1.476686	0.367557	0.062582
C11	C	1.255562	0.191989	-0.000010
C12	C	1.116119	0.188295	-0.000009
C13	C	0.826143	0.409917	-0.000031
C14	C	0.877685	0.525935	-0.000028
C15	C	1.008703	0.529410	-0.000018
C16	C	1.088184	0.416855	-0.000013
C17	C	1.036643	0.300837	-0.000016
C18	C	0.905620	0.297374	-0.000024
C19	C	1.064577	0.072277	-0.000012
C20	C	0.933559	0.068798	-0.000017
C21	C	1.144058	-0.040278	-0.000008
C22	C	1.092517	-0.156299	-0.000006
C23	C	0.961490	-0.159770	-0.000015
C24	C	0.882018	-0.047220	-0.000020
C25	C	1.492259	-0.044712	-0.000014
C26	C	1.488561	-0.184155	-0.000018
C27	C	1.481584	-0.446197	0.136472
C28	C	1.483297	-0.380688	0.204713
C29	C	1.486766	-0.249669	0.204713
C30	C	1.488518	-0.184155	0.136464
C31	C	1.486805	-0.249665	0.068223
C32	C	1.483340	-0.380687	0.068230
C33	C	1.486848	-0.249664	-0.068260
C34	C	1.483389	-0.380684	-0.068261
C35	C	1.488600	-0.184150	-0.136508
C36	C	1.486897	-0.249661	-0.204752
C37	C	1.483430	-0.380688	-0.204749
C38	C	1.481676	-0.446193	-0.136503
C39	C	1.714635	0.177659	-0.000016
C40	C	1.854079	0.181353	-0.000022
C41	C	1.477939	0.414360	-0.000012
C42	C	1.481637	0.553803	-0.000013
N43	N	1.485060	0.184809	0.178143
N44	N	1.485148	0.184829	-0.178168
C45	C	1.569722	0.100215	0.217529
C46	C	1.569729	0.100209	0.296331
C47	C	1.485086	0.184819	0.335744
C48	C	1.400408	0.269419	0.296348
C49	C	1.400395	0.269414	0.217548
C50	C	1.469631	0.299056	0.460582
C51	C	1.469653	0.299063	0.539380
C52	C	1.485120	0.184835	0.578790
C53	C	1.500591	0.070594	0.539391
C54	C	1.500578	0.070589	0.460591
C55	C	1.485091	0.184834	0.421189
C56	C	1.569795	0.100228	0.703622
C57	C	1.569793	0.100220	0.782425
C58	C	1.400478	0.269441	0.782441
C59	C	1.400473	0.269438	0.703639
C60	C	1.485138	0.184832	0.664234
H61	H	1.478774	-0.552881	0.136478
H62	H	1.638731	0.031327	0.814494
H63	H	1.050667	0.623882	-0.000014
O64	O	1.318198	0.351459	0.820798
C65	C	1.240121	0.283476	0.866381
H66	H	1.289288	0.185666	0.878185
H67	H	1.220713	0.335715	0.921793
H68	H	1.147228	0.274075	0.836025
O69	O	1.491802	-0.056859	-0.136414
C70	C	1.384358	0.000190	-0.098998
H71	H	1.346146	-0.070888	-0.059148
H72	H	1.411093	0.084857	-0.065452
H73	H	1.308957	0.032731	-0.142137
H74	H	1.481867	-0.434043	0.260280
H75	H	1.491327	-0.077471	0.136471
H76	H	0.919534	-0.254246	-0.000021
O77	O	1.318195	0.351744	0.665491
C78	C	1.243465	0.426403	0.717172
H79	H	1.294974	0.428304	0.773335
H80	H	1.225175	0.526523	0.694400
H81	H	1.149818	0.384754	0.725571
H82	H	1.157239	-0.247932	-0.000007
H83	H	1.488315	-0.196308	-0.260314
O84	O	1.318109	0.351719	0.179401
C85	C	1.243373	0.426374	0.231080
H86	H	1.294877	0.428275	0.287245
H87	H	1.225083	0.526495	0.208309
H88	H	1.149726	0.384724	0.239475
O89	O	1.454558	0.410140	0.577532
C90	C	1.440917	0.510961	0.525854
H91	H	1.406101	0.475897	0.469692
H92	H	1.369772	0.588446	0.548630
H93	H	1.535843	0.550066	0.517451
H94	H	1.482024	-0.434016	-0.260320
H95	H	1.457015	0.392081	0.428501
O96	O	1.488462	-0.186226	0.271068
C97	C	1.486124	-0.272129	0.331307
H98	H	1.523365	-0.370376	0.311313
H99	H	1.547957	-0.241698	0.379041
H100	H	1.385164	-0.273778	0.352278
O101	O	1.478354	-0.573470	-0.136634
C102	C	1.477176	-0.617243	-0.211498
H103	H	1.518885	-0.546599	-0.250147
H104	H	1.535709	-0.712342	-0.215640
H105	H	1.375983	-0.628185	-0.229244
H106	H	1.331488	0.338308	0.328441
H107	H	0.719460	0.407098	-0.000026
O108	O	0.800607	0.635351	0.000068
C109	C	0.824073	0.705706	0.064915
H110	H	0.923162	0.675727	0.086538
H111	H	0.815788	0.810373	0.050331
H112	H	0.752246	0.687912	0.110311
H113	H	1.194865	0.419695	-0.000014
O114	O	1.652000	0.017903	0.179370
C115	C	1.726748	-0.056744	0.231038
H116	H	1.675256	-0.058634	0.287219
H117	H	1.745032	-0.156869	0.208277
H118	H	1.820396	-0.015092	0.239398
H119	H	1.638673	0.031320	0.328405
H120	H	1.250739	-0.037440	-0.000004
O121	O	1.515552	-0.040489	0.422435
C122	C	1.529241	-0.141315	0.474108
H123	H	1.485383	-0.109397	0.530288
H124	H	1.479720	-0.223609	0.451351
H125	H	1.633685	-0.172472	0.482469
O126	O	1.515392	-0.040359	0.577691
C127	C	1.408721	-0.051483	0.623302
H128	H	1.324721	0.010343	0.599569
H129	H	1.386282	-0.153957	0.624197
H130	H	1.428902	-0.019833	0.683021
O131	O	0.754767	-0.050751	-0.000130
C132	C	0.718687	-0.114561	-0.064981
H133	H	0.802357	-0.179293	-0.086590
H134	H	0.637889	-0.173063	-0.050409
H135	H	0.686640	-0.042929	-0.110384
O136	O	1.652070	0.017916	0.665456
C137	C	1.726812	-0.056741	0.717122
H138	H	1.675316	-0.058638	0.773301
H139	H	1.745093	-0.156862	0.694355
H140	H	1.820462	-0.015094	0.725487
