data_functionalizedCrystal
_audit_creation_method	'MofGen! by Chris Wilmer'
_symmetry_space_group_name_H-M	'P1'
_symmetry_Int_Tables_number	1
_symmetry_cell_setting	triclinic
loop_
_symmetry_equiv_pos_as_xyz
  x,y,z
_cell_length_a	10.654550
_cell_length_b	10.654550
_cell_length_c	9.130313
_cell_angle_alpha	89.998468
_cell_angle_beta	89.996220
_cell_angle_gamma	84.484903
loop_
_atom_site_label
_atom_site_type_symbol
_atom_site_fract_x
_atom_site_fract_y
_atom_site_fract_z
O1	O	1.667834	0.176393	-0.121921
O2	O	1.302356	0.193199	-0.121898
O3	O	1.493498	0.002057	-0.121899
O4	O	1.476692	0.367535	-0.121919
O5	O	1.493496	0.002062	0.121700
O6	O	1.302353	0.193204	0.121701
O7	O	1.667832	0.176398	0.121678
Cu8	Cu	1.485092	0.184802	0.143932
Cu9	Cu	1.485095	0.184796	-0.144152
O10	O	1.476689	0.367540	0.121679
C11	C	1.255556	0.191968	-0.000095
C12	C	1.116113	0.188276	-0.000086
C13	C	1.492263	-0.044739	-0.000100
C14	C	1.488571	-0.184182	-0.000101
C15	C	1.036627	0.300817	-0.000113
C16	C	0.905607	0.297341	-0.000139
C17	C	0.933570	0.068771	-0.000115
C18	C	1.064588	0.072249	-0.000079
C19	C	1.020482	0.432780	-0.000134
C20	C	0.889461	0.429304	-0.000159
C21	C	1.714631	0.177630	-0.000128
C22	C	1.854074	0.181321	-0.000147
N23	N	1.485099	0.184805	0.346555
C24	C	1.477925	0.414336	-0.000123
C25	C	1.481616	0.553779	-0.000132
C26	C	1.369075	0.633265	-0.000111
C27	C	1.372551	0.764286	-0.000100
C28	C	1.601121	0.736322	-0.000126
C29	C	1.597643	0.605304	-0.000147
C30	C	1.237112	0.649410	-0.000089
C31	C	1.240589	0.780431	-0.000079
N32	N	1.485098	0.184782	-0.346774
C33	C	1.569759	0.100196	0.423206
C34	C	1.569756	0.100181	0.576543
C35	C	1.400429	0.269395	0.576564
C36	C	1.400427	0.269403	0.423230
C37	C	1.667523	0.002506	0.423195
C38	C	1.667519	0.002491	0.576532
H39	H	1.129302	-0.019393	-0.000036
H40	H	1.695586	0.778290	-0.000164
F41	F	0.878722	-0.054706	-0.000106
H42	H	1.195078	0.613768	0.105083
H43	H	1.331490	0.338271	0.639009
F44	F	0.829757	0.481435	0.137295
H45	H	1.185496	0.620069	-0.102029
H46	H	0.847729	0.479023	-0.102115
H47	H	1.646080	-0.094027	0.381582
H48	H	1.689285	0.540590	-0.000181
H49	H	1.758706	0.033094	0.375629
H50	H	1.200714	0.826090	-0.105252
F51	F	1.058824	0.500246	0.133113
F52	F	1.175609	0.834998	0.133183
F53	F	1.627628	-0.116736	0.638697
F54	F	1.793666	0.030607	0.630925
H55	H	1.056138	0.474797	-0.105308
H56	H	1.331480	0.338287	0.360821
