data_functionalizedCrystal
_audit_creation_method	'MofGen! by Chris Wilmer'
_symmetry_space_group_name_H-M	'P1'
_symmetry_Int_Tables_number	1
_symmetry_cell_setting	triclinic
loop_
_symmetry_equiv_pos_as_xyz
  x,y,z
_cell_length_a	19.805405
_cell_length_b	12.759401
_cell_length_c	12.759393
_cell_angle_alpha	90.018496
_cell_angle_beta	90.037628
_cell_angle_gamma	90.026572
loop_
_atom_site_label
_atom_site_type_symbol
_atom_site_fract_x
_atom_site_fract_y
_atom_site_fract_z
Zn1	Zn	-0.269420	1.606170	0.593937
Zn2	Zn	-0.382625	1.606028	0.418239
Zn3	Zn	-0.269456	1.430472	0.418276
Zn4	Zn	-0.382573	1.430425	0.593880
O5	O	-0.326019	1.518274	0.506083
O6	O	-0.284444	1.753172	0.570638
O7	O	-0.367650	1.582701	0.271222
O8	O	-0.174735	1.453858	0.441618
O9	O	-0.367615	1.753068	0.441553
O10	O	-0.174708	1.582942	0.570675
O11	O	-0.284505	1.453720	0.271250
O12	O	-0.284454	1.283445	0.441563
O13	O	-0.367527	1.453777	0.740909
O14	O	-0.367561	1.283410	0.570578
O15	O	-0.284394	1.582896	0.740951
O16	O	-0.477335	1.582655	0.441498
O17	O	-0.477297	1.453640	0.570541
C18	C	-0.326006	1.245306	0.506069
C19	C	-0.326017	1.128530	0.506088
C20	C	-0.501875	1.518155	0.506032
C21	C	-0.577107	1.518201	0.506046
C22	C	-0.369360	1.073677	0.573155
C23	C	-0.369369	0.963953	0.573166
C24	C	-0.282689	0.963944	0.439034
C25	C	-0.282678	1.073666	0.439029
C26	C	-0.419406	1.073681	0.650592
C27	C	-0.419414	0.963957	0.650603
C28	C	-0.612448	1.585444	0.438923
C29	C	-0.683137	1.585489	0.438946
C30	C	-0.718482	1.518284	0.506088
C31	C	-0.683136	1.451038	0.573217
C32	C	-0.612449	1.450999	0.573199
C33	C	-0.968209	1.451193	0.573295
C34	C	-1.038901	1.451234	0.573306
C35	C	-1.038897	1.585683	0.439043
C36	C	-0.968210	1.585644	0.439024
C37	C	-0.932870	1.518402	0.506157
C38	C	-0.856221	1.518356	0.506133
C39	C	-0.795129	1.518324	0.506108
C40	C	-0.149476	1.518421	0.506157
C41	C	-0.074244	1.518484	0.506189
C42	C	-0.325950	1.518347	0.780117
C43	C	-0.325921	1.518379	0.896893
C44	C	-0.326032	1.792307	0.506098
C45	C	-0.326037	1.909084	0.506104
C46	C	-0.326038	1.518261	0.233116
C47	C	-0.325876	1.518433	0.116340
C48	C	-0.282630	1.585620	0.951779
C49	C	-0.282605	1.585645	1.061503
C50	C	-0.369170	1.451184	1.061446
C51	C	-0.369190	1.451154	0.951724
C52	C	-0.232655	1.663254	0.951812
C53	C	-0.232630	1.663279	1.061537
H54	H	-0.247379	1.118323	0.384423
C55	C	-1.147263	1.391596	0.632949
C56	C	-1.077755	1.377363	0.647119
H57	H	-1.171248	1.345989	0.678511
H58	H	-1.158797	1.462179	0.648382
H59	H	-1.158882	1.376255	0.562345
H60	H	-1.066135	1.392712	0.717721
H61	H	-1.066217	1.306765	0.631693
C62	C	-0.251538	1.773130	1.211487
C63	C	-0.251575	1.773117	1.101745
H64	H	-0.263226	1.840940	1.236308
H65	H	-0.283507	1.723489	1.236277
H66	H	-0.207849	1.754986	1.236300
H67	H	-0.295265	1.791254	1.076932
H68	H	-0.219604	1.822774	1.076945
H69	H	-0.247404	0.919260	0.384438
C70	C	-0.504090	1.645082	0.379267
C71	C	-0.573599	1.659317	0.365117
H72	H	-0.480109	1.690687	0.333697
H73	H	-0.492463	1.660416	0.449859
H74	H	-0.492558	1.574491	0.363825
H75	H	-0.585132	1.729907	0.380567
H76	H	-0.585231	1.643990	0.294509
C77	C	-0.533017	1.309628	0.587661
C78	C	-0.573598	1.377083	0.646982
H79	H	-0.509031	1.264002	0.633218
H80	H	-0.560637	1.269479	0.541869
H81	H	-0.501854	1.349658	0.547676
H82	H	-0.604765	1.337053	0.686960
H83	H	-0.545976	1.417235	0.692791
C84	C	-0.377558	0.999824	0.823593
C85	C	-0.394155	0.918058	0.755024
H86	H	-0.361966	0.971484	0.888056
H87	H	-0.343068	1.041725	0.793282
H88	H	-0.416389	1.041705	0.835957
H89	H	-0.355323	0.876181	0.742654
H90	H	-0.428648	0.876139	0.785341
C91	C	-0.161928	1.633865	0.801900
C92	C	-0.161897	1.633883	0.911642
H93	H	-0.118245	1.615738	0.777103
H94	H	-0.193902	1.584199	0.777075
H95	H	-0.173648	1.701653	0.777099
H96	H	-0.150182	1.566093	0.936444
H97	H	-0.129913	1.683551	0.936478
H98	H	-0.939440	1.396440	0.627955
H99	H	-0.405426	1.103494	0.732001
H100	H	-0.711920	1.396323	0.627889
H101	H	-0.182825	1.634181	1.095593
C102	C	-0.533057	1.009031	0.602988
C103	C	-0.490159	0.923701	0.620976
H104	H	-0.576728	0.984176	0.584693
H105	H	-0.535952	1.050409	0.664715
H106	H	-0.515587	1.050368	0.547343
H107	H	-0.507626	0.882368	0.676627
H108	H	-0.487266	0.882306	0.559242
H109	H	-0.711909	1.640245	0.384288
H110	H	-0.404440	1.396396	0.907040
C111	C	-0.407576	1.391527	1.229619
C112	C	-0.416735	1.377303	1.121721
H113	H	-0.436946	1.345919	1.266825
H114	H	-0.362100	1.376190	1.247618
H115	H	-0.417482	1.462117	1.247589
H116	H	-0.406824	1.306714	1.103749
H117	H	-0.462221	1.392633	1.103714
H118	H	-0.251446	1.740520	0.917773
H119	H	-0.469175	1.107680	0.621299
H120	H	-1.067680	1.640438	0.384384
C121	C	-0.975308	1.718559	0.306317
C122	C	-0.929359	1.659521	0.365225
H123	H	-0.951322	1.764175	0.260763
H124	H	-1.002921	1.672824	0.266094
H125	H	-1.002836	1.758732	0.352146
H126	H	-0.901834	1.619343	0.319396
H127	H	-0.901734	1.705263	0.405451
