data_functionalizedCrystal
_audit_creation_method	'MofGen! by Chris Wilmer'
_symmetry_space_group_name_H-M	'P1'
_symmetry_Int_Tables_number	1
_symmetry_cell_setting	triclinic
loop_
_symmetry_equiv_pos_as_xyz
  x,y,z
_cell_length_a	27.732048
_cell_length_b	16.992695
_cell_length_c	16.053802
_cell_angle_alpha	87.258926
_cell_angle_beta	92.554325
_cell_angle_gamma	86.655439
loop_
_atom_site_label
_atom_site_type_symbol
_atom_site_fract_x
_atom_site_fract_y
_atom_site_fract_z
O1	O	-0.646867	-0.089934	-0.069322
O2	O	-0.506687	-0.104112	-0.069347
O3	O	-0.576215	0.017112	-0.069328
O4	O	-0.577339	-0.211159	-0.069341
O5	O	-0.572387	0.010467	0.069530
O6	O	-0.502859	-0.110758	0.069511
O7	O	-0.643039	-0.096580	0.069536
Zn8	Zn	-0.572341	-0.104724	0.091570
Zn9	Zn	-0.577385	-0.095968	-0.091381
O10	O	-0.573511	-0.217804	0.069517
C11	C	-0.486753	-0.107137	0.000079
C12	C	-0.433060	-0.106240	0.000069
C13	C	-0.572855	0.042985	0.000101
C14	C	-0.568541	0.129977	0.000100
C15	C	-0.662973	-0.093555	0.000108
C16	C	-0.716666	-0.094451	0.000112
C17	C	-0.097097	-0.172236	0.000102
C18	C	0.104706	-0.168911	0.000109
O19	O	0.133354	-0.229259	0.000142
N20	N	0.126938	-0.097029	0.000112
C21	C	0.098716	-0.025974	0.000118
O22	O	0.122256	0.035241	0.000129
C23	C	-0.103087	-0.029300	0.000116
C24	C	-0.125316	-0.101186	0.000105
C25	C	-0.119327	-0.244116	0.000091
C26	C	-0.169775	-0.244946	0.000085
C27	C	-0.197993	-0.173896	0.000089
C28	C	-0.175764	-0.102016	0.000099
C29	C	-0.131308	0.041754	0.000128
C30	C	-0.181762	0.040916	0.000130
C31	C	-0.203991	-0.030970	0.000119
C32	C	-0.254431	-0.031797	0.000096
N33	N	-0.276662	-0.103679	0.000093
C34	C	-0.248444	-0.174728	0.000090
C35	C	0.204665	-0.024233	0.000117
C36	C	0.255115	-0.023401	0.000116
C37	C	0.261103	-0.166338	0.000109
C38	C	0.210651	-0.167169	0.000104
C39	C	0.182433	-0.096115	0.000115
C40	C	-0.354388	-0.176466	0.000075
C41	C	-0.404841	-0.177290	0.000065
C42	C	-0.410824	-0.034354	0.000077
C43	C	-0.360376	-0.033529	0.000083
C44	C	-0.332159	-0.104592	0.000085
O45	O	-0.283108	0.028519	0.000073
O46	O	-0.271992	-0.235936	0.000097
C47	C	-0.046649	-0.171406	0.000108
C48	C	-0.024420	-0.099526	0.000118
C49	C	-0.052639	-0.028476	0.000122
C50	C	0.026030	-0.098694	0.000117
C51	C	0.054249	-0.169744	0.000113
C52	C	0.032017	-0.241625	0.000111
C53	C	-0.018431	-0.242456	0.000104
C54	C	-0.030407	0.043406	0.000124
C55	C	0.020041	0.044230	0.000130
C56	C	0.048260	-0.026820	0.000126
C57	C	-0.576871	-0.243676	0.000086
C58	C	-0.581185	-0.330668	0.000082
N59	N	-0.568902	-0.110698	0.216429
C60	C	-0.610164	0.180721	0.000108
C61	C	-0.606108	0.262459	0.000099
C62	C	-0.560428	0.293450	0.000088
C63	C	-0.518802	0.242700	0.000077
C64	C	-0.522859	0.160964	0.000080
C65	C	-0.543615	0.536845	0.000074
C66	C	-0.539562	0.618587	0.000074
C67	C	-0.626868	0.638341	0.000094
C68	C	-0.630921	0.556602	0.000102
C69	C	-0.589295	0.505859	0.000086
N70	N	-0.556281	0.376999	0.000082
N71	N	-0.593442	0.422312	0.000087
N72	N	-0.580827	-0.089987	-0.216241
C73	C	-0.598499	-0.059135	0.260131
C74	C	-0.596098	-0.063322	0.347538
C75	C	-0.564103	-0.119076	0.391240
C76	C	-0.534504	-0.170642	0.347532
C77	C	-0.536902	-0.166451	0.260127
C78	C	-0.553626	-0.137362	0.652647
C79	C	-0.551231	-0.141550	0.740057
C80	C	-0.612825	-0.034229	0.740057
C81	C	-0.615222	-0.030046	0.652651
C82	C	-0.585621	-0.081609	0.608950
N83	N	-0.561650	-0.123359	0.480583
N84	N	-0.588072	-0.077322	0.519609
H85	H	-0.422937	-0.235831	0.000056
H86	H	-0.488965	0.119648	0.000073
O87	O	0.059409	-0.310658	-0.000040
C88	C	0.046924	-0.350913	-0.071947
H89	H	0.029918	-0.306926	-0.122214
H90	H	0.019959	-0.396742	-0.055692
C91	C	0.113572	-0.446421	-0.042813
C92	C	0.092688	-0.392394	-0.104554
H93	H	0.141800	-0.472012	-0.062926
H94	H	0.121983	-0.419303	0.005634
H95	H	0.091096	-0.484605	-0.029273
H96	H	0.115161	-0.354206	-0.118086
H97	H	0.084282	-0.419507	-0.153004
O98	O	-0.327056	-0.245565	0.000034
C99	C	-0.357503	-0.309179	0.000043
H100	H	-0.395065	-0.287549	-0.026243
H101	H	-0.360118	-0.334435	0.066656
C102	C	-0.290354	-0.400337	-0.022138
C103	C	-0.336488	-0.373771	-0.054430
H104	H	-0.277391	-0.440182	-0.055736
H105	H	-0.269841	-0.357480	-0.022141
H106	H	-0.292540	-0.421378	0.033373
H107	H	-0.334301	-0.352722	-0.109935
H108	H	-0.357000	-0.416627	-0.054438
O109	O	-0.503215	0.487473	0.000175
C110	C	-0.500959	0.436175	0.072100
H111	H	-0.538805	0.431361	0.096084
H112	H	-0.476465	0.460392	0.122454
C113	C	-0.433973	0.359845	0.020789
C114	C	-0.480458	0.353926	0.050243
H115	H	-0.421325	0.309111	0.007309
H116	H	-0.435491	0.394407	-0.027667
H117	H	-0.413567	0.380029	0.062756
H118	H	-0.500864	0.333753	0.008273
H119	H	-0.478942	0.319359	0.098691
O120	O	-0.338856	0.036367	0.000119
C121	C	-0.374585	0.098899	0.000092
H122	H	-0.408948	0.076097	0.026373
H123	H	-0.382699	0.123970	-0.066526
C124	C	-0.314027	0.192148	0.022274
C125	C	-0.356231	0.164143	0.054559
H126	H	-0.302705	0.232396	0.055869
H127	H	-0.289955	0.150020	0.022289
H128	H	-0.320795	0.213035	-0.033240
H129	H	-0.349461	0.143248	0.110068
H130	H	-0.380301	0.206270	0.054555
O131	O	-0.675332	0.526632	0.000078
C132	C	-0.711200	0.588948	0.000108
H133	H	-0.696240	0.645572	-0.026192
H134	H	-0.722350	0.597498	0.066730
C135	C	-0.773905	0.499432	-0.022025
C136	C	-0.755531	0.568978	-0.054334
H137	H	-0.801252	0.487113	-0.055603
H138	H	-0.749740	0.457448	-0.022042
H139	H	-0.783192	0.506566	0.033493
H140	H	-0.746239	0.561840	-0.109846
H141	H	-0.779696	0.610960	-0.054327
O142	O	-0.503354	-0.224720	0.389946
C143	C	-0.455624	-0.211498	0.368587
H144	H	-0.453627	-0.147600	0.344570
H145	H	-0.444500	-0.252665	0.317850
C146	C	-0.423662	-0.306241	0.475737
C147	C	-0.421209	-0.227758	0.446245
H148	H	-0.402433	-0.316274	0.523638
H149	H	-0.455819	-0.315152	0.490125
H150	H	-0.414394	-0.340537	0.433448
H151	H	-0.430483	-0.193463	0.488529
H152	H	-0.389053	-0.218842	0.431865
H153	H	-0.647361	0.155494	0.000122
O154	O	-0.646589	0.311638	0.000150
C155	C	-0.687776	0.266758	0.000147
H156	H	-0.677143	0.204342	0.026434
H157	H	-0.703471	0.264285	-0.066465
C158	C	-0.738990	0.382049	0.022330
C159	C	-0.725931	0.305389	0.054623
H160	H	-0.762527	0.405879	0.055930
H161	H	-0.711242	0.412286	0.022329
H162	H	-0.752066	0.379978	-0.033179
H163	H	-0.712850	0.307462	0.110127
H164	H	-0.753678	0.275153	0.054634
O165	O	0.041572	0.114121	0.000028
C166	C	0.025455	0.160833	-0.071893
H167	H	-0.010980	0.141051	-0.095881
H168	H	0.052883	0.153816	-0.122246
C169	C	0.064764	0.272360	-0.020569
C170	C	0.020013	0.248067	-0.050028
H171	H	0.061409	0.326171	-0.007084
H172	H	0.075625	0.240889	0.027884
H173	H	0.087617	0.266506	-0.062535
H174	H	-0.002837	0.253913	-0.008059
H175	H	0.009148	0.279542	-0.098474
H176	H	-0.525175	-0.186955	0.775636
H177	H	-0.624554	-0.013738	0.224555
O178	O	-0.624903	-0.013206	0.389860
C179	C	-0.653653	0.036908	0.332545
H180	H	-0.657141	0.007769	0.270233
H181	H	-0.635982	0.095408	0.323267
C182	C	-0.699930	0.087777	0.443176
C183	C	-0.704219	0.051985	0.366645
H184	H	-0.731121	0.097080	0.464212
H185	H	-0.680560	0.054016	0.481792
H186	H	-0.685203	0.136523	0.435434
H187	H	-0.718940	0.003236	0.374390
H188	H	-0.723593	0.085737	0.328032
O189	O	-0.646312	0.024186	0.610330
C190	C	-0.671930	0.068788	0.667647
H191	H	-0.650378	0.066467	0.729957
H192	H	-0.708547	0.043295	0.676930
C193	C	-0.706030	0.157934	0.557016
C194	C	-0.679558	0.155088	0.633544
H195	H	-0.710738	0.211167	0.535979
H196	H	-0.688773	0.127883	0.518400
H197	H	-0.736542	0.136685	0.564762
H198	H	-0.649046	0.176327	0.625795
H199	H	-0.696811	0.185144	0.672158
O200	O	-0.641525	0.015824	0.782638
C201	C	-0.632558	0.000160	0.869154
H202	H	-0.594951	-0.030136	0.881097
H203	H	-0.660742	-0.040030	0.893945
C204	C	-0.681683	0.115474	0.899371
C205	C	-0.635491	0.078270	0.914040
H206	H	-0.683494	0.163655	0.927059
H207	H	-0.687726	0.126026	0.841083
H208	H	-0.705164	0.081974	0.920030
H209	H	-0.612011	0.111766	0.893371
H210	H	-0.629444	0.067726	0.972325
O211	O	-0.524856	-0.187534	0.610333
C212	C	-0.496097	-0.237629	0.667652
H213	H	-0.514232	-0.241279	0.729950
H214	H	-0.458969	-0.213028	0.676964
C215	C	-0.468062	-0.316172	0.557014
C216	C	-0.490339	-0.320659	0.633528
H217	H	-0.464508	-0.367388	0.535965
H218	H	-0.487436	-0.282420	0.518397
H219	H	-0.437125	-0.295667	0.564785
H220	H	-0.521277	-0.341154	0.625754
H221	H	-0.470969	-0.354417	0.672144
H222	H	-0.512801	-0.208438	0.224546
H223	H	-0.481609	0.267940	0.000063
H224	H	-0.187869	-0.303483	0.000076
H225	H	-0.096356	-0.301977	0.000091
H226	H	0.284087	-0.224190	0.000106
O227	O	0.189139	-0.237069	0.000136
C228	C	0.224869	-0.299594	0.000107
H229	H	0.260676	-0.279301	0.026395
H230	H	0.229322	-0.318291	-0.066512
C231	C	0.165535	-0.394974	0.022273
C232	C	0.209513	-0.370052	0.054566
H233	H	0.156063	-0.438438	0.055862
H234	H	0.141463	-0.352851	0.022289
H235	H	0.169252	-0.410549	-0.033243
H236	H	0.205794	-0.354469	0.110076
H237	H	0.233585	-0.412175	0.054560
O238	O	0.177328	0.044868	0.000085
C239	C	0.207775	0.108481	0.000106
H240	H	0.243891	0.089368	-0.026183
H241	H	0.214055	0.127357	0.066724
C242	C	0.139407	0.201761	-0.022059
C243	C	0.183764	0.178289	-0.054355
H244	H	0.124595	0.244824	-0.055650
H245	H	0.118893	0.158905	-0.022070
H246	H	0.144646	0.217486	0.033455
H247	H	0.178523	0.162555	-0.109863
H248	H	0.204276	0.221144	-0.054354
H249	H	0.273209	0.035136	0.000112
O250	O	-0.109799	0.111652	0.000184
C251	C	-0.145534	0.174173	0.000174
H252	H	-0.179894	0.151355	0.026451
H253	H	-0.153653	0.199257	-0.066438
C254	C	-0.084986	0.267435	0.022376
C255	C	-0.127186	0.239410	0.054657
H256	H	-0.073668	0.307679	0.055980
H257	H	-0.060910	0.225314	0.022379
H258	H	-0.091757	0.288333	-0.033134
H259	H	-0.120413	0.218505	0.110161
H260	H	-0.151260	0.281530	0.054664
H261	H	-0.204734	0.098778	0.000139
H262	H	-0.036525	-0.300992	0.000096
H263	H	-0.433809	0.023493	0.000077
H264	H	-0.053378	0.101264	0.000129
H265	H	-0.660757	0.679665	0.000105
H266	H	-0.502362	0.643816	0.000078
