data_functionalizedCrystal
_audit_creation_method	'MofGen! by Chris Wilmer'
_symmetry_space_group_name_H-M	'P1'
_symmetry_Int_Tables_number	1
_symmetry_cell_setting	triclinic
loop_
_symmetry_equiv_pos_as_xyz
  x,y,z
_cell_length_a	29.839134
_cell_length_b	14.908520
_cell_length_c	14.908308
_cell_angle_alpha	83.639235
_cell_angle_beta	93.268592
_cell_angle_gamma	86.683852
loop_
_atom_site_label
_atom_site_type_symbol
_atom_site_fract_x
_atom_site_fract_y
_atom_site_fract_z
Zn1	Zn	0.660286	0.390008	-0.532806
Zn2	Zn	1.160286	0.890008	-0.032806
Zn3	Zn	0.660235	0.532654	-0.390177
Zn4	Zn	1.160235	1.032654	0.109823
Zn5	Zn	0.589761	0.381296	-0.381439
Zn6	Zn	1.089761	0.881296	0.118561
Zn7	Zn	0.580545	0.541310	-0.541457
Zn8	Zn	1.080545	1.041310	-0.041457
O9	O	0.622707	0.461317	-0.461470
O10	O	1.122707	0.961317	0.038530
O11	O	0.723144	0.408954	-0.513923
O12	O	1.223144	0.908954	-0.013923
O13	O	0.654722	0.505307	-0.262358
O14	O	1.154722	1.005307	0.237642
O15	O	0.602995	0.255788	-0.394241
O16	O	1.102995	0.755788	0.105759
O17	O	0.723107	0.513754	-0.409134
O18	O	1.223107	1.013754	0.090866
O19	O	0.654809	0.262189	-0.505450
O20	O	1.154809	0.762189	-0.005450
O21	O	0.602945	0.394105	-0.255939
O22	O	1.102945	0.894105	0.244061
O23	O	0.525673	0.402500	-0.402629
O24	O	1.025673	0.902500	0.097371
O25	O	0.587287	0.528509	-0.666969
O26	O	1.087287	1.028509	-0.166969
O27	O	0.518902	0.520061	-0.520193
O28	O	1.018902	1.020061	-0.020193
O29	O	0.645872	0.417348	-0.660613
O30	O	1.145872	0.917348	-0.160613
O31	O	0.645785	0.660466	-0.417522
O32	O	1.145785	1.160466	0.082478
O33	O	0.587237	0.666826	-0.528666
O34	O	1.087237	1.166826	-0.028666
C35	C	0.505987	0.461275	-0.461402
C36	C	1.005987	0.961275	0.038598
C37	C	0.456053	0.461280	-0.461396
C38	C	0.956053	0.961280	0.038604
C39	C	0.615517	0.696490	-0.475001
C40	C	1.115517	1.196490	0.024999
C41	C	0.612482	0.797099	-0.480819
C42	C	1.112482	1.297099	0.019181
C43	C	0.615557	0.474866	-0.697550
C44	C	1.115557	0.974866	-0.197550
C45	C	0.612510	0.480639	-0.798154
C46	C	1.112510	0.980639	-0.298154
C47	C	0.142889	0.522613	-0.522620
C48	C	0.642889	1.022613	-0.022620
C49	C	-0.044786	0.522641	-0.522661
C50	C	0.455214	1.022641	-0.022661
O51	O	-0.072041	0.574743	-0.574675
O52	O	0.427959	1.074743	-0.074675
N53	N	-0.064739	0.461354	-0.461540
N54	N	0.435261	0.961354	0.038460
C55	C	-0.037770	0.400053	-0.400407
C56	C	0.462230	0.900053	0.099593
O57	O	-0.059047	0.347919	-0.348427
O58	O	0.440953	0.847919	0.151573
C59	C	0.149904	0.400021	-0.400371
C60	C	0.649904	0.900021	0.099629
C61	C	0.169855	0.461318	-0.461490
C62	C	0.669855	0.961318	0.038510
C63	C	0.162840	0.583904	-0.583735
C64	C	0.662840	1.083904	-0.083735
C65	C	0.209756	0.583900	-0.583720
C66	C	0.709756	1.083900	-0.083720
C67	C	0.236721	0.522604	-0.522591
C68	C	0.736721	1.022604	-0.022591
C69	C	0.216771	0.461313	-0.461476
C70	C	0.716771	0.961313	0.038524
C71	C	0.176873	0.338716	-0.339243
C72	C	0.676873	0.838716	0.160757
C73	C	0.223794	0.338712	-0.339241
C74	C	0.723794	0.838712	0.160759
C75	C	0.243744	0.400008	-0.400361
C76	C	0.743744	0.900008	0.099639
C77	C	0.290652	0.400014	-0.400332
C78	C	0.790652	0.900014	0.099668
N79	N	0.310605	0.461300	-0.461454
N80	N	0.810605	0.961300	0.038546
C81	C	0.283640	0.522596	-0.522583
C82	C	0.783640	1.022596	-0.022583
C83	C	-0.136302	0.400075	-0.400430
C84	C	0.363698	0.900075	0.099570
C85	C	-0.183220	0.400083	-0.400438
C86	C	0.316780	0.900083	0.099562
C87	C	-0.190233	0.522671	-0.522693
C88	C	0.309767	1.022671	-0.022693
C89	C	-0.143313	0.522666	-0.522680
C90	C	0.356687	1.022666	-0.022680
C91	C	-0.116349	0.461361	-0.461551
C92	C	0.383651	0.961361	0.038449
C93	C	0.382167	0.522583	-0.522548
C94	C	0.882167	1.022583	-0.022548
C95	C	0.429087	0.522575	-0.522526
C96	C	0.929087	1.022575	-0.022526
C97	C	0.436096	0.399985	-0.400274
C98	C	0.936096	0.899985	0.099726
C99	C	0.389180	0.399995	-0.400292
C100	C	0.889180	0.899995	0.099708
C101	C	0.362216	0.461297	-0.461437
C102	C	0.862216	0.961297	0.038563
O103	O	0.317935	0.347932	-0.348353
O104	O	0.817935	0.847932	0.151647
O105	O	0.304926	0.574708	-0.574569
O106	O	0.804926	1.074708	-0.074569
C107	C	0.095973	0.522617	-0.522634
C108	C	0.595973	1.022617	-0.022634
C109	C	0.076023	0.461326	-0.461519
C110	C	0.576023	0.961326	0.038481
C111	C	0.102988	0.400031	-0.400389
C112	C	0.602988	0.900031	0.099611
C113	C	0.029104	0.461335	-0.461527
C114	C	0.529104	0.961335	0.038473
C115	C	0.002139	0.522630	-0.522656
C116	C	0.502139	1.022630	-0.022656
C117	C	0.022092	0.583917	-0.583778
C118	C	0.522092	1.083917	-0.083778
C119	C	0.069008	0.583913	-0.583763
C120	C	0.569008	1.083913	-0.083763
C121	C	0.083035	0.338745	-0.339268
C122	C	0.583035	0.838745	0.160732
C123	C	0.036119	0.338755	-0.339286
C124	C	0.536119	0.838755	0.160714
C125	C	0.009154	0.400050	-0.400416
C126	C	0.509154	0.900050	0.099584
C127	C	0.739882	0.461360	-0.461538
C128	C	1.239882	0.961360	0.038462
C129	C	0.789815	0.461379	-0.461567
C130	C	1.289815	0.961379	0.038433
C131	C	0.629936	0.225228	-0.447906
C132	C	1.129936	0.725228	0.052094
C133	C	0.633016	0.124620	-0.442126
C134	C	1.133016	0.624620	0.057874
C135	C	0.667800	0.979476	-0.376112
C136	C	1.167800	1.479476	0.123888
C137	C	0.664949	1.074008	-0.381576
C138	C	1.164949	1.574008	0.118424
C139	C	0.603933	1.080695	-0.497217
C140	C	1.103933	1.580695	0.002783
C141	C	0.606783	0.986164	-0.491752
C142	C	1.106783	1.486164	0.008248
C143	C	0.638717	0.935558	-0.431197
C144	C	1.138717	1.435558	0.068803
C145	C	0.641565	0.841024	-0.425728
C146	C	1.141565	1.341024	0.074272
C147	C	0.580551	0.847713	-0.541373
C148	C	1.080551	1.347713	-0.041373
C149	C	0.577700	0.942245	-0.546837
C150	C	1.077700	1.442245	-0.046837
C151	C	0.667790	0.375715	-0.980581
C152	C	1.167790	0.875715	-0.480581
C153	C	0.664928	0.381137	-1.075107
C154	C	1.164928	0.881137	-0.575107
C155	C	0.603925	0.496899	-1.081733
C156	C	1.103925	0.996899	-0.581733
C157	C	0.606786	0.491477	-0.987207
C158	C	1.106786	0.991477	-0.487207
C159	C	0.638720	0.430884	-0.936634
C160	C	1.138720	0.930884	-0.436634
C161	C	0.641583	0.425468	-0.842107
C162	C	1.141583	0.925468	-0.342107
C163	C	0.580578	0.541225	-0.848734
C164	C	1.080578	1.041225	-0.348734
C165	C	0.577716	0.546646	-0.943260
C166	C	1.077716	1.046646	-0.443260
C167	C	0.629856	0.447756	-0.226304
C168	C	1.129856	0.947756	0.273696
C169	C	0.632998	0.441728	-0.125686
C170	C	1.132998	0.941728	0.374314
H171	H	0.445328	0.572494	-0.572297
H172	H	0.945328	1.072494	-0.072297
Cl173	Cl	0.563796	1.144330	-0.573348
Cl174	Cl	1.063796	1.644330	-0.073348
H175	H	0.551702	0.983461	-0.596142
H176	H	1.051702	1.483461	-0.096142
H177	H	0.551716	0.595977	-0.984449
H178	H	1.051716	1.095977	-0.484449
H179	H	0.556869	0.811944	-0.586224
H180	H	1.056869	1.311944	-0.086224
H181	H	0.556908	0.586150	-0.812943
H182	H	1.056908	1.086150	-0.312943
H183	H	0.360218	0.572499	-0.572339
H184	H	0.860218	1.072499	-0.072339
H185	H	-0.114350	0.350152	-0.350647
H186	H	0.385650	0.850152	0.149353
H187	H	0.667586	0.376131	-0.800932
H188	H	1.167586	0.876131	-0.300932
Cl189	Cl	0.094081	0.660974	-0.660605
Cl190	Cl	0.594081	1.160974	-0.160605
H191	H	0.693793	0.326383	-0.939404
H192	H	1.193793	0.826383	-0.439404
Cl193	Cl	0.701474	0.311777	-1.130352
Cl194	Cl	1.201474	0.811777	-0.630352
H195	H	0.693799	0.938272	-0.326799
H196	H	1.193799	1.438272	0.173201
H197	H	0.225995	0.633812	-0.633492
H198	H	0.725995	1.133812	-0.133492
H199	H	0.140889	0.633819	-0.633519
H200	H	0.640889	1.133819	-0.133519
H201	H	0.577926	0.546230	-1.122925
H202	H	1.077926	1.046230	-0.622925
H203	H	-0.212196	0.572580	-0.572467
H204	H	0.287804	1.072580	-0.072467
Cl205	Cl	-0.118238	0.599725	-0.599521
Cl206	Cl	0.381762	1.099725	-0.099521
H207	H	0.160637	0.288804	-0.289471
H208	H	0.660637	0.788804	0.210529
H209	H	0.667567	0.799821	-0.376419
H210	H	1.167567	1.299821	0.123581
H211	H	0.245747	0.288784	-0.289467
H212	H	0.745747	0.788784	0.210533
Cl213	Cl	-0.208294	0.323032	-0.323587
Cl214	Cl	0.291706	0.823032	0.176413
H215	H	0.372935	0.350084	-0.350522
H216	H	0.872935	0.850084	0.149478
H217	H	0.458060	0.350083	-0.350501
H218	H	0.958060	0.850083	0.149499
Cl219	Cl	-0.011816	0.660976	-0.660622
Cl220	Cl	0.488184	1.160976	-0.160622
H221	H	0.104986	0.288829	-0.289488
H222	H	0.604986	0.788829	0.210512
Cl223	Cl	0.011045	0.261690	-0.262440
Cl224	Cl	0.511045	0.761690	0.237560
Cl225	Cl	0.701513	1.129218	-0.312326
Cl226	Cl	1.201513	1.629218	0.187674
