data_functionalizedCrystal
_audit_creation_method	'MofGen! by Chris Wilmer'
_symmetry_space_group_name_H-M	'P1'
_symmetry_Int_Tables_number	1
_symmetry_cell_setting	triclinic
loop_
_symmetry_equiv_pos_as_xyz
  x,y,z
_cell_length_a	12.759395
_cell_length_b	17.640280
_cell_length_c	12.759387
_cell_angle_alpha	78.767705
_cell_angle_beta	89.981185
_cell_angle_gamma	78.802277
loop_
_atom_site_label
_atom_site_type_symbol
_atom_site_fract_x
_atom_site_fract_y
_atom_site_fract_z
Zn1	Zn	1.690802	-0.314586	-0.509548
Zn2	Zn	2.190802	0.185414	-0.009548
Zn3	Zn	1.726229	-0.446784	-0.298377
Zn4	Zn	2.226229	0.053216	0.201623
Zn5	Zn	1.515118	-0.314632	-0.333873
Zn6	Zn	2.015118	0.185368	0.166127
Zn7	Zn	1.550608	-0.446725	-0.474032
Zn8	Zn	2.050608	0.053275	0.025968
O9	O	1.620689	-0.380682	-0.403958
O10	O	2.120689	0.119318	0.096042
O11	O	1.842524	-0.332128	-0.481544
O12	O	2.342524	0.167872	0.018456
O13	O	1.698198	-0.429297	-0.156053
O14	O	2.198198	0.070703	0.343947
O15	O	1.508744	-0.204019	-0.386895
O16	O	2.008744	0.295981	0.113105
O17	O	1.868552	-0.429253	-0.326398
O18	O	2.368552	0.070747	0.173602
O19	O	1.637819	-0.203986	-0.515963
O20	O	2.137819	0.296014	-0.015963
O21	O	1.543096	-0.332206	-0.182131
O22	O	2.043096	0.167794	0.317869
O23	O	1.372803	-0.332149	-0.352457
O24	O	1.872803	0.167851	0.147543
O25	O	1.569231	-0.429153	-0.625776
O26	O	2.069231	0.070847	-0.125776
O27	O	1.398878	-0.429197	-0.455431
O28	O	1.898878	0.070803	0.044569
O29	O	1.672232	-0.332071	-0.651870
O30	O	2.172232	0.167929	-0.151870
O31	O	1.732611	-0.557383	-0.291960
O32	O	2.232611	-0.057383	0.208040
O33	O	1.603583	-0.557339	-0.421013
O34	O	2.103583	-0.057339	0.078987
C35	C	1.347719	-0.380672	-0.403942
C36	C	1.847719	0.119328	0.096058
C37	C	1.230947	-0.380687	-0.403955
C38	C	1.730947	0.119313	0.096045
C39	C	1.258180	-0.481907	-0.510922
C40	C	1.758180	0.018093	-0.010922
C41	C	1.216938	-0.532523	-0.564406
C42	C	1.716938	-0.032523	-0.064406
C43	C	1.107219	-0.532533	-0.564416
C44	C	1.607219	-0.032533	-0.064416
C45	C	1.038738	-0.481919	-0.510939
C46	C	1.538738	0.018081	-0.010939
C47	C	1.079980	-0.431303	-0.457455
C48	C	1.579980	0.068697	0.042545
C49	C	1.189704	-0.431300	-0.457447
C50	C	1.689704	0.068700	0.042553
C51	C	1.052746	-0.330080	-0.350496
C52	C	1.552746	0.169920	0.149504
C53	C	1.162465	-0.330073	-0.350478
C54	C	1.662465	0.169927	0.149522
C55	C	0.984265	-0.279467	-0.297019
C56	C	1.484265	0.220533	0.202981
C57	C	1.025508	-0.228853	-0.243527
C58	C	1.525508	0.271147	0.256473
C59	C	1.135234	-0.228846	-0.243517
C60	C	1.635234	0.271154	0.256483
C61	C	1.203708	-0.279457	-0.296994
C62	C	1.703708	0.220543	0.203006
C63	C	1.675821	-0.586040	-0.348804
C64	C	2.175821	-0.086040	0.151196
C65	C	1.699503	-0.673893	-0.325244
C66	C	2.199503	-0.173893	0.174756
C67	C	1.441213	-0.962856	-0.583322
C68	C	1.941213	-0.462856	-0.083322
C69	C	1.463468	-1.045408	-0.561150
C70	C	1.963468	-0.545408	-0.061150
C71	C	1.597908	-1.045387	-0.426903
C72	C	2.097908	-0.545387	0.073097
C73	C	1.575668	-0.962834	-0.449067
C74	C	2.075668	-0.462834	0.050933
C75	C	1.497319	-0.921575	-0.527277
C76	C	1.997319	-0.421575	-0.027277
C77	C	1.631774	-0.921553	-0.393022
C78	C	2.131774	-0.421553	0.106978
C79	C	1.609532	-0.839007	-0.415181
C80	C	2.109532	-0.339007	0.084819
C81	C	1.531184	-0.797742	-0.493385
C82	C	2.031184	-0.297742	0.006615
C83	C	1.475077	-0.839029	-0.549435
C84	C	1.975077	-0.339029	-0.049435
C85	C	1.710118	-0.962814	-0.314808
C86	C	2.210118	-0.462814	0.185192
C87	C	1.766224	-0.921532	-0.258763
C88	C	2.266224	-0.421532	0.241237
C89	C	1.743987	-0.838985	-0.280926
C90	C	2.243987	-0.338985	0.219074
C91	C	1.665639	-0.797720	-0.359130
C92	C	2.165639	-0.297720	0.140870
C93	C	1.800094	-0.797698	-0.224876
C94	C	2.300094	-0.297698	0.275124
C95	C	1.777852	-0.715152	-0.247034
C96	C	2.277852	-0.215152	0.252966
C97	C	1.643397	-0.715174	-0.381289
C98	C	2.143397	-0.215174	0.118711
C99	C	1.894726	-0.380692	-0.403974
C100	C	2.394726	0.119308	0.096026
C101	C	2.011503	-0.380696	-0.403980
C102	C	2.511503	0.119304	0.096020
C103	C	1.620739	-0.380600	-0.678013
C104	C	2.120739	0.119400	-0.178013
C105	C	1.620760	-0.380565	-0.794799
C106	C	2.120760	0.119435	-0.294799
C107	C	1.565371	-0.174522	-0.459350
C108	C	2.065371	0.325478	0.040650
C109	C	1.541798	-0.086668	-0.482955
C110	C	2.041798	0.413332	0.017045
C111	C	1.459259	-0.279457	-0.821975
C112	C	1.959259	0.220543	-0.321975
C113	C	1.378523	-0.228887	-0.890428
C114	C	1.878523	0.271113	-0.390428
C115	C	1.378547	-0.228859	-1.000158
C116	C	1.878547	0.271141	-0.500158
C117	C	1.459313	-0.279407	-1.041435
C118	C	1.959313	0.220593	-0.541435
C119	C	1.540049	-0.329977	-0.972981
C120	C	2.040049	0.170023	-0.472981
C121	C	1.540018	-0.329998	-0.863252
C122	C	2.040018	0.170002	-0.363252
C123	C	1.701544	-0.431088	-0.945805
C124	C	2.201544	0.068912	-0.445805
C125	C	1.701526	-0.431114	-0.836076
C126	C	2.201526	0.068886	-0.336076
C127	C	1.782310	-0.481636	-0.987082
C128	C	2.282310	0.018364	-0.487082
C129	C	1.863052	-0.532203	-0.918629
C130	C	2.363052	-0.032203	-0.418629
C131	C	1.863025	-0.532229	-0.808894
C132	C	2.363025	-0.032229	-0.308894
C133	C	1.782262	-0.481684	-0.767623
C134	C	2.282262	0.018316	-0.267623
C135	C	1.620685	-0.380706	-0.130984
C136	C	2.120685	0.119294	0.369016
C137	C	1.620808	-0.380518	-0.014258
C138	C	2.120808	0.119482	0.485742
H139	H	0.969742	-0.187644	-0.199996
H140	H	1.469742	0.312356	0.300004
H141	H	1.782319	-0.481613	-1.076429
H142	H	2.282319	0.018387	-0.576429
H143	H	1.459238	-0.279469	-0.732631
H144	H	1.959238	0.220531	-0.232631
H145	H	1.293049	-0.279459	-0.296988
H146	H	1.793049	0.220541	0.203012
H147	H	1.928773	-0.573407	-0.753165
H148	H	2.428773	-0.073407	-0.253165
H149	H	1.073640	-0.573745	-0.607974
H150	H	1.573640	-0.073745	-0.107974
H151	H	0.894926	-0.279475	-0.297036
H152	H	1.394926	0.220525	0.202964
H153	H	1.411284	-0.805435	-0.613130
H154	H	1.911284	-0.305435	-0.113130
H155	H	1.312804	-0.187682	-1.055893
H156	H	1.812804	0.312318	-0.555893
H157	H	1.377421	-0.929261	-0.647016
H158	H	1.877421	-0.429261	-0.147016
H159	H	1.830013	-0.955137	-0.195082
H160	H	2.330013	-0.455137	0.304918
H161	H	1.417786	-1.079016	-0.606807
H162	H	1.917786	-0.579016	-0.106807
H163	H	1.728227	-1.030028	-0.296772
H164	H	2.228227	-0.530028	0.203228
H165	H	1.168804	-0.187623	-0.199973
H166	H	1.668804	0.312377	0.300027
H167	H	1.782235	-0.481697	-0.678278
H168	H	2.282235	0.018303	-0.178278
H169	H	1.312763	-0.187734	-0.856808
H170	H	1.812763	0.312266	-0.356808
H171	H	0.949398	-0.481924	-0.510963
H172	H	1.449398	0.018076	-0.010963
H173	H	1.579605	-0.681580	-0.444983
H174	H	2.079605	-0.181580	0.055017
H175	H	1.863879	-0.831304	-0.161190
H176	H	2.363879	-0.331304	0.338810
H177	H	1.661697	-1.078992	-0.363222
H178	H	2.161697	-0.578992	0.136778
H179	H	1.347522	-0.481910	-0.510909
H180	H	1.847522	0.018090	-0.010909
H181	H	1.928802	-0.573359	-0.952246
H182	H	2.428802	-0.073359	-0.452246
H183	H	1.459318	-0.279386	-1.130781
H184	H	1.959318	0.220614	-0.630781
H185	H	1.272707	-0.573730	-0.607948
H186	H	1.772707	-0.073730	-0.107948
H187	H	1.513069	-0.730528	-0.511417
H188	H	2.013069	-0.230528	-0.011417
H189	H	1.823539	-0.681541	-0.201395
H190	H	2.323539	-0.181541	0.298605
