data_functionalizedCrystal
_audit_creation_method	'MofGen! by Chris Wilmer'
_symmetry_space_group_name_H-M	'P1'
_symmetry_Int_Tables_number	1
_symmetry_cell_setting	triclinic
loop_
_symmetry_equiv_pos_as_xyz
  x,y,z
_cell_length_a	27.440280
_cell_length_b	23.096457
_cell_length_c	23.096457
_cell_angle_alpha	119.997343
_cell_angle_beta	89.994019
_cell_angle_gamma	59.998890
loop_
_atom_site_label
_atom_site_type_symbol
_atom_site_fract_x
_atom_site_fract_y
_atom_site_fract_z
Zr1	Zr	0.469512	0.633664	0.075885
O2	O	0.391693	0.754462	0.168341
O3	O	0.493366	0.512875	0.047546
O4	O	0.493365	0.633662	0.168331
O5	O	0.391698	0.633674	-0.047726
O6	O	0.573568	0.633651	0.168319
O7	O	0.391694	0.633675	0.047556
O8	O	0.573570	0.417585	-0.047744
O9	O	0.391695	0.849740	0.168337
O10	O	0.563397	0.562546	0.035446
O11	O	0.503545	0.562554	-0.035652
O12	O	0.503543	0.704765	0.106557
O13	O	0.443691	0.704773	0.035458
Zr14	Zr	0.597432	0.633645	-0.076097
Zr15	Zr	0.597426	0.633647	0.075866
Zr16	Zr	0.469518	0.633663	-0.076078
Zr17	Zr	0.469516	0.785622	0.075879
Zr18	Zr	0.597429	0.481688	-0.076091
O19	O	0.573578	0.754435	-0.047758
O20	O	0.573570	0.754436	0.168314
O21	O	0.391700	0.754460	-0.047731
O22	O	0.675251	0.512848	-0.168553
O23	O	0.675244	0.512850	0.047519
O24	O	0.493374	0.512873	-0.168526
O25	O	0.675246	0.633636	0.047514
O26	O	0.573579	0.633648	-0.168543
O27	O	0.493377	0.633659	-0.168531
O28	O	0.675250	0.633635	-0.047768
O29	O	0.493369	0.849726	0.168322
O30	O	0.573575	0.417584	-0.168534
O31	O	0.675249	0.417570	-0.168549
O32	O	0.675245	0.417571	-0.047759
O33	O	0.391699	0.849739	0.047547
O34	O	0.493374	0.849725	0.047531
O35	O	0.563401	0.562545	-0.106769
O36	O	0.623253	0.562537	-0.035670
O37	O	0.563400	0.704756	0.035440
O38	O	0.503548	0.704764	-0.035658
C39	C	0.533468	0.443579	-0.000098
C40	C	0.533467	0.379070	-0.000095
C41	C	0.373471	0.633677	-0.000082
C42	C	0.319168	0.633685	-0.000074
C43	C	0.564705	0.348765	0.037020
C44	C	0.564710	0.288142	0.037014
C45	C	0.533467	0.257839	-0.000097
C46	C	0.502227	0.288148	-0.037221
C47	C	0.502227	0.348763	-0.037220
N48	N	0.482621	0.195450	0.005057
N49	N	0.482622	0.137870	0.005060
C50	C	0.533466	0.075207	-0.000104
N51	N	0.584308	0.072308	-0.005257
N52	N	0.584306	0.129896	-0.005256
C53	C	0.533464	0.192111	-0.000103
C54	C	0.564713	-0.020833	0.037007
C55	C	0.564721	-0.081460	0.036996
C56	C	0.502232	-0.081447	-0.037234
C57	C	0.502230	-0.020827	-0.037228
C58	C	0.533469	0.009479	-0.000104
C59	C	0.013713	0.559405	-0.037245
C60	C	-0.037305	0.559400	-0.037251
O61	O	-0.037122	0.496265	-0.068841
N62	N	-0.094065	0.633636	-0.000131
C63	C	-0.099806	0.707881	0.036991
O64	O	-0.152769	0.771024	0.068563
C65	C	-0.048788	0.707885	0.036993
C66	C	0.007971	0.633644	-0.000123
C67	C	0.070470	0.485170	-0.074358
C68	C	0.121485	0.485175	-0.074351
C69	C	0.115743	0.559414	-0.037230
C70	C	0.058986	0.633649	-0.000116
C71	C	-0.054529	0.782129	0.074111
C72	C	-0.003505	0.782127	0.074109
C73	C	0.053254	0.707886	0.036993
C74	C	0.104259	0.707893	0.037013
N75	N	0.161019	0.633658	-0.000107
C76	C	0.166761	0.559418	-0.037228
C77	C	-0.206944	0.707868	0.036984
C78	C	-0.257962	0.707865	0.036987
C79	C	-0.195457	0.559384	-0.037257
C80	C	-0.144439	0.559387	-0.037255
C81	C	-0.150184	0.633632	-0.000136
C82	C	0.273893	0.559434	-0.037209
C83	C	0.324910	0.559445	-0.037196
C84	C	0.262401	0.707926	0.037044
C85	C	0.211389	0.707915	0.037035
C86	C	0.217139	0.633662	-0.000097
O87	O	0.104122	0.770997	0.068584
O88	O	0.219726	0.496286	-0.068802
C89	C	0.693473	0.633633	-0.000130
C90	C	0.747776	0.633625	-0.000138
C91	C	0.533465	0.633656	0.189977
C92	C	0.533463	0.633657	0.254489
C93	C	0.533476	0.823730	-0.000114
C94	C	0.533477	0.888240	-0.000117
C95	C	0.489279	0.633674	0.715012
C96	C	0.489279	0.633668	0.654393
C97	C	0.533464	0.633662	0.624074
C98	C	0.577660	0.633642	0.654369
C99	C	0.577661	0.633640	0.714982
N100	N	0.546843	0.680015	0.552076
N101	N	0.546838	0.680019	0.494497
C102	C	0.533463	0.633667	0.441447
N103	N	0.520082	0.587322	0.448158
N104	N	0.520084	0.587321	0.505745
C105	C	0.533467	0.633664	0.558348
C106	C	0.489273	0.633675	0.345427
C107	C	0.489278	0.633664	0.284804
C108	C	0.577656	0.633646	0.284785
C109	C	0.577653	0.633649	0.345403
C110	C	0.533459	0.633667	0.375722
C111	C	0.533475	0.633655	0.809812
C112	C	0.533467	0.633658	0.745302
C113	C	0.693469	0.443557	-0.000122
C114	C	0.747771	0.379040	-0.000127
C115	C	0.533475	0.443578	-0.190181
C116	C	0.533476	0.379067	-0.254690
C117	C	0.693476	0.443556	-0.190205
C118	C	0.747780	0.379038	-0.254722
C119	C	0.373468	0.823754	0.189992
C120	C	0.319164	0.888272	0.254510
C121	C	0.373475	0.823753	-0.000090
C122	C	0.319173	0.888270	-0.000085
C123	C	0.533469	0.823732	0.189968
C124	C	0.533469	0.888242	0.254478
C125	C	0.742027	0.348746	0.036999
C126	C	0.793044	0.288134	0.037008
C127	C	0.849804	0.257811	-0.000114
C128	C	0.855547	0.288111	-0.037241
C129	C	0.804531	0.348727	-0.037245
C130	C	0.564721	0.348768	-0.322113
C131	C	0.564719	0.288162	-0.382733
C132	C	0.533476	0.257853	-0.375928
C133	C	0.502227	0.288158	-0.308498
C134	C	0.502225	0.348767	-0.247880
C135	C	0.804529	0.348735	-0.247908
C136	C	0.855558	0.288122	-0.308523
C137	C	0.849836	0.257809	-0.375952
C138	C	0.793081	0.288117	-0.382766
C139	C	0.742054	0.348733	-0.322151
C140	C	0.262415	0.918582	0.247695
C141	C	0.211386	0.979214	0.308311
C142	C	0.217108	1.009531	0.375740
C143	C	0.273863	0.979218	0.382553
C144	C	0.324891	0.918592	0.321939
C145	C	0.324918	0.918570	-0.037205
C146	C	0.273900	0.979199	-0.037197
C147	C	0.217140	1.009524	-0.000074
C148	C	0.211397	0.979221	0.037051
C149	C	0.262413	0.918597	0.037047
C150	C	0.564718	0.918533	0.247650
C151	C	0.564729	0.979139	0.308258
C152	C	0.533486	1.009458	0.375693
C153	C	0.502236	0.979162	0.382519
C154	C	0.502229	0.918552	0.321912
H155	H	0.590143	0.373436	0.067247
H156	H	0.476789	0.263471	-0.302968
N157	N	0.786918	0.255406	-0.455496
H158	H	0.743225	0.283795	-0.450623
H159	H	0.806730	0.265950	-0.482266
H160	H	0.075156	0.424712	-0.104591
N161	N	0.441615	0.633694	0.621717
H162	H	0.460887	0.583211	0.571324
H163	H	0.413633	0.633735	0.650172
H164	H	0.695848	0.373397	-0.327709
N165	N	-0.213149	0.787954	0.077036
H166	H	-0.193379	0.791265	0.114391
H167	H	-0.193383	0.791229	0.042954
H168	H	0.476784	0.373429	-0.192983
H169	H	0.613645	0.633627	0.739644
H170	H	0.278514	1.003910	0.437461
H171	H	0.695814	0.373434	0.067236
H172	H	0.371097	0.893914	0.327496
H173	H	0.371130	0.893884	-0.067440
N174	N	0.810716	0.381413	-0.175189
H175	H	0.833253	0.406560	-0.169516
H176	H	0.769765	0.424379	-0.137857
N177	N	0.904827	0.192434	-0.000104
H178	H	0.892570	0.177848	0.029049
H179	H	0.929365	0.142172	-0.050394
H180	H	0.590159	0.893856	0.192747
H181	H	0.901769	0.263414	-0.067463
N182	N	0.533481	0.192480	-0.441312
H183	H	0.558020	0.177887	-0.485054
H184	H	0.551250	0.142221	-0.441282
N185	N	-0.319176	0.787940	0.077020
H186	H	-0.350629	0.776681	0.071387
H187	H	-0.323909	0.820360	0.128930
H188	H	0.590176	1.003800	0.302686
N189	N	0.598415	-0.114143	0.077033
H190	H	0.569758	-0.103597	0.114383
H191	H	0.629861	-0.174981	0.042941
H192	H	0.901766	0.263451	-0.302963
H193	H	0.476790	0.003851	-0.067449
H194	H	0.476788	0.373438	-0.067444
H195	H	0.590163	0.373439	-0.327668
N196	N	0.598405	0.255445	0.077046
H197	H	0.618195	0.283841	0.100563
H198	H	0.569712	0.265997	0.114361
N199	N	0.468532	0.255463	-0.077254
H200	H	0.473271	0.212466	-0.071622
H201	H	0.424839	0.301760	-0.057762
N202	N	0.625318	0.633639	0.621680
H203	H	0.665881	0.583147	0.606980
H204	H	0.618564	0.633676	0.578710
N205	N	0.533487	1.074836	0.441063
H206	H	0.551268	1.053743	0.470239
H207	H	0.558014	1.089402	0.426448
H208	H	0.809216	0.373384	-0.067482
H209	H	-0.190790	0.498934	-0.067481
H210	H	0.590152	0.003841	0.067233
N211	N	0.441610	0.633693	0.378133
H212	H	0.413619	0.633696	0.349741
H213	H	0.460931	0.583208	0.378042
N214	N	0.441621	0.633668	0.252125
H215	H	0.413627	0.633678	0.280532
H216	H	0.418451	0.684152	0.252215
N217	N	0.280102	1.011874	-0.077241
H218	H	0.323802	0.983454	-0.100763
H219	H	0.260293	1.001333	-0.114552
H220	H	0.613633	0.633641	0.370068
H221	H	0.257746	0.893901	0.192797
H222	H	-0.098227	0.498934	-0.067485
H223	H	0.476799	1.003857	0.437433
N224	N	0.468521	0.885886	0.329282
H225	H	0.448732	0.914296	0.381199
H226	H	0.437107	0.896446	0.305761
H227	H	0.175604	1.058888	-0.000076
H228	H	-0.100737	0.842584	0.104334
H229	H	0.590168	0.263495	-0.437631
N230	N	0.150178	1.011883	0.300950
H231	H	0.118716	1.054892	0.349577
H232	H	0.145458	1.036971	0.274133
H233	H	0.891391	0.208451	-0.425303
H234	H	0.613634	0.633637	0.260097
H235	H	0.476793	-0.106119	-0.067451
N236	N	-0.009702	0.862207	0.114144
H237	H	-0.053401	0.909231	0.137654
H238	H	0.010096	0.865447	0.151465
N239	N	0.386130	0.479369	-0.077224
H240	H	0.382022	0.432340	-0.100741
H241	H	0.408668	0.476130	-0.114538
N242	N	0.162070	1.074916	0.441117
H243	H	0.137515	1.125212	0.441140
H244	H	0.137561	1.053748	0.441103
N245	N	0.280098	0.479349	-0.077257
H246	H	0.323799	0.432329	-0.100764
H247	H	0.260289	0.476111	-0.043179
N248	N	0.150175	1.011918	0.077076
H249	H	0.118733	1.054913	0.071433
H250	H	0.145454	0.965621	0.057574
N251	N	0.256213	0.885919	0.077085
H252	H	0.212513	0.914332	0.100599
H253	H	0.276015	0.825072	0.043004
N254	N	0.182700	0.405101	-0.114381
H255	H	0.178587	0.358076	-0.137895
H256	H	0.205237	0.401860	-0.151699
N257	N	0.150168	0.787986	0.077077
H258	H	0.154274	0.835016	0.100597
H259	H	0.127645	0.791221	0.042992
H260	H	0.453294	0.633686	0.739695
N261	N	0.256222	0.787991	0.077074
H262	H	0.233689	0.820442	0.057600
H263	H	0.233695	0.820391	0.128993
N264	N	0.786842	0.255462	0.077054
H265	H	0.743142	0.283867	0.100562
H266	H	0.806652	0.194612	0.042978
