data_functionalizedCrystal
_audit_creation_method	'MofGen! by Chris Wilmer'
_symmetry_space_group_name_H-M	'P1'
_symmetry_Int_Tables_number	1
_symmetry_cell_setting	triclinic
loop_
_symmetry_equiv_pos_as_xyz
  x,y,z
_cell_length_a	9.065218
_cell_length_b	15.500227
_cell_length_c	9.065218
_cell_angle_alpha	87.127904
_cell_angle_beta	85.015885
_cell_angle_gamma	92.886578
loop_
_atom_site_label
_atom_site_type_symbol
_atom_site_fract_x
_atom_site_fract_y
_atom_site_fract_z
O1	O	1.967174	0.071943	0.209599
O2	O	1.537889	0.071943	0.227345
O3	O	1.761404	0.071941	0.003830
O4	O	1.743658	0.071945	0.433114
O5	O	1.747840	-0.071947	0.017339
O6	O	1.524325	-0.071945	0.240855
O7	O	1.953609	-0.071946	0.223108
Cu8	Cu	1.737729	-0.085084	0.233215
Cu9	Cu	1.753770	0.085081	0.217238
O10	O	1.730094	-0.071944	0.446624
C11	C	1.476120	-0.000001	0.232394
C12	C	1.312277	-0.000000	0.227294
N13	N	1.726457	-0.204769	0.244451
C14	C	1.821202	-0.250046	0.149776
C15	C	1.812691	-0.340619	0.158287
C16	C	1.709441	-0.385912	0.261483
C17	C	1.614686	-0.340628	0.356162
C18	C	1.623191	-0.250057	0.347642
C19	C	1.678803	-0.659379	0.292150
C20	C	1.670308	-0.749956	0.300666
C21	C	1.868312	-0.749941	0.102788
C22	C	1.876814	-0.659368	0.094283
C23	C	1.782054	-0.614092	0.188958
C24	C	1.700742	-0.478492	0.270189
C25	C	1.790746	-0.521513	0.180244
C26	C	2.015378	0.000000	0.218059
C27	C	2.179222	0.000005	0.223158
C28	C	1.752917	-0.000002	-0.044402
C29	C	1.747818	0.000003	-0.208246
N30	N	1.765053	0.204766	0.205990
C31	C	1.738582	0.000001	0.494855
C32	C	1.743682	0.000003	0.658698
H33	H	1.905285	-0.213174	0.065749
H34	H	1.616676	-0.515378	0.354215
C35	C	1.904317	-0.471698	0.066733
H36	H	1.959528	-0.511632	0.011557
H37	H	1.969751	-0.436351	0.117353
H38	H	1.853727	-0.436380	0.001240
H39	H	1.586225	-0.786830	0.384706
C40	C	1.501116	-0.390449	0.469677
H41	H	1.509629	-0.450875	0.461205
H42	H	1.403820	-0.375622	0.450888
H43	H	1.519858	-0.375593	0.566987
C44	C	1.990380	-0.609551	-0.019240
H45	H	2.045580	-0.649489	-0.074417
H46	H	2.055825	-0.574205	0.031369
H47	H	1.939788	-0.574234	-0.084731
H48	H	1.945460	-0.786813	0.025707
H49	H	1.601647	-0.622522	0.369241
C50	C	1.518977	-0.200252	0.451791
H51	H	1.456276	-0.240197	0.514481
H52	H	1.460168	-0.164932	0.394533
H53	H	1.576200	-0.164910	0.510637
H54	H	1.889839	-0.377483	0.081194
