data_functionalizedCrystal
_audit_creation_method	'MofGen! by Chris Wilmer'
_symmetry_space_group_name_H-M	'P1'
_symmetry_Int_Tables_number	1
_symmetry_cell_setting	triclinic
loop_
_symmetry_equiv_pos_as_xyz
  x,y,z
_cell_length_a	14.472310
_cell_length_b	12.837943
_cell_length_c	12.837942
_cell_angle_alpha	94.828940
_cell_angle_beta	90.000427
_cell_angle_gamma	89.987748
loop_
_atom_site_label
_atom_site_type_symbol
_atom_site_fract_x
_atom_site_fract_y
_atom_site_fract_z
O1	O	0.076824	-1.402349	-0.272135
O2	O	0.076829	-1.099215	-0.258691
O3	O	0.076821	-1.244060	-0.113846
O4	O	0.076832	-1.257504	-0.416980
O5	O	-0.076861	-1.244020	-0.113851
O6	O	-0.076853	-1.099175	-0.258697
O7	O	-0.076858	-1.402308	-0.272140
Cu8	Cu	-0.090888	-1.250738	-0.265419
Cu9	Cu	0.090859	-1.250786	-0.265412
O10	O	-0.076850	-1.257463	-0.416985
C11	C	-0.000011	-1.060126	-0.254153
C12	C	-0.000009	-0.943711	-0.240608
N13	N	-0.218719	-1.250712	-0.265423
C14	C	-0.000020	-1.239499	-0.074780
C15	C	-0.000018	-1.225954	0.041635
C16	C	-0.592810	-1.250784	-0.265408
C17	C	-0.553640	-1.172963	-0.342595
C18	C	-0.446552	-1.173193	-0.342927
C19	C	-0.407219	-1.250747	-0.265416
C20	C	-0.446057	-1.362331	-0.300062
C21	C	-0.553179	-1.361907	-0.300623
C22	C	-0.553343	-1.217970	-0.153417
C23	C	-0.446216	-1.215537	-0.153902
C24	C	-0.302331	-1.250733	-0.265418
C25	C	-0.697698	-1.250805	-0.265408
N26	N	0.218690	-1.250819	-0.265401
C27	C	-0.000016	-1.441398	-0.276679
C28	C	-0.000012	-1.557813	-0.290223
C29	C	-0.000016	-0.718837	-0.403437
C30	C	-0.000015	-0.609454	-0.390716
C31	C	-0.000012	-0.615562	-0.202445
C32	C	-0.000014	-0.724944	-0.215166
C33	C	-0.000014	-0.776578	-0.315666
C34	C	-0.000009	-0.885962	-0.328386
C35	C	-0.000012	-0.892067	-0.140116
C36	C	-0.000011	-0.782685	-0.127395
C37	C	-0.000008	-1.262025	-0.456052
C38	C	-0.000003	-1.275569	-0.572467
C39	C	-0.000001	-1.388784	0.266510
C40	C	0.000000	-1.376062	0.375892
C41	C	-0.000006	-1.187791	0.369785
C42	C	-0.000008	-1.200513	0.260402
C43	C	-0.000007	-1.301012	0.208769
C44	C	-0.000015	-1.313732	0.099384
C45	C	-0.000015	-1.125462	0.093279
C46	C	-0.000013	-1.112741	0.202661
H47	H	-0.579427	-1.090129	-0.320569
H48	H	-0.000027	-1.053992	0.046254
H49	H	-0.420295	-1.090599	-0.320693
H50	H	-0.580547	-1.194801	-0.424999
O51	O	-0.000015	-1.004352	0.258361
H52	H	-0.000014	-0.945456	0.199830
H53	H	-0.420577	-1.422072	-0.245790
O54	O	0.000003	-1.497174	0.210812
H55	H	-0.062631	-1.539860	0.233276
O56	O	-0.410782	-1.284653	-0.073140
H57	H	-0.364620	-1.345453	-0.111393
H58	H	0.000008	-1.447536	0.422901
O59	O	-0.000006	-1.422127	0.043697
H60	H	-0.062648	-1.432427	-0.005983
O61	O	-0.412579	-1.202442	-0.452709
H62	H	-0.472662	-1.216488	-0.505767
O63	O	-0.586900	-1.292960	-0.077151
H64	H	-0.631471	-1.353310	-0.118739
H65	H	-0.578152	-1.389175	-0.382627
H66	H	-0.580410	-1.137785	-0.122780
O67	O	-0.587508	-1.441662	-0.229746
H68	H	-0.561822	-1.421244	-0.149145
O69	O	-0.410524	-1.398950	-0.407543
H70	H	-0.365213	-1.337870	-0.436463
O71	O	-0.412611	-1.106731	-0.119400
H72	H	-0.368313	-1.077843	-0.181404
O73	O	-0.000022	-0.941661	-0.436776
H74	H	-0.000036	-0.883128	-0.495670
H75	H	0.000003	-1.105969	0.411844
O76	O	-0.000019	-0.774539	-0.511825
H77	H	-0.000024	-0.716010	-0.570723
H78	H	-0.000004	-0.939092	-0.068646
H79	H	-0.000088	-0.573502	-0.120623
O80	O	-0.000020	-0.547170	-0.485381
H81	H	0.062620	-0.566707	-0.532962
O82	O	-0.000011	-0.726994	-0.019002
H83	H	-0.000007	-0.641232	-0.024899
