data_functionalizedCrystal
_audit_creation_method	'MofGen! by Chris Wilmer'
_symmetry_space_group_name_H-M	'P1'
_symmetry_Int_Tables_number	1
_symmetry_cell_setting	triclinic
loop_
_symmetry_equiv_pos_as_xyz
  x,y,z
_cell_length_a	14.971486
_cell_length_b	14.971494
_cell_length_c	13.448316
_cell_angle_alpha	90.001938
_cell_angle_beta	90.000121
_cell_angle_gamma	83.615843
loop_
_atom_site_label
_atom_site_type_symbol
_atom_site_fract_x
_atom_site_fract_y
_atom_site_fract_z
O1	O	1.186949	0.116561	0.082574
O2	O	0.926549	0.130519	0.082600
O3	O	1.063725	-0.006659	0.082584
O4	O	1.049774	0.253740	0.082590
O5	O	1.063711	-0.006661	-0.082800
O6	O	0.926536	0.130518	-0.082784
O7	O	1.186935	0.116559	-0.082810
Cu8	Cu	1.056734	0.123539	-0.097898
Cu9	Cu	1.056750	0.123540	0.097688
O10	O	1.049760	0.253738	-0.082794
C11	C	0.893218	0.129895	-0.000088
C12	C	0.793921	0.128024	-0.000078
C13	C	1.063093	-0.039985	-0.000106
C14	C	1.061219	-0.139281	-0.000102
C15	C	0.736698	0.208613	-0.000078
C16	C	0.643398	0.206850	-0.000092
C17	C	0.607323	0.124497	-0.000101
C18	C	0.664554	0.043902	-0.000104
C19	C	0.757851	0.045666	-0.000096
C20	C	0.470091	0.040231	-0.000118
C21	C	0.376787	0.038466	-0.000124
C22	C	0.355638	0.201415	-0.000114
C23	C	0.448936	0.203179	-0.000106
C24	C	0.506160	0.122583	-0.000108
C25	C	1.060348	-0.185925	0.090050
C26	C	1.058582	-0.279224	0.090052
C27	C	1.057693	-0.325879	-0.000100
C28	C	1.058561	-0.279228	-0.090259
C29	C	1.060321	-0.185929	-0.090259
C30	C	1.054895	-0.473691	-0.090252
C31	C	1.053137	-0.566996	-0.090252
C32	C	1.053156	-0.566986	0.090059
C33	C	1.054916	-0.473688	0.090059
C34	C	1.055786	-0.427043	-0.000100
C35	C	1.220267	0.117184	-0.000120
C36	C	1.319564	0.119055	-0.000123
C37	C	1.050392	0.287064	-0.000101
C38	C	1.052266	0.386360	-0.000100
N39	N	1.056729	0.123537	-0.235462
C40	C	1.111033	0.177878	-0.287503
C41	C	1.111045	0.177874	-0.391606
C42	C	1.056746	0.123534	-0.443667
C43	C	1.002440	0.069186	-0.391619
C44	C	1.002434	0.069186	-0.287517
C45	C	1.002454	0.069192	-0.608599
C46	C	1.002459	0.069194	-0.712707
C47	C	1.111064	0.177880	-0.712687
C48	C	1.111059	0.177880	-0.608586
C49	C	1.056751	0.123534	-0.556545
N50	N	1.056762	0.123535	0.235252
H51	H	0.766062	0.275674	-0.000070
H52	H	1.057831	-0.317220	-0.163662
C53	C	1.057706	-0.330539	0.189226
N54	N	1.057076	-0.369193	0.263929
C55	C	1.052194	-0.618295	0.189236
N56	N	1.051471	-0.656946	0.263932
H57	H	1.061077	-0.147947	0.163463
H58	H	0.958232	0.024937	-0.566230
C59	C	0.533036	-0.048429	-0.000116
N60	N	0.580445	-0.115207	-0.000107
H61	H	1.055647	-0.435705	0.163468
H62	H	0.804442	-0.019958	-0.000096
H63	H	0.635174	-0.023152	-0.000125
C64	C	0.580456	0.295504	-0.000110
N65	N	0.533049	0.362283	-0.000130
C66	C	1.052152	-0.618313	-0.189423
N67	N	1.051409	-0.656964	-0.264120
C68	C	0.942709	0.009413	-0.448889
N69	N	0.897715	-0.035606	-0.492025
C70	C	1.170808	0.237658	-0.769934
N71	N	1.215803	0.282682	-0.813057
H72	H	1.155266	0.222122	-0.433973
C73	C	1.061281	-0.134622	-0.189433
N74	N	1.062002	-0.095978	-0.264134
H75	H	0.478304	0.270238	-0.000090
C76	C	0.292690	0.290071	-0.000118
N77	N	0.245274	0.356844	-0.000117
C78	C	1.055855	-0.422385	-0.189432
N79	N	1.056584	-0.383742	-0.264133
H80	H	1.155244	0.222134	-0.245122
C81	C	0.942740	0.009404	-0.769972
N82	N	0.897763	-0.035635	-0.813104
C83	C	1.170790	0.237657	-0.551321
N84	N	1.215783	0.282679	-0.508189
C85	C	0.337107	-0.052126	-0.000135
N86	N	0.307220	-0.120362	-0.000142
C87	C	0.942694	0.009409	-0.230273
N88	N	0.897697	-0.035619	-0.187158
