data_functionalizedCrystal
_audit_creation_method	'MofGen! by Chris Wilmer'
_symmetry_space_group_name_H-M	'P1'
_symmetry_Int_Tables_number	1
_symmetry_cell_setting	triclinic
loop_
_symmetry_equiv_pos_as_xyz
  x,y,z
_cell_length_a	19.188930
_cell_length_b	10.654550
_cell_length_c	18.266242
_cell_angle_alpha	90.003246
_cell_angle_beta	90.019668
_cell_angle_gamma	83.814842
loop_
_atom_site_label
_atom_site_type_symbol
_atom_site_fract_x
_atom_site_fract_y
_atom_site_fract_z
O1	O	-0.927172	-0.156779	-0.061115
O2	O	-0.723998	-0.177884	-0.061064
O3	O	-0.830256	0.015506	-0.061088
O4	O	-0.820914	-0.350170	-0.061091
O5	O	-0.830244	0.015511	0.060674
O6	O	-0.723986	-0.177880	0.060698
O7	O	-0.927160	-0.156775	0.060647
Zn8	Zn	-0.825571	-0.167327	0.080005
Zn9	Zn	-0.825587	-0.167332	-0.080422
O10	O	-0.820902	-0.350166	0.060671
C11	C	-0.697977	-0.177199	-0.000177
C12	C	-0.620459	-0.175147	-0.000158
C13	C	-0.829564	0.062292	-0.000208
C14	C	-0.827512	0.201692	-0.000210
C15	C	-0.953181	-0.157460	-0.000242
C16	C	-1.030699	-0.159512	-0.000266
C17	C	-0.576277	-0.288622	-0.000170
C18	C	-0.503441	-0.286695	-0.000178
C19	C	-0.474789	-0.171286	-0.000188
C20	C	-0.518981	-0.057795	-0.000172
C21	C	-0.591816	-0.059726	-0.000156
N22	N	-0.366236	-0.083071	-0.041658
N23	N	-0.297046	-0.081245	-0.041674
C24	C	-0.255343	-0.165461	-0.000233
N25	N	-0.285443	-0.251593	0.041216
N26	N	-0.354639	-0.253423	0.041228
C27	C	-0.395813	-0.169179	-0.000205
C28	C	-0.132183	-0.276855	-0.000253
C29	C	-0.059345	-0.274922	-0.000257
C30	C	-0.074887	-0.046020	-0.000258
C31	C	-0.147723	-0.047955	-0.000247
C32	C	-0.176366	-0.163376	-0.000248
C33	C	-0.821594	-0.396951	-0.000211
C34	C	-0.823646	-0.536351	-0.000214
N35	N	-0.825565	-0.167322	0.189492
C36	C	-0.890075	0.282501	-0.000223
C37	C	-0.888142	0.413481	-0.000228
C38	C	-0.761078	0.382829	-0.000203
C39	C	-0.763012	0.251852	-0.000203
C40	C	-0.954575	0.232341	-0.000230
C41	C	-1.017143	0.313152	-0.000242
C42	C	-1.015211	0.444132	-0.000247
C43	C	-0.950710	0.494301	-0.000239
C44	C	-0.872647	-0.081719	0.771758
C45	C	-0.872649	-0.081722	0.695114
C46	C	-0.825585	-0.167323	0.656804
C47	C	-0.778529	-0.252949	0.695146
C48	C	-0.778534	-0.252952	0.771790
N49	N	-0.763880	-0.183597	0.536493
N50	N	-0.763877	-0.183586	0.463685
C51	C	-0.825569	-0.167320	0.425882
N52	N	-0.887265	-0.151040	0.463638
N53	N	-0.887266	-0.151044	0.536452
C54	C	-0.825575	-0.167329	0.573697
C55	C	-0.872626	-0.081708	0.304442
C56	C	-0.872628	-0.081719	0.227796
C57	C	-0.778503	-0.252940	0.227830
C58	C	-0.778507	-0.252935	0.304475
C59	C	-0.825568	-0.167312	0.342776
N60	N	-0.825595	-0.167329	0.810091
H61	H	-0.467461	-0.379103	-0.000186
H62	H	-0.956156	0.125693	-0.000224
O63	O	-0.607174	-0.413105	-0.000165
H64	H	-0.639964	-0.419449	0.049469
O65	O	-0.691512	0.436932	-0.000180
H66	H	-0.700679	0.541585	-0.000172
O67	O	-0.923393	0.010628	0.653754
H68	H	-0.956114	0.070171	0.693264
H69	H	-0.183697	0.044449	-0.000241
H70	H	-0.740218	-0.322668	0.803001
H71	H	-1.069658	0.272296	-0.000267
O72	O	-0.923391	0.010618	0.345762
H73	H	-0.956120	0.070134	0.306227
O74	O	-0.923377	0.010626	0.186445
H75	H	-0.956095	0.070169	0.225958
H76	H	-0.910969	-0.012003	0.802941
O77	O	-0.695535	0.164679	-0.000182
H78	H	-0.650359	0.221560	-0.000164
O79	O	-0.727754	-0.345257	0.653834
H80	H	-0.735645	-0.330856	0.594098
H81	H	-0.051560	0.047949	-0.000312
H82	H	-1.066157	0.509926	-0.000264
H83	H	-0.740186	-0.322643	0.196639
H84	H	-0.155505	-0.370837	-0.000244
H85	H	-0.740190	-0.322642	0.335687
O86	O	-0.948623	0.635573	-0.000240
H87	H	-0.975549	0.676723	-0.049872
O88	O	-0.488085	0.066686	-0.000183
H89	H	-0.430015	0.048966	-0.000203
O90	O	-0.639476	0.062669	-0.000147
H91	H	-0.607320	0.143248	-0.000157
O92	O	-0.011686	-0.397319	-0.000264
H93	H	-0.021957	-0.452563	-0.049895
