data_functionalizedCrystal
_audit_creation_method	'MofGen! by Chris Wilmer'
_symmetry_space_group_name_H-M	'P1'
_symmetry_Int_Tables_number	1
_symmetry_cell_setting	triclinic
loop_
_symmetry_equiv_pos_as_xyz
  x,y,z
_cell_length_a	13.032831
_cell_length_b	12.645330
_cell_length_c	13.032268
_cell_angle_alpha	82.848794
_cell_angle_beta	89.113023
_cell_angle_gamma	82.817450
loop_
_atom_site_label
_atom_site_type_symbol
_atom_site_fract_x
_atom_site_fract_y
_atom_site_fract_z
Zn1	Zn	1.498543	-0.715938	0.780857
Zn2	Zn	1.520300	-0.873886	0.608882
Zn3	Zn	1.348398	-0.671652	0.587097
Zn4	Zn	1.326547	-0.868154	0.759007
O5	O	1.423447	-0.782407	0.683961
O6	O	1.645352	-0.757822	0.776306
O7	O	1.515746	-0.830924	0.462075
O8	O	1.368354	-0.529188	0.612827
O9	O	1.661336	-0.873866	0.649956
O10	O	1.478665	-0.561724	0.755181
O11	O	1.389450	-0.682344	0.446069
O12	O	1.201577	-0.676786	0.591639
O13	O	1.331113	-0.864097	0.905823
O14	O	1.185523	-0.821155	0.717941
O15	O	1.457478	-0.752265	0.921876
O16	O	1.494559	-1.021464	0.628769
O17	O	1.352210	-1.017253	0.739065
C18	C	1.156232	-0.743544	0.650056
C19	C	1.041914	-0.726946	0.635576
C20	C	0.983043	-0.791070	0.691518
C21	C	0.864889	-0.773917	0.676553
C22	C	1.423399	-1.057828	0.683936
C23	C	1.423468	-1.175671	0.683972
C24	C	1.513102	-1.223179	0.614665
C25	C	1.512955	-1.345681	0.614358
C26	C	1.318784	-1.324651	0.641109
C27	C	1.319269	-1.202045	0.640556
C28	C	1.437647	-1.237046	0.796295
C29	C	1.440160	-1.359944	0.796054
C30	C	1.691705	-0.821424	0.717998
C31	C	1.806020	-0.838050	0.732503
C32	C	1.389431	-0.812481	0.952209
C33	C	1.374936	-0.825297	1.066520
C34	C	1.423520	-0.505918	0.684011
C35	C	1.423552	-0.388095	0.684033
C36	C	1.457389	-0.752382	0.416764
C37	C	1.472084	-0.739297	0.302478
C38	C	1.430996	-0.775678	1.125426
C39	C	1.416016	-0.788923	1.243573
H40	H	0.843086	-0.905648	0.791487
N41	N	1.536800	-1.413983	0.836351
N42	N	1.619186	-1.396389	0.790761
H43	H	1.687439	-1.434561	0.819218
H44	H	1.250802	-1.351241	0.689456
N45	N	1.029519	-0.875874	0.765514
N46	N	1.005581	-0.877921	0.858927
H47	H	1.038400	-0.937816	0.911190
H48	H	1.531168	-0.687001	1.265448
H49	H	1.305681	-1.161151	0.558050
H50	H	1.378580	-1.389757	0.851565
H51	H	0.827821	-0.706311	0.617580
H52	H	1.315844	-0.877575	1.103555
H53	H	1.591067	-1.389434	0.642776
N54	N	0.995400	-0.642139	0.561605
N55	N	0.899485	-0.628321	0.549558
H56	H	0.866635	-0.568422	0.497316
N57	N	1.611408	-1.203357	0.650087
N58	N	1.616560	-1.153980	0.726821
H59	H	1.685990	-1.139976	0.751843
N60	N	1.502872	-1.169985	0.511220
N61	N	1.429853	-1.097238	0.488318
H62	H	1.422623	-1.059668	0.415260
N63	N	1.505131	-0.710086	1.078994
N64	N	1.557846	-0.663431	1.134315
H65	H	1.610205	-0.617103	1.101526
H66	H	1.511994	-1.220331	0.832733
N67	N	1.502624	-1.367831	0.510312
N68	N	1.495488	-1.292755	0.437698
H69	H	1.488215	-1.308399	0.364207
N70	N	1.355542	-1.198408	0.861277
N71	N	1.286837	-1.125999	0.825160
H72	H	1.228849	-1.098702	0.871046
N73	N	1.341870	-0.854500	1.290020
N74	N	1.268795	-0.814335	1.341673
H75	H	1.216428	-0.860645	1.374479
H76	H	1.304697	-1.343102	0.559441
N77	N	1.233549	-1.161446	0.700215
N78	N	1.173554	-1.223672	0.742121
H79	H	1.113011	-1.195003	0.784251
