data_functionalizedCrystal
_audit_creation_method	'MofGen! by Chris Wilmer'
_symmetry_space_group_name_H-M	'P1'
_symmetry_Int_Tables_number	1
_symmetry_cell_setting	triclinic
loop_
_symmetry_equiv_pos_as_xyz
  x,y,z
_cell_length_a	16.959455
_cell_length_b	16.625545
_cell_length_c	16.625539
_cell_angle_alpha	89.976096
_cell_angle_beta	90.016328
_cell_angle_gamma	89.973622
loop_
_atom_site_label
_atom_site_type_symbol
_atom_site_fract_x
_atom_site_fract_y
_atom_site_fract_z
Zn1	Zn	1.208359	0.321027	0.455908
Zn2	Zn	1.458359	0.571027	0.705908
Zn3	Zn	1.708359	0.821027	0.955908
Zn4	Zn	1.958359	1.071027	1.205908
Zn5	Zn	1.208262	0.455866	0.321081
Zn6	Zn	1.458262	0.705866	0.571081
Zn7	Zn	1.708262	0.955866	0.821081
Zn8	Zn	1.958262	1.205866	1.071081
Zn9	Zn	1.076183	0.321050	0.321090
Zn10	Zn	1.326183	0.571050	0.571090
Zn11	Zn	1.576183	0.821050	0.821090
Zn12	Zn	1.826183	1.071050	1.071090
Zn13	Zn	1.076136	0.455820	0.455873
Zn14	Zn	1.326136	0.705820	0.705873
Zn15	Zn	1.576136	0.955820	0.955873
Zn16	Zn	1.826136	1.205820	1.205873
O17	O	1.142235	0.388441	0.388488
O18	O	1.392235	0.638441	0.638488
O19	O	1.642235	0.888441	0.888488
O20	O	1.892235	1.138441	1.138488
O21	O	1.318957	0.338924	0.438034
O22	O	1.568957	0.588924	0.688034
O23	O	1.818957	0.838924	0.938034
O24	O	2.068957	1.088924	1.188034
O25	O	1.190720	0.438011	0.208250
O26	O	1.440720	0.688011	0.458250
O27	O	1.690720	0.938011	0.708250
O28	O	1.940720	1.188011	0.958250
O29	O	1.093777	0.208214	0.338993
O30	O	1.343777	0.458214	0.588993
O31	O	1.593777	0.708214	0.838993
O32	O	1.843777	0.958214	1.088993
O33	O	1.318885	0.437989	0.338977
O34	O	1.568885	0.687989	0.588977
O35	O	1.818885	0.937989	0.838977
O36	O	2.068885	1.187989	1.088977
O37	O	1.190886	0.208198	0.438043
O38	O	1.440886	0.458198	0.688043
O39	O	1.690886	0.708198	0.938043
O40	O	1.940886	0.958198	1.188043
O41	O	1.093683	0.338962	0.208256
O42	O	1.343683	0.588962	0.458256
O43	O	1.593683	0.838962	0.708256
O44	O	1.843683	1.088962	0.958256
O45	O	0.965566	0.338918	0.338958
O46	O	1.215566	0.588918	0.588958
O47	O	1.465566	0.838918	0.838958
O48	O	1.715566	1.088918	1.088958
O49	O	1.093696	0.437911	0.568710
O50	O	1.343696	0.687911	0.818710
O51	O	1.593696	0.937911	1.068710
O52	O	1.843696	1.187911	1.318710
O53	O	0.965531	0.437933	0.437982
O54	O	1.215531	0.687933	0.687982
O55	O	1.465531	0.937933	0.937982
O56	O	1.715531	1.187933	1.187982
O57	O	1.190840	0.338879	0.568736
O58	O	1.440840	0.588879	0.818736
O59	O	1.690840	0.838879	1.068736
O60	O	1.940840	1.088879	1.318736
O61	O	1.190674	0.568692	0.338943
O62	O	1.440674	0.818692	0.588943
O63	O	1.690674	1.068692	0.838943
O64	O	1.940674	1.318692	1.088943
O65	O	1.093602	0.568659	0.437974
O66	O	1.343602	0.818659	0.687974
O67	O	1.593602	1.068659	0.937974
O68	O	1.843602	1.318659	1.187974
C69	C	0.936869	0.388423	0.388468
C70	C	1.186869	0.638423	0.638468
C71	C	1.436869	0.888423	0.888468
C72	C	1.686869	1.138423	1.138468
C73	C	0.849012	0.388435	0.388479
C74	C	1.099012	0.638435	0.638479
C75	C	1.349012	0.888435	0.888479
C76	C	1.599012	1.138435	1.138479
C77	C	0.807699	0.439941	0.336831
C78	C	1.057699	0.689941	0.586831
C79	C	1.307699	0.939941	0.836831
C80	C	1.557699	1.189941	1.086831
C81	C	0.807771	0.336936	0.440133
C82	C	1.057771	0.586936	0.690133
C83	C	1.307771	0.836936	0.940133
C84	C	1.557771	1.086936	1.190133
C85	C	0.725226	0.336943	0.440142
C86	C	0.975226	0.586943	0.690142
C87	C	1.225226	0.836943	0.940142
C88	C	1.475226	1.086943	1.190142
C89	C	0.683913	0.388448	0.388495
C90	C	0.933913	0.638448	0.638495
C91	C	1.183913	0.888448	0.888495
C92	C	1.433913	1.138448	1.138495
C93	C	0.725146	0.439947	0.336837
C94	C	0.975146	0.689947	0.586837
C95	C	1.225146	0.939947	0.836837
C96	C	1.475146	1.189947	1.086837
C97	C	0.683987	0.285439	0.491793
C98	C	0.933987	0.535439	0.741793
C99	C	1.183987	0.785439	0.991793
C100	C	1.433987	1.035439	1.241793
C101	C	0.601436	0.285442	0.491804
C102	C	0.851436	0.535442	0.741804
C103	C	1.101436	0.785442	0.991804
C104	C	1.351436	1.035442	1.241804
C105	C	0.560121	0.336953	0.440160
C106	C	0.810121	0.586953	0.690160
C107	C	1.060121	0.836953	0.940160
C108	C	1.310121	1.086953	1.190160
C109	C	0.601359	0.388454	0.388501
C110	C	0.851359	0.638454	0.638501
C111	C	1.101359	0.888454	0.888501
C112	C	1.351359	1.138454	1.138501
C113	C	0.560046	0.439960	0.336853
C114	C	0.810046	0.689960	0.586853
C115	C	1.060046	0.939960	0.836853
C116	C	1.310046	1.189960	1.086853
C117	C	0.601283	0.491466	0.285198
C118	C	0.851283	0.741466	0.535198
C119	C	1.101283	0.991466	0.785198
C120	C	1.351283	1.241466	1.035198
C121	C	0.683831	0.491457	0.285193
C122	C	0.933831	0.741457	0.535193
C123	C	1.183831	0.991457	0.785193
C124	C	1.433831	1.241457	1.035193
C125	C	0.477573	0.336961	0.440165
C126	C	0.727573	0.586961	0.690165
C127	C	0.977573	0.836961	0.940165
C128	C	1.227573	1.086961	1.190165
C129	C	0.477493	0.439966	0.336860
C130	C	0.727493	0.689966	0.586860
C131	C	0.977493	0.939966	0.836860
C132	C	1.227493	1.189966	1.086860
C133	C	1.142144	0.597932	0.388471
C134	C	1.392144	0.847932	0.638471
C135	C	1.642144	1.097932	0.888471
C136	C	1.892144	1.347932	1.138471
C137	C	1.142177	0.687553	0.388491
C138	C	1.392177	0.937553	0.638491
C139	C	1.642177	1.187553	0.888491
C140	C	1.892177	1.437553	1.138491
C141	C	1.142206	0.760335	0.388510
C142	C	1.392206	1.010335	0.638510
C143	C	1.642206	1.260335	0.888510
C144	C	1.892206	1.510335	1.138510
C145	C	1.142250	0.851644	0.388531
C146	C	1.392250	1.101644	0.638531
C147	C	1.642250	1.351644	0.888531
C148	C	1.892250	1.601644	1.138531
C149	C	1.142290	0.924420	0.388545
C150	C	1.392290	1.174420	0.638545
C151	C	1.642290	1.424420	0.888545
C152	C	1.892290	1.674420	1.138545
C153	C	1.142333	1.015734	0.388565
C154	C	1.392333	1.265734	0.638565
C155	C	1.642333	1.515734	0.888565
C156	C	1.892333	1.765734	1.138565
C157	C	1.348403	0.388459	0.388508
C158	C	1.598403	0.638459	0.638508
C159	C	1.848403	0.888459	0.888508
C160	C	2.098403	1.138459	1.138508
C161	C	1.436260	0.388467	0.388517
C162	C	1.686260	0.638467	0.638517
C163	C	1.936260	0.888467	0.888517
C164	C	2.186260	1.138467	1.138517
C165	C	1.142274	0.388388	0.598797
C166	C	1.392274	0.638388	0.848797
C167	C	1.642274	0.888388	1.098797
C168	C	1.892274	1.138388	1.348797
C169	C	1.142290	0.388365	0.688418
C170	C	1.392290	0.638365	0.938418
C171	C	1.642290	0.888365	1.188418
C172	C	1.892290	1.138365	1.438418
C173	C	1.142342	1.178132	0.388533
C174	C	1.392342	1.428132	0.638533
C175	C	1.642342	1.678132	0.888533
C176	C	1.892342	1.928132	1.138533
C177	C	1.142372	1.088511	0.388578
C178	C	1.392372	1.338511	0.638578
C179	C	1.642372	1.588511	0.888578
C180	C	1.892372	1.838511	1.138578
C181	C	1.142242	0.388436	0.178997
C182	C	1.392242	0.638436	0.428997
C183	C	1.642242	0.888436	0.678997
C184	C	1.892242	1.138436	0.928997
C185	C	1.142378	0.388231	0.089376
C186	C	1.392378	0.638231	0.339376
C187	C	1.642378	0.888231	0.589376
C188	C	1.892378	1.138231	0.839376
C189	C	1.142303	0.388347	0.761201
C190	C	1.392303	0.638347	1.011201
C191	C	1.642303	0.888347	1.261201
C192	C	1.892303	1.138347	1.511201
C193	C	1.142322	0.388317	0.852509
C194	C	1.392322	0.638317	1.102509
C195	C	1.642322	0.888317	1.352509
C196	C	1.892322	1.138317	1.602509
C197	C	1.142340	0.388289	0.925286
C198	C	1.392340	0.638289	1.175286
C199	C	1.642340	0.888289	1.425286
C200	C	1.892340	1.138289	1.675286
C201	C	1.142360	0.388260	1.016600
C202	C	1.392360	0.638260	1.266600
C203	C	1.642360	0.888260	1.516600
C204	C	1.892360	1.138260	1.766600
H205	H	0.443861	0.481912	0.294805
H206	H	0.693861	0.731912	0.544805
H207	H	0.943861	0.981912	0.794805
H208	H	1.193861	1.231912	1.044805
H209	H	0.567635	0.533398	0.243144
H210	H	0.817635	0.783398	0.493144
H211	H	1.067635	1.033398	0.743144
H212	H	1.317635	1.283398	0.993144
C213	C	0.432216	0.280308	0.496981
C214	C	0.682216	0.530308	0.746981
C215	C	0.932216	0.780308	0.996981
C216	C	1.182216	1.030308	1.246981
N217	N	0.398055	0.237635	0.539781
N218	N	0.648055	0.487635	0.789781
N219	N	0.898055	0.737635	1.039781
N220	N	1.148055	0.987635	1.289781
H221	H	0.717413	0.533389	0.243136
H222	H	0.967413	0.783389	0.493136
H223	H	1.217413	1.033389	0.743136
H224	H	1.467413	1.283389	0.993136
H225	H	0.841277	0.481878	0.294777
H226	H	1.091277	0.731878	0.544777
H227	H	1.341277	0.981878	0.794777
H228	H	1.591277	1.231878	1.044777
H229	H	0.841413	0.294999	0.482178
H230	H	1.091413	0.544999	0.732178
H231	H	1.341413	0.794999	0.982178
H232	H	1.591413	1.044999	1.232178
H233	H	0.567868	0.243504	0.533866
H234	H	0.817868	0.493504	0.783866
H235	H	1.067868	0.743504	1.033866
H236	H	1.317868	0.993504	1.283866
H237	H	0.717630	0.243503	0.533838
H238	H	0.967630	0.493503	0.783838
H239	H	1.217630	0.743503	1.033838
H240	H	1.467630	0.993503	1.283838
