data_functionalizedCrystal
_audit_creation_method	'MofGen! by Chris Wilmer'
_symmetry_space_group_name_H-M	'P1'
_symmetry_Int_Tables_number	1
_symmetry_cell_setting	triclinic
loop_
_symmetry_equiv_pos_as_xyz
  x,y,z
_cell_length_a	19.288840
_cell_length_b	10.489716
_cell_length_c	17.766277
_cell_angle_alpha	89.997726
_cell_angle_beta	89.983415
_cell_angle_gamma	83.827576
loop_
_atom_site_label
_atom_site_type_symbol
_atom_site_fract_x
_atom_site_fract_y
_atom_site_fract_z
O1	O	0.922422	0.158959	-0.062714
O2	O	0.720303	0.180457	-0.062687
O3	O	0.825971	-0.015997	-0.062703
O4	O	0.816754	0.355413	-0.062697
O5	O	0.825952	-0.016007	0.062485
O6	O	0.720284	0.180447	0.062502
O7	O	0.922404	0.158950	0.062475
Cu8	Cu	0.821342	0.169697	0.073919
Cu9	Cu	0.821364	0.169709	-0.074131
O10	O	0.816736	0.355403	0.062492
C11	C	0.694412	0.179765	-0.000089
C12	C	0.617294	0.177705	-0.000079
C13	C	0.581094	0.176721	-0.068321
C14	C	0.508634	0.174770	-0.068330
C15	C	0.472378	0.173779	-0.000094
C16	C	0.508586	0.174771	0.068158
C17	C	0.581044	0.176734	0.068165
C18	C	0.362525	0.095957	0.052174
C19	C	0.290069	0.093986	0.052163
C20	C	0.248894	0.167730	-0.000113
C21	C	0.280186	0.243428	-0.052393
C22	C	0.352643	0.245391	-0.052385
C23	C	0.393810	0.171651	-0.000094
C24	C	0.134125	0.164633	-0.068370
C25	C	0.061663	0.162690	-0.068377
C26	C	0.061618	0.162678	0.068113
C27	C	0.134078	0.164633	0.068118
C28	C	0.170327	0.165604	-0.000126
C29	C	0.825269	-0.063518	-0.000111
C30	C	0.823197	-0.205102	-0.000118
C31	C	0.887996	-0.304252	-0.000120
C32	C	0.853764	-0.380828	-0.061838
C33	C	0.853730	-0.380801	0.061588
C34	C	0.788992	-0.279813	-0.061887
C35	C	0.788968	-0.279781	0.061595
C36	C	0.754689	-0.356307	-0.000138
C37	C	0.948294	0.159641	-0.000124
C38	C	1.025413	0.161701	-0.000139
C39	C	0.817438	0.402924	-0.000102
C40	C	0.819509	0.544508	-0.000100
N41	N	0.821331	0.169688	0.178050
N42	N	0.821380	0.169708	-0.178261
C43	C	0.868137	0.082741	0.217429
C44	C	0.868141	0.082735	0.296231
C45	C	0.821346	0.169698	0.335650
C46	C	0.774532	0.256652	0.296261
C47	C	0.774525	0.256647	0.217461
C48	C	0.812821	0.285914	0.460491
C49	C	0.812833	0.285921	0.539290
C50	C	0.821365	0.169714	0.578696
C51	C	0.829899	0.053495	0.539295
C52	C	0.829892	0.053490	0.460494
C53	C	0.821349	0.169713	0.421096
C54	C	0.868177	0.082753	0.703522
C55	C	0.868176	0.082745	0.782325
C56	C	0.774571	0.256673	0.782354
C57	C	0.774568	0.256670	0.703552
C58	C	0.821375	0.169711	0.664141
H59	H	0.479154	0.173971	-0.123903
H60	H	0.944360	-0.280859	-0.000190
F61	F	0.172606	0.165674	0.140751
F62	F	0.889490	-0.438440	0.129788
H63	H	0.264598	0.032342	0.094729
F64	F	0.803791	0.409608	0.418559
H65	H	0.906288	0.011942	0.671432
H66	H	0.761661	-0.235882	-0.114123
F67	F	0.724706	0.349192	0.175548
F68	F	0.889527	-0.438491	-0.130049
H69	H	0.479062	0.173966	0.123716
H70	H	0.736430	0.327457	0.328360
F71	F	0.172706	0.165676	-0.141000
F72	F	0.838984	-0.070191	0.581227
F73	F	0.680962	-0.386564	-0.000170
H74	H	0.032099	0.161879	0.123673
H75	H	0.761630	-0.235645	0.113783
F76	F	0.724755	0.349217	0.661638
H77	H	0.906248	0.011931	0.185343
H78	H	0.906256	0.011930	0.328299
F79	F	0.838968	-0.070195	0.418563
F80	F	0.406339	0.017465	0.107819
F81	F	0.917991	-0.009807	0.824237
F82	F	0.724764	0.349218	0.824303
F83	F	0.023136	0.161653	-0.141014
F84	F	0.619572	0.177781	0.140801
H85	H	0.610604	0.177511	-0.123891
F86	F	0.236370	0.321923	-0.108032
F87	F	0.385943	0.325956	-0.108021
F88	F	0.803755	0.409609	0.581217
