data_functionalizedCrystal
_audit_creation_method	'MofGen! by Chris Wilmer'
_symmetry_space_group_name_H-M	'P1'
_symmetry_Int_Tables_number	1
_symmetry_cell_setting	triclinic
loop_
_symmetry_equiv_pos_as_xyz
  x,y,z
_cell_length_a	8.597340
_cell_length_b	27.732048
_cell_length_c	7.088929
_cell_angle_alpha	83.823277
_cell_angle_beta	103.954719
_cell_angle_gamma	83.998371
loop_
_atom_site_label
_atom_site_type_symbol
_atom_site_fract_x
_atom_site_fract_y
_atom_site_fract_z
O1	O	2.099727	0.066385	0.186878
O2	O	1.634850	0.074276	0.110292
O3	O	1.881730	-0.000041	0.151001
O4	O	1.852847	0.140702	0.146170
O5	O	1.914724	-0.009995	0.474416
O6	O	1.667843	0.064322	0.433708
O7	O	2.132721	0.056431	0.510294
Cu8	Cu	1.903295	0.059467	0.501531
Cu9	Cu	1.864276	0.071239	0.119055
O10	O	1.885840	0.130748	0.469585
C11	C	1.591890	0.069006	0.262206
C12	C	1.414731	0.068127	0.233021
C13	C	1.897622	-0.023026	0.312614
C14	C	1.895798	-0.076685	0.312330
C15	C	2.030185	-0.415250	0.334371
C16	C	2.023410	-0.616921	0.333228
O17	O	2.146299	-0.647948	0.353390
N18	N	1.877023	-0.636314	0.309113
C19	C	1.732317	-0.605285	0.285270
O20	O	1.607648	-0.626407	0.264712
C21	C	1.739092	-0.403615	0.286399
C22	C	1.885491	-0.384225	0.310535
C23	C	2.176572	-0.395860	0.358503
C24	C	2.178265	-0.345445	0.358799
C25	C	2.033572	-0.314421	0.334963
C26	C	1.887185	-0.333811	0.310831
C27	C	1.594387	-0.372586	0.262542
C28	C	1.596093	-0.322166	0.262821
C29	C	1.742492	-0.302777	0.286957
C30	C	1.744184	-0.252372	0.287291
N31	N	1.890572	-0.232979	0.311406
C32	C	2.035265	-0.264003	0.335242
C33	C	1.728771	-0.711166	0.284683
C34	C	1.727077	-0.761583	0.284404
C35	C	2.018170	-0.773216	0.332359
C36	C	2.019864	-0.722798	0.332651
C37	C	1.875158	-0.691773	0.308797
C38	C	2.038811	-0.158129	0.335863
C39	C	2.040492	-0.107710	0.336165
C40	C	1.749398	-0.096081	0.288201
C41	C	1.747717	-0.146497	0.287909
C42	C	1.892436	-0.177519	0.311736
O43	O	1.621359	-0.221315	0.267119
O44	O	2.159912	-0.242871	0.355753
C45	C	2.028492	-0.465664	0.334075
C46	C	1.882105	-0.485054	0.309943
C47	C	1.737411	-0.454030	0.286107
C48	C	1.880411	-0.535472	0.309664
C49	C	2.025105	-0.566496	0.333500
C50	C	2.171492	-0.547104	0.357615
C51	C	2.173186	-0.496689	0.357911
C52	C	1.591023	-0.473423	0.261992
C53	C	1.589342	-0.523838	0.261700
C54	C	1.734036	-0.554862	0.285536
C55	C	2.175680	0.061701	0.358376
C56	C	2.352838	0.062580	0.387548
C57	C	1.869948	0.153733	0.307968
C58	C	1.871771	0.207392	0.308240
N59	N	1.930750	0.051187	0.770546
N60	N	1.836833	0.079515	-0.149958
H61	H	1.332178	0.072205	0.078379
O62	O	1.572678	-0.677711	0.258980
H63	H	1.553002	-0.650402	0.126130
H64	H	2.028102	0.021833	0.868255
O65	O	1.707866	0.118394	0.720646
H66	H	1.710116	0.117701	0.565061
O67	O	2.198402	-0.086798	0.362168
H68	H	2.281327	-0.103333	0.505415
O69	O	1.462160	0.057179	0.592389
H70	H	1.588818	0.058743	0.583946
O71	O	2.194901	-0.191585	0.361597
H72	H	2.251589	-0.180631	0.241355
O73	O	2.336161	-0.324533	0.384775
H74	H	2.436474	-0.354582	0.401266
O75	O	2.332650	-0.429320	0.384241
H76	H	2.434712	-0.407359	0.401085
O77	O	2.177763	-0.701886	0.358671
H78	H	2.172049	-0.675132	0.228128
H79	H	1.607868	-0.777366	0.264783
O80	O	2.174239	-0.806681	0.358054
H81	H	2.148449	-0.844995	0.353787
H82	H	1.475172	-0.388364	0.242876
H83	H	1.478253	-0.296907	0.243393
H84	H	1.628513	-0.162286	0.268309
O85	O	1.593337	-0.062615	0.262490
H86	H	1.619122	-0.024300	0.266730
H87	H	2.292399	-0.480907	0.377564
O88	O	2.327562	-0.580570	0.383325
H89	H	2.301769	-0.618884	0.379051
H90	H	1.470120	-0.539620	0.242061
O91	O	1.434957	-0.439964	0.236318
H92	H	1.332896	-0.461925	0.219524
