data_functionalizedCrystal
_audit_creation_method	'MofGen! by Chris Wilmer'
_symmetry_space_group_name_H-M	'P1'
_symmetry_Int_Tables_number	1
_symmetry_cell_setting	triclinic
loop_
_symmetry_equiv_pos_as_xyz
  x,y,z
_cell_length_a	16.992694
_cell_length_b	14.971486
_cell_length_c	14.048226
_cell_angle_alpha	90.006640
_cell_angle_beta	89.999324
_cell_angle_gamma	92.858824
loop_
_atom_site_label
_atom_site_type_symbol
_atom_site_fract_x
_atom_site_fract_y
_atom_site_fract_z
O1	O	1.040571	-0.189676	-0.079042
O2	O	1.540571	0.310324	0.420958
O3	O	0.812284	-0.187595	-0.079070
O4	O	1.312284	0.312405	0.420930
O5	O	0.932546	-0.058866	-0.079049
O6	O	1.432546	0.441134	0.420951
O7	O	0.920309	-0.318406	-0.079064
O8	O	1.420309	0.181594	0.420936
O9	O	0.932532	-0.058856	0.079273
O10	O	1.432532	0.441144	0.579273
O11	O	0.812269	-0.187586	0.079251
O12	O	1.312269	0.312414	0.579251
O13	O	1.040557	-0.189667	0.079279
O14	O	1.540557	0.310333	0.579279
Zn15	Zn	0.926411	-0.188625	0.104402
Zn16	Zn	1.426411	0.311375	0.604402
Zn17	Zn	0.926430	-0.188637	-0.104193
Zn18	Zn	1.426430	0.311363	0.395807
O19	O	0.920294	-0.318397	0.079257
O20	O	1.420294	0.181603	0.579257
C21	C	0.783062	-0.184914	0.000087
C22	C	1.283062	0.315086	0.500087
C23	C	0.696010	-0.176927	0.000076
C24	C	1.196010	0.323073	0.500076
C25	C	0.645842	-0.253991	0.000073
C26	C	1.145842	0.246009	0.500073
C27	C	0.564048	-0.246481	0.000086
C28	C	1.064048	0.253519	0.500086
C29	C	0.532424	-0.161906	0.000097
C30	C	1.032424	0.338094	0.500097
C31	C	0.582599	-0.084836	0.000103
C32	C	1.082599	0.415164	0.500103
C33	C	0.664391	-0.092347	0.000096
C34	C	1.164391	0.407653	0.500096
C35	C	0.288797	-0.130776	0.000124
C36	C	0.788797	0.369224	0.500124
C37	C	0.206999	-0.123271	0.000128
C38	C	0.706999	0.376729	0.500128
C39	C	0.188454	-0.284917	0.000112
C40	C	0.688454	0.215083	0.500112
C41	C	0.270248	-0.292421	0.000100
C42	C	0.770248	0.207579	0.500100
C43	C	0.320416	-0.215351	0.000112
C44	C	0.820416	0.284649	0.500112
N45	N	0.448818	-0.154227	0.000107
N46	N	0.948818	0.345773	0.500107
N47	N	0.404020	-0.223030	0.000108
N48	N	0.904020	0.276970	0.500108
C49	C	0.931992	-0.025498	0.000111
C50	C	1.431992	0.474502	0.500111
C51	C	0.930352	0.073914	0.000110
C52	C	1.430352	0.573914	0.500110
C53	C	1.069779	-0.192349	0.000120
C54	C	1.569779	0.307651	0.500120
C55	C	1.156831	-0.200336	0.000124
C56	C	1.656831	0.299664	0.500124
C57	C	0.920849	-0.351765	0.000095
C58	C	1.420849	0.148235	0.500095
C59	C	0.922489	-0.451177	0.000090
C60	C	1.422489	0.048823	0.500090
N61	N	0.926403	-0.188617	0.246763
N62	N	1.426403	0.311383	0.746763
C63	C	1.001003	0.126176	0.000120
C64	C	1.501003	0.626176	0.500120
C65	C	0.999457	0.219584	0.000110
C66	C	1.499457	0.719584	0.500110
C67	C	0.927260	0.260729	0.000098
C68	C	1.427260	0.760729	0.500098
C69	C	0.856603	0.208461	0.000086
C70	C	1.356603	0.708461	0.500086
C71	C	0.858150	0.115054	0.000088
C72	C	1.358150	0.615054	0.500088
C73	C	0.853385	0.403149	0.000082
C74	C	1.353385	0.903149	0.500082
C75	C	0.851838	0.496562	0.000080
C76	C	1.351838	0.996562	0.500080
C77	C	0.994692	0.507679	0.000103
C78	C	1.494692	1.007679	0.500103
C79	C	0.996239	0.414272	0.000106
C80	C	1.496239	0.914272	0.500106
C81	C	0.925582	0.362011	0.000096
C82	C	1.425582	0.862011	0.500096
N83	N	0.926443	-0.188639	-0.246554
N84	N	1.426443	0.311361	0.253446
C85	C	0.979672	-0.131642	0.296590
C86	C	1.479672	0.368358	0.796590
C87	C	0.979678	-0.131641	0.396248
C88	C	1.479678	0.368359	0.896248
C89	C	0.926417	-0.188622	0.446076
C90	C	1.426417	0.311378	0.946076
C91	C	0.873143	-0.245600	0.396242
C92	C	1.373143	0.254400	0.896242
C93	C	0.873134	-0.245594	0.296586
C94	C	1.373134	0.254406	0.796586
C95	C	0.873165	-0.245608	0.603956
C96	C	1.373165	0.254392	1.103956
C97	C	0.873174	-0.245614	0.703618
C98	C	1.373174	0.254386	1.203618
C99	C	0.979709	-0.131655	0.703618
C100	C	1.479709	0.368345	1.203618
C101	C	0.979700	-0.131650	0.603962
C102	C	1.479700	0.368350	1.103962
C103	C	0.926426	-0.188629	0.554134
C104	C	1.426426	0.311371	1.054134
H105	H	0.523204	-0.309235	0.000082
H106	H	1.023204	0.190765	0.500082
O107	O	0.304344	-0.383648	0.000098
O108	O	0.804344	0.116352	0.500098
H109	H	0.341155	-0.390948	-0.064439
H110	H	0.841155	0.109052	0.435561
O111	O	1.037146	-0.070207	0.449994
O112	O	1.537146	0.429793	0.949994
H113	H	1.074191	-0.030599	0.398603
H114	H	1.574191	0.469401	0.898603
O115	O	1.037140	-0.070188	0.550215
O116	O	1.537140	0.429812	1.050215
H117	H	1.098280	-0.085988	0.569330
H118	H	1.598280	0.414012	1.069330
H119	H	0.800618	0.072504	0.000081
H120	H	1.300618	0.572504	0.500081
H121	H	1.059794	0.092683	0.000136
H122	H	1.559794	0.592683	0.500136
H123	H	1.023086	-0.085260	0.744193
H124	H	1.523086	0.414740	1.244193
H125	H	0.705238	-0.029592	0.000099
H126	H	1.205238	0.470408	0.500099
O127	O	0.342900	-0.047653	0.000127
O128	O	0.842900	0.452347	0.500127
H129	H	0.380603	-0.047201	0.064660
H130	H	0.880603	0.452799	0.564660
O131	O	0.778733	0.252838	0.000083
O132	O	1.278733	0.752838	0.500083
H133	H	0.774617	0.295130	-0.064440
H134	H	1.274617	0.795130	0.435560
H135	H	0.795849	0.360600	0.000071
H136	H	1.295849	0.860600	0.500071
O137	O	0.172890	-0.032045	0.000154
O138	O	0.672890	0.467955	0.500154
H139	H	0.136072	-0.024751	-0.064375
H140	H	0.636072	0.475249	0.435625
O141	O	0.815715	-0.307050	0.757368
O142	O	1.315715	0.192950	1.257368
H143	H	0.778657	-0.346655	0.705980
H144	H	1.278657	0.153345	1.205980
O145	O	1.075658	0.275955	0.000136
O146	O	1.575658	0.775955	0.500136
H147	H	1.126121	0.231652	0.000162
H148	H	1.626121	0.731652	0.500162
H149	H	1.055028	0.380775	0.000123
H150	H	1.555028	0.880775	0.500123
H151	H	0.829773	-0.291991	0.436817
H152	H	1.329773	0.208009	0.936817
O153	O	0.548497	0.006388	0.000118
O154	O	1.048497	0.506388	0.500118
H155	H	0.483193	-0.001334	0.000113
H156	H	0.983193	0.498666	0.500113
O157	O	0.773971	0.540946	0.000051
O158	O	1.273971	1.040946	0.500051
H159	H	0.725098	0.488915	0.000026
H160	H	1.225098	0.988915	0.500026
O161	O	0.815684	-0.307050	0.242835
O162	O	1.315684	0.192950	0.742835
H163	H	0.778655	-0.346680	0.294224
H164	H	1.278655	0.153320	0.794224
O165	O	1.037115	-0.070180	0.242847
O166	O	1.537115	0.429820	0.742847
H167	H	1.074150	-0.030555	0.294243
H168	H	1.574150	0.469445	0.794243
O169	O	1.070906	0.564036	0.000112
O170	O	1.570906	1.064036	0.500112
H171	H	1.073635	0.606841	-0.064424
H172	H	1.573635	1.106841	0.435576
H173	H	0.829781	-0.292003	0.563389
H174	H	1.329781	0.207997	1.063389
H175	H	0.671583	-0.322861	0.000063
H176	H	1.171583	0.177139	0.500063
H177	H	0.147599	-0.347663	0.000105
H178	H	0.647599	0.152337	0.500105
