data_functionalizedCrystal
_audit_creation_method	'MofGen! by Chris Wilmer'
_symmetry_space_group_name_H-M	'P1'
_symmetry_Int_Tables_number	1
_symmetry_cell_setting	triclinic
loop_
_symmetry_equiv_pos_as_xyz
  x,y,z
_cell_length_a	14.446369
_cell_length_b	14.809374
_cell_length_c	14.809374
_cell_angle_alpha	60.797835
_cell_angle_beta	90.000875
_cell_angle_gamma	67.424702
loop_
_atom_site_label
_atom_site_type_symbol
_atom_site_fract_x
_atom_site_fract_y
_atom_site_fract_z
Zr1	Zr	1.022484	0.955154	-0.203635
O2	O	0.909089	1.113080	-0.350799
O3	O	1.041192	0.777387	-0.145558
O4	O	1.079057	0.926533	-0.332096
O5	O	0.859616	0.993431	-0.031862
O6	O	1.231393	0.926526	-0.332090
O7	O	0.871223	0.963934	-0.164260
O8	O	1.163658	0.659731	0.001593
O9	O	0.927351	1.260225	-0.365546
O10	O	1.182252	0.857849	-0.136447
O11	O	1.059904	0.879866	-0.037644
O12	O	1.104485	1.055466	-0.257269
O13	O	0.982137	1.077484	-0.158467
Zr14	Zr	1.246929	1.002186	0.007533
Zr15	Zr	1.265442	0.955143	-0.203626
Zr16	Zr	1.003971	1.002197	0.007524
Zr17	Zr	1.051609	1.189834	-0.227155
Zr18	Zr	1.217804	0.767507	0.031053
O19	O	1.228221	1.179954	-0.050545
O20	O	1.254544	1.113064	-0.350786
O21	O	0.882767	1.179970	-0.050558
O22	O	1.360324	0.844260	0.154696
O23	O	1.386646	0.777371	-0.145545
O24	O	1.014869	0.844276	0.154683
O25	O	1.409797	0.963910	-0.164240
O26	O	1.190356	1.030808	0.135994
O27	O	1.038020	1.030815	0.135988
O28	O	1.398190	0.993406	-0.031842
O29	O	1.120470	1.260217	-0.365539
O30	O	1.148943	0.697124	0.169436
O31	O	1.342062	0.697115	0.169443
O32	O	1.356777	0.659722	0.001600
O33	O	0.912636	1.297618	-0.197703
O34	O	1.105755	1.297610	-0.197695
O35	O	1.164927	0.901874	0.061167
O36	O	1.287276	0.879856	-0.037636
O37	O	1.209509	1.077474	-0.158458
O38	O	1.087161	1.099492	-0.059656
C39	C	1.098275	0.685122	-0.068631
C40	C	1.085911	0.585494	-0.058646
C41	C	0.830803	0.978684	-0.098063
C42	C	0.727661	0.978689	-0.098066
C43	C	1.141092	0.530155	-0.103208
C44	C	1.128314	0.427184	-0.092889
C45	C	0.531918	1.103382	-0.173954
C46	C	0.639192	1.103398	-0.174312
C47	C	0.719784	0.899758	-0.136626
C48	C	0.612164	0.900535	-0.137169
C49	C	0.599720	0.931869	0.016567
C50	C	0.706028	0.934442	0.016136
C51	C	1.438610	0.978656	-0.098040
C52	C	1.541752	0.978652	-0.098036
C53	C	1.157863	0.919826	-0.362179
C54	C	1.165722	0.899855	-0.451821
C55	C	1.171138	1.272218	-0.127471
C56	C	1.183502	1.371846	-0.137456
C57	C	1.130648	0.988984	-0.551723
C58	C	1.138770	0.968345	-0.644374
C59	C	1.111550	1.037514	0.166076
C60	C	1.103691	1.057485	0.255719
C61	C	1.402178	0.685108	-0.068620
C62	C	1.492956	0.585476	-0.058631
C63	C	1.075119	0.743966	0.195496
C64	C	1.054895	0.664309	0.295124
C65	C	1.379022	0.743952	0.195508
C66	C	1.461941	0.664291	0.295139
C67	C	0.890391	1.213389	-0.391610
C68	C	0.807472	1.293050	-0.491241
C69	C	0.867235	1.272232	-0.127483
C70	C	0.776457	1.371865	-0.137471
C71	C	1.194294	1.213375	-0.391599
C72	C	1.214518	1.293031	-0.491226
C73	C	1.480765	0.527198	-0.105528
C74	C	1.566055	0.433591	-0.096163
C75	C	1.663532	0.398259	-0.039895
C76	C	1.675721	0.456547	0.007002
C77	C	1.590434	0.550157	-0.002370
C78	C	1.100219	0.638391	0.393497
C79	C	1.081213	0.563561	0.487114
C80	C	1.016890	0.514642	0.482357
C81	C	0.971561	0.540567	0.383973
C82	C	0.990561	0.615403	0.290357
C83	C	1.564755	0.615388	0.290353
C84	C	1.642677	0.540549	0.383958
C85	C	1.617782	0.514608	0.482348
C86	C	1.514958	0.563519	0.487131
C87	C	1.437038	0.638363	0.393527
C88	C	0.704659	1.341964	-0.486456
C89	C	0.626741	1.416832	-0.580064
C90	C	0.651636	1.442778	-0.678455
C91	C	0.754460	1.393860	-0.683238
C92	C	0.832377	1.319000	-0.589632
C93	C	0.788650	1.430151	-0.090585
C94	C	0.703366	1.523778	-0.099975
C95	C	0.605889	1.559112	-0.156246
C96	C	0.593699	1.500821	-0.203139
C97	C	0.678983	1.407201	-0.193754
C98	C	1.278846	1.341927	-0.486434
C99	C	1.297868	1.416762	-0.580035
C100	C	1.252555	1.442706	-0.678428
C101	C	1.188223	1.393802	-0.683218
C102	C	1.169208	1.318962	-0.589617
H103	H	1.197799	0.559003	-0.148993
C104	C	1.170971	0.692196	0.398746
H105	H	1.175810	0.740475	0.328908
H106	H	1.143122	0.736517	0.430076
H107	H	1.237640	0.632783	0.440486
C108	C	0.803334	0.775030	-0.064743
H109	H	0.797163	0.728793	-0.089475
H110	H	0.869528	0.773775	-0.066580
H111	H	0.794842	0.745566	0.006179
C112	C	1.592159	0.643912	0.182136
H113	H	1.664557	0.604071	0.192706
H114	H	1.557994	0.620770	0.148667
H115	H	1.570855	0.724500	0.138278
H116	H	1.268046	1.503648	-0.754636
C117	C	0.900822	0.486738	0.378754
H118	H	0.896016	0.438446	0.448603
H119	H	0.834149	0.546126	0.337023
H120	H	0.928680	0.442402	0.347434
C121	C	1.138313	1.422422	-0.791458
H122	H	1.097259	1.382604	-0.780919
H123	H	1.096211	1.503015	-0.835257
H124	H	1.190664	1.399309	-0.824973
H125	H	1.240213	0.400691	-0.183245
C126	C	1.487585	0.534965	0.595365
H127	H	1.548721	0.483375	0.650420
H128	H	1.455008	0.603800	0.596040
H129	H	1.442150	0.500073	0.606417
H130	H	1.071610	0.398333	-0.047093
C131	C	0.709734	1.012417	0.055232
H132	H	0.724408	1.071689	0.002187
H133	H	0.645024	1.045803	0.068919
H134	H	0.762084	0.967858	0.118704
C135	C	1.187455	0.844609	-0.621471
H136	H	1.208411	0.791367	-0.546779
H137	H	1.138308	0.833068	-0.651751
H138	H	1.245698	0.833053	-0.651741
C139	C	0.945464	1.265154	-0.594898
H140	H	0.988312	1.216845	-0.525063
H141	H	0.952451	1.220856	-0.626244
H142	H	0.965399	1.324542	-0.636630
H143	H	1.350249	1.456574	-0.576115
C144	C	1.009308	0.546526	0.003211
H145	H	1.010763	0.482435	0.002025
H146	H	1.028107	0.525085	0.074744
H147	H	0.941782	0.608022	-0.028991
C148	C	1.755771	0.486747	0.378678
H149	H	1.759428	0.512903	0.306674
H150	H	1.795268	0.508931	0.407839
H151	H	1.782382	0.405204	0.418252
H152	H	0.641514	1.164396	-0.149496
C153	C	0.739950	0.940733	-0.248963
H154	H	0.753177	1.005897	-0.272524
H155	H	0.797935	0.880505	-0.247268
H156	H	0.681159	0.961103	-0.296411
H157	H	1.681239	0.453663	0.558559
C158	C	1.098431	1.265199	-0.594903
H159	H	1.074164	1.291385	-0.666911
H160	H	1.135972	1.183660	-0.555336
H161	H	1.041475	1.287409	-0.565743
H162	H	1.353323	0.678171	0.397439
H163	H	0.684368	1.320843	-0.406350
C164	C	1.782947	0.417664	0.068902
H165	H	1.831984	0.353558	0.067772
H166	H	1.802041	0.479176	0.036715
H167	H	1.780968	0.396242	0.140427
H168	H	1.315749	1.320817	-0.406327
H169	H	0.953654	0.636493	0.210262
H170	H	0.482051	1.164516	-0.149067
H171	H	1.401404	0.555960	-0.151359
H172	H	1.556110	0.386143	-0.134354
C173	C	0.476071	1.152753	-0.287780
H174	H	0.458724	1.097681	-0.289239
H175	H	0.415017	1.221114	-0.309618
H176	H	0.520037	1.169901	-0.334707
H177	H	0.543023	1.456649	-0.576149
H178	H	0.650440	1.140043	-0.259065
H179	H	0.588181	1.503735	-0.754667
C180	C	1.131091	0.535046	0.595323
H181	H	1.172134	0.574885	0.584742
H182	H	1.078716	0.558197	0.628793
H183	H	1.173215	0.454458	0.639185
C184	C	0.895863	1.391299	-0.028683
H185	H	0.890897	1.439438	-0.002117
H186	H	0.920887	1.313797	0.028988
H187	H	0.941944	1.396724	-0.074742
H188	H	0.713310	1.571225	-0.061783
C189	C	0.486472	1.539687	-0.265025
H190	H	0.491415	1.491574	-0.291615
H191	H	0.440404	1.534267	-0.218958
H192	H	0.461451	1.617198	-0.322694
H193	H	0.536453	1.635346	-0.163879
C194	C	1.603851	0.614257	0.049220
H195	H	1.539104	0.675077	0.035579
H196	H	1.629838	0.562161	0.123809
H197	H	1.650885	0.645099	0.020078
H198	H	1.001428	0.453708	0.558593
H199	H	0.574824	0.931806	-0.221185
H200	H	0.774719	1.414995	-0.763359
H201	H	0.551869	0.984660	0.050097
C202	C	0.626115	0.775937	-0.066325
H203	H	0.697470	0.725067	-0.037348
H204	H	0.591997	0.769791	-0.010214
H205	H	0.597501	0.756078	-0.107722
C206	C	0.790099	0.812946	0.097536
H207	H	0.775071	0.788437	0.165769
H208	H	0.791982	0.760915	0.076860
H209	H	0.855123	0.814542	0.100212
C210	C	0.614182	0.807969	0.093120
H211	H	0.585048	0.784822	0.055480
H212	H	0.685623	0.757552	0.122037
H213	H	0.580768	0.805104	0.149058
C214	C	0.665555	1.343083	-0.245318
H215	H	0.595284	1.377534	-0.280162
H216	H	0.707070	1.347534	-0.295666
H217	H	0.686009	1.264622	-0.191929
H218	H	1.094612	1.080569	-0.568660
C219	C	1.054999	1.181219	-0.767182
H220	H	1.055921	1.178862	-0.701908
H221	H	1.093204	1.220563	-0.806877
H222	H	0.985820	1.220563	-0.806876
H223	H	1.201766	0.808270	-0.434885
H224	H	1.732970	0.322034	-0.032272
