data_functionalizedCrystal
_audit_creation_method	'MofGen! by Chris Wilmer'
_symmetry_space_group_name_H-M	'P1'
_symmetry_Int_Tables_number	1
_symmetry_cell_setting	triclinic
loop_
_symmetry_equiv_pos_as_xyz
  x,y,z
_cell_length_a	21.295419
_cell_length_b	21.295417
_cell_length_c	18.215399
_cell_angle_alpha	89.968895
_cell_angle_beta	89.980317
_cell_angle_gamma	90.044503
loop_
_atom_site_label
_atom_site_type_symbol
_atom_site_fract_x
_atom_site_fract_y
_atom_site_fract_z
Zn1	Zn	0.962329	-0.250367	-0.416097
Zn2	Zn	1.462329	0.249633	0.083903
Zn3	Zn	0.962242	-0.355638	-0.293024
Zn4	Zn	1.462242	0.144362	0.206976
Zn5	Zn	0.857061	-0.250414	-0.293045
Zn6	Zn	1.357061	0.249586	0.206955
Zn7	Zn	0.857023	-0.355630	-0.416049
Zn8	Zn	1.357023	0.144370	0.083951
O9	O	0.909664	-0.303012	-0.354554
O10	O	1.409664	0.196988	0.145446
O11	O	1.050407	-0.264315	-0.399782
O12	O	1.550407	0.235685	0.100218
O13	O	0.948269	-0.341703	-0.190042
O14	O	1.448269	0.158297	0.309958
O15	O	0.871077	-0.162318	-0.309396
O16	O	1.371077	0.337682	0.190604
O17	O	1.050343	-0.341658	-0.309361
O18	O	1.550343	0.158342	0.190639
O19	O	0.948417	-0.162284	-0.399802
O20	O	1.448417	0.337716	0.100198
O21	O	0.870993	-0.264396	-0.190058
O22	O	1.370993	0.235604	0.309942
O23	O	0.768967	-0.264387	-0.309350
O24	O	1.268967	0.235613	0.190650
O25	O	0.871013	-0.341643	-0.519040
O26	O	1.371013	0.158357	-0.019040
O27	O	0.768939	-0.341689	-0.399721
O28	O	1.268939	0.158311	0.100279
O29	O	0.948380	-0.264307	-0.519075
O30	O	1.448380	0.235693	-0.019075
O31	O	0.948232	-0.443726	-0.309315
O32	O	1.448232	0.056274	0.190685
O33	O	0.870928	-0.443720	-0.399701
O34	O	1.370928	0.056280	0.100299
C35	C	0.746112	-0.303042	-0.354533
C36	C	1.246112	0.196958	0.145467
C37	C	0.676144	-0.303071	-0.354542
C38	C	1.176144	0.196929	0.145458
C39	C	0.909583	-0.466564	-0.354516
C40	C	1.409583	0.033436	0.145484
C41	C	0.909607	-0.536532	-0.354525
C42	C	1.409607	-0.036532	0.145475
C43	C	0.949855	-0.569323	-0.401633
C44	C	1.449855	-0.069323	0.098367
C45	C	0.949877	-0.635066	-0.401651
C46	C	1.449877	-0.135066	0.098349
C47	C	0.909658	-0.668014	-0.354548
C48	C	1.409658	-0.168014	0.145452
C49	C	0.869402	-0.635215	-0.307437
C50	C	1.369402	-0.135215	0.192563
C51	C	0.869377	-0.569474	-0.307425
C52	C	1.369377	-0.069474	0.192575
N53	N	0.904903	-0.771278	-0.290142
N54	N	1.404903	-0.271278	0.209858
N55	N	0.904931	-0.833730	-0.290155
N56	N	1.404931	-0.333730	0.209845
C57	C	0.909731	-0.866089	-0.354581
C58	C	1.409731	-0.366089	0.145419
N59	N	0.914515	-0.833638	-0.418996
N60	N	1.414515	-0.333638	0.081004
N61	N	0.914490	-0.771181	-0.418982
N62	N	1.414490	-0.271181	0.081018
C63	C	0.909681	-0.739300	-0.354556
C64	C	1.409681	-0.239300	0.145444
C65	C	0.950005	-0.970166	-0.401713
C66	C	1.450005	-0.470166	0.098287
C67	C	0.950023	-1.035910	-0.401733
C68	C	1.450023	-0.535910	0.098267
C69	C	0.869552	-1.036058	-0.307512
C70	C	1.369552	-0.536058	0.192488
C71	C	0.869531	-0.970315	-0.307499
C72	C	1.369531	-0.470315	0.192501
C73	C	0.909761	-0.937373	-0.354599
C74	C	1.409761	-0.437373	0.145401
C75	C	0.643333	-0.262864	-0.401697
C76	C	1.143333	0.237136	0.098303
C77	C	0.577591	-0.262847	-0.401700
C78	C	1.077591	0.237153	0.098300
C79	C	0.544661	-0.303048	-0.354555
C80	C	1.044661	0.196952	0.145445
C81	C	0.577480	-0.343257	-0.307391
C82	C	1.077480	0.156743	0.192609
C83	C	0.643221	-0.343268	-0.307384
C84	C	1.143221	0.156732	0.192616
N85	N	0.441387	-0.358126	-0.348805
N86	N	0.941387	0.141874	0.151195
N87	N	0.378936	-0.358114	-0.348815
N88	N	0.878936	0.141886	0.151185
C89	C	0.346587	-0.303015	-0.354571
C90	C	0.846587	0.196985	0.145429
N91	N	0.379048	-0.247929	-0.360331
N92	N	0.879048	0.252071	0.139669
N93	N	0.441506	-0.247942	-0.360324
N94	N	0.941506	0.252058	0.139676
C95	C	0.473376	-0.303040	-0.354557
C96	C	0.973376	0.196960	0.145443
C97	C	0.242490	-0.262787	-0.401732
C98	C	0.742490	0.237213	0.098268
C99	C	0.176747	-0.262769	-0.401730
C100	C	0.676747	0.237231	0.098270
C101	C	0.176638	-0.343185	-0.307425
C102	C	0.676638	0.156815	0.192575
C103	C	0.242380	-0.343197	-0.307423
C104	C	0.742380	0.156803	0.192577
C105	C	0.275302	-0.302999	-0.354581
C106	C	0.775302	0.197001	0.145419
C107	C	1.073854	-0.302982	-0.354575
C108	C	1.573854	0.197018	0.145425
C109	C	1.143822	-0.302970	-0.354584
C110	C	1.643822	0.197030	0.145416
C111	C	0.909702	-0.302969	-0.546507
C112	C	1.409702	0.197031	-0.046507
C113	C	0.909718	-0.302950	-0.628306
C114	C	1.409718	0.197050	-0.128306
C115	C	0.909761	-0.138822	-0.354607
C116	C	1.409761	0.361178	0.145393
C117	C	0.909803	-0.068854	-0.354630
C118	C	1.409803	0.431146	0.145370
C119	C	0.950018	-0.262644	-0.816519
C120	C	1.450018	0.237356	-0.316519
C121	C	0.950026	-0.262626	-0.893378
C122	C	1.450026	0.237374	-0.393378
C123	C	0.869463	-0.343159	-0.893330
C124	C	1.369463	0.156841	-0.393330
C125	C	0.869453	-0.343174	-0.816473
C126	C	1.369453	0.156826	-0.316473
C127	C	0.909734	-0.302917	-0.778069
C128	C	1.409734	0.197083	-0.278069
C129	C	0.909752	-0.302884	-0.931785
C130	C	1.409752	0.197116	-0.431785
C131	C	0.909760	-0.302865	-1.015119
C132	C	1.409760	0.197135	-0.515119
C133	C	0.909725	-0.302936	-0.694730
C134	C	1.409725	0.197064	-0.194730
C135	C	0.909662	-0.303010	-0.163347
C136	C	1.409662	0.196990	0.336653
C137	C	0.909767	-0.302851	-0.081549
C138	C	1.409767	0.197149	0.418451
H139	H	0.982611	-0.542504	-0.439986
H140	H	1.482611	-0.042504	0.060014
H141	H	0.836601	-0.542774	-0.269064
H142	H	1.336601	-0.042774	0.230936
H143	H	0.836669	-0.375936	-0.924607
H144	H	1.336669	0.124064	-0.424607
N145	N	0.828308	-0.384314	-0.777180
N146	N	1.328308	0.115686	-0.277180
N147	N	0.828304	-0.384318	-0.708559
N148	N	1.328304	0.115682	-0.208559
H149	H	0.799245	-0.413369	-0.680807
H150	H	1.299245	0.086631	-0.180807
N151	N	0.990994	-0.668561	-0.449778
N152	N	1.490994	-0.168561	0.050222
N153	N	1.026908	-0.639142	-0.491828
N154	N	1.526908	-0.139142	0.008172
H155	H	1.055949	-0.662795	-0.525817
H156	H	1.555949	-0.162795	-0.025817
N157	N	0.676750	-0.384344	-0.259227
N158	N	1.176750	0.115656	0.240773
N159	N	0.735447	-0.384351	-0.259232
N160	N	1.235447	0.115649	0.240768
H161	H	0.759129	-0.413362	-0.225223
H162	H	1.259129	0.086638	0.274777
N163	N	0.276115	-0.221721	-0.449899
N164	N	0.776115	0.278279	0.050101
N165	N	0.246808	-0.185817	-0.491993
N166	N	0.746808	0.314183	0.008007
H167	H	0.270553	-0.156812	-0.526012
H168	H	0.770553	0.343188	-0.026012
N169	N	0.143239	-0.221683	-0.449893
N170	N	0.643239	0.278317	0.050107
N171	N	0.172645	-0.185794	-0.491986
N172	N	0.672645	0.314206	0.008014
H173	H	0.148980	-0.156773	-0.526000
H174	H	0.648980	0.343227	-0.026000
H175	H	0.982816	-0.229862	-0.785253
H176	H	1.482816	0.270138	-0.285253
N177	N	0.828319	-0.668877	-0.259331
N178	N	1.328319	-0.168877	0.240669
N179	N	0.828347	-0.727574	-0.259347
N180	N	1.328347	-0.227574	0.240653
H181	H	0.799329	-0.751349	-0.225374
H182	H	1.299329	-0.251349	0.274626
N183	N	0.143021	-0.384249	-0.259255
N184	N	0.643021	0.115751	0.240745
N185	N	0.150348	-0.379999	-0.191357
N186	N	0.650348	0.120001	0.308643
H187	H	0.126605	-0.409000	-0.157332
H188	H	0.626605	0.091000	0.342668
H189	H	0.269095	-0.375940	-0.269027
H190	H	0.769095	0.124060	0.230973
H191	H	0.982761	-0.943344	-0.440067
H192	H	1.482761	-0.443344	0.059933
N193	N	0.991176	-0.221480	-0.932642
N194	N	1.491176	0.278520	-0.432642
N195	N	1.027133	-0.185539	-0.898341
N196	N	1.527133	0.314461	-0.398341
H197	H	1.056197	-0.156476	-0.926070
H198	H	1.556197	0.343524	-0.426070
N199	N	0.828415	-0.936825	-0.259373
N200	N	1.328415	-0.436825	0.240627
N201	N	0.792505	-0.966248	-0.217321
N202	N	1.292505	-0.466248	0.282679
H203	H	0.763463	-0.942597	-0.183331
H204	H	1.263463	-0.442597	0.316669
N205	N	0.828475	-1.069714	-0.259397
N206	N	1.328475	-0.569714	0.240603
N207	N	0.850658	-1.106402	-0.212532
N208	N	1.350658	-0.606402	0.287468
H209	H	0.821645	-1.130176	-0.178552
H210	H	1.321645	-0.630176	0.321448
H211	H	0.550665	-0.375988	-0.269005
H212	H	1.050665	0.124012	0.230995
H213	H	0.982798	-1.062608	-0.440097
H214	H	1.482798	-0.562608	0.059903
H215	H	0.550871	-0.230103	-0.440098
H216	H	1.050871	0.269897	0.059902
N217	N	0.676952	-0.221803	-0.449872
N218	N	1.176952	0.278197	0.050128
N219	N	0.647643	-0.185907	-0.491974
N220	N	1.147643	0.314093	0.008026
H221	H	0.671387	-0.156907	-0.526000
H222	H	1.171387	0.343093	-0.026000
