data_functionalizedCrystal
_audit_creation_method	'MofGen! by Chris Wilmer'
_symmetry_space_group_name_H-M	'P1'
_symmetry_Int_Tables_number	1
_symmetry_cell_setting	triclinic
loop_
_symmetry_equiv_pos_as_xyz
  x,y,z
_cell_length_a	12.759394
_cell_length_b	12.827893
_cell_length_c	12.759387
_cell_angle_alpha	89.982367
_cell_angle_beta	90.031405
_cell_angle_gamma	89.985192
loop_
_atom_site_label
_atom_site_type_symbol
_atom_site_fract_x
_atom_site_fract_y
_atom_site_fract_z
Zn1	Zn	-0.418215	-1.597657	0.594010
Zn2	Zn	-0.593931	-1.597558	0.418328
Zn3	Zn	-0.418266	-1.422903	0.418346
Zn4	Zn	-0.593852	-1.422885	0.593966
O5	O	-0.506066	-1.510251	0.506162
O6	O	-0.441535	-1.743880	0.570717
O7	O	-0.570683	-1.574355	0.271309
O8	O	-0.271238	-1.446134	0.441674
O9	O	-0.570633	-1.743807	0.441644
O10	O	-0.271200	-1.574524	0.570734
O11	O	-0.441623	-1.446037	0.271322
O12	O	-0.441547	-1.276665	0.441631
O13	O	-0.570499	-1.446103	0.740993
O14	O	-0.570549	-1.276651	0.570658
O15	O	-0.441459	-1.574507	0.741025
O16	O	-0.740941	-1.574338	0.441601
O17	O	-0.740884	-1.446007	0.570641
C18	C	-0.506046	-1.238741	0.506142
C19	C	-0.506062	-1.122588	0.506159
C20	C	-0.779033	-1.510188	0.506137
C21	C	-0.895810	-1.510257	0.506161
C22	C	-0.505964	-1.510314	0.780196
C23	C	-0.505921	-1.510341	0.896973
C24	C	-0.895817	-1.643988	0.371892
C25	C	-0.950681	-1.710881	0.304770
C26	C	-1.060403	-1.710942	0.304799
C27	C	-1.115263	-1.644106	0.371959
C28	C	-1.060398	-1.577213	0.439081
C29	C	-0.950674	-1.577156	0.439043
C30	C	-1.060392	-1.443488	0.573354
C31	C	-0.950670	-1.443420	0.573321
C32	C	-1.115251	-1.376651	0.640514
C33	C	-1.060387	-1.309752	0.707632
C34	C	-0.950659	-1.309692	0.707600
C35	C	-0.895806	-1.376527	0.640444
C36	C	-0.232032	-1.510342	0.506211
C37	C	-0.115256	-1.510381	0.506232
C38	C	-0.506087	-1.782821	0.506183
C39	C	-0.506096	-1.898974	0.506192
C40	C	-0.569996	-1.070824	0.569907
C41	C	-0.570015	-0.950774	0.569925
C42	C	-0.506091	-1.510248	0.233195
C43	C	-0.505839	-1.510423	0.116419
C44	C	-0.640238	-1.644032	1.116384
C45	C	-0.707454	-1.710820	1.061506
C46	C	-0.707495	-1.710786	0.951785
C47	C	-0.640313	-1.643953	0.896938
C48	C	-0.573097	-1.577164	0.951816
C49	C	-0.573062	-1.577208	1.061541
C50	C	-0.438705	-1.443552	0.951851
C51	C	-0.438658	-1.443590	1.061573
C52	C	-0.371523	-1.376719	0.897005
C53	C	-0.304300	-1.309934	0.951883
C54	C	-0.304262	-1.309972	1.061611
C55	C	-0.371441	-1.376802	1.116451
H56	H	-0.806476	-1.643931	0.371849
H57	H	-0.451361	-0.943483	0.451608
Cl58	Cl	-0.371395	-1.376860	1.254387
Cl59	Cl	-0.219848	-1.225931	0.882929
H60	H	-0.762155	-1.765231	1.106174
H61	H	-0.624715	-1.115384	0.624474
H62	H	-0.371565	-1.376692	0.807663
Cl63	Cl	-0.881710	-1.794905	0.220349
H64	H	-0.451336	-1.078028	0.451599
Cl65	Cl	-0.792002	-1.794743	0.882792
H66	H	-1.204593	-1.376711	0.640537
H67	H	-1.105073	-1.765417	0.250147
Cl68	Cl	-1.253198	-1.643743	0.371547
Cl69	Cl	-0.219758	-1.226002	1.130591
Cl70	Cl	-0.654534	-0.882051	0.654188
H71	H	-0.640361	-1.643922	0.807597
Cl72	Cl	-1.129358	-1.225745	0.792059
Cl73	Cl	-0.757870	-1.376762	0.640703
H74	H	-0.905994	-1.255224	0.762263
H75	H	-0.640202	-1.644076	1.205726
