data_functionalizedCrystal
_audit_creation_method	'MofGen! by Chris Wilmer'
_symmetry_space_group_name_H-M	'P1'
_symmetry_Int_Tables_number	1
_symmetry_cell_setting	triclinic
loop_
_symmetry_equiv_pos_as_xyz
  x,y,z
_cell_length_a	18.215407
_cell_length_b	16.959453
_cell_length_c	18.215399
_cell_angle_alpha	90.028024
_cell_angle_beta	90.017813
_cell_angle_gamma	90.014501
loop_
_atom_site_label
_atom_site_type_symbol
_atom_site_fract_x
_atom_site_fract_y
_atom_site_fract_z
Zn1	Zn	1.125097	-0.314805	0.416076
Zn2	Zn	1.125016	-0.446991	0.293009
Zn3	Zn	1.002030	-0.314818	0.293027
Zn4	Zn	1.002006	-0.446933	0.416039
O5	O	1.063537	-0.380887	0.354538
O6	O	1.228070	-0.332359	0.399759
O7	O	1.108677	-0.429487	0.190027
O8	O	1.018398	-0.204205	0.309373
O9	O	1.228011	-0.429475	0.309342
O10	O	1.108816	-0.204196	0.399776
O11	O	1.018320	-0.332380	0.190041
O12	O	0.899042	-0.332324	0.309337
O13	O	1.018358	-0.429377	0.519028
O14	O	0.899025	-0.429389	0.399713
O15	O	1.108793	-0.332303	0.519055
O16	O	1.108655	-0.557594	0.309306
O17	O	1.018280	-0.557552	0.399695
C18	C	0.872331	-0.380852	0.354523
C19	C	0.790532	-0.380856	0.354535
C20	C	0.525500	-0.330416	0.401693
C21	C	0.602358	-0.330403	0.401690
C22	C	0.602316	-0.431383	0.307399
C23	C	0.525458	-0.431399	0.307406
C24	C	0.487052	-0.380911	0.354551
C25	C	0.640768	-0.380882	0.354542
C26	C	0.724102	-0.380869	0.354540
C27	C	0.403713	-0.380926	0.354555
C28	C	1.063476	-0.586253	0.354511
C29	C	1.063517	-0.674110	0.354524
C30	C	1.110678	-1.045522	0.401699
C31	C	1.016602	-1.045648	0.307485
C32	C	1.016575	-0.963102	0.307468
C33	C	1.063599	-0.921763	0.354569
C34	C	1.110650	-0.962968	0.401686
C35	C	0.969519	-0.921890	0.260358
C36	C	0.969489	-0.839339	0.260339
C37	C	1.016518	-0.797998	0.307436
C38	C	1.063571	-0.839209	0.354555
C39	C	1.110595	-0.797869	0.401655
C40	C	1.157653	-0.839079	0.448770
C41	C	1.157678	-0.921627	0.448783
C42	C	1.016493	-0.715450	0.307424
C43	C	1.110568	-0.715316	0.401641
C44	C	1.255490	-0.380922	0.354553
C45	C	1.337289	-0.380937	0.354559
C46	C	1.063582	-0.380832	0.546491
C47	C	1.063601	-0.380809	0.628290
C48	C	1.063619	-0.174719	0.354581
C49	C	1.063654	-0.086862	0.354599
C50	C	1.063535	-0.380884	0.163332
C51	C	1.063658	-0.380685	0.081533
C52	C	1.110707	-0.330215	0.816499
C53	C	1.110716	-0.330192	0.893358
C54	C	1.016547	-0.431280	0.893318
C55	C	1.016535	-0.431299	0.816461
C56	C	1.063619	-0.380768	0.778053
C57	C	1.063640	-0.380726	0.931769
C58	C	1.063649	-0.380701	1.015103
C59	C	1.063609	-0.380791	0.694714
H60	H	0.494232	-0.289305	0.440082
H61	H	0.978175	-0.681900	0.269067
H62	H	1.149058	-0.289027	0.924657
H63	H	0.978214	-0.472423	0.924599
H64	H	0.978185	-0.472464	0.785157
H65	H	0.494154	-0.472523	0.269017
H66	H	1.149044	-0.289067	0.785230
H67	H	0.633595	-0.472487	0.269013
H68	H	0.633659	-0.289285	0.440078
H69	H	1.148864	-0.681662	0.439993
H70	H	1.195990	-0.955187	0.487142
H71	H	1.195938	-0.805410	0.487123
H72	H	1.148993	-1.079078	0.440057
H73	H	0.931233	-0.955555	0.222013
H74	H	0.978314	-1.079312	0.269142
H75	H	0.931173	-0.805792	0.221975
