data_functionalizedCrystal
_audit_creation_method	'MofGen! by Chris Wilmer'
_symmetry_space_group_name_H-M	'P1'
_symmetry_Int_Tables_number	1
_symmetry_cell_setting	triclinic
loop_
_symmetry_equiv_pos_as_xyz
  x,y,z
_cell_length_a	13.185407
_cell_length_b	16.109301
_cell_length_c	14.586319
_cell_angle_alpha	90.000787
_cell_angle_beta	89.996541
_cell_angle_gamma	112.282518
loop_
_atom_site_label
_atom_site_type_symbol
_atom_site_fract_x
_atom_site_fract_y
_atom_site_fract_z
O1	O	0.140183	-1.071794	-0.076182
O2	O	0.157628	-0.825832	-0.076196
O3	O	-0.009858	-0.990953	-0.076183
O4	O	0.307669	-0.906672	-0.076195
O5	O	-0.009861	-0.990945	0.076298
O6	O	0.157626	-0.825824	0.076285
O7	O	0.140180	-1.071785	0.076299
Cu8	Cu	0.148903	-0.948804	0.090215
Cu9	Cu	0.148906	-0.948814	-0.090112
O10	O	0.307667	-0.906664	0.076286
C11	C	0.156920	-0.795011	0.000042
C12	C	0.154802	-0.703189	0.000037
C13	C	-0.050491	-0.999493	0.000057
C14	C	-0.171560	-1.024943	0.000055
C15	C	0.140888	-1.102606	0.000058
C16	C	0.143007	-1.194428	0.000058
C17	C	-0.460729	-0.782062	0.000032
C18	C	-0.346978	-0.758149	0.000025
C19	C	-0.303118	-0.824845	0.000032
C20	C	-0.373020	-0.915459	0.000047
C21	C	-0.486783	-0.939375	0.000047
C22	C	-0.329171	-0.982158	0.000048
C23	C	-0.399074	-1.072772	0.000062
C24	C	-0.512825	-1.096684	0.000063
C25	C	-0.556685	-1.029988	0.000055
C26	C	-0.215409	-0.958242	0.000047
C27	C	-0.241463	-1.115555	0.000063
C28	C	-0.355214	-1.139469	0.000070
C29	C	0.348300	-0.898124	0.000044
C30	C	0.469369	-0.872675	0.000040
N31	N	0.148900	-0.948803	0.217046
C32	C	0.249259	-0.459801	0.000044
C33	C	0.247259	-0.373528	0.000050
C34	C	0.048542	-0.437824	0.000053
C35	C	0.050543	-0.524096	0.000054
C36	C	0.150904	-0.535081	0.000045
C37	C	0.146904	-0.362536	0.000050
C38	C	0.144736	-0.268995	0.000057
C39	C	0.153073	-0.628628	0.000040
N40	N	0.148900	-0.948823	-0.216943
C41	C	0.074762	-1.021932	0.452058
C42	C	0.074759	-1.021935	0.548040
C43	C	0.223041	-0.875687	0.548038
C44	C	0.223038	-0.875682	0.452058
C45	C	0.148900	-0.948809	0.404071
C46	C	0.148900	-0.948817	0.596032
C47	C	0.148898	-0.948820	0.700099
C48	C	0.148900	-0.948806	0.299997
H49	H	-0.158505	-0.884463	0.000036
H50	H	-0.496451	-0.727768	0.000018
H51	H	-0.029554	-0.585395	0.000057
H52	H	-0.649309	-1.049454	0.000072
O53	O	-0.588225	-1.194416	0.000081
H54	H	-0.538620	-1.236777	0.000097
O55	O	0.353346	-0.292336	0.000047
H56	H	0.357192	-0.251500	0.062203
H57	H	-0.412144	-1.213248	0.000082
H58	H	-0.033168	-0.428869	0.000067
O59	O	-0.194175	-1.187503	0.000075
H60	H	-0.103330	-1.155650	0.000084
H61	H	0.014392	-1.081475	0.412990
O62	O	-0.005189	-1.100810	0.599801
H63	H	-0.056730	-1.151659	0.550305
O64	O	0.357499	-0.471656	0.000053
H65	H	0.425554	-0.404812	0.000066
H66	H	0.283405	-0.816150	0.587118
O67	O	-0.180429	-0.799053	0.000044
H68	H	-0.144798	-0.758792	-0.062103
O69	O	-0.271583	-0.660423	0.000026
H70	H	-0.321189	-0.618062	0.000034
O71	O	0.303008	-0.796812	0.400289
H72	H	0.354573	-0.745970	0.449781
