data_functionalizedCrystal
_audit_creation_method	'MofGen! by Chris Wilmer'
_symmetry_space_group_name_H-M	'P1'
_symmetry_Int_Tables_number	1
_symmetry_cell_setting	triclinic
loop_
_symmetry_equiv_pos_as_xyz
  x,y,z
_cell_length_a	19.805407
_cell_length_b	21.295417
_cell_length_c	19.805407
_cell_angle_alpha	90.016337
_cell_angle_beta	90.002724
_cell_angle_gamma	90.029702
loop_
_atom_site_label
_atom_site_type_symbol
_atom_site_fract_x
_atom_site_fract_y
_atom_site_fract_z
Zn1	Zn	1.034608	-0.250707	0.382709
Zn2	Zn	1.367941	0.082626	0.716042
Zn3	Zn	1.701274	0.415959	1.049376
Zn4	Zn	1.034549	-0.355951	0.269516
Zn5	Zn	1.367883	-0.022618	0.602850
Zn6	Zn	1.701216	0.310715	0.936183
Zn7	Zn	0.921456	-0.250700	0.269534
Zn8	Zn	1.254789	0.082633	0.602867
Zn9	Zn	1.588122	0.415967	0.936200
Zn10	Zn	0.921379	-0.355943	0.382663
Zn11	Zn	1.254713	-0.022609	0.715996
Zn12	Zn	1.588046	0.310724	1.049330
O13	O	0.977998	-0.303325	0.326106
O14	O	1.311331	0.030008	0.659439
O15	O	1.644665	0.363341	0.992772
O16	O	1.129316	-0.264675	0.367706
O17	O	1.462650	0.068658	0.701039
O18	O	1.795983	0.401992	1.034372
O19	O	1.019555	-0.341990	0.174802
O20	O	1.352888	-0.008657	0.508135
O21	O	1.686221	0.324676	0.841469
O22	O	0.936522	-0.162612	0.284573
O23	O	1.269855	0.170722	0.617906
O24	O	1.603188	0.504055	0.951240
O25	O	1.129274	-0.341997	0.284544
O26	O	1.462607	-0.008664	0.617877
O27	O	1.795940	0.324669	0.951210
O28	O	1.019654	-0.162617	0.367722
O29	O	1.352987	0.170716	0.701056
O30	O	1.686321	0.504050	1.034389
O31	O	0.936465	-0.264662	0.174815
O32	O	1.269798	0.068671	0.508148
O33	O	1.603132	0.402004	0.841481
O34	O	0.826729	-0.264654	0.284529
O35	O	1.160062	0.068679	0.617862
O36	O	1.493396	0.402013	0.951195
O37	O	0.936392	-0.341982	0.477386
O38	O	1.269725	-0.008649	0.810719
O39	O	1.603058	0.324684	1.144052
O40	O	0.826673	-0.341975	0.367644
O41	O	1.160006	-0.008642	0.700978
O42	O	1.493339	0.324691	1.034311
O43	O	1.019580	-0.264667	0.477419
O44	O	1.352913	0.068667	0.810753
O45	O	1.686247	0.402000	1.144086
O46	O	1.019481	-0.444040	0.284499
O47	O	1.352814	-0.110706	0.617833
O48	O	1.686147	0.222627	0.951166
O49	O	0.936335	-0.444033	0.367628
O50	O	1.269668	-0.110700	0.700961
O51	O	1.603002	0.222633	1.034294
C52	C	0.802142	-0.303313	0.326084
C53	C	1.135475	0.030020	0.659417
C54	C	1.468809	0.363353	0.992750
C55	C	0.726910	-0.303323	0.326090
C56	C	1.060243	0.030010	0.659424
C57	C	1.393577	0.363343	0.992757
C58	C	0.977912	-0.466877	0.326071
C59	C	1.311245	-0.133544	0.659405
C60	C	1.644578	0.199790	0.992738
C61	C	0.977937	-0.536845	0.326079
C62	C	1.311270	-0.203512	0.659413
C63	C	1.644603	0.129822	0.992746
C64	C	0.691554	-0.343645	0.369299
C65	C	1.024888	-0.010312	0.702632
C66	C	1.358221	0.323021	1.035965
C67	C	0.620866	-0.343646	0.369308
C68	C	0.954199	-0.010313	0.702642
C69	C	1.287533	0.323020	1.035975
C70	C	0.585534	-0.303328	0.326106
C71	C	0.918868	0.030005	0.659439
C72	C	1.252201	0.363338	0.992772
C73	C	0.620895	-0.263002	0.282895
C74	C	0.954228	0.070331	0.616229
C75	C	1.287562	0.403665	0.949562
C76	C	0.691582	-0.262998	0.282890
C77	C	1.024915	0.070335	0.616223
C78	C	1.358249	0.403668	0.949556
C79	C	0.335822	-0.263016	0.282918
C80	C	0.669155	0.070317	0.616251
C81	C	1.002488	0.403651	0.949584
C82	C	0.265129	-0.263024	0.282925
C83	C	0.598463	0.070309	0.616259
C84	C	0.931796	0.403642	0.949592
C85	C	0.265105	-0.343664	0.369336
C86	C	0.598439	-0.010331	0.702670
C87	C	0.931772	0.323003	1.036003
C88	C	0.335793	-0.343660	0.369331
C89	C	0.669126	-0.010327	0.702664
C90	C	1.002459	0.323006	1.035997
C91	C	0.371147	-0.303332	0.326123
C92	C	0.704480	0.030001	0.659457
C93	C	1.037814	0.363335	0.992790
C94	C	0.447795	-0.303330	0.326114
C95	C	0.781129	0.030003	0.659448
C96	C	1.114462	0.363336	0.992781
C97	C	0.508887	-0.303333	0.326111
C98	C	0.842221	0.030001	0.659444
C99	C	1.175554	0.363334	0.992777
C100	C	1.021199	-0.569657	0.369406
C101	C	1.354532	-0.236324	0.702739
C102	C	1.687866	0.097009	1.036073
C103	C	1.021223	-0.635400	0.369423
C104	C	1.354556	-0.302067	0.702756
C105	C	1.687889	0.031267	1.036089
C106	C	0.977992	-0.668328	0.326101
C107	C	1.311325	-0.334994	0.659434
C108	C	1.644658	-0.001661	0.992767
C109	C	0.934721	-0.635507	0.282771
C110	C	1.268054	-0.302174	0.616104
C111	C	1.601388	0.031159	0.949437
C112	C	0.934693	-0.569766	0.282760
C113	C	1.268027	-0.236433	0.616093
C114	C	1.601360	0.096901	0.949427
N115	N	0.972898	-0.771576	0.266865
N116	N	1.306231	-0.438243	0.600198
N117	N	1.639564	-0.104909	0.933532
N118	N	0.972928	-0.834027	0.266877
N119	N	1.306261	-0.500694	0.600210
N120	N	1.639594	-0.167361	0.933544
C121	C	0.978071	-0.866402	0.326131
C122	C	1.311404	-0.533069	0.659464
C123	C	1.644737	-0.199736	0.992798
N124	N	0.983196	-0.833967	0.385374
N125	N	1.316529	-0.500633	0.718708
N126	N	1.649862	-0.167300	1.052041
N127	N	0.983169	-0.771509	0.385361
N128	N	1.316502	-0.438176	0.718695
N129	N	1.649836	-0.104843	1.052028
C130	C	0.978016	-0.739613	0.326108
C131	C	1.311350	-0.406280	0.659441
C132	C	1.644683	-0.072946	0.992774
C133	C	1.021361	-0.970500	0.369480
C134	C	1.354694	-0.637167	0.702813
C135	C	1.688028	-0.303833	1.036146
C136	C	1.021380	-1.036244	0.369498
C137	C	1.354713	-0.702911	0.702831
C138	C	1.688047	-0.369577	1.036164
C139	C	0.934882	-1.036350	0.282839
C140	C	1.268215	-0.703017	0.616173
C141	C	1.601549	-0.369683	0.949506
C142	C	0.934859	-0.970608	0.282828
C143	C	1.268192	-0.637274	0.616161
C144	C	1.601526	-0.303941	0.949494
C145	C	0.978102	-0.937687	0.326147
C146	C	1.311436	-0.604353	0.659480
C147	C	1.644769	-0.271020	0.992814
C148	C	1.154541	-0.303338	0.326128
C149	C	1.487874	0.029995	0.659461
C150	C	1.821207	0.363329	0.992795
C151	C	1.229773	-0.303343	0.326137
C152	C	1.563106	0.029990	0.659471
C153	C	1.896439	0.363323	0.992804
C154	C	0.977984	-0.303324	0.502648
C155	C	1.311317	0.030009	0.835982
C156	C	1.644651	0.363342	1.169315
C157	C	0.977978	-0.303324	0.577880
C158	C	1.311311	0.030009	0.911214
C159	C	1.644645	0.363343	1.244547
C160	C	0.978103	-0.139135	0.326155
C161	C	1.311436	0.194198	0.659488
C162	C	1.644770	0.527532	0.992821
C163	C	0.978148	-0.069167	0.326176
C164	C	1.311481	0.264166	0.659509
C165	C	1.644814	0.597500	0.992842
C166	C	1.021266	-0.343597	1.039662
C167	C	1.354599	-0.010264	1.372996
C168	C	1.687932	0.323070	1.706329
C169	C	1.021260	-0.343597	0.968974
C170	C	1.354593	-0.010264	1.302307
C171	C	1.687926	0.323069	1.635640
C172	C	0.977997	-0.303337	0.933642
C173	C	1.311331	0.029997	1.266975
C174	C	1.644664	0.363330	1.600309
C175	C	0.934733	-0.263077	0.969002
C176	C	1.268067	0.070256	1.302336
C177	C	1.601400	0.403589	1.635669
C178	C	0.934736	-0.263080	1.039689
C179	C	1.268070	0.070253	1.373023
C180	C	1.601403	0.403586	1.706356
C181	C	0.934720	-0.263064	0.683929
C182	C	1.268053	0.070269	1.017262
C183	C	1.601387	0.403603	1.350596
C184	C	0.934722	-0.263063	0.613237
C185	C	1.268055	0.070271	0.946570
C186	C	1.601388	0.403604	1.279904
C187	C	1.021243	-0.343581	0.613213
C188	C	1.354576	-0.010248	0.946547
C189	C	1.687910	0.323086	1.279880
C190	C	1.021246	-0.343584	0.683900
C191	C	1.354579	-0.010251	1.017234
C192	C	1.687913	0.323082	1.350567
C193	C	0.977980	-0.303328	0.719255
C194	C	1.311313	0.030006	1.052588
C195	C	1.644647	0.363339	1.385921
C196	C	0.977986	-0.303328	0.795903
C197	C	1.311319	0.030005	1.129236
C198	C	1.644653	0.363338	1.462570
C199	C	0.977994	-0.303332	0.856995
C200	C	1.311328	0.030001	1.190328
C201	C	1.644661	0.363335	1.523662
C202	C	0.978005	-0.303340	1.150250
C203	C	1.311338	0.029993	1.483583
C204	C	1.644672	0.363327	1.816916
C205	C	0.978006	-0.303339	1.075018
C206	C	1.311340	0.029994	1.408351
C207	C	1.644673	0.363327	1.741684
H208	H	0.720316	-0.376479	0.404477
H209	H	1.053650	-0.043146	0.737810
H210	H	1.386983	0.290188	1.071144
H211	H	1.056470	-0.376362	0.584419
H212	H	1.389804	-0.043029	0.917753
H213	H	1.723137	0.290305	1.251086
H214	H	1.056609	-1.062959	0.404783
H215	H	1.389943	-0.729625	0.738116
H216	H	1.723276	-0.396292	1.071449
H217	H	0.899678	-1.063159	0.247570
H218	H	1.233011	-0.729826	0.580903
H219	H	1.566345	-0.396492	0.914237
H220	H	0.899511	-0.230298	1.068475
H221	H	1.232844	0.103036	1.401808
H222	H	1.566178	0.436369	1.735142
H223	H	0.364599	-0.230183	0.247730
H224	H	0.697932	0.103150	0.581064
H225	H	1.031265	0.436484	0.914397
H226	H	0.592122	-0.230172	0.247722
H227	H	0.925456	0.103162	0.581055
H228	H	1.258789	0.436495	0.914389
H229	H	0.899634	-0.943890	0.247544
H230	H	1.232967	-0.610557	0.580877
H231	H	1.566300	-0.277223	0.914211
H232	H	1.056408	-0.542855	0.404681
H233	H	1.389742	-0.209522	0.738014
H234	H	1.723075	0.123812	1.071347
H235	H	1.056498	-0.376379	1.068424
H236	H	1.389831	-0.043046	1.401758
H237	H	1.723165	0.290288	1.735091
H238	H	0.236364	-0.230189	0.247744
H239	H	0.569698	0.103145	0.581078
H240	H	0.903031	0.436478	0.914411
H241	H	0.592082	-0.376481	0.404492
H242	H	0.925416	-0.043148	0.737825
H243	H	1.258749	0.290186	1.071159
H244	H	0.899490	-0.230276	0.584472
H245	H	1.232823	0.103058	0.917805
H246	H	1.566157	0.436391	1.251138
H247	H	0.236311	-0.376499	0.404520
H248	H	0.569645	-0.043166	0.737854
H249	H	0.902978	0.290168	1.071187
H250	H	0.364556	-0.376493	0.404508
H251	H	0.697889	-0.043160	0.737842
H252	H	1.031223	0.290173	1.071175
H253	H	1.056477	-0.376387	0.940191
H254	H	1.389811	-0.043054	1.273524
H255	H	1.723144	0.290280	1.606857
H256	H	1.056477	-0.376367	0.712664
H257	H	1.389810	-0.043033	1.045997
H258	H	1.723144	0.290300	1.379331
H259	H	0.720368	-0.230161	0.247709
H260	H	1.053701	0.103173	0.581042
H261	H	1.387034	0.436506	0.914375
H262	H	0.899489	-0.230285	0.712706
H263	H	1.232822	0.103048	1.046039
H264	H	1.566155	0.436381	1.379372
H265	H	1.056446	-0.662121	0.404713
H266	H	1.389780	-0.328788	0.738046
H267	H	1.723113	0.004546	1.071379
H268	H	0.899505	-0.230299	0.940229
H269	H	1.232839	0.103034	1.273563
H270	H	1.566172	0.436368	1.606896
H271	H	0.899520	-0.662321	0.247499
H272	H	1.232854	-0.328988	0.580832
H273	H	1.566187	0.004345	0.914166
H274	H	0.899463	-0.543050	0.247477
H275	H	1.232797	-0.209716	0.580811
H276	H	1.566130	0.123617	0.914144
H277	H	1.056570	-0.943695	0.404755
H278	H	1.389904	-0.610361	0.738088
H279	H	1.723237	-0.277028	1.071422
