data_functionalizedCrystal
_audit_creation_method	'MofGen! by Chris Wilmer'
_symmetry_space_group_name_H-M	'P1'
_symmetry_Int_Tables_number	1
_symmetry_cell_setting	triclinic
loop_
_symmetry_equiv_pos_as_xyz
  x,y,z
_cell_length_a	16.625548
_cell_length_b	21.395361
_cell_length_c	21.395355
_cell_angle_alpha	90.021511
_cell_angle_beta	90.024527
_cell_angle_gamma	90.031776
loop_
_atom_site_label
_atom_site_type_symbol
_atom_site_fract_x
_atom_site_fract_y
_atom_site_fract_z
Zn1	Zn	1.232666	-0.249493	0.354248
Zn2	Zn	1.482666	0.000507	0.604248
Zn3	Zn	1.732666	0.250507	0.854248
Zn4	Zn	1.982666	0.500507	1.104248
Zn5	Zn	1.232540	-0.354253	0.249465
Zn6	Zn	1.482540	-0.104253	0.499465
Zn7	Zn	1.732540	0.145747	0.749465
Zn8	Zn	1.982540	0.395747	0.999465
Zn9	Zn	1.097818	-0.249495	0.249485
Zn10	Zn	1.347818	0.000505	0.499485
Zn11	Zn	1.597818	0.250505	0.749485
Zn12	Zn	1.847818	0.500505	0.999485
Zn13	Zn	1.097779	-0.354239	0.354205
Zn14	Zn	1.347779	-0.104239	0.604205
Zn15	Zn	1.597779	0.145761	0.854205
Zn16	Zn	1.847779	0.395761	1.104205
O17	O	1.165201	-0.301870	0.301851
O18	O	1.415201	-0.051870	0.551851
O19	O	1.665201	0.198130	0.801851
O20	O	1.915201	0.448130	1.051851
O21	O	1.345481	-0.263395	0.340358
O22	O	1.595481	-0.013395	0.590358
O23	O	1.845481	0.236605	0.840358
O24	O	2.095481	0.486605	1.090358
O25	O	1.214633	-0.340364	0.161790
O26	O	1.464633	-0.090364	0.411790
O27	O	1.714633	0.159636	0.661790
O28	O	1.964633	0.409636	0.911790
O29	O	1.115775	-0.161817	0.263408
O30	O	1.365775	0.088183	0.513408
O31	O	1.615775	0.338183	0.763408
O32	O	1.865775	0.588183	1.013408
O33	O	1.345389	-0.340362	0.263374
O34	O	1.595389	-0.090362	0.513374
O35	O	1.845389	0.159638	0.763374
O36	O	2.095389	0.409638	1.013374
O37	O	1.214847	-0.161816	0.340377
O38	O	1.464847	0.088184	0.590377
O39	O	1.714847	0.338184	0.840377
O40	O	1.964847	0.588184	1.090377
O41	O	1.115653	-0.263398	0.161804
O42	O	1.365653	-0.013398	0.411804
O43	O	1.615653	0.236602	0.661804
O44	O	1.865653	0.486602	0.911804
O45	O	0.984981	-0.263385	0.263366
O46	O	1.234981	-0.013385	0.513366
O47	O	1.484981	0.236615	0.763366
O48	O	1.734981	0.486615	1.013366
O49	O	1.115708	-0.340337	0.441889
O50	O	1.365708	-0.090337	0.691889
O51	O	1.615708	0.159663	0.941889
O52	O	1.865708	0.409663	1.191889
O53	O	0.984951	-0.340339	0.340304
O54	O	1.234951	-0.090339	0.590304
O55	O	1.484951	0.159661	0.840304
O56	O	1.734951	0.409661	1.090304
O57	O	1.214809	-0.263381	0.441920
O58	O	1.464809	-0.013381	0.691920
O59	O	1.714809	0.236619	0.941920
O60	O	1.964809	0.486619	1.191920
O61	O	1.214595	-0.441929	0.263333
O62	O	1.464595	-0.191929	0.513333
O63	O	1.714595	0.058071	0.763333
O64	O	1.964595	0.308071	1.013333
O65	O	1.115586	-0.441919	0.340285
O66	O	1.365586	-0.191919	0.590285
O67	O	1.615586	0.058081	0.840285
O68	O	1.865586	0.308081	1.090285
C69	C	1.165094	-0.464658	0.301816
C70	C	1.415094	-0.214658	0.551816
C71	C	1.665094	0.035342	0.801816
C72	C	1.915094	0.285342	1.051816
C73	C	1.165122	-0.534299	0.301822
C74	C	1.415122	-0.284299	0.551822
C75	C	1.665122	-0.034299	0.801822
C76	C	1.915122	0.215701	1.051822
C77	C	0.955710	-0.301861	0.301833
C78	C	1.205710	-0.051861	0.551833
C79	C	1.455710	0.198139	0.801833
C80	C	1.705710	0.448139	1.051833
C81	C	0.866089	-0.301872	0.301841
C82	C	1.116089	-0.051872	0.551841
C83	C	1.366089	0.198128	0.801841
C84	C	1.616089	0.448128	1.051841
C85	C	1.216722	-0.566997	0.261794
C86	C	1.466722	-0.316997	0.511794
C87	C	1.716722	-0.066997	0.761794
C88	C	1.966722	0.183003	1.011794
C89	C	1.216760	-0.632432	0.261808
C90	C	1.466760	-0.382432	0.511808
C91	C	1.716760	-0.132432	0.761808
C92	C	1.966760	0.117568	1.011808
C93	C	1.165183	-0.665167	0.301843
C94	C	1.415183	-0.415167	0.551843
C95	C	1.665183	-0.165167	0.801843
C96	C	1.915183	0.084833	1.051843
C97	C	1.113580	-0.632462	0.341879
C98	C	1.363580	-0.382462	0.591879
C99	C	1.613580	-0.132462	0.841879
C100	C	1.863580	0.117538	1.091879
C101	C	1.113550	-0.567028	0.341868
C102	C	1.363550	-0.317028	0.591868
C103	C	1.613550	-0.067028	0.841868
C104	C	1.863550	0.182972	1.091868
C105	C	1.092583	-0.768884	0.306753
C106	C	1.342583	-0.518884	0.556753
C107	C	1.592583	-0.268884	0.806753
C108	C	1.842583	-0.018884	1.056753
C109	C	1.092612	-0.834316	0.306760
C110	C	1.342612	-0.584316	0.556760
C111	C	1.592612	-0.334316	0.806760
C112	C	1.842612	-0.084316	1.056760
C113	C	1.165277	-0.866988	0.301880
C114	C	1.415277	-0.616988	0.551880
C115	C	1.665277	-0.366988	0.801880
C116	C	1.915277	-0.116988	1.051880
C117	C	1.237915	-0.834219	0.296981
C118	C	1.487915	-0.584219	0.546981
C119	C	1.737915	-0.334219	0.796981
C120	C	1.987915	-0.084219	1.046981
C121	C	1.237885	-0.768784	0.296970
C122	C	1.487885	-0.518784	0.546970
C123	C	1.737885	-0.268784	0.796970
C124	C	1.987885	-0.018784	1.046970
C125	C	1.165211	-0.736120	0.301860
C126	C	1.415211	-0.486120	0.551860
C127	C	1.665211	-0.236120	0.801860
C128	C	1.915211	0.013880	1.051860
C129	C	1.216922	-0.970638	0.261865
C130	C	1.466922	-0.720638	0.511865
C131	C	1.716922	-0.470638	0.761865
C132	C	1.966922	-0.220638	1.011865
C133	C	1.216960	-1.036075	0.261884
C134	C	1.466960	-0.786075	0.511884
C135	C	1.716960	-0.536075	0.761884
C136	C	1.966960	-0.286075	1.011884
C137	C	1.113774	-1.036103	0.341952
C138	C	1.363774	-0.786103	0.591952
C139	C	1.613774	-0.536103	0.841952
C140	C	1.863774	-0.286103	1.091952
C141	C	1.113742	-0.970668	0.341936
C142	C	1.363742	-0.720668	0.591936
C143	C	1.613742	-0.470668	0.841936
C144	C	1.863742	-0.220668	1.091936
C145	C	1.165315	-0.937939	0.301890
C146	C	1.415315	-0.687939	0.551890
C147	C	1.665315	-0.437939	0.801890
C148	C	1.915315	-0.187939	1.051890
C149	C	0.537913	-0.301877	0.301867
C150	C	0.787913	-0.051877	0.551867
C151	C	1.037913	0.198123	0.801867
C152	C	1.287913	0.448123	1.051867
C153	C	0.629222	-0.301874	0.301858
C154	C	0.879222	-0.051874	0.551858
C155	C	1.129222	0.198126	0.801858
C156	C	1.379222	0.448126	1.051858
C157	C	0.701998	-0.301875	0.301853
C158	C	0.951998	-0.051875	0.551853
C159	C	1.201998	0.198125	0.801853
C160	C	1.451998	0.448125	1.051853
C161	C	0.793312	-0.301871	0.301845
C162	C	1.043312	-0.051871	0.551845
C163	C	1.293312	0.198129	0.801845
C164	C	1.543312	0.448129	1.051845
C165	C	1.375510	-0.301880	0.301869
C166	C	1.625510	-0.051880	0.551869
C167	C	1.875510	0.198120	0.801869
C168	C	2.125510	0.448120	1.051869
C169	C	1.465131	-0.301884	0.301876
C170	C	1.715131	-0.051884	0.551876
C171	C	1.965131	0.198116	0.801876
C172	C	2.215131	0.448116	1.051876
C173	C	1.165268	-0.301857	0.465274
C174	C	1.415268	-0.051857	0.715274
C175	C	1.665268	0.198143	0.965274
C176	C	1.915268	0.448143	1.215274
C177	C	1.165296	-0.301852	0.534915
C178	C	1.415296	-0.051852	0.784915
C179	C	1.665296	0.198148	1.034915
C180	C	1.915296	0.448148	1.284915
C181	C	1.165330	-0.138447	0.301899
C182	C	1.415330	0.111553	0.551899
C183	C	1.665330	0.361553	0.801899
C184	C	1.915330	0.611553	1.051899
C185	C	1.165384	-0.068806	0.301920
C186	C	1.415384	0.181194	0.551920
C187	C	1.665384	0.431194	0.801920
C188	C	1.915384	0.681194	1.051920
C189	C	1.165180	-0.301838	0.139063
C190	C	1.415180	-0.051838	0.389063
C191	C	1.665180	0.198162	0.639063
C192	C	1.915180	0.448162	0.889063
C193	C	1.165308	-0.301666	0.069422
C194	C	1.415308	-0.051666	0.319422
C195	C	1.665308	0.198334	0.569422
C196	C	1.915308	0.448334	0.819422
C197	C	1.216896	-0.261779	0.567646
C198	C	1.466896	-0.011779	0.817646
C199	C	1.716896	0.238221	1.067646
C200	C	1.966896	0.488221	1.317646
C201	C	1.216895	-0.261752	0.633081
C202	C	1.466895	-0.011752	0.883081
C203	C	1.716895	0.238248	1.133081
C204	C	1.966895	0.488248	1.383081
C205	C	1.165302	-0.301809	0.665784
C206	C	1.415302	-0.051809	0.915784
C207	C	1.665302	0.198191	1.165784
C208	C	1.915302	0.448191	1.415784
C209	C	1.113693	-0.341885	0.633045
C210	C	1.363693	-0.091885	0.883045
C211	C	1.613693	0.158115	1.133045
C212	C	1.863693	0.408115	1.383045
C213	C	1.113690	-0.341906	0.567611
C214	C	1.363690	-0.091906	0.817611
C215	C	1.613690	0.158094	1.067611
C216	C	1.863690	0.408094	1.317611
C217	C	1.158899	-0.358225	0.769446
C218	C	1.408899	-0.108225	1.019446
C219	C	1.658899	0.141775	1.269446
C220	C	1.908899	0.391775	1.519446
C221	C	1.158908	-0.358204	0.834879
C222	C	1.408908	-0.108204	1.084879
C223	C	1.658908	0.141796	1.334879
C224	C	1.908908	0.391796	1.584879
C225	C	1.165307	-0.301743	0.867605
C226	C	1.415307	-0.051743	1.117605
C227	C	1.665307	0.198257	1.367605
C228	C	1.915307	0.448257	1.617605
C229	C	1.171715	-0.245300	0.834889
C230	C	1.421715	0.004700	1.084889
C231	C	1.671715	0.254700	1.334889
C232	C	1.921715	0.504700	1.584889
C233	C	1.171712	-0.245322	0.769455
C234	C	1.421712	0.004678	1.019455
C235	C	1.671712	0.254678	1.269455
C236	C	1.921712	0.504678	1.519455
C237	C	1.165300	-0.301790	0.736736
C238	C	1.415300	-0.051790	0.986736
C239	C	1.665300	0.198210	1.236736
C240	C	1.915300	0.448210	1.486736
C241	C	1.216909	-0.261638	0.971288
C242	C	1.466909	-0.011638	1.221288
C243	C	1.716909	0.238362	1.471288
C244	C	1.966909	0.488362	1.721288
C245	C	1.216902	-0.261610	1.036724
C246	C	1.466902	-0.011610	1.286724
C247	C	1.716902	0.238390	1.536724
C248	C	1.966902	0.488390	1.786724
C249	C	1.113704	-0.341748	1.036687
C250	C	1.363704	-0.091748	1.286687
C251	C	1.613704	0.158252	1.536687
C252	C	1.863704	0.408252	1.786687
C253	C	1.113707	-0.341770	0.971252
C254	C	1.363707	-0.091770	1.221252
C255	C	1.613707	0.158230	1.471252
C256	C	1.863707	0.408230	1.721252
C257	C	1.165313	-0.301716	0.938556
C258	C	1.415313	-0.051716	1.188556
C259	C	1.665313	0.198284	1.438556
C260	C	1.915313	0.448284	1.688556
H261	H	1.258718	-0.540351	0.229187
H262	H	1.508718	-0.290351	0.479187
H263	H	1.758718	-0.040351	0.729187
H264	H	2.008718	0.209649	0.979187
F265	F	1.152095	-0.418275	0.869692
F266	F	1.402095	-0.168275	1.119692
F267	F	1.652095	0.081725	1.369692
F268	F	1.902095	0.331725	1.619692
H269	H	1.176928	-0.199324	0.861532
H270	H	1.426928	0.050676	1.111532
H271	H	1.676928	0.300676	1.361532
H272	H	1.926928	0.550676	1.611532
F273	F	1.271803	-0.219089	0.667923
F274	F	1.521803	0.030911	0.917923
F275	F	1.771803	0.280911	1.167923
F276	F	2.021803	0.530911	1.417923
H277	H	1.258918	-0.943990	0.229259
H278	H	1.508918	-0.693990	0.479259
H279	H	1.758918	-0.443990	0.729259
H280	H	2.008918	-0.193990	0.979259
F281	F	1.271888	-1.070874	0.219282
F282	F	1.521888	-0.820874	0.469282
F283	F	1.771888	-0.570874	0.719282
F284	F	2.021888	-0.320874	0.969282
H285	H	1.153472	-0.404191	0.742807
H286	H	1.403472	-0.154191	0.992807
H287	H	1.653472	0.095809	1.242807
H288	H	1.903472	0.345809	1.492807
H289	H	1.033406	-0.742289	0.310729
H290	H	1.283406	-0.492289	0.560729
H291	H	1.533406	-0.242289	0.810729
H292	H	1.783406	0.007711	1.060729
H293	H	1.033466	-0.860992	0.310743
H294	H	1.283466	-0.610992	0.560743
H295	H	1.533466	-0.360992	0.810743
H296	H	1.783466	-0.110992	1.060743
H297	H	1.071587	-0.659119	0.374477
H298	H	1.321587	-0.409119	0.624477
H299	H	1.571587	-0.159119	0.874477
H300	H	1.821587	0.090881	1.124477
F301	F	1.178528	-0.185253	0.734639
F302	F	1.428528	0.064747	0.984639
F303	F	1.678528	0.314747	1.234639
F304	F	1.928528	0.564747	1.484639
H305	H	1.071689	-0.374357	1.063313
H306	H	1.321689	-0.124357	1.313313
H307	H	1.571689	0.125643	1.563313
H308	H	1.821689	0.375643	1.813313
F309	F	1.315256	-0.868985	0.291782
F310	F	1.565256	-0.618985	0.541782
F311	F	1.815256	-0.368985	0.791782
F312	F	2.065256	-0.118985	1.041782
F313	F	1.271829	-0.219007	0.936488
F314	F	1.521829	0.030993	1.186488
F315	F	1.771829	0.280993	1.436488
F316	F	2.021829	0.530993	1.686488
F317	F	1.315189	-0.733911	0.291761
F318	F	1.565189	-0.483911	0.541761
F319	F	1.815189	-0.233911	0.791761
F320	F	2.065189	0.016089	1.041761
H321	H	1.258919	-0.228974	1.063372
H322	H	1.508919	0.021026	1.313372
H323	H	1.758919	0.271026	1.563372
H324	H	2.008919	0.521026	1.813372
F325	F	1.058886	-1.070938	0.384564
F326	F	1.308886	-0.820938	0.634564
F327	F	1.558886	-0.570938	0.884564
F328	F	1.808886	-0.320938	1.134564
F329	F	1.058782	-0.384514	0.667850
F330	F	1.308782	-0.134514	0.917850
F331	F	1.558782	0.115486	1.167850
F332	F	1.808782	0.365486	1.417850
H333	H	1.258917	-0.229163	0.541029
H334	H	1.508917	0.020837	0.791029
H335	H	1.758917	0.270837	1.041029
H336	H	2.008917	0.520837	1.291029
F337	F	1.058789	-0.384424	0.936416
F338	F	1.308789	-0.134424	1.186416
F339	F	1.558789	0.115576	1.436416
F340	F	1.808789	0.365576	1.686416
H341	H	1.071667	-0.374538	0.540962
H342	H	1.321667	-0.124538	0.790962
H343	H	1.571667	0.125462	1.040962
H344	H	1.821667	0.375462	1.290962
H345	H	1.258781	-0.659060	0.229213
H346	H	1.508781	-0.409060	0.479213
H347	H	1.758781	-0.159060	0.729213
H348	H	2.008781	0.090940	0.979213
H349	H	1.071721	-0.944044	0.374528
H350	H	1.321721	-0.694044	0.624528
H351	H	1.571721	-0.444044	0.874528
H352	H	1.821721	-0.194044	1.124528
F353	F	1.058628	-0.532227	0.384474
F354	F	1.308628	-0.282227	0.634474
F355	F	1.558628	-0.032227	0.884474
F356	F	1.808628	0.217773	1.134474
