data_functionalizedCrystal
_audit_creation_method	'MofGen! by Chris Wilmer'
_symmetry_space_group_name_H-M	'P1'
_symmetry_Int_Tables_number	1
_symmetry_cell_setting	triclinic
loop_
_symmetry_equiv_pos_as_xyz
  x,y,z
_cell_length_a	23.096457
_cell_length_b	23.096457
_cell_length_c	23.196401
_cell_angle_alpha	60.008426
_cell_angle_beta	90.011648
_cell_angle_gamma	59.998275
loop_
_atom_site_label
_atom_site_type_symbol
_atom_site_fract_x
_atom_site_fract_y
_atom_site_fract_z
Zr1	Zr	0.557733	0.633762	-0.075663
O2	O	0.465260	0.754552	-0.167709
O3	O	0.586083	0.512972	-0.047447
O4	O	0.586051	0.633764	-0.167716
O5	O	0.465314	0.633758	0.047431
O6	O	0.681332	0.633765	-0.167719
O7	O	0.465291	0.633760	-0.047441
O8	O	0.681388	0.417691	0.047419
O9	O	0.465258	0.849833	-0.167707
O10	O	0.669278	0.562656	-0.035415
O11	O	0.598189	0.562653	0.035389
O12	O	0.598152	0.704870	-0.106211
O13	O	0.527062	0.704868	-0.035407
Zr14	Zr	0.709731	0.633762	0.075640
Zr15	Zr	0.709694	0.633764	-0.075668
Zr16	Zr	0.557770	0.633759	0.075646
Zr17	Zr	0.557730	0.785724	-0.075660
Zr18	Zr	0.709734	0.481799	0.075638
O19	O	0.681381	0.754552	0.047425
O20	O	0.681329	0.754555	-0.167717
O21	O	0.465312	0.754548	0.047433
O22	O	0.802204	0.512972	0.167686
O23	O	0.802152	0.512975	-0.047455
O24	O	0.586135	0.512968	0.167694
O25	O	0.802150	0.633765	-0.047453
O26	O	0.681412	0.633760	0.167693
O27	O	0.586132	0.633759	0.167697
O28	O	0.802172	0.633764	0.047418
O29	O	0.586047	0.849835	-0.167712
O30	O	0.681417	0.417689	0.167689
O31	O	0.802206	0.417691	0.167685
O32	O	0.802177	0.417693	0.047414
O33	O	0.465287	0.849831	-0.047437
O34	O	0.586076	0.849833	-0.047441
O35	O	0.669312	0.562654	0.106188
O36	O	0.740402	0.562656	0.035384
O37	O	0.669275	0.704870	-0.035412
O38	O	0.598186	0.704868	0.035392
C39	C	0.633736	0.443680	-0.000015
C40	C	0.633737	0.379168	-0.000016
C41	C	0.670841	-0.081349	-0.036958
C42	C	0.670840	-0.020729	-0.036965
C43	C	0.633733	0.009582	-0.000006
C44	C	0.596610	-0.020716	0.036948
C45	C	0.596607	-0.081329	0.036947
N46	N	0.638900	0.071975	0.060139
N47	N	0.638906	0.129554	0.060138
C48	C	0.633738	0.192208	-0.000004
N49	N	0.628576	0.195101	-0.060144
N50	N	0.628574	0.137514	-0.060141
C51	C	0.633731	0.075308	-0.000002
C52	C	0.670853	0.288235	-0.036966
C53	C	0.670846	0.348859	-0.036975
C54	C	0.596621	0.348865	0.036945
C55	C	0.596623	0.288247	0.036947
C56	C	0.633743	0.257933	-0.000007
C57	C	0.443652	0.633759	-0.000004
C58	C	0.379140	0.633758	-0.000002
C59	C	0.385962	0.559525	0.036946
C60	C	0.325346	0.559524	0.036949
C61	C	0.257910	0.633760	-0.000010
C62	C	0.251090	0.708002	-0.036959
C63	C	0.311706	0.708001	-0.036956
N64	N	0.135098	0.689017	-0.060159
N65	N	0.077519	0.689013	-0.060162
C66	C	0.075277	0.633767	-0.000022
N67	N	0.132796	0.578512	0.060119
N68	N	0.190382	0.578514	0.060120
C69	C	0.192178	0.633769	-0.000018
C70	C	0.016375	0.559528	0.036933
C71	C	-0.044243	0.559530	0.036938
C72	C	-0.118499	0.708010	-0.036978
C73	C	-0.057881	0.708006	-0.036976
C74	C	0.009553	0.633763	-0.000022
C75	C	0.823812	0.633765	-0.000018
C76	C	0.888324	0.633766	-0.000021
C77	C	0.633687	0.633765	-0.189276
C78	C	0.633671	0.633766	-0.253510
C79	C	0.633728	0.823844	-0.000008
C80	C	0.633727	0.888356	-0.000006
C81	C	0.596547	0.707998	-0.320638
C82	C	0.596565	0.707999	-0.380993
C83	C	0.633697	0.633764	-0.374217
C84	C	0.670830	0.559522	-0.307076
C85	C	0.670816	0.559523	-0.246723
C86	C	0.628426	0.576889	-0.441535
C87	C	0.628434	0.576891	-0.501888
C88	C	0.633742	0.633758	-0.560364
C89	C	0.639028	0.690636	-0.558486
C90	C	0.639015	0.690637	-0.498133
C91	C	0.633716	0.633754	-0.439655
C92	C	0.596636	0.707996	-0.692939
C93	C	0.596659	0.707994	-0.753294
C94	C	0.670919	0.559515	-0.679375
C95	C	0.670901	0.559519	-0.619022
C96	C	0.633755	0.633762	-0.625809
C97	C	0.633777	0.633759	0.189253
C98	C	0.633793	0.633758	0.253488
C99	C	0.823816	0.443683	-0.000022
C100	C	0.888329	0.379172	-0.000025
C101	C	0.633781	0.443677	0.189250
C102	C	0.633798	0.379164	0.253483
C103	C	0.823862	0.443680	0.189243
C104	C	0.888390	0.379168	0.253474
C105	C	0.443602	0.823844	-0.189265
C106	C	0.379074	0.888356	-0.253496
C107	C	0.443648	0.823841	-0.000001
C108	C	0.379135	0.888352	0.000003
C109	C	0.633683	0.823847	-0.189272
C110	C	0.633666	0.888360	-0.253505
C111	C	0.881499	0.348877	-0.036990
C112	C	0.942110	0.288270	-0.037007
C113	C	1.009550	0.257956	-0.000056
C114	C	1.016379	0.288257	0.036910
C115	C	0.955769	0.348867	0.036923
C116	C	0.670932	0.348868	0.320610
C117	C	0.670945	0.288259	0.380970
C118	C	0.633828	0.257944	0.374201
C119	C	0.596690	0.288246	0.307067
C120	C	0.596673	0.348857	0.246708
C121	C	0.955808	0.348874	0.246678
C122	C	1.016445	0.288266	0.307024
C123	C	1.009662	0.257950	0.374165
C124	C	0.942238	0.288250	0.380959
C125	C	0.881602	0.348861	0.320614
C126	C	0.311656	0.918658	-0.246701
C127	C	0.251019	0.979284	-0.307047
C128	C	0.257801	1.009603	-0.374188
C129	C	0.325226	0.979299	-0.380982
C130	C	0.385862	0.918678	-0.320636
C131	C	0.385965	0.918653	0.036961
C132	C	0.325354	0.979277	0.036962
C133	C	0.257914	1.009593	0.000008
C134	C	0.251085	0.979289	-0.036954
C135	C	0.311695	0.918671	-0.036959
C136	C	0.670790	0.918656	-0.246714
C137	C	0.670788	0.979265	-0.307062
C138	C	0.633657	1.009581	-0.374201
C139	C	0.596532	0.979279	-0.380992
C140	C	0.596539	0.918667	-0.320644
H141	H	0.701065	-0.106027	-0.067050
H142	H	0.306146	0.768452	-0.067042
H143	H	0.566437	0.373516	0.192053
H144	H	0.566301	1.003971	-0.435664
F145	F	0.457734	0.886401	0.076293
F146	F	-0.036978	0.480517	0.076273
F147	F	0.557115	0.011547	0.076280
F148	F	0.179268	1.011523	-0.299801
F149	F	-0.190267	0.787017	-0.076308
F150	F	0.332636	1.011515	0.076306
H151	H	1.071297	0.263566	0.066994
H152	H	0.701128	0.499071	-0.564362
F153	F	0.809730	0.381131	-0.076323
F154	F	1.074051	0.193448	-0.000075
H155	H	0.071284	0.499075	0.067037
F156	F	0.557190	0.255973	0.299874
F157	F	-0.065143	0.787015	-0.076305
F158	F	0.557002	0.787015	-0.327865
H159	H	0.701026	0.893983	-0.192051
H160	H	0.961343	0.373548	0.192014
H161	H	0.306124	0.894001	-0.067053
H162	H	0.961339	0.373525	0.067027
H163	H	0.440866	0.499071	0.067032
H164	H	0.566333	0.768450	-0.435659
F165	F	0.557117	0.787011	-0.700160
F166	F	0.193261	1.074122	-0.438407
F167	F	1.074203	0.193442	0.438385
F168	F	0.644640	0.751169	-0.496135
H169	H	0.566382	-0.105995	0.067039
F170	F	0.710300	1.011508	-0.299821
H171	H	0.330740	1.003993	-0.435655
F172	F	0.457611	0.886430	-0.327879
F173	F	0.633655	1.074092	-0.438423
F174	F	0.934828	0.256030	-0.076350
H175	H	0.208567	1.058952	0.000018
F176	F	0.633853	0.193434	0.438447
F177	F	0.557018	0.886435	-0.327883
F178	F	0.710345	0.011518	-0.076295
F179	F	1.088196	0.256027	0.299779
F180	F	0.179305	1.011561	-0.076279
F181	F	0.935031	0.255977	0.452421
F182	F	0.710442	0.381119	0.327830
H183	H	0.701075	0.263554	-0.067059
H184	H	0.196179	0.768445	-0.067051
F185	F	0.557122	0.381127	0.076274
F186	F	0.710345	0.381107	-0.076312
H187	H	0.701048	0.499072	-0.192063
F188	F	0.809853	0.381092	0.327857
F189	F	0.644677	0.751163	-0.620718
H190	H	0.701154	0.499071	-0.673855
F191	F	0.557148	0.787007	-0.824741
H192	H	0.701190	0.263595	0.435628
H193	H	0.566403	0.263578	0.067040
H194	H	0.624098	0.530581	-0.393925
F195	F	0.332604	0.480513	0.076274
F196	F	0.710350	0.480515	-0.299865
F197	F	0.622802	0.516361	-0.503884
F198	F	0.304422	0.886399	-0.175250
