data_functionalizedCrystal
_audit_creation_method	'MofGen! by Chris Wilmer'
_symmetry_space_group_name_H-M	'P1'
_symmetry_Int_Tables_number	1
_symmetry_cell_setting	triclinic
loop_
_symmetry_equiv_pos_as_xyz
  x,y,z
_cell_length_a	10.686220
_cell_length_b	13.032721
_cell_length_c	13.034356
_cell_angle_alpha	90.866507
_cell_angle_beta	87.702080
_cell_angle_gamma	100.973619
loop_
_atom_site_label
_atom_site_type_symbol
_atom_site_fract_x
_atom_site_fract_y
_atom_site_fract_z
Zn1	Zn	1.970067	-0.227816	-0.494808
Zn2	Zn	1.917281	-0.424552	-0.348382
Zn3	Zn	1.729890	-0.262840	-0.339758
Zn4	Zn	1.736554	-0.412518	-0.533022
O5	O	1.838448	-0.331932	-0.428993
O6	O	2.139214	-0.244293	-0.463001
O7	O	1.867543	-0.422795	-0.205077
O8	O	1.781052	-0.113219	-0.340724
O9	O	2.100432	-0.388834	-0.355422
O10	O	1.957509	-0.087487	-0.454638
O11	O	1.729868	-0.303985	-0.198741
O12	O	1.554624	-0.292316	-0.377779
O13	O	1.792410	-0.368323	-0.670114
O14	O	1.559520	-0.402284	-0.519769
O15	O	1.963971	-0.232624	-0.642038
O16	O	1.874005	-0.567931	-0.392477
O17	O	1.741225	-0.559090	-0.528132
C18	C	1.511399	-0.349795	-0.451986
C19	C	1.371486	-0.357459	-0.461849
C20	C	1.802648	-0.601096	-0.465407
C21	C	1.787454	-0.716235	-0.481011
C22	C	1.846452	-0.771897	-0.420890
C23	C	1.830750	-0.890899	-0.437016
C24	C	2.166774	-0.313999	-0.405911
C25	C	2.306687	-0.306357	-0.396075
C26	C	1.884822	-0.295224	-0.693968
C27	C	1.904583	-0.279582	-0.806885
C28	C	1.874425	-0.061711	-0.392456
C29	C	1.889757	0.053441	-0.376887
C30	C	1.848929	-0.323589	-0.987825
C31	C	1.828501	-0.339756	-0.871120
C32	C	1.792337	-0.368418	-0.165033
C33	C	1.772857	-0.383755	-0.052060
H34	H	1.319919	-0.407082	-0.525708
H35	H	1.929185	-0.260113	-1.019230
H36	H	1.748248	-0.403244	-0.839719
C37	C	2.013017	-0.193830	-0.849293
H38	H	2.012525	-0.194211	-0.922168
H39	H	2.092553	-0.206767	-0.828047
H40	H	2.000854	-0.127604	-0.823839
H41	H	1.908594	-0.731453	-0.357483
H42	H	1.768616	-0.931340	-0.500434
H43	H	1.358246	-0.256745	-0.332215
C44	C	1.664441	-0.469511	-1.009645
H45	H	1.664928	-0.469122	-0.936770
H46	H	1.676603	-0.535729	-1.035105
H47	H	1.584894	-0.456574	-1.030883
C48	C	1.973672	-0.891942	-0.291198
H49	H	1.973200	-0.819127	-0.291586
H50	H	2.058544	-0.902859	-0.302521
H51	H	1.941012	-0.920136	-0.226612
C52	C	1.703514	-0.770863	-0.566675
H53	H	1.703966	-0.843681	-0.566271
H54	H	1.736133	-0.742681	-0.631269
H55	H	1.618641	-0.759942	-0.555320
