data_functionalizedCrystal
_audit_creation_method	'MofGen! by Chris Wilmer'
_symmetry_space_group_name_H-M	'P1'
_symmetry_Int_Tables_number	1
_symmetry_cell_setting	triclinic
loop_
_symmetry_equiv_pos_as_xyz
  x,y,z
_cell_length_a	10.654554
_cell_length_b	11.792254
_cell_length_c	10.868271
_cell_angle_alpha	89.998895
_cell_angle_beta	89.995039
_cell_angle_gamma	84.342720
loop_
_atom_site_label
_atom_site_type_symbol
_atom_site_fract_x
_atom_site_fract_y
_atom_site_fract_z
O1	O	1.667396	0.159438	-0.102328
O2	O	1.301876	0.174621	-0.102330
O3	O	1.493498	0.001881	-0.102320
O4	O	1.475774	0.332178	-0.102338
O5	O	1.493479	0.001888	0.102325
O6	O	1.301857	0.174628	0.102315
O7	O	1.667377	0.159445	0.102316
Zn8	Zn	1.484614	0.167038	0.134808
Zn9	Zn	1.484639	0.167028	-0.134821
O10	O	1.475755	0.332186	0.102307
C11	C	1.255072	0.173509	-0.000007
C12	C	1.115638	0.170170	-0.000008
C13	C	0.933376	0.062185	-0.000012
C14	C	1.064389	0.065321	-0.000004
C15	C	1.035866	0.271889	-0.000008
C16	C	0.904856	0.268752	-0.000008
C17	C	0.882135	-0.042670	-0.000021
C18	C	0.961898	-0.144390	-0.000018
C19	C	1.092910	-0.141254	-0.000010
C20	C	1.144161	-0.036398	-0.000003
C21	C	1.492372	-0.040409	0.000002
C22	C	1.489030	-0.166430	0.000001
C23	C	1.486315	-0.268773	-0.000004
C24	C	1.482920	-0.397167	-0.000015
C25	C	1.714181	0.160558	-0.000008
C26	C	1.853615	0.163896	-0.000016
C27	C	1.476881	0.374475	-0.000018
C28	C	1.480223	0.500496	-0.000025
N29	N	1.484606	0.167044	0.318822
C30	C	1.484615	0.167045	0.430159
C31	C	1.484630	0.167036	0.569837
N32	N	1.484648	0.167022	0.681165
H33	H	0.920161	-0.229760	-0.000034
N34	N	1.277985	-0.033172	-0.000004
N35	N	1.323723	0.060451	-0.000012
H36	H	1.418235	0.062731	-0.000018
N37	N	1.088194	0.378999	0.000001
N38	N	1.064005	0.447806	0.086261
H39	H	1.100958	0.523456	0.086266
H40	H	0.839912	0.351574	-0.000006
N41	N	1.174369	-0.245161	0.000012
N42	N	1.128595	-0.338768	0.000012
H43	H	1.186123	-0.412158	0.000025
H44	H	0.775459	-0.045236	-0.000031
