data_functionalizedCrystal
_audit_creation_method	'MofGen! by Chris Wilmer'
_symmetry_space_group_name_H-M	'P1'
_symmetry_Int_Tables_number	1
_symmetry_cell_setting	triclinic
loop_
_symmetry_equiv_pos_as_xyz
  x,y,z
_cell_length_a	14.853567
_cell_length_b	16.109301
_cell_length_c	14.586319
_cell_angle_alpha	90.000787
_cell_angle_beta	90.000002
_cell_angle_gamma	96.451795
loop_
_atom_site_label
_atom_site_type_symbol
_atom_site_fract_x
_atom_site_fract_y
_atom_site_fract_z
O1	O	0.115881	-1.103294	-0.076175
O2	O	0.449214	-0.769960	0.257159
O3	O	0.782547	-0.436627	0.590492
O4	O	0.130302	-0.861252	-0.076188
O5	O	0.463635	-0.527919	0.257145
O6	O	0.796969	-0.194585	0.590479
O7	O	-0.008149	-0.988738	-0.076184
O8	O	0.325184	-0.655405	0.257150
O9	O	0.658517	-0.322071	0.590483
O10	O	0.254332	-0.975807	-0.076179
O11	O	0.587665	-0.642474	0.257154
O12	O	0.920998	-0.309141	0.590488
O13	O	-0.008151	-0.988729	0.076297
O14	O	0.325182	-0.655396	0.409630
O15	O	0.658515	-0.322062	0.742964
O16	O	0.130300	-0.861243	0.076293
O17	O	0.463633	-0.527910	0.409626
O18	O	0.796966	-0.194576	0.742959
O19	O	0.115879	-1.103285	0.076306
O20	O	0.449212	-0.769951	0.409640
O21	O	0.782545	-0.436618	0.742973
Cu22	Cu	0.123089	-0.982263	0.090222
Cu23	Cu	0.456422	-0.648930	0.423555
Cu24	Cu	0.789756	-0.315596	0.756889
Cu25	Cu	0.123091	-0.982274	-0.090104
Cu26	Cu	0.456425	-0.648940	0.243229
Cu27	Cu	0.789758	-0.315607	0.576563
O28	O	0.254330	-0.975799	0.076302
O29	O	0.587663	-0.642465	0.409635
O30	O	0.920996	-0.309132	0.742969
C31	C	0.129717	-0.830272	0.000050
C32	C	0.463050	-0.496938	0.333384
C33	C	0.796383	-0.163605	0.666717
C34	C	0.127965	-0.737974	0.000045
C35	C	0.461299	-0.404641	0.333378
C36	C	0.794632	-0.071307	0.666712
C37	C	-0.041738	-0.988148	0.000054
C38	C	0.291595	-0.654814	0.333387
C39	C	0.624929	-0.321481	0.666721
C40	C	-0.141819	-0.986392	0.000046
C41	C	0.191515	-0.653059	0.333379
C42	C	0.524848	-0.319725	0.666713
N43	N	0.123087	-0.982262	0.217054
N44	N	0.456420	-0.648928	0.550387
N45	N	0.789753	-0.315595	0.883721
C46	C	-0.554215	-0.903241	0.000059
C47	C	-0.220882	-0.569907	0.333392
C48	C	0.112451	-0.236574	0.666725
C49	C	-0.575746	-1.054697	0.000067
C50	C	-0.242413	-0.721364	0.333400
C51	C	0.090920	-0.388030	0.666734
C52	C	-0.481715	-1.056348	0.000062
C53	C	-0.148382	-0.723015	0.333395
C54	C	0.184951	-0.389681	0.666728
C55	C	-0.423930	-0.981444	0.000056
C56	C	-0.090596	-0.648111	0.333390
C57	C	0.242737	-0.314777	0.666723
C58	C	-0.460175	-0.904889	0.000056
C59	C	-0.126842	-0.571556	0.333389
C60	C	0.206491	-0.238223	0.666723
C61	C	-0.445463	-1.132901	0.000071
C62	C	-0.112129	-0.799568	0.333405
C63	C	0.221204	-0.466235	0.666738
C64	C	-0.351426	-1.134555	0.000067
C65	C	-0.018093	-0.801222	0.333400
C66	C	0.315240	-0.467889	0.666734
C67	C	-0.293639	-1.059650	0.000055
C68	C	0.039694	-0.726317	0.333388
C69	C	0.373028	-0.392984	0.666722
C70	C	-0.329890	-0.983093	0.000054
C71	C	0.003444	-0.649759	0.333387
C72	C	0.336777	-0.316426	0.666720
C73	C	-0.272104	-0.908189	0.000048
C74	C	0.061229	-0.574855	0.333382
C75	C	0.394563	-0.241522	0.666715
C76	C	-0.308353	-0.831630	0.000040
C77	C	0.024980	-0.498296	0.333374
C78	C	0.358314	-0.164963	0.666707
C79	C	-0.402388	-0.829984	0.000044
C80	C	-0.069054	-0.496651	0.333377
C81	C	0.264279	-0.163318	0.666711
C82	C	-0.199604	-1.061296	0.000051
C83	C	0.133729	-0.727963	0.333385
C84	C	0.467062	-0.394629	0.666718
C85	C	-0.178064	-0.909837	0.000046
C86	C	0.155269	-0.576504	0.333379
C87	C	0.488603	-0.243171	0.666712
C88	C	0.287918	-0.976389	0.000062
C89	C	0.621252	-0.643056	0.333395
C90	C	0.954585	-0.309722	0.666729
C91	C	0.387999	-0.978145	0.000064
C92	C	0.721333	-0.644811	0.333397
C93	C	1.054666	-0.311478	0.666731
C94	C	0.116464	-1.134265	0.000066
C95	C	0.449797	-0.800932	0.333399
C96	C	0.783130	-0.467598	0.666732
C97	C	0.118215	-1.226563	0.000065
C98	C	0.451549	-0.893229	0.333399
C99	C	0.784882	-0.559896	0.666732
C100	C	0.206047	-0.515811	0.000057
C101	C	0.539380	-0.182478	0.333390
C102	C	0.872714	0.150855	0.666724
C103	C	0.204395	-0.429089	0.000063
C104	C	0.537728	-0.095755	0.333396
C105	C	0.871061	0.237578	0.666729
C106	C	0.040127	-0.448732	0.000056
C107	C	0.373460	-0.115399	0.333389
C108	C	0.706794	0.217935	0.666723
C109	C	0.041781	-0.535453	0.000057
C110	C	0.375114	-0.202120	0.333390
C111	C	0.708447	0.131213	0.666723
C112	C	0.124743	-0.568990	0.000052
C113	C	0.458077	-0.235657	0.333386
C114	C	0.791410	0.097677	0.666719
C115	C	0.121437	-0.395546	0.000058
C116	C	0.454770	-0.062213	0.333391
C117	C	0.788104	0.271120	0.666724
C118	C	0.119645	-0.301518	0.000064
C119	C	0.452978	0.031815	0.333397
C120	C	0.786311	0.365149	0.666731
C121	C	0.126536	-0.663025	0.000048
C122	C	0.459870	-0.329691	0.333381
C123	C	0.793203	0.003642	0.666714
N124	N	0.123087	-0.982281	-0.216936
N125	N	0.456420	-0.648948	0.116398
N126	N	0.789753	-0.315615	0.449731
C127	C	0.061801	-1.038731	0.452062
C128	C	0.395135	-0.705398	0.785396
C129	C	0.728468	-0.372065	1.118729
C130	C	0.061799	-1.038734	0.548044
C131	C	0.395132	-0.705400	0.881377
C132	C	0.728466	-0.372067	1.214710
C133	C	0.184375	-0.925806	0.548049
C134	C	0.517708	-0.592472	0.881382
C135	C	0.851042	-0.259139	1.214716
C136	C	0.184372	-0.925800	0.452070
C137	C	0.517706	-0.592467	0.785403
C138	C	0.851039	-0.259133	1.118736
C139	C	0.123086	-0.982268	0.404079
C140	C	0.456420	-0.648934	0.737412
C141	C	0.789753	-0.315601	1.070745
C142	C	0.123087	-0.982276	0.596039
C143	C	0.456420	-0.648942	0.929373
C144	C	0.789754	-0.315609	1.262706
C145	C	0.123085	-0.982278	0.700107
C146	C	0.456418	-0.648944	1.033440
C147	C	0.789752	-0.315611	1.366773
C148	C	0.123087	-0.982265	0.300005
C149	C	0.456420	-0.648931	0.633338
C150	C	0.789754	-0.315598	0.966672
H151	H	-0.131020	-0.848840	0.000037
H152	H	0.202313	-0.515507	0.333371
H153	H	0.535646	-0.182174	0.666704
H154	H	-0.261292	-0.770643	0.000042
H155	H	0.072042	-0.437310	0.333376
H156	H	0.405375	-0.103977	0.666709
H157	H	-0.431911	-0.767654	0.000039
H158	H	-0.098577	-0.434321	0.333372
H159	H	0.234756	-0.100988	0.666705
Cl160	Cl	0.310343	-0.557969	0.000057
Cl161	Cl	0.643676	-0.224636	0.333391
Cl162	Cl	0.977009	0.108697	0.666724
H163	H	0.270600	-0.385793	0.000068
H164	H	0.603934	-0.052460	0.333402
H165	H	0.937267	0.280874	0.666735
H166	H	0.234274	-0.879832	0.587133
H167	H	0.567607	-0.546499	0.920466
H168	H	0.900941	-0.213166	1.253800
H169	H	-0.583733	-0.840908	0.000049
H170	H	-0.250400	-0.507575	0.333382
H171	H	0.082933	-0.174242	0.666715
H172	H	-0.622800	-1.115680	0.000079
H173	H	-0.289467	-0.782347	0.333412
H174	H	0.043866	-0.449014	0.666746
Cl175	Cl	-0.064163	-0.406565	0.000055
Cl176	Cl	0.269170	-0.073231	0.333388
Cl177	Cl	0.602504	0.260102	0.666722
Cl178	Cl	-0.060439	-0.602312	0.000058
Cl179	Cl	0.272895	-0.268979	0.333392
Cl180	Cl	0.606228	0.064355	0.666725
H181	H	-0.492518	-1.193884	0.000084
H182	H	-0.159185	-0.860551	0.333418
H183	H	0.174149	-0.527217	0.666751
Cl184	Cl	0.261418	-0.854808	0.391741
Cl185	Cl	0.594751	-0.521474	0.725075
Cl186	Cl	0.928085	-0.188141	1.058408
H187	H	-0.321921	-1.196894	0.000072
H188	H	0.011412	-0.863561	0.333405
H189	H	0.344746	-0.530227	0.666739
Cl190	Cl	-0.154037	-1.157533	0.000078
Cl191	Cl	0.179296	-0.824199	0.333412
Cl192	Cl	0.512629	-0.490866	0.666745
H193	H	0.011897	-1.084709	0.412990
H194	H	0.345231	-0.751376	0.746324
H195	H	0.678564	-0.418043	1.079657
Cl196	Cl	-0.015250	-1.109718	0.608363
Cl197	Cl	0.318083	-0.776385	0.941697
Cl198	Cl	0.651416	-0.443051	1.275030
