data_functionalizedCrystal
_audit_creation_method	'MofGen! by Chris Wilmer'
_symmetry_space_group_name_H-M	'P1'
_symmetry_Int_Tables_number	1
_symmetry_cell_setting	triclinic
loop_
_symmetry_equiv_pos_as_xyz
  x,y,z
_cell_length_a	11.026660
_cell_length_b	10.654550
_cell_length_c	9.730223
_cell_angle_alpha	90.000193
_cell_angle_beta	90.000334
_cell_angle_gamma	96.534869
loop_
_atom_site_label
_atom_site_type_symbol
_atom_site_fract_x
_atom_site_fract_y
_atom_site_fract_z
O1	O	-1.614581	-0.526855	-0.114292
O2	O	-1.260772	-0.466863	-0.114293
O3	O	-1.445811	-0.315886	-0.114287
O4	O	-1.429542	-0.677833	-0.114297
O5	O	-1.445809	-0.315890	0.114293
O6	O	-1.260770	-0.466867	0.114287
O7	O	-1.614579	-0.526859	0.114288
Zn8	Zn	-1.437674	-0.496864	0.150580
Zn9	Zn	-1.437677	-0.496858	-0.150584
O10	O	-1.429539	-0.677837	0.114283
C11	C	-1.215467	-0.455798	-0.000003
C12	C	-1.080476	-0.422805	-0.000003
C13	C	-1.444615	-0.268830	0.000001
C14	C	-1.441041	-0.128611	-0.000004
C15	C	-1.659883	-0.537925	-0.000005
C16	C	-1.794874	-0.570918	-0.000013
C17	C	-0.867916	-0.479817	-0.000009
C18	C	-1.007436	-0.513919	-0.000007
C19	C	-1.430735	-0.724892	-0.000009
C20	C	-1.434309	-0.865111	-0.000013
N21	N	-1.437681	-0.496869	0.356116
C22	C	-1.549990	-0.072774	0.000001
C23	C	-1.546624	0.058977	-0.000009
C24	C	-1.325353	0.079043	-0.000022
C25	C	-1.328719	-0.052706	-0.000022
C26	C	-1.677739	-0.084358	0.000014
C27	C	-1.674373	0.047394	0.000005
N28	N	-1.437679	-0.496845	-0.356121
C29	C	-1.519637	-0.430050	0.428045
C30	C	-1.519634	-0.430034	0.571928
C31	C	-1.355714	-0.563667	0.571941
C32	C	-1.355712	-0.563675	0.428060
C33	C	-1.614279	-0.352902	0.428038
C34	C	-1.614276	-0.352886	0.571921
H35	H	-0.827159	-0.376575	0.000014
H36	H	-1.722507	0.078704	0.095663
C37	C	-1.190004	-0.660109	-0.000031
C38	C	-1.062437	-0.653304	-0.000025
H39	H	-1.223957	-0.746158	-0.000054
H40	H	-1.216287	-0.619416	0.079682
H41	H	-1.216281	-0.619383	-0.079740
H42	H	-1.036159	-0.694022	0.079690
H43	H	-1.036143	-0.694014	-0.079746
C44	C	-1.764785	-0.049391	0.220999
C45	C	-1.732308	-0.144357	0.133420
H46	H	-1.798373	-0.086427	0.303407
H47	H	-1.694417	0.007289	0.242077
H48	H	-1.823607	-0.004645	0.176911
H49	H	-1.673479	-0.189098	0.177504
H50	H	-1.802685	-0.201059	0.112344
C51	C	-0.811100	-0.770280	-0.117524
C52	C	-0.849873	-0.710299	-0.000018
H53	H	-0.845046	-0.856331	-0.117521
H54	H	-0.837403	-0.729571	-0.197217
H55	H	-0.724555	-0.765633	-0.117512
H56	H	-0.936418	-0.714938	-0.000035
H57	H	-0.823578	-0.751019	0.079695
C58	C	-0.897911	-0.276610	-0.000020
C59	C	-1.025478	-0.283419	-0.000012
H60	H	-0.863960	-0.190560	-0.000036
H61	H	-0.871625	-0.317307	0.079689
H62	H	-0.871634	-0.317329	-0.079734
H63	H	-1.051756	-0.242708	0.079708
H64	H	-1.051775	-0.242704	-0.079728
C65	C	-1.109667	-0.019633	-0.000042
C66	C	-1.208961	-0.114083	-0.000034
H67	H	-1.035732	-0.057527	-0.000041
H68	H	-1.112964	0.031332	-0.079748
H69	H	-1.112958	0.031340	0.079674
H70	H	-1.205675	-0.165051	-0.079756
H71	H	-1.205662	-0.165069	0.079680
C72	C	-1.193676	-0.695745	0.557501
C73	C	-1.265615	-0.637096	0.651025
H74	H	-1.138047	-0.741070	0.606325
H75	H	-1.244658	-0.752484	0.501396
H76	H	-1.149518	-0.633447	0.501369
H77	H	-1.309780	-0.699395	0.707150
H78	H	-1.214626	-0.580352	0.707154
H79	H	-1.593521	-0.251864	0.388987
H80	H	-1.233904	0.140861	-0.000038
C81	C	-1.330744	-0.728938	0.266273
C82	C	-1.265620	-0.637121	0.348997
H83	H	-1.275120	-0.774278	0.217460
H84	H	-1.381715	-0.785660	0.322408
H85	H	-1.379549	-0.689139	0.202834
H86	H	-1.216821	-0.676921	0.412444
H87	H	-1.214627	-0.580391	0.292857
H88	H	-1.727707	-0.124560	-0.095639
H89	H	-1.702552	-0.402651	0.383411
H90	H	-1.712982	0.084658	-0.098690
H91	H	-1.584737	-0.255252	0.616539
C92	C	-1.829626	-0.336546	0.576665
C93	C	-1.740397	-0.409305	0.624655
H94	H	-1.907484	-0.371381	0.609217
H95	H	-1.812305	-0.252362	0.609190
H96	H	-1.829616	-0.336571	0.479036
H97	H	-1.740402	-0.409273	0.722284
H98	H	-1.757724	-0.493512	0.592137
