data_functionalizedCrystal
_audit_creation_method	'MofGen! by Chris Wilmer'
_symmetry_space_group_name_H-M	'P1'
_symmetry_Int_Tables_number	1
_symmetry_cell_setting	triclinic
loop_
_symmetry_equiv_pos_as_xyz
  x,y,z
_cell_length_a	16.109301
_cell_length_b	17.038272
_cell_length_c	14.586319
_cell_angle_alpha	89.995924
_cell_angle_beta	89.998857
_cell_angle_gamma	87.286570
loop_
_atom_site_label
_atom_site_type_symbol
_atom_site_fract_x
_atom_site_fract_y
_atom_site_fract_z
O1	O	1.110268	0.100496	-0.076191
O2	O	0.869094	0.113002	-0.076204
O3	O	0.988248	-0.007066	-0.076190
O4	O	0.991114	0.220564	-0.076204
O5	O	0.988239	-0.007068	0.076291
O6	O	0.869085	0.113000	0.076277
O7	O	1.110259	0.100494	0.076290
Cu8	Cu	0.989671	0.106747	0.090206
Cu9	Cu	0.989682	0.106749	-0.090120
O10	O	0.991105	0.220563	0.076276
C11	C	0.838079	0.112495	0.000035
C12	C	0.745675	0.110976	0.000030
C13	C	0.441384	0.177257	0.000042
C14	C	0.528207	0.178691	0.000037
C15	C	0.537963	0.036234	0.000034
C16	C	0.451142	0.034800	0.000032
C17	C	0.402855	0.105314	0.000041
C18	C	0.576498	0.108182	0.000037
C19	C	0.670634	0.109737	0.000031
C20	C	0.308713	0.103760	0.000045
C21	C	0.985636	-0.036195	0.000050
C22	C	0.977857	-0.122988	0.000050
C23	C	1.049277	-0.173103	0.000054
C24	C	1.041963	-0.254654	0.000045
C25	C	0.963227	-0.286088	0.000038
C26	C	0.891801	-0.235967	0.000030
C27	C	0.899116	-0.154418	0.000033
C28	C	0.937385	-0.531845	0.000024
C29	C	0.930075	-0.613401	0.000024
C30	C	1.080238	-0.632082	0.000037
C31	C	1.087546	-0.550531	0.000045
C32	C	1.016120	-0.500417	0.000033
C33	C	0.955749	-0.369445	0.000031
C34	C	1.023599	-0.417061	0.000033
C35	C	1.141274	0.101002	0.000049
C36	C	1.233677	0.102521	0.000048
C37	C	0.993717	0.249692	0.000034
C38	C	1.001496	0.336485	0.000029
N39	N	0.989670	0.106745	0.217038
N40	N	0.989689	0.106745	-0.216952
C41	C	1.042451	0.053597	0.452051
C42	C	1.042453	0.053595	0.548032
C43	C	0.936902	0.159896	0.548029
C44	C	0.936896	0.159894	0.452050
C45	C	0.989675	0.106745	0.404063
C46	C	0.989684	0.106745	0.596024
C47	C	0.989686	0.106744	0.700091
C48	C	0.989672	0.106745	0.299989
H49	H	0.419771	-0.023787	0.000029
C50	C	0.388916	0.253788	0.000229
C51	C	0.338800	0.257136	0.078688
C52	C	0.290466	0.327631	0.078894
H53	H	0.354773	0.256267	-0.052883
H54	H	0.424273	0.296861	0.000276
H55	H	0.303447	0.214074	0.078633
H56	H	0.372922	0.254671	0.131812
H57	H	0.325824	0.370705	0.078940
H58	H	0.256328	0.330104	0.025778
H59	H	0.256463	0.329916	0.132130
C60	C	0.569883	0.256881	0.000088
C61	C	0.509009	0.318322	0.000118
C62	C	0.547369	0.390365	0.000175
H63	H	0.603543	0.260520	-0.053072
H64	H	0.603528	0.260439	0.053282
H65	H	0.475378	0.314766	-0.053071
H66	H	0.475345	0.314710	0.053273
H67	H	0.581015	0.393923	0.053369
H68	H	0.581029	0.393995	-0.052985
H69	H	0.506073	0.432061	0.000204
C70	C	0.590494	-0.040260	-0.000109
C71	C	0.640643	-0.043584	-0.078543
C72	C	0.689053	-0.114035	-0.078697
H73	H	0.555212	-0.083378	-0.000159
H74	H	0.624611	-0.042669	0.053039
H75	H	0.606530	-0.041182	-0.131677
H76	H	0.675942	-0.000483	-0.078510
H77	H	0.723170	-0.116444	-0.025549
H78	H	0.653765	-0.157147	-0.078743
H79	H	0.723090	-0.116296	-0.131908
C80	C	1.134838	-0.139130	0.000012
C81	C	1.195818	-0.200477	-0.000013
C82	C	1.274648	-0.169214	-0.000069
H83	H	1.140932	-0.107721	0.053171
H84	H	1.140857	-0.107726	-0.053183
H85	H	1.189802	-0.231869	0.053177
H86	H	1.189752	-0.231891	-0.053168
H87	H	1.280667	-0.137810	-0.053263
H88	H	1.280733	-0.137806	0.053091
H89	H	1.316032	-0.210833	-0.000094
H90	H	1.100122	-0.295454	0.000051
C91	C	1.109155	-0.383087	-0.000007
C92	C	1.170145	-0.444426	-0.000024
C93	C	1.248969	-0.413152	-0.000071
H94	H	1.115239	-0.351676	0.053151
H95	H	1.115175	-0.351683	-0.053203
H96	H	1.164128	-0.475817	0.053166
H97	H	1.164089	-0.475842	-0.053179
H98	H	1.254988	-0.381748	-0.053266
H99	H	1.255043	-0.381741	0.053089
H100	H	1.290360	-0.454765	-0.000090
H101	H	0.893932	0.203170	0.587110
H102	H	1.085426	0.010316	0.587101
C103	C	0.844512	-0.647379	-0.000042
C104	C	0.783524	-0.586038	-0.000081
C105	C	0.704699	-0.617310	-0.000155
H106	H	0.838410	-0.678795	0.053115
H107	H	0.838508	-0.678778	-0.053238
H108	H	0.789525	-0.554652	0.053110
H109	H	0.789599	-0.554617	-0.053234
H110	H	0.698696	-0.648709	-0.053351
H111	H	0.698606	-0.648725	0.053004
H112	H	0.663310	-0.575695	-0.000189
C113	C	0.806242	-0.269941	-0.000028
C114	C	0.745260	-0.208595	-0.000058
C115	C	0.666431	-0.239859	-0.000123
H116	H	0.800142	-0.301356	0.053130
H117	H	0.800229	-0.301338	-0.053224
H118	H	0.751269	-0.177210	0.053132
H119	H	0.751332	-0.177174	-0.053212
H120	H	0.660419	-0.271257	-0.053319
H121	H	0.660341	-0.271275	0.053036
H122	H	0.625046	-0.198241	-0.000152
C123	C	0.879563	0.217689	0.400107
C124	C	0.833364	0.264254	0.462672
C125	C	0.780549	0.317505	0.414856
H126	H	0.842893	0.189643	0.362670
H127	H	0.911752	0.250285	0.362677
H128	H	0.801177	0.231663	0.500087
H129	H	0.870013	0.292317	0.500112
H130	H	0.812738	0.350100	0.377426
H131	H	0.743884	0.289452	0.377421
H132	H	0.749202	0.349110	0.457299
H133	H	1.151661	-0.524944	0.000052
H134	H	1.138389	-0.672893	0.000046
C135	C	1.099639	-0.004256	0.400022
C136	C	1.080686	-0.081075	0.423393
C137	C	1.133341	-0.134401	0.375488
H138	H	1.155755	0.004137	0.415715
H139	H	1.092085	0.003282	0.335973
H140	H	1.088247	-0.088609	0.487427
H141	H	1.024579	-0.089492	0.407698
H142	H	1.125788	-0.126863	0.311439
H143	H	1.189455	-0.126001	0.391184
H144	H	1.120484	-0.186528	0.391331
H145	H	0.879224	-0.491052	0.000014
H146	H	0.891642	-0.395048	0.000028
H147	H	0.840958	-0.113614	0.000029
