data_functionalizedCrystal
_audit_creation_method	'MofGen! by Chris Wilmer'
_symmetry_space_group_name_H-M	'P1'
_symmetry_Int_Tables_number	1
_symmetry_cell_setting	triclinic
loop_
_symmetry_equiv_pos_as_xyz
  x,y,z
_cell_length_a	15.944493
_cell_length_b	14.044220
_cell_length_c	12.503572
_cell_angle_alpha	86.156832
_cell_angle_beta	86.482830
_cell_angle_gamma	91.668039
loop_
_atom_site_label
_atom_site_type_symbol
_atom_site_fract_x
_atom_site_fract_y
_atom_site_fract_z
O1	O	1.128121	-0.116503	-0.089309
O2	O	1.628121	0.383497	0.410691
O3	O	0.884698	-0.131632	-0.089315
O4	O	1.384698	0.368368	0.410685
O5	O	1.002755	0.013916	-0.089301
O6	O	1.502755	0.513916	0.410699
O7	O	1.010064	-0.262051	-0.089322
O8	O	1.510064	0.237949	0.410678
O9	O	0.993878	0.002951	0.089340
O10	O	1.493878	0.502951	0.589340
O11	O	0.875821	-0.142596	0.089326
O12	O	1.375821	0.357404	0.589326
O13	O	1.119244	-0.127467	0.089332
O14	O	1.619244	0.372533	0.589332
Cu15	Cu	0.996722	-0.136033	0.105640
Cu16	Cu	1.496722	0.363967	0.605640
Cu17	Cu	1.007220	-0.123067	-0.105623
Cu18	Cu	1.507220	0.376933	0.394377
O19	O	1.001187	-0.273015	0.089318
O20	O	1.501187	0.226985	0.589318
C21	C	0.848918	-0.136496	0.000005
C22	C	1.348918	0.363504	0.500005
C23	C	0.755531	-0.134642	0.000003
C24	C	1.255531	0.365358	0.500003
C25	C	0.526186	-0.220315	-0.000004
C26	C	1.026186	0.279685	0.499996
C27	C	0.467791	-0.179521	0.088083
C28	C	0.967791	0.320479	0.588083
C29	C	0.584552	-0.131207	0.000006
C30	C	1.084552	0.368793	0.500006
C31	C	0.476547	-0.168690	-0.088042
C32	C	0.976547	0.331310	0.411958
C33	C	0.419395	-0.127895	0.000003
C34	C	0.919395	0.372105	0.500003
C35	C	0.527384	-0.090442	0.088166
C36	C	1.027384	0.409558	0.588166
C37	C	0.536147	-0.079619	-0.088039
C38	C	1.036147	0.420381	0.411961
C39	C	0.477779	-0.038761	0.000070
C40	C	0.977779	0.461239	0.500070
C41	C	0.679695	-0.133117	0.000008
C42	C	1.179695	0.366883	0.500008
C43	C	0.324254	-0.125978	0.000009
C44	C	0.824254	0.374022	0.500009
C45	C	0.995118	0.043747	0.000019
C46	C	1.495118	0.543747	0.500019
C47	C	0.985576	0.148972	0.000021
C48	C	1.485576	0.648972	0.500021
C49	C	1.155024	-0.122603	0.000010
C50	C	1.655024	0.377397	0.500010
C51	C	1.248411	-0.124457	0.000004
C52	C	1.748411	0.375543	0.500004
C53	C	1.008824	-0.302847	-0.000005
C54	C	1.508824	0.197153	0.499995
C55	C	1.018366	-0.408070	-0.000013
C56	C	1.518366	0.091930	0.499987
N57	N	0.989344	-0.145152	0.254232
N58	N	1.489344	0.354848	0.754232
C59	C	0.968133	0.341631	0.000005
C60	C	1.468133	0.841631	0.500005
C61	C	1.035805	0.399276	0.000003
C62	C	1.535805	0.899276	0.500003
C63	C	1.026099	0.506478	-0.000006
C64	C	1.526099	1.006478	0.499994
C65	C	0.977838	0.234419	0.000014
C66	C	1.477838	0.734419	0.500014
N67	N	1.014604	-0.113940	-0.254215
N68	N	1.514604	0.386060	0.245785
C69	C	0.978491	-0.158575	0.473346
C70	C	1.478491	0.341425	0.973346
C71	C	1.025454	-0.100520	0.526678
C72	C	1.525454	0.399480	1.026678
C73	C	1.019416	-0.107989	0.648601
C74	C	1.519416	0.392011	1.148601
C75	C	0.984529	-0.151108	0.351412
C76	C	1.484529	0.348892	0.851412
H77	H	0.437971	-0.221723	0.162548
H78	H	0.937971	0.278277	0.662548
H79	H	0.933753	-0.213884	0.519248
H80	H	1.433753	0.286116	1.019248
H81	H	0.547554	-0.297077	0.000073
H82	H	1.047554	0.202923	0.500073
C83	C	0.576466	-0.022658	-0.188635
C84	C	1.076466	0.477342	0.311365
H85	H	0.559151	-0.050586	-0.251162
H86	H	1.059151	0.449414	0.248838
H87	H	0.559176	0.041525	-0.189265
H88	H	1.059176	0.541525	0.310735
H89	H	0.635953	-0.023793	-0.187554
H90	H	1.135953	0.476207	0.312446
C91	C	0.446272	-0.213367	-0.188641
C92	C	0.946272	0.286633	0.311359
H93	H	0.462758	-0.277835	-0.188532
H94	H	0.962758	0.222165	0.311468
H95	H	0.386758	-0.211327	-0.188272
H96	H	0.886758	0.288673	0.311728
H97	H	0.470643	-0.178513	-0.251185
H98	H	0.970643	0.321487	0.248815
C99	C	0.557507	-0.045823	0.188876
C100	C	1.057507	0.454177	0.688876
H101	H	0.510340	-0.025976	0.230886
H102	H	1.010340	0.474024	0.730886
H103	H	0.586846	-0.091746	0.230045
H104	H	1.086846	0.408254	0.730045
H105	H	0.593913	0.007795	0.167824
H106	H	1.093913	0.507795	0.667824
C107	C	0.449102	0.064999	0.000145
C108	C	0.949102	0.564999	0.500145
H109	H	0.466540	0.092659	0.062770
H110	H	0.966540	0.592659	0.562770
H111	H	0.473493	0.100673	-0.061829
H112	H	0.973493	0.600673	0.438171
H113	H	0.389569	0.065671	-0.000436
H114	H	0.889569	0.565671	0.499564
H115	H	1.101033	0.368120	-0.000068
H116	H	1.601033	0.868120	0.499932
C117	C	0.880025	0.383714	0.000001
C118	C	1.380025	0.883714	0.500001
H119	H	0.838838	0.333452	-0.000003
H120	H	1.338838	0.833452	0.499997
H121	H	0.870342	0.418013	0.062293
H122	H	1.370342	0.918013	0.562293
H123	H	0.876533	0.425641	-0.062307
H124	H	1.376533	0.925641	0.437693
C125	C	1.085924	-0.025827	0.464669
C126	C	1.585924	0.474173	0.964669
H127	H	1.082120	-0.030557	0.389670
H128	H	1.582120	0.469443	0.889670
H129	H	1.071101	0.036314	0.483022
H130	H	1.571101	0.536314	0.983022
H131	H	1.141872	-0.037184	0.483044
H132	H	1.641872	0.462816	0.983044
