data_functionalizedCrystal
_audit_creation_method	'MofGen! by Chris Wilmer'
_symmetry_space_group_name_H-M	'P1'
_symmetry_Int_Tables_number	1
_symmetry_cell_setting	triclinic
loop_
_symmetry_equiv_pos_as_xyz
  x,y,z
_cell_length_a	12.759401
_cell_length_b	12.759394
_cell_length_c	12.759393
_cell_angle_alpha	89.970474
_cell_angle_beta	89.980404
_cell_angle_gamma	90.014133
loop_
_atom_site_label
_atom_site_type_symbol
_atom_site_fract_x
_atom_site_fract_y
_atom_site_fract_z
Zn1	Zn	1.606273	-0.418208	-0.593990
Zn2	Zn	1.606166	-0.593924	-0.418313
Zn3	Zn	1.430571	-0.418260	-0.418329
Zn4	Zn	1.430566	-0.593846	-0.593954
O5	O	1.518394	-0.506059	-0.506146
O6	O	1.753279	-0.441527	-0.570694
O7	O	1.582831	-0.570676	-0.271294
O8	O	1.453925	-0.271232	-0.441652
O9	O	1.753201	-0.570625	-0.441625
O10	O	1.583012	-0.271194	-0.570709
O11	O	1.453822	-0.441616	-0.271306
O12	O	1.283549	-0.441541	-0.441618
O13	O	1.453916	-0.570493	-0.740980
O14	O	1.283545	-0.570544	-0.570649
O15	O	1.583007	-0.441453	-0.741006
O16	O	1.582826	-0.740934	-0.441590
O17	O	1.453813	-0.740878	-0.570633
C18	C	1.245427	-0.506041	-0.506132
C19	C	1.128650	-0.506058	-0.506151
C20	C	0.964082	-0.573348	-0.573238
C21	C	1.073806	-0.573336	-0.573228
C22	C	1.073764	-0.438795	-0.439073
C23	C	0.964042	-0.438813	-0.439079
C24	C	1.518336	-0.779027	-0.506129
C25	C	1.518407	-0.895804	-0.506157
C26	C	1.652724	-0.895606	-0.640645
C27	C	1.719916	-0.950367	-0.707897
C28	C	1.719979	-1.060089	-0.707919
C29	C	1.652840	-1.115051	-0.640685
C30	C	1.585648	-1.060289	-0.573433
C31	C	1.585595	-0.950565	-0.573415
C32	C	1.451326	-1.060488	-0.438952
C33	C	1.451268	-0.950766	-0.438922
C34	C	1.384187	-1.115450	-0.371718
C35	C	1.316999	-1.060688	-0.304459
C36	C	1.316940	-0.950960	-0.304438
C37	C	1.384076	-0.896004	-0.371670
C38	C	1.792427	-0.506079	-0.506161
C39	C	1.909204	-0.506087	-0.506168
C40	C	1.518473	-0.505959	-0.780180
C41	C	1.518506	-0.505916	-0.896956
C42	C	1.518481	-0.232026	-0.506187
C43	C	1.518518	-0.115249	-0.506204
C44	C	1.585729	-0.438713	-0.951834
C45	C	1.585746	-0.438668	-1.061558
C46	C	1.451316	-0.573036	-1.061518
C47	C	1.451294	-0.573076	-0.951796
C48	C	1.518376	-0.506084	-0.233179
C49	C	1.518546	-0.505831	-0.116403
H50	H	1.652690	-0.806264	-0.640623
H51	H	1.774578	-0.905607	-0.762640
H52	H	1.118426	-0.384020	-0.384453
N53	N	1.792455	-1.119157	-0.780447
H54	H	1.782304	-1.197004	-0.770254
H55	H	1.776063	-1.099944	-0.855468
N56	N	0.904930	-0.645918	-0.645579
H57	H	0.859429	-0.603292	-0.694346
H58	H	0.956414	-0.688514	-0.687993
N59	N	1.244600	-1.119969	-0.231944
H60	H	1.202029	-1.068632	-0.189331
H61	H	1.195983	-1.165497	-0.274683
N62	N	1.378764	-0.645552	-0.892613
H63	H	1.395047	-0.720618	-0.911692
H64	H	1.388967	-0.635297	-0.814801
N65	N	1.132994	-0.645874	-0.645578
H66	H	1.210824	-0.635660	-0.635394
H67	H	1.113798	-0.720892	-0.629102
H68	H	0.919359	-0.384039	-0.384457
H69	H	1.652888	-1.204392	-0.640718
H70	H	1.384239	-1.204791	-0.371745
N71	N	1.244463	-0.891898	-0.231906
H72	H	1.201944	-0.943369	-0.189323
H73	H	1.287223	-0.846376	-0.183306
H74	H	1.384039	-0.806663	-0.371656
H75	H	1.640454	-0.384024	-0.907187
N76	N	1.378839	-0.645468	-1.120685
H77	H	1.395122	-0.720546	-1.101586
H78	H	1.303801	-0.629061	-1.101567
N79	N	1.658239	-0.366174	-1.120748
H80	H	1.700807	-0.323634	-1.069355
H81	H	1.706855	-0.408918	-1.166281
