data_functionalizedCrystal
_audit_creation_method	'MofGen! by Chris Wilmer'
_symmetry_space_group_name_H-M	'P1'
_symmetry_Int_Tables_number	1
_symmetry_cell_setting	triclinic
loop_
_symmetry_equiv_pos_as_xyz
  x,y,z
_cell_length_a	17.699077
_cell_length_b	10.489716
_cell_length_c	16.776229
_cell_angle_alpha	89.997416
_cell_angle_beta	89.993415
_cell_angle_gamma	83.904856
loop_
_atom_site_label
_atom_site_type_symbol
_atom_site_fract_x
_atom_site_fract_y
_atom_site_fract_z
O1	O	1.005128	0.161261	-0.066271
O2	O	0.784885	0.182254	-0.066274
O3	O	0.900028	-0.013936	-0.066275
O4	O	0.889985	0.357451	-0.066269
O5	O	0.900012	-0.013948	0.066302
O6	O	0.784870	0.182242	0.066303
O7	O	1.005112	0.161249	0.066306
Zn8	Zn	0.894988	0.171744	0.087354
Zn9	Zn	0.895009	0.171760	-0.087321
O10	O	0.889970	0.357439	0.066307
C11	C	0.756675	0.181497	0.000014
C12	C	0.672642	0.179245	0.000013
C13	C	0.633160	0.178177	0.072281
C14	C	0.554203	0.176039	0.072282
C15	C	0.514730	0.174980	0.000013
C16	C	0.554219	0.176044	-0.072260
C17	C	0.633175	0.178172	-0.072260
C18	C	0.235800	0.167460	-0.072262
C19	C	0.156838	0.165336	-0.072256
C20	C	0.156829	0.165328	0.072280
C21	C	0.235784	0.167456	0.072280
C22	C	0.275266	0.168513	0.000007
C23	C	0.360880	0.170828	0.000007
C24	C	0.429118	0.172674	0.000013
C25	C	0.899265	-0.061460	0.000011
C26	C	0.897008	-0.203049	0.000004
C27	C	0.967617	-0.302037	0.000012
C28	C	0.930313	-0.378697	-0.065354
C29	C	0.930282	-0.378673	0.065356
C30	C	0.859734	-0.277844	-0.065416
C31	C	0.859712	-0.277814	0.065353
C32	C	0.822357	-0.354424	-0.000029
C33	C	1.033322	0.162006	0.000016
C34	C	1.117355	0.164259	0.000013
C35	C	0.890732	0.404963	0.000020
C36	C	0.892989	0.546552	0.000022
N37	N	0.894980	0.171732	0.206565
N38	N	0.895023	0.171761	-0.206533
C39	C	0.945981	0.084895	0.248282
C40	C	0.945985	0.084894	0.331734
C41	C	0.894992	0.171737	0.373468
C42	C	0.843985	0.258579	0.331746
C43	C	0.843978	0.258573	0.248295
C44	C	0.844013	0.258604	0.668293
C45	C	0.844025	0.258606	0.751749
C46	C	0.946020	0.084925	0.751732
C47	C	0.946013	0.084919	0.668281
C48	C	0.895004	0.171755	0.626566
C49	C	0.894999	0.171754	0.536078
C50	C	0.895000	0.171746	0.463955
H51	H	0.522074	0.175172	-0.131102
H52	H	0.987539	0.014207	0.634304
H53	H	0.802447	0.329283	0.214330
H54	H	0.987509	0.014182	0.214307
O55	O	0.965951	-0.431284	0.131204
C56	C	1.026966	-0.520827	0.107741
H57	H	1.045632	-0.497337	0.044869
H58	H	1.076522	-0.516154	0.150669
H59	H	1.008085	-0.621396	0.108714
O60	O	0.794504	0.342849	0.627654
C61	C	0.805442	0.324257	0.545049
H62	H	0.833171	0.222782	0.533644
H63	H	0.748202	0.338595	0.513345
H64	H	0.843795	0.396358	0.521360
O65	O	0.749076	-0.382441	-0.000033
C66	C	0.747719	-0.516586	0.000604
H67	H	0.803453	-0.564075	0.026077
H68	H	0.698422	-0.542125	0.039099
H69	H	0.740184	-0.552031	-0.062846
H70	H	0.802461	0.329284	0.365730
H71	H	0.124673	0.164461	0.131129
H72	H	0.829925	-0.233747	0.120617
H73	H	0.987552	0.014214	0.785705
O74	O	0.671388	0.179145	0.142555
C75	C	0.619602	0.177772	0.206340
H76	H	0.566239	0.135895	0.185150
H77	H	0.646882	0.116479	0.256884
H78	H	0.603810	0.279830	0.228565
H79	H	0.665320	0.179044	-0.131109
H80	H	0.124702	0.164472	-0.131110
O81	O	0.274025	0.168543	-0.142537
C82	C	0.222254	0.167121	-0.206319
H83	H	0.163054	0.205978	-0.185128
H84	H	0.240598	0.229632	-0.256868
H85	H	0.221245	0.064608	-0.228536
O86	O	0.515839	0.174765	0.142466
C87	C	0.478142	0.063117	0.146783
H88	H	0.507517	-0.013407	0.105763
H89	H	0.479931	0.026015	0.210699
H90	H	0.416497	0.086460	0.127378
H91	H	0.987514	0.014184	0.365699
H92	H	0.267919	0.168325	0.131128
H93	H	1.029035	-0.278504	-0.000054
O94	O	0.965933	-0.431049	-0.131304
C95	C	0.993643	-0.333478	-0.177222
H96	H	1.001206	-0.247594	-0.137488
H97	H	1.050691	-0.370902	-0.204558
H98	H	0.951443	-0.303041	-0.226751
O99	O	0.824337	-0.225501	-0.131484
C100	C	0.876225	-0.162307	-0.176724
H101	H	0.936681	-0.204120	-0.161901
H102	H	0.864971	-0.176075	-0.242911
H103	H	0.868980	-0.055628	-0.161945
H104	H	0.802497	0.329326	0.785728
