data_functionalizedCrystal
_audit_creation_method	'MofGen! by Chris Wilmer'
_symmetry_space_group_name_H-M	'P1'
_symmetry_Int_Tables_number	1
_symmetry_cell_setting	triclinic
loop_
_symmetry_equiv_pos_as_xyz
  x,y,z
_cell_length_a	10.654562
_cell_length_b	10.654550
_cell_length_c	9.130313
_cell_angle_alpha	90.000896
_cell_angle_beta	89.998159
_cell_angle_gamma	95.512497
loop_
_atom_site_label
_atom_site_type_symbol
_atom_site_fract_x
_atom_site_fract_y
_atom_site_fract_z
O1	O	1.667822	-0.176471	-0.121892
O2	O	1.302346	-0.193260	-0.121873
O3	O	1.493487	-0.002127	-0.121877
O4	O	1.476681	-0.367604	-0.121887
O5	O	1.493490	-0.002128	0.121721
O6	O	1.302348	-0.193262	0.121726
O7	O	1.667825	-0.176473	0.121707
Cu8	Cu	1.485087	-0.184867	0.143959
Cu9	Cu	1.485084	-0.184865	-0.144125
O10	O	1.476684	-0.367606	0.121711
C11	C	1.255549	-0.192025	-0.000071
C12	C	1.116107	-0.188327	-0.000064
C13	C	1.050578	-0.186603	0.132710
C14	C	0.919555	-0.183138	0.132686
C15	C	0.919603	-0.183126	-0.132899
C16	C	1.050624	-0.186582	-0.132873
C17	C	1.050548	-0.186615	0.286044
C18	C	0.919526	-0.183150	0.286019
C19	C	1.492254	0.044671	-0.000080
C20	C	1.488563	0.184114	-0.000085
C21	C	1.714621	-0.177708	-0.000098
C22	C	1.854064	-0.181406	-0.000115
N23	N	1.485083	-0.184855	-0.346748
C24	C	1.477916	-0.414403	-0.000090
C25	C	1.481608	-0.553847	-0.000094
C26	C	1.601103	0.263595	-0.000086
C27	C	1.597627	0.394615	-0.000096
C28	C	1.369059	0.366662	-0.000097
C29	C	1.372537	0.235644	-0.000098
C30	C	1.733066	0.279734	-0.000079
C31	C	1.729589	0.410755	-0.000089
C32	C	1.408415	-0.107819	-0.423417
C33	C	1.408426	-0.107822	-0.576753
C34	C	1.561774	-0.261907	-0.576739
C35	C	1.561769	-0.261896	-0.423405
C36	C	1.319877	-0.018863	-0.423426
C37	C	1.319888	-0.018866	-0.576763
N38	N	1.485098	-0.184868	0.346582
H39	H	1.080123	-0.278211	0.333618
F40	F	1.120363	-0.188393	-0.274189
F41	F	1.252755	0.151058	-0.000128
H42	H	1.775088	0.244105	0.105100
H43	H	0.889938	-0.091556	0.333601
F44	F	1.245582	0.421516	-0.000115
F45	F	1.196180	-0.070226	-0.361252
H46	H	1.779312	0.452512	0.101852
F47	F	1.781713	0.470419	-0.137565
F48	F	1.643385	-0.343895	-0.658335
F49	F	0.859022	-0.296596	0.362955
F50	F	1.800527	0.241352	-0.133320
F51	F	1.643382	-0.343874	-0.341813
F52	F	1.371769	0.104659	-0.638938
F53	F	1.360531	0.110535	-0.369040
F54	F	1.190361	-0.058925	-0.631164
H55	H	0.866270	-0.181706	-0.241027
H56	H	1.096809	-0.099821	0.344929
