data_functionalizedCrystal
_audit_creation_method	'MofGen! by Chris Wilmer'
_symmetry_space_group_name_H-M	'P1'
_symmetry_Int_Tables_number	1
_symmetry_cell_setting	triclinic
loop_
_symmetry_equiv_pos_as_xyz
  x,y,z
_cell_length_a	10.540510
_cell_length_b	10.540510
_cell_length_c	12.996460
_cell_angle_alpha	89.996346
_cell_angle_beta	89.994188
_cell_angle_gamma	84.513311
loop_
_atom_site_label
_atom_site_type_symbol
_atom_site_fract_x
_atom_site_fract_y
_atom_site_fract_z
O1	O	1.685892	0.178725	-0.085567
O2	O	2.185892	0.678725	0.414433
O3	O	1.316472	0.195621	-0.085567
O4	O	1.816472	0.695621	0.414433
O5	O	1.509630	0.002463	-0.085567
O6	O	2.009630	0.502463	0.414433
O7	O	1.492734	0.371883	-0.085568
O8	O	1.992734	0.871883	0.414432
O9	O	1.509609	0.002452	0.085567
O10	O	2.009609	0.502452	0.585567
O11	O	1.316452	0.195610	0.085567
O12	O	1.816452	0.695610	0.585567
O13	O	1.685872	0.178714	0.085567
O14	O	2.185872	0.678714	0.585567
Cu15	Cu	1.501160	0.187161	0.101193
Cu16	Cu	2.001160	0.687161	0.601193
Cu17	Cu	1.501184	0.187174	-0.101193
Cu18	Cu	2.001184	0.687174	0.398807
O19	O	1.492714	0.371872	0.085566
O20	O	1.992714	0.871872	0.585566
C21	C	1.269159	0.194356	-0.000000
C22	C	1.769159	0.694356	0.500000
C23	C	1.128209	0.190589	-0.000001
C24	C	1.628209	0.690589	0.499999
C25	C	1.508361	-0.044846	-0.000002
C26	C	2.008361	0.455154	0.499998
C27	C	1.504594	-0.185795	-0.000008
C28	C	2.004594	0.314205	0.499992
C29	C	1.638780	-0.403265	0.000384
C30	C	2.138780	0.096735	0.500384
C31	C	1.642798	-0.256670	-0.000007
C32	C	2.142798	0.243330	0.499993
C33	C	1.433858	-0.230540	-0.097732
C34	C	1.933858	0.269460	0.402268
C35	C	1.430819	-0.377301	-0.097808
C36	C	1.930819	0.122699	0.402192
C37	C	1.427918	-0.377121	0.096803
C38	C	1.927918	0.122879	0.596803
C39	C	1.434473	-0.230781	0.098089
C40	C	1.934473	0.269219	0.598089
C41	C	0.910739	0.324775	-0.000394
C42	C	1.410739	0.824775	0.499606
C43	C	1.057334	0.328793	-0.000002
C44	C	1.557334	0.828793	0.499998
C45	C	1.083445	0.119836	0.097723
C46	C	1.583445	0.619836	0.597723
C47	C	0.936685	0.116797	0.097799
C48	C	1.436685	0.616797	0.597799
C49	C	0.936902	0.113931	-0.096813
C50	C	1.436902	0.613931	0.403187
C51	C	1.083242	0.120486	-0.098098
C52	C	1.583242	0.620486	0.401902
C53	C	1.733185	0.179979	-0.000002
C54	C	2.233185	0.679979	0.499998
C55	C	1.874135	0.183746	-0.000009
C56	C	2.374135	0.683746	0.499991
C57	C	1.493983	0.419181	-0.000001
C58	C	1.993983	0.919181	0.499999
C59	C	1.497750	0.560130	-0.000001
C60	C	1.997750	1.060130	0.499999
N61	N	1.501152	0.187151	0.243540
N62	N	2.001152	0.687151	0.743540
N63	N	1.501202	0.187174	-0.243540
N64	N	2.001202	0.687174	0.256460
C65	C	1.501182	0.187175	0.663354
C66	C	2.001182	0.687175	1.163354
C67	C	1.501170	0.187173	0.546549
C68	C	2.001170	0.687173	1.046549
C69	C	1.501168	0.187164	0.453450
C70	C	2.001168	0.687164	0.953450
C71	C	1.501154	0.187160	0.336638
C72	C	2.001154	0.687160	0.836638
H73	H	1.692614	-0.445231	0.070467
H74	H	2.192614	0.054769	0.570467
H75	H	1.471829	-0.419313	0.170878
H76	H	1.971829	0.080687	0.670878
N77	N	1.716117	-0.217831	0.092785
N78	N	2.216117	0.282169	0.592785
H79	H	1.792271	-0.174044	0.069452
H80	H	2.292271	0.325956	0.569452
H81	H	1.659016	-0.157478	0.136738
H82	H	2.159016	0.342522	0.636738
H83	H	1.482999	-0.199684	-0.170458
H84	H	1.982999	0.300316	0.329542
H85	H	1.479177	-0.417517	-0.170858
H86	H	1.979177	0.082483	0.329142
N87	N	1.709714	-0.460893	-0.091917
N88	N	2.209714	0.039107	0.408083
H89	H	1.650892	-0.510607	-0.133980
H90	H	2.150892	-0.010607	0.366020
H91	H	1.740653	-0.390723	-0.135483
H92	H	2.240653	0.109277	0.364517
N93	N	0.853112	0.395691	0.091914
N94	N	1.353112	0.895691	0.591914
H95	H	0.757270	0.396434	0.089507
H96	H	1.257270	0.896434	0.589507
H97	H	0.886460	0.351907	0.156952
H98	H	1.386460	0.851907	0.656952
N99	N	1.299089	-0.167756	-0.102547
N100	N	1.799089	0.332244	0.397453
H101	H	1.300711	-0.072181	-0.105665
H102	H	1.800711	0.427819	0.394335
H103	H	1.255501	-0.197997	-0.165960
H104	H	1.755501	0.302003	0.334040
H105	H	1.114286	0.168964	0.170449
H106	H	1.614286	0.668964	0.670449
H107	H	1.698482	-0.228266	-0.070180
H108	H	2.198482	0.271734	0.429820
H109	H	1.085724	0.384472	0.070167
H110	H	1.585724	0.884472	0.570167
N111	N	1.148242	-0.013170	-0.105920
N112	N	1.648242	0.486830	0.394080
H113	H	1.198252	-0.022458	-0.172225
H114	H	1.698252	0.477542	0.327775
H115	H	1.207958	-0.030161	-0.045666
H116	H	1.707958	0.469839	0.454334
H117	H	0.868788	0.378622	-0.070478
H118	H	1.368788	0.878622	0.429522
H119	H	0.894358	0.157519	-0.170882
H120	H	1.394358	0.657519	0.329118
N121	N	1.121175	0.188649	-0.193868
N122	N	1.621175	0.688649	0.306132
H123	H	1.167294	0.264624	-0.173806
H124	H	1.667294	0.764624	0.326194
H125	H	1.179214	0.128439	-0.237207
H126	H	1.679214	0.628439	0.262793
H127	H	0.896454	0.165141	0.170848
H128	H	1.396454	0.665141	0.670848
H129	H	1.327451	-0.400285	-0.102236
H130	H	1.827451	0.099715	0.397764
N131	N	1.502629	-0.192889	0.193860
N132	N	2.002629	0.307111	0.693860
H133	H	1.593186	-0.234034	0.193239
H134	H	2.093186	0.265966	0.693239
H135	H	1.503183	-0.097155	0.195750
H136	H	2.003183	0.402845	0.695750
H137	H	0.913700	0.013429	0.102238
H138	H	1.413700	0.513429	0.602238
H139	H	1.333573	-0.181704	0.103990
H140	H	1.833573	0.318296	0.603990
N141	N	1.146233	-0.014932	0.102554
N142	N	1.646233	0.485068	0.602554
H143	H	1.204440	-0.031457	0.041295
H144	H	1.704440	0.468543	0.541295
H145	H	1.197556	-0.026782	0.168052
H146	H	1.697556	0.473218	0.668052
N147	N	1.290470	-0.406439	0.097683
N148	N	1.790470	0.093561	0.597683
H149	H	1.273463	-0.460097	0.035715
H150	H	1.773463	0.039903	0.535715
H151	H	1.273087	-0.454612	0.162558
H152	H	1.773087	0.045388	0.662558
N153	N	1.096223	0.402110	-0.092794
N154	N	1.596223	0.902110	0.407206
H155	H	1.018071	0.432105	-0.134321
H156	H	1.518071	0.932105	0.365679
H157	H	1.140040	0.478197	-0.069379
H158	H	1.640040	0.978197	0.430621
N159	N	0.907585	-0.023517	-0.097693
N160	N	1.407585	0.476483	0.402307
H161	H	0.853915	-0.040535	-0.035725
H162	H	1.353915	0.459465	0.464275
H163	H	0.859424	-0.040888	-0.162568
H164	H	1.359424	0.459112	0.337432
