data_functionalizedCrystal
_audit_creation_method	'MofGen! by Chris Wilmer'
_symmetry_space_group_name_H-M	'P1'
_symmetry_Int_Tables_number	1
_symmetry_cell_setting	triclinic
loop_
_symmetry_equiv_pos_as_xyz
  x,y,z
_cell_length_a	21.295419
_cell_length_b	21.295417
_cell_length_c	21.295411
_cell_angle_alpha	89.978356
_cell_angle_beta	89.975461
_cell_angle_gamma	90.045308
loop_
_atom_site_label
_atom_site_type_symbol
_atom_site_fract_x
_atom_site_fract_y
_atom_site_fract_z
Zn1	Zn	0.962356	-0.250432	-0.355911
Zn2	Zn	1.295689	0.082901	-0.022578
Zn3	Zn	1.629022	0.416234	0.310756
Zn4	Zn	0.962258	-0.355684	-0.250637
Zn5	Zn	1.295591	-0.022351	0.082697
Zn6	Zn	1.628925	0.310982	0.416030
Zn7	Zn	0.857079	-0.250460	-0.250656
Zn8	Zn	1.190412	0.082873	0.082677
Zn9	Zn	1.523745	0.416207	0.416010
Zn10	Zn	0.857048	-0.355695	-0.355868
Zn11	Zn	1.190381	-0.022361	-0.022535
Zn12	Zn	1.523715	0.310972	0.310798
O13	O	0.909685	-0.303068	-0.303268
O14	O	1.243018	0.030266	0.030065
O15	O	1.576352	0.363599	0.363399
O16	O	1.050432	-0.264378	-0.341956
O17	O	1.383765	0.068955	-0.008623
O18	O	1.717099	0.402288	0.324711
O19	O	0.948278	-0.341733	-0.162550
O20	O	1.281611	-0.008400	0.170784
O21	O	1.614944	0.324934	0.504117
O22	O	0.871098	-0.162367	-0.264645
O23	O	1.204431	0.170966	0.068689
O24	O	1.537764	0.504300	0.402022
O25	O	1.050360	-0.341706	-0.264611
O26	O	1.383694	-0.008373	0.068722
O27	O	1.717027	0.324960	0.402056
O28	O	0.948444	-0.162347	-0.341975
O29	O	1.281777	0.170987	-0.008642
O30	O	1.615111	0.504320	0.324692
O31	O	0.871003	-0.264425	-0.162564
O32	O	1.204336	0.068908	0.170769
O33	O	1.537670	0.402241	0.504102
O34	O	0.768985	-0.264436	-0.264603
O35	O	1.102319	0.068898	0.068730
O36	O	1.435652	0.402231	0.402064
O37	O	0.871045	-0.341724	-0.443963
O38	O	1.204379	-0.008391	-0.110630
O39	O	1.537712	0.324942	0.222703
O40	O	0.768963	-0.341751	-0.341902
O41	O	1.102296	-0.008418	-0.008569
O42	O	1.435629	0.324915	0.324765
O43	O	0.948414	-0.264388	-0.443995
O44	O	1.281748	0.068945	-0.110662
O45	O	1.615081	0.402278	0.222672
O46	O	0.948248	-0.443775	-0.264570
O47	O	1.281581	-0.110442	0.068764
O48	O	1.614915	0.222892	0.402097
O49	O	0.870951	-0.443783	-0.341883
O50	O	1.204284	-0.110449	-0.008550
O51	O	1.537617	0.222884	0.324784
C52	C	0.909603	-0.466619	-0.303233
C53	C	1.242936	-0.133286	0.030100
C54	C	1.576269	0.200047	0.363433
C55	C	0.909625	-0.536588	-0.303239
C56	C	1.242958	-0.203254	0.030094
C57	C	1.576291	0.130079	0.363427
C58	C	0.746133	-0.303098	-0.303250
C59	C	1.079467	0.030235	0.030083
C60	C	1.412800	0.363569	0.363416
C61	C	0.676165	-0.303126	-0.303258
C62	C	1.009499	0.030207	0.030076
C63	C	1.342832	0.363541	0.363409
C64	C	0.949909	-0.569429	-0.263024
C65	C	1.283243	-0.236096	0.070310
C66	C	1.616576	0.097237	0.403643
C67	C	0.949939	-0.635172	-0.263038
C68	C	1.283272	-0.301838	0.070296
C69	C	1.616605	0.031495	0.403629
C70	C	0.909673	-0.668070	-0.303261
C71	C	1.243006	-0.334737	0.030072
C72	C	1.576339	-0.001403	0.363406
C73	C	0.869385	-0.635220	-0.343485
C74	C	1.202719	-0.301887	-0.010151
C75	C	1.536052	0.031446	0.323182
C76	C	0.869361	-0.569479	-0.343474
C77	C	1.202695	-0.236146	-0.010140
C78	C	1.536028	0.097187	0.323193
N79	N	0.854606	-0.771351	-0.308054
N80	N	1.187939	-0.438018	0.025279
N81	N	1.521272	-0.104684	0.358613
N82	N	0.854630	-0.833802	-0.308061
N83	N	1.187963	-0.500469	0.025273
N84	N	1.521297	-0.167136	0.358606
C85	C	0.909743	-0.866145	-0.303297
C86	C	1.243076	-0.532811	0.030036
C87	C	1.576410	-0.199478	0.363370
N88	N	0.964832	-0.833676	-0.298514
N89	N	1.298165	-0.500343	0.034819
N90	N	1.631499	-0.167010	0.368152
N91	N	0.964807	-0.771219	-0.298504
N92	N	1.298140	-0.437886	0.034829
N93	N	1.631473	-0.104553	0.368162
C94	C	0.909694	-0.739355	-0.303278
C95	C	1.243028	-0.406022	0.030056
C96	C	1.576361	-0.072689	0.363389
C97	C	0.950063	-0.970272	-0.263095
C98	C	1.283396	-0.636939	0.070239
C99	C	1.616730	-0.303605	0.403572
C100	C	0.950093	-1.036016	-0.263113
C101	C	1.283427	-0.702682	0.070220
C102	C	1.616760	-0.369349	0.403554
C103	C	0.869534	-1.036063	-0.343557
C104	C	1.202868	-0.702730	-0.010223
C105	C	1.536201	-0.369396	0.323110
C106	C	0.869510	-0.970321	-0.343541
C107	C	1.202843	-0.636987	-0.010208
C108	C	1.536176	-0.303654	0.323125
C109	C	0.909773	-0.937429	-0.303307
C110	C	1.243106	-0.604096	0.030026
C111	C	1.576440	-0.270762	0.363360
C112	C	0.643358	-0.262927	-0.343593
C113	C	0.976692	0.070406	-0.010260
C114	C	1.310025	0.403739	0.323073
C115	C	0.577616	-0.262910	-0.343596
C116	C	0.910949	0.070423	-0.010263
C117	C	1.244283	0.403756	0.323071
C118	C	0.544683	-0.303104	-0.303269
C119	C	0.878016	0.030230	0.030064
C120	C	1.211349	0.363563	0.363397
C121	C	0.577498	-0.343305	-0.262926
C122	C	0.910831	-0.009972	0.070408
C123	C	1.244164	0.323361	0.403741
C124	C	0.643239	-0.343317	-0.262920
C125	C	0.976572	-0.009983	0.070413
C126	C	1.309906	0.323350	0.403747
N127	N	0.441407	-0.358181	-0.298349
N128	N	0.774741	-0.024847	0.034984
N129	N	1.108074	0.308486	0.368317
N130	N	0.378956	-0.358168	-0.298359
N131	N	0.712289	-0.024835	0.034975
N132	N	1.045623	0.308498	0.368308
C133	C	0.346608	-0.303071	-0.303283
C134	C	0.679941	0.030262	0.030050
C135	C	1.013275	0.363596	0.363384
N136	N	0.379071	-0.247985	-0.308210
N137	N	0.712404	0.085348	0.025123
N138	N	1.045738	0.418681	0.358456
N139	N	0.441528	-0.247999	-0.308205
N140	N	0.774862	0.085335	0.025129
N141	N	1.108195	0.418668	0.358462
C142	C	0.473397	-0.303095	-0.303271
C143	C	0.806731	0.030238	0.030063
C144	C	1.140064	0.363571	0.363396
C145	C	0.242516	-0.262850	-0.343624
C146	C	0.575849	0.070483	-0.010290
C147	C	0.909182	0.403816	0.323043
C148	C	0.176772	-0.262832	-0.343622
C149	C	0.510105	0.070501	-0.010288
C150	C	0.843439	0.403834	0.323045
C151	C	0.176655	-0.343233	-0.262955
C152	C	0.509988	-0.009900	0.070379
C153	C	0.843322	0.323434	0.403712
C154	C	0.242397	-0.343245	-0.262953
C155	C	0.575731	-0.009912	0.070380
C156	C	0.909064	0.323421	0.403713
C157	C	0.275324	-0.303055	-0.303291
C158	C	0.608657	0.030278	0.030042
C159	C	0.941991	0.363612	0.363375
C160	C	1.073875	-0.303038	-0.303286
C161	C	1.407209	0.030295	0.030047
C162	C	1.740542	0.363629	0.363381
C163	C	1.143843	-0.303025	-0.303294
C164	C	1.477177	0.030308	0.030039
C165	C	1.810510	0.363641	0.363373
C166	C	0.909737	-0.303055	-0.467458
C167	C	1.243071	0.030279	-0.134125
C168	C	1.576404	0.363612	0.199208
C169	C	0.909760	-0.303049	-0.537426
C170	C	1.243093	0.030284	-0.204093
C171	C	1.576426	0.363618	0.129240
C172	C	0.909785	-0.138878	-0.303317
C173	C	1.243118	0.194456	0.030017
C174	C	1.576452	0.527789	0.363350
C175	C	0.909828	-0.068909	-0.303338
C176	C	1.243161	0.264424	0.029996
C177	C	1.576494	0.597757	0.363329
C178	C	0.950044	-0.262778	-0.570311
C179	C	1.283377	0.070555	-0.236977
C180	C	1.616710	0.403888	0.096356
C181	C	0.950043	-0.262751	-0.636053
C182	C	1.283376	0.070582	-0.302720
C183	C	1.616710	0.403916	0.030614
C184	C	0.909764	-0.303006	-0.668909
C185	C	1.243098	0.030328	-0.335576
C186	C	1.576431	0.363661	-0.002242
C187	C	0.869472	-0.343279	-0.636017
C188	C	1.202806	-0.009946	-0.302684
C189	C	1.536139	0.323388	0.030650
C190	C	0.869470	-0.343301	-0.570276
C191	C	1.202803	-0.009967	-0.236942
C192	C	1.536137	0.323366	0.096391
N193	N	0.904908	-0.358075	-0.772124
N194	N	1.238241	-0.024741	-0.438791
N195	N	1.571574	0.308592	-0.105458
N196	N	0.904914	-0.358052	-0.834576
N197	N	1.238247	-0.024719	-0.501243
N198	N	1.571580	0.308615	-0.167909
C199	C	0.909768	-0.302942	-0.866984
C200	C	1.243102	0.030392	-0.533651
C201	C	1.576435	0.363725	-0.200317
N202	N	0.914629	-0.247853	-0.834581
N203	N	1.247963	0.085480	-0.501248
N204	N	1.581296	0.418813	-0.167914
N205	N	0.914626	-0.247876	-0.772124
N206	N	1.247960	0.085457	-0.438791
N207	N	1.581293	0.418790	-0.105457
C208	C	0.909762	-0.302986	-0.740194
C209	C	1.243096	0.030347	-0.406861
C210	C	1.576429	0.363680	-0.073528
C211	C	0.950054	-0.262638	-0.971154
C212	C	1.283387	0.070695	-0.637820
C213	C	1.616721	0.404029	-0.304487
C214	C	0.950049	-0.262610	-1.036897
C215	C	1.283382	0.070724	-0.703564
C216	C	1.616715	0.404057	-0.370231
C217	C	0.869481	-0.343143	-1.036860
C218	C	1.202815	-0.009810	-0.703527
C219	C	1.536148	0.323523	-0.370193
C220	C	0.869483	-0.343166	-0.971118
C221	C	1.202817	-0.009833	-0.637784
C222	C	1.536150	0.323501	-0.304451
C223	C	0.909773	-0.302914	-0.938268
C224	C	1.243106	0.030419	-0.604935
C225	C	1.576440	0.363752	-0.271602
C226	C	0.909669	-0.303036	-0.139716
C227	C	1.243003	0.030298	0.193617
C228	C	1.576336	0.363631	0.526950
C229	C	0.909769	-0.302864	-0.069749
C230	C	1.243102	0.030469	0.263585
C231	C	1.576436	0.363803	0.596918
H232	H	0.982696	-0.542651	-0.230264
H233	H	1.316029	-0.209317	0.103069
H234	H	1.649362	0.124016	0.436403
C235	C	0.825180	-0.387427	-1.072994
C236	C	1.158513	-0.054093	-0.739660
C237	C	1.491846	0.279240	-0.406327
H238	H	0.830954	-0.381651	-1.116857
H239	H	1.164287	-0.048317	-0.783524
H240	H	1.497620	0.285016	-0.450190
H241	H	0.782889	-0.378231	-1.062205
H242	H	1.116222	-0.044898	-0.728871
H243	H	1.449555	0.288436	-0.395538
H244	H	0.834375	-0.429725	-1.062220
H245	H	1.167709	-0.096391	-0.728886
H246	H	1.501042	0.236942	-0.395553
C247	C	0.994400	-1.072145	-0.218867
C248	C	1.327733	-0.738811	0.114466
C249	C	1.661067	-0.405478	0.447800
H250	H	0.988652	-1.116009	-0.224638
H251	H	1.321985	-0.782676	0.108696
H252	H	1.655318	-0.449342	0.442029
H253	H	0.985193	-1.061402	-0.176565
H254	H	1.318527	-0.728069	0.156769
H255	H	1.651860	-0.394736	0.490102
H256	H	1.036692	-1.061319	-0.228109
H257	H	1.370026	-0.727986	0.105224
H258	H	1.703359	-0.394652	0.438557
H259	H	0.836752	-1.062848	-0.376310
H260	H	1.170085	-0.729515	-0.042977
H261	H	1.503418	-0.396182	0.290356
H262	H	0.836703	-0.943579	-0.376286
H263	H	1.170037	-0.610246	-0.042953
H264	H	1.503370	-0.276912	0.290380
H265	H	0.982850	-0.230001	-0.543569
H266	H	1.316183	0.103332	-0.210235
H267	H	1.649517	0.436665	0.123098
C268	C	0.541274	-0.387519	-0.218570
C269	C	0.874607	-0.054186	0.114763
C270	C	1.207941	0.279147	0.448096
H271	H	0.497422	-0.381760	-0.224355
H272	H	0.830755	-0.048427	0.108978
H273	H	1.164088	0.284906	0.442311
H274	H	0.552033	-0.378248	-0.176291
H275	H	0.885366	-0.044915	0.157043
H276	H	1.218699	0.288419	0.490376
H277	H	0.552014	-0.429831	-0.227709
H278	H	0.885348	-0.096498	0.105624
H279	H	1.218681	0.236835	0.438958
H280	H	0.669950	-0.376052	-0.230073
H281	H	1.003283	-0.042719	0.103261
H282	H	1.336617	0.290614	0.436594
H283	H	0.982857	-0.229859	-0.944406
H284	H	1.316190	0.103474	-0.611073
H285	H	1.649523	0.436807	-0.277740
H286	H	0.670163	-0.230200	-0.376439
H287	H	1.003496	0.103133	-0.043106
H288	H	1.336830	0.436466	0.290228
C289	C	0.825094	-0.671403	-0.387731
C290	C	1.158427	-0.338069	-0.054398
C291	C	1.491760	-0.004736	0.278936
H292	H	0.801101	-0.642425	-0.411685
H293	H	1.134434	-0.309092	-0.078352
H294	H	1.467767	0.024242	0.254981
H295	H	0.797686	-0.697093	-0.363632
H296	H	1.131019	-0.363760	-0.030299
H297	H	1.464352	-0.030427	0.303034
H298	H	0.849175	-0.697005	-0.415186
H299	H	1.182508	-0.363672	-0.081853
H300	H	1.515842	-0.030338	0.251481
C301	C	0.825170	-0.387561	-0.672156
C302	C	1.158504	-0.054227	-0.338822
C303	C	1.491837	0.279106	-0.005489
H304	H	0.830946	-0.381785	-0.716019
H305	H	1.164279	-0.048452	-0.382686
H306	H	1.497613	0.284881	-0.049352
H307	H	0.782879	-0.378361	-0.661368
H308	H	1.116213	-0.045028	-0.328035
H309	H	1.449546	0.288305	0.005298
H310	H	0.834362	-0.429859	-0.661381
H311	H	1.167695	-0.096526	-0.328047
H312	H	1.501029	0.236807	0.005286
H313	H	0.269326	-0.230121	-0.376465
H314	H	0.602659	0.103212	-0.043132
H315	H	0.935993	0.436546	0.290202
H316	H	0.550899	-0.230172	-0.376441
H317	H	0.884233	0.103161	-0.043108
H318	H	1.217566	0.436494	0.290226
H319	H	0.836556	-0.542739	-0.376223
H320	H	1.169890	-0.209406	-0.042890
H321	H	1.503223	0.123928	0.290444
H322	H	0.150062	-0.230094	-0.376467
H323	H	0.483395	0.103240	-0.043133
H324	H	0.816728	0.436573	0.290200
C325	C	0.825164	-0.387609	-0.534102
C326	C	1.158498	-0.054276	-0.200768
C327	C	1.491831	0.279058	0.132565
H328	H	0.801178	-0.411584	-0.563083
H329	H	1.134511	-0.078251	-0.229750
H330	H	1.467845	0.255083	0.103584
H331	H	0.797751	-0.363549	-0.508440
H332	H	1.131084	-0.030216	-0.175107
H333	H	1.464417	0.303118	0.158226
H334	H	0.849238	-0.415042	-0.508471
H335	H	1.182571	-0.081709	-0.175137
H336	H	1.515904	0.251624	0.158196
C337	C	0.994248	-0.671305	-0.218794
C338	C	1.327582	-0.337972	0.114540
C339	C	1.660915	-0.004639	0.447873
H340	H	1.018220	-0.642300	-0.194828
H341	H	1.351554	-0.308967	0.138506
H342	H	1.684887	0.024366	0.471839
H343	H	1.021675	-0.696910	-0.242898
H344	H	1.355008	-0.363577	0.090436
H345	H	1.688341	-0.030243	0.423769
H346	H	0.970179	-0.696990	-0.191350
H347	H	1.303513	-0.363656	0.141984
H348	H	1.636846	-0.030323	0.475317
H349	H	0.836683	-0.375963	-0.944343
H350	H	1.170017	-0.042629	-0.611010
H351	H	1.503350	0.290704	-0.277676
C352	C	0.994364	-0.218310	-1.073070
C353	C	1.327697	0.115023	-0.739737
C354	C	1.661031	0.448357	-0.406403
H355	H	1.018361	-0.194347	-1.044088
H356	H	1.351694	0.138986	-0.710755
H357	H	1.685028	0.472320	-0.377421
H358	H	0.970305	-0.190875	-1.098707
H359	H	1.303639	0.142458	-0.765373
H360	H	1.636972	0.475792	-0.432040
H361	H	1.021777	-0.242384	-1.098726
H362	H	1.355110	0.090950	-0.765392
H363	H	1.688444	0.424283	-0.432059
H364	H	0.269109	-0.375982	-0.230110
H365	H	0.602442	-0.042649	0.103223
H366	H	0.935776	0.290684	0.436556
C367	C	0.994356	-0.934088	-0.218846
C368	C	1.327690	-0.600755	0.114487
C369	C	1.661023	-0.267422	0.447820
H370	H	1.018361	-0.963066	-0.194903
H371	H	1.351694	-0.629733	0.138430
H372	H	1.685027	-0.296400	0.471763
H373	H	0.970282	-0.908486	-0.191390
H374	H	1.303616	-0.575153	0.141943
H375	H	1.636949	-0.241820	0.475276
H376	H	1.021763	-0.908398	-0.242952
H377	H	1.355097	-0.575064	0.090381
H378	H	1.688430	-0.241731	0.423714
C379	C	0.140439	-0.387444	-0.218593
C380	C	0.473773	-0.054111	0.114741
C381	C	0.807106	0.279223	0.448074
H382	H	0.169397	-0.411386	-0.194567
H383	H	0.502730	-0.078052	0.138766
H384	H	0.836064	0.255281	0.472100
H385	H	0.114777	-0.414902	-0.242621
H386	H	0.448110	-0.081569	0.090712
H387	H	0.781444	0.251764	0.424046
H388	H	0.114806	-0.363313	-0.191209
H389	H	0.448140	-0.029980	0.142124
H390	H	0.781473	0.303354	0.475458
H391	H	0.982846	-0.229954	-0.662833
H392	H	1.316179	0.103379	-0.329499
H393	H	1.649513	0.436712	0.003834
