data_functionalizedCrystal
_audit_creation_method	'MofGen! by Chris Wilmer'
_symmetry_space_group_name_H-M	'P1'
_symmetry_Int_Tables_number	1
_symmetry_cell_setting	triclinic
loop_
_symmetry_equiv_pos_as_xyz
  x,y,z
_cell_length_a	10.540510
_cell_length_b	10.540539
_cell_length_c	13.101039
_cell_angle_alpha	86.601733
_cell_angle_beta	93.391426
_cell_angle_gamma	84.519401
loop_
_atom_site_label
_atom_site_type_symbol
_atom_site_fract_x
_atom_site_fract_y
_atom_site_fract_z
O1	O	1.692829	0.171776	0.085216
O2	O	1.323412	0.188672	0.085216
O3	O	1.516548	-0.004483	0.085215
O4	O	1.499693	0.364931	0.085217
O5	O	1.502691	0.009398	-0.085215
O6	O	1.309554	0.202553	-0.085214
O7	O	1.678972	0.185658	-0.085214
Zn8	Zn	1.492063	0.196310	-0.112273
Zn9	Zn	1.510321	0.178020	0.112275
O10	O	1.485835	0.378813	-0.085212
C11	C	1.269179	0.194354	0.000001
C12	C	1.128230	0.190587	0.000002
C13	C	0.910806	0.324739	0.000394
C14	C	1.057370	0.328789	0.000004
C15	C	1.075557	0.127768	-0.097320
C16	C	0.928790	0.124735	-0.097396
C17	C	0.944742	0.106070	0.096415
C18	C	1.091187	0.112521	0.097695
C19	C	1.508356	-0.044845	0.000002
C20	C	1.504574	-0.185793	0.000007
C21	C	1.359687	-0.369236	0.000390
C22	C	1.363489	-0.222587	0.000006
C23	C	1.564558	-0.239531	-0.097317
C24	C	1.559736	-0.386069	-0.097399
C25	C	1.578364	-0.402373	0.096412
C26	C	1.579768	-0.255496	0.097699
C27	C	1.733205	0.179976	0.000003
C28	C	1.874155	0.183742	0.000010
C29	C	1.494028	0.419175	0.000003
C30	C	1.497810	0.560123	0.000004
N31	N	1.479612	0.208791	-0.265522
C32	C	1.462672	0.225785	-0.474564
C33	C	1.539717	0.148539	-0.525440
C34	C	1.530292	0.157994	-0.641759
C35	C	1.472096	0.216331	-0.358235
N36	N	1.522782	0.165528	0.265524
H37	H	0.874527	0.372896	0.070189
F38	F	1.699598	-0.209944	-0.102050
F39	F	1.367213	0.321503	-0.531810
F40	F	1.635569	0.053201	-0.468192
H41	H	1.140732	0.011145	0.103571
F42	F	1.103144	0.393709	0.091191
F43	F	1.301074	-0.174318	0.091195
F44	F	1.486413	-0.415179	-0.192487
H45	H	0.861656	0.383923	-0.069005
F46	F	1.711630	-0.464186	0.097270
H47	H	1.080092	0.390163	-0.069877
F48	F	1.495215	-0.176137	-0.191984
H49	H	1.683107	-0.231765	0.103576
H50	H	0.908191	0.143645	0.170180
H51	H	0.882658	0.179008	-0.170145
F52	F	1.136289	0.172104	0.191805
H53	H	0.922641	0.002255	0.097072
H54	H	1.122652	0.026321	-0.100941
F55	F	0.898255	-0.009892	-0.103221
F56	F	1.294254	-0.414037	0.091615
H57	H	1.538699	-0.439930	0.170177
F58	F	1.279591	-0.401771	-0.090074
F59	F	1.108185	0.199695	-0.191989
H60	H	1.660844	-0.433688	-0.101814
F61	F	1.522995	-0.209156	0.191819
F62	F	1.285740	-0.160555	-0.091332
