data_functionalizedCrystal
_audit_creation_method	'MofGen! by Chris Wilmer'
_symmetry_space_group_name_H-M	'P1'
_symmetry_Int_Tables_number	1
_symmetry_cell_setting	triclinic
loop_
_symmetry_equiv_pos_as_xyz
  x,y,z
_cell_length_a	22.010155
_cell_length_b	23.532407
_cell_length_c	23.532407
_cell_angle_alpha	82.848678
_cell_angle_beta	90.000423
_cell_angle_gamma	90.003069
loop_
_atom_site_label
_atom_site_type_symbol
_atom_site_fract_x
_atom_site_fract_y
_atom_site_fract_z
O1	O	-0.050455	-0.755264	-0.069127
O2	O	0.449545	-0.255264	0.430873
O3	O	-0.050474	-0.589400	-0.079130
O4	O	0.449526	-0.089400	0.420870
O5	O	-0.050453	-0.677334	0.008803
O6	O	0.449547	-0.177334	0.508803
O7	O	-0.050476	-0.667330	-0.157060
O8	O	0.449524	-0.167330	0.342940
O9	O	0.050597	-0.677318	0.008790
O10	O	0.550597	-0.177318	0.508790
O11	O	0.050576	-0.589384	-0.079143
O12	O	0.550576	-0.089384	0.420857
O13	O	0.050595	-0.755248	-0.069140
O14	O	0.550595	-0.255248	0.430860
Cu15	Cu	0.059812	-0.672315	-0.074143
Cu16	Cu	0.559812	-0.172315	0.425857
Cu17	Cu	-0.059691	-0.672333	-0.074127
Cu18	Cu	0.440309	-0.172333	0.425873
O19	O	0.050574	-0.667314	-0.157073
O20	O	0.550574	-0.167314	0.342927
C21	C	0.000049	-0.568176	-0.078882
C22	C	0.500049	-0.068176	0.421118
C23	C	0.000042	-0.504959	-0.078116
C24	C	0.500042	-0.004959	0.421884
N25	N	0.143865	-0.672305	-0.074153
N26	N	0.643865	-0.172305	0.425847
N27	N	-0.143744	-0.672347	-0.074112
N28	N	0.356256	-0.172347	0.425888
C29	C	0.563653	-0.711273	-0.035196
C30	C	1.063653	-0.211273	0.464804
C31	C	0.627261	-0.711275	-0.035192
C32	C	1.127261	-0.211275	0.464808
O33	O	0.660160	-0.744384	-0.002076
O34	O	1.160160	-0.244384	0.497924
N35	N	0.659072	-0.672333	-0.074115
N36	N	1.159072	-0.172333	0.425885
C37	C	0.627272	-0.633382	-0.113041
C38	C	1.127272	-0.133382	0.386959
O39	O	0.660170	-0.600259	-0.146148
O40	O	1.160170	-0.100259	0.353852
C41	C	0.563665	-0.633377	-0.113042
C42	C	1.063665	-0.133377	0.386958
C43	C	0.531858	-0.672326	-0.074120
C44	C	1.031858	-0.172326	0.425880
C45	C	0.531846	-0.750217	0.003723
C46	C	1.031846	-0.250217	0.503723
C47	C	0.468243	-0.750215	0.003719
C48	C	0.968243	-0.250215	0.503719
C49	C	0.436447	-0.711268	-0.035205
C50	C	0.936447	-0.211268	0.464795
C51	C	0.468255	-0.672324	-0.074125
C52	C	0.968255	-0.172324	0.425875
C53	C	0.531866	-0.594424	-0.151965
C54	C	1.031866	-0.094424	0.348035
C55	C	0.468256	-0.594422	-0.151962
C56	C	0.968256	-0.094422	0.348038
C57	C	0.436448	-0.633370	-0.113040
C58	C	0.936448	-0.133370	0.386960
C59	C	0.372856	-0.633374	-0.113054
C60	C	0.872856	-0.133374	0.386946
N61	N	0.341045	-0.672317	-0.074130
N62	N	0.841045	-0.172317	0.425870
C63	C	0.372841	-0.711263	-0.035206
C64	C	0.872841	-0.211263	0.464794
C65	C	0.760850	-0.633395	-0.113036
C66	C	1.260850	-0.133395	0.386964
C67	C	0.824455	-0.633402	-0.113039
C68	C	1.324455	-0.133402	0.386961
C69	C	0.824440	-0.711294	-0.035188
C70	C	1.324440	-0.211294	0.464812
C71	C	0.760833	-0.711290	-0.035189
C72	C	1.260833	-0.211290	0.464811
C73	C	0.729039	-0.672337	-0.074113
C74	C	1.229039	-0.172337	0.425887
C75	C	0.239269	-0.711256	-0.035220
C76	C	0.739269	-0.211256	0.464780
C77	C	0.175660	-0.711252	-0.035229
C78	C	0.675660	-0.211252	0.464771
C79	C	0.175681	-0.633358	-0.113077
C80	C	0.675681	-0.133358	0.386923
C81	C	0.239284	-0.633364	-0.113070
C82	C	0.739284	-0.133364	0.386930
C83	C	0.271077	-0.672315	-0.074136
C84	C	0.771077	-0.172315	0.425864
O85	O	0.339916	-0.600282	-0.146151
O86	O	0.839916	-0.100282	0.353849
O87	O	0.339935	-0.744376	-0.002100
O88	O	0.839935	-0.244376	0.497900
C89	C	0.000074	-0.677071	0.030013
C90	C	0.500074	-0.177071	0.530013
C91	C	0.000078	-0.676305	0.093230
C92	C	0.500078	-0.176305	0.593230
C93	C	0.000071	-0.776472	-0.069388
C94	C	0.500071	-0.276472	0.430612
C95	C	0.000073	-0.839689	-0.070154
C96	C	0.500073	-0.339689	0.429846
C97	C	0.000063	-0.105856	-0.125350
C98	C	0.500063	0.394144	0.374650
C99	C	0.000067	-0.046456	-0.124638
C100	C	0.500067	0.453544	0.375362
O101	O	0.000083	-0.009711	-0.168424
O102	O	0.500083	0.490289	0.331576
N103	N	0.000073	-0.023830	-0.072362
N104	N	0.500073	0.476170	0.427638
C105	C	0.000082	-0.060607	-0.020794
C106	C	0.500082	0.439393	0.479206
O107	O	0.000088	-0.035908	0.023737
O108	O	0.500088	0.464092	0.523737
C109	C	0.000082	-0.120006	-0.021506
C110	C	0.500082	0.379994	0.478494
C111	C	0.000070	-0.142629	-0.073785
C112	C	0.500070	0.357371	0.426215
C113	C	0.000051	-0.128479	-0.177625
C114	C	0.500051	0.371521	0.322375
C115	C	0.000046	-0.187876	-0.178336
C116	C	0.500046	0.312124	0.321664
C117	C	0.000053	-0.224649	-0.126772
C118	C	0.500053	0.275351	0.373228
C119	C	0.000065	-0.202025	-0.074497
C120	C	0.500065	0.297975	0.425503
C121	C	0.000096	-0.156783	0.030062
C122	C	0.500096	0.343217	0.530062
C123	C	0.000097	-0.216185	0.029345
C124	C	0.500097	0.283815	0.529345
C125	C	0.000084	-0.238808	-0.022934
C126	C	0.500084	0.261192	0.477066
C127	C	0.000067	-0.298194	-0.023643
C128	C	0.500067	0.201806	0.476357
N129	N	0.000061	-0.320820	-0.075920
N130	N	0.500061	0.179180	0.424080
C131	C	0.000054	-0.284048	-0.127484
C132	C	0.500054	0.215952	0.372516
C133	C	0.000082	0.064135	-0.019302
C134	C	0.500082	0.564135	0.480698
C135	C	0.000077	0.123533	-0.018589
C136	C	0.500077	0.623533	0.481411
C137	C	0.000063	0.137680	-0.122434
C138	C	0.500063	0.637680	0.377566
C139	C	0.000064	0.078281	-0.123146
C140	C	0.500064	0.578281	0.376854
C141	C	0.000076	0.041509	-0.071578
C142	C	0.500076	0.541509	0.428422
C143	C	0.000043	-0.408784	-0.128974
C144	C	0.500043	0.091216	0.371026
C145	C	0.000035	-0.468186	-0.129680
C146	C	0.500035	0.031814	0.370320
C147	C	0.000052	-0.482329	-0.025836
C148	C	0.500052	0.017671	0.474164
C149	C	0.000057	-0.422932	-0.025129
C150	C	0.500057	0.077068	0.474871
C151	C	0.000054	-0.386160	-0.076702
C152	C	0.500054	0.113840	0.423298
O153	O	0.000054	-0.334974	0.020119
O154	O	0.500054	0.165026	0.520119
O155	O	0.000055	-0.308755	-0.172007
O156	O	0.500055	0.191245	0.327993
C157	C	0.000046	-0.667577	-0.178283
C158	C	0.500046	-0.167577	0.321717
C159	C	0.000037	-0.668343	-0.241500
C160	C	0.500037	-0.168343	0.258500
C161	C	0.000050	-0.723539	0.492333
C162	C	0.500050	-0.223539	0.992333
C163	C	0.000046	-0.722827	0.551733
C164	C	0.500046	-0.222827	1.051733
O165	O	0.000028	-0.766613	0.588478
O166	O	0.500028	-0.266613	1.088478
N167	N	0.000040	-0.670551	0.574359
N168	N	0.500040	-0.170551	1.074359
C169	C	0.000033	-0.618983	0.537582
C170	C	0.500033	-0.118983	1.037582
O171	O	0.000027	-0.574452	0.562281
O172	O	0.500027	-0.074452	1.062281
C173	C	0.000033	-0.619695	0.478182
C174	C	0.500033	-0.119695	0.978182
C175	C	0.000045	-0.671974	0.455560
C176	C	0.500045	-0.171974	0.955560
C177	C	0.000061	-0.775814	0.469710
C178	C	0.500061	-0.275814	0.969710
C179	C	0.000067	-0.776525	0.410313
C180	C	0.500067	-0.276525	0.910313
C181	C	0.000062	-0.724961	0.373540
C182	C	0.500062	-0.224961	0.873540
C183	C	0.000051	-0.672685	0.396164
C184	C	0.500051	-0.172685	0.896164
C185	C	0.000022	-0.568127	0.441406
C186	C	0.500022	-0.068127	0.941406
C187	C	0.000022	-0.568844	0.382004
C188	C	0.500022	-0.068844	0.882004
C189	C	0.000034	-0.621123	0.359381
C190	C	0.500034	-0.121123	0.859381
C191	C	0.000052	-0.621832	0.299995
C192	C	0.500052	-0.121832	0.799995
N193	N	0.000057	-0.674109	0.277368
N194	N	0.500057	-0.174109	0.777368
C195	C	0.000062	-0.725673	0.314141
C196	C	0.500062	-0.225673	0.814141
C197	C	0.000031	-0.617491	0.662324
C198	C	0.500031	-0.117491	1.162324
C199	C	0.000035	-0.616778	0.721722
C200	C	0.500035	-0.116778	1.221722
C201	C	0.000047	-0.720623	0.735869
C202	C	0.500047	-0.220623	1.235869
C203	C	0.000047	-0.721335	0.676470
C204	C	0.500047	-0.221335	1.176470
C205	C	0.000037	-0.669767	0.639698
C206	C	0.500037	-0.169767	1.139698
C207	C	0.000075	-0.727163	0.189405
C208	C	0.500075	-0.227163	0.689405
C209	C	0.000083	-0.727869	0.130003
C210	C	0.500083	-0.227869	0.630003
C211	C	0.000069	-0.624025	0.115860
C212	C	0.500069	-0.124025	0.615860
C213	C	0.000064	-0.623318	0.175257
C214	C	0.500064	-0.123318	0.675257
C215	C	0.000065	-0.674891	0.212029
C216	C	0.500065	-0.174891	0.712029
O217	O	0.000067	-0.578070	0.263215
O218	O	0.500067	-0.078070	0.763215
O219	O	0.000060	-0.770196	0.289433
O220	O	0.500060	-0.270196	0.789433
H221	H	0.149765	-0.742971	-0.003534
H222	H	0.649765	-0.242971	0.496466
Br223	Br	0.000062	-0.552367	0.205961
Br224	Br	0.500062	-0.052367	0.705961
H225	H	0.000013	-0.526850	0.352066
H226	H	0.500013	-0.026850	0.852066
H227	H	0.000094	-0.770443	0.111587
H228	H	0.500094	-0.270443	0.611587
Br229	Br	0.575021	-0.541563	-0.204790
Br230	Br	1.075021	-0.041563	0.295210
H231	H	0.265148	-0.742973	-0.003516
H232	H	0.765148	-0.242973	0.496484
H233	H	0.000078	0.141947	0.023982
H234	H	0.500078	0.641947	0.523982
H235	H	0.442372	-0.562700	-0.183658
H236	H	0.942372	-0.062700	0.316342
Br237	Br	0.000076	-0.797156	0.239299
Br238	Br	0.500076	-0.297156	0.739299
Br239	Br	0.000047	0.047586	-0.194099
Br240	Br	0.500047	0.547586	0.305901
H241	H	0.850339	-0.743006	-0.003493
H242	H	1.350339	-0.243006	0.496507
H243	H	0.000074	-0.819097	0.391900
H244	H	0.500074	-0.319097	0.891900
Br245	Br	0.000063	-0.532246	0.044141
Br246	Br	0.500063	-0.032246	0.544141
Br247	Br	0.717706	-0.580529	-0.165870
Br248	Br	1.217706	-0.080529	0.334130
Br249	Br	0.000032	-0.218568	-0.249291
Br250	Br	0.500032	0.281432	0.250709
Br251	Br	0.000076	-0.392228	0.045822
Br252	Br	0.500076	0.107772	0.545822
H253	H	0.000106	-0.138375	0.072634
H254	H	0.500106	0.361625	0.572634
Br255	Br	0.000068	-0.845804	0.519606
Br256	Br	0.500068	-0.345804	1.019606
Br257	Br	0.000064	-0.792288	0.645775
Br258	Br	0.500064	-0.292288	1.145775
Br259	Br	0.717673	-0.764150	0.017636
Br260	Br	1.217673	-0.264150	0.517636
H261	H	0.557728	-0.781933	0.035423
H262	H	1.057728	-0.281933	0.535423
Br263	Br	0.132520	-0.580505	-0.165903
Br264	Br	0.632520	-0.080505	0.334097
H265	H	0.000048	-0.762610	0.765821
H266	H	0.500048	-0.262610	1.265821
H267	H	0.850348	-0.601692	-0.144738
H268	H	1.350348	-0.101692	0.355262
H269	H	0.000086	0.034198	0.022693
H270	H	0.500086	0.534198	0.522693
H271	H	0.000036	-0.574207	0.740136
H272	H	0.500036	-0.074207	1.240136
Br273	Br	0.000023	-0.547499	0.612424
Br274	Br	0.500023	-0.047499	1.112424
H275	H	0.265183	-0.601654	-0.144769
H276	H	0.765183	-0.101654	0.355231
H277	H	0.000025	-0.486602	-0.172255
H278	H	0.500025	0.013398	0.327745
H279	H	0.000009	-0.525555	0.459814
H280	H	0.500009	-0.025555	0.959814
H281	H	0.442349	-0.781929	0.035414
H282	H	0.942349	-0.281929	0.535414
H283	H	0.000060	0.167632	-0.164421
H284	H	0.500060	0.667632	0.335579
H285	H	0.000067	-0.582043	0.085909
H286	H	0.500067	-0.082043	0.585909
Br287	Br	0.000116	-0.266088	0.099335
Br288	Br	0.500116	0.233912	0.599335
Br289	Br	0.000042	-0.078583	-0.247615
Br290	Br	0.500042	0.421417	0.252385
Br291	Br	0.000040	-0.358890	-0.198967
Br292	Br	0.500040	0.141110	0.301033
