data_functionalizedCrystal
_audit_creation_method	'MofGen! by Chris Wilmer'
_symmetry_space_group_name_H-M	'P1'
_symmetry_Int_Tables_number	1
_symmetry_cell_setting	triclinic
loop_
_symmetry_equiv_pos_as_xyz
  x,y,z
_cell_length_a	29.839131
_cell_length_b	18.215407
_cell_length_c	18.215399
_cell_angle_alpha	90.014769
_cell_angle_beta	89.966717
_cell_angle_gamma	89.962959
loop_
_atom_site_label
_atom_site_type_symbol
_atom_site_fract_x
_atom_site_fract_y
_atom_site_fract_z
Zn1	Zn	-0.178900	-1.124965	-0.416060
Zn2	Zn	0.321100	-0.624965	0.083940
Zn3	Zn	-0.254032	-1.124845	-0.292988
Zn4	Zn	0.245968	-0.624845	0.207012
Zn5	Zn	-0.178911	-1.001905	-0.293012
Zn6	Zn	0.321089	-0.501905	0.206988
Zn7	Zn	-0.253998	-1.001828	-0.416017
Zn8	Zn	0.246002	-0.501828	0.083983
O9	O	-0.216460	-1.063386	-0.354519
O10	O	0.283540	-0.563386	0.145481
O11	O	-0.188876	-1.227934	-0.399743
O12	O	0.311124	-0.727934	0.100257
O13	O	-0.244087	-1.108518	-0.190007
O14	O	0.255913	-0.608518	0.309993
O15	O	-0.116043	-1.018311	-0.309363
O16	O	0.383957	-0.518311	0.190637
O17	O	-0.244075	-1.227845	-0.309322
O18	O	0.255925	-0.727845	0.190678
O19	O	-0.116034	-1.108724	-0.399766
O20	O	0.383966	-0.608724	0.100234
O21	O	-0.188896	-1.018194	-0.190025
O22	O	0.311104	-0.518194	0.309975
O23	O	-0.188862	-0.898910	-0.309321
O24	O	0.311138	-0.398910	0.190679
O25	O	-0.244017	-1.018181	-0.519007
O26	O	0.255983	-0.518181	-0.019007
O27	O	-0.244028	-0.898854	-0.399692
O28	O	0.255972	-0.398854	0.100308
O29	O	-0.188842	-1.108650	-0.519039
O30	O	0.311158	-0.608650	-0.019039
O31	O	-0.316895	-1.108444	-0.309280
O32	O	0.183105	-0.608444	0.190720
O33	O	-0.316869	-1.018064	-0.399669
O34	O	0.183131	-0.518064	0.100331
C35	C	-0.216443	-0.872180	-0.354505
C36	C	0.283557	-0.372180	0.145495
C37	C	-0.216446	-0.790381	-0.354517
C38	C	0.283554	-0.290381	0.145483
C39	C	-0.187759	-0.602232	-0.401672
C40	C	0.312241	-0.102232	0.098328
C41	C	-0.187762	-0.525373	-0.401674
C42	C	0.312238	-0.025373	0.098326
C43	C	-0.245155	-0.525292	-0.307373
C44	C	0.254845	-0.025292	0.192627
C45	C	-0.245150	-0.602149	-0.307368
C46	C	0.254850	-0.102149	0.192632
C47	C	-0.216453	-0.640617	-0.354521
C48	C	0.283547	-0.140617	0.145479
C49	C	-0.216460	-0.486901	-0.354528
C50	C	0.283540	0.013099	0.145472
C51	C	-0.216463	-0.403567	-0.354530
C52	C	0.283537	0.096433	0.145470
C53	C	-0.216449	-0.723956	-0.354519
C54	C	0.283551	-0.223956	0.145481
C55	C	-0.333183	-1.063253	-0.354483
C56	C	0.166817	-0.563253	0.145517
C57	C	-0.383117	-1.063263	-0.354492
C58	C	0.116883	-0.563263	0.145508
C59	C	-0.692761	-1.110532	-0.307523
C60	C	-0.192761	-0.610532	0.192477
C61	C	-0.880434	-1.110623	-0.307551
C62	C	-0.380434	-0.610623	0.192449
O63	O	-0.904699	-1.150707	-0.267588
O64	O	-0.404699	-0.650707	0.232412
N65	N	-0.903902	-1.063538	-0.354575
N66	N	-0.403902	-0.563538	0.145425
C67	C	-0.880449	-1.016431	-0.401598
C68	C	-0.380449	-0.516431	0.098402
O69	O	-0.904717	-0.976390	-0.441601
O70	O	-0.404717	-0.476390	0.058399
C71	C	-0.692777	-1.016345	-0.401573
C72	C	-0.192777	-0.516345	0.098427
C73	C	-0.669311	-1.063427	-0.354541
C74	C	-0.169311	-0.563427	0.145459
C75	C	-0.669295	-1.157611	-0.260495
C76	C	-0.169295	-0.657611	0.239505
C77	C	-0.622380	-1.157585	-0.260485
C78	C	-0.122380	-0.657585	0.239515
C79	C	-0.598930	-1.110480	-0.307504
C80	C	-0.098930	-0.610480	0.192496
C81	C	-0.622396	-1.063401	-0.354531
C82	C	-0.122396	-0.563401	0.145469
C83	C	-0.669325	-0.969242	-0.448600
C84	C	-0.169325	-0.469242	0.051400
C85	C	-0.622404	-0.969226	-0.448590
C86	C	-0.122404	-0.469226	0.051410
C87	C	-0.598938	-1.016308	-0.401558
C88	C	-0.098938	-0.516308	0.098442
C89	C	-0.552031	-1.016270	-0.401540
C90	C	-0.052031	-0.516270	0.098460
N91	N	-0.528563	-1.063354	-0.354516
N92	N	-0.028563	-0.563354	0.145484
C93	C	-0.552012	-1.110459	-0.307498
C94	C	-0.052012	-0.610459	0.192502
C95	C	-0.978980	-1.016479	-0.401607
C96	C	-0.478980	-0.516479	0.098393
C97	C	-1.025898	-1.016500	-0.401613
C98	C	-0.525898	-0.516500	0.098387
C99	C	-1.025879	-1.110692	-0.307566
C100	C	-0.525879	-0.610692	0.192434
C101	C	-0.978961	-1.110668	-0.307558
C102	C	-0.478961	-0.610668	0.192442
C103	C	-0.955512	-1.063564	-0.354584
C104	C	-0.455512	-0.563564	0.145416
C105	C	-0.453487	-1.110401	-0.307481
C106	C	0.046513	-0.610401	0.192519
C107	C	-0.406567	-1.110368	-0.307474
C108	C	0.093433	-0.610368	0.192526
C109	C	-0.406589	-1.016179	-0.401523
C110	C	0.093411	-0.516179	0.098477
C111	C	-0.453505	-1.016208	-0.401528
C112	C	0.046495	-0.516208	0.098472
C113	C	-0.476952	-1.063325	-0.354505
C114	C	0.023048	-0.563325	0.145495
O115	O	-0.527737	-0.976213	-0.441488
O116	O	-0.027737	-0.476213	0.058512
O117	O	-0.527737	-1.150506	-0.267513
O118	O	-0.027737	-0.650506	0.232487
C119	C	-0.739677	-1.110558	-0.307532
C120	C	-0.239677	-0.610558	0.192468
C121	C	-0.763142	-1.063479	-0.354560
C122	C	-0.263142	-0.563479	0.145440
C123	C	-0.739693	-1.016374	-0.401578
C124	C	-0.239693	-0.516374	0.098422
C125	C	-0.810060	-1.063500	-0.354565
C126	C	-0.310060	-0.563500	0.145435
C127	C	-0.833510	-1.110605	-0.307547
C128	C	-0.333510	-0.610605	0.192453
C129	C	-0.810042	-1.157689	-0.260523
C130	C	-0.310042	-0.657689	0.239477
C131	C	-0.763126	-1.157663	-0.260514
C132	C	-0.263126	-0.657663	0.239486
C133	C	-0.763161	-0.969290	-0.448602
C134	C	-0.263161	-0.469290	0.051398
C135	C	-0.810076	-0.969319	-0.448607
C136	C	-0.310076	-0.469319	0.051393
C137	C	-0.833526	-1.016424	-0.401589
C138	C	-0.333526	-0.516424	0.098411
C139	C	-0.099282	-1.063539	-0.354572
C140	C	0.400718	-0.563539	0.145428
C141	C	-0.049347	-1.063605	-0.354595
C142	C	0.450653	-0.563605	0.145405
C143	C	-0.216424	-1.063421	-0.546472
C144	C	0.283576	-0.563421	-0.046472
C145	C	-0.216409	-1.063435	-0.628271
C146	C	0.283591	-0.563435	-0.128271
C147	C	-0.216473	-0.255339	-0.354532
C148	C	0.283527	0.244661	0.145468
C149	C	-0.216466	-0.337138	-0.354533
C150	C	0.283534	0.162862	0.145467
C151	C	-0.187652	-1.016444	-0.816476
C152	C	0.312348	-0.516444	-0.316476
C153	C	-0.187643	-1.016456	-0.893334
C154	C	0.312357	-0.516456	-0.393334
C155	C	-0.245113	-1.110515	-0.893305
C156	C	0.254887	-0.610515	-0.393305
C157	C	-0.245124	-1.110498	-0.816448
C158	C	0.254876	-0.610498	-0.316448
C159	C	-0.216391	-1.063463	-0.778035
C160	C	0.283609	-0.563463	-0.278035
C161	C	-0.216371	-1.063493	-0.931751
C162	C	0.283629	-0.563493	-0.431751
C163	C	-0.216361	-1.063508	-1.015085
C164	C	0.283639	-0.563508	-0.515085
C165	C	-0.216401	-1.063448	-0.694696
C166	C	0.283599	-0.563448	-0.194696
C167	C	-0.216464	-1.063394	-0.163313
C168	C	0.283536	-0.563394	0.336687
C169	C	-0.216352	-1.063521	-0.081515
C170	C	0.283648	-0.563521	0.418485
H171	H	-0.387463	-1.148708	-0.269172
H172	H	0.112537	-0.648708	0.230828
O173	O	-0.273018	-0.487809	-0.261644
O174	O	0.226982	0.012191	0.238356
C175	C	-0.298444	-0.369370	-0.219830
C176	C	0.201556	0.130630	0.280170
C177	C	-0.266872	-0.411725	-0.271666
C178	C	0.233128	0.088275	0.228334
H179	H	-0.293480	-0.307850	-0.227903
H180	H	0.206520	0.192150	0.272097
H181	H	-0.334688	-0.384400	-0.232648
H182	H	0.165312	0.115600	0.267352
H183	H	-0.290515	-0.384513	-0.160518
H184	H	0.209485	0.115487	0.339482
H185	H	-0.274761	-0.396606	-0.330995
H186	H	0.225239	0.103394	0.169005
H187	H	-0.230638	-0.396692	-0.258785
H188	H	0.269362	0.103308	0.241215
H189	H	-0.268506	-1.148810	-0.924590
H190	H	0.231494	-0.648810	-0.424590
O191	O	-0.273028	-1.156107	-0.778988
O192	O	0.226972	-0.656107	-0.278988
C193	C	-0.298495	-1.197791	-0.660568
C194	C	0.201505	-0.697791	-0.160568
C195	C	-0.266878	-1.146096	-0.702900
C196	C	0.233122	-0.646096	-0.202900
H197	H	-0.293527	-1.189725	-0.599044
H198	H	0.206473	-0.689725	-0.099044
H199	H	-0.334727	-1.184824	-0.675603
H200	H	0.165273	-0.684824	-0.175603
H201	H	-0.290614	-1.257138	-0.675727
H202	H	0.209386	-0.757138	-0.175727
H203	H	-0.274719	-1.086731	-0.687764
H204	H	0.225281	-0.586731	-0.187764
H205	H	-0.230656	-1.159126	-0.687862
H206	H	0.269344	-0.659126	-0.187862
H207	H	-0.744071	-0.930932	-0.486891
H208	H	-0.244071	-0.430932	0.013109
O209	O	-0.159843	-0.488052	-0.447373
O210	O	0.340157	0.011948	0.052627
C211	C	-0.099218	-0.401304	-0.457466
C212	C	0.400782	0.098696	0.042534
C213	C	-0.130803	-0.443537	-0.405625
C214	C	0.369197	0.056463	0.094375
H215	H	-0.075738	-0.365292	-0.423734
H216	H	0.424262	0.134708	0.076266
H217	H	-0.078676	-0.441970	-0.491152
H218	H	0.421324	0.058030	0.008848
H219	H	-0.119886	-0.365347	-0.495900
H220	H	0.380114	0.134653	0.004100
H221	H	-0.110170	-0.479495	-0.367146
H222	H	0.389830	0.020505	0.132854
H223	H	-0.151347	-0.402832	-0.371991
H224	H	0.348653	0.097168	0.128009
O225	O	-0.273067	-0.639328	-0.261540
O226	O	0.226933	-0.139328	0.238460
C227	C	-0.329974	-0.631143	-0.167975
C228	C	0.170026	-0.131143	0.332025
C229	C	-0.298392	-0.588947	-0.219848
C230	C	0.201608	-0.088947	0.280152
H231	H	-0.350451	-0.590429	-0.134243
H232	H	0.149549	-0.090429	0.365757
H233	H	-0.353517	-0.667097	-0.201657
H234	H	0.146483	-0.167097	0.298343
H235	H	-0.309309	-0.667151	-0.129586
H236	H	0.190691	-0.167151	0.370414
H237	H	-0.319021	-0.552899	-0.258248
H238	H	0.180979	-0.052899	0.241752
H239	H	-0.274848	-0.553039	-0.186122
H240	H	0.225152	-0.053039	0.313878
H241	H	-0.164255	-0.978145	-0.785202
H242	H	0.335745	-0.478145	-0.285202
O243	O	-0.159840	-0.639487	-0.447495
O244	O	0.340160	-0.139487	0.052505
C245	C	-0.102933	-0.631452	-0.541059
C246	C	0.397067	-0.131452	-0.041059
C247	C	-0.134523	-0.589172	-0.489190
C248	C	0.365477	-0.089172	0.010810
H249	H	-0.082463	-0.590791	-0.574794
H250	H	0.417537	-0.090791	-0.074794
H251	H	-0.079385	-0.667425	-0.507375
H252	H	0.420615	-0.167425	-0.007375
H253	H	-0.123593	-0.667447	-0.579447
H254	H	0.376407	-0.167447	-0.079447
H255	H	-0.113900	-0.553137	-0.450792
H256	H	0.386100	-0.053137	0.049208
H257	H	-0.158072	-0.553245	-0.522919
H258	H	0.341928	-0.053245	-0.022919
O259	O	-0.476275	-1.156256	-0.261912
O260	O	0.023725	-0.656256	0.238088
C261	C	-0.529193	-1.255649	-0.252108
C262	C	-0.029193	-0.755649	0.247892
C263	C	-0.503408	-1.203774	-0.303798
C264	C	-0.003408	-0.703774	0.196202
H265	H	-0.551143	-1.294069	-0.285952
H266	H	-0.051143	-0.794069	0.214048
H267	H	-0.504371	-1.289341	-0.218519
H268	H	-0.004371	-0.789341	0.281481
H269	H	-0.551178	-1.221898	-0.213576
H270	H	-0.051178	-0.721898	0.286424
H271	H	-0.481423	-1.237467	-0.342375
H272	H	0.018577	-0.737467	0.157625
H273	H	-0.528254	-1.170079	-0.337336
H274	H	-0.028254	-0.670079	0.162664
O275	O	-0.599658	-1.203398	-0.214782
O276	O	-0.099658	-0.703398	0.285218
C277	C	-0.604610	-1.296805	-0.121483
C278	C	-0.104610	-0.796805	0.378517
C279	C	-0.630393	-1.244965	-0.173215
C280	C	-0.130393	-0.744965	0.326785
H281	H	-0.629448	-1.330414	-0.087851
H282	H	-0.129448	-0.830414	0.412149
H283	H	-0.582623	-1.335305	-0.155268
H284	H	-0.082623	-0.835305	0.344732
H285	H	-0.582665	-1.263031	-0.082993
H286	H	-0.082665	-0.763031	0.417007
H287	H	-0.652362	-1.278680	-0.211715
H288	H	-0.152362	-0.778680	0.288285
H289	H	-0.652352	-1.206463	-0.139383
H290	H	-0.152352	-0.706463	0.360617
O291	O	-0.832770	-1.203559	-0.214887
O292	O	-0.332770	-0.703559	0.285113
C293	C	-0.847081	-1.328783	-0.179329
C294	C	-0.347081	-0.828783	0.320671
C295	C	-0.821306	-1.276913	-0.231039
C296	C	-0.321306	-0.776913	0.268961
H297	H	-0.837828	-1.388101	-0.192380
H298	H	-0.337828	-0.888101	0.307620
H299	H	-0.837881	-1.315962	-0.119960
H300	H	-0.337881	-0.815962	0.380040
H301	H	-0.884643	-1.320681	-0.187400
H302	H	-0.384643	-0.820681	0.312600
H303	H	-0.783738	-1.284986	-0.223033
H304	H	-0.283738	-0.784986	0.276967
H305	H	-0.830543	-1.289747	-0.290389
H306	H	-0.330543	-0.789747	0.209611
H307	H	-0.688383	-1.195974	-0.222207
H308	H	-0.188383	-0.695974	0.277793
O309	O	-0.956238	-1.156475	-0.261850
O310	O	-0.456238	-0.656475	0.238150
C311	C	-0.961184	-1.249866	-0.168534
C312	C	-0.461184	-0.749866	0.331466
C313	C	-0.986971	-1.198036	-0.220274
C314	C	-0.486971	-0.698036	0.279726
H315	H	-0.986021	-1.283471	-0.134895
H316	H	-0.486021	-0.783471	0.365105
H317	H	-0.939197	-1.288370	-0.202314
H318	H	-0.439197	-0.788370	0.297686
H319	H	-0.939240	-1.216083	-0.130051
H320	H	-0.439240	-0.716083	0.369949
H321	H	-1.008939	-1.231760	-0.258767
H322	H	-0.508939	-0.731760	0.241233
H323	H	-1.008930	-1.159530	-0.186448
H324	H	-0.508930	-0.659530	0.313552
H325	H	-1.044999	-0.978154	-0.439904
H326	H	-0.544999	-0.478154	0.060096
O327	O	-1.048732	-1.156472	-0.262006
O328	O	-0.548732	-0.656472	0.237994
C329	C	-1.121010	-1.198312	-0.220422
C330	C	-0.621010	-0.698312	0.279578
C331	C	-1.095183	-1.146413	-0.272032
C332	C	-0.595183	-0.646413	0.227968
H333	H	-1.158570	-1.190187	-0.228499
H334	H	-0.658570	-0.690187	0.271501
H335	H	-1.111763	-1.257636	-0.233463
H336	H	-0.611763	-0.757636	0.266537
H337	H	-1.111813	-1.185498	-0.161052
H338	H	-0.611813	-0.685498	0.338948
H339	H	-1.104366	-1.159161	-0.331420
H340	H	-0.604366	-0.659161	0.168580
H341	H	-1.104433	-1.087105	-0.258928
H342	H	-0.604433	-0.587105	0.241072
O343	O	-0.956274	-0.970644	-0.447309
O344	O	-0.456274	-0.470644	0.052691
C345	C	-0.961256	-0.877243	-0.540612
C346	C	-0.461256	-0.377243	-0.040612
C347	C	-0.987023	-0.929106	-0.488885
C348	C	-0.487023	-0.429106	0.011115
H349	H	-0.986105	-0.843657	-0.574250
H350	H	-0.486105	-0.343657	-0.074250
H351	H	-0.939340	-0.838723	-0.506822
H352	H	-0.439340	-0.338723	-0.006822
H353	H	-0.939243	-0.910998	-0.579096
H354	H	-0.439243	-0.410998	-0.079096
H355	H	-1.009061	-0.895410	-0.450391
H356	H	-0.509061	-0.395410	0.049609
H357	H	-1.008911	-0.967628	-0.522721
H358	H	-0.508911	-0.467628	-0.022721
O359	O	-0.692042	-0.923485	-0.494359
O360	O	-0.192042	-0.423485	0.005641
C361	C	-0.687088	-0.830039	-0.587620
C362	C	-0.187088	-0.330039	-0.087620
C363	C	-0.661306	-0.881836	-0.535842
C364	C	-0.161306	-0.381836	-0.035842
H365	H	-0.662249	-0.796342	-0.621161
H366	H	-0.162249	-0.296342	-0.121161
H367	H	-0.709005	-0.863778	-0.626186
H368	H	-0.209005	-0.363778	-0.126186
H369	H	-0.709103	-0.791614	-0.553801
H370	H	-0.209103	-0.291614	-0.053801
H371	H	-0.639267	-0.920272	-0.569602
H372	H	-0.139267	-0.420272	-0.069602
H373	H	-0.639418	-0.848051	-0.497274
H374	H	-0.139418	-0.348051	0.002726
O375	O	-0.599605	-0.923572	-0.494350
O376	O	-0.099605	-0.423572	0.005650
C377	C	-0.546579	-0.913583	-0.593664
C378	C	-0.046579	-0.413583	-0.093664
C379	C	-0.572377	-0.965369	-0.541902
C380	C	-0.072377	-0.465369	-0.041902
H381	H	-0.524551	-0.947354	-0.632112
H382	H	-0.024551	-0.447354	-0.132112
H383	H	-0.571391	-0.879952	-0.627331
H384	H	-0.071391	-0.379952	-0.127331
H385	H	-0.524670	-0.875095	-0.559825
H386	H	-0.024670	-0.375095	-0.059825
H387	H	-0.594286	-1.003901	-0.575684
H388	H	-0.094286	-0.503901	-0.075684
H389	H	-0.547540	-0.998948	-0.508232
H390	H	-0.047540	-0.498948	-0.008232
O391	O	-0.159682	-0.970760	-0.930562
O392	O	0.340318	-0.470760	-0.430562
C393	C	-0.102698	-0.877436	-0.922475
C394	C	0.397302	-0.377436	-0.422475
C395	C	-0.134334	-0.929166	-0.880224
C396	C	0.365666	-0.429166	-0.380224
H397	H	-0.082203	-0.843783	-0.881795
H398	H	0.417797	-0.343783	-0.381795
H399	H	-0.079176	-0.911225	-0.958454
H400	H	0.420824	-0.411225	-0.458454
H401	H	-0.123323	-0.838966	-0.958462
H402	H	0.376677	-0.338966	-0.458462
H403	H	-0.113745	-0.967646	-0.844197
H404	H	0.386255	-0.467646	-0.344197
H405	H	-0.157858	-0.895331	-0.844291
H406	H	0.342142	-0.395331	-0.344291
H407	H	-0.472612	-0.977872	-0.439827
H408	H	0.027388	-0.477872	0.060173
H409	H	-0.744024	-1.196002	-0.222216
H410	H	-0.244024	-0.696002	0.277784
O411	O	-0.383784	-0.970532	-0.447274
O412	O	0.116216	-0.470532	0.052726
C413	C	-0.330748	-0.960572	-0.546578
C414	C	0.169252	-0.460572	-0.046578
C415	C	-0.356558	-1.012343	-0.494817
C416	C	0.143442	-0.512343	0.005183
H417	H	-0.308722	-0.994354	-0.585019
H418	H	0.191278	-0.494354	-0.085019
H419	H	-0.355553	-0.926934	-0.580254
H420	H	0.144447	-0.426934	-0.080254
H421	H	-0.308836	-0.922089	-0.512738
H422	H	0.191164	-0.422089	-0.012738
H423	H	-0.378470	-1.050871	-0.528599
H424	H	0.121530	-0.550871	-0.028599
H425	H	-0.331728	-1.045929	-0.461139
H426	H	0.168272	-0.545929	0.038861
O427	O	-0.832798	-0.923555	-0.494366
O428	O	-0.332798	-0.423555	0.005634
C429	C	-0.827852	-0.830107	-0.587625
C430	C	-0.327852	-0.330107	-0.087625
C431	C	-0.802065	-0.881900	-0.535849
C432	C	-0.302065	-0.381900	-0.035849
H433	H	-0.803015	-0.796404	-0.621167
H434	H	-0.303015	-0.296404	-0.121167
H435	H	-0.849766	-0.863849	-0.626191
H436	H	-0.349766	-0.363849	-0.126191
H437	H	-0.849869	-0.791686	-0.553805
H438	H	-0.349869	-0.291686	-0.053805
H439	H	-0.780024	-0.920331	-0.569610
H440	H	-0.280024	-0.420331	-0.069610
H441	H	-0.780179	-0.848112	-0.497281
H442	H	-0.280179	-0.348112	0.002719
