data_functionalizedCrystal
_audit_creation_method	'MofGen! by Chris Wilmer'
_symmetry_space_group_name_H-M	'P1'
_symmetry_Int_Tables_number	1
_symmetry_cell_setting	triclinic
loop_
_symmetry_equiv_pos_as_xyz
  x,y,z
_cell_length_a	11.026660
_cell_length_b	17.038272
_cell_length_c	10.065875
_cell_angle_alpha	99.426590
_cell_angle_beta	79.302288
_cell_angle_gamma	99.848195
loop_
_atom_site_label
_atom_site_type_symbol
_atom_site_fract_x
_atom_site_fract_y
_atom_site_fract_z
O1	O	1.661267	0.323090	-0.113512
O2	O	2.161267	0.823090	0.386488
O3	O	1.304057	0.285262	-0.113511
O4	O	1.804057	0.785262	0.386489
O5	O	1.480537	0.190062	-0.113501
O6	O	1.980537	0.690062	0.386499
O7	O	1.484786	0.418289	-0.113522
O8	O	1.984786	0.918289	0.386478
O9	O	1.446895	0.208309	0.113486
O10	O	1.946895	0.708309	0.613486
O11	O	1.270414	0.303508	0.113476
O12	O	1.770414	0.803508	0.613476
O13	O	1.627624	0.341336	0.113475
O14	O	2.127624	0.841336	0.613475
Zn15	Zn	1.443678	0.325319	0.149514
Zn16	Zn	1.943678	0.825319	0.649514
Zn17	Zn	1.488003	0.301279	-0.149550
Zn18	Zn	1.988003	0.801279	0.350450
O19	O	1.451144	0.436536	0.113465
O20	O	1.951144	0.936536	0.613465
C21	C	1.241305	0.287406	-0.000017
C22	C	1.741305	0.787406	0.499983
C23	C	1.104444	0.266602	-0.000017
C24	C	1.604444	0.766602	0.499983
C25	C	0.895116	0.302551	-0.000024
C26	C	1.395116	0.802551	0.499976
C27	C	1.036569	0.324055	-0.000024
C28	C	1.536569	0.824055	0.499976
C29	C	1.459854	0.169513	-0.000007
C30	C	1.959854	0.669513	0.499993
C31	C	1.448332	0.081096	-0.000008
C32	C	1.948332	0.581096	0.499992
C33	C	1.554115	0.045888	-0.000006
C34	C	2.054115	0.545888	0.499994
C35	C	1.543284	-0.037190	-0.000019
C36	C	2.043284	0.462810	0.499981
C37	C	1.426667	-0.085057	-0.000024
C38	C	1.926667	0.414943	0.499976
C39	C	1.320877	-0.049844	-0.000029
C40	C	1.820877	0.450156	0.499971
C41	C	1.331711	0.033232	-0.000026
C42	C	1.831711	0.533232	0.499974
C43	C	1.388394	-0.336210	-0.000042
C44	C	1.888394	0.163790	0.499958
C45	C	1.377567	-0.419291	-0.000041
C46	C	1.877567	0.080709	0.499959
C47	C	1.599976	-0.406632	-0.000034
C48	C	2.099976	0.093368	0.499966
C49	C	1.610799	-0.323554	-0.000023
C50	C	2.110799	0.176446	0.499977
C51	C	1.505009	-0.288348	-0.000035
C52	C	2.005009	0.211652	0.499965
C53	C	1.415592	-0.169976	-0.000033
C54	C	1.915592	0.330024	0.499967
C55	C	1.516087	-0.203432	-0.000036
C56	C	2.016087	0.296568	0.499964
C57	C	1.690377	0.339192	-0.000022
C58	C	2.190377	0.839192	0.499978
C59	C	1.827239	0.359995	-0.000031
C60	C	2.327239	0.859995	0.499969
C61	C	1.471827	0.457085	-0.000032
C62	C	1.971827	0.957085	0.499968
C63	C	1.483350	0.545500	-0.000040
C64	C	1.983350	1.045500	0.499960
N65	N	1.413435	0.341727	0.353618
N66	N	1.913435	0.841727	0.853618
N67	N	1.518255	0.284866	-0.353654
N68	N	2.018255	0.784866	0.146346
C69	C	1.477473	0.306981	0.421401
C70	C	1.977473	0.806981	0.921401
C71	C	1.454208	0.319617	0.578567
C72	C	1.954208	0.819617	1.078567
H73	H	0.848504	0.237453	0.000002
H74	H	1.348504	0.737453	0.500002
F75	F	1.291484	-0.220928	-0.000043
F76	F	1.791484	0.279072	0.499957
F77	F	1.712557	-0.444107	-0.000023
F78	F	2.212557	0.055893	0.499977
F79	F	1.219122	0.070703	-0.000031
F80	F	1.719122	0.570703	0.499969
H81	H	1.083172	0.389159	-0.000021
H82	H	1.583172	0.889159	0.499979
H83	H	1.057854	0.201490	-0.000101
H84	H	1.557854	0.701490	0.499899
F85	F	1.253441	-0.470233	-0.000039
F86	F	1.753441	0.029767	0.499961
F87	F	0.888153	0.445088	-0.000028
F88	F	1.388153	0.945088	0.499972
F89	F	1.678234	0.096826	0.000011
F90	F	2.178234	0.596826	0.500011
H91	H	1.382150	0.358717	0.636883
H92	H	1.882150	0.858717	1.136883
H93	H	1.590304	0.245759	0.588029
H94	H	2.090304	0.745759	1.088029
F95	F	1.734923	-0.272619	-0.000053
F96	F	2.234923	0.227381	0.499947
F97	F	1.655874	-0.074658	-0.000016
F98	F	2.155874	0.425342	0.499984
H99	H	1.225926	-0.088825	-0.000041
H100	H	1.725926	0.411175	0.499959
H101	H	1.302252	-0.307556	-0.000052
H102	H	1.802252	0.192444	0.499948
F103	F	1.319254	0.392832	0.429844
F104	F	1.819254	0.892832	0.929844
F105	F	1.640196	-0.152487	-0.000040
F106	F	2.140196	0.347513	0.499960
F107	F	1.571414	0.255701	0.345176
F108	F	2.071414	0.755701	0.845176
