data_functionalizedCrystal
_audit_creation_method	'MofGen! by Chris Wilmer'
_symmetry_space_group_name_H-M	'P1'
_symmetry_Int_Tables_number	1
_symmetry_cell_setting	triclinic
loop_
_symmetry_equiv_pos_as_xyz
  x,y,z
_cell_length_a	18.050591
_cell_length_b	18.050589
_cell_length_c	14.908308
_cell_angle_alpha	86.730870
_cell_angle_beta	93.273372
_cell_angle_gamma	89.968854
loop_
_atom_site_label
_atom_site_type_symbol
_atom_site_fract_x
_atom_site_fract_y
_atom_site_fract_z
Zn1	Zn	1.111039	0.319953	-0.510228
Zn2	Zn	1.118096	0.436989	-0.359382
Zn3	Zn	0.994019	0.312809	-0.359375
Zn4	Zn	0.986794	0.444096	-0.510177
O5	O	1.052487	0.378462	-0.434791
O6	O	1.215898	0.335494	-0.490243
O7	O	1.107614	0.414552	-0.233140
O8	O	1.009612	0.209833	-0.379404
O9	O	1.221083	0.421480	-0.379417
O10	O	1.095586	0.215082	-0.490236
O11	O	1.016455	0.323318	-0.233135
O12	O	0.889137	0.330209	-0.379354
O13	O	0.997299	0.433592	-0.636425
O14	O	0.883829	0.426665	-0.490148
O15	O	1.088580	0.342385	-0.636463
O16	O	1.100609	0.541856	-0.379367
O17	O	1.004142	0.547077	-0.490156
C18	C	0.859537	0.378434	-0.434746
C19	C	0.776991	0.378440	-0.434748
C20	C	0.531024	0.325943	-0.374640
C21	C	0.576550	0.311763	-0.456969
C22	C	0.479867	0.378482	-0.434821
C23	C	0.581424	0.392607	-0.352461
C24	C	0.625854	0.378459	-0.434781
C25	C	0.524304	0.364269	-0.517194
C26	C	0.529177	0.445141	-0.412631
C27	C	0.574678	0.430990	-0.495016
C28	C	0.395768	0.378493	-0.434844
C29	C	0.709951	0.378449	-0.434768
C30	C	1.052376	0.571413	-0.434776
C31	C	1.052395	0.653960	-0.434801
C32	C	0.999964	0.856276	-0.495027
C33	C	0.985768	0.901809	-0.412706
C34	C	1.052451	0.805091	-0.434813
C35	C	1.066666	0.906641	-0.517144
C36	C	1.052502	0.951077	-0.434832
C37	C	1.038221	0.849534	-0.352448
C38	C	1.119148	0.854365	-0.456942
C39	C	1.104981	0.899872	-0.374564
C40	C	1.052419	0.720993	-0.434803
C41	C	1.052535	1.035174	-0.434833
C42	C	1.246190	0.378491	-0.434836
C43	C	1.328735	0.378503	-0.434856
C44	C	1.041346	0.389578	-0.670092
C45	C	1.036599	0.394316	-0.770364
C46	C	1.052589	1.184758	-0.434826
C47	C	1.052560	1.102213	-0.434843
C48	C	1.122728	0.308226	-0.958825
C49	C	1.118269	0.312674	-1.053039
C50	C	1.023221	0.407657	-1.053007
C51	C	1.027679	0.403208	-0.958793
C52	C	1.077435	0.353492	-0.911706
C53	C	1.081897	0.349048	-0.817490
C54	C	0.986845	0.444026	-0.817460
C55	C	0.982386	0.448474	-0.911674
C56	C	1.063627	0.367335	-0.200405
C57	C	1.068518	0.362389	-0.100134
H58	H	0.499431	0.352246	-0.586847
O59	O	1.082573	0.939696	-0.609360
H60	H	1.038899	0.922310	-0.659198
O61	O	1.135560	0.295431	-0.766695
H62	H	1.121998	0.237997	-0.784775
O63	O	0.600019	0.489834	-0.562476
H64	H	0.576929	0.477920	-0.630729
O65	O	1.176391	0.254610	-0.908028
H66	H	1.207137	0.223879	-0.956622
H67	H	1.149392	0.918969	-0.323592
O68	O	0.505495	0.267072	-0.307333
H69	H	0.524428	0.211783	-0.325957
H70	H	0.508321	0.501505	-0.393849
H71	H	0.606388	0.404563	-0.282828
H72	H	0.597378	0.255379	-0.475737
H73	H	1.175512	0.833478	-0.475681
O74	O	0.941108	0.830775	-0.562380
H75	H	0.885818	0.849736	-0.543797
O76	O	1.167124	0.263857	-1.103866
H77	H	1.202473	0.228546	-1.055291
H78	H	0.941875	0.488950	-0.950025
H79	H	0.982712	0.448133	-1.091362
O80	O	0.937969	0.492848	-0.766657
H81	H	0.973200	0.528617	-0.723727
O82	O	0.911087	0.929456	-0.387907
H83	H	0.886722	0.966793	-0.443635
O84	O	1.022229	0.816606	-0.260202
H85	H	1.022303	0.755152	-0.260928
