data_functionalizedCrystal
_audit_creation_method	'MofGen! by Chris Wilmer'
_symmetry_space_group_name_H-M	'P1'
_symmetry_Int_Tables_number	1
_symmetry_cell_setting	triclinic
loop_
_symmetry_equiv_pos_as_xyz
  x,y,z
_cell_length_a	16.109301
_cell_length_b	14.586319
_cell_length_c	16.109301
_cell_angle_alpha	89.994786
_cell_angle_beta	96.538519
_cell_angle_gamma	90.000787
loop_
_atom_site_label
_atom_site_type_symbol
_atom_site_fract_x
_atom_site_fract_y
_atom_site_fract_z
O1	O	-1.103131	-0.076185	0.106866
O2	O	-0.769797	0.257148	0.440199
O3	O	-0.436464	0.590481	0.773533
O4	O	-0.861069	-0.076200	0.120165
O5	O	-0.527735	0.257133	0.453499
O6	O	-0.194402	0.590466	0.786832
O7	O	-0.988749	-0.076183	-0.007515
O8	O	-0.655416	0.257150	0.325818
O9	O	-0.322083	0.590484	0.659151
O10	O	-0.975450	-0.076203	0.234547
O11	O	-0.642117	0.257131	0.567880
O12	O	-0.308783	0.590464	0.901213
O13	O	-0.988741	0.076298	-0.007517
O14	O	-0.655407	0.409631	0.325816
O15	O	-0.322074	0.742964	0.659150
O16	O	-0.861060	0.076281	0.120164
O17	O	-0.527727	0.409614	0.453497
O18	O	-0.194393	0.742947	0.786830
O19	O	-1.103122	0.076295	0.106864
O20	O	-0.769789	0.409629	0.440198
O21	O	-0.436455	0.742962	0.773531
Cu22	Cu	-0.982090	0.090211	0.113514
Cu23	Cu	-0.648757	0.423544	0.446847
Cu24	Cu	-0.315423	0.756877	0.780180
Cu25	Cu	-0.982101	-0.090115	0.113516
Cu26	Cu	-0.648767	0.243218	0.446849
Cu27	Cu	-0.315434	0.576551	0.780183
O28	O	-0.975441	0.076278	0.234545
O29	O	-0.642108	0.409612	0.567878
O30	O	-0.308775	0.742945	0.901212
C31	C	-0.830090	0.000038	0.119626
C32	C	-0.496756	0.333372	0.452959
C33	C	-0.163423	0.666705	0.786292
C34	C	-0.737794	0.000033	0.118011
C35	C	-0.404461	0.333366	0.451344
C36	C	-0.071128	0.666700	0.784677
C37	C	-0.988206	0.000058	-0.038491
C38	C	-0.654873	0.333391	0.294842
C39	C	-0.321540	0.666724	0.628176
C40	C	-0.986591	0.000059	-0.130786
C41	C	-0.653258	0.333392	0.202547
C42	C	-0.319925	0.666726	0.535880
N43	N	-0.982089	0.217042	0.113512
N44	N	-0.648755	0.550376	0.446845
N45	N	-0.315422	0.883709	0.780178
C46	C	-1.134101	0.000055	0.107404
C47	C	-0.800768	0.333388	0.440737
C48	C	-0.467435	0.666722	0.774071
C49	C	-1.226397	0.000054	0.109019
C50	C	-0.893063	0.333388	0.442352
C51	C	-0.559730	0.666721	0.775686
C52	C	-0.515522	0.000038	0.190018
C53	C	-0.182188	0.333371	0.523352
C54	C	0.151145	0.666704	0.856685
C55	C	-0.428801	0.000044	0.188494
C56	C	-0.095468	0.333377	0.521828
C57	C	0.237865	0.666710	0.855161
C58	C	-0.448676	0.000052	0.037006
C59	C	-0.115342	0.333386	0.370339
C60	C	0.217991	0.666719	0.703672
C61	C	-0.535394	0.000053	0.038530
C62	C	-0.202061	0.333386	0.371864
C63	C	0.131272	0.666719	0.705197
C64	C	-0.568815	0.000041	0.115039
C65	C	-0.235482	0.333374	0.448373
C66	C	0.097852	0.666708	0.781706
C67	C	-0.395376	0.000046	0.111990
C68	C	-0.062042	0.333380	0.445324
C69	C	0.271291	0.666713	0.778657
C70	C	-0.301350	0.000053	0.110337
C71	C	0.031984	0.333386	0.443671
C72	C	0.365317	0.666720	0.777004
C73	C	-0.662847	0.000036	0.116693
C74	C	-0.329514	0.333369	0.450026
C75	C	0.003820	0.666703	0.783359
N76	N	-0.982109	-0.216947	0.113511
N77	N	-0.648775	0.116386	0.446845
N78	N	-0.315442	0.449719	0.780178
C79	C	-1.038644	0.452057	0.056994
C80	C	-0.705311	0.785390	0.390327
C81	C	-0.371978	1.118723	0.723660
C82	C	-1.038647	0.548038	0.056992
C83	C	-0.705314	0.881371	0.390325
C84	C	-0.371980	1.214704	0.723658
C85	C	-0.925547	0.548032	0.170032
C86	C	-0.592213	0.881365	0.503366
C87	C	-0.258880	1.214699	0.836699
C88	C	-0.925541	0.452052	0.170030
C89	C	-0.592208	0.785386	0.503363
C90	C	-0.258874	1.118719	0.836696
C91	C	-0.982095	0.404067	0.113511
C92	C	-0.648761	0.737401	0.446845
C93	C	-0.315428	1.070734	0.780178
C94	C	-0.982103	0.596028	0.113512
C95	C	-0.648769	0.929361	0.446845
C96	C	-0.315436	1.262695	0.780178
C97	C	-0.982105	0.700095	0.113510
C98	C	-0.648772	1.033428	0.446843
C99	C	-0.315438	1.366762	0.780177
C100	C	-0.982092	0.299993	0.113512
C101	C	-0.648758	0.633327	0.446845
C102	C	-0.315425	0.966660	0.780178
C103	C	-1.058599	0.000049	-0.353059
C104	C	-0.725266	0.333382	-0.019725
C105	C	-0.391932	0.666716	0.313608
C106	C	-1.057075	0.000041	-0.439779
C107	C	-0.723742	0.333375	-0.106446
C108	C	-0.390408	0.666708	0.226888
C109	C	-0.905586	0.000036	-0.419905
C110	C	-0.572253	0.333369	-0.086571
C111	C	-0.238919	0.666702	0.246762
C112	C	-0.907111	0.000037	-0.333186
C113	C	-0.573778	0.333370	0.000147
C114	C	-0.240444	0.666703	0.333481
C115	C	-0.983620	0.000048	-0.299766
C116	C	-0.650287	0.333381	0.033568
C117	C	-0.316953	0.666715	0.366901
C118	C	-0.980571	0.000039	-0.473205
C119	C	-0.647238	0.333373	-0.139871
C120	C	-0.313904	0.666706	0.193462
C121	C	-0.978918	0.000031	-0.567231
C122	C	-0.645585	0.333364	-0.233897
C123	C	-0.312251	0.666698	0.099436
C124	C	-0.985273	0.000055	-0.205734
C125	C	-0.651940	0.333388	0.127600
C126	C	-0.318607	0.666721	0.460933
C127	C	-0.975984	0.000035	0.265521
C128	C	-0.642651	0.333369	0.598854
C129	C	-0.309318	0.666702	0.932187
C130	C	-0.977600	0.000028	0.357816
C131	C	-0.644266	0.333362	0.691149
C132	C	-0.310933	0.666695	1.024483
H133	H	-0.542730	0.000035	0.252317
H134	H	-0.209396	0.333368	0.585650
H135	H	0.123937	0.666702	0.918983
H136	H	-0.846050	0.000033	-0.289792
H137	H	-0.512717	0.333366	0.043541
H138	H	-0.179384	0.666700	0.376874
O139	O	-0.870574	0.405572	0.225015
O140	O	-0.537241	0.738905	0.558349
O141	O	-0.203908	1.072238	0.891682
C142	C	-0.820651	0.468504	0.274891
C143	C	-0.487318	0.801837	0.608225
C144	C	-0.153984	1.135170	0.941558
H145	H	-0.854738	0.536919	0.275847
H146	H	-0.521404	0.870252	0.609180
H147	H	-0.188071	1.203585	0.942513
H148	H	-0.807946	0.440759	0.341283
H149	H	-0.474613	0.774092	0.674616
H150	H	-0.141279	1.107426	1.007950
H151	H	-0.758901	0.478721	0.247877
H152	H	-0.425567	0.812054	0.581211
H153	H	-0.092234	1.145387	0.914544
O154	O	-0.870699	0.594789	0.224905
O155	O	-0.537366	0.928122	0.558239
O156	O	-0.204033	1.261455	0.891572
C157	C	-0.882817	0.689794	0.212778
C158	C	-0.549483	1.023127	0.546111
C159	C	-0.216150	1.356461	0.879444
H160	H	-0.948923	0.702901	0.181721
H161	H	-0.615590	1.036234	0.515054
H162	H	-0.282256	1.369567	0.848388
H163	H	-0.873554	0.726262	0.275740
H164	H	-0.540220	1.059595	0.609074
H165	H	-0.206887	1.392928	0.942407
H166	H	-0.835773	0.717044	0.171067
H167	H	-0.502440	1.050377	0.504401
H168	H	-0.169107	1.383710	0.837734
O169	O	-1.132937	-0.000113	-0.320632
O170	O	-0.799603	0.333220	0.012701
O171	O	-0.466270	0.666553	0.346035
C172	C	-1.178648	-0.079075	-0.347878
C173	C	-0.845315	0.254258	-0.014545
C174	C	-0.511981	0.587591	0.318789
H175	H	-1.133908	-0.134269	-0.365898
H176	H	-0.800575	0.199064	-0.032564
H177	H	-0.467241	0.532397	0.300769
H178	H	-1.214007	-0.105585	-0.295354
H179	H	-0.880674	0.227748	0.037980
H180	H	-0.547340	0.561081	0.371313
H181	H	-1.224991	-0.061224	-0.404412
H182	H	-0.891658	0.272110	-0.071079
H183	H	-0.558324	0.605443	0.262254
O184	O	-1.129888	-0.000119	-0.491581
O185	O	-0.796555	0.333215	-0.158248
O186	O	-0.463221	0.666548	0.175086
C187	C	-1.133535	-0.079082	-0.542341
C188	C	-0.800202	0.254251	-0.209007
C189	C	-0.466868	0.587585	0.124326
H190	H	-1.091014	-0.134278	-0.510562
H191	H	-0.757680	0.199055	-0.177229
H192	H	-0.424347	0.532388	0.156104
H193	H	-1.200510	-0.105587	-0.552106
H194	H	-0.867176	0.227747	-0.218773
H195	H	-0.533843	0.561080	0.114560
H196	H	-1.112033	-0.061234	-0.605397
H197	H	-0.778699	0.272100	-0.272064
H198	H	-0.445366	0.605433	0.061269
H199	H	-0.385413	0.000043	0.249550
H200	H	-0.052080	0.333376	0.582883
H201	H	0.281254	0.666710	0.916217
O202	O	-0.831322	-0.000089	-0.452471
O203	O	-0.497988	0.333244	-0.119138
O204	O	-0.164655	0.666577	0.214195
C205	C	-0.825899	-0.079071	-0.502017
C206	C	-0.492566	0.254263	-0.168684
C207	C	-0.159233	0.587596	0.164650
H208	H	-0.891434	-0.105399	-0.523633
H209	H	-0.558101	0.227935	-0.190299
H210	H	-0.224767	0.561268	0.143034
H211	H	-0.792772	-0.061308	-0.558794
H212	H	-0.459438	0.272025	-0.225461
H213	H	-0.126105	0.605359	0.107873
H214	H	-0.789108	-0.134370	-0.463690
H215	H	-0.455775	0.198963	-0.130356
H216	H	-0.122442	0.532297	0.202977
O217	O	-0.416168	-0.000107	-0.037290
O218	O	-0.082835	0.333226	0.296044
O219	O	0.250499	0.666559	0.629377
C220	C	-0.366587	-0.079069	-0.042690
C221	C	-0.033254	0.254264	0.290644
C222	C	0.300080	0.587598	0.623977
H223	H	-0.387085	-0.134265	0.000755
H224	H	-0.053751	0.199068	0.334088
H225	H	0.279582	0.532401	0.667422
H226	H	-0.374392	-0.105575	-0.109696
H227	H	-0.041058	0.227758	0.223637
H228	H	0.292275	0.561092	0.556971
H229	H	-0.298194	-0.061218	-0.023496
H230	H	0.035139	0.272116	0.309837
H231	H	0.368472	0.605449	0.643171
O232	O	-0.587051	0.000014	-0.034386
O233	O	-0.253718	0.333347	0.298948
O234	O	0.079616	0.666681	0.632281
C235	C	-0.538960	0.000039	-0.102241
C236	C	-0.205627	0.333373	0.231092
C237	C	0.127707	0.666706	0.564425
H238	H	-0.474231	-0.028832	-0.081127
H239	H	-0.140897	0.304501	0.252207
H240	H	0.192436	0.637835	0.585540
H241	H	-0.570970	-0.044226	-0.154772
H242	H	-0.237637	0.289108	0.178561
H243	H	0.095696	0.622441	0.511894
H244	H	-0.532792	0.073193	-0.125696
H245	H	-0.199458	0.406527	0.207638
H246	H	0.133875	0.739860	0.540971
H247	H	-1.084693	0.412989	0.010972
H248	H	-0.751359	0.746323	0.344305
H249	H	-0.418026	1.079656	0.677638
H250	H	-1.084694	0.587108	0.010969
H251	H	-0.751361	0.920441	0.344302
H252	H	-0.418027	1.253775	0.677635
