data_functionalizedCrystal
_audit_creation_method	'MofGen! by Chris Wilmer'
_symmetry_space_group_name_H-M	'P1'
_symmetry_Int_Tables_number	1
_symmetry_cell_setting	triclinic
loop_
_symmetry_equiv_pos_as_xyz
  x,y,z
_cell_length_a	12.759400
_cell_length_b	19.077236
_cell_length_c	19.076919
_cell_angle_alpha	89.887323
_cell_angle_beta	92.274856
_cell_angle_gamma	92.307594
loop_
_atom_site_label
_atom_site_type_symbol
_atom_site_fract_x
_atom_site_fract_y
_atom_site_fract_z
Zn1	Zn	-0.381376	1.058334	-0.440556
Zn2	Zn	0.118624	1.558334	0.059444
Zn3	Zn	-0.549744	1.062993	-0.323056
Zn4	Zn	-0.049744	1.562993	0.176944
Zn5	Zn	-0.380825	0.945550	-0.318336
Zn6	Zn	0.119175	1.445550	0.181664
Zn7	Zn	-0.563761	0.940814	-0.435795
Zn8	Zn	-0.063761	1.440814	0.064205
O9	O	-0.468926	1.001923	-0.379436
O10	O	0.031074	1.501923	0.120564
O11	O	-0.398075	1.157285	-0.428938
O12	O	0.101925	1.657285	0.071062
O13	O	-0.521240	1.051346	-0.224099
O14	O	-0.021240	1.551346	0.275901
O15	O	-0.233876	0.960543	-0.334567
O16	O	0.266124	1.460543	0.165433
O17	O	-0.521774	1.160708	-0.342611
O18	O	-0.021774	1.660708	0.157389
O19	O	-0.234281	1.043405	-0.424361
O20	O	0.265719	1.543405	0.075639
O21	O	-0.397136	0.965061	-0.220631
O22	O	0.102864	1.465061	0.279369
O23	O	-0.410727	0.846589	-0.329950
O24	O	0.089273	1.346589	0.170050
O25	O	-0.545663	0.952472	-0.534758
O26	O	-0.045663	1.452472	-0.034758
O27	O	-0.545129	0.843109	-0.416246
O28	O	-0.045129	1.343109	0.083754
O29	O	-0.411666	1.038813	-0.538256
O30	O	0.088334	1.538813	-0.038256
O31	O	-0.698625	1.046754	-0.337994
O32	O	-0.198625	1.546754	0.162006
O33	O	-0.708923	0.956989	-0.420822
O34	O	-0.208923	1.456989	0.079178
C35	C	-0.479390	0.819352	-0.372069
C36	C	0.020610	1.319352	0.127931
C37	C	-0.483893	0.741247	-0.368934
C38	C	0.016107	1.241247	0.131066
C39	C	-0.421715	0.702769	-0.412476
C40	C	0.078285	1.202769	0.087524
C41	C	-0.425941	0.629381	-0.409524
C42	C	0.074059	1.129381	0.090476
C43	C	-0.492350	0.594472	-0.363034
C44	C	0.007650	1.094472	0.136966
C45	C	-0.554530	0.632956	-0.319488
C46	C	-0.054530	1.132956	0.180512
C47	C	-0.550298	0.706343	-0.322436
C48	C	-0.050298	1.206343	0.177564
C49	C	-0.511895	0.375181	-0.349386
C50	C	-0.011895	0.875181	0.150614
C51	C	-0.516124	0.301789	-0.346442
C52	C	-0.016124	0.801789	0.153558
C53	C	-0.387533	0.298219	-0.436478
C54	C	0.112467	0.798219	0.063522
C55	C	-0.383312	0.371607	-0.439425
C56	C	0.116688	0.871607	0.060575
C57	C	-0.445488	0.410085	-0.395876
C58	C	0.054512	0.910085	0.104124
N59	N	-0.496673	0.519458	-0.360018
N60	N	0.003327	1.019458	0.139982
N61	N	-0.441158	0.485098	-0.398890
N62	N	0.058842	0.985098	0.101110
C63	C	-0.741895	1.001882	-0.379420
C64	C	-0.241895	1.501882	0.120580
C65	C	-0.858670	1.001928	-0.379439
C66	C	-0.358670	1.501928	0.120561
C67	C	-0.908136	1.048716	-0.336362
C68	C	-0.408136	1.548716	0.163638
C69	C	-1.017858	1.048758	-0.336385
C70	C	-0.517858	1.548758	0.163615
C71	C	-1.028642	0.955218	-0.422564
C72	C	-0.528642	1.455218	0.077436
C73	C	-0.918921	0.955179	-0.422544
C74	C	-0.418921	1.455179	0.077456
C75	C	-0.847885	1.095464	-0.293256
C76	C	-0.347885	1.595464	0.206744
C77	C	-0.897350	1.142255	-0.250175
C78	C	-0.397350	1.642255	0.249825
C79	C	-1.007073	1.142298	-0.250198
C80	C	-0.507073	1.642298	0.249802
C81	C	-1.067331	1.095548	-0.293303
C82	C	-0.567331	1.595548	0.206697
C83	C	-0.194891	1.001983	-0.379469
C84	C	0.305109	1.501983	0.120531
C85	C	-0.078114	1.002008	-0.379482
C86	C	0.421886	1.502008	0.120518
C87	C	-0.480290	0.994595	-0.562716
C88	C	0.019710	1.494595	-0.062716
C89	C	-0.485132	0.991472	-0.640819
C90	C	0.014868	1.491472	-0.140819
C91	C	-0.458423	1.185207	-0.386832
C92	C	0.041577	1.685207	0.113168
C93	C	-0.453947	1.263311	-0.389984
C94	C	0.046053	1.763311	0.110016
C95	C	-0.417645	1.034956	-0.679334
C96	C	0.082355	1.534956	-0.179334
C97	C	-0.422191	1.032013	-0.752720
C98	C	0.077809	1.532013	-0.252720
C99	C	-0.494230	0.985589	-0.787589
C100	C	0.005770	1.485589	-0.287589
C101	C	-0.561720	0.942100	-0.749068
C102	C	-0.061720	1.442100	-0.249068
C103	C	-0.557168	0.945040	-0.675684
C104	C	-0.057168	1.445040	-0.175684
C105	C	-0.515321	0.971973	-1.006869
C106	C	-0.015321	1.471973	-0.506869
C107	C	-0.519870	0.969038	-1.080259
C108	C	-0.019870	1.469038	-0.580259
C109	C	-0.380339	1.058950	-1.083905
C110	C	0.119661	1.558950	-0.583905
C111	C	-0.375798	1.061889	-1.010519
C112	C	0.124202	1.561889	-0.510519
C113	C	-0.443284	1.018398	-0.972005
C114	C	0.056716	1.518398	-0.472005
N115	N	-0.498881	0.982582	-0.862601
N116	N	0.001119	1.482582	-0.362601
N117	N	-0.438627	1.021402	-0.896994
N118	N	0.061373	1.521402	-0.396994
C119	C	-0.457529	1.009263	-0.196871
C120	C	0.042471	1.509263	0.303129
C121	C	-0.452383	1.012522	-0.118774
C122	C	0.047617	1.512522	0.381226
H123	H	-0.562524	0.406501	-0.313926
H124	H	-0.062524	0.906501	0.186074
Cl125	Cl	-0.856730	0.896360	-0.476701
Cl126	Cl	-0.356730	1.396360	0.023299
Cl127	Cl	-1.205267	1.095325	-0.293028
Cl128	Cl	-0.705267	1.595325	0.206972
H129	H	-0.570207	0.273369	-0.308584
H130	H	-0.070207	0.773369	0.191416
Cl131	Cl	-0.821600	1.201029	-0.195996
Cl132	Cl	-0.321600	1.701029	0.304004
Cl133	Cl	-0.347774	0.581011	-0.464267
Cl134	Cl	0.152226	1.081011	0.035733
Cl135	Cl	-0.337391	1.086712	-0.801137
Cl136	Cl	0.162609	1.586712	-0.301137
Cl137	Cl	-0.628468	0.754716	-0.267697
Cl138	Cl	-0.128468	1.254716	0.232303
Cl139	Cl	-0.642010	0.890370	-0.627264
Cl140	Cl	-0.142010	1.390370	-0.127264
H141	H	-0.578536	0.931232	-1.108647
H142	H	-0.078536	1.431232	-0.608647
H143	H	-0.329239	0.400025	-0.477285
H144	H	0.170761	0.900025	0.022715
Cl145	Cl	-0.309372	0.249844	-0.491220
Cl146	Cl	0.190628	0.749844	0.008780
H147	H	-1.047344	1.180402	-0.215125
H148	H	-0.547344	1.680402	0.284875
H149	H	-1.077712	0.917156	-0.457658
H150	H	-0.577712	1.417156	0.042342
Cl151	Cl	-0.327081	1.093324	-0.635506
Cl152	Cl	0.172919	1.593324	-0.135506
H153	H	-0.317138	1.099694	-0.982134
H154	H	0.182862	1.599694	-0.482134
H155	H	-0.325394	1.094357	-1.115271
H156	H	0.174606	1.594357	-0.615271
Cl157	Cl	-0.709949	1.095602	-0.293428
Cl158	Cl	-0.209949	1.595602	0.206572
Cl159	Cl	-0.600162	0.917298	-0.958460
Cl160	Cl	-0.100162	1.417298	-0.458460
H161	H	-0.367641	0.731186	-0.450335
H162	H	0.132359	1.231186	0.049665
Cl163	Cl	-0.638010	0.589071	-0.261039
Cl164	Cl	-0.138010	1.089071	0.238961
Cl165	Cl	-0.652281	0.883736	-0.792903
Cl166	Cl	-0.152281	1.383736	-0.292903
