data_functionalizedCrystal
_audit_creation_method	'MofGen! by Chris Wilmer'
_symmetry_space_group_name_H-M	'P1'
_symmetry_Int_Tables_number	1
_symmetry_cell_setting	triclinic
loop_
_symmetry_equiv_pos_as_xyz
  x,y,z
_cell_length_a	19.121102
_cell_length_b	25.639240
_cell_length_c	19.120904
_cell_angle_alpha	87.596818
_cell_angle_beta	89.911827
_cell_angle_gamma	87.586654
loop_
_atom_site_label
_atom_site_type_symbol
_atom_site_fract_x
_atom_site_fract_y
_atom_site_fract_z
Zn1	Zn	1.054802	-0.255751	0.442001
Zn2	Zn	1.388135	0.077582	0.775334
Zn3	Zn	1.721469	0.410915	1.108667
Zn4	Zn	1.059707	-0.339618	0.324744
Zn5	Zn	1.393041	-0.006284	0.658077
Zn6	Zn	1.726374	0.327049	0.991411
Zn7	Zn	0.942572	-0.248315	0.319786
Zn8	Zn	1.275906	0.085019	0.653120
Zn9	Zn	1.609239	0.418352	0.986453
Zn10	Zn	0.937519	-0.339266	0.436946
Zn11	Zn	1.270852	-0.005933	0.770280
Zn12	Zn	1.604186	0.327400	1.103613
O13	O	0.998650	-0.295737	0.380869
O14	O	1.331984	0.037596	0.714203
O15	O	1.665317	0.370929	1.047536
O16	O	1.153558	-0.270136	0.430636
O17	O	1.486891	0.063198	0.763970
O18	O	1.820224	0.396531	1.097303
O19	O	1.048337	-0.324541	0.225982
O20	O	1.381670	0.008792	0.559315
O21	O	1.715004	0.342126	0.892649
O22	O	0.957522	-0.176139	0.336039
O23	O	1.290855	0.157194	0.669372
O24	O	1.624188	0.490527	1.002706
O25	O	1.157162	-0.331752	0.344488
O26	O	1.490495	0.001581	0.677822
O27	O	1.823828	0.334915	1.011155
O28	O	1.039977	-0.181603	0.425829
O29	O	1.373310	0.151731	0.759163
O30	O	1.706643	0.485064	1.092496
O31	O	0.962278	-0.257461	0.222340
O32	O	1.295612	0.075872	0.555673
O33	O	1.628945	0.409206	0.889006
O34	O	0.843797	-0.257120	0.331138
O35	O	1.177130	0.076213	0.664471
O36	O	1.510464	0.409546	0.997805
O37	O	0.948909	-0.331153	0.535721
O38	O	1.282242	0.002180	0.869054
O39	O	1.615576	0.335514	1.202388
O40	O	0.840084	-0.323942	0.417215
O41	O	1.173418	0.009391	0.750548
O42	O	1.506751	0.342725	1.083881
O43	O	1.035076	-0.269795	0.539434
O44	O	1.368410	0.063539	0.872768
O45	O	1.701743	0.396872	1.206101
O46	O	1.043437	-0.412733	0.339587
O47	O	1.376770	-0.079400	0.672921
O48	O	1.710103	0.253934	1.006254
O49	O	0.953665	-0.412475	0.422022
O50	O	1.286999	-0.079142	0.755355
O51	O	1.620332	0.254192	1.088689
C52	C	0.816503	-0.289687	0.373090
C53	C	1.149837	0.043647	0.706424
C54	C	1.483170	0.376980	1.039757
C55	C	0.738579	-0.287111	0.369779
C56	C	1.071913	0.046222	0.703112
C57	C	1.405246	0.379556	1.036446
C58	C	0.998553	-0.431575	0.380810
C59	C	1.331887	-0.098242	0.714143
C60	C	1.665220	0.235092	1.047477
C61	C	0.998575	-0.489690	0.380811
C62	C	1.331909	-0.156357	0.714144
C63	C	1.665242	0.176977	1.047478
C64	C	0.700059	-0.320740	0.412969
C65	C	1.033392	0.012594	0.746302
C66	C	1.366725	0.345927	1.079635
C67	C	0.626841	-0.318313	0.409861
C68	C	0.960174	0.015020	0.743194
C69	C	1.293507	0.348354	1.076527
C70	C	0.592145	-0.282260	0.363559
C71	C	0.925478	0.051074	0.696892
C72	C	1.258811	0.384407	1.030226
C73	C	0.630670	-0.248627	0.320368
C74	C	0.964004	0.084706	0.653701
C75	C	1.297337	0.418039	0.987035
C76	C	0.703887	-0.251052	0.323480
C77	C	1.037220	0.082282	0.656813
C78	C	1.370554	0.415615	0.990146
C79	C	0.371174	-0.273193	0.351928
C80	C	0.704507	0.060140	0.685261
C81	C	1.037840	0.393473	1.018594
C82	C	0.297952	-0.270772	0.348818
C83	C	0.631285	0.062561	0.682151
C84	C	0.964619	0.395894	1.015484
C85	C	0.294127	-0.340458	0.438312
C86	C	0.627461	-0.007125	0.771645
C87	C	0.960794	0.326209	1.104978
C88	C	0.367346	-0.342881	0.441417
C89	C	0.700679	-0.009548	0.774750
C90	C	1.034012	0.323785	1.108083
C91	C	0.405865	-0.309247	0.398228
C92	C	0.739198	0.024086	0.731561
C93	C	1.072531	0.357419	1.064895
C94	C	0.517304	-0.279779	0.360380
C95	C	0.850638	0.053554	0.693713
C96	C	1.183971	0.386887	1.027046
C97	C	0.480704	-0.311725	0.401411
C98	C	0.814037	0.021608	0.734745
C99	C	1.147370	0.354941	1.068078
C100	C	1.041603	-0.852867	0.427705
C101	C	1.374937	-0.519533	0.761038
C102	C	1.708270	-0.186200	1.094372
C103	C	1.041623	-0.907472	0.427720
C104	C	1.374957	-0.574139	0.761053
C105	C	1.708290	-0.240805	1.094387
O106	O	1.078092	-0.938096	0.467529
O107	O	1.411425	-0.604762	0.800863
O108	O	1.744758	-0.271429	1.134196
N109	N	0.998745	-0.931982	0.380941
N110	N	1.332078	-0.598648	0.714275
N111	N	1.665411	-0.265315	1.047608
C112	C	0.955838	-0.901883	0.334149
C113	C	1.289171	-0.568550	0.667482
C114	C	1.622504	-0.235216	1.000816
O115	O	0.919367	-0.927744	0.294362
O116	O	1.252701	-0.594411	0.627695
O117	O	1.586034	-0.261078	0.961028
C118	C	0.955815	-0.847279	0.334138
C119	C	1.289148	-0.513945	0.667471
C120	C	1.622481	-0.180612	1.000804
C121	C	0.998701	-0.822772	0.380915
C122	C	1.332035	-0.489439	0.714248
C123	C	1.665368	-0.156105	1.047582
C124	C	1.084486	-0.828360	0.474479
C125	C	1.417819	-0.495026	0.807812
C126	C	1.751152	-0.161693	1.141145
C127	C	1.084467	-0.773758	0.474463
C128	C	1.417800	-0.440425	0.807796
C129	C	1.751133	-0.107091	1.141129
C130	C	1.041565	-0.743663	0.427673
C131	C	1.374898	-0.410330	0.761006
C132	C	1.708231	-0.076997	1.094339
C133	C	0.998682	-0.768170	0.380899
C134	C	1.332015	-0.434837	0.714232
C135	C	1.665349	-0.101504	1.047565
C136	C	0.912905	-0.817181	0.287349
C137	C	1.246238	-0.483847	0.620683
C138	C	1.579571	-0.150514	0.954016
C139	C	0.912885	-0.762573	0.287343
C140	C	1.246218	-0.429240	0.620676
C141	C	1.579551	-0.095906	0.954009
C142	C	0.955771	-0.738066	0.334120
C143	C	1.289105	-0.404733	0.667453
C144	C	1.622438	-0.071400	1.000786
C145	C	0.955761	-0.683474	0.334092
C146	C	1.289094	-0.350141	0.667426
C147	C	1.622427	-0.016807	1.000759
N148	N	0.998639	-0.658964	0.380871
N149	N	1.331973	-0.325631	0.714205
N150	N	1.665306	0.007702	1.047538
C151	C	1.041541	-0.689059	0.427661
C152	C	1.374875	-0.355726	0.760995
C153	C	1.708208	-0.022392	1.094328
C154	C	0.955889	-1.016556	0.334177
C155	C	1.289222	-0.683223	0.667510
C156	C	1.622556	-0.349889	1.000844
C157	C	0.955915	-1.071160	0.334184
C158	C	1.289249	-0.737826	0.667517
C159	C	1.622582	-0.404493	1.000851
C160	C	1.041700	-1.076745	0.427756
C161	C	1.375033	-0.743412	0.761090
C162	C	1.708367	-0.410078	1.094423
C163	C	1.041677	-1.022140	0.427745
C164	C	1.375010	-0.688807	0.761078
C165	C	1.708344	-0.355474	1.094412
C166	C	0.998768	-0.992046	0.380956
C167	C	1.332101	-0.658713	0.714289
C168	C	1.665434	-0.325380	1.047622
C169	C	1.041498	-0.574391	0.427623
C170	C	1.374831	-0.241058	0.760957
C171	C	1.708165	0.092275	1.094290
C172	C	1.041477	-0.519785	0.427601
C173	C	1.374810	-0.186451	0.760934
C174	C	1.708144	0.146882	1.094268
C175	C	0.955690	-0.514204	0.334032
C176	C	1.289023	-0.180871	0.667365
C177	C	1.622357	0.152463	1.000698
C178	C	0.955713	-0.568806	0.334051
C179	C	1.289047	-0.235473	0.667385
C180	C	1.622380	0.097861	1.000718
C181	C	0.998620	-0.598899	0.380853
C182	C	1.331953	-0.265565	0.714186
C183	C	1.665286	0.067768	1.047519
O184	O	0.919309	-0.652817	0.294305
O185	O	1.252642	-0.319484	0.627639
O186	O	1.585975	0.013850	0.960972
O187	O	1.077999	-0.663190	0.467448
O188	O	1.411332	-0.329857	0.800781
O189	O	1.744665	0.003476	1.134115
C190	C	1.181508	-0.301812	0.388679
C191	C	1.514842	0.031521	0.722012
C192	C	1.848175	0.364854	1.055346
C193	C	1.259432	-0.304401	0.392007
C194	C	1.592765	0.028932	0.725340
C195	C	1.926098	0.362265	1.058674
C196	C	0.990882	-0.301264	0.563726
C197	C	1.324215	0.032069	0.897060
C198	C	1.657549	0.365402	1.230393
C199	C	0.987571	-0.303619	0.641649
C200	C	1.320905	0.029714	0.974982
C201	C	1.654238	0.363047	1.308316
C202	C	0.998766	-0.159371	0.380945
C203	C	1.332099	0.173963	0.714278
C204	C	1.665432	0.507296	1.047611
C205	C	0.998815	-0.101259	0.380977
C206	C	1.332148	0.232074	0.714310
C207	C	1.665482	0.565408	1.047644
C208	C	1.006429	-0.290196	0.198725
C209	C	1.339762	0.043137	0.532059
C210	C	1.673095	0.376471	0.865392
C211	C	1.009875	-0.287698	0.120809
C212	C	1.343208	0.045635	0.454142
C213	C	1.676542	0.378969	0.787476
C214	C	1.030877	-0.272781	0.680192
C215	C	1.364210	0.060552	1.013525
C216	C	1.697543	0.393885	1.346858
C217	C	1.027758	-0.274992	0.753408
C218	C	1.361091	0.058341	1.086741
C219	C	1.694424	0.391675	1.420075
C220	C	0.981337	-0.308044	0.788080
C221	C	1.314670	0.025290	1.121414
C222	C	1.648003	0.358623	1.454747
C223	C	0.938027	-0.338883	0.749532
C224	C	1.271360	-0.005550	1.082866
C225	C	1.604693	0.327784	1.416199
C226	C	0.941143	-0.336669	0.676317
C227	C	1.274476	-0.003336	1.009651
C228	C	1.607809	0.329998	1.342984
C229	C	0.969681	-0.316323	1.009046
C230	C	1.303014	0.017010	1.342379
C231	C	1.636347	0.350343	1.675712
C232	C	0.966570	-0.318536	1.082266
C233	C	1.299903	0.014797	1.415600
C234	C	1.633236	0.348131	1.748933
C235	C	1.056300	-0.254644	1.086137
C236	C	1.389634	0.078689	1.419470
C237	C	1.722967	0.412023	1.752803
C238	C	1.059415	-0.252436	1.012920
C239	C	1.392748	0.080898	1.346254
C240	C	1.726082	0.414231	1.679587
C241	C	1.016102	-0.283273	0.974378
C242	C	1.349436	0.050061	1.307712
C243	C	1.682769	0.383394	1.641045
C244	C	0.978149	-0.310305	0.862919
C245	C	1.311482	0.023028	1.196253
C246	C	1.644816	0.356361	1.529586
C247	C	1.019287	-0.281008	0.899541
C248	C	1.352620	0.052325	1.232874
C249	C	1.685954	0.385659	1.566207
H250	H	0.728303	-0.350100	0.450670
H251	H	1.061636	-0.016767	0.784003
H252	H	1.394970	0.316567	1.117337
Br253	Br	0.897470	-0.473351	0.270533
Br254	Br	1.230803	-0.140018	0.603866
Br255	Br	1.564137	0.193316	0.937199
Br256	Br	0.915152	-0.355161	0.909981
Br257	Br	1.248485	-0.021828	1.243314
Br258	Br	1.581818	0.311505	1.576647
Br259	Br	1.099925	-1.117598	0.491257
Br260	Br	1.433259	-0.784265	0.824591
Br261	Br	1.766592	-0.450932	1.157924
H262	H	0.595480	-0.345698	0.445030
H263	H	0.928814	-0.012364	0.778363
H264	H	1.262147	0.320969	1.111696
Br265	Br	0.897722	-1.104412	0.270687
Br266	Br	1.231055	-0.771078	0.604020
Br267	Br	1.564389	-0.437745	0.937354
H268	H	0.920949	-0.992056	0.296070
H269	H	1.254283	-0.658722	0.629403
H270	H	1.587616	-0.325389	0.962736
H271	H	0.269705	-0.241408	0.311118
H272	H	0.603038	0.091926	0.644451
H273	H	0.936371	0.425259	0.977784
H274	H	1.068680	-0.245869	0.651967
H275	H	1.402013	0.087465	0.985300
H276	H	1.735347	0.420798	1.318634
H277	H	0.934423	-0.341441	0.977674
H278	H	1.267756	-0.008108	1.311008
H279	H	1.601090	0.325225	1.644341
Br280	Br	0.854696	-0.850426	0.223863
Br281	Br	1.188029	-0.517092	0.557197
Br282	Br	1.521362	-0.183759	0.890530
Br283	Br	0.875021	-0.383736	0.796587
Br284	Br	1.208354	-0.050403	1.129920
Br285	Br	1.541688	0.282931	1.463253
Br286	Br	1.099687	-0.486529	0.491086
Br287	Br	1.433021	-0.153196	0.824419
Br288	Br	1.766354	0.180138	1.157753
H289	H	1.076598	-1.002191	0.465835
H290	H	1.409932	-0.668857	0.799169
H291	H	1.743265	-0.335524	1.132502
H292	H	0.877940	-0.738073	0.249242
H293	H	1.211274	-0.404739	0.582575
H294	H	1.544607	-0.071406	0.915908
Br295	Br	1.115077	-0.212795	1.138447
Br296	Br	1.448410	0.120538	1.471780
Br297	Br	1.781744	0.453872	1.805113
Br298	Br	1.086565	-0.233164	0.805715
Br299	Br	1.419898	0.100169	1.139048
Br300	Br	1.753231	0.433503	1.472382
H301	H	0.920797	-0.588760	0.295956
H302	H	1.254131	-0.255427	0.629289
H303	H	1.587464	0.077906	0.962623
H304	H	0.402528	-0.245810	0.316755
H305	H	0.735861	0.087523	0.650088
H306	H	1.069194	0.420857	0.983422
Br307	Br	1.122420	-0.207580	0.965870
Br308	Br	1.455753	0.125754	1.299203
Br309	Br	1.789087	0.459087	1.632536
H310	H	0.928766	-0.345452	1.110494
H311	H	1.262099	-0.012119	1.443828
H312	H	1.595432	0.321215	1.777161
Br313	Br	0.882364	-0.378519	0.624008
Br314	Br	1.215698	-0.045186	0.957341
Br315	Br	1.549031	0.288148	1.290675
H316	H	0.735249	-0.223665	0.288314
H317	H	1.068583	0.109668	0.621647
H318	H	1.401916	0.443002	0.954981
H319	H	0.395590	-0.372241	0.479119
H320	H	0.728923	-0.038908	0.812452
H321	H	1.062257	0.294426	1.145785
H322	H	1.057080	-0.254095	0.871307
H323	H	1.390413	0.079238	1.204641
H324	H	1.723747	0.412572	1.537974
H325	H	0.602415	-0.219270	0.282671
H326	H	0.935748	0.114064	0.616005
H327	H	1.269082	0.447397	0.949338
Br328	Br	0.527792	-0.360652	0.464249
Br329	Br	0.861125	-0.027319	0.797582
Br330	Br	1.194459	0.306014	1.130915
Br331	Br	0.241848	-0.386104	0.496919
Br332	Br	0.575182	-0.052770	0.830252
Br333	Br	0.908515	0.280563	1.163586
H334	H	1.076431	-0.598887	0.465738
H335	H	1.409765	-0.265553	0.799072
H336	H	1.743098	0.067780	1.132405
Br337	Br	0.470211	-0.230849	0.297546
Br338	Br	0.803544	0.102484	0.630879
Br339	Br	1.136878	0.435817	0.964212
H340	H	1.119421	-0.852858	0.512585
H341	H	1.452755	-0.519524	0.845918
H342	H	1.786088	-0.186191	1.179252
Br343	Br	1.142668	-0.740508	0.537954
Br344	Br	1.476001	-0.407174	0.871287
Br345	Br	1.809335	-0.073841	1.204621
