data_functionalizedCrystal
_audit_creation_method	'MofGen! by Chris Wilmer'
_symmetry_space_group_name_H-M	'P1'
_symmetry_Int_Tables_number	1
_symmetry_cell_setting	triclinic
loop_
_symmetry_equiv_pos_as_xyz
  x,y,z
_cell_length_a	19.121241
_cell_length_b	29.839131
_cell_length_c	19.120904
_cell_angle_alpha	92.401768
_cell_angle_beta	89.875472
_cell_angle_gamma	92.469032
loop_
_atom_site_label
_atom_site_type_symbol
_atom_site_fract_x
_atom_site_fract_y
_atom_site_fract_z
Zn1	Zn	1.054826	-0.162205	-0.442145
Zn2	Zn	1.059726	-0.234000	-0.324886
Zn3	Zn	0.942592	-0.161938	-0.319914
Zn4	Zn	0.937533	-0.240364	-0.437070
O5	O	0.998669	-0.199627	-0.381004
O6	O	1.153584	-0.169177	-0.430794
O7	O	1.048356	-0.221665	-0.226123
O8	O	0.957546	-0.099106	-0.336171
O9	O	1.157184	-0.221924	-0.344644
O10	O	1.040004	-0.099302	-0.425973
O11	O	0.962298	-0.168722	-0.222470
O12	O	0.843813	-0.174894	-0.331251
O13	O	0.948924	-0.232771	-0.535847
O14	O	0.840096	-0.232513	-0.417325
O15	O	1.035098	-0.175348	-0.539575
O16	O	1.043451	-0.297712	-0.339724
O17	O	0.953676	-0.302388	-0.422146
C18	C	0.816516	-0.204365	-0.373199
C19	C	0.738590	-0.206404	-0.369876
C20	C	0.700103	-0.179946	-0.413237
C21	C	0.626883	-0.181859	-0.410109
C22	C	0.592151	-0.210232	-0.363624
C23	C	0.630643	-0.236691	-0.320258
C24	C	0.703862	-0.234775	-0.323383
C25	C	0.371171	-0.217386	-0.351938
C26	C	0.297947	-0.219300	-0.348818
C27	C	0.294191	-0.164468	-0.438669
C28	C	0.367412	-0.162557	-0.441793
C29	C	0.405898	-0.189014	-0.398424
C30	C	0.517308	-0.212189	-0.360427
C31	C	0.480739	-0.187054	-0.401618
C32	C	0.998565	-0.316350	-0.380940
C33	C	0.998583	-0.366284	-0.380939
C34	C	1.041592	-0.675996	-0.427827
C35	C	1.041667	-0.863669	-0.427873
O36	O	1.078132	-0.887993	-0.467690
N37	N	0.998785	-0.887068	-0.381087
C38	C	0.955879	-0.863546	-0.334289
O39	O	0.919401	-0.887756	-0.294501
C40	C	0.955801	-0.675875	-0.334248
C41	C	0.998691	-0.652478	-0.381032
C42	C	1.084478	-0.652599	-0.474608
C43	C	1.084462	-0.605684	-0.474594
C44	C	1.041560	-0.582165	-0.427798
C45	C	0.998674	-0.605563	-0.381017
C46	C	0.912891	-0.652355	-0.287454
C47	C	0.912874	-0.605434	-0.287449
C48	C	0.955764	-0.582037	-0.334233
C49	C	0.955757	-0.535129	-0.334208
N50	N	0.998638	-0.511730	-0.380994
C51	C	1.041540	-0.535248	-0.427789
C52	C	0.955923	-0.962076	-0.334313
C53	C	0.955943	-1.008994	-0.334323
C54	C	1.041731	-1.009113	-0.427907
C55	C	1.041714	-0.962194	-0.427894
C56	C	0.998805	-0.938677	-0.381099
C57	C	1.041503	-0.436722	-0.427755
C58	C	1.041485	-0.389803	-0.427734
C59	C	0.955695	-0.389688	-0.334153
C60	C	0.955716	-0.436603	-0.334170
C61	C	0.998622	-0.460119	-0.380977
O62	O	0.919305	-0.510776	-0.294416
O63	O	1.078000	-0.511031	-0.467582
C64	C	1.041609	-0.722912	-0.427842
C65	C	0.998723	-0.746309	-0.381061
C66	C	0.955821	-0.722791	-0.334265
C67	C	0.998743	-0.793226	-0.381070
C68	C	1.041645	-0.816745	-0.427865
C69	C	1.084527	-0.793345	-0.474651
C70	C	1.084510	-0.746430	-0.474637
C71	C	0.912940	-0.746190	-0.287479
C72	C	0.912960	-0.793105	-0.287497
C73	C	0.955862	-0.816624	-0.334292
C74	C	1.181534	-0.194870	-0.388840
C75	C	1.259460	-0.192843	-0.392179
C76	C	0.990901	-0.204799	-0.563859
C77	C	0.987590	-0.207004	-0.641782
C78	C	0.998793	-0.082447	-0.381084
C79	C	0.998845	-0.032512	-0.381118
C80	C	1.030898	-0.178143	-0.680332
C81	C	1.027779	-0.180213	-0.753547
C82	C	0.981354	-0.211145	-0.788212
C83	C	0.938041	-0.240007	-0.749657
C84	C	0.941157	-0.237935	-0.676442
C85	C	0.969698	-0.218896	-1.009175
C86	C	0.966586	-0.220967	-1.082395
C87	C	1.056324	-0.161172	-1.086281
C88	C	1.059439	-0.159104	-1.013065
C89	C	1.016123	-0.187964	-0.974516
C90	C	0.978167	-0.213263	-0.863050
C91	C	1.019308	-0.185844	-0.899679
C92	C	1.006448	-0.194441	-0.198861
C93	C	1.009895	-0.192106	-0.120945
H94	H	0.728376	-0.156843	-0.451093
H95	H	1.068705	-0.152956	-0.652113
C96	C	0.405611	-0.131340	-0.492924
N97	N	0.434384	-0.107827	-0.531437
H98	H	0.934437	-0.242402	-0.977798
H99	H	0.735197	-0.256319	-0.288073
H100	H	1.063047	-0.156713	-0.784932
H101	H	1.097245	-0.133917	-0.984846
C102	C	0.251852	-0.135360	-0.486359
N103	N	0.219961	-0.113431	-0.522276
C104	C	0.908709	-0.936214	-0.282839
N105	N	0.873146	-0.916736	-0.244069
H106	H	1.091588	-0.137675	-1.117675
H107	H	1.076638	-0.943147	-0.465990
C108	C	0.908539	-0.462341	-0.282702
N109	N	0.873000	-0.481723	-0.243940
H110	H	0.877966	-0.671397	-0.249357
C111	C	0.915511	-0.254995	-1.120525
N112	N	0.877044	-0.280624	-1.149244
C113	C	0.865671	-0.579568	-0.235969
N114	N	0.830119	-0.560087	-0.197193
H115	H	0.509021	-0.163951	-0.439464
H116	H	0.920767	-0.370532	-0.296050
H117	H	0.489021	-0.235291	-0.322578
C118	C	0.886966	-0.274029	-0.787790
N119	N	0.848496	-0.299655	-0.816511
H120	H	0.905884	-0.261432	-0.645055
C121	C	0.592435	-0.267901	-0.269122
N122	N	0.563658	-0.291410	-0.230607
C123	C	1.131647	-0.579953	-0.526058
N124	N	1.167190	-0.560575	-0.564823
H125	H	0.269670	-0.242407	-0.310963
C126	C	0.413496	-0.246491	-0.304234
N127	N	0.445378	-0.268415	-0.268302
H128	H	1.057104	-0.160658	-0.871452
H129	H	1.076414	-0.370754	-0.465832
C130	C	1.088707	-0.462583	-0.479240
N131	N	1.124265	-0.482061	-0.518015
H132	H	1.076664	-1.028269	-0.466009
H133	H	0.595549	-0.160316	-0.445420
C134	C	1.131684	-0.678461	-0.526086
N135	N	1.167248	-0.697938	-0.564857
H136	H	0.940371	-0.238450	-0.891283
C137	C	1.131718	-0.819224	-0.526127
N138	N	1.167257	-0.838719	-0.564900
C139	C	0.908767	-1.034725	-0.282851
N140	N	0.873229	-1.054105	-0.244084
H141	H	0.878035	-0.812151	-0.249393
C142	C	0.865733	-0.720327	-0.236006
N143	N	0.830173	-0.700849	-0.197233
H144	H	1.119435	-0.727383	-0.512733
