data_functionalizedCrystal
_audit_creation_method	'MofGen! by Chris Wilmer'
_symmetry_space_group_name_H-M	'P1'
_symmetry_Int_Tables_number	1
_symmetry_cell_setting	triclinic
loop_
_symmetry_equiv_pos_as_xyz
  x,y,z
_cell_length_a	25.993410
_cell_length_b	25.993459
_cell_length_c	25.992400
_cell_angle_alpha	89.999971
_cell_angle_beta	60.001505
_cell_angle_gamma	119.999900
loop_
_atom_site_label
_atom_site_type_symbol
_atom_site_fract_x
_atom_site_fract_y
_atom_site_fract_z
O1	O	0.453803	-0.352911	-0.015327
O2	O	0.348455	-0.278101	0.015214
O3	O	0.453791	-0.278100	-0.090135
O4	O	0.348468	-0.352912	0.090022
O5	O	0.368224	-0.363666	-0.090133
O6	O	0.262889	-0.363667	0.015216
O7	O	0.368237	-0.438477	-0.015325
Cu8	Cu	0.307750	-0.408885	-0.000054
Cu9	Cu	0.408942	-0.307693	-0.000057
O10	O	0.262901	-0.438478	0.090024
C11	C	0.150822	-0.094623	0.036966
C12	C	0.088472	-0.125869	0.037401
C13	C	0.150819	-0.187785	0.036971
C14	C	0.088470	-0.218889	0.037405
C15	C	0.057661	-0.187784	0.036968
C16	C	0.181490	-0.125869	0.037404
C17	C	0.251752	0.006064	0.029405
C18	C	0.286051	0.069688	0.024631
C19	C	0.256613	0.101598	0.022235
C20	C	0.293801	0.170583	0.017056
C21	C	0.192871	0.069890	0.024618
C22	C	0.158572	0.006269	0.029394
C23	C	0.188016	-0.025641	0.031785
C24	C	-0.035466	-0.187541	0.029406
C25	C	-0.094317	-0.216866	0.024634
C26	C	-0.123834	-0.278216	0.022242
C27	C	-0.187642	-0.310014	0.017065
C28	C	-0.094510	-0.310251	0.024627
C29	C	-0.035664	-0.280928	0.029402
C30	C	-0.006142	-0.219574	0.031788
C31	C	0.251747	-0.187544	0.029413
C32	C	0.286049	-0.216867	0.024636
C33	C	0.256608	-0.278217	0.022244
C34	C	0.293793	-0.310016	0.017069
C35	C	0.192871	-0.310248	0.024624
C36	C	0.158569	-0.280928	0.029399
C37	C	0.188010	-0.219575	0.031793
O38	O	-0.208529	-0.363661	0.015202
O39	O	-0.358143	-0.438469	-0.015347
O40	O	-0.358155	-0.438473	0.090006
O41	O	-0.208517	-0.363657	-0.090150
O42	O	-0.358154	-0.352908	0.090004
O43	O	-0.358142	-0.352903	-0.015348
O44	O	-0.208529	-0.278096	0.015200
Cu45	Cu	-0.283335	-0.307687	-0.000074
Cu46	Cu	-0.283336	-0.408878	-0.000072
O47	O	-0.208517	-0.278091	-0.090152
C48	C	0.057684	-0.187780	-0.378102
C49	C	0.088496	-0.125865	-0.409349
C50	C	0.150846	-0.187781	-0.471259
C51	C	0.181517	-0.125867	-0.502364
C52	C	0.150848	-0.094620	-0.471262
C53	C	0.088494	-0.218885	-0.409346
C54	C	-0.035449	-0.281150	-0.277414
C55	C	-0.094303	-0.310676	-0.213792
C56	C	-0.123819	-0.278843	-0.181885
C57	C	-0.187630	-0.310852	-0.112901
C58	C	-0.094491	-0.217483	-0.213594
C59	C	-0.035643	-0.187959	-0.277213
C60	C	-0.006122	-0.219793	-0.309121
C61	C	0.158167	0.006068	-0.471022
C62	C	0.192265	0.069691	-0.500347
C63	C	0.256010	0.101600	-0.561695
C64	C	0.292986	0.170585	-0.593493
C65	C	0.285662	0.069891	-0.593727
C66	C	0.251564	0.006271	-0.564404
C67	C	0.187819	-0.025638	-0.503052
C68	C	0.158161	-0.281153	-0.471013
C69	C	0.192263	-0.310677	-0.500332
C70	C	0.256007	-0.278844	-0.561680
C71	C	0.292981	-0.310855	-0.593475
C72	C	0.285661	-0.217487	-0.593713
C73	C	0.251565	-0.187960	-0.564396
C74	C	0.187815	-0.219795	-0.503046
C75	C	0.554710	-0.439259	-0.022290
C76	C	0.618206	-0.407512	-0.017925
C77	C	0.523901	-0.501174	-0.022726
C78	C	0.461544	-0.439263	-0.022281
C79	C	0.425425	-0.407519	-0.017907
C80	C	0.430876	-0.501177	-0.022718
C81	C	0.461549	-0.532421	-0.022287
C82	C	0.425435	-0.600281	-0.017920
C83	C	0.523896	-0.408157	-0.022720
O84	O	0.368250	0.373490	-0.015343
O85	O	0.262905	0.193334	0.015191
O86	O	0.368245	0.298671	-0.090155
O87	O	0.262911	0.268153	0.090003
O88	O	0.453808	0.298670	-0.090153
O89	O	0.348469	0.193332	0.015193
O90	O	0.453813	0.373489	-0.015340
Cu91	Cu	0.408954	0.283410	-0.000073
Cu92	Cu	0.307765	0.283412	-0.000076
O93	O	0.348474	0.268152	0.090006
O94	O	0.368250	-0.438486	-0.636355
O95	O	0.262918	-0.363662	-0.561558
O96	O	0.368247	-0.363670	-0.561540
O97	O	0.262921	-0.438478	-0.636373
O98	O	0.453819	-0.278107	-0.647107
O99	O	0.348490	-0.278099	-0.647125
O100	O	0.453822	-0.352924	-0.721922
Cu101	Cu	0.408969	-0.307699	-0.692337
Cu102	Cu	0.307771	-0.408887	-0.591144
O103	O	0.348493	-0.352915	-0.721940
O104	O	0.453857	0.373495	-0.721942
O105	O	0.348501	0.193335	-0.647137
O106	O	0.453831	0.298665	-0.647113
O107	O	0.348527	0.268165	-0.721966
O108	O	0.368259	0.298665	-0.561554
O109	O	0.262930	0.193335	-0.561578
O110	O	0.368285	0.373494	-0.636383
Cu111	Cu	0.307794	0.283414	-0.591168
Cu112	Cu	0.408992	0.283415	-0.692352
O113	O	0.262956	0.268164	-0.636407
C114	C	0.162023	-0.532428	0.277273
C115	C	0.098533	-0.600289	0.309018
C116	C	0.192836	-0.501182	0.308377
C117	C	0.255174	-0.439267	0.184113
C118	C	0.291283	-0.407521	0.116252
C119	C	0.285846	-0.408163	0.215359
C120	C	0.255183	-0.439268	0.277273
C121	C	0.291302	-0.407522	0.309018
C122	C	0.192827	-0.501182	0.215359
C123	C	-0.538465	-0.439267	0.277253
C124	C	-0.574582	-0.407522	0.308999
C125	C	-0.569135	-0.501182	0.308356
C126	C	-0.445301	-0.439265	0.184094
C127	C	-0.381806	-0.407517	0.116234
C128	C	-0.476112	-0.501180	0.215339
C129	C	-0.538464	-0.532427	0.277252
C130	C	-0.574579	-0.600288	0.308996
C131	C	-0.476113	-0.408162	0.215340
C132	C	0.255195	0.261235	0.277252
C133	C	0.291313	0.265608	0.308998
C134	C	0.192850	0.260806	0.308354
C135	C	0.255184	0.261220	0.184093
C136	C	0.291291	0.265578	0.116234
C137	C	0.192839	0.260791	0.215337
C138	C	0.162037	0.261237	0.277249
C139	C	0.098550	0.265612	0.308993
C140	C	0.285856	0.260789	0.215339
C141	C	0.565829	-0.187789	-0.471247
C142	C	0.628176	-0.125874	-0.502352
C143	C	0.565839	-0.187789	-0.378088
C144	C	0.628186	-0.125874	-0.409334
C145	C	0.658990	-0.094629	-0.471248
C146	C	0.535166	-0.218893	-0.409333
C147	C	0.464898	-0.281159	-0.471004
C148	C	0.430597	-0.310685	-0.500328
C149	C	0.460030	-0.278852	-0.561676
C150	C	0.422839	-0.310863	-0.593473
C151	C	0.523769	-0.217493	-0.593711
C152	C	0.558071	-0.187969	-0.564390
C153	C	0.528633	-0.219802	-0.503036
C154	C	0.752108	0.006058	-0.564617
C155	C	0.810957	0.069681	-0.594143
C156	C	0.840476	0.101591	-0.562311
C157	C	0.904280	0.170575	-0.594321
C158	C	0.811157	0.069883	-0.500952
C159	C	0.752314	0.006263	-0.471428
C160	C	0.722789	-0.025647	-0.503261
C161	C	0.464919	-0.281158	-0.277401
C162	C	0.430622	-0.310682	-0.213775
C163	C	0.460065	-0.278848	-0.181866
C164	C	0.422885	-0.310858	-0.112882
C165	C	0.523799	-0.217492	-0.213572
C166	C	0.558096	-0.187965	-0.277195
C167	C	0.528653	-0.219801	-0.309106
O168	O	-0.074732	-0.806673	0.438438
O169	O	0.074889	-0.626518	0.363625
O170	O	0.074894	-0.731857	0.363618
O171	O	-0.074737	-0.701334	0.438446
O172	O	0.074884	-0.731858	0.278054
O173	O	0.074879	-0.626518	0.278061
O174	O	-0.074741	-0.806674	0.352875
Cu175	Cu	0.000068	-0.716596	0.307655
Cu176	Cu	0.000079	-0.716595	0.408844
O177	O	-0.074746	-0.701334	0.352882
C178	C	0.659000	0.320372	-0.471259
C179	C	0.628187	0.320802	-0.502364
C180	C	0.565852	0.320388	-0.378103
C181	C	0.535180	0.320819	-0.409349
C182	C	0.565842	0.320373	-0.471262
C183	C	0.628198	0.320818	-0.409347
C184	C	0.752126	0.312811	-0.471014
C185	C	0.810973	0.308034	-0.500336
C186	C	0.840480	0.305630	-0.561682
C187	C	0.904283	0.300447	-0.593477
C188	C	0.811152	0.308008	-0.593718
C189	C	0.752311	0.312788	-0.564398
C190	C	0.722798	0.315186	-0.503046
C191	C	0.558512	0.312797	-0.564629
C192	C	0.524412	0.308021	-0.594155
C193	C	0.460674	0.305633	-0.562323
C194	C	0.423696	0.300451	-0.594333
C195	C	0.431031	0.308027	-0.500966
C196	C	0.465131	0.312805	-0.471443
C197	C	0.528869	0.315188	-0.503274
C198	C	0.558546	0.312844	-0.277416
C199	C	0.524451	0.308075	-0.213792
C200	C	0.460713	0.305687	-0.181884
C201	C	0.423747	0.300522	-0.112901
C202	C	0.431059	0.308063	-0.213590
C203	C	0.465148	0.312829	-0.277212
C204	C	0.528891	0.315220	-0.309122
H205	H	-0.011435	-0.137585	0.031354
F206	F	0.247105	-0.093074	-0.568851
H207	H	0.167035	-0.526269	0.190276
H208	H	0.336034	0.260099	0.190253
F209	F	0.283135	-0.027468	-0.598484
H210	H	0.275714	-0.137999	-0.590480
H211	H	0.106251	-0.307080	-0.421060
H212	H	-0.118177	-0.360635	-0.187981
F213	F	-0.125522	-0.182770	0.022099
F214	F	-0.004456	-0.315020	0.031940
H215	H	-0.450363	-0.357306	0.190241
F216	F	0.661867	-0.093072	-0.376533
H217	H	-0.450322	-0.526262	0.190251
F218	F	0.054771	-0.285379	0.038313
H219	H	0.337573	-0.191565	-0.643667
H220	H	0.062699	-0.100786	-0.384267
H221	H	0.549692	-0.526256	-0.023430
H222	H	0.728435	0.314726	-0.590483
F223	F	0.054767	-0.093081	0.038319
H224	H	0.167055	0.260089	0.190248
F225	F	-0.634711	-0.533971	0.374848
F226	F	-0.125933	-0.375551	0.022083
H227	H	0.167069	0.260109	0.359226
F228	F	0.721115	-0.027484	-0.406130
H229	H	0.380700	-0.526263	-0.023412
F230	F	0.090734	-0.027476	0.031932
H231	H	0.653955	-0.100792	-0.553224
F232	F	0.557596	-0.341667	-0.023630
F233	F	0.842564	0.305449	-0.659013
F234	F	0.469596	-0.285387	-0.376547
F235	F	0.159147	-0.533976	0.374865
H236	H	0.378731	-0.360641	-0.187967
H237	H	0.106668	-0.307014	0.031342
F238	F	0.351417	-0.341670	0.182572
H239	H	0.547731	-0.191576	-0.643668
F240	F	0.353881	-0.182773	0.022103
H241	H	0.062698	-0.269760	-0.384260
F242	F	0.283081	-0.122249	0.031964
H243	H	0.440943	-0.307086	-0.303382
F244	F	0.433566	-0.315042	-0.405707
H245	H	0.168113	-0.360635	-0.474245
H246	H	0.378702	-0.360643	-0.474241
F247	F	0.625902	-0.122667	-0.598479
F248	F	0.720691	-0.027901	-0.598501
H249	H	0.834822	0.095490	-0.644103
H250	H	0.835202	0.095873	-0.475036
H251	H	0.609989	-0.138004	-0.303008
H252	H	0.547770	-0.191568	-0.187584
F253	F	0.556017	0.305550	-0.180054
H254	H	0.610451	0.314794	-0.303396
F255	F	0.469605	0.321735	-0.376561
F256	F	-0.004036	-0.315035	-0.311371
H257	H	0.653974	0.321501	-0.553236
H258	H	0.653987	0.321519	-0.384262
H259	H	0.728102	0.314768	-0.421059
F260	F	0.247068	-0.093080	0.038317
F261	F	0.842181	0.305505	-0.466241
H262	H	0.275728	-0.019916	0.031356
F263	F	0.626350	0.315337	-0.598511
F264	F	0.555966	0.305475	-0.659453
H265	H	0.379127	0.306082	-0.475051
F266	F	0.433583	0.315352	-0.406144
F267	F	0.433584	0.315355	-0.310955
H268	H	0.337948	0.095498	0.022693
F269	F	0.161542	0.103858	0.022068
F270	F	0.363214	0.305516	-0.179627
H271	H	-0.118534	-0.191566	-0.187605
F272	F	0.161539	-0.375545	0.022072
H273	H	0.106260	-0.019911	-0.421067
F274	F	-0.004436	-0.122660	-0.310962
H275	H	0.168113	0.095500	-0.474261
F276	F	0.353509	0.103858	-0.659024
