data_functionalizedCrystal
_audit_creation_method	'MofGen! by Chris Wilmer'
_symmetry_space_group_name_H-M	'P1'
_symmetry_Int_Tables_number	1
_symmetry_cell_setting	triclinic
loop_
_symmetry_equiv_pos_as_xyz
  x,y,z
_cell_length_a	14.560438
_cell_length_b	19.851628
_cell_length_c	19.851628
_cell_angle_alpha	89.995365
_cell_angle_beta	59.993980
_cell_angle_gamma	59.999888
loop_
_atom_site_label
_atom_site_type_symbol
_atom_site_fract_x
_atom_site_fract_y
_atom_site_fract_z
Zr1	Zr	1.005456	0.648838	-0.088454
O2	O	1.197068	0.541274	-0.196017
O3	O	0.813843	0.681821	-0.055479
O4	O	1.005478	0.681812	-0.196023
O5	O	1.005416	0.541280	0.055389
O6	O	1.005496	0.792661	-0.196029
O7	O	1.005433	0.541283	-0.055473
O8	O	0.662696	0.792677	0.055379
O9	O	1.348216	0.541265	-0.196019
O10	O	0.892669	0.778602	-0.041421
O11	O	0.892643	0.695875	0.041318
O12	O	1.118269	0.695865	-0.124155
O13	O	1.118242	0.613137	-0.041415
Zr14	Zr	1.005456	0.825625	0.088348
Zr15	Zr	1.005484	0.825629	-0.088464
Zr16	Zr	1.005427	0.648834	0.088358
Zr17	Zr	1.246518	0.648823	-0.088457
Zr18	Zr	0.764393	0.825640	0.088351
O19	O	1.197068	0.792642	0.055372
O20	O	1.197109	0.792648	-0.196031
O21	O	1.197028	0.541268	0.055386
O22	O	0.813843	0.933188	0.195911
O23	O	0.813883	0.933195	-0.055493
O24	O	0.813803	0.681814	0.195925
O25	O	1.005496	0.933182	-0.055495
O26	O	1.005433	0.792651	0.195916
O27	O	1.005416	0.681802	0.195923
O28	O	1.005478	0.933180	0.055367
O29	O	1.348238	0.681790	-0.196027
O30	O	0.662673	0.792673	0.195921
O31	O	0.662696	0.933198	0.195913
O32	O	0.662718	0.933202	0.055371
O33	O	1.348193	0.541261	-0.055477
O34	O	1.348216	0.681786	-0.055485
O35	O	0.892643	0.778598	0.124048
O36	O	0.892669	0.861325	0.041309
O37	O	1.118269	0.778588	-0.041424
O38	O	1.118242	0.695860	0.041315
C39	C	0.703923	0.737251	-0.000049
C40	C	0.601586	0.737258	-0.000048
C41	C	0.470231	0.798319	0.061021
C42	C	0.374100	0.798291	0.061018
C43	C	0.540693	0.676138	-0.061131
C44	C	0.636822	0.676163	-0.061124
C45	C	0.142660	0.843878	0.162143
C46	C	0.011298	0.904951	0.223207
C47	C	-0.031047	0.986642	0.249367
C48	C	0.057965	1.007274	0.214453
C49	C	0.189324	0.946204	0.153383
C50	C	0.231666	0.864505	0.127237
C51	C	0.868258	0.630584	-0.162248
C52	C	0.999620	0.569517	-0.223322
C53	C	1.041974	0.487824	-0.249490
C54	C	0.952968	0.467192	-0.214590
C55	C	0.821606	0.528259	-0.153516
C56	C	0.779258	0.609952	-0.127347
C57	C	1.005420	0.516093	-0.000041
C58	C	1.005408	0.441040	-0.000037
C59	C	0.882431	0.304786	0.045063
C60	C	0.943909	0.237333	0.077761
C61	C	1.005442	0.303609	-0.000047
C62	C	0.943956	0.237328	-0.032717
C63	C	1.005465	0.170860	-0.000057
C64	C	1.066921	0.237144	0.032696
C65	C	1.066950	0.237149	-0.077825
C66	C	1.128518	0.169683	-0.045146
C67	C	1.005425	0.380084	-0.000040
C68	C	1.005492	0.094383	-0.000063
C69	C	1.306988	0.737212	-0.000057
C70	C	1.409326	0.737205	-0.000058
C71	C	1.005491	0.737237	-0.221218
C72	C	1.005503	0.737239	-0.296279
C73	C	1.005491	0.958370	-0.000065
C74	C	1.005503	1.033422	-0.000070
C75	C	1.128481	0.692115	-0.522733
C76	C	1.067002	0.769900	-0.545101
C77	C	1.005470	0.737236	-0.433686
C78	C	1.066956	0.659456	-0.545058
C79	C	1.005446	0.737226	-0.566418
C80	C	0.943991	0.815066	-0.455065
C81	C	0.943962	0.704567	-0.455024
C82	C	0.882394	0.782398	-0.477339
C83	C	1.005487	0.737240	-0.357223
C84	C	1.005420	0.737230	-0.642875
C85	C	1.005420	0.737226	0.221111
C86	C	1.005408	0.737224	0.296173
C87	C	0.703959	0.958389	-0.000062
C88	C	0.601633	1.033449	-0.000065
C89	C	0.703888	0.737245	0.221115
C90	C	0.601538	0.737250	0.296178
C91	C	0.703923	0.958384	0.221103
C92	C	0.601586	1.033441	0.296161
C93	C	1.306988	0.516079	-0.221209
C94	C	1.409326	0.441022	-0.296267
C95	C	1.306953	0.516073	-0.000044
C96	C	1.409278	0.441014	-0.000041
C97	C	1.307024	0.737218	-0.221221
C98	C	1.409373	0.737213	-0.296284
C99	C	0.553580	1.025516	-0.043258
C100	C	0.457448	1.096036	-0.043277
C101	C	0.409364	1.174486	-0.000098
C102	C	0.457426	1.182417	0.043096
C103	C	0.553563	1.111898	0.043110
C104	C	0.553474	0.780433	0.374619
C105	C	0.457319	0.780434	0.445155
C106	C	0.409224	0.737257	0.437248
C107	C	0.457298	0.694069	0.358797
C108	C	0.553457	0.694063	0.288263
C109	C	0.553541	1.111879	0.288220
C110	C	0.457397	1.182410	0.358739
C111	C	0.409294	1.174501	0.437197
C112	C	0.457348	1.096055	0.445137
C113	C	0.553497	1.025526	0.374619
C114	C	1.457383	0.362584	-0.288326
C115	C	1.553556	0.292053	-0.358845
C116	C	1.601664	0.299962	-0.437303
C117	C	1.553604	0.378408	-0.445243
C118	C	1.457439	0.448937	-0.374725
C119	C	1.457342	0.448946	0.043144
C120	C	1.553500	0.378427	0.043144
C121	C	1.601588	0.299977	-0.000038
C122	C	1.553521	0.292046	-0.043229
C123	C	1.457370	0.362565	-0.043233
C124	C	1.457438	0.780398	-0.288349
C125	C	1.553593	0.780410	-0.358872
C126	C	1.601689	0.737231	-0.437328
C127	C	1.553615	0.694044	-0.445260
C128	C	1.457455	0.694038	-0.374739
H129	H	0.261795	0.963003	0.124956
H130	H	0.177132	0.777359	0.140855
H131	H	1.418218	0.356129	-0.224448
H132	H	1.418293	0.815560	-0.224473
C133	C	0.606415	1.120629	0.090625
H134	H	0.670567	1.067400	0.084449
H135	H	0.537372	1.149940	0.147439
H136	H	0.643938	1.149928	0.069285
C137	C	1.606394	0.205773	-0.350097
H138	H	1.563947	0.211171	-0.293269
H139	H	1.697171	0.176458	-0.375799
H140	H	1.590632	0.176468	-0.375814
C141	C	0.741930	0.382927	0.096655
H142	H	0.727666	0.414491	0.062615
H143	H	0.728256	0.414927	0.140542
H144	H	0.683188	0.367565	0.118626
H145	H	1.148939	0.438105	-0.299227
H146	H	1.679989	0.737242	-0.494744
H147	H	1.118865	0.237739	0.060398
H148	H	0.023469	1.073797	0.235752
C149	C	1.269134	0.091668	-0.096676
H150	H	1.283478	0.060069	-0.141193
H151	H	1.282963	0.059648	-0.062859
H152	H	1.327715	0.107159	-0.117776
C153	C	0.579449	0.608940	-0.128313
H154	H	0.671450	0.572573	-0.164678
H155	H	0.545412	0.634014	-0.158487
H156	H	0.545414	0.578765	-0.103218
C157	C	1.404610	0.646516	-0.383472
H158	H	1.340450	0.652692	-0.330240
H159	H	1.473658	0.589706	-0.412780
H160	H	1.367103	0.667843	-0.412779
H161	H	1.679968	0.242526	-0.494717
H162	H	1.592725	0.815577	-0.352397
H163	H	1.592786	0.384838	-0.509132
C164	C	1.606412	0.205751	-0.090719
H165	H	1.564027	0.211118	-0.116447
H166	H	1.590642	0.176455	-0.053430
H167	H	1.697201	0.176444	-0.131589
H168	H	0.592622	0.815593	0.381074
C169	C	1.404571	0.535214	-0.383470
H170	H	1.446992	0.529815	-0.440299
H171	H	1.420313	0.564535	-0.357758
H172	H	1.313788	0.564515	-0.357764
H173	H	1.592789	0.658889	-0.509149
C174	C	1.404495	0.353829	-0.090728
H175	H	1.446901	0.297006	-0.116434
H176	H	1.420250	0.379539	-0.131603
H177	H	1.313709	0.379539	-0.053442
H178	H	0.418189	0.815606	0.509026
H179	H	-0.061171	0.888145	0.251632
C180	C	1.707346	0.222411	-0.000026
H181	H	1.729114	0.174549	-0.031931
H182	H	1.675813	0.222417	0.055001
H183	H	1.782371	0.222412	-0.023153
C184	C	0.606441	1.120595	0.201925
H185	H	0.564057	1.177415	0.207307
H186	H	0.590679	1.094888	0.172615
H187	H	0.697229	1.094873	0.172620
C188	C	1.404462	0.535233	0.090649
H189	H	1.446878	0.529845	0.116359
H190	H	1.313680	0.564542	0.131520
H191	H	1.420235	0.564538	0.053366
C192	C	0.303535	1.252085	0.514762
H193	H	0.281769	1.236147	0.562630
H194	H	0.228523	1.283994	0.514760
H195	H	0.335085	1.283974	0.514750
C196	C	0.741778	0.834008	-0.452217
H197	H	0.698297	0.889231	-0.420814
H198	H	0.697762	0.811283	-0.420002
H199	H	0.742529	0.833362	-0.500344
H200	H	0.441534	0.848064	0.110755
H201	H	0.749135	0.511456	-0.125104
C202	C	-0.175538	1.053821	0.316538
H203	H	-0.188014	1.105432	0.327114
H204	H	-0.201352	1.040148	0.365695
H205	H	-0.226390	1.057335	0.298236
C206	C	0.999552	0.377330	-0.243368
H207	H	1.090534	0.343914	-0.284732
H208	H	0.955920	0.374909	-0.265291
H209	H	0.980962	0.357720	-0.197834
H210	H	0.330925	0.737268	0.494688
H211	H	0.418124	0.658915	0.352371
C212	C	1.097530	0.592208	-0.261718
H213	H	1.181825	0.544140	-0.301844
H214	H	1.098116	0.614636	-0.219781
H215	H	1.073061	0.631837	-0.287231
H216	H	0.892009	0.676917	-0.416212
H217	H	0.592579	0.658901	0.224395
H218	H	0.891913	0.236663	0.143533
C219	C	1.137122	0.238113	-0.166652
H220	H	1.093285	0.238841	-0.189789
H221	H	1.224059	0.190207	-0.198934
H222	H	1.137280	0.285905	-0.166030
C223	C	0.821671	0.720448	-0.133462
H224	H	0.893491	0.723991	-0.163003
H225	H	0.783924	0.737799	-0.076095
H226	H	0.758872	0.754993	-0.143547
C227	C	0.404513	1.268691	0.349995
H228	H	0.340362	1.309569	0.403225
H229	H	0.367006	1.274855	0.320696
H230	H	0.473543	1.274882	0.320678
C231	C	1.268979	0.640664	-0.547642
H232	H	1.312490	0.664006	-0.578991
H233	H	1.313106	0.585636	-0.579855
H234	H	1.268011	0.640627	-0.499436
H235	H	0.592729	0.961644	-0.078430
H236	H	0.418168	1.089628	0.509027
C237	C	1.606344	0.387165	0.090665
H238	H	1.563912	0.443989	0.116392
H239	H	1.697125	0.361459	0.053398
H240	H	1.590569	0.361450	0.131538
C241	C	1.137241	0.807225	-0.597541
H242	H	1.224641	0.775107	-0.614241
H243	H	1.094402	0.862166	-0.565798
H244	H	1.136038	0.807411	-0.644951
H245	H	0.592602	0.961661	0.381096
C246	C	0.873753	0.903967	-0.402780
H247	H	0.874207	0.903427	-0.355092
H248	H	0.786613	0.936050	-0.386551
H249	H	0.917110	0.927265	-0.434435
C250	C	1.137199	0.570602	-0.597457
H251	H	1.224589	0.538626	-0.614138
H252	H	1.136004	0.571267	-0.644866
H253	H	1.094351	0.547091	-0.565681
C254	C	0.404583	1.087297	-0.090783
H255	H	0.446976	1.030474	-0.116481
H256	H	0.420358	1.112998	-0.131664
H257	H	0.313794	1.113018	-0.053501
C258	C	0.303606	1.252051	-0.000110
H259	H	0.281848	1.299914	0.031788
H260	H	0.228589	1.252048	0.023008
H261	H	0.335147	1.252048	-0.055140
C262	C	0.404514	1.268714	0.090597
H263	H	0.340366	1.309570	0.084406
H264	H	0.473529	1.274913	0.069282
H265	H	0.366972	1.274904	0.147421
H266	H	0.891951	0.236672	-0.060344
