data_functionalizedCrystal
_audit_creation_method	'MofGen! by Chris Wilmer'
_symmetry_space_group_name_H-M	'P1'
_symmetry_Int_Tables_number	1
_symmetry_cell_setting	triclinic
loop_
_symmetry_equiv_pos_as_xyz
  x,y,z
_cell_length_a	18.215407
_cell_length_b	12.645330
_cell_length_c	18.215399
_cell_angle_alpha	90.022131
_cell_angle_beta	89.982632
_cell_angle_gamma	89.976370
loop_
_atom_site_label
_atom_site_type_symbol
_atom_site_fract_x
_atom_site_fract_y
_atom_site_fract_z
Zn1	Zn	1.125065	0.422123	-0.416097
Zn2	Zn	1.625065	0.922123	0.083903
Zn3	Zn	1.124971	0.599405	-0.293043
Zn4	Zn	1.624971	1.099405	0.206957
Zn5	Zn	1.001998	0.422148	-0.293050
Zn6	Zn	1.501998	0.922148	0.206950
Zn7	Zn	1.001961	0.599337	-0.416074
Zn8	Zn	1.501961	1.099337	0.083926
O9	O	1.063499	0.510753	-0.354566
O10	O	1.563499	1.010753	0.145434
O11	O	1.228037	0.445657	-0.399781
O12	O	1.728037	0.945657	0.100219
O13	O	1.108634	0.575931	-0.190060
O14	O	1.608634	1.075931	0.309940
O15	O	1.018378	0.273797	-0.309385
O16	O	1.518378	0.773797	0.190615
O17	O	1.227968	0.575906	-0.309374
O18	O	1.727968	1.075906	0.190626
O19	O	1.108795	0.273779	-0.399787
O20	O	1.608795	0.773779	0.100213
O21	O	1.018286	0.445701	-0.190065
O22	O	1.518286	0.945701	0.309935
O23	O	0.899009	0.445634	-0.309362
O24	O	1.399009	0.945634	0.190638
O25	O	1.018315	0.575790	-0.519061
O26	O	1.518315	1.075790	-0.019061
O27	O	0.898982	0.575814	-0.399747
O28	O	1.398982	1.075814	0.100253
O29	O	1.108759	0.445591	-0.519078
O30	O	1.608759	0.945591	-0.019078
O31	O	1.108598	0.747743	-0.309351
O32	O	1.608598	1.247743	0.190649
O33	O	1.018224	0.747693	-0.399741
O34	O	1.518224	1.247693	0.100259
C35	C	0.872292	0.510720	-0.354553
C36	C	1.372292	1.010720	0.145447
C37	C	0.790494	0.510732	-0.354565
C38	C	1.290494	1.010732	0.145435
C39	C	0.602335	0.443051	-0.401714
C40	C	1.102335	0.943051	0.098286
C41	C	0.525476	0.443060	-0.401717
C42	C	1.025476	0.943060	0.098283
C43	C	0.525415	0.578485	-0.307431
C44	C	1.025415	1.078485	0.192569
C45	C	0.602272	0.578469	-0.307425
C46	C	1.102272	1.078469	0.192575
C47	C	0.640730	0.510754	-0.354571
C48	C	1.140730	1.010754	0.145429
C49	C	0.487014	0.510779	-0.354579
C50	C	0.987014	1.010779	0.145421
C51	C	0.403680	0.510789	-0.354581
C52	C	0.903680	1.010789	0.145419
C53	C	0.724069	0.510742	-0.354568
C54	C	1.224069	1.010742	0.145432
C55	C	1.063417	0.786183	-0.354559
C56	C	1.563417	1.286183	0.145441
C57	C	1.063449	0.904013	-0.354580
C58	C	1.563449	1.404013	0.145420
C59	C	1.006811	1.071589	-0.411622
C60	C	1.506811	1.571589	0.088378
C61	C	1.006534	0.949030	-0.411437
C62	C	1.506534	1.449030	0.088563
C63	C	1.042451	0.948602	-0.277023
C64	C	1.542451	1.448602	0.222977
C65	C	1.042093	1.071200	-0.277371
C66	C	1.542093	1.571200	0.222629
C67	C	1.141391	1.071108	-0.374471
C68	C	1.641391	1.571108	0.125529
C69	C	1.140926	0.948501	-0.376166
C70	C	1.640926	1.448501	0.123834
C71	C	1.255452	0.510786	-0.354579
C72	C	1.755452	1.010786	0.145421
C73	C	1.337250	0.510801	-0.354585
C74	C	1.837250	1.010801	0.145415
C75	C	1.063544	0.510680	-0.546519
C76	C	1.563544	1.010680	-0.046519
C77	C	1.063563	0.510649	-0.628318
C78	C	1.563563	1.010649	-0.128318
C79	C	1.063575	1.234248	-0.354592
C80	C	1.563575	1.734248	0.145408
C81	C	1.063542	1.116418	-0.354610
C82	C	1.563542	1.616418	0.145390
C83	C	1.110674	0.442791	-0.816522
C84	C	1.610674	0.942791	-0.316522
C85	C	1.110683	0.442760	-0.893381
C86	C	1.610683	0.942760	-0.393381
C87	C	1.016503	0.578342	-0.893352
C88	C	1.516503	1.078342	-0.393352
C89	C	1.016492	0.578367	-0.816494
C90	C	1.516492	1.078367	-0.316494
C91	C	1.063581	0.510593	-0.778082
C92	C	1.563581	1.010593	-0.278082
C93	C	1.063602	0.510537	-0.931798
C94	C	1.563602	1.010537	-0.431798
C95	C	1.063611	0.510504	-1.015131
C96	C	1.563611	1.010504	-0.515131
C97	C	1.063571	0.510624	-0.694743
C98	C	1.563571	1.010624	-0.194743
C99	C	1.063496	0.510749	-0.163360
C100	C	1.563496	1.010749	0.336640
C101	C	1.063620	0.510482	-0.081561
C102	C	1.563620	1.010482	0.418439
H103	H	0.494093	0.633617	-0.269047
H104	H	0.994093	1.133617	0.230953
N105	N	0.968393	0.647555	-0.932587
N106	N	1.468393	1.147555	-0.432587
N107	N	0.900487	0.640496	-0.923993
N108	N	1.400487	1.140496	-0.423993
H109	H	0.866505	0.689373	-0.951704
H110	H	1.366505	1.189373	-0.451704
N111	N	0.641486	0.647630	-0.259256
N112	N	1.141486	1.147630	0.240744
N113	N	0.607142	0.708087	-0.217168
N114	N	1.107142	1.208087	0.282832
H115	H	0.634836	0.756927	-0.183148
H116	H	1.134836	1.256927	0.316852
H117	H	0.633645	0.387910	-0.440101
H118	H	1.133645	0.887910	0.059899
N119	N	0.486268	0.373891	-0.449874
N120	N	0.986268	0.873891	0.050126
N121	N	0.520617	0.313436	-0.491959
N122	N	1.020617	0.813436	0.008041
H123	H	0.492927	0.264580	-0.525971
H124	H	0.992927	0.764580	-0.025971
N125	N	1.158767	0.373570	-0.777273
N126	N	1.658767	0.873570	-0.277273
N127	N	1.205644	0.410885	-0.734387
N128	N	1.705644	0.910885	-0.234387
H129	H	1.239610	0.361994	-0.706668
H130	H	1.739610	0.861994	-0.206668
N131	N	1.158788	0.373490	-0.932635
N132	N	1.658788	0.873490	-0.432635
N133	N	1.200822	0.312982	-0.898326
N134	N	1.700822	0.812982	-0.398326
H135	H	1.234798	0.264054	-0.926049
H136	H	1.734798	0.764054	-0.426049
N137	N	0.968374	0.647629	-0.777234
N138	N	1.468374	1.147629	-0.277234
N139	N	0.926337	0.708139	-0.811538
N140	N	1.426337	1.208139	-0.311538
H141	H	0.892353	0.757050	-0.783811
H142	H	1.392353	1.257050	-0.283811
H143	H	1.160539	1.101956	-0.430065
H144	H	1.660539	1.601956	0.069935
H145	H	1.019671	0.918879	-0.468945
H146	H	1.519671	1.418879	0.031055
H147	H	1.019822	1.101005	-0.469319
H148	H	1.519822	1.601005	0.030681
H149	H	0.948827	0.919791	-0.398278
H150	H	1.448827	1.419791	0.101722
N151	N	0.934866	1.110359	-0.395325
N152	N	1.434866	1.610359	0.104675
N153	N	0.925191	1.170860	-0.341905
N154	N	1.425191	1.670860	0.158095
H155	H	0.874380	1.198244	-0.330393
H156	H	1.374380	1.698244	0.169607
N157	N	0.970703	1.107179	-0.256258
N158	N	1.470703	1.607179	0.243742
N159	N	0.921489	1.041744	-0.241371
N160	N	1.421489	1.541744	0.258629
H161	H	0.871067	1.067148	-0.226460
H162	H	1.371067	1.567148	0.273540
H163	H	1.081621	1.100858	-0.233444
H164	H	1.581621	1.600858	0.266556
H165	H	1.082468	0.919444	-0.233384
H166	H	1.582468	1.419444	0.266616
N167	N	0.971814	0.910189	-0.255538
N168	N	1.471814	1.410189	0.244462
N169	N	0.936814	0.849987	-0.297211
N170	N	1.436814	1.349987	0.202789
H171	H	0.886924	0.822857	-0.282041
H172	H	1.386924	1.322857	0.217959
N173	N	1.194429	1.107476	-0.322398
N174	N	1.694429	1.607476	0.177602
N175	N	1.260127	1.080233	-0.328432
N176	N	1.760127	1.580233	0.171568
H177	H	1.297581	1.105923	-0.291655
H178	H	1.797581	1.605923	0.208345
H179	H	1.156761	0.919354	-0.433244
H180	H	1.656761	1.419354	0.066756
N181	N	1.196746	0.910052	-0.327861
N182	N	1.696746	1.410052	0.172139
N183	N	1.180260	0.848967	-0.276507
N184	N	1.680260	1.348967	0.223493
H185	H	1.219680	0.821814	-0.242384
H186	H	1.719680	1.321814	0.257616
