data_functionalizedCrystal
_audit_creation_method	'MofGen! by Chris Wilmer'
_symmetry_space_group_name_H-M	'P1'
_symmetry_Int_Tables_number	1
_symmetry_cell_setting	triclinic
loop_
_symmetry_equiv_pos_as_xyz
  x,y,z
_cell_length_a	21.295417
_cell_length_b	21.295418
_cell_length_c	15.296720
_cell_angle_alpha	99.635200
_cell_angle_beta	80.361834
_cell_angle_gamma	89.951286
loop_
_atom_site_label
_atom_site_type_symbol
_atom_site_fract_x
_atom_site_fract_y
_atom_site_fract_z
Zn1	Zn	-0.311963	-0.900624	0.510555
Zn2	Zn	0.188037	-0.400624	1.010555
Zn3	Zn	-0.399018	-0.918766	0.359704
Zn4	Zn	0.100982	-0.418766	0.859704
Zn5	Zn	-0.293796	-0.813590	0.359671
Zn6	Zn	0.206204	-0.313590	0.859671
Zn7	Zn	-0.417217	-0.795331	0.510432
Zn8	Zn	0.082783	-0.295331	1.010432
O9	O	-0.355499	-0.857078	0.435090
O10	O	0.144501	-0.357078	0.935090
O11	O	-0.323498	-0.991112	0.490609
O12	O	0.176502	-0.491112	0.990609
O13	O	-0.369841	-0.920048	0.233474
O14	O	0.130159	-0.420048	0.733474
O15	O	-0.208121	-0.825185	0.379724
O16	O	0.291879	-0.325185	0.879724
O17	O	-0.387457	-1.004441	0.379780
O18	O	0.112543	-0.504441	0.879780
O19	O	-0.221468	-0.889128	0.490577
O20	O	0.278532	-0.389128	0.990577
O21	O	-0.292534	-0.842776	0.233450
O22	O	0.207466	-0.342776	0.733450
O23	O	-0.310181	-0.723087	0.379604
O24	O	0.189819	-0.223087	0.879604
O25	O	-0.418474	-0.794064	0.636673
O26	O	0.081526	-0.294064	1.136673
O27	O	-0.400858	-0.709672	0.490368
O28	O	0.099142	-0.209672	0.990368
O29	O	-0.341145	-0.871422	0.636764
O30	O	0.158855	-0.371422	1.136764
O31	O	-0.489517	-0.902343	0.379661
O32	O	0.010483	-0.402343	0.879661
O33	O	-0.502888	-0.811656	0.490400
O34	O	-0.002888	-0.311656	0.990400
C35	C	-0.355524	-0.693541	0.434970
C36	C	0.144476	-0.193541	0.934970
C37	C	-0.355553	-0.623576	0.434939
C38	C	0.144447	-0.123576	0.934939
C39	C	-0.402812	-0.583751	0.492524
C40	C	0.097188	-0.083751	0.992524
C41	C	-0.402803	-0.518005	0.492558
C42	C	0.097197	-0.018005	0.992558
C43	C	-0.355540	-0.492087	0.434991
C44	C	0.144460	0.007913	0.934991
C45	C	-0.308272	-0.531920	0.377402
C46	C	0.191728	-0.031920	0.877402
C47	C	-0.308279	-0.597665	0.377376
C48	C	0.191721	-0.097665	0.877376
N49	N	-0.341099	-0.398352	0.356087
N50	N	0.158901	0.101648	0.856087
N51	N	-0.341097	-0.335897	0.356114
N52	N	0.158903	0.164103	0.856114
C53	C	-0.355517	-0.294004	0.435066
C54	C	0.144483	0.205996	0.935066
N55	N	-0.369952	-0.316924	0.513992
N56	N	0.130048	0.183076	1.013992
N57	N	-0.369957	-0.379384	0.513964
N58	N	0.130043	0.120616	1.013964
C59	C	-0.355527	-0.420799	0.435013
C60	C	0.144473	0.079201	0.935013
C61	C	-0.402770	-0.182888	0.492692
C62	C	0.097230	0.317112	0.992692
C63	C	-0.402757	-0.117141	0.492728
C64	C	0.097243	0.382859	0.992728
C65	C	-0.308228	-0.131058	0.377563
C66	C	0.191772	0.368942	0.877563
C67	C	-0.308239	-0.196804	0.377536
C68	C	0.191761	0.303196	0.877536
C69	C	-0.355513	-0.222715	0.435099
C70	C	0.144487	0.277285	0.935099
C71	C	-0.519044	-0.857001	0.435040
C72	C	-0.019044	-0.357001	0.935040
C73	C	-0.589013	-0.857022	0.435049
C74	C	-0.089013	-0.357022	0.935049
C75	C	-0.614904	-0.904272	0.377447
C76	C	-0.114904	-0.404272	0.877447
C77	C	-0.680649	-0.904299	0.377467
C78	C	-0.180649	-0.404299	0.877467
C79	C	-0.720500	-0.857066	0.435080
C80	C	-0.220500	-0.357066	0.935080
C81	C	-0.694602	-0.809813	0.492694
C82	C	-0.194602	-0.309813	0.992694
C83	C	-0.628859	-0.809791	0.492679
C84	C	-0.128859	-0.309791	0.992679
N85	N	-0.824608	-0.801173	0.441916
N86	N	-0.324608	-0.301173	0.941916
N87	N	-0.887061	-0.801196	0.441926
N88	N	-0.387061	-0.301196	0.941926
C89	C	-0.918580	-0.857131	0.435132
C90	C	-0.418580	-0.357131	0.935132
N91	N	-0.885286	-0.913044	0.428311
N92	N	-0.385286	-0.413044	0.928311
N93	N	-0.822827	-0.913021	0.428297
N94	N	-0.322827	-0.413021	0.928297
C95	C	-0.791788	-0.857085	0.435104
C96	C	-0.291788	-0.357085	0.935104
C97	C	-1.015759	-0.904413	0.377548
C98	C	-0.515759	-0.404413	0.877548
C99	C	-1.081506	-0.904440	0.377575
C100	C	-0.581506	-0.404440	0.877575
C101	C	-1.095457	-0.809950	0.492798
C102	C	-0.595457	-0.309950	0.992798
C103	C	-1.029712	-0.809927	0.492776
C104	C	-0.529712	-0.309927	0.992776
C105	C	-0.989866	-0.857159	0.435146
C106	C	-0.489866	-0.357159	0.935146
C107	C	-0.191317	-0.857169	0.435160
C108	C	0.308683	-0.357169	0.935160
C109	C	-0.121352	-0.857208	0.435190
C110	C	0.378648	-0.357208	0.935190
C111	C	-0.383866	-0.828683	0.670363
C112	C	0.116134	-0.328683	1.170363
C113	C	-0.395955	-0.816582	0.770622
C114	C	0.104045	-0.316582	1.270622
C115	C	-0.355481	-0.021256	0.435186
C116	C	0.144519	0.478744	0.935186
C117	C	-0.355492	-0.091227	0.435161
C118	C	0.144508	0.408773	0.935161
C119	C	-0.327196	-0.885398	0.200734
C120	C	0.172804	-0.385398	0.700734
C121	C	-0.314930	-0.897621	0.100475
C122	C	0.185070	-0.397621	0.600475
C123	C	-0.268989	-0.943584	1.053423
C124	C	0.231011	-0.443584	1.553423
C125	C	-0.257633	-0.954956	0.959225
C126	C	0.242367	-0.454956	1.459225
C127	C	-0.292212	-0.920364	0.912069
C128	C	0.207788	-0.420364	1.412069
C129	C	-0.338150	-0.874397	0.959121
C130	C	0.161850	-0.374397	1.459121
C131	C	-0.349512	-0.863026	1.053329
C132	C	0.150488	-0.363026	1.553329
C133	C	-0.372734	-0.839806	0.911975
C134	C	0.127266	-0.339806	1.411975
C135	C	-0.418673	-0.793839	0.959027
C136	C	0.081327	-0.293839	1.459027
C137	C	-0.430032	-0.782471	1.053226
C138	C	0.069968	-0.282471	1.553226
C139	C	-0.395452	-0.817063	1.100381
C140	C	0.104548	-0.317063	1.600381
C141	C	-0.361373	-0.851177	0.817768
C142	C	0.138627	-0.351177	1.317768
C143	C	-0.441895	-0.770619	0.817674
C144	C	0.058105	-0.270619	1.317674
C145	C	-0.453252	-0.759247	0.911872
C146	C	0.046748	-0.259247	1.411872
H147	H	-0.441305	-0.604844	0.539398
H148	H	0.058695	-0.104844	1.039398
H149	H	-0.404697	-0.807806	1.177085
H150	H	0.095303	-0.307806	1.677085
N151	N	-0.208076	-1.004523	0.908493
N152	N	0.291924	-0.504523	1.408493
H153	H	-0.174197	-0.983673	0.869408
H154	H	0.325803	-0.483673	1.369408
H155	H	-0.228980	-1.038387	0.869467
H156	H	0.271020	-0.538387	1.369467
N157	N	-0.453752	-0.210839	0.554782
N158	N	0.046248	0.289161	1.054782
H159	H	-0.446589	-0.258532	0.546022
H160	H	0.053411	0.241468	1.046022
H161	H	-0.496984	-0.200999	0.540626
H162	H	0.003016	0.299001	1.040626
H163	H	-0.470054	-0.742452	0.779280
H164	H	0.029946	-0.242452	1.279280
N165	N	-1.001779	-0.758958	0.554890
N166	N	-0.501779	-0.258958	1.054890
H167	H	-0.979503	-0.779454	0.596735
H168	H	-0.479503	-0.279454	1.096735
H169	H	-1.037030	-0.729054	0.591331
H170	H	-0.537030	-0.229054	1.091331
N171	N	-0.502799	-0.709674	0.962639
N172	N	-0.002799	-0.209674	1.462639
H173	H	-0.545798	-0.721398	0.946240
H174	H	-0.045798	-0.221398	1.446240
H175	H	-0.490996	-0.666703	0.946203
H176	H	0.009004	-0.166703	1.446203
H177	H	-0.441288	-0.485573	0.539454
H178	H	0.058712	0.014427	1.039454
N179	N	-0.453734	-0.074183	0.554837
N180	N	0.046266	0.425817	1.054837
H181	H	-0.483682	-0.100578	0.591292
H182	H	0.016318	0.399422	1.091292
H183	H	-0.478379	-0.051299	0.518042
H184	H	0.021621	0.448701	1.018042
H185	H	-0.269758	-0.229231	0.330640
H186	H	0.230242	0.270769	0.830640
N187	N	-0.257301	-0.503973	0.315300
N188	N	0.242699	-0.003973	0.815300
H189	H	-0.264471	-0.456281	0.324046
H190	H	0.235529	0.043719	0.824046
H191	H	-0.259269	-0.523204	0.250854
H192	H	0.240731	-0.023204	0.750854
H193	H	-0.582463	-0.942732	0.330524
H194	H	-0.082463	-0.442732	0.830524
H195	H	-0.467443	-0.745046	1.091533
H196	H	0.032557	-0.245046	1.591533
H197	H	-1.127904	-0.771494	0.539712
H198	H	-0.627904	-0.271494	1.039712
N199	N	-0.257299	-0.640617	0.315264
N200	N	0.242701	-0.140617	0.815264
H201	H	-0.259227	-0.636910	0.250793
H202	H	0.240773	-0.136910	0.750793
H203	H	-0.264501	-0.686178	0.324055
H204	H	0.235499	-0.186178	0.824055
N205	N	-0.257246	-0.103114	0.315478
N206	N	0.242754	0.396886	0.815478
H207	H	-0.264411	-0.055421	0.324233
H208	H	0.235589	0.444579	0.824233
H209	H	-0.259203	-0.122337	0.251026
H210	H	0.240797	0.377663	0.751026
H211	H	-0.607779	-0.771314	0.539587
H212	H	-0.107779	-0.271314	1.039587
H213	H	-0.701734	-0.942777	0.330560
H214	H	-0.201734	-0.442777	0.830560
H215	H	-0.727053	-0.771357	0.539605
H216	H	-0.227053	-0.271357	1.039605
H217	H	-0.983315	-0.942874	0.330626
H218	H	-0.483315	-0.442874	0.830626
N219	N	-0.231698	-0.980894	1.104277
N220	N	0.268302	-0.480894	1.604277
H221	H	-0.261992	-1.005329	1.143369
H222	H	0.238008	-0.505329	1.643369
H223	H	-0.207247	-0.950577	1.143306
H224	H	0.292753	-0.450577	1.643306
H225	H	-1.102584	-0.942920	0.330670
H226	H	-0.602584	-0.442920	0.830670
N227	N	-0.311831	-0.900754	0.767024
N228	N	0.188169	-0.400754	1.267024
H229	H	-0.268833	-0.889029	0.783428
H230	H	0.231167	-0.389029	1.283428
H231	H	-0.309938	-0.902687	0.700209
H232	H	0.190062	-0.402687	1.200209
N233	N	-0.279966	-0.932618	0.810470
N234	N	0.220034	-0.432618	1.310470
H235	H	-0.288796	-0.978527	0.787798
H236	H	0.211204	-0.478527	1.287798
H237	H	-0.234050	-0.923777	0.787864
H238	H	0.265950	-0.423777	1.287864
