data_functionalizedCrystal
_audit_creation_method	'MofGen! by Chris Wilmer'
_symmetry_space_group_name_H-M	'P1'
_symmetry_Int_Tables_number	1
_symmetry_cell_setting	triclinic
loop_
_symmetry_equiv_pos_as_xyz
  x,y,z
_cell_length_a	17.077404
_cell_length_b	12.759394
_cell_length_c	17.077396
_cell_angle_alpha	90.026316
_cell_angle_beta	90.019501
_cell_angle_gamma	90.015062
loop_
_atom_site_label
_atom_site_type_symbol
_atom_site_fract_x
_atom_site_fract_y
_atom_site_fract_z
Zn1	Zn	1.200099	-0.418260	0.443855
Zn2	Zn	1.200024	-0.593961	0.312593
Zn3	Zn	1.068830	-0.418297	0.312602
Zn4	Zn	1.068817	-0.593898	0.443817
O5	O	1.134442	-0.506104	0.378217
O6	O	1.309936	-0.441578	0.426454
O7	O	1.182595	-0.570700	0.202748
O8	O	1.086280	-0.271271	0.330033
O9	O	1.309881	-0.570664	0.330017
O10	O	1.182722	-0.271244	0.426463
O11	O	1.086208	-0.441641	0.202754
O12	O	0.958982	-0.441580	0.329996
O13	O	1.086257	-0.570558	0.553669
O14	O	0.958972	-0.570594	0.426399
O15	O	1.182709	-0.441517	0.553697
O16	O	1.182582	-0.740974	0.329981
O17	O	1.086185	-0.740928	0.426391
C18	C	0.930495	-0.506085	0.378195
C19	C	0.843245	-0.506102	0.378205
C20	C	0.802270	-0.573381	0.428321
C21	C	0.720290	-0.573383	0.428334
C22	C	0.679285	-0.506111	0.378225
C23	C	0.720266	-0.438825	0.328107
C24	C	0.802245	-0.438818	0.328099
C25	C	0.549396	-0.438846	0.328125
C26	C	0.467411	-0.438854	0.328132
C27	C	0.467441	-0.573411	0.428360
C28	C	0.549419	-0.573404	0.428352
C29	C	0.590394	-0.506119	0.378233
C30	C	1.134395	-0.779072	0.378198
C31	C	1.134447	-0.895848	0.378216
C32	C	1.234901	-0.895843	0.277900
C33	C	1.285148	-0.950701	0.227751
C34	C	1.285194	-1.060422	0.227773
C35	C	1.234989	-1.115288	0.277950
C36	C	1.184742	-1.060430	0.328099
C37	C	1.184700	-0.950706	0.328070
C38	C	1.084293	-1.060436	0.428417
C39	C	1.084242	-0.950714	0.428393
C40	C	1.034088	-1.115302	0.478594
C41	C	0.983835	-1.060444	0.528740
C42	C	0.983791	-0.950716	0.528716
C43	C	1.033994	-0.895856	0.478542
C44	C	1.339187	-0.506124	0.378239
C45	C	1.426436	-0.506132	0.378249
C46	C	1.134490	-0.506027	0.582961
C47	C	1.134510	-0.505994	0.670211
C48	C	1.134511	-0.232071	0.378253
C49	C	1.134540	-0.115294	0.378269
C50	C	1.134440	-0.506105	0.174269
C51	C	1.134572	-0.505842	0.087020
C52	C	1.184735	-0.438797	0.711217
C53	C	1.184744	-0.438762	0.793197
C54	C	1.134532	-0.505930	0.834171
C55	C	1.084302	-0.573130	0.793159
C56	C	1.084290	-0.573159	0.711180
C57	C	1.084334	-0.573067	0.964029
C58	C	1.084348	-0.573039	1.046014
C59	C	1.184788	-0.438670	1.046047
C60	C	1.184776	-0.438699	0.964068
C61	C	1.134546	-0.505900	0.923062
H62	H	0.582755	-0.384046	0.287319
H63	H	0.835606	-0.384028	0.287293
H64	H	1.235038	-1.204629	0.277970
Br65	Br	1.252960	-0.347471	1.101696
Br66	Br	1.033782	-1.264210	0.478257
Br67	Br	0.915715	-1.134909	0.596838
Br68	Br	1.016120	-0.664352	0.655528
Br69	Br	1.235085	-0.746934	0.278111
H70	H	1.326114	-1.105087	0.186941
H71	H	1.043420	-0.627773	0.930645
H72	H	0.942876	-0.906056	0.569557
Br73	Br	1.034190	-0.746948	0.478757
Br74	Br	1.016195	-0.664187	1.101621
Br75	Br	1.016152	-0.664282	0.848765
H76	H	0.686931	-0.628169	0.469143
H77	H	0.686874	-0.384047	0.287311
H78	H	0.835650	-0.628165	0.469123
H79	H	1.225625	-0.384104	0.677862
Br80	Br	1.252928	-0.347550	0.908461
Br81	Br	0.605068	-0.664713	0.496350
Br82	Br	0.411833	-0.664713	0.496391
H83	H	1.225644	-0.384046	0.826581
H84	H	1.326027	-0.906019	0.186899
H85	H	0.434028	-0.384062	0.287339
