data_functionalizedCrystal
_audit_creation_method	'MofGen! by Chris Wilmer'
_symmetry_space_group_name_H-M	'P1'
_symmetry_Int_Tables_number	1
_symmetry_cell_setting	triclinic
loop_
_symmetry_equiv_pos_as_xyz
  x,y,z
_cell_length_a	18.050589
_cell_length_b	13.897449
_cell_length_c	13.897441
_cell_angle_alpha	90.026069
_cell_angle_beta	89.972127
_cell_angle_gamma	89.971851
loop_
_atom_site_label
_atom_site_type_symbol
_atom_site_fract_x
_atom_site_fract_y
_atom_site_fract_z
Zn1	Zn	-0.295637	-1.474632	-0.545537
Zn2	Zn	0.037696	-1.141299	-0.212203
Zn3	Zn	0.371030	-0.807965	0.121130
Zn4	Zn	-0.419841	-1.474496	-0.384246
Zn5	Zn	-0.086508	-1.141163	-0.050912
Zn6	Zn	0.246825	-0.807830	0.282421
Zn7	Zn	-0.295670	-1.313321	-0.384240
Zn8	Zn	0.037664	-0.979988	-0.050907
Zn9	Zn	0.370997	-0.646655	0.282427
Zn10	Zn	-0.419790	-1.313273	-0.545483
Zn11	Zn	-0.086456	-0.979940	-0.212150
Zn12	Zn	0.246877	-0.646607	0.121183
O13	O	-0.357734	-1.393931	-0.464876
O14	O	-0.024401	-1.060597	-0.131543
O15	O	0.308932	-0.727264	0.201790
O16	O	-0.312121	-1.609596	-0.524166
O17	O	0.021212	-1.276262	-0.190833
O18	O	0.354545	-0.942929	0.142501
O19	O	-0.403405	-1.453080	-0.249263
O20	O	-0.070072	-1.119746	0.084070
O21	O	0.263262	-0.786413	0.417403
O22	O	-0.191741	-1.334796	-0.405656
O23	O	0.141593	-1.001463	-0.072323
O24	O	0.474926	-0.668130	0.261010
O25	O	-0.403374	-1.609496	-0.405666
O26	O	-0.070040	-1.276163	-0.072333
O27	O	0.263293	-0.942829	0.261001
O28	O	-0.191717	-1.453311	-0.524160
O29	O	0.141616	-1.119977	-0.190827
O30	O	0.474950	-0.786644	0.142506
O31	O	-0.312176	-1.334665	-0.249259
O32	O	0.021157	-1.001331	0.084074
O33	O	0.354490	-0.667998	0.417408
O34	O	-0.312126	-1.178333	-0.405605
O35	O	0.021207	-0.845000	-0.072271
O36	O	0.354540	-0.511667	0.261062
O37	O	-0.403285	-1.334715	-0.680472
O38	O	-0.069952	-1.001381	-0.347139
O39	O	0.263381	-0.668048	-0.013805
O40	O	-0.403317	-1.178298	-0.524069
O41	O	-0.069983	-0.844965	-0.190736
O42	O	0.263350	-0.511631	0.142597
O43	O	-0.312071	-1.453264	-0.680511
O44	O	0.021262	-1.119931	-0.347178
O45	O	0.354596	-0.786598	-0.013845
O46	O	-0.523759	-1.453033	-0.405614
O47	O	-0.190426	-1.119700	-0.072281
O48	O	0.142908	-0.786366	0.261052
O49	O	-0.523721	-1.334583	-0.524075
O50	O	-0.190388	-1.001250	-0.190742
O51	O	0.142946	-0.667916	0.142592
C52	C	-0.357720	-1.143316	-0.464831
C53	C	-0.024387	-0.809983	-0.131498
C54	C	0.308947	-0.476650	0.201835
C55	C	-0.357732	-1.036103	-0.464835
C56	C	-0.024398	-0.702769	-0.131501
C57	C	0.308935	-0.369436	0.201832
C58	C	-0.357733	-0.949033	-0.464847
C59	C	-0.024400	-0.615699	-0.131513
C60	C	0.308934	-0.282366	0.201820
C61	C	-0.357737	-0.839800	-0.464871
C62	C	-0.024404	-0.506467	-0.131538
C63	C	0.308930	-0.173134	0.201796
C64	C	-0.550687	-1.393814	-0.464860
C65	C	-0.217353	-1.060481	-0.131527
C66	C	0.115980	-0.727148	0.201806
C67	C	-0.633232	-1.393853	-0.464886
C68	C	-0.299899	-1.060519	-0.131553
C69	C	0.033434	-0.727186	0.201781
C70	C	-0.832689	-1.329503	-0.529282
C71	C	-0.499356	-0.996170	-0.195949
C72	C	-0.166023	-0.662836	0.137384
C73	C	-0.882135	-1.305986	-0.441261
C74	C	-0.548801	-0.972653	-0.107928
C75	C	-0.215468	-0.639319	0.225405
C76	C	-0.784363	-1.393948	-0.464898
C77	C	-0.451029	-1.060614	-0.131565
C78	C	-0.117696	-0.727281	0.201768
C79	C	-0.881999	-1.417512	-0.552929
C80	C	-0.548666	-1.084179	-0.219596
C81	C	-0.215332	-0.750845	0.113737
C82	C	-0.930348	-1.394037	-0.464918
C83	C	-0.597014	-1.060704	-0.131585
C84	C	-0.263681	-0.727371	0.201748
C85	C	-0.832721	-1.370384	-0.376831
C86	C	-0.499388	-1.037051	-0.043498
C87	C	-0.166054	-0.703718	0.289836
C88	C	-0.832581	-1.481951	-0.488558
C89	C	-0.499247	-1.148618	-0.155225
C90	C	-0.165914	-0.815284	0.178108
C91	C	-0.882004	-1.458468	-0.400477
C92	C	-0.548671	-1.125134	-0.067144
C93	C	-0.215337	-0.791801	0.266190
C94	C	-0.700264	-1.393893	-0.464888
C95	C	-0.366931	-1.060560	-0.131555
C96	C	-0.033598	-0.727227	0.201778
C97	C	-1.014444	-1.394092	-0.464919
C98	C	-0.681111	-1.060758	-0.131585
C99	C	-0.347778	-0.727425	0.201748
C100	C	-0.164029	-1.394074	-0.464914
C101	C	0.169305	-1.060741	-0.131580
C102	C	0.502638	-0.727407	0.201753
C103	C	-0.081483	-1.394135	-0.464930
C104	C	0.251850	-1.060802	-0.131596
C105	C	0.585184	-0.727468	0.201737
C106	C	-0.357669	-1.393999	-0.716470
C107	C	-0.024335	-1.060666	-0.383136
C108	C	0.308998	-0.727333	-0.049803
C109	C	-0.357641	-1.394028	-0.823684
C110	C	-0.024308	-1.060695	-0.490350
C111	C	0.309026	-0.727362	-0.157017
C112	C	-0.357746	-0.645524	-0.464911
C113	C	-0.024413	-0.312190	-0.131577
C114	C	0.308920	0.021143	0.201756
C115	C	-0.357744	-0.752738	-0.464896
C116	C	-0.024411	-0.419404	-0.131562
C117	C	0.308923	-0.086071	0.201771
C118	C	-0.357591	-1.394055	-1.019979
C119	C	-0.024257	-1.060721	-0.686646
C120	C	0.309076	-0.727388	-0.353312
C121	C	-0.357621	-1.394037	-0.910746
C122	C	-0.024287	-1.060704	-0.577413
C123	C	0.309046	-0.727370	-0.244080
C124	C	-0.357746	-1.393918	-0.214262
C125	C	-0.024413	-1.060585	0.119071
C126	C	0.308920	-0.727251	0.452405
C127	C	-0.357565	-1.394076	-0.107049
C128	C	-0.024232	-1.060743	0.226285
C129	C	0.309102	-0.727409	0.559618
H130	H	-0.811035	-1.274924	-0.583652
H131	H	-0.477702	-0.941591	-0.250319
H132	H	-0.144369	-0.608258	0.083014
H133	H	-0.903917	-1.231606	-0.421268
H134	H	-0.570584	-0.898273	-0.087935
H135	H	-0.237251	-0.564940	0.245399
H136	H	-0.811164	-1.350403	-0.302372
H137	H	-0.477831	-1.017070	0.030961
H138	H	-0.144498	-0.683737	0.364295
H139	H	-0.810800	-1.556314	-0.508594
H140	H	-0.477467	-1.222981	-0.175261
H141	H	-0.144134	-0.889647	0.158073
H142	H	-0.903521	-1.513005	-0.345975
H143	H	-0.570187	-1.179671	-0.012642
H144	H	-0.236854	-0.846338	0.320691
N145	N	-0.909156	-1.442457	-0.646313
N146	N	-0.575823	-1.109124	-0.312980
N147	N	-0.242490	-0.775790	0.020354
N148	N	-0.893343	-1.391218	-0.717303
N149	N	-0.560010	-1.057885	-0.383969
N150	N	-0.226677	-0.724552	-0.050636
H151	H	-0.912522	-1.408827	-0.783257
H152	H	-0.579188	-1.075494	-0.449924
H153	H	-0.245855	-0.742161	-0.116591
