data_functionalizedCrystal
_audit_creation_method	'MofGen! by Chris Wilmer'
_symmetry_space_group_name_H-M	'P1'
_symmetry_Int_Tables_number	1
_symmetry_cell_setting	triclinic
loop_
_symmetry_equiv_pos_as_xyz
  x,y,z
_cell_length_a	18.101395
_cell_length_b	18.101398
_cell_length_c	18.101390
_cell_angle_alpha	90.028483
_cell_angle_beta	89.968664
_cell_angle_gamma	89.973721
loop_
_atom_site_label
_atom_site_type_symbol
_atom_site_fract_x
_atom_site_fract_y
_atom_site_fract_z
Zn1	Zn	-0.294897	-1.132124	-0.418922
Zn2	Zn	-0.418754	-1.132019	-0.295084
Zn3	Zn	-0.294920	-1.008282	-0.295075
Zn4	Zn	-0.418690	-1.008233	-0.418864
O5	O	-0.356815	-1.070164	-0.356986
O6	O	-0.311343	-1.235743	-0.402522
O7	O	-0.402363	-1.115581	-0.191450
O8	O	-0.191284	-1.024774	-0.311524
O9	O	-0.402340	-1.235666	-0.311539
O10	O	-0.191267	-1.115760	-0.402514
O11	O	-0.311383	-1.024672	-0.191443
O12	O	-0.311322	-0.904643	-0.311468
O13	O	-0.402233	-1.024691	-0.522505
O14	O	-0.402255	-0.904607	-0.402415
O15	O	-0.311282	-1.115713	-0.522547
O16	O	-0.522378	-1.115534	-0.311483
O17	O	-0.522332	-1.024590	-0.402424
C18	C	-0.356785	-0.877754	-0.356935
C19	C	-0.356790	-0.795440	-0.356930
C20	C	-0.549226	-1.070065	-0.356964
C21	C	-0.631540	-1.070091	-0.356980
C22	C	-0.356798	-0.644731	-0.356955
C23	C	-0.299502	-0.613375	-0.299827
C24	C	-0.299282	-0.527757	-0.300009
C25	C	-0.356806	-0.496349	-0.356978
C26	C	-0.335969	-0.527489	-0.435114
C27	C	-0.335548	-0.613134	-0.434771
C28	C	-0.435079	-0.613127	-0.336634
C29	C	-0.434663	-0.527476	-0.334926
C30	C	-0.356812	-0.412489	-0.356996
C31	C	-0.356790	-0.728591	-0.356942
C32	C	-0.930631	-1.070253	-0.357020
C33	C	-0.899307	-1.013166	-0.414379
C34	C	-0.813689	-1.012895	-0.414200
C35	C	-0.782248	-1.070173	-0.357001
C36	C	-0.813403	-1.049043	-0.278948
C37	C	-0.899048	-1.048675	-0.279291
C38	C	-0.898980	-1.148595	-0.377026
C39	C	-0.813328	-1.148134	-0.378738
C40	C	-0.698389	-1.070128	-0.356985
C41	C	-1.014490	-1.070296	-0.357030
C42	C	-0.163653	-1.070284	-0.357024
C43	C	-0.081339	-1.070335	-0.357041
C44	C	-0.356748	-1.070208	-0.550148
C45	C	-0.356719	-1.070227	-0.632462
C46	C	-0.356835	-0.263326	-0.357024
C47	C	-0.356815	-0.345640	-0.357002
C48	C	-0.356673	-1.070267	-0.931554
C49	C	-0.299650	-1.127724	-0.900255
C50	C	-0.299439	-1.127545	-0.814637
C51	C	-0.356695	-1.070248	-0.783171
C52	C	-0.335486	-0.992231	-0.814232
C53	C	-0.335058	-0.992575	-0.899877
C54	C	-0.435051	-1.090140	-0.899971
C55	C	-0.434652	-1.091852	-0.814321
C56	C	-0.356710	-1.070232	-0.699311
C57	C	-0.356657	-1.070278	-1.015413
C58	C	-0.356829	-1.070163	-0.164576
C59	C	-0.356649	-1.070288	-0.082262
H60	H	-0.312283	-0.506699	-0.242082
H61	H	-0.479614	-0.506088	-0.373472
Br62	Br	-0.777644	-1.222782	-0.314189
H63	H	-0.312722	-1.185396	-0.793638
Br64	Br	-0.506229	-0.646945	-0.405965
Br65	Br	-0.935298	-0.916971	-0.392589
Br66	Br	-0.461309	-1.187549	-0.780495
Br67	Br	-0.778572	-1.034927	-0.510663
H68	H	-0.376427	-0.507149	-0.478855
Br69	Br	-0.202660	-1.105621	-0.780501
H70	H	-0.279388	-0.506069	-0.452591
Br71	Br	-0.933594	-1.114961	-0.205625
Br72	Br	-0.779636	-0.916108	-0.392117
Br73	Br	-0.402107	-0.647718	-0.508168
H74	H	-0.919088	-0.991407	-0.262345
H75	H	-0.277764	-0.975728	-0.919864
H76	H	-0.792015	-0.992382	-0.261698
H77	H	-0.793039	-1.089314	-0.235045
Br78	Br	-0.509274	-1.027169	-0.778625
Br79	Br	-0.505865	-1.020387	-0.933698
H80	H	-0.454108	-0.634688	-0.280611
Br81	Br	-0.460866	-0.493547	-0.239081
Br82	Br	-0.401256	-0.918788	-0.934386
H83	H	-0.454363	-1.146032	-0.921625
H84	H	-0.919852	-1.026255	-0.472442
Br85	Br	-0.203410	-1.106083	-0.936146
Br86	Br	-0.934890	-1.180705	-0.470275
H87	H	-0.792963	-1.164068	-0.436180
H88	H	-0.919236	-1.191127	-0.335249
H89	H	-0.312769	-1.185764	-0.920867
Br90	Br	-0.402582	-0.918939	-0.780269
Br91	Br	-0.320901	-0.647640	-0.202961
Br92	Br	-0.202606	-0.493645	-0.322493
Br93	Br	-0.203368	-0.649287	-0.322020
H94	H	-0.278828	-0.975078	-0.792789
Br95	Br	-0.240193	-0.646481	-0.463401
