data_functionalizedCrystal
_audit_creation_method	'MofGen! by Chris Wilmer'
_symmetry_space_group_name_H-M	'P1'
_symmetry_Int_Tables_number	1
_symmetry_cell_setting	triclinic
loop_
_symmetry_equiv_pos_as_xyz
  x,y,z
_cell_length_a	17.019330
_cell_length_b	27.732048
_cell_length_c	16.098538
_cell_angle_alpha	92.695138
_cell_angle_beta	96.610228
_cell_angle_gamma	96.978216
loop_
_atom_site_label
_atom_site_type_symbol
_atom_site_fract_x
_atom_site_fract_y
_atom_site_fract_z
O1	O	-1.053365	0.057093	-0.144820
O2	O	-0.822756	0.065455	-0.128282
O3	O	-0.945222	-0.009110	-0.137049
O4	O	-0.930899	0.131658	-0.136053
O5	O	-0.938068	-0.004772	0.001976
O6	O	-0.815602	0.069794	0.010743
O7	O	-1.046211	0.061432	-0.005795
Zn8	Zn	-0.929771	0.066302	0.024547
Zn9	Zn	-0.939196	0.060585	-0.158624
O10	O	-0.923745	0.135997	0.002972
C11	C	-0.789685	0.067392	-0.056654
C12	C	-0.701802	0.066693	-0.050351
C13	C	-0.204555	0.062873	-0.010901
C14	C	-0.287130	0.063530	-0.016825
C15	C	-0.332318	0.061490	-0.095571
C16	C	-0.294926	0.058797	-0.168398
C17	C	-0.212351	0.058144	-0.162473
C18	C	-0.581835	0.063347	-0.117252
C19	C	-0.664415	0.063999	-0.123172
C20	C	-0.656614	0.068733	0.028401
C21	C	-0.574038	0.068076	0.034319
C22	C	-0.536653	0.065386	-0.038507
C23	C	-0.416724	0.062160	-0.101629
C24	C	-0.452248	0.064720	-0.032449
C25	C	-0.941344	-0.024948	-0.067513
C26	C	-0.940438	-0.078604	-0.067441
C27	C	-1.007110	-0.417310	-0.072265
C28	C	-1.003752	-0.618975	-0.072036
O29	O	-1.064718	-0.650131	-0.076444
N30	N	-0.931134	-0.638220	-0.066827
C31	C	-0.859351	-0.607045	-0.061681
O32	O	-0.797508	-0.628041	-0.057254
C33	C	-0.862711	-0.405381	-0.061916
C34	C	-0.935333	-0.386139	-0.067117
C35	C	-1.079727	-0.398067	-0.077466
C36	C	-1.080565	-0.347654	-0.077519
C37	C	-1.008788	-0.316483	-0.072370
C38	C	-0.936171	-0.335725	-0.067169
C39	C	-0.790929	-0.374207	-0.056776
C40	C	-0.791775	-0.323788	-0.056837
C41	C	-0.864397	-0.304546	-0.062038
C42	C	-0.865233	-0.254140	-0.062074
N43	N	-0.937850	-0.234896	-0.067282
C44	C	-1.009628	-0.266067	-0.072431
C45	C	-0.857592	-0.712922	-0.061556
C46	C	-0.856751	-0.763338	-0.061496
C47	C	-1.001153	-0.775265	-0.071852
C48	C	-1.001992	-0.724848	-0.071906
C49	C	-0.930210	-0.693677	-0.066765
C50	C	-1.011384	-0.160194	-0.072540
C51	C	-1.012216	-0.109776	-0.072589
C52	C	-0.867815	-0.097853	-0.062237
C53	C	-0.866982	-0.148267	-0.062184
C54	C	-0.938773	-0.179437	-0.067339
O55	O	-0.804299	-0.222957	-0.057677
O56	O	-1.071463	-0.245062	-0.076875
C57	C	-1.006272	-0.467723	-0.072212
C58	C	-0.933655	-0.486966	-0.067011
C59	C	-0.861878	-0.455795	-0.061863
C60	C	-0.932815	-0.537382	-0.066951
C61	C	-1.004593	-0.568553	-0.072099
C62	C	-1.077211	-0.549308	-0.077308
C63	C	-1.078049	-0.498895	-0.077360
C64	C	-0.789260	-0.475039	-0.056654
C65	C	-0.788427	-0.525453	-0.056601
C66	C	-0.860205	-0.556624	-0.061749
C67	C	-0.079283	0.059492	-0.077422
C68	C	-0.167168	0.060180	-0.083722
C69	C	-0.927623	0.151835	-0.066567
C70	C	-0.928529	0.205491	-0.066644
N71	N	-0.923344	0.070203	0.149556
N72	N	-0.945629	0.056680	-0.283634
C73	C	-0.975342	0.038565	0.189419
C74	C	-0.970854	0.041299	0.276929
C75	C	-0.914370	0.075672	0.324575
C76	C	-0.862367	0.107311	0.284707
C77	C	-0.866852	0.104575	0.197198
C78	C	-0.898111	0.085583	0.588989
C79	C	-0.893631	0.088318	0.676503
C80	C	-1.002118	0.022305	0.668720
C81	C	-1.006601	0.019573	0.581210
C82	C	-0.954595	0.051210	0.541349
C83	C	-0.909783	0.078468	0.414025
C84	C	-0.959179	0.048412	0.451902
H85	H	-0.687062	0.070923	0.087692
C86	C	-1.077633	-0.037791	-0.077265
C87	C	-1.092047	-0.088625	-0.078308
H88	H	-1.126917	-0.024736	-0.080792
H89	H	-1.050606	-0.028587	-0.123624
H90	H	-1.045612	-0.025574	-0.026661
H91	H	-1.124064	-0.100842	-0.128915
H92	H	-1.119087	-0.097834	-0.031945
C93	C	-0.771077	-0.647082	0.015849
C94	C	-0.778683	-0.678660	-0.055898
H95	H	-0.722364	-0.625930	0.019340
H96	H	-0.771258	-0.665489	0.064129
H97	H	-0.814445	-0.628405	0.012729
H98	H	-0.735317	-0.697340	-0.052775
H99	H	-0.778494	-0.660251	-0.104190
C100	C	-1.015058	-0.040448	0.765859
C101	C	-1.059272	-0.012474	0.712539
H102	H	-1.050344	-0.061923	0.792906
H103	H	-0.980787	-0.019584	0.806752
H104	H	-0.984067	-0.058816	0.734074
H105	H	-1.090258	0.005897	0.744325
H106	H	-1.093557	-0.033341	0.671640
H107	H	-0.317566	0.065722	0.042474
H108	H	-0.331724	0.057139	-0.232514
C109	C	-0.786821	0.153285	0.675414
C110	C	-0.831528	0.126097	0.728879
H111	H	-0.748480	0.176603	0.707750
H112	H	-0.821303	0.169528	0.638923
H113	H	-0.760349	0.132160	0.643318
H114	H	-0.858005	0.147221	0.760970
H115	H	-0.797041	0.109853	0.765384
H116	H	-1.069843	-0.185568	-0.076741
C117	C	-1.024219	-0.046079	0.159142
C118	C	-1.037429	0.000769	0.137072
H119	H	-1.062545	-0.069416	0.126829
H120	H	-1.028977	-0.048961	0.216963
H121	H	-0.972177	-0.051632	0.148589
H122	H	-1.089468	0.006324	0.147631
H123	H	-1.032677	0.003654	0.079238
C124	C	-0.764016	0.112262	0.106552
C125	C	-0.809694	0.139352	0.153379
H126	H	-0.728724	0.133733	0.079505
H127	H	-0.798296	0.091404	0.065657
H128	H	-0.734039	0.093282	0.142740
H129	H	-0.839676	0.158330	0.117189
H130	H	-0.775409	0.160219	0.194278
H131	H	-0.733320	-0.298411	-0.052652
H132	H	-0.729285	-0.541114	-0.052359
H133	H	-0.816372	0.135297	0.323505
H134	H	-0.537254	0.069727	0.098443
H135	H	-0.453526	0.060497	-0.165744
C136	C	-0.648286	-0.357333	-0.046571
C137	C	-0.711099	-0.395348	-0.051067
H138	H	-0.599001	-0.370385	-0.043052
H139	H	-0.649122	-0.336412	0.001672
H140	H	-0.654132	-0.339425	-0.095292
H141	H	-0.705257	-0.413254	-0.002343
H142	H	-0.710262	-0.416278	-0.099315
C143	C	-1.163704	-0.615149	-0.154727
C144	C	-1.156112	-0.583578	-0.082972
H145	H	-1.212414	-0.636305	-0.158229
H146	H	-1.120335	-0.633819	-0.151611
H147	H	-1.163525	-0.596734	-0.203007
H148	H	-1.156285	-0.601993	-0.034692
H149	H	-1.199492	-0.564906	-0.086082
H150	H	-0.807846	-0.163934	-0.057926
C151	C	-1.223211	-0.364523	-0.087758
C152	C	-1.160395	-0.326508	-0.083246
H153	H	-1.272497	-0.351470	-0.091301
H154	H	-1.217383	-0.382428	-0.039041
H155	H	-1.222360	-0.385448	-0.136002
H156	H	-1.161243	-0.305585	-0.034998
H157	H	-1.166225	-0.308595	-0.131969
H158	H	-0.181912	0.055952	-0.221771
C159	C	-1.073678	0.033621	0.367591
C160	C	-1.028012	0.006526	0.320754
H161	H	-1.108962	0.012152	0.394651
H162	H	-1.103657	0.052598	0.331413
H163	H	-1.039383	0.054482	0.408483
H164	H	-1.062307	-0.014332	0.279857
H165	H	-0.998032	-0.012459	0.356935
C166	C	-0.364271	0.025175	0.061471
C167	C	-0.402582	0.066960	0.054109
H168	H	-0.333609	0.026556	0.114911
H169	H	-0.330192	0.023484	0.018951
H170	H	-0.403033	-0.002852	0.055557
H171	H	-0.363819	0.094988	0.060016
H172	H	-0.436663	0.068656	0.096641
H173	H	-0.855766	0.111344	0.556541
C174	C	-1.166452	-0.451347	-0.154901
C175	C	-1.157878	-0.477747	-0.083085
H176	H	-1.215736	-0.438293	-0.158432
H177	H	-1.165614	-0.472276	-0.203134
H178	H	-1.123826	-0.425564	-0.151832
H179	H	-1.200501	-0.503533	-0.086156
H180	H	-1.158723	-0.456818	-0.034839
C181	C	-1.113378	-0.045408	0.582311
C182	C	-1.068686	-0.018214	0.528840
H183	H	-1.151704	-0.068737	0.549978
H184	H	-1.139860	-0.024293	0.614399
H185	H	-1.078878	-0.061643	0.618809
H186	H	-1.103185	-0.001976	0.492346
H187	H	-1.042202	-0.039332	0.496738
C188	C	-0.796874	0.092307	0.520205
C189	C	-0.847703	0.116253	0.466405
H190	H	-0.758552	0.115634	0.552548
H191	H	-0.770387	0.071200	0.488105
H192	H	-0.827212	0.073853	0.556458
H193	H	-0.817365	0.134705	0.430147
H194	H	-0.874191	0.137368	0.498508
C195	C	-1.127646	-0.803183	-0.152139
C196	C	-1.080055	-0.809533	-0.077518
H197	H	-1.176356	-0.824338	-0.155637
H198	H	-1.100328	-0.810502	-0.198469
H199	H	-1.138538	-0.770403	-0.152910
H200	H	-1.069158	-0.842313	-0.076750
H201	H	-1.107379	-0.802218	-0.031176
H202	H	-1.061127	-0.709185	-0.076142
C203	C	-0.663834	0.059273	-0.272408
C204	C	-0.714086	0.061767	-0.209736
H205	H	-0.694499	0.057899	-0.325844
H206	H	-0.637847	0.030929	-0.267408
H207	H	-0.625081	0.087306	-0.266481
H208	H	-0.752835	0.033732	-0.215660
H209	H	-0.740086	0.090113	-0.214738
H210	H	-1.005166	0.020423	0.413106
C211	C	-0.714105	-0.746472	-0.051272
C212	C	-0.776923	-0.784485	-0.055772
H213	H	-0.664821	-0.759527	-0.047748
H214	H	-0.714942	-0.725550	-0.003031
H215	H	-0.719943	-0.728565	-0.099995
H216	H	-0.771087	-0.802390	-0.007047
H217	H	-0.776084	-0.805415	-0.104018
C218	C	-0.788687	-0.036458	-0.127773
C219	C	-0.788920	-0.063583	-0.056584
H220	H	-0.739978	-0.015303	-0.124288
H221	H	-0.832055	-0.017788	-0.130870
H222	H	-0.793856	-0.057889	-0.176439
H223	H	-0.783756	-0.042153	-0.007918
H224	H	-0.745539	-0.082255	-0.053479
C225	C	-0.205145	0.067623	0.138326
C226	C	-0.154887	0.065117	0.075660
H227	H	-0.174481	0.069013	0.191765
H228	H	-0.243890	0.039593	0.132415
H229	H	-0.231137	0.095969	0.133301
H230	H	-0.128899	0.036770	0.080681
H231	H	-0.116128	0.093150	0.081573
H232	H	-0.551406	0.061155	-0.176553
H233	H	-1.138180	-0.423443	-0.081661
H234	H	-0.730809	-0.449664	-0.052464
