data_functionalizedCrystal
_audit_creation_method	'MofGen! by Chris Wilmer'
_symmetry_space_group_name_H-M	'P1'
_symmetry_Int_Tables_number	1
_symmetry_cell_setting	triclinic
loop_
_symmetry_equiv_pos_as_xyz
  x,y,z
_cell_length_a	14.908520
_cell_length_b	17.077404
_cell_length_c	17.077396
_cell_angle_alpha	89.981638
_cell_angle_beta	93.268321
_cell_angle_gamma	93.318621
loop_
_atom_site_label
_atom_site_type_symbol
_atom_site_fract_x
_atom_site_fract_y
_atom_site_fract_z
Zn1	Zn	-0.359207	1.182021	-0.461847
Zn2	Zn	-0.025874	1.515354	-0.128513
Zn3	Zn	0.307459	1.848688	0.204820
Zn4	Zn	-0.510079	1.174354	-0.338153
Zn5	Zn	-0.176745	1.507687	-0.004819
Zn6	Zn	0.156588	1.841021	0.328514
Zn7	Zn	-0.359233	1.050752	-0.330599
Zn8	Zn	-0.025900	1.384085	0.002735
Zn9	Zn	0.307433	1.717418	0.336068
Zn10	Zn	-0.510019	1.043150	-0.469376
Zn11	Zn	-0.176686	1.376483	-0.136042
Zn12	Zn	0.156647	1.709816	0.197291
O13	O	-0.434635	1.112569	-0.399993
O14	O	-0.101301	1.445902	-0.066660
O15	O	0.232032	1.779236	0.266673
O16	O	-0.379235	1.290850	-0.445449
O17	O	-0.045902	1.624184	-0.112115
O18	O	0.287432	1.957517	0.221218
O19	O	-0.490104	1.157930	-0.227305
O20	O	-0.156771	1.491264	0.106028
O21	O	0.176562	1.824597	0.439361
O22	O	-0.232985	1.074555	-0.341697
O23	O	0.100348	1.407888	-0.008363
O24	O	0.433681	1.741222	0.324970
O25	O	-0.490079	1.285217	-0.354571
O26	O	-0.156746	1.618550	-0.021238
O27	O	0.176587	1.951884	0.312095
O28	O	-0.232966	1.170998	-0.438124
O29	O	0.100367	1.504331	-0.104791
O30	O	0.433700	1.837665	0.228543
O31	O	-0.379279	1.067120	-0.221755
O32	O	-0.045946	1.400454	0.111578
O33	O	0.287388	1.733787	0.444911
O34	O	-0.379221	0.939897	-0.348997
O35	O	-0.045888	1.273230	-0.015664
O36	O	0.287445	1.606564	0.317669
O37	O	-0.489978	1.061598	-0.578222
O38	O	-0.156645	1.394932	-0.244889
O39	O	0.176689	1.728265	0.088444
O40	O	-0.490003	0.934312	-0.450956
O41	O	-0.156670	1.267645	-0.117623
O42	O	0.176664	1.600978	0.215710
O43	O	-0.379177	1.163627	-0.572691
O44	O	-0.045844	1.496960	-0.239357
O45	O	0.287489	1.830293	0.093976
O46	O	-0.636315	1.150559	-0.361872
O47	O	-0.302982	1.483892	-0.028539
O48	O	0.030351	1.817226	0.304795
O49	O	-0.636272	1.054164	-0.458281
O50	O	-0.302938	1.387497	-0.124948
O51	O	0.030395	1.720831	0.208386
C52	C	-0.434609	0.908622	-0.399974
C53	C	-0.101276	1.241956	-0.066641
C54	C	0.232058	1.575289	0.266692
C55	C	-0.434620	0.821372	-0.399986
C56	C	-0.101287	1.154705	-0.066653
C57	C	0.232047	1.488039	0.266681
C58	C	-0.377006	0.783311	-0.447388
C59	C	-0.043672	1.116644	-0.114055
C60	C	0.289661	1.449977	0.219279
C61	C	-0.377012	0.701330	-0.447392
C62	C	-0.043678	1.034663	-0.114058
C63	C	0.289655	1.367997	0.219275
C64	C	-0.434637	0.657412	-0.399998
C65	C	-0.101303	0.990745	-0.066664
C66	C	0.232030	1.324079	0.266669
C67	C	-0.492253	0.695479	-0.352590
C68	C	-0.158920	1.028812	-0.019257
C69	C	0.174413	1.362146	0.314076
C70	C	-0.492242	0.777458	-0.352583
C71	C	-0.158909	1.110792	-0.019250
C72	C	0.174424	1.444125	0.314084
C73	C	-0.492274	0.524608	-0.352611
C74	C	-0.158941	0.857941	-0.019278
C75	C	0.174393	1.191274	0.314056
C76	C	-0.492286	0.442623	-0.352619
C77	C	-0.158953	0.775956	-0.019286
C78	C	0.174380	1.109289	0.314047
C79	C	-0.377043	0.448479	-0.447420
C80	C	-0.043710	0.781813	-0.114086
C81	C	0.289624	1.115146	0.219247
C82	C	-0.377032	0.530459	-0.447412
C83	C	-0.043699	0.863792	-0.114079
C84	C	0.289635	1.197126	0.219254
C85	C	-0.434650	0.568520	-0.400006
C86	C	-0.101317	0.901854	-0.066673
C87	C	0.232017	1.235187	0.266661
C88	C	-0.669027	1.100726	-0.411730
C89	C	-0.335694	1.434059	-0.078397
C90	C	-0.002361	1.767393	0.254936
C91	C	-0.769302	1.095731	-0.416778
C92	C	-0.435968	1.429064	-0.083444
C93	C	-0.102635	1.762398	0.249889
C94	C	-0.957712	1.186825	-0.325952
C95	C	-0.624379	1.520158	0.007381
C96	C	-0.291045	1.853492	0.340714
C97	C	-1.051929	1.182135	-0.330692
C98	C	-0.718595	1.515468	0.002641
C99	C	-0.385262	1.848801	0.335974
C100	C	-1.051953	1.081665	-0.431001
C101	C	-0.718620	1.414998	-0.097668
C102	C	-0.385286	1.748331	0.235666
C103	C	-0.957736	1.086355	-0.426261
C104	C	-0.624403	1.419688	-0.092928
C105	C	-0.291070	1.753022	0.240406
C106	C	-0.910619	1.138936	-0.373734
C107	C	-0.577286	1.472269	-0.040401
C108	C	-0.243953	1.805603	0.292933
C109	C	-0.816401	1.143622	-0.368991
C110	C	-0.483068	1.476955	-0.035657
C111	C	-0.149734	1.810289	0.297676
C112	C	-0.816427	1.043156	-0.469303
C113	C	-0.483094	1.376490	-0.135969
C114	C	-0.149761	1.709823	0.197364
C115	C	-0.910644	1.038466	-0.474043
C116	C	-0.577310	1.371799	-0.140709
C117	C	-0.243977	1.705133	0.192624
C118	C	-0.199327	1.124480	-0.388228
C119	C	0.134007	1.457813	-0.054894
C120	C	0.467340	1.791146	0.278439
C121	C	-0.099052	1.129555	-0.383214
C122	C	0.234281	1.462889	-0.049881
C123	C	0.567614	1.796222	0.283453
C124	C	-0.434568	1.112620	-0.604734
C125	C	-0.101235	1.445953	-0.271401
C126	C	0.232098	1.779287	0.061932
C127	C	-0.434540	1.112642	-0.691983
C128	C	-0.101207	1.445975	-0.358649
C129	C	0.232127	1.779308	-0.025316
C130	C	-0.434661	1.317312	-0.400013
C131	C	-0.101328	1.650645	-0.066679
C132	C	0.232006	1.983979	0.266654
C133	C	-0.434672	1.404561	-0.400021
C134	C	-0.101339	1.737894	-0.066688
C135	C	0.231994	2.071228	0.266646
C136	C	-0.376841	1.165770	-0.730094
C137	C	-0.043508	1.499103	-0.396760
C138	C	0.289826	1.832436	-0.063427
C139	C	-0.376811	1.165781	-0.812073
C140	C	-0.043478	1.499114	-0.478739
C141	C	0.289856	1.832447	-0.145406
C142	C	-0.434485	1.112667	-0.855940
C143	C	-0.101152	1.446000	-0.522606
C144	C	0.232182	1.779333	-0.189273
C145	C	-0.492186	1.059533	-0.817823
C146	C	-0.158853	1.392866	-0.484490
C147	C	0.174480	1.726199	-0.151156
C148	C	-0.492211	1.059519	-0.735845
C149	C	-0.158878	1.392852	-0.402512
C150	C	0.174455	1.726185	-0.069179
C151	C	-0.492132	1.059567	-0.988691
C152	C	-0.158799	1.392900	-0.655357
C153	C	0.174535	1.726234	-0.322024
C154	C	-0.492109	1.059582	-1.070674
C155	C	-0.158775	1.392915	-0.737341
C156	C	0.174558	1.726248	-0.404007
C157	C	-0.376732	1.165829	-1.064918
C158	C	-0.043399	1.499162	-0.731585
C159	C	0.289935	1.832496	-0.398251
C160	C	-0.376757	1.165815	-0.982940
C161	C	-0.043424	1.499148	-0.649607
C162	C	0.289910	1.832482	-0.316273
C163	C	-0.434460	1.112682	-0.944829
C164	C	-0.101126	1.446015	-0.611496
C165	C	0.232207	1.779349	-0.278163
C166	C	-0.434636	1.112567	-0.196046
C167	C	-0.101302	1.445900	0.137288
C168	C	0.232031	1.779233	0.470621
C169	C	-0.434410	1.112710	-0.108785
C170	C	-0.101077	1.446043	0.224548
C171	C	0.232257	1.779377	0.557882
H172	H	-0.539157	0.808447	-0.313983
H173	H	-0.205824	1.141780	0.019350
H174	H	0.127510	1.475113	0.352684
H175	H	-0.330083	0.819063	-0.485984
H176	H	0.003250	1.152396	-0.152651
H177	H	0.336584	1.485730	0.180683
H178	H	-0.330098	0.670344	-0.485993
H179	H	0.003235	1.003677	-0.152659
H180	H	0.336568	1.337011	0.180674
H181	H	-0.539168	0.659714	-0.313997
H182	H	-0.205835	0.993048	0.019336
H183	H	0.127498	1.326381	0.352669
Cl184	Cl	-0.757169	1.209720	-0.302955
Cl185	Cl	-0.423836	1.543053	0.030378
Cl186	Cl	-0.090502	1.876387	0.363712
H187	H	-1.090332	1.038861	-0.473771
H188	H	-0.756999	1.372194	-0.140437
H189	H	-0.423666	1.705527	0.192896
Cl190	Cl	-0.304312	1.232606	-0.859982
Cl191	Cl	0.029021	1.565940	-0.526649
Cl192	Cl	0.362355	1.899273	-0.193315
Cl193	Cl	-0.304596	0.585669	-0.507001
Cl194	Cl	0.028738	0.919002	-0.173668
Cl195	Cl	0.362071	1.252336	0.159665
Cl196	Cl	-0.757220	0.982939	-0.529364
Cl197	Cl	-0.423886	1.316272	-0.196031
Cl198	Cl	-0.090553	1.649606	0.137302
H199	H	-0.329879	1.209024	-0.694383
H200	H	0.003454	1.542357	-0.361050
H201	H	0.336788	1.875690	-0.027716
H202	H	-0.329799	1.209069	-0.947226
H203	H	0.003535	1.542403	-0.613893
H204	H	0.336868	1.875736	-0.280559
Cl205	Cl	-0.304193	1.232626	-1.112828
Cl206	Cl	0.029141	1.565959	-0.779495
Cl207	Cl	0.362474	1.899292	-0.446161
Cl208	Cl	-0.969885	0.972370	-0.540075
Cl209	Cl	-0.636552	1.305704	-0.206742
Cl210	Cl	-0.303219	1.639037	0.126592
H211	H	-0.539190	0.555595	-0.314006
H212	H	-0.205857	0.888928	0.019328
H213	H	0.127476	1.222261	0.352661
H214	H	-0.539142	1.016284	-0.853546
H215	H	-0.205809	1.349617	-0.520213
H216	H	0.127524	1.682950	-0.186879
Cl217	Cl	-0.564604	0.992801	-1.125820
Cl218	Cl	-0.231271	1.326134	-0.792486
Cl219	Cl	0.102062	1.659467	-0.459153
Cl220	Cl	-0.898476	1.252913	-0.259909
Cl221	Cl	-0.565142	1.586246	0.073424
Cl222	Cl	-0.231809	1.919580	0.406758
H223	H	-0.539106	1.016289	-0.957663
H224	H	-0.205772	1.349622	-0.624330
H225	H	0.127561	1.682955	-0.290996
Cl226	Cl	-0.564747	0.992724	-0.687934
Cl227	Cl	-0.231414	1.326057	-0.354601
Cl228	Cl	0.101920	1.659390	-0.021268
H229	H	-0.539210	0.406866	-0.314027
H230	H	-0.205877	0.740200	0.019306
H231	H	0.127456	1.073533	0.352639
Cl232	Cl	-0.304607	0.400632	-0.507014
Cl233	Cl	0.028727	0.733965	-0.173681
Cl234	Cl	0.362060	1.067298	0.159653
Cl235	Cl	-1.111128	1.242343	-0.270623
Cl236	Cl	-0.777795	1.575676	0.062710
Cl237	Cl	-0.444462	1.909009	0.396044
