data_functionalizedCrystal
_audit_creation_method	'MofGen! by Chris Wilmer'
_symmetry_space_group_name_H-M	'P1'
_symmetry_Int_Tables_number	1
_symmetry_cell_setting	triclinic
loop_
_symmetry_equiv_pos_as_xyz
  x,y,z
_cell_length_a	6.817900
_cell_length_b	9.170285
_cell_length_c	16.255661
_cell_angle_alpha	85.726016
_cell_angle_beta	103.488922
_cell_angle_gamma	112.460155
loop_
_atom_site_label
_atom_site_type_symbol
_atom_site_fract_x
_atom_site_fract_y
_atom_site_fract_z
V1	V	-4.063550	-0.217014	-0.247666
O2	O	-4.012640	0.009132	-0.259530
O3	O	-4.051096	-0.429055	-0.230027
O4	O	-4.014642	-0.214244	-0.362956
O5	O	-4.049346	-0.207166	-0.125681
V6	V	-4.542586	-0.189897	-0.235012
O7	O	-4.334651	-0.276497	-0.275422
O8	O	-4.721682	-0.130414	-0.207256
O9	O	-4.331834	0.022144	-0.252651
O10	O	-4.710893	-0.416043	-0.223148
O11	O	-4.674186	-0.199745	-0.356997
O12	O	-4.368288	-0.192666	-0.119722
C13	C	-3.904858	-0.480728	-0.222005
C14	C	-3.975958	-0.654079	-0.208352
C15	C	-3.858356	-0.206714	-0.391568
C16	C	-3.899889	-0.205853	-0.485714
C17	C	-3.808700	-0.195565	-0.709301
C18	C	-3.987654	-0.328339	-0.768862
C19	C	-3.976000	-0.204238	-0.658083
C20	C	-3.871078	-0.069945	-0.766273
C21	C	-4.049502	-0.202671	-0.824584
C22	C	-4.154456	-0.337130	-0.716406
C23	C	-4.037798	-0.078619	-0.713810
C24	C	-4.216895	-0.211430	-0.773349
C25	C	-3.933652	-0.205142	-0.562166
C26	C	-4.091868	-0.201779	-0.920499
C27	C	-4.141415	0.073810	-0.260670
C28	C	-4.049553	0.247158	-0.274328
C29	C	-4.187917	-0.200202	-0.091104
C30	C	-4.125620	-0.201055	0.003041
H31	H	-4.058101	-0.704771	-0.341239
Cl32	Cl	-3.541815	-0.185472	-0.666077
Cl33	Cl	-4.069710	0.084393	-0.676403
H34	H	-3.967387	-0.702155	-0.141436
Cl35	Cl	-3.686737	0.104392	-0.800259
Cl36	Cl	-4.484014	-0.221833	-0.816340
H37	H	-4.273861	-0.450169	-0.694498
Cl38	Cl	-3.955621	-0.491340	-0.806231
