data_functionalizedCrystal
_audit_creation_method	'MofGen! by Chris Wilmer'
_symmetry_space_group_name_H-M	'P1'
_symmetry_Int_Tables_number	1
_symmetry_cell_setting	triclinic
loop_
_symmetry_equiv_pos_as_xyz
  x,y,z
_cell_length_a	27.731994
_cell_length_b	27.731996
_cell_length_c	14.586319
_cell_angle_alpha	89.990257
_cell_angle_beta	90.002590
_cell_angle_gamma	82.620961
loop_
_atom_site_label
_atom_site_type_symbol
_atom_site_fract_x
_atom_site_fract_y
_atom_site_fract_z
O1	O	0.640933	0.057393	-0.076121
O2	O	0.500134	0.066166	-0.076154
O3	O	0.574920	-0.008620	-0.076117
O4	O	0.566148	0.132179	-0.076158
O5	O	0.574914	-0.008621	0.076364
O6	O	0.500129	0.066165	0.076327
O7	O	0.640928	0.057392	0.076359
Cu8	Cu	0.570528	0.061779	0.090266
Cu9	Cu	0.570534	0.061780	-0.090060
O10	O	0.566142	0.132178	0.076323
C11	C	0.482124	0.065986	0.000083
C12	C	0.428468	0.065443	0.000072
C13	C	0.095747	0.062027	0.083225
C14	C	-0.105910	0.059965	0.083236
O15	O	-0.131985	0.059677	0.153924
N16	N	-0.131122	0.059710	0.000119
C17	C	-0.105916	0.059967	-0.083007
O18	O	-0.131987	0.059697	-0.153703
C19	C	0.095741	0.062025	-0.083017
C20	C	0.120950	0.062285	0.000106
C21	C	0.120956	0.062287	0.166341
C22	C	0.171367	0.062805	0.166338
C23	C	0.196569	0.063063	0.083218
C24	C	0.171361	0.062803	0.000102
C25	C	0.120946	0.062278	-0.166141
C26	C	0.171364	0.062791	-0.166137
C27	C	0.196573	0.063052	-0.083014
C28	C	0.246974	0.063579	-0.083021
N29	N	0.272186	0.063835	0.000097
C30	C	0.246984	0.063577	0.083216
C31	C	-0.211790	0.058887	-0.082995
C32	C	-0.262204	0.058373	-0.082993
C33	C	-0.262194	0.058371	0.083250
C34	C	-0.211779	0.058888	0.083247
C35	C	-0.186578	0.059142	0.000122
C36	C	0.352850	0.064665	0.083202
C37	C	0.403266	0.065185	0.083191
C38	C	0.403252	0.065185	-0.083052
C39	C	0.352841	0.064667	-0.083041
C40	C	0.327642	0.064406	0.000093
O41	O	0.273081	0.063862	-0.153672
O42	O	0.273065	0.063836	0.153901
C43	C	0.045336	0.061509	0.083229
C44	C	0.020128	0.061249	0.000113
C45	C	0.045330	0.061507	-0.083006
C46	C	-0.030287	0.060735	0.000115
C47	C	-0.055489	0.060477	0.083235
C48	C	-0.030277	0.060733	0.166352
C49	C	0.020134	0.061251	0.166348
C50	C	0.020118	0.061252	-0.166123
C51	C	-0.030293	0.060734	-0.166113
C52	C	-0.055496	0.060476	-0.082994
C53	C	0.574737	-0.026628	0.000127
C54	C	0.574194	-0.080284	0.000136
C55	C	0.570782	-0.412999	-0.083027
C56	C	0.568721	-0.614657	-0.083043
O57	O	0.568436	-0.640727	-0.153732
N58	N	0.568462	-0.639874	0.000073
C59	C	0.568715	-0.614674	0.083200
O60	O	0.568443	-0.640750	0.153895
C61	C	0.570773	-0.413017	0.083215
C62	C	0.571037	-0.387802	0.000093
C63	C	0.571045	-0.387784	-0.166142
C64	C	0.571563	-0.337373	-0.166137
C65	C	0.571818	-0.312177	-0.083017
C66	C	0.571555	-0.337391	0.000098
C67	C	0.571023	-0.387817	0.166341
C68	C	0.571536	-0.337399	0.166337
C69	C	0.571800	-0.312185	0.083215
C70	C	0.572327	-0.261783	0.083223
N71	N	0.572586	-0.236566	0.000107
C72	C	0.572331	-0.261762	-0.083013
C73	C	0.567636	-0.720547	0.083186
C74	C	0.567123	-0.770961	0.083182
C75	C	0.567127	-0.770940	-0.083061
C76	C	0.567644	-0.720526	-0.083057
C77	C	0.567895	-0.695329	0.000069
C78	C	0.573419	-0.155896	-0.082996
C79	C	0.573939	-0.105480	-0.082984
C80	C	0.573932	-0.105505	0.083259
C81	C	0.573415	-0.155917	0.083247
C82	C	0.573157	-0.181110	0.000112
O83	O	0.572607	-0.235682	0.153875
O84	O	0.572593	-0.235677	-0.153698
C85	C	0.570264	-0.463410	-0.083032
C86	C	0.570001	-0.488624	0.000083
C87	C	0.570256	-0.463428	0.083203
C88	C	0.569487	-0.539039	0.000080
C89	C	0.569233	-0.564235	-0.083040
C90	C	0.569492	-0.539018	-0.166157
C91	C	0.570009	-0.488606	-0.166152
C92	C	0.569997	-0.488645	0.166320
C93	C	0.569480	-0.539057	0.166308
C94	C	0.569225	-0.564253	0.083188
C95	C	0.658938	0.057573	0.000121
C96	C	0.712594	0.058115	0.000126
C97	C	0.566325	0.150186	0.000077
C98	C	0.566868	0.203842	0.000062
N99	N	0.570527	0.061777	0.217098
N100	N	0.570539	0.061777	-0.216892
C101	C	0.603653	0.028673	0.452121
C102	C	0.603654	0.028672	0.548102
C103	C	0.537409	0.094883	0.548079
C104	C	0.537406	0.094882	0.452099
C105	C	0.570531	0.061777	0.404123
C106	C	0.570535	0.061777	0.596083
C107	C	0.570537	0.061776	0.700151
C108	C	0.570529	0.061777	0.300049
H109	H	0.423788	0.065399	0.150882
H110	H	0.570836	-0.408294	-0.233832
H111	H	0.510441	0.121837	0.587151
H112	H	0.571776	-0.316848	-0.233823
H113	H	0.567858	-0.699999	-0.150742
H114	H	0.630624	0.001717	0.413060
H115	H	0.510431	0.121839	0.413017
H116	H	0.332339	0.064456	0.150898
H117	H	0.191888	0.063014	0.234025
H118	H	0.100442	0.062075	0.234031
H119	H	-0.191258	0.059101	0.150933
H120	H	-0.282723	0.058162	0.150929
H121	H	-0.282725	0.058169	-0.150680
H122	H	0.570205	-0.468136	0.234008
H123	H	0.566920	-0.791464	-0.150741
H124	H	0.566915	-0.791488	0.150868
H125	H	-0.191275	0.059094	-0.150690
H126	H	0.100430	0.062065	-0.233829
H127	H	0.191881	0.062999	-0.233829
H128	H	0.332314	0.064463	-0.150726
H129	H	0.423781	0.065397	-0.150725
H130	H	0.630625	0.001715	0.587179
H131	H	-0.050806	0.060525	0.234031
H132	H	0.574155	-0.084953	-0.150675
H133	H	0.040655	0.061463	0.234035
H134	H	-0.050815	0.060526	-0.233807
H135	H	0.567843	-0.700037	0.150881
H136	H	0.040633	0.061461	-0.233811
H137	H	0.570809	-0.408338	0.234028
H138	H	0.573207	-0.176402	-0.150693
H139	H	0.571733	-0.316886	0.234030
H140	H	0.573205	-0.176448	0.150932
H141	H	0.574142	-0.084981	0.150933
H142	H	0.570224	-0.468081	-0.233838
H143	H	0.569286	-0.559542	-0.233836
H144	H	0.569269	-0.559582	0.234001
