data_functionalizedCrystal
_audit_creation_method	'MofGen! by Chris Wilmer'
_symmetry_space_group_name_H-M	'P1'
_symmetry_Int_Tables_number	1
_symmetry_cell_setting	triclinic
loop_
_symmetry_equiv_pos_as_xyz
  x,y,z
_cell_length_a	14.971482
_cell_length_b	10.654550
_cell_length_c	14.048226
_cell_angle_alpha	89.994756
_cell_angle_beta	89.994098
_cell_angle_gamma	84.048756
loop_
_atom_site_label
_atom_site_type_symbol
_atom_site_fract_x
_atom_site_fract_y
_atom_site_fract_z
O1	O	1.187840	0.163637	-0.079146
O2	O	0.927546	0.183240	-0.079150
O3	O	1.063677	-0.009365	-0.079144
O4	O	1.051708	0.356242	-0.079152
O5	O	1.063661	-0.009377	0.079177
O6	O	0.927529	0.183229	0.079171
O7	O	1.187823	0.163625	0.079176
Zn8	Zn	1.057673	0.173425	0.104310
Zn9	Zn	1.057695	0.173440	-0.104285
O10	O	1.051691	0.356231	0.079170
C11	C	0.894208	0.182359	0.000010
C12	C	0.794896	0.179734	0.000008
C13	C	0.748236	0.178491	0.086310
C14	C	0.654924	0.176005	0.086311
C15	C	0.608273	0.174770	0.000009
C16	C	0.654940	0.176009	-0.086299
C17	C	0.748251	0.178486	-0.086299
C18	C	0.460450	0.170849	-0.086293
C19	C	0.367133	0.168374	-0.086293
C20	C	0.367123	0.168368	0.086318
C21	C	0.460434	0.170845	0.086318
C22	C	0.507094	0.172086	0.000009
C23	C	1.062790	-0.056159	0.000015
C24	C	1.060161	-0.195574	0.000012
C25	C	1.140313	-0.275921	0.000016
C26	C	1.137837	-0.406916	0.000009
C27	C	0.975050	-0.377203	-0.000002
C28	C	0.977526	-0.246211	-0.000002
C29	C	1.234297	-0.293077	0.000027
C30	C	1.231821	-0.424071	0.000020
C31	C	1.221161	0.164507	0.000013
C32	C	1.320472	0.167132	0.000009
C33	C	1.052578	0.403025	0.000008
C34	C	1.055208	0.542440	0.000005
N35	N	1.057665	0.173414	0.246671
N36	N	1.057711	0.173441	-0.246646
C37	C	1.117963	0.088164	0.296492
C38	C	1.117969	0.088163	0.396149
C39	C	1.057681	0.173420	0.445984
C40	C	0.997376	0.258674	0.396157
C41	C	0.997366	0.258668	0.296501
C42	C	0.997402	0.258683	0.603871
C43	C	0.997412	0.258692	0.703534
C44	C	1.118005	0.088179	0.703519
C45	C	1.117995	0.088172	0.603863
C46	C	1.057691	0.173429	0.554043
H47	H	0.786211	0.179507	0.156588
H48	H	1.167061	0.018743	0.255922
O49	O	0.798574	0.179822	-0.179388
H50	H	0.848522	0.095410	-0.183515
O51	O	0.932314	0.350601	0.242766
H52	H	0.942423	0.336258	0.165097
H53	H	0.616951	0.174995	-0.156568
H54	H	1.260231	-0.470015	-0.068338
H55	H	0.912259	-0.180796	-0.000019
H56	H	1.167068	0.018745	0.436713
O57	O	0.885924	-0.431816	-0.000002
H58	H	0.897666	-0.536402	0.000006
O59	O	1.183016	-0.003784	0.550106
H60	H	1.224944	-0.063077	0.601490
H61	H	0.498414	0.171858	0.156592
O62	O	1.282986	-0.254684	-0.087733
H63	H	1.304851	-0.339772	-0.130705
H64	H	1.264218	-0.257777	0.068387
H65	H	0.329152	0.167369	-0.156568
O66	O	1.278703	-0.479914	0.087786
H67	H	1.303610	-0.403366	0.130764
H68	H	1.167106	0.018760	0.744089
O69	O	0.932371	0.350618	0.757291
H70	H	0.890421	0.409881	0.705908
H71	H	0.948293	0.328104	0.563310
H72	H	0.616939	0.174973	0.156587
H73	H	0.948283	0.328088	0.436738
H74	H	0.329127	0.167358	0.156594
H75	H	0.498439	0.171860	-0.156575
