data_functionalizedCrystal
_audit_creation_method	'MofGen! by Chris Wilmer'
_symmetry_space_group_name_H-M	'P1'
_symmetry_Int_Tables_number	1
_symmetry_cell_setting	triclinic
loop_
_symmetry_equiv_pos_as_xyz
  x,y,z
_cell_length_a	14.519709
_cell_length_b	27.731996
_cell_length_c	13.596369
_cell_angle_alpha	89.988048
_cell_angle_beta	90.000291
_cell_angle_gamma	83.150767
loop_
_atom_site_label
_atom_site_type_symbol
_atom_site_fract_x
_atom_site_fract_y
_atom_site_fract_z
O1	O	1.222743	0.063364	-0.081677
O2	O	0.954134	0.070825	-0.081708
O3	O	1.096806	-0.003264	-0.081670
O4	O	1.080071	0.137453	-0.081715
O5	O	1.096792	-0.003268	0.081913
O6	O	0.954120	0.070822	0.081874
O7	O	1.222729	0.063360	0.081906
Zn8	Zn	1.088422	0.067090	0.107863
Zn9	Zn	1.088441	0.067095	-0.107665
O10	O	1.080057	0.137449	0.081868
C11	C	0.919773	0.070476	0.000079
C12	C	0.817411	0.069434	0.000068
C13	C	0.442583	0.065597	0.000114
C14	C	0.546872	0.066663	0.000101
C15	C	0.629994	0.067515	0.000090
C16	C	0.734289	0.068581	0.000079
C17	C	1.096455	-0.021275	0.000124
C18	C	1.095420	-0.074936	0.000134
C19	C	1.088913	-0.407681	-0.089084
C20	C	1.084981	-0.609358	-0.089101
O21	O	1.084439	-0.635430	-0.164937
N22	N	1.084485	-0.634580	0.000067
C23	C	1.084966	-0.609379	0.089246
O24	O	1.084444	-0.635458	0.165088
C25	C	1.088891	-0.407702	0.089262
C26	C	1.089397	-0.382484	0.000088
C27	C	1.089417	-0.382463	-0.178250
C28	C	1.090405	-0.332047	-0.178245
C29	C	1.090889	-0.306850	-0.089073
C30	C	1.090385	-0.332068	0.000094
C31	C	1.089366	-0.382502	0.178440
C32	C	1.090345	-0.332079	0.178437
C33	C	1.090850	-0.306861	0.089263
C34	C	1.091856	-0.256455	0.089271
N35	N	1.092352	-0.231233	0.000103
C36	C	1.091869	-0.256431	-0.089069
C37	C	1.082907	-0.715262	0.089231
C38	C	1.081927	-0.765681	0.089227
C39	C	1.081941	-0.765657	-0.089121
C40	C	1.082927	-0.715238	-0.089116
C41	C	1.083403	-0.690041	0.000063
C42	C	1.093944	-0.150554	-0.089051
C43	C	1.094936	-0.100134	-0.089038
C44	C	1.094918	-0.100162	0.089309
C45	C	1.093931	-0.150578	0.089296
C46	C	1.093441	-0.175772	0.000108
O47	O	1.092388	-0.230352	0.165067
O48	O	1.092370	-0.230341	-0.164900
C49	C	1.087925	-0.458097	-0.089089
C50	C	1.087421	-0.483316	0.000078
C51	C	1.087904	-0.458118	0.089250
C52	C	1.086441	-0.533735	0.000074
C53	C	1.085957	-0.558932	-0.089098
C54	C	1.086453	-0.533711	-0.178266
C55	C	1.087441	-0.483295	-0.178261
C56	C	1.087408	-0.483340	0.178418
C57	C	1.086421	-0.533756	0.178405
C58	C	1.085938	-0.558953	0.089233
C59	C	1.257090	0.063709	0.000116
C60	C	1.359453	0.064752	0.000121
C61	C	1.080408	0.155460	0.000071
C62	C	1.081443	0.209121	0.000055
N63	N	1.088417	0.067086	0.254954
N64	N	1.088454	0.067095	-0.254757
C65	C	1.088440	0.067096	0.656245
C66	C	1.088431	0.067095	0.544594
C67	C	1.088429	0.067091	0.455603
C68	C	1.088419	0.067090	0.343945
H69	H	1.095350	-0.079603	-0.161657
H70	H	1.093541	-0.171061	-0.161676
H71	H	1.090813	-0.311519	-0.250860
Cl72	Cl	1.088811	-0.414131	-0.290368
Cl73	Cl	1.081327	-0.797343	-0.201222
Cl74	Cl	1.095526	-0.068476	0.201405
H75	H	1.088956	-0.403026	0.251056
H76	H	1.086017	-0.554285	0.251027
H77	H	1.083299	-0.694752	0.161854
H78	H	1.090718	-0.311565	0.251058
H79	H	1.087804	-0.462829	0.251034
H80	H	1.083337	-0.694708	-0.161729
Cl81	Cl	1.093313	-0.182283	0.201402
Cl82	Cl	1.085849	-0.565397	-0.290367
Cl83	Cl	1.081310	-0.797379	0.201336
Cl84	Cl	1.088074	-0.451599	-0.290372
