data_functionalizedCrystal
_audit_creation_method	'MofGen! by Chris Wilmer'
_symmetry_space_group_name_H-M	'P1'
_symmetry_Int_Tables_number	1
_symmetry_cell_setting	triclinic
loop_
_symmetry_equiv_pos_as_xyz
  x,y,z
_cell_length_a	15.944499
_cell_length_b	15.944493
_cell_length_c	8.965430
_cell_angle_alpha	90.006207
_cell_angle_beta	90.001821
_cell_angle_gamma	83.476327
loop_
_atom_site_label
_atom_site_type_symbol
_atom_site_fract_x
_atom_site_fract_y
_atom_site_fract_z
O1	O	1.114518	0.108123	-0.124109
O2	O	1.614518	0.608123	0.375891
O3	O	0.869960	0.121525	-0.124090
O4	O	1.369960	0.621525	0.375910
O5	O	0.998943	-0.007455	-0.124112
O6	O	1.498943	0.492545	0.375888
O7	O	0.985536	0.237104	-0.124087
O8	O	1.485536	0.737104	0.375913
O9	O	0.998952	-0.007449	0.123966
O10	O	1.498952	0.492551	0.623966
O11	O	0.869969	0.121531	0.123989
O12	O	1.369969	0.621531	0.623989
O13	O	1.114528	0.108129	0.123970
O14	O	1.614528	0.608129	0.623970
Cu15	Cu	0.992250	0.114831	0.146631
Cu16	Cu	1.492250	0.614831	0.646631
Cu17	Cu	0.992238	0.114824	-0.146751
Cu18	Cu	1.492238	0.614824	0.353249
O19	O	0.985545	0.237110	0.123992
O20	O	1.485545	0.737110	0.623992
C21	C	0.838670	0.120979	-0.000048
C22	C	1.338670	0.620979	0.499952
C23	C	0.745422	0.119334	-0.000042
C24	C	1.245422	0.619334	0.499958
C25	C	0.453871	0.194269	-0.000056
C26	C	0.953871	0.694269	0.499944
C27	C	0.514903	0.155313	-0.122379
C28	C	1.014903	0.655313	0.377621
C29	C	0.409787	0.113358	-0.000077
C30	C	0.909787	0.613358	0.499923
C31	C	0.514898	0.155297	0.122207
C32	C	1.014898	0.655297	0.622207
C33	C	0.574695	0.116299	-0.000058
C34	C	1.074695	0.616299	0.499942
C35	C	0.469591	0.074380	-0.122501
C36	C	0.969591	0.574380	0.377499
C37	C	0.469580	0.074375	0.122195
C38	C	0.969580	0.574375	0.622195
C39	C	0.530595	0.035361	-0.000157
C40	C	1.030595	0.535361	0.499843
C41	C	0.314787	0.111666	-0.000090
C42	C	0.814787	0.611666	0.499910
C43	C	0.669694	0.117984	-0.000056
C44	C	1.169694	0.617984	0.499944
C45	C	0.998400	-0.038747	-0.000079
C46	C	1.498400	0.461253	0.499921
C47	C	0.996757	-0.131995	-0.000098
C48	C	1.496757	0.368005	0.499902
C49	C	1.072679	-0.367769	-0.000076
C50	C	1.572679	0.132231	0.499924
C51	C	1.031732	-0.418333	-0.122388
C52	C	1.531732	0.081667	0.377612
C53	C	0.993713	-0.302716	-0.000080
C54	C	1.493713	0.197284	0.499920
C55	C	1.031723	-0.418303	0.122199
C56	C	1.531723	0.081697	0.622199
C57	C	0.990778	-0.467625	-0.000055
C58	C	1.490778	0.032375	0.499945
C59	C	0.952787	-0.352051	-0.122493
C60	C	1.452787	0.147949	0.377507
C61	C	0.952790	-0.352018	0.122204
C62	C	1.452790	0.147982	0.622204
C63	C	0.911785	-0.402548	-0.000138
C64	C	1.411785	0.097452	0.499862
C65	C	0.995405	-0.207716	-0.000095
C66	C	1.495405	0.292284	0.499905
C67	C	0.989079	-0.562622	-0.000051
C68	C	1.489079	-0.062622	0.499949
C69	C	1.145818	0.108675	-0.000075
C70	C	1.645818	0.608675	0.499925
C71	C	1.239066	0.110320	-0.000091
C72	C	1.739066	0.610320	0.499909
C73	C	0.986088	0.268401	-0.000044
C74	C	1.486088	0.768401	0.499956
C75	C	0.987731	0.361650	-0.000035
C76	C	1.487731	0.861650	0.499965
N77	N	0.992263	0.114835	0.352980
N78	N	1.492263	0.614835	0.852980
C79	C	1.051934	0.055191	0.450236
C80	C	1.551934	0.555191	0.950236
C81	C	0.976034	0.038886	0.549644
C82	C	1.476034	0.538886	1.049644
C83	C	1.068139	0.131088	0.549699
C84	C	1.568139	0.631088	1.049699
C85	C	0.916325	0.098493	0.450199
C86	C	1.416325	0.598493	0.950199
C87	C	1.008480	0.190728	0.450246
C88	C	1.508480	0.690728	0.950246
C89	C	0.932524	0.174456	0.549609
C90	C	1.432524	0.674456	1.049609
N91	N	0.992245	0.114821	0.646900
N92	N	1.492245	0.614821	1.146900
H93	H	0.534971	0.189535	0.225618
H94	H	1.034971	0.689535	0.725618
H95	H	1.102346	0.004725	0.406602
H96	H	1.602346	0.504725	0.906602
Cl97	Cl	0.954828	-0.060212	0.617043
Cl98	Cl	1.454828	0.439788	1.117043
Cl99	Cl	1.083239	-0.462974	0.281841
Cl100	Cl	1.583239	0.037026	0.781841
Cl101	Cl	0.438534	0.021586	0.281854
Cl102	Cl	0.938534	0.521586	0.781854
Cl103	Cl	1.029715	0.289795	0.382772
Cl104	Cl	1.529715	0.789795	0.882772
H105	H	0.882000	0.224892	0.592967
H106	H	1.382000	0.724892	1.092967
H107	H	0.449616	0.040187	-0.226032
H108	H	0.949616	0.540187	0.273968
H109	H	0.852136	0.084668	0.406677
H110	H	1.352136	0.584668	0.906677
H111	H	1.132313	0.144841	0.593405
H112	H	1.632313	0.644841	1.093405
H113	H	0.534990	0.189535	-0.225780
H114	H	1.034990	0.689535	0.274220
Cl115	Cl	0.402386	0.297937	-0.000223
Cl116	Cl	0.902386	0.797937	0.499777
Cl117	Cl	0.581851	-0.068398	-0.000269
Cl118	Cl	1.081851	0.431602	0.499731
H119	H	0.843713	-0.418002	-0.000200
H120	H	1.343713	0.081998	0.499800
H121	H	1.140699	-0.352153	-0.000204
H122	H	1.640699	0.147847	0.499796
Cl123	Cl	1.083212	-0.463040	-0.282046
Cl124	Cl	1.583212	0.036960	0.217954
Cl125	Cl	0.901370	-0.307268	0.281873
Cl126	Cl	1.401370	0.192732	0.781873
H127	H	0.919454	-0.323227	-0.226008
H128	H	1.419454	0.176773	0.273992
