data_functionalizedCrystal
_audit_creation_method	'MofGen! by Chris Wilmer'
_symmetry_space_group_name_H-M	'P1'
_symmetry_Int_Tables_number	1
_symmetry_cell_setting	triclinic
loop_
_symmetry_equiv_pos_as_xyz
  x,y,z
_cell_length_a	22.010155
_cell_length_b	10.540539
_cell_length_c	10.540535
_cell_angle_alpha	95.475433
_cell_angle_beta	90.002951
_cell_angle_gamma	90.006485
loop_
_atom_site_label
_atom_site_type_symbol
_atom_site_fract_x
_atom_site_fract_y
_atom_site_fract_z
O1	O	-0.050499	-1.685893	0.178883
O2	O	-0.050506	-1.316480	0.195739
O3	O	-0.050496	-1.509618	0.002604
O4	O	-0.050509	-1.492756	0.372018
O5	O	0.050554	-1.509583	0.002633
O6	O	0.050544	-1.316445	0.195768
O7	O	0.050552	-1.685858	0.178912
Cu8	Cu	0.059775	-1.501149	0.187343
Cu9	Cu	-0.059729	-1.501190	0.187309
O10	O	0.050542	-1.492721	0.372047
C11	C	0.000018	-1.269160	0.194490
C12	C	0.000015	-1.128212	0.190708
N13	N	0.143827	-1.501129	0.187366
N14	N	-0.143782	-1.501220	0.187275
C15	C	0.563611	-1.586717	0.101801
C16	C	0.627219	-1.586722	0.101792
O17	O	0.660114	-1.659441	0.029057
N18	N	0.659034	-1.501189	0.187282
C19	C	0.627239	-1.415636	0.272777
O20	O	0.660141	-1.342883	0.345492
C21	C	0.563632	-1.415625	0.272779
C22	C	0.531820	-1.501172	0.187292
C23	C	0.531799	-1.672256	0.016320
C24	C	0.468195	-1.672252	0.016331
C25	C	0.436405	-1.586707	0.101822
C26	C	0.468217	-1.501168	0.187303
C27	C	0.531838	-1.330066	0.358267
C28	C	0.468228	-1.330062	0.358261
C29	C	0.436415	-1.415610	0.272774
C30	C	0.372823	-1.415619	0.272805
N31	N	0.341007	-1.501152	0.187315
C32	C	0.372798	-1.586697	0.101823
C33	C	0.760817	-1.415664	0.272766
C34	C	0.824422	-1.415680	0.272772
C35	C	0.824397	-1.586765	0.101785
C36	C	0.760791	-1.586754	0.101786
C37	C	0.729001	-1.501197	0.187276
C38	C	0.239227	-1.586681	0.101853
C39	C	0.175618	-1.586673	0.101875
C40	C	0.175648	-1.415583	0.272857
C41	C	0.239251	-1.415596	0.272840
C42	C	0.271039	-1.501150	0.187328
O43	O	0.339887	-1.342934	0.345499
O44	O	0.339888	-1.659426	0.029110
C45	C	0.000029	-1.508337	-0.044684
C46	C	0.000030	-1.504557	-0.185633
C47	C	0.000026	-1.733179	0.180162
C48	C	0.000025	-1.874127	0.183944
C49	C	0.000256	-0.944787	0.045790
C50	C	0.000022	-1.091405	0.049624
C51	C	-0.057689	-1.066558	0.258587
C52	C	-0.057731	-0.920014	0.253771
C53	C	0.057182	-0.919485	0.256675
C54	C	0.057938	-1.066467	0.257974
C55	C	0.000023	-1.363543	-0.222303
C56	C	-0.000217	-1.359566	-0.368904
C57	C	-0.057575	-1.568948	-0.394974
C58	C	-0.057612	-1.571949	-0.248209
C59	C	0.057305	-1.573960	-0.248314
C60	C	0.058051	-1.567438	-0.394660
C61	C	0.000015	-1.494002	0.419336
C62	C	0.000010	-1.497781	0.560284
H63	H	0.265101	-1.656345	0.032219
O64	O	0.054718	-1.291786	-0.166709
H65	H	0.039381	-1.208665	-0.102067
H66	H	-0.041411	-1.133166	-0.004187
O67	O	0.566137	-1.237788	0.450472
H68	H	0.615709	-1.252154	0.436131
H69	H	-0.041214	-1.310314	-0.178850
H70	H	0.149718	-1.656340	0.032261
O71	O	-0.055223	-1.286241	-0.406617
H72	H	-0.081759	-1.253500	-0.320096
H73	H	-0.100863	-0.891819	0.203578
H74	H	0.061419	-1.090690	0.360834
H75	H	0.442347	-1.260387	0.427876
H76	H	0.057568	-0.872256	0.358578
H77	H	-0.100825	-1.523916	-0.208041
H78	H	0.041050	-1.303898	-0.398236
O79	O	-0.061218	-0.856456	0.388163
H80	H	-0.062871	-0.930429	0.456302
H81	H	0.100653	-1.515649	-0.423262
O82	O	-0.060550	-1.096167	0.395825
H83	H	-0.020779	-1.155287	0.417157
H84	H	-0.100631	-1.109162	0.211410
H85	H	0.850293	-1.656418	0.032171
H86	H	-0.060063	-1.675324	-0.225178
H87	H	0.100921	-0.887924	0.211029
O88	O	0.058060	-1.711383	-0.218911
H89	H	0.016298	-1.759859	-0.257548
O90	O	0.433888	-1.764514	-0.075883
H91	H	0.404910	-1.710518	-0.138093
H92	H	-0.100599	-1.520150	-0.425878
H93	H	0.100628	-1.107415	0.208386
O94	O	0.055074	-0.906904	-0.028024
H95	H	0.039881	-0.862874	-0.114162
H96	H	-0.059553	-1.670714	-0.442331
H97	H	0.061704	-1.668316	-0.443695
O98	O	0.566083	-1.764546	-0.075878
H99	H	0.533266	-1.824026	-0.135298
O100	O	0.726479	-1.679009	0.009572
H101	H	0.759278	-1.738484	-0.049876
H102	H	0.100970	-1.529942	-0.205851
O103	O	0.858727	-1.323422	0.364993
H104	H	0.908299	-1.337793	0.350643
H105	H	0.265154	-1.345948	0.342464
O106	O	0.726526	-1.323392	0.364985
H107	H	0.738732	-1.340470	0.464103
O108	O	0.141355	-1.323288	0.365033
H109	H	0.091782	-1.337644	0.350648
H110	H	0.041388	-1.134006	-0.003787
O111	O	-0.054243	-0.904792	-0.027763
H112	H	-0.081496	-0.834810	0.033650
