data_functionalizedCrystal
_audit_creation_method	'MofGen! by Chris Wilmer'
_symmetry_space_group_name_H-M	'P1'
_symmetry_Int_Tables_number	1
_symmetry_cell_setting	triclinic
loop_
_symmetry_equiv_pos_as_xyz
  x,y,z
_cell_length_a	12.759395
_cell_length_b	12.645330
_cell_length_c	12.759387
_cell_angle_alpha	89.968450
_cell_angle_beta	89.978972
_cell_angle_gamma	90.013407
loop_
_atom_site_label
_atom_site_type_symbol
_atom_site_fract_x
_atom_site_fract_y
_atom_site_fract_z
Zn1	Zn	1.606284	-0.421962	-0.594014
Zn2	Zn	1.606181	-0.599264	-0.418332
Zn3	Zn	1.430582	-0.422017	-0.418349
Zn4	Zn	1.430581	-0.599186	-0.593970
O5	O	1.518407	-0.510607	-0.506166
O6	O	1.753291	-0.445491	-0.570721
O7	O	1.582844	-0.575808	-0.271313
O8	O	1.453933	-0.273663	-0.441677
O9	O	1.753215	-0.575754	-0.441648
O10	O	1.583020	-0.273622	-0.570738
O11	O	1.453833	-0.445585	-0.271326
O12	O	1.283561	-0.445510	-0.441634
O13	O	1.453930	-0.575621	-0.740997
O14	O	1.283560	-0.575675	-0.570662
O15	O	1.583019	-0.445415	-0.741029
O16	O	1.582843	-0.747601	-0.441605
O17	O	1.453831	-0.747544	-0.570645
C18	C	1.245439	-0.510591	-0.506146
C19	C	1.128662	-0.510609	-0.506162
C20	C	0.909307	-0.375209	-0.640817
C21	C	0.964212	-0.307486	-0.708115
C22	C	1.073934	-0.307468	-0.708097
C23	C	1.128752	-0.375182	-0.640776
C24	C	1.073847	-0.442905	-0.573478
C25	C	0.964122	-0.442913	-0.573501
C26	C	1.073757	-0.578332	-0.438864
C27	C	0.964035	-0.578346	-0.438876
C28	C	1.128575	-0.646046	-0.371543
C29	C	1.073670	-0.713765	-0.304238
C30	C	0.963941	-0.713780	-0.304259
C31	C	0.909130	-0.646069	-0.371578
C32	C	1.518354	-0.786037	-0.506142
C33	C	1.518428	-0.903867	-0.506166
C34	C	1.599459	-1.071423	-0.424822
C35	C	1.599723	-0.948863	-0.425021
C36	C	1.548458	-0.948240	-0.616911
C37	C	1.549101	-1.070838	-0.616479
C38	C	1.407334	-1.071198	-0.477857
C39	C	1.407867	-0.948594	-0.475373
C40	C	1.792440	-0.510625	-0.506188
C41	C	1.909217	-0.510632	-0.506197
C42	C	1.518486	-0.510503	-0.780200
C43	C	1.518520	-0.510459	-0.896977
C44	C	1.518488	-0.234102	-0.506214
C45	C	1.518523	-0.116272	-0.506235
C46	C	1.652949	-0.374885	-0.897031
C47	C	1.720178	-0.307082	-0.951918
C48	C	1.720203	-0.307043	-1.061640
C49	C	1.652990	-0.374812	-1.116476
C50	C	1.585761	-0.442616	-1.061589
C51	C	1.585745	-0.442649	-0.951865
C52	C	1.451329	-0.578183	-1.061535
C53	C	1.451307	-0.578229	-0.951813
C54	C	1.384116	-0.645953	-1.116372
C55	C	1.316890	-0.713763	-1.061484
C56	C	1.316868	-0.713799	-0.951756
C57	C	1.384078	-0.646032	-0.896926
C58	C	1.518388	-0.510634	-0.233199
C59	C	1.518558	-0.510380	-0.116423
H60	H	0.819965	-0.375194	-0.640816
H61	H	1.118638	-0.252324	-0.762898
H62	H	1.347030	-1.100202	-0.537153
H63	H	1.217916	-0.646033	-0.371539
Cl64	Cl	1.725928	-1.118856	-0.453475
Cl65	Cl	1.570823	-1.117067	-0.297667
H66	H	1.384071	-0.646060	-0.807584
H67	H	1.385224	-0.919604	-0.393874
H68	H	1.682077	-0.919452	-0.443791
Cl69	Cl	1.652937	-0.374943	-0.759094
Cl70	Cl	1.804704	-0.221788	-1.130645
Cl71	Cl	1.142588	-0.798888	-0.219622
H72	H	0.919567	-0.252357	-0.762929
Cl73	Cl	1.804644	-0.221865	-0.882976
H74	H	1.262111	-0.769002	-0.907072
H75	H	1.218093	-0.375171	-0.640777
H76	H	1.653008	-0.374766	-1.205818
Cl77	Cl	1.309734	-0.901326	-0.560211
H78	H	0.919244	-0.768933	-0.249461
Cl79	Cl	1.365172	-1.119083	-0.355349
H80	H	0.819788	-0.646061	-0.371588
Cl81	Cl	1.462030	-1.116641	-0.713314
H82	H	1.384137	-0.645912	-1.205713
H83	H	1.628813	-0.917449	-0.641350
Cl84	Cl	1.460209	-0.903250	-0.713075
Cl85	Cl	1.232398	-0.798943	-1.130425
Cl86	Cl	1.674581	-1.114860	-0.653589
Cl87	Cl	1.570647	-0.902546	-0.298257
