data_functionalizedCrystal
_audit_creation_method	'MofGen! by Chris Wilmer'
_symmetry_space_group_name_H-M	'P1'
_symmetry_Int_Tables_number	1
_symmetry_cell_setting	triclinic
loop_
_symmetry_equiv_pos_as_xyz
  x,y,z
_cell_length_a	18.050589
_cell_length_b	12.594517
_cell_length_c	12.594509
_cell_angle_alpha	90.025818
_cell_angle_beta	89.972304
_cell_angle_gamma	89.976841
loop_
_atom_site_label
_atom_site_type_symbol
_atom_site_fract_x
_atom_site_fract_y
_atom_site_fract_z
Zn1	Zn	-0.295737	-1.627177	-0.601991
Zn2	Zn	-0.419941	-1.627030	-0.424015
Zn3	Zn	-0.295759	-1.449181	-0.424006
Zn4	Zn	-0.419879	-1.449125	-0.601931
O5	O	-0.357829	-1.538128	-0.512986
O6	O	-0.312230	-1.776103	-0.578411
O7	O	-0.403503	-1.603400	-0.275068
O8	O	-0.191831	-1.472877	-0.447638
O9	O	-0.403482	-1.775995	-0.447652
O10	O	-0.191816	-1.603650	-0.578403
O11	O	-0.312267	-1.472735	-0.275062
O12	O	-0.312206	-1.300228	-0.447580
O13	O	-0.403376	-1.472782	-0.750885
O14	O	-0.403397	-1.300187	-0.578300
O15	O	-0.312170	-1.603596	-0.750929
O16	O	-0.523858	-1.603346	-0.447593
O17	O	-0.523812	-1.472640	-0.578308
C18	C	-0.357798	-1.261587	-0.512933
C19	C	-0.357802	-1.143282	-0.512935
C20	C	-0.308132	-1.074020	-0.441967
C21	C	-0.375870	-1.003188	-0.415782
C22	C	-0.290085	-1.003314	-0.539122
C23	C	-0.425576	-1.074008	-0.486700
C24	C	-0.339746	-1.074141	-0.610085
C25	C	-0.407530	-1.003341	-0.583937
C26	C	-0.550781	-1.538000	-0.512968
C27	C	-0.633327	-1.538042	-0.512996
C28	C	-0.832780	-1.467034	-0.584054
C29	C	-0.882223	-1.441086	-0.486927
C30	C	-0.784457	-1.538147	-0.513010
C31	C	-0.882095	-1.564147	-0.610148
C32	C	-0.930442	-1.538246	-0.513032
C33	C	-0.832814	-1.512147	-0.415832
C34	C	-0.832681	-1.635254	-0.539119
C35	C	-0.882103	-1.609343	-0.441925
C36	C	-0.700359	-1.538087	-0.512999
C37	C	-1.014539	-1.538306	-0.513032
C38	C	-0.164123	-1.538286	-0.513027
C39	C	-0.081578	-1.538354	-0.513044
C40	C	-0.357764	-1.538200	-0.790607
C41	C	-0.357736	-1.538230	-0.908912
C42	C	-0.357846	-0.815749	-0.513020
C43	C	-0.357815	-0.934055	-0.512984
C44	C	-0.407315	-1.467103	-0.978141
C45	C	-0.425467	-1.564218	-1.048940
C46	C	-0.339540	-1.441191	-1.048913
C47	C	-0.375923	-1.635396	-0.978152
C48	C	-0.289965	-1.512303	-0.978120
C49	C	-0.308091	-1.609485	-1.048886
C50	C	-0.357840	-1.538119	-0.236445
C51	C	-0.357659	-1.538294	-0.118140
H52	H	-0.449589	-0.972503	-0.643974
N53	N	-0.910770	-1.593226	-0.718950
H54	H	-0.891976	-1.666014	-0.739217
H55	H	-0.966716	-1.593661	-0.717910
N56	N	-0.319475	-1.115452	-0.718853
H57	H	-0.273434	-1.160739	-0.713596
H58	H	-0.361653	-1.159527	-0.747679
N59	N	-0.396121	-0.961905	-0.306989
H60	H	-0.358332	-0.987103	-0.253511
H61	H	-0.396877	-0.881732	-0.308241
N62	N	-0.214225	-0.962171	-0.568439
H63	H	-0.176745	-0.987880	-0.514759
H64	H	-0.200259	-0.989096	-0.641298
N65	N	-0.462932	-1.387489	-0.936984
H66	H	-0.514084	-1.407243	-0.962745
H67	H	-0.462169	-1.387586	-0.856801
N68	N	-0.803826	-1.743942	-0.568398
H69	H	-0.822550	-1.797906	-0.515517
H70	H	-0.821725	-1.763388	-0.641837
H71	H	-0.904001	-1.359012	-0.464864
N72	N	-0.501336	-1.593322	-1.090147
H73	H	-0.538783	-1.539530	-1.064420
H74	H	-0.500555	-1.593826	-1.170329
H75	H	-0.903623	-1.669523	-0.381785
N76	N	-0.396354	-1.744170	-0.937166
H77	H	-0.396279	-1.743467	-0.856975
H78	H	-0.447337	-1.763875	-0.963630
H79	H	-0.266130	-1.669732	-1.079753
N80	N	-0.804074	-1.387272	-0.663520
H81	H	-0.822769	-1.406120	-0.736710
H82	H	-0.822100	-1.314002	-0.643573
H83	H	-0.232702	-1.490311	-0.946989
H84	H	-0.324182	-1.359099	-1.079997
H85	H	-0.482866	-1.104933	-0.464481
N86	N	-0.252557	-1.115151	-0.362390
H87	H	-0.201523	-1.088331	-0.381396
H88	H	-0.266367	-1.089331	-0.289072
N89	N	-0.804267	-1.482948	-0.306994
H90	H	-0.748315	-1.483060	-0.307664
H91	H	-0.822780	-1.409890	-0.287185
