data_functionalizedCrystal
_audit_creation_method	'MofGen! by Chris Wilmer'
_symmetry_space_group_name_H-M	'P1'
_symmetry_Int_Tables_number	1
_symmetry_cell_setting	triclinic
loop_
_symmetry_equiv_pos_as_xyz
  x,y,z
_cell_length_a	15.297476
_cell_length_b	15.298159
_cell_length_c	10.685194
_cell_angle_alpha	85.407696
_cell_angle_beta	83.909026
_cell_angle_gamma	88.367327
loop_
_atom_site_label
_atom_site_type_symbol
_atom_site_fract_x
_atom_site_fract_y
_atom_site_fract_z
Zn1	Zn	1.211271	0.666835	-0.957773
Zn2	Zn	1.228811	0.509309	-1.134873
Zn3	Zn	1.093220	0.499397	-0.888593
Zn4	Zn	1.057536	0.631183	-1.122827
O5	O	1.147710	0.576681	-1.026017
O6	O	1.334681	0.665008	-1.015259
O7	O	1.233099	0.386917	-1.078292
O8	O	1.116474	0.532380	-0.725626
O9	O	1.347568	0.549274	-1.145373
O10	O	1.203205	0.655396	-0.776452
O11	O	1.133481	0.379634	-0.897352
O12	O	0.967403	0.497809	-0.885672
O13	O	1.055655	0.756990	-1.124843
O14	O	0.941186	0.594632	-1.057763
O15	O	1.168603	0.783183	-1.003579
O16	O	1.198497	0.514704	-1.305419
O17	O	1.072663	0.604244	-1.296569
C18	C	0.922899	0.541277	-0.962904
C19	C	0.826719	0.526149	-0.935938
C20	C	0.795151	0.468725	-0.833553
C21	C	0.704785	0.454510	-0.808213
C22	C	0.645978	0.497724	-0.885251
C23	C	0.677545	0.555155	-0.987634
C24	C	0.767920	0.569365	-1.012982
C25	C	0.618747	0.598365	-1.064681
C26	C	0.650314	0.655795	-1.167063
C27	C	0.740680	0.670004	-1.192405
C28	C	0.799487	0.626790	-1.115367
C29	C	0.528372	0.584154	-1.039333
C30	C	0.501141	0.684794	-1.218762
C31	C	0.591506	0.699009	-1.244101
C32	C	1.106192	0.802358	-1.070584
C33	C	1.088500	0.898528	-1.089576
C34	C	1.273860	1.224167	-0.890579
C35	C	1.290488	1.133811	-0.872739
C36	C	1.239993	1.074986	-0.926946
C37	C	1.172866	1.106526	-0.998998
C38	C	1.156241	1.196891	-1.016848
C39	C	1.122373	1.047710	-1.053215
C40	C	1.055247	1.079250	-1.125267
C41	C	1.038624	1.169606	-1.143113
C42	C	1.089120	1.228431	-1.088906
C43	C	1.138998	0.957345	-1.035365
C44	C	1.021379	0.930069	-1.161634
C45	C	1.004751	1.020425	-1.179474
C46	C	1.373398	0.612224	-1.089376
C47	C	1.469573	0.627370	-1.116376
C48	C	1.189055	1.351878	-0.981643
C49	C	1.206739	1.255707	-0.962637
C50	C	1.133631	0.556703	-1.345640
C51	C	1.127682	0.548198	-1.482404
C52	C	1.161863	0.596759	-0.705156
C53	C	1.167895	0.605315	-0.568424
H54	H	0.679091	0.407746	-0.724859
N55	N	0.966227	1.203624	-1.220829
H56	H	0.963360	1.269792	-1.223914
H57	H	0.978725	1.184450	-1.309346
N58	N	0.625562	0.760938	-1.354537
H59	H	0.574601	0.786159	-1.399500
H60	H	0.657891	0.810058	-1.322988
N61	N	0.858576	0.422113	-0.750479
H62	H	0.920613	0.439830	-0.782076
H63	H	0.844158	0.438687	-0.660897
H64	H	1.345145	1.108139	-0.814078
N65	N	0.774736	0.731944	-1.302827
H66	H	0.816197	0.699051	-1.363313
H67	H	0.723727	0.757154	-1.347689
N68	N	0.896956	0.642122	-1.142706
H69	H	0.919495	0.666821	-1.067617
H70	H	0.928574	0.584729	-1.159586
H71	H	0.453259	0.719982	-1.281494
N72	N	0.494333	0.522213	-0.928915
H73	H	0.428162	0.519761	-0.924547
H74	H	0.520655	0.461695	-0.940161
N75	N	1.219539	0.678709	-1.527395
H76	H	1.245529	0.715615	-1.604225
H77	H	1.179217	0.716446	-1.472085
N78	N	1.076039	0.474794	-1.523426
H79	H	1.027153	0.500320	-1.572467
H80	H	1.116377	0.437018	-1.578657
H81	H	1.193653	0.931675	-0.976698
N82	N	1.071193	1.325890	-1.108159
H83	H	1.021011	1.336948	-1.162035
H84	H	1.055047	1.350370	-1.023556
N85	N	0.548512	0.482395	-0.857927
H86	H	0.537437	0.439458	-0.781379
H87	H	0.516887	0.539798	-0.841132
H88	H	1.314971	1.272070	-0.846460
N89	N	1.257923	0.977531	-0.907707
H90	H	1.308108	0.966476	-0.853836
H91	H	1.203525	0.947896	-0.864168
H92	H	0.950096	1.046117	-1.238139
N93	N	0.966913	0.866633	-1.220114
H94	H	0.987629	0.804605	-1.197870
H95	H	0.903055	0.873893	-1.186740
