data_functionalizedCrystal
_audit_creation_method	'MofGen! by Chris Wilmer'
_symmetry_space_group_name_H-M	'P1'
_symmetry_Int_Tables_number	1
_symmetry_cell_setting	triclinic
loop_
_symmetry_equiv_pos_as_xyz
  x,y,z
_cell_length_a	13.635800
_cell_length_b	11.102193
_cell_length_c	19.551833
_cell_angle_alpha	85.477259
_cell_angle_beta	78.336523
_cell_angle_gamma	108.603963
loop_
_atom_site_label
_atom_site_type_symbol
_atom_site_fract_x
_atom_site_fract_y
_atom_site_fract_z
V1	V	-2.016320	-0.177171	0.217858
O2	O	-1.996592	0.007143	0.213711
O3	O	-2.004974	-0.349982	0.216367
O4	O	-1.987509	-0.175047	0.312873
O5	O	-2.014177	-0.169003	0.116537
V6	V	-2.257066	-0.155054	0.205739
O7	O	-2.149177	-0.225687	0.244441
O8	O	-2.349307	-0.106538	0.179156
O9	O	-2.156809	0.017757	0.207229
O10	O	-2.335492	-0.339368	0.209886
O11	O	-2.317907	-0.163222	0.307060
O12	O	-2.174273	-0.157178	0.110724
V13	V	-1.516320	-0.177171	0.217858
O14	O	-1.496592	0.007143	0.213711
O15	O	-1.504974	-0.349982	0.216367
O16	O	-1.487509	-0.175047	0.312873
O17	O	-1.514177	-0.169003	0.116537
V18	V	-1.757066	-0.155054	0.205739
O19	O	-1.649177	-0.225687	0.244441
O20	O	-1.849307	-0.106538	0.179156
O21	O	-1.656809	0.017757	0.207229
O22	O	-1.835492	-0.339368	0.209886
O23	O	-1.817907	-0.163222	0.307060
O24	O	-1.674273	-0.157178	0.110724
C25	C	-1.930750	-0.392091	0.212931
C26	C	-1.962086	-0.533370	0.212345
C27	C	-1.885437	-0.593254	0.208589
C28	C	-1.914887	-0.726001	0.208040
C29	C	-2.097640	-0.738970	0.215009
C30	C	-2.068189	-0.606224	0.215552
C31	C	-1.779334	-0.520400	0.205382
C32	C	-1.702678	-0.580283	0.201626
C33	C	-1.732128	-0.713031	0.201078
C34	C	-1.838234	-0.785894	0.204285
C35	C	-1.908472	-0.168943	0.336032
C36	C	-1.925643	-0.168350	0.413708
C37	C	-2.062704	0.059859	0.210664
C38	C	-2.020987	0.201137	0.211254
C39	C	-2.084982	-0.163286	0.087561
C40	C	-2.057430	-0.163873	0.009885
C41	C	-1.430750	-0.392091	0.212931
C42	C	-1.462086	-0.533370	0.212345
C43	C	-1.408472	-0.168943	0.336032
C44	C	-1.425643	-0.168350	0.413708
C45	C	-2.025071	-0.174451	0.453755
C46	C	-2.041205	-0.173894	0.526740
C47	C	-1.957911	-0.167261	0.559676
C48	C	-1.858467	-0.161153	0.519619
C49	C	-1.842333	-0.161697	0.446635
C50	C	-1.931650	-0.236364	0.678988
C51	C	-1.947789	-0.235828	0.751971
C52	C	-2.007669	-0.165577	0.784783
C53	C	-2.051429	-0.095879	0.744604
C54	C	-2.035294	-0.096424	0.671620
C55	C	-1.975396	-0.166670	0.638815
C56	C	-2.124598	-0.171073	0.903968
C57	C	-2.140726	-0.170507	0.976953
C58	C	-1.957989	-0.157779	0.969832
C59	C	-1.941860	-0.158331	0.896847
C60	C	-2.025170	-0.164984	0.863921
C61	C	-1.562704	0.059859	0.210664
C62	C	-1.520987	0.201137	0.211254
C63	C	-1.584982	-0.163286	0.087561
C64	C	-1.557430	-0.163873	0.009885
C65	C	-1.525075	-0.174430	0.453747
C66	C	-1.541219	-0.173856	0.526730
C67	C	-1.457931	-0.167211	0.559674
C68	C	-1.358489	-0.161127	0.519630
C69	C	-1.342345	-0.161692	0.446647
C70	C	-1.458486	-0.170503	-0.023042
C71	C	-1.432579	-0.171039	-0.096027
C72	C	-1.505621	-0.164954	-0.136085
C73	C	-1.604573	-0.158319	-0.103155
C74	C	-1.630475	-0.157774	-0.030171
C75	C	-1.458305	-0.581211	0.148086
C76	C	-1.487755	-0.713961	0.147545
C77	C	-1.524760	-0.751016	0.275527
C78	C	-1.495318	-0.618269	0.276068
C79	C	-1.425073	-0.496312	0.084363
C80	C	-1.421291	-0.544152	0.020099
C81	C	-1.450740	-0.676901	0.019557
C82	C	-1.483972	-0.761810	0.083280
H83	H	-1.755345	-0.412310	0.205830
C84	C	-1.569843	-0.496604	0.354206
C85	C	-1.499467	-0.565670	0.346702
H86	H	-1.572410	-0.464139	0.397815
H87	H	-1.545840	-0.427054	0.316337
H88	H	-1.639012	-0.551791	0.353566
H89	H	-1.430296	-0.510480	0.347337
H90	H	-1.523465	-0.635229	0.384581
H91	H	-2.130602	-0.557464	0.218606
H92	H	-1.394240	-0.475012	-0.031781
H93	H	-2.221692	-0.175466	1.009559
H94	H	-1.882877	-0.293563	0.652278
H95	H	-1.447668	-0.715849	-0.032769
C96	C	-1.504157	-0.060067	0.656742
C97	C	-1.475692	-0.166600	0.639900
H98	H	-1.515132	-0.059700	0.706271
H99	H	-1.448668	0.016640	0.632544
H100	H	-1.567987	-0.064905	0.642843
H101	H	-1.411857	-0.161757	0.653794
H102	H	-1.531185	-0.243326	0.664107
C103	C	-1.702533	-0.295249	0.446757
C104	C	-1.616637	-0.181726	0.417545
H105	H	-1.759064	-0.299742	0.424412
H106	H	-1.680445	-0.367214	0.439714
H107	H	-1.726356	-0.295768	0.495954
H108	H	-1.592809	-0.181211	0.368349
H109	H	-1.638728	-0.109742	0.424582
H110	H	-1.398998	-0.175458	0.009564
C111	C	-1.901582	-0.151293	1.078545
C112	C	-1.866426	-0.150486	1.006027
H113	H	-1.845053	-0.146793	1.100892
H114	H	-1.923672	-0.079328	1.085583
H115	H	-1.959854	-0.228320	1.098344
H116	H	-1.808159	-0.073454	0.986227
H117	H	-1.844321	-0.222457	0.998985
C118	C	-1.208341	-0.260896	0.427596
C119	C	-1.233041	-0.155050	0.402659
H120	H	-1.140860	-0.256802	0.400444
H121	H	-1.206068	-0.259591	0.475774
H122	H	-1.261338	-0.338080	0.423470
H123	H	-1.180048	-0.077865	0.406790
H124	H	-1.235306	-0.156343	0.354468
H125	H	-1.664036	-0.153361	-0.135781
H126	H	-1.290682	-0.155718	0.546464
H127	H	-1.352003	-0.176441	-0.122829
H128	H	-2.092909	-0.179863	0.426950
H129	H	-1.669708	-0.761783	0.198013
H130	H	-1.860899	-0.153377	0.864241
H131	H	-2.122176	-0.178869	0.559353
H132	H	-1.484522	-0.165414	-0.195511
H133	H	-2.184029	-0.798306	0.217620
C134	C	-1.692051	-0.290437	0.622338
C135	C	-1.650532	-0.180560	0.570741
H136	H	-1.759532	-0.294570	0.649509
H137	H	-1.700032	-0.364873	0.600104
H138	H	-1.644751	-0.286371	0.652400
H139	H	-1.697828	-0.184630	0.540675
H140	H	-1.642556	-0.106105	0.592976
H141	H	-1.711049	-0.152383	-0.003368
C142	C	-1.506012	-0.931798	0.012825
C143	C	-1.516344	-0.907731	0.082685
H144	H	-1.525987	-1.021882	0.012459
H145	H	-1.550975	-0.899086	-0.008448
H146	H	-1.434059	-0.890765	-0.012910
H147	H	-1.588299	-0.948757	0.108420
H148	H	-1.471381	-0.940460	0.103968
C149	C	-1.586311	-0.970962	0.331521
C150	C	-1.561274	-0.844343	0.345567
H151	H	-1.608844	-1.028574	0.374762
H152	H	-1.641989	-0.989256	0.307377
H153	H	-1.525071	-0.980930	0.302907
H154	H	-1.622517	-0.834373	0.374177
H155	H	-1.505591	-0.826043	0.369723
H156	H	-1.401086	-0.388218	0.084797
H157	H	-1.616287	-0.520948	0.199009
H158	H	-1.862195	-0.893975	0.203801
H159	H	-2.070923	-0.039671	0.638908
H160	H	-1.761363	-0.156719	0.414027
C161	C	-2.220532	-0.064383	0.770153
C162	C	-2.117245	-0.018640	0.780656
H163	H	-2.261163	-0.016703	0.792416
H164	H	-2.217180	-0.054737	0.720943
H165	H	-2.253305	-0.152727	0.789990
H166	H	-2.084469	0.069702	0.760815
H167	H	-2.120593	-0.028274	0.829877
C168	C	-2.302053	-0.291901	0.896974
C169	C	-2.216163	-0.178369	0.867768
H170	H	-2.358583	-0.296399	0.874629
H171	H	-2.279956	-0.363860	0.889929
H172	H	-2.325881	-0.292428	0.946172
H173	H	-2.192330	-0.177847	0.818571
H174	H	-2.238263	-0.106392	0.874807
C175	C	-1.843709	-0.374195	0.751921
C176	C	-1.899690	-0.312438	0.796132
H177	H	-1.814009	-0.421485	0.779183
H178	H	-1.890988	-0.431182	0.729652
H179	H	-1.788149	-0.311795	0.716948
H180	H	-1.955255	-0.374839	0.831101
H181	H	-1.852407	-0.255446	0.818412
H182	H	-1.790649	-0.155748	0.546440
