data_functionalizedCrystal
_audit_creation_method	'MofGen! by Chris Wilmer'
_symmetry_space_group_name_H-M	'P1'
_symmetry_Int_Tables_number	1
_symmetry_cell_setting	triclinic
loop_
_symmetry_equiv_pos_as_xyz
  x,y,z
_cell_length_a	16.109301
_cell_length_b	27.732025
_cell_length_c	14.586319
_cell_angle_alpha	90.010755
_cell_angle_beta	89.999213
_cell_angle_gamma	83.047475
loop_
_atom_site_label
_atom_site_type_symbol
_atom_site_fract_x
_atom_site_fract_y
_atom_site_fract_z
O1	O	1.102353	0.062131	-0.076152
O2	O	0.860194	0.069863	-0.076163
O3	O	0.988804	-0.004369	-0.076185
O4	O	0.973743	0.136363	-0.076130
O5	O	0.988795	-0.004370	0.076295
O6	O	0.860185	0.069862	0.076318
O7	O	1.102344	0.062130	0.076328
Cu8	Cu	0.981264	0.065996	0.090246
Cu9	Cu	0.981274	0.065997	-0.090081
O10	O	0.973734	0.136362	0.076351
C11	C	0.829219	0.069549	0.000075
C12	C	0.736935	0.068610	0.000069
C13	C	0.514139	0.110474	0.000096
C14	C	0.427429	0.109588	0.000102
C15	C	0.448406	0.021515	0.000064
C16	C	0.535114	0.022401	0.000065
C17	C	0.567978	0.066883	0.000076
C18	C	0.394561	0.065110	0.000081
C19	C	0.300547	0.064149	0.000087
C20	C	0.661997	0.067844	0.000072
C21	C	0.988487	-0.022378	0.000046
C22	C	0.987543	-0.076038	0.000019
C23	C	0.980846	-0.459231	-0.083046
C24	C	0.984376	-0.257556	-0.083075
O25	O	0.984870	-0.231486	-0.153765
N26	N	0.984813	-0.232334	0.000040
C27	C	0.984372	-0.257534	0.083168
O28	O	0.984833	-0.231453	0.153862
C29	C	0.980848	-0.459207	0.083196
C30	C	0.980403	-0.484426	0.000076
C31	C	0.980402	-0.484450	-0.166159
C32	C	0.979515	-0.534865	-0.166151
C33	C	0.979072	-0.560061	-0.083029
C34	C	0.979516	-0.534842	0.000084
C35	C	0.980413	-0.484406	0.166324
C36	C	0.979534	-0.534828	0.166323
C37	C	0.979089	-0.560047	0.083203
C38	C	0.978186	-0.610453	0.083214
N39	N	0.977749	-0.635675	0.000099
C40	C	0.978192	-0.610479	-0.083022
C41	C	0.986221	-0.151652	0.083147
C42	C	0.987100	-0.101234	0.083140
C43	C	0.987106	-0.101260	-0.083103
C44	C	0.986220	-0.151679	-0.083095
C45	C	0.985784	-0.176874	0.000032
C46	C	0.976329	-0.716355	-0.082999
C47	C	0.975438	-0.766774	-0.082983
C48	C	0.975437	-0.766744	0.083259
C49	C	0.976323	-0.716328	0.083244
C50	C	0.976772	-0.691135	0.000108
O51	O	0.977701	-0.636554	0.153868
O52	O	0.977750	-0.636570	-0.153705
C53	C	0.981733	-0.408815	-0.083054
C54	C	0.982177	-0.383596	0.000060
C55	C	0.981734	-0.408792	0.083182
C56	C	0.983057	-0.333178	0.000053
C57	C	0.983500	-0.307982	-0.083069
C58	C	0.983063	-0.333204	-0.166184
C59	C	0.982176	-0.383620	-0.166175
C60	C	0.982170	-0.383570	0.166296
C61	C	0.983056	-0.333154	0.166281
C62	C	0.983500	-0.307958	0.083160
C63	C	1.133319	0.062443	0.000088
C64	C	1.225603	0.063382	0.000088
C65	C	0.974052	0.154371	0.000117
C66	C	0.974995	0.208030	0.000138
N67	N	0.981263	0.065994	0.217077
N68	N	0.981282	0.065994	-0.216912
C69	C	1.038230	0.033135	0.452074
C70	C	1.038232	0.033134	0.548055
C71	C	0.924309	0.098855	0.548084
C72	C	0.924303	0.098853	0.452105
C73	C	0.981268	0.065994	0.404102
C74	C	0.981276	0.065994	0.596063
C75	C	0.981279	0.065993	0.700130
C76	C	0.981265	0.065994	0.300028
H77	H	0.421638	-0.014701	0.000060
O78	O	1.093427	0.001175	0.405363
C79	C	1.049257	-0.028659	0.349887
H80	H	0.983969	-0.009399	0.335498
H81	H	1.044033	-0.064369	0.386904
C82	C	1.176448	-0.062683	0.276394
C83	C	1.096262	-0.039026	0.258715
H84	H	1.205443	-0.069080	0.220156
H85	H	1.206207	-0.042585	0.313772
H86	H	1.172083	-0.092438	0.307244
H87	H	1.100628	-0.009268	0.227876
H88	H	1.066504	-0.059119	0.221330
H89	H	0.877915	0.125611	0.413044
H90	H	0.540893	0.146694	0.000113
H91	H	0.578952	-0.013099	0.000051
H92	H	0.975073	-0.787305	-0.150673
H93	H	1.084614	0.006377	0.587111
H94	H	0.979158	-0.555395	-0.233836
O95	O	0.375249	0.151978	0.000078
C96	C	0.422852	0.191426	0.000113
H97	H	0.487734	0.179147	-0.028762
H98	H	0.428851	0.205060	0.073271
C99	C	0.299414	0.247766	-0.024203
C100	C	0.379101	0.232686	-0.059675
H101	H	0.272426	0.273219	-0.061079
H102	H	0.267342	0.221190	-0.024223
H103	H	0.304425	0.259124	0.036761
H104	H	0.374090	0.221323	-0.120633
H105	H	0.411172	0.259262	-0.059666
O106	O	0.985901	-0.176233	-0.163783
C107	C	1.057434	-0.210871	-0.168783
H108	H	1.081320	-0.220251	-0.096620
H109	H	1.108211	-0.195279	-0.209799
C110	C	1.005380	-0.245577	-0.304951
C111	C	1.034713	-0.257101	-0.216318
H112	H	0.991367	-0.274093	-0.334276
H113	H	0.957188	-0.222240	-0.301584
H114	H	1.047699	-0.232582	-0.339119
H115	H	0.992391	-0.270089	-0.182148
H116	H	1.082897	-0.280442	-0.219680
O117	O	0.976722	-0.691958	-0.163838
C118	C	0.976159	-0.725039	-0.237185
H119	H	0.949200	-0.758968	-0.212797
H120	H	1.042788	-0.735487	-0.262747
C121	C	0.955069	-0.659555	-0.345673
C122	C	0.921950	-0.701226	-0.315721
H123	H	0.921634	-0.644866	-0.394120
H124	H	0.955451	-0.637268	-0.296259
H125	H	1.010592	-0.668267	-0.366968
H126	H	0.866432	-0.692512	-0.294416
H127	H	0.921558	-0.723511	-0.365134
O128	O	0.869062	0.130757	0.594858
C129	C	0.881268	0.123707	0.689860
H130	H	0.947600	0.105651	0.702957
H131	H	0.834528	0.099457	0.717096
C132	C	0.786664	0.195330	0.723063
C133	C	0.868137	0.173157	0.739150
H134	H	0.778561	0.225833	0.753470
H135	H	0.778438	0.200080	0.659059
H136	H	0.747724	0.175117	0.745761
H137	H	0.907076	0.193367	0.716442
H138	H	0.876370	0.168412	0.803152
H139	H	0.980765	-0.463941	-0.233850
O140	O	0.987387	-0.076728	-0.163804
C141	C	0.915833	-0.042105	-0.168767
H142	H	0.891979	-0.032709	-0.096590
H143	H	0.865047	-0.057720	-0.209740
C144	C	0.967794	-0.007424	-0.304986
C145	C	0.938501	0.004119	-0.216337
H146	H	0.981774	0.021088	-0.334333
H147	H	1.016000	-0.030751	-0.301646
H148	H	0.925468	-0.020437	-0.339119
H149	H	0.980831	0.017126	-0.182203
H150	H	0.890302	0.027450	-0.219673
H151	H	0.987447	-0.080703	0.150825
O152	O	0.985755	-0.176045	0.163985
C153	C	0.986347	-0.142967	0.237332
H154	H	0.960647	-0.105029	0.212946
H155	H	1.053163	-0.142678	0.262891
C156	C	0.963020	-0.205070	0.345821
C157	C	0.931448	-0.158474	0.315871
H158	H	0.929159	-0.214636	0.394269
H159	H	0.962624	-0.227356	0.296406
H160	H	1.018700	-0.204823	0.367114
H161	H	0.875774	-0.158723	0.294568
H162	H	0.931833	-0.136189	0.365283
H163	H	0.980784	-0.463882	0.234009
H164	H	0.983418	-0.312681	-0.233864
O165	O	0.979072	-0.559225	0.247158
C166	C	0.979676	-0.526151	0.320512
H167	H	0.953976	-0.488211	0.296135
H168	H	1.046495	-0.525866	0.346063
C169	C	0.956354	-0.588260	0.428991
C170	C	0.924783	-0.541661	0.399053
H171	H	0.922497	-0.597828	0.477441
H172	H	0.955950	-0.610543	0.379572
H173	H	1.012036	-0.588016	0.450278
H174	H	0.869106	-0.541907	0.377757
H175	H	0.925175	-0.519379	0.448470
H176	H	0.976652	-0.695791	0.150928
H177	H	0.981814	-0.404149	-0.233861
O178	O	0.974901	-0.791271	0.163940
C179	C	0.902354	-0.814944	0.168935
H180	H	0.878196	-0.820672	0.096772
H181	H	0.852259	-0.791674	0.209971
C182	C	0.953081	-0.857465	0.305074
C183	C	0.923414	-0.864504	0.216441
H184	H	0.966070	-0.888035	0.334381
H185	H	1.001957	-0.841515	0.301711
H186	H	0.911331	-0.838072	0.339258
H187	H	0.965168	-0.883891	0.182255
H188	H	0.874546	-0.880459	0.219799
O189	O	0.983375	-0.308704	0.247090
C190	C	0.911120	-0.315522	0.297655
H191	H	0.886455	-0.350300	0.274021
H192	H	0.861182	-0.283304	0.286142
C193	C	0.963261	-0.276796	0.429397
C194	C	0.932971	-0.319514	0.400374
H195	H	0.976738	-0.279257	0.492759
H196	H	1.011940	-0.272201	0.395329
H197	H	0.921641	-0.249953	0.419795
H198	H	0.974594	-0.346356	0.409966
H199	H	0.884300	-0.324114	0.434446
H200	H	0.981812	-0.404079	0.233986
