data_functionalizedCrystal
_audit_creation_method	'MofGen! by Chris Wilmer'
_symmetry_space_group_name_H-M	'P1'
_symmetry_Int_Tables_number	1
_symmetry_cell_setting	triclinic
loop_
_symmetry_equiv_pos_as_xyz
  x,y,z
_cell_length_a	17.699077
_cell_length_b	10.489716
_cell_length_c	16.776229
_cell_angle_alpha	89.989852
_cell_angle_beta	90.003019
_cell_angle_gamma	83.904856
loop_
_atom_site_label
_atom_site_type_symbol
_atom_site_fract_x
_atom_site_fract_y
_atom_site_fract_z
O1	O	1.005125	0.161238	0.066271
O2	O	1.505125	0.661238	0.566271
O3	O	0.784883	0.182231	0.066274
O4	O	1.284883	0.682231	0.566274
O5	O	0.900025	-0.013959	0.066275
O6	O	1.400025	0.486041	0.566275
O7	O	0.889983	0.357428	0.066269
O8	O	1.389983	0.857428	0.566269
O9	O	0.900015	-0.013924	-0.066302
O10	O	1.400015	0.486076	0.433698
O11	O	0.784872	0.182265	-0.066303
O12	O	1.284872	0.682265	0.433697
O13	O	1.005115	0.161272	-0.066306
O14	O	1.505115	0.661272	0.433694
Zn15	Zn	0.894992	0.171774	-0.087354
Zn16	Zn	1.394992	0.671774	0.412646
Zn17	Zn	0.895006	0.171729	0.087321
Zn18	Zn	1.395006	0.671729	0.587321
O19	O	0.889972	0.357462	-0.066307
O20	O	1.389972	0.857462	0.433693
C21	C	0.756675	0.181497	-0.000014
C22	C	1.256675	0.681497	0.499986
C23	C	0.672642	0.179245	-0.000013
C24	C	1.172642	0.679245	0.499987
C25	C	0.633162	0.178202	-0.072281
C26	C	1.133162	0.678202	0.427719
C27	C	0.554206	0.176065	-0.072282
C28	C	1.054206	0.676065	0.427718
C29	C	0.514730	0.174980	-0.000013
C30	C	1.014730	0.674980	0.499987
C31	C	0.554216	0.176019	0.072260
C32	C	1.054216	0.676019	0.572260
C33	C	0.633172	0.178147	0.072260
C34	C	1.133172	0.678147	0.572260
C35	C	0.235797	0.167435	0.072262
C36	C	0.735797	0.667435	0.572262
C37	C	0.156836	0.165311	0.072256
C38	C	0.656836	0.665311	0.572256
C39	C	0.156831	0.165353	-0.072280
C40	C	0.656831	0.665353	0.427720
C41	C	0.235787	0.167481	-0.072280
C42	C	0.735787	0.667481	0.427720
C43	C	0.275266	0.168513	-0.000007
C44	C	0.775266	0.668513	0.499993
C45	C	0.360880	0.170828	-0.000007
C46	C	0.860880	0.670828	0.499993
C47	C	0.429118	0.172674	-0.000013
C48	C	0.929118	0.672674	0.499987
C49	C	0.899265	-0.061460	-0.000011
C50	C	1.399265	0.438540	0.499989
C51	C	0.897008	-0.203049	-0.000004
C52	C	1.397008	0.296951	0.499996
C53	C	0.967617	-0.302037	-0.000012
C54	C	1.467617	0.197963	0.499988
C55	C	0.930311	-0.378720	0.065354
C56	C	1.430311	0.121280	0.565354
C57	C	0.930284	-0.378650	-0.065356
C58	C	1.430284	0.121350	0.434644
C59	C	0.859731	-0.277867	0.065416
C60	C	1.359731	0.222133	0.565416
C61	C	0.859715	-0.277791	-0.065353
C62	C	1.359715	0.222209	0.434647
C63	C	0.822357	-0.354424	0.000029
C64	C	1.322357	0.145576	0.500029
C65	C	1.033322	0.162006	-0.000016
C66	C	1.533322	0.662006	0.499984
C67	C	1.117355	0.164259	-0.000013
C68	C	1.617355	0.664259	0.499987
C69	C	0.890732	0.404963	-0.000020
C70	C	1.390732	0.904963	0.499980
C71	C	0.892989	0.546552	-0.000022
C72	C	1.392989	1.046552	0.499978
N73	N	0.894988	0.171804	-0.206565
N74	N	1.394988	0.671804	0.293435
C75	C	0.848696	0.094439	-0.751735
C76	C	1.348696	0.594439	-0.251735
C77	C	0.848695	0.094450	-0.668283
C78	C	1.348695	0.594450	-0.168283
C79	C	0.895009	0.171718	-0.626564
C80	C	1.395009	0.671718	-0.126564
C81	C	0.941333	0.248972	-0.668303
C82	C	1.441333	0.748972	-0.168303
C83	C	0.941338	0.248953	-0.751753
C84	C	1.441338	0.748953	-0.251753
C85	C	0.941314	0.249047	-0.331755
C86	C	1.441314	0.749047	0.168245
C87	C	0.941304	0.249062	-0.248299
C88	C	1.441304	0.749062	0.251701
C89	C	0.848670	0.094543	-0.248285
C90	C	1.348670	0.594543	0.251715
C91	C	0.848675	0.094525	-0.331736
C92	C	1.348675	0.594525	0.168264
C93	C	0.895003	0.171772	-0.373466
C94	C	1.395003	0.671772	0.126534
C95	C	0.895005	0.171758	-0.463955
C96	C	1.395005	0.671758	0.036045
C97	C	0.895003	0.171741	-0.536078
C98	C	1.395003	0.671741	-0.036078
N99	N	0.895016	0.171689	0.206533
N100	N	1.395016	0.671689	0.706533
H101	H	0.522066	0.175194	-0.131130
H102	H	1.022066	0.675194	0.368870
C103	C	0.457511	0.283215	0.156110
C104	C	0.957511	0.783215	0.656110
C105	C	0.510826	0.174831	0.151700
C106	C	1.010826	0.674831	0.651700
H107	H	0.430729	0.282486	0.205157
H108	H	0.930729	0.782486	0.705157
H109	H	0.422702	0.282279	0.113075
H110	H	0.922702	0.782279	0.613075
H111	H	0.482951	0.358384	0.153104
H112	H	0.982951	0.858384	0.653104
H113	H	0.485386	0.099661	0.154700
H114	H	0.985386	0.599661	0.654700
H115	H	0.545640	0.175755	0.194748
H116	H	1.045640	0.675755	0.694748
C117	C	1.032890	0.401786	-0.256690
C118	C	1.532890	0.901786	0.243310
C119	C	0.992222	0.333992	-0.202440
C120	C	1.492222	0.833992	0.297560
H121	H	1.064326	0.454208	-0.228377
H122	H	1.564326	0.954208	0.271623
H123	H	0.998350	0.454126	-0.289252
H124	H	1.498350	0.954126	0.210748
H125	H	1.063587	0.342995	-0.289225
H126	H	1.563587	0.842995	0.210775
H127	H	0.961521	0.392783	-0.169909
H128	H	1.461521	0.892783	0.330091
H129	H	1.026767	0.281648	-0.169864
H130	H	1.526767	0.781648	0.330136
C131	C	0.227851	0.167293	-0.215154
C132	C	0.727851	0.667293	0.284846
C133	C	0.279178	0.168668	-0.151720
C134	C	0.779178	0.668668	0.348280
H135	H	0.254641	0.168014	-0.264197
H136	H	0.754641	0.668014	0.235803
H137	H	0.191686	0.240810	-0.212153
H138	H	0.691686	0.740810	0.287847
H139	H	0.202426	0.092108	-0.212139
H140	H	0.702426	0.592108	0.287861
H141	H	0.304599	0.243857	-0.154731
H142	H	0.804599	0.743857	0.345269
H143	H	0.315357	0.095143	-0.154722
H144	H	0.815357	0.595143	0.345278
H145	H	0.810959	0.031610	-0.365699
H146	H	1.310959	0.531610	0.134301
C147	C	0.729873	0.071018	-0.156129
C148	C	1.229873	0.571018	0.343871
C149	C	0.676553	0.179393	-0.151720
C150	C	1.176553	0.679393	0.348280
H151	H	0.756662	0.071757	-0.205172
H152	H	1.256662	0.571757	0.294828
H153	H	0.704444	-0.004149	-0.153127
H154	H	1.204444	0.495851	0.346873
H155	H	0.764684	0.071961	-0.113085
H156	H	1.264684	0.571961	0.386915
H157	H	0.641739	0.178445	-0.194762
H158	H	1.141739	0.678445	0.305238
H159	H	0.701984	0.254580	-0.154731
H160	H	1.201984	0.754580	0.345269
H161	H	0.665315	0.178998	0.131109
H162	H	1.165315	0.678998	0.631109
H163	H	0.124678	0.164507	-0.131129
H164	H	0.624678	0.664507	0.368871
H165	H	0.810979	0.031541	-0.634308
H166	H	1.310979	0.531541	-0.134308
C167	C	0.821484	-0.085186	-0.138751
C168	C	1.321484	0.414814	0.361249
C169	C	0.819504	-0.218262	-0.139954
C170	C	1.319504	0.281738	0.360046
H171	H	0.796659	-0.048437	-0.184810
H172	H	1.296659	0.451563	0.315190
H173	H	0.872801	-0.066347	-0.138289
H174	H	1.372801	0.433653	0.361711
H175	H	0.796323	-0.050522	-0.092344
H176	H	1.296323	0.449478	0.407656
H177	H	0.844669	-0.252928	-0.186358
H178	H	1.344669	0.247072	0.313642
H179	H	0.768177	-0.237111	-0.140424
H180	H	1.268177	0.262889	0.359576
H181	H	0.124697	0.164426	0.131110
H182	H	0.624697	0.664426	0.631110
H183	H	0.267932	0.168272	0.131111
H184	H	0.767932	0.668272	0.631111
H185	H	0.810951	0.031641	-0.214298
H186	H	1.310951	0.531641	0.285702
H187	H	0.960101	-0.422663	-0.120617
H188	H	1.460101	0.077337	0.379383
H189	H	0.979036	0.311947	-0.365723
H190	H	1.479036	0.811947	0.134277
H191	H	1.029035	-0.278504	0.000054
H192	H	1.529035	0.221496	0.500054
C193	C	1.046561	-0.412388	0.139836
C194	C	1.546561	0.087612	0.639836
C195	C	0.970552	-0.438220	0.139953
C196	C	1.470552	0.061780	0.639953
H197	H	1.071407	-0.449127	0.185886
H198	H	1.571407	0.050873	0.685886
H199	H	1.048706	-0.322298	0.140135
H200	H	1.548706	0.177702	0.640135
H201	H	1.071122	-0.448243	0.093413
H202	H	1.571122	0.051757	0.593413
H203	H	0.945989	-0.402356	0.186374
H204	H	1.445989	0.097644	0.686374
H205	H	0.968403	-0.528328	0.139662
H206	H	1.468403	-0.028328	0.639662
C207	C	0.982454	0.317621	-0.540387
C208	C	1.482454	0.817621	-0.040387
C209	C	0.992243	0.333909	-0.622447
C210	C	1.492243	0.833909	-0.122447
H211	H	1.013880	0.370068	-0.512081
H212	H	1.513880	0.870068	-0.012081
H213	H	0.996048	0.230333	-0.526695
H214	H	1.496048	0.730333	-0.026695
H215	H	0.930795	0.341437	-0.526731
H216	H	1.430795	0.841437	-0.026731
H217	H	1.043900	0.310083	-0.636105
H218	H	1.543900	0.810083	-0.136105
H219	H	0.978653	0.421217	-0.636145
H220	H	1.478653	0.921217	-0.136145
H221	H	0.810978	0.031525	-0.785696
H222	H	1.310978	0.531525	-0.285696
H223	H	0.829945	-0.234022	0.120739
H224	H	1.329945	0.265978	0.620739
C225	C	0.702600	-0.334502	0.068574
C226	C	1.202600	0.165498	0.568574
C227	C	0.739386	-0.385876	0.000074
C228	C	1.239386	0.114124	0.500074
H229	H	0.651380	-0.353929	0.068605
H230	H	1.151380	0.146071	0.568605
H231	H	0.703609	-0.244154	0.069010
H232	H	1.203609	0.255846	0.569010
H233	H	0.727858	-0.370603	0.114562
H234	H	1.227858	0.129397	0.614562
H235	H	0.714131	-0.349768	-0.045915
H236	H	1.214131	0.150232	0.454085
H237	H	0.738372	-0.476242	-0.000370
H238	H	1.238372	0.023758	0.499630
H239	H	0.979057	0.311858	-0.785731
H240	H	1.479057	0.811858	-0.285731
