data_functionalizedCrystal
_audit_creation_method	'MofGen! by Chris Wilmer'
_symmetry_space_group_name_H-M	'P1'
_symmetry_Int_Tables_number	1
_symmetry_cell_setting	triclinic
loop_
_symmetry_equiv_pos_as_xyz
  x,y,z
_cell_length_a	16.109301
_cell_length_b	15.944493
_cell_length_c	14.586319
_cell_angle_alpha	90.002083
_cell_angle_beta	89.998857
_cell_angle_gamma	83.468314
loop_
_atom_site_label
_atom_site_type_symbol
_atom_site_fract_x
_atom_site_fract_y
_atom_site_fract_z
O1	O	1.103143	0.107970	-0.076178
O2	O	1.603143	0.607970	0.423822
O3	O	0.861083	0.121407	-0.076189
O4	O	1.361083	0.621407	0.423811
O5	O	0.988748	-0.007592	-0.076191
O6	O	1.488748	0.492408	0.423809
O7	O	0.975478	0.236969	-0.076176
O8	O	1.475478	0.736969	0.423824
O9	O	0.988740	-0.007594	0.076290
O10	O	1.488740	0.492406	0.576290
O11	O	0.861074	0.121405	0.076292
O12	O	1.361074	0.621405	0.576292
O13	O	1.103135	0.107968	0.076303
O14	O	1.603135	0.607968	0.576303
Cu15	Cu	0.982104	0.114686	0.090220
Cu16	Cu	1.482104	0.614686	0.590220
Cu17	Cu	0.982114	0.114689	-0.090106
Cu18	Cu	1.482114	0.614689	0.409894
O19	O	0.975469	0.236967	0.076305
O20	O	1.475469	0.736967	0.576305
C21	C	0.830104	0.120861	0.000049
C22	C	1.330104	0.620861	0.500049
C23	C	0.737808	0.119229	0.000045
C24	C	1.237808	0.619229	0.500045
C25	C	0.428818	0.190440	0.000065
C26	C	0.928818	0.690440	0.500065
C27	C	0.515539	0.191981	0.000060
C28	C	1.015539	0.691981	0.500060
C29	C	0.535394	0.038929	0.000038
C30	C	1.035394	0.538929	0.500038
C31	C	0.448675	0.037389	0.000037
C32	C	0.948675	0.537389	0.500037
C33	C	0.395389	0.113147	0.000055
C34	C	0.895389	0.613147	0.500055
C35	C	0.568828	0.116228	0.000051
C36	C	1.068828	0.616228	0.500051
C37	C	0.662855	0.117899	0.000045
C38	C	1.162855	0.617899	0.500045
C39	C	0.301357	0.111477	0.000059
C40	C	0.801357	0.611477	0.500059
C41	C	0.988202	-0.038887	0.000046
C42	C	1.488202	0.461113	0.500046
C43	C	0.986576	-0.132136	0.000034
C44	C	1.486576	0.367864	0.500034
C45	C	1.061722	-0.367920	0.000055
C46	C	1.561722	0.132080	0.500055
C47	C	1.021203	-0.418474	-0.075128
C48	C	1.521203	0.081526	0.424872
C49	C	0.983562	-0.302856	0.000045
C50	C	1.483562	0.197144	0.500045
C51	C	1.021176	-0.418452	0.075206
C52	C	1.521176	0.081548	0.575206
C53	C	0.980658	-0.467764	0.000060
C54	C	1.480658	0.032236	0.500060
C55	C	0.943064	-0.352181	-0.075200
C56	C	1.443064	0.147819	0.424800
C57	C	0.943049	-0.352156	0.075202
C58	C	1.443049	0.147844	0.575202
C59	C	0.902472	-0.402677	0.000001
C60	C	1.402472	0.097323	0.500001
C61	C	0.985238	-0.207856	0.000036
C62	C	1.485238	0.292144	0.500036
C63	C	0.978976	-0.562761	0.000062
C64	C	1.478976	-0.062761	0.500062
C65	C	1.134114	0.108514	0.000062
C66	C	1.634114	0.608514	0.500062
C67	C	1.226409	0.110145	0.000061
C68	C	1.726409	0.610145	0.500061
C69	C	0.976016	0.268262	0.000066
C70	C	1.476016	0.768262	0.500066
C71	C	0.977642	0.361510	0.000072
C72	C	1.477642	0.861510	0.500072
N73	N	0.982102	0.114684	0.217052
N74	N	1.482102	0.614684	0.717052
N75	N	0.982122	0.114684	-0.216938
N76	N	1.482122	0.614684	0.283062
C77	C	1.038651	0.057583	0.452057
C78	C	1.538651	0.557583	0.952057
C79	C	1.038654	0.057581	0.548039
C80	C	1.538654	0.557581	1.048039
C81	C	0.925567	0.171788	0.548050
C82	C	1.425567	0.671788	1.048050
C83	C	0.925561	0.171786	0.452070
C84	C	1.425561	0.671786	0.952070
C85	C	0.982108	0.114684	0.404076
C86	C	1.482108	0.614684	0.904076
C87	C	0.982116	0.114684	0.596037
C88	C	1.482116	0.614684	1.096037
C89	C	0.982118	0.114683	0.700104
C90	C	1.482118	0.614683	1.200104
C91	C	0.982105	0.114684	0.300003
C92	C	1.482105	0.614684	0.800003
H93	H	0.578790	-0.022751	0.000026
H94	H	1.078790	0.477249	0.500026
Cl95	Cl	0.854469	0.243571	0.391745
Cl96	Cl	1.354469	0.743571	0.891745
H97	H	0.385435	0.252128	0.000079
H98	H	0.885435	0.752128	0.500079
Cl99	Cl	0.557560	0.289155	0.000068
Cl100	Cl	1.057560	0.789155	0.500068
H101	H	0.421458	-0.025557	0.000026
H102	H	0.921458	0.474443	0.500026
H103	H	1.084695	0.011083	0.587102
H104	H	1.584695	0.511083	1.087102
H105	H	0.879529	0.218280	0.587136
H106	H	1.379529	0.718280	1.087136
H107	H	1.054214	-0.447430	-0.138687
H108	H	1.554214	0.052570	0.361313
Cl109	Cl	0.892141	-0.307674	-0.173441
Cl110	Cl	1.392141	0.192326	0.326559
Cl111	Cl	0.798449	-0.426526	-0.000064
Cl112	Cl	1.298449	0.073474	0.499936
Cl113	Cl	1.165664	-0.343821	-0.000053
Cl114	Cl	1.665664	0.156179	0.499947
H115	H	0.910065	-0.323185	0.138763
H116	H	1.410065	0.176815	0.638763
Cl117	Cl	1.072154	-0.463135	0.173335
Cl118	Cl	1.572154	0.036865	0.673335
Cl119	Cl	1.109735	-0.014205	0.391727
Cl120	Cl	1.609735	0.485795	0.891727
