data_functionalizedCrystal
_audit_creation_method	'MofGen! by Chris Wilmer'
_symmetry_space_group_name_H-M	'P1'
_symmetry_Int_Tables_number	1
_symmetry_cell_setting	triclinic
loop_
_symmetry_equiv_pos_as_xyz
  x,y,z
_cell_length_a	21.395362
_cell_length_b	16.120484
_cell_length_c	21.395356
_cell_angle_alpha	92.871514
_cell_angle_beta	89.957023
_cell_angle_gamma	92.942400
loop_
_atom_site_label
_atom_site_type_symbol
_atom_site_fract_x
_atom_site_fract_y
_atom_site_fract_z
Zn1	Zn	0.945241	-0.331581	-0.367212
Zn2	Zn	1.278575	0.001753	-0.033879
Zn3	Zn	1.611908	0.335086	0.299454
Zn4	Zn	0.939842	-0.471001	-0.267744
Zn5	Zn	1.273176	-0.137667	0.065589
Zn6	Zn	1.606509	0.195666	0.398923
Zn7	Zn	0.840456	-0.331642	-0.262416
Zn8	Zn	1.173789	0.001692	0.070918
Zn9	Zn	1.507122	0.335025	0.404251
Zn10	Zn	0.835123	-0.470995	-0.372448
Zn11	Zn	1.168456	-0.137662	-0.039115
Zn12	Zn	1.501789	0.195671	0.294218
O13	O	0.890165	-0.401305	-0.317455
O14	O	1.223499	-0.067971	0.015878
O15	O	1.556832	0.265362	0.349212
O16	O	1.032204	-0.350051	-0.354056
O17	O	1.365537	-0.016718	-0.020723
O18	O	1.698871	0.316615	0.312611
O19	O	0.926631	-0.452542	-0.179360
O20	O	1.259964	-0.119209	0.153973
O21	O	1.593298	0.214125	0.487306
O22	O	0.858847	-0.214966	-0.271896
O23	O	1.192180	0.118367	0.061437
O24	O	1.525514	0.451701	0.394771
O25	O	1.028237	-0.452483	-0.280977
O26	O	1.361571	-0.119149	0.052356
O27	O	1.694904	0.214184	0.385690
O28	O	0.935833	-0.214921	-0.348890
O29	O	1.269166	0.118412	-0.015556
O30	O	1.602499	0.451746	0.317777
O31	O	0.853612	-0.350156	-0.175446
O32	O	1.186945	-0.016822	0.157888
O33	O	1.520279	0.316511	0.491221
O34	O	0.752069	-0.350151	-0.276973
O35	O	1.085403	-0.016817	0.056360
O36	O	1.418736	0.316516	0.389693
O37	O	0.849758	-0.452474	-0.459431
O38	O	1.183091	-0.119141	-0.126097
O39	O	1.516424	0.214193	0.207236
O40	O	0.748151	-0.452533	-0.357814
O41	O	1.081485	-0.119200	-0.024481
O42	O	1.414818	0.214133	0.308853
O43	O	0.930661	-0.350046	-0.455584
O44	O	1.263995	-0.016713	-0.122250
O45	O	1.597328	0.316620	0.211083
O46	O	0.921460	-0.587668	-0.286054
O47	O	1.254793	-0.254334	0.047279
O48	O	1.588126	0.078999	0.380612
O49	O	0.844522	-0.587664	-0.362980
O50	O	1.177856	-0.254330	-0.029647
O51	O	1.511189	0.079003	0.303686
C52	C	0.727376	-0.401349	-0.317384
C53	C	1.060709	-0.068015	0.015949
C54	C	1.394043	0.265318	0.349283
C55	C	0.657733	-0.401388	-0.317369
C56	C	0.991067	-0.068054	0.015964
C57	C	1.324400	0.265279	0.349297
C58	C	0.622994	-0.454769	-0.359406
C59	C	0.956327	-0.121435	-0.026072
C60	C	1.289660	0.211898	0.307261
C61	C	0.557559	-0.454748	-0.359433
C62	C	0.890892	-0.121415	-0.026099
C63	C	1.224226	0.211918	0.307234
C64	C	0.526866	-0.401355	-0.317413
C65	C	0.860200	-0.068022	0.015921
C66	C	1.193533	0.265311	0.349254
C67	C	0.561614	-0.347964	-0.275373
C68	C	0.894948	-0.014631	0.057960
C69	C	1.228281	0.318703	0.391293
C70	C	0.627048	-0.347980	-0.275352
C71	C	0.960381	-0.014647	0.057982
C72	C	1.293714	0.318687	0.391315
C73	C	0.423398	-0.394651	-0.260752
C74	C	0.756731	-0.061318	0.072581
C75	C	1.090064	0.272016	0.405914
C76	C	0.357965	-0.394641	-0.260773
C77	C	0.691298	-0.061308	0.072560
C78	C	1.024632	0.272026	0.405894
C79	C	0.325048	-0.401301	-0.317480
C80	C	0.658381	-0.067968	0.015853
C81	C	0.991714	0.265366	0.349187
C82	C	0.357570	-0.407989	-0.374168
C83	C	0.690904	-0.074656	-0.040835
C84	C	1.024237	0.258678	0.292499
C85	C	0.423004	-0.408005	-0.374146
C86	C	0.756337	-0.074672	-0.040813
C87	C	1.089671	0.258662	0.292520
C88	C	0.455915	-0.401332	-0.317432
C89	C	0.789248	-0.067998	0.015901
C90	C	1.122582	0.265335	0.349235
C91	C	0.219356	-0.454663	-0.359549
C92	C	0.552690	-0.121330	-0.026216
C93	C	0.886023	0.212004	0.307118
C94	C	0.153921	-0.454637	-0.359577
C95	C	0.487254	-0.121303	-0.026244
C96	C	0.820587	0.212030	0.307090
C97	C	0.157977	-0.347857	-0.275512
C98	C	0.491310	-0.014523	0.057821
C99	C	0.824644	0.318810	0.391155
C100	C	0.223411	-0.347878	-0.275490
C101	C	0.556745	-0.014545	0.057844
C102	C	0.890078	0.318788	0.391177
C103	C	0.254097	-0.401286	-0.317507
C104	C	0.587430	-0.067953	0.015826
C105	C	0.920764	0.265381	0.349159
C106	C	0.881844	-0.617916	-0.325677
C107	C	1.215177	-0.284583	0.007656
C108	C	1.548510	0.048750	0.340989
C109	C	0.878341	-0.710584	-0.329216
C110	C	1.211674	-0.377250	0.004118
C111	C	1.545007	-0.043917	0.337451
C112	C	0.871949	-0.880248	-0.335689
C113	C	1.205282	-0.546915	-0.002356
C114	C	1.538616	-0.213581	0.330978
C115	C	0.908494	-0.921520	-0.299232
C116	C	1.241827	-0.588187	0.034102
C117	C	1.575161	-0.254854	0.367435
C118	C	0.904938	-1.015927	-0.302833
C119	C	1.238271	-0.682594	0.030500
C120	C	1.571604	-0.349261	0.363833
C121	C	0.875505	-0.785832	-0.332088
C122	C	1.208838	-0.452499	0.001245
C123	C	1.542171	-0.119166	0.334579
C124	C	1.053590	-0.401261	-0.317527
C125	C	1.386924	-0.067928	0.015807
C126	C	1.720257	0.265406	0.349140
C127	C	1.123232	-0.401242	-0.317557
C128	C	1.456566	-0.067909	0.015776
C129	C	1.789899	0.265424	0.349109
C130	C	0.890217	-0.401253	-0.480876
C131	C	1.223550	-0.067920	-0.147543
C132	C	1.556883	0.265414	0.185790
C133	C	0.890239	-0.401231	-0.550517
C134	C	1.223572	-0.067897	-0.217184
C135	C	1.556905	0.265436	0.116150
C136	C	0.898537	-0.183847	-0.309214
C137	C	1.231870	0.149486	0.024119
C138	C	1.565204	0.482820	0.357452
C139	C	0.902104	-0.091179	-0.305703
C140	C	1.235438	0.242154	0.027631
C141	C	1.568771	0.575487	0.360964
C142	C	0.852229	-0.347912	-0.581182
C143	C	1.185562	-0.014579	-0.247848
C144	C	1.518895	0.318754	0.085485
C145	C	0.852227	-0.347897	-0.646617
C146	C	1.185560	-0.014563	-0.313283
C147	C	1.518894	0.318770	0.020050
C148	C	0.890247	-0.401191	-0.681384
C149	C	1.223580	-0.067858	-0.348050
C150	C	1.556914	0.265476	-0.014717
C151	C	0.928260	-0.454520	-0.650712
C152	C	1.261593	-0.121187	-0.317378
C153	C	1.594926	0.212147	0.015955
C154	C	0.928255	-0.454540	-0.585278
C155	C	1.261589	-0.121207	-0.251945
C156	C	1.594922	0.212127	0.081389
C157	C	0.946450	-0.407725	-0.785338
C158	C	1.279784	-0.074392	-0.452005
C159	C	1.613117	0.258942	-0.118671
C160	C	0.946456	-0.407699	-0.850770
C161	C	1.279789	-0.074366	-0.517437
C162	C	1.613123	0.258967	-0.184103
C163	C	0.890259	-0.401135	-0.883203
C164	C	1.223593	-0.067802	-0.549869
C165	C	1.556926	0.265532	-0.216536
C166	C	0.834056	-0.394579	-0.850194
C167	C	1.167390	-0.061245	-0.516861
C168	C	1.500723	0.272088	-0.183528
C169	C	0.834052	-0.394598	-0.784761
C170	C	1.167386	-0.061265	-0.451427
C171	C	1.500719	0.272068	-0.118094
C172	C	0.890256	-0.401176	-0.752336
C173	C	1.223589	-0.067843	-0.419002
C174	C	1.556922	0.265491	-0.085669
C175	C	0.852244	-0.347797	-0.984819
C176	C	1.185578	-0.014463	-0.651486
C177	C	1.518911	0.318870	-0.318152
C178	C	0.852242	-0.347787	-1.050255
C179	C	1.185575	-0.014454	-0.716922
C180	C	1.518908	0.318880	-0.383589
C181	C	0.928280	-0.454406	-1.054349
C182	C	1.261613	-0.121073	-0.721016
C183	C	1.594947	0.212261	-0.387682
C184	C	0.928277	-0.454420	-0.988914
C185	C	1.261610	-0.121087	-0.655581
C186	C	1.594944	0.212247	-0.322247
C187	C	0.890260	-0.401111	-0.954153
C188	C	1.223594	-0.067778	-0.620820
C189	C	1.556927	0.265556	-0.287486
C190	C	0.890153	-0.401296	-0.154667
C191	C	1.223486	-0.067963	0.178666
C192	C	1.556819	0.265371	0.511999
C193	C	0.890261	-0.401083	-0.085018
C194	C	1.223595	-0.067750	0.248315
C195	C	1.556928	0.265584	0.581648
H196	H	0.655333	-0.304508	-0.241120
H197	H	0.988666	0.028825	0.092213
H198	H	1.321999	0.362159	0.425546
H199	H	0.821276	-0.304474	-0.671589
H200	H	1.154609	0.028859	-0.338255
H201	H	1.487942	0.362192	-0.004922
H202	H	0.959238	-0.497798	-1.082656
H203	H	1.292571	-0.164464	-0.749322
H204	H	1.625905	0.168869	-0.415989
H205	H	0.837993	-0.915814	-0.369603
H206	H	1.171327	-0.582480	-0.036270
H207	H	1.504660	-0.249147	0.297064
H208	H	0.942452	-0.885952	-0.265314
H209	H	1.275785	-0.552619	0.068019
H210	H	1.609118	-0.219286	0.401353
H211	H	0.330771	-0.413411	-0.420344
H212	H	0.664104	-0.080078	-0.087011
H213	H	0.997437	0.253256	0.246322
H214	H	0.821270	-0.304507	-0.552883
H215	H	1.154603	0.028826	-0.219550
H216	H	1.487937	0.362160	0.113784
H217	H	0.529269	-0.498217	-0.393666
H218	H	0.862602	-0.164884	-0.060333
H219	H	1.195935	0.168449	0.273001
H220	H	0.450194	-0.389224	-0.214571
H221	H	0.783527	-0.055891	0.118762
H222	H	1.116860	0.277443	0.452095
H223	H	0.992217	-0.413063	-0.758937
H224	H	1.325550	-0.079730	-0.425603
H225	H	1.658883	0.253603	-0.092270
H226	H	0.132988	-0.304379	-0.241301
H227	H	0.466321	0.028954	0.092032
H228	H	0.799654	0.362288	0.425365
H229	H	0.788290	-0.389262	-0.757888
H230	H	1.121623	-0.055928	-0.424555
H231	H	1.454956	0.277405	-0.091222
H232	H	0.788296	-0.389227	-0.876599
H233	H	1.121630	-0.055894	-0.543266
H234	H	1.454963	0.277439	-0.209932
H235	H	0.244342	-0.498146	-0.393766
H236	H	0.577675	-0.164813	-0.060432
H237	H	0.911009	0.168520	0.272901
H238	H	0.821289	-0.304390	-0.956515
H239	H	1.154622	0.028943	-0.623182
H240	H	1.487955	0.362277	-0.289848
H241	H	0.821285	-0.304371	-1.075221
H242	H	1.154618	0.028962	-0.741888
H243	H	1.487951	0.362295	-0.408555
H244	H	0.959231	-0.497836	-0.963947
H245	H	1.292564	-0.164502	-0.630613
H246	H	1.625897	0.168831	-0.297280
H247	H	0.992220	-0.413034	-0.877640
H248	H	1.325553	-0.079700	-0.544307
H249	H	1.658887	0.253633	-0.210974
H250	H	0.959216	-0.497913	-0.679023
H251	H	1.292549	-0.164580	-0.345690
H252	H	1.625882	0.168754	-0.012357
H253	H	0.959210	-0.497957	-0.560311
H254	H	1.292544	-0.164624	-0.226978
H255	H	1.625877	0.168709	0.106355
H256	H	0.449481	-0.413448	-0.420304
H257	H	0.782815	-0.080115	-0.086971
H258	H	1.116148	0.253219	0.246363
H259	H	0.647974	-0.498256	-0.393621
H260	H	0.981307	-0.164923	-0.060287
H261	H	1.314640	0.168410	0.273046
H262	H	0.331490	-0.389200	-0.214614
H263	H	0.664823	-0.055867	0.118719
H264	H	0.998157	0.277466	0.452053
H265	H	0.125637	-0.498105	-0.393812
H266	H	0.458970	-0.164771	-0.060479
H267	H	0.792303	0.168562	0.272855
H268	H	0.251697	-0.304414	-0.241256
H269	H	0.585030	0.028920	0.092077
H270	H	0.918363	0.362253	0.425411
H271	H	0.536620	-0.304489	-0.241161
H272	H	0.869953	0.028844	0.092172
H273	H	1.203287	0.362177	0.425505
