data_functionalizedCrystal
_audit_creation_method	'MofGen! by Chris Wilmer'
_symmetry_space_group_name_H-M	'P1'
_symmetry_Int_Tables_number	1
_symmetry_cell_setting	triclinic
loop_
_symmetry_equiv_pos_as_xyz
  x,y,z
_cell_length_a	15.995350
_cell_length_b	26.210047
_cell_length_c	15.995350
_cell_angle_alpha	90.006733
_cell_angle_beta	96.507625
_cell_angle_gamma	90.005390
loop_
_atom_site_label
_atom_site_type_symbol
_atom_site_fract_x
_atom_site_fract_y
_atom_site_fract_z
O1	O	1.110992	0.042383	-0.107915
O2	O	1.610992	0.542383	0.392085
O3	O	0.867217	0.042393	-0.121242
O4	O	1.367217	0.542393	0.378758
O5	O	0.995769	0.042388	0.007309
O6	O	1.495769	0.542388	0.507309
O7	O	0.982441	0.042389	-0.236466
O8	O	1.482441	0.542389	0.263534
O9	O	0.995744	-0.042470	0.007289
O10	O	1.495744	0.457530	0.507289
O11	O	0.867192	-0.042465	-0.121262
O12	O	1.367192	0.457535	0.378738
O13	O	1.110968	-0.042475	-0.107935
O14	O	1.610968	0.457525	0.392065
Cu15	Cu	0.989078	-0.050218	-0.114600
Cu16	Cu	1.489078	0.449782	0.385400
Cu17	Cu	0.989107	0.050137	-0.114577
Cu18	Cu	1.489107	0.550137	0.385423
O19	O	0.982416	-0.042469	-0.236486
O20	O	1.482416	0.457531	0.263514
C21	C	0.836010	-0.000034	-0.120701
C22	C	1.336010	0.499966	0.379299
C23	C	0.743060	-0.000030	-0.119049
C24	C	1.243060	0.499970	0.380951
N25	N	0.989063	-0.120802	-0.114616
N26	N	1.489063	0.379198	0.385384
C27	C	0.405312	-0.000041	-0.113117
C28	C	0.905312	0.499959	0.386883
C29	C	0.452746	-0.000231	-0.021565
C30	C	0.952746	0.499769	0.478435
C31	C	0.549436	-0.000036	-0.023217
C32	C	1.049436	0.499964	0.476783
C33	C	0.572873	-0.000036	-0.116060
C34	C	1.072873	0.499964	0.383940
C35	C	0.531800	0.048420	-0.161205
C36	C	1.031800	0.548420	0.338795
C37	C	0.435164	0.048457	-0.158905
C38	C	0.935164	0.548457	0.341095
C39	C	0.434797	-0.048042	-0.160819
C40	C	0.934797	0.451958	0.339181
C41	C	0.531742	-0.048679	-0.160798
C42	C	1.031742	0.451321	0.339202
C43	C	0.667570	-0.000031	-0.117727
C44	C	1.167570	0.499969	0.382273
C45	C	0.310614	-0.000042	-0.111452
C46	C	0.810614	0.499958	0.388548
C47	C	1.046024	-0.473319	-0.057667
C48	C	1.546024	0.026681	0.442333
C49	C	1.046042	-0.686977	-0.057655
C50	C	1.546042	-0.186977	0.442345
O51	O	1.094440	-0.714601	-0.009238
O52	O	1.594440	-0.214601	0.490762
N53	N	0.989111	-0.713696	-0.114558
N54	N	1.489111	-0.213696	0.385442
C55	C	0.932168	-0.686997	-0.171464
C56	C	1.432168	-0.186997	0.328536
O57	O	0.883740	-0.714625	-0.219858
O58	O	1.383740	-0.214625	0.280142
C59	C	0.932147	-0.473339	-0.171471
C60	C	1.432147	0.026661	0.328529
C61	C	0.989087	-0.446623	-0.114570
C62	C	1.489087	0.053377	0.385430
C63	C	1.102959	-0.446603	-0.000770
C64	C	1.602959	0.053397	0.499230
C65	C	1.102957	-0.393191	-0.000776
C66	C	1.602957	0.106809	0.499224
C67	C	1.046020	-0.366496	-0.057680
C68	C	1.546020	0.133504	0.442320
C69	C	0.989085	-0.393212	-0.114577
C70	C	1.489085	0.106788	0.385423
C71	C	0.875200	-0.446641	-0.228373
C72	C	1.375200	0.053359	0.271627
C73	C	0.875198	-0.393223	-0.228368
C74	C	1.375198	0.106777	0.271632
C75	C	0.932139	-0.366507	-0.171467
C76	C	1.432139	0.133493	0.328533
C77	C	0.932146	-0.313105	-0.171487
C78	C	1.432146	0.186895	0.328513
N79	N	0.989076	-0.286386	-0.114584
N80	N	1.489076	0.213614	0.385416
C81	C	1.046013	-0.313081	-0.057680
C82	C	1.546013	0.186919	0.442320
C83	C	0.932185	-0.799170	-0.171458
C84	C	1.432185	-0.299170	0.328542
C85	C	0.932191	-0.852584	-0.171457
C86	C	1.432191	-0.352584	0.328543
C87	C	1.046064	-0.852561	-0.057647
C88	C	1.546064	-0.352561	0.442353
C89	C	1.046061	-0.799146	-0.057652
C90	C	1.546061	-0.299146	0.442348
C91	C	0.989116	-0.772451	-0.114555
C92	C	1.489116	-0.272451	0.385445
C93	C	1.046005	-0.200914	-0.057699
C94	C	1.546005	0.299086	0.442301
C95	C	1.046000	-0.147497	-0.057713
C96	C	1.546000	0.352503	0.442287
C97	C	0.932125	-0.147525	-0.171520
C98	C	1.432125	0.352475	0.328480
C99	C	0.932132	-0.200937	-0.171509
C100	C	1.432132	0.299063	0.328491
C101	C	0.989075	-0.227630	-0.114592
C102	C	1.489075	0.272370	0.385408
O103	O	0.883767	-0.285448	-0.219872
O104	O	1.383767	0.214552	0.280128
O105	O	1.094422	-0.285444	-0.009282
O106	O	1.594422	0.214556	0.490718
C107	C	1.046026	-0.526730	-0.057660
C108	C	1.546026	-0.026730	0.442340
C109	C	0.989091	-0.553446	-0.114557
C110	C	1.489091	-0.053446	0.385443
C111	C	0.932154	-0.526750	-0.171461
C112	C	1.432154	-0.026750	0.328539
C113	C	0.989097	-0.606860	-0.114557
C114	C	1.489097	-0.106860	0.385443
C115	C	1.046034	-0.633556	-0.057653
C116	C	1.546034	-0.133556	0.442347
C117	C	1.102965	-0.606837	-0.000750
C118	C	1.602965	-0.106837	0.499250
C119	C	1.102963	-0.553425	-0.000757
C120	C	1.602963	-0.053425	0.499243
C121	C	0.875223	-0.553469	-0.228364
C122	C	1.375223	-0.053469	0.271636
C123	C	0.875231	-0.606881	-0.228353
C124	C	1.375231	-0.106881	0.271647
C125	C	0.932168	-0.633576	-0.171450
C126	C	1.432168	-0.133576	0.328550
C127	C	1.142175	-0.000046	-0.108476
C128	C	1.642175	0.499954	0.391524
C129	C	1.235125	-0.000047	-0.110127
C130	C	1.735125	0.499953	0.389873
C131	C	0.995205	-0.000040	0.038494
C132	C	1.495205	0.499960	0.538494
C133	C	0.993553	-0.000038	0.131444
C134	C	1.493553	0.499962	0.631444
N135	N	0.989128	0.120720	-0.114554
N136	N	1.489128	0.620720	0.385446
C137	C	0.982980	-0.000040	-0.267671
C138	C	1.482980	0.499960	0.232329
C139	C	0.984631	-0.000039	-0.360621
C140	C	1.484631	0.499961	0.139379
C141	C	0.987621	-0.000039	0.469192
C142	C	1.487621	0.499961	0.969192
C143	C	0.896069	0.000155	0.421758
C144	C	1.396069	0.500155	0.921758
C145	C	0.897721	-0.000036	0.325068
C146	C	1.397721	0.499964	0.825068
C147	C	0.990564	-0.000038	0.301631
C148	C	1.490564	0.499962	0.801631
C149	C	1.035706	-0.048497	0.342697
C150	C	1.535706	0.451503	0.842697
C151	C	1.033406	-0.048538	0.439333
C152	C	1.533406	0.451462	0.939333
C153	C	1.035326	0.047962	0.439714
C154	C	1.535326	0.547962	0.939714
C155	C	1.035304	0.048602	0.342769
C156	C	1.535304	0.548602	0.842769
C157	C	0.992231	-0.000039	0.206934
C158	C	1.492231	0.499961	0.706934
C159	C	0.985956	-0.000041	0.563890
C160	C	1.485956	0.499959	1.063890
H161	H	0.577855	-0.034772	0.012270
H162	H	1.077855	0.465228	0.512270
H163	H	0.859629	-0.034399	0.441344
H164	H	1.359629	0.465601	0.941344
H165	H	1.149320	-0.371442	0.045559
H166	H	1.649320	0.128558	0.545559
H167	H	1.149329	-0.628581	0.045580
H168	H	1.649329	-0.128581	0.545580
H169	H	0.859487	0.034906	0.440298
H170	H	1.359487	0.534906	0.940298
H171	H	0.559048	-0.084527	-0.127842
H172	H	1.059048	0.415473	0.372158
H173	H	0.828865	-0.628629	-0.274696
H174	H	1.328865	-0.128629	0.225304
H175	H	0.828857	-0.531738	-0.274700
H176	H	1.328857	-0.031738	0.225300
H177	H	0.861976	-0.034830	0.297195
H178	H	1.361976	0.465170	0.797195
H179	H	0.862235	0.034701	0.296654
H180	H	1.362235	0.534701	0.796654
H181	H	1.092371	-0.125747	-0.011377
H182	H	1.592371	0.374253	0.488623
H183	H	0.414251	-0.084771	-0.130897
H184	H	0.914251	0.415229	0.369103
H185	H	1.149324	-0.468333	0.045572
H186	H	1.649324	0.031667	0.545572
H187	H	0.885769	-0.125781	-0.217853
H188	H	1.385769	0.374219	0.282147
H189	H	0.433162	0.034327	0.014870
H190	H	0.933162	0.534327	0.514870
H191	H	0.434214	-0.034981	0.015022
H192	H	0.934214	0.465019	0.515022
H193	H	1.002299	0.084451	0.315529
H194	H	1.502299	0.584451	0.815529
H195	H	1.103009	0.051527	0.327408
H196	H	1.603009	0.551527	0.827408
H197	H	1.000467	-0.084760	0.457626
H198	H	1.500467	0.415240	0.957626
H199	H	0.403035	-0.048370	-0.228320
H200	H	0.903035	0.451630	0.271680
H201	H	1.100622	-0.050737	0.471581
H202	H	1.600622	0.449263	0.971581
H203	H	0.828824	-0.371491	-0.274704
H204	H	1.328824	0.128509	0.225296
H205	H	1.092426	-0.777397	-0.011318
H206	H	1.592426	-0.277397	0.488682
H207	H	0.416866	0.084680	-0.125966
H208	H	0.916866	0.584680	0.374034
H209	H	1.103914	-0.050301	0.328571
H210	H	1.603914	0.449699	0.828571
H211	H	1.149329	-0.531677	0.045577
H212	H	1.649329	-0.031677	0.545577
H213	H	1.092426	-0.874305	-0.011315
H214	H	1.592426	-0.374305	0.488685
H215	H	0.577304	0.034760	0.012526
H216	H	1.077304	0.534760	0.512526
H217	H	1.102827	0.048286	0.471475
H218	H	1.602827	0.548286	0.971475
H219	H	1.004332	-0.084557	0.314307
H220	H	1.504332	0.415443	0.814307
H221	H	1.005404	0.084691	0.460262
H222	H	1.505404	0.584691	0.960262
H223	H	0.545925	0.050222	-0.229413
H224	H	1.045925	0.550222	0.270587
H225	H	0.560185	0.084483	-0.129832
H226	H	1.060185	0.584483	0.370168
H227	H	0.402916	0.050656	-0.226120
H228	H	0.902916	0.550656	0.273880
H229	H	0.547106	-0.051606	-0.228502
H230	H	1.047106	0.448394	0.271498
H231	H	0.885774	-0.222689	-0.217851
H232	H	1.385774	0.277311	0.282149
H233	H	0.885834	-0.874332	-0.217800
H234	H	1.385834	-0.374332	0.282200
H235	H	1.092373	-0.222641	-0.011351
H236	H	1.592373	0.277359	0.488649
H237	H	0.885812	-0.777439	-0.217797
H238	H	1.385812	-0.277439	0.282203
H239	H	0.828834	-0.468385	-0.274706
H240	H	1.328834	0.031615	0.225294
