data_functionalizedCrystal
_audit_creation_method	'MofGen! by Chris Wilmer'
_symmetry_space_group_name_H-M	'P1'
_symmetry_Int_Tables_number	1
_symmetry_cell_setting	triclinic
loop_
_symmetry_equiv_pos_as_xyz
  x,y,z
_cell_length_a	14.908571
_cell_length_b	25.639239
_cell_length_c	25.639233
_cell_angle_alpha	89.981253
_cell_angle_beta	86.694652
_cell_angle_gamma	86.734636
loop_
_atom_site_label
_atom_site_type_symbol
_atom_site_fract_x
_atom_site_fract_y
_atom_site_fract_z
Zn1	Zn	1.379014	-0.254413	-0.341651
Zn2	Zn	1.712348	0.078920	-0.008318
Zn3	Zn	2.045681	0.412253	0.325016
Zn4	Zn	1.378882	-0.341828	-0.254211
Zn5	Zn	1.712216	-0.008494	0.079122
Zn6	Zn	2.045549	0.324839	0.412456
Zn7	Zn	1.228170	-0.249359	-0.249193
Zn8	Zn	1.561503	0.083974	0.084140
Zn9	Zn	1.894837	0.417308	0.417473
Zn10	Zn	1.228075	-0.336763	-0.336580
Zn11	Zn	1.561409	-0.003430	-0.003247
Zn12	Zn	1.894742	0.329904	0.330086
O13	O	1.303535	-0.295591	-0.295409
O14	O	1.636869	0.037742	0.037924
O15	O	1.970202	0.371076	0.371258
O16	O	1.505239	-0.270244	-0.334274
O17	O	1.838572	0.063089	-0.000941
O18	O	2.171906	0.396423	0.332393
O19	O	1.358874	-0.329566	-0.180380
O20	O	1.692208	0.003767	0.152954
O21	O	2.025541	0.337101	0.486287
O22	O	1.248275	-0.176868	-0.261480
O23	O	1.581608	0.156466	0.071853
O24	O	1.914941	0.489799	0.405186
O25	O	1.505142	-0.334467	-0.270032
O26	O	1.838475	-0.001134	0.063301
O27	O	2.171809	0.332200	0.396635
O28	O	1.359099	-0.180581	-0.329409
O29	O	1.692433	0.152752	0.003925
O30	O	2.025766	0.486086	0.337258
O31	O	1.248147	-0.261630	-0.176693
O32	O	1.581480	0.071704	0.156640
O33	O	1.914813	0.405037	0.489973
O34	O	1.101915	-0.256719	-0.256563
O35	O	1.435249	0.076615	0.076770
O36	O	1.768582	0.409948	0.410103
O37	O	1.248113	-0.325835	-0.410419
O38	O	1.581447	0.007499	-0.077085
O39	O	1.914780	0.340832	0.256248
O40	O	1.101846	-0.320934	-0.320766
O41	O	1.435179	0.012400	0.012567
O42	O	1.768512	0.345733	0.345900
O43	O	1.359008	-0.265333	-0.414144
O44	O	1.692341	0.068000	-0.080811
O45	O	2.025674	0.401334	0.252522
O46	O	1.358783	-0.414318	-0.265115
O47	O	1.692116	-0.080985	0.068218
O48	O	2.025449	0.252349	0.401551
O49	O	1.247985	-0.410597	-0.325632
O50	O	1.581319	-0.077264	0.007702
O51	O	1.914652	0.256070	0.341035
C52	C	1.069147	-0.287729	-0.287571
C53	C	1.402481	0.045605	0.045763
C54	C	1.735814	0.378938	0.379096
C55	C	0.968875	-0.284378	-0.284230
C56	C	1.302209	0.048956	0.049104
C57	C	1.635542	0.382289	0.382437
C58	C	0.780429	-0.345052	-0.344716
C59	C	1.113762	-0.011718	-0.011383
C60	C	1.447096	0.321615	0.321950
C61	C	0.686214	-0.341905	-0.341579
C62	C	1.019547	-0.008572	-0.008246
C63	C	1.352881	0.324762	0.325088
C64	C	0.686229	-0.274935	-0.274821
C65	C	1.019563	0.058399	0.058513
C66	C	1.352896	0.391732	0.391846
C67	C	0.780444	-0.278081	-0.277958
C68	C	1.113777	0.055252	0.055375
C69	C	1.447111	0.388585	0.388709
C70	C	0.827540	-0.313142	-0.312906
C71	C	1.160874	0.020192	0.020427
C72	C	1.494207	0.353525	0.353760
C73	C	0.921757	-0.316291	-0.316041
C74	C	1.255090	0.017042	0.017293
C75	C	1.588424	0.350376	0.350626
C76	C	0.921770	-0.249318	-0.249285
C77	C	1.255104	0.084015	0.084048
C78	C	1.588437	0.417348	0.417381
C79	C	0.827556	-0.246171	-0.246148
C80	C	1.160889	0.087162	0.087185
C81	C	1.494222	0.420495	0.420518
C82	C	1.303384	-0.431428	-0.295380
C83	C	1.636717	-0.098095	0.037953
C84	C	1.970050	0.235238	0.371287
C85	C	1.303401	-0.489543	-0.295388
C86	C	1.636735	-0.156210	0.037946
C87	C	1.970068	0.177124	0.371279
C88	C	1.361378	-0.851841	-0.263960
C89	C	1.694711	-0.518507	0.069373
C90	C	2.028045	-0.185174	0.402707
C91	C	1.361413	-0.906446	-0.263968
C92	C	1.694746	-0.573113	0.069365
C93	C	2.028080	-0.239779	0.402698
O94	O	1.410550	-0.936322	-0.237216
O95	O	1.743883	-0.602989	0.096118
O96	O	2.077216	-0.269656	0.429451
N97	N	1.303694	-0.931835	-0.295449
N98	N	1.637027	-0.598502	0.037884
N99	N	1.970361	-0.265169	0.371218
C100	C	1.245943	-0.902616	-0.326927
C101	C	1.579276	-0.569283	0.006406
C102	C	1.912609	-0.235949	0.339739
O103	O	1.196852	-0.929226	-0.353705
O104	O	1.530185	-0.595892	-0.020372
O105	O	1.863519	-0.262559	0.312961
C106	C	1.245913	-0.848012	-0.326922
C107	C	1.579246	-0.514679	0.006412
C108	C	1.912580	-0.181345	0.339745
C109	C	1.303629	-0.822625	-0.295435
C110	C	1.636963	-0.489292	0.037898
C111	C	1.970296	-0.155959	0.371232
C112	C	1.419091	-0.826454	-0.232476
C113	C	1.752424	-0.493121	0.100857
C114	C	2.085757	-0.159787	0.434190
C115	C	1.419054	-0.771852	-0.232468
C116	C	1.752387	-0.438519	0.100866
C117	C	2.085721	-0.105186	0.434199
C118	C	1.361305	-0.742637	-0.263943
C119	C	1.694639	-0.409304	0.069391
C120	C	2.027972	-0.075970	0.402724
C121	C	1.303593	-0.768024	-0.295426
C122	C	1.636926	-0.434690	0.037907
C123	C	1.970260	-0.101357	0.371240
C124	C	1.188167	-0.818794	-0.358403
C125	C	1.521500	-0.485461	-0.025069
C126	C	1.854834	-0.152127	0.308264
C127	C	1.188143	-0.764186	-0.358395
C128	C	1.521476	-0.430853	-0.025061
C129	C	1.854809	-0.097519	0.308272
C130	C	1.245859	-0.738800	-0.326908
C131	C	1.579192	-0.405466	0.006426
C132	C	1.912526	-0.072133	0.339759
C133	C	1.245808	-0.684207	-0.326892
C134	C	1.579141	-0.350873	0.006441
C135	C	1.912475	-0.017540	0.339774
N136	N	1.303527	-0.658818	-0.295412
N137	N	1.636860	-0.325484	0.037922
N138	N	1.970194	0.007849	0.371255
C139	C	1.361276	-0.688033	-0.263937
C140	C	1.694609	-0.354699	0.069397
C141	C	2.027942	-0.021366	0.402730
C142	C	1.246011	-1.017289	-0.326938
C143	C	1.579344	-0.683956	0.006396
C144	C	1.912677	-0.350622	0.339729
C145	C	1.246035	-1.071892	-0.326941
C146	C	1.579369	-0.738559	0.006392
C147	C	1.912702	-0.405226	0.339726
C148	C	1.361507	-1.075718	-0.263982
C149	C	1.694840	-0.742385	0.069351
C150	C	2.028174	-0.409052	0.402684
C151	C	1.361477	-1.021114	-0.263977
C152	C	1.694811	-0.687781	0.069357
C153	C	2.028144	-0.354447	0.402690
C154	C	1.303730	-0.991900	-0.295457
C155	C	1.637063	-0.658567	0.037876
C156	C	1.970396	-0.325233	0.371210
C157	C	1.361194	-0.573365	-0.263920
C158	C	1.694528	-0.240032	0.069413
C159	C	2.027861	0.093302	0.402746
C160	C	1.361150	-0.518758	-0.263913
C161	C	1.694483	-0.185425	0.069420
C162	C	2.027817	0.147909	0.402754
C163	C	1.245682	-0.514937	-0.326873
C164	C	1.579016	-0.181604	0.006460
C165	C	1.912349	0.151730	0.339793
C166	C	1.245723	-0.569539	-0.326879
C167	C	1.579056	-0.236205	0.006454
C168	C	1.912389	0.097128	0.339788
C169	C	1.303486	-0.598752	-0.295401
C170	C	1.636819	-0.265418	0.037932
C171	C	1.970153	0.067915	0.371266
O172	O	1.196699	-0.654297	-0.353633
O173	O	1.530032	-0.320963	-0.020300
O174	O	1.863366	0.012370	0.313034
O175	O	1.410366	-0.661417	-0.237169
O176	O	1.743700	-0.328083	0.096165
O177	O	2.077033	0.005250	0.429498
C178	C	1.538839	-0.303484	-0.303278
C179	C	1.872172	0.029849	0.030055
C180	C	2.205505	0.363182	0.363388
C181	C	1.639111	-0.306848	-0.306632
C182	C	1.972444	0.026485	0.026702
C183	C	2.305778	0.359819	0.360035
C184	C	1.303565	-0.295583	-0.431783
C185	C	1.636898	0.037751	-0.098450
C186	C	1.970231	0.371084	0.234884
C187	C	1.303577	-0.295579	-0.489897
C188	C	1.636910	0.037754	-0.156564
C189	C	1.970244	0.371087	0.176769
C190	C	1.303712	-0.159224	-0.295450
C191	C	1.637046	0.174110	0.037883
C192	C	1.970379	0.507443	0.371216
C193	C	1.303788	-0.101112	-0.295468
C194	C	1.637121	0.232221	0.037865
C195	C	1.970454	0.565554	0.371199
C196	C	1.361393	-0.263979	-0.852209
C197	C	1.694726	0.069354	-0.518875
C198	C	2.028060	0.402688	-0.185542
C199	C	1.361404	-0.263965	-0.906813
C200	C	1.694737	0.069368	-0.573480
C201	C	2.028071	0.402702	-0.240147
O202	O	1.410488	-0.237156	-0.936704
O203	O	1.743822	0.096177	-0.603370
O204	O	2.077155	0.429510	-0.270037
N205	N	1.303676	-0.295460	-0.932183
N206	N	1.637010	0.037873	-0.598850
N207	N	1.970343	0.371207	-0.265517
C208	C	1.245928	-0.326967	-0.902946
C209	C	1.579261	0.006366	-0.569612
C210	C	1.912594	0.339700	-0.236279
O211	O	1.196826	-0.353754	-0.929539
O212	O	1.530160	-0.020421	-0.596206
O213	O	1.863493	0.312912	-0.262872
C214	C	1.245913	-0.326978	-0.848342
C215	C	1.579246	0.006355	-0.515009
C216	C	1.912579	0.339689	-0.181675
C217	C	1.303650	-0.295485	-0.822975
C218	C	1.636984	0.037848	-0.489642
C219	C	1.970317	0.371182	-0.156308
C220	C	1.419125	-0.232488	-0.826841
C221	C	1.752459	0.100845	-0.493508
C222	C	2.085792	0.434179	-0.160175
C223	C	1.419115	-0.232503	-0.772240
C224	C	1.752448	0.100830	-0.438907
C225	C	2.085782	0.434164	-0.105574
C226	C	1.361372	-0.264009	-0.743007
C227	C	1.694706	0.069324	-0.409673
C228	C	2.028039	0.402658	-0.076340
C229	C	1.303640	-0.295500	-0.768374
C230	C	1.636973	0.037833	-0.435041
C231	C	1.970307	0.371167	-0.101707
C232	C	1.188160	-0.358482	-0.819105
C233	C	1.521493	-0.025149	-0.485772
C234	C	1.854826	0.308185	-0.152438
C235	C	1.188149	-0.358490	-0.764498
C236	C	1.521483	-0.025157	-0.431164
C237	C	1.854816	0.308177	-0.097831
C238	C	1.245887	-0.326997	-0.739131
C239	C	1.579220	0.006336	-0.405797
C240	C	1.912554	0.339670	-0.072464
C241	C	1.245887	-0.327021	-0.684539
C242	C	1.579221	0.006313	-0.351206
C243	C	1.912554	0.339646	-0.017873
N244	N	1.303615	-0.295526	-0.659169
N245	N	1.636948	0.037808	-0.325836
N246	N	1.970282	0.371141	0.007497
C247	C	1.361357	-0.264020	-0.688403
C248	C	1.694691	0.069314	-0.355070
C249	C	2.028024	0.402647	-0.021736
C250	C	1.245962	-0.326941	-1.017618
C251	C	1.579296	0.006392	-0.684284
C252	C	1.912629	0.339726	-0.350951
C253	C	1.245981	-0.326933	-1.072221
C254	C	1.579315	0.006400	-0.738887
C255	C	1.912648	0.339733	-0.405554
C256	C	1.361457	-0.263930	-1.076084
C257	C	1.694790	0.069403	-0.742751
C258	C	2.028123	0.402736	-0.409418
C259	C	1.361442	-0.263941	-1.021480
C260	C	1.694775	0.069392	-0.688147
C261	C	2.028108	0.402726	-0.354814
C262	C	1.303690	-0.295446	-0.992247
C263	C	1.637023	0.037887	-0.658914
C264	C	1.970357	0.371221	-0.325581
C265	C	1.361332	-0.264054	-0.573737
C266	C	1.694666	0.069279	-0.240404
C267	C	2.027999	0.402613	0.092930
C268	C	1.361320	-0.264073	-0.519131
C269	C	1.694653	0.069260	-0.185798
C270	C	2.027986	0.402593	0.147536
C271	C	1.245841	-0.327074	-0.515272
C272	C	1.579174	0.006259	-0.181939
C273	C	1.912508	0.339593	0.151395
C274	C	1.245857	-0.327057	-0.569873
C275	C	1.579190	0.006276	-0.236540
C276	C	1.912523	0.339610	0.096793
C277	C	1.303605	-0.295543	-0.599104
C278	C	1.636939	0.037791	-0.265771
C279	C	1.970272	0.371124	0.067562
O280	O	1.196826	-0.353814	-0.654615
O281	O	1.530159	-0.020481	-0.321282
O282	O	1.863492	0.312853	0.012052
O283	O	1.410442	-0.237232	-0.661802
O284	O	1.743775	0.096102	-0.328469
O285	O	2.077109	0.429435	0.004864
C286	C	1.303558	-0.295563	-0.159567
C287	C	1.636892	0.037770	0.173766
C288	C	1.970225	0.371104	0.507099
C289	C	1.303721	-0.295425	-0.101459
C290	C	1.637054	0.037908	0.231874
C291	C	1.970388	0.371242	0.565208
H292	H	1.408150	-0.498090	-0.238271
H293	H	1.741483	-0.164757	0.095063
H294	H	2.074816	0.168576	0.428396
N295	N	1.423738	-0.993734	-0.230024
N296	N	1.757071	-0.660400	0.103309
N297	N	2.090404	-0.327067	0.436643
H298	H	1.387099	-0.969881	-0.204548
H299	H	1.720432	-0.636548	0.128785
H300	H	2.053766	-0.303214	0.462118
H301	H	1.460311	-1.020564	-0.210122
H302	H	1.793644	-0.687230	0.123212
H303	H	2.126977	-0.353897	0.456545
N304	N	1.423601	-0.230106	-0.491773
N305	N	1.756934	0.103227	-0.158440
N306	N	2.090267	0.436561	0.174894
H307	H	1.409641	-0.192278	-0.500810
H308	H	1.742974	0.141056	-0.167477
H309	H	2.076307	0.474389	0.165857
H310	H	1.414809	-0.234939	-0.452754
H311	H	1.748143	0.098394	-0.119421
H312	H	2.081476	0.431728	0.213913
N313	N	1.423795	-1.107234	-0.230033
N314	N	1.757129	-0.773901	0.103300
N315	N	2.090462	-0.440568	0.436634
H316	H	1.415053	-1.145677	-0.234818
H317	H	1.748387	-0.812344	0.098515
H318	H	2.081720	-0.479010	0.431849
H319	H	1.488210	-1.099809	-0.240354
H320	H	1.821544	-0.766475	0.092979
H321	H	2.154877	-0.433142	0.426312
N322	N	1.423715	-0.229974	-0.994122
N323	N	1.757048	0.103359	-0.660789
N324	N	2.090382	0.436692	-0.327456
H325	H	1.460296	-0.210017	-1.020932
H326	H	1.793629	0.123317	-0.687599
H327	H	2.126962	0.456650	-0.354266
H328	H	1.387022	-0.204549	-0.970244
H329	H	1.720355	0.128784	-0.636911
H330	H	2.053689	0.462117	-0.303578
N331	N	0.635399	-0.376323	-0.375887
N332	N	0.968732	-0.042989	-0.042553
N333	N	1.302065	0.290344	0.290780
H334	H	0.679534	-0.399010	-0.398500
H335	H	1.012867	-0.065676	-0.065167
H336	H	1.346200	0.267657	0.268166
H337	H	0.596276	-0.399181	-0.353257
H338	H	0.929609	-0.065848	-0.019924
H339	H	1.262943	0.267486	0.313410
N340	N	1.183769	-1.099270	-0.360892
N341	N	1.517102	-0.765937	-0.027559
N342	N	1.850436	-0.432603	0.305775
H343	H	1.147182	-1.072471	-0.380827
H344	H	1.480515	-0.739138	-0.047494
H345	H	1.813848	-0.405805	0.285840
H346	H	1.220469	-1.123122	-0.386339
H347	H	1.553802	-0.789789	-0.053005
H348	H	1.887136	-0.456456	0.280328
N349	N	1.183715	-0.985781	-0.360889
N350	N	1.517048	-0.652447	-0.027556
N351	N	1.850381	-0.319114	0.305778
H352	H	1.147157	-1.010154	-0.380829
H353	H	1.480491	-0.676821	-0.047496
H354	H	1.813824	-0.343488	0.285837
H355	H	1.141977	-0.961762	-0.338189
H356	H	1.475310	-0.628428	-0.004855
H357	H	1.808643	-0.295095	0.328478
N358	N	1.125910	-0.846166	-0.392361
N359	N	1.459244	-0.512833	-0.059028
N360	N	1.792577	-0.179499	0.274306
H361	H	1.089331	-0.819365	-0.412297
H362	H	1.422664	-0.486032	-0.078964
H363	H	1.755997	-0.152699	0.254369
H364	H	1.162613	-0.870019	-0.417806
H365	H	1.495946	-0.536685	-0.084473
H366	H	1.829280	-0.203352	0.248860
N367	N	1.481322	-0.744477	-0.198516
N368	N	1.814655	-0.411143	0.134817
N369	N	2.147988	-0.077810	0.468151
H370	H	1.444691	-0.720625	-0.173036
H371	H	1.778024	-0.387292	0.160298
H372	H	2.111358	-0.053958	0.493631
H373	H	1.517896	-0.771310	-0.178619
H374	H	1.851229	-0.437977	0.154715
H375	H	2.184562	-0.104644	0.488048
H376	H	1.198831	-0.352727	-0.491460
H377	H	1.532165	-0.019394	-0.158127
H378	H	1.865498	0.313940	0.175206
N379	N	1.481383	-0.857960	-0.198526
N380	N	1.814716	-0.524626	0.134807
N381	N	2.148050	-0.191293	0.468140
H382	H	1.517933	-0.833583	-0.178584
H383	H	1.851266	-0.500250	0.154749
H384	H	2.184599	-0.166917	0.488083
H385	H	1.444703	-0.879415	-0.173086
H386	H	1.778036	-0.546082	0.160248
H387	H	2.111370	-0.212748	0.493581
H388	H	1.141119	-0.740402	-0.384031
H389	H	1.474452	-0.407069	-0.050698
H390	H	1.807785	-0.073736	0.282635
N391	N	1.423495	-0.604868	-0.229971
N392	N	1.756828	-0.271535	0.103363
N393	N	2.090162	0.061798	0.436696
H394	H	1.460044	-0.580494	-0.210026
H395	H	1.793377	-0.247160	0.123307
H396	H	2.126711	0.086173	0.456640
H397	H	1.386818	-0.626328	-0.204532
H398	H	1.720151	-0.292994	0.128801
H399	H	2.053485	0.040339	0.462135
H400	H	1.198728	-0.590210	-0.352520
H401	H	1.532061	-0.256876	-0.019186
H402	H	1.865395	0.076457	0.314147
H403	H	1.198661	-0.491141	-0.352498
H404	H	1.531994	-0.157808	-0.019165
H405	H	1.865328	0.175525	0.314168
N406	N	0.776749	-0.208367	-0.208451
N407	N	1.110082	0.124967	0.124883
N408	N	1.443415	0.458300	0.458216
H409	H	0.793173	-0.171567	-0.217176
H410	H	1.126506	0.161766	0.116158
H411	H	1.459840	0.495100	0.449491
H412	H	0.709933	-0.211265	-0.211309
H413	H	1.043266	0.122068	0.122024
H414	H	1.376600	0.455402	0.455357
N415	N	1.183718	-0.360904	-1.099582
N416	N	1.517051	-0.027570	-0.766249
N417	N	1.850385	0.305763	-0.432916
H418	H	1.197678	-0.398731	-1.090543
H419	H	1.531012	-0.065398	-0.757210
H420	H	1.864345	0.267935	-0.423877
H421	H	1.119295	-0.350580	-1.087913
H422	H	1.452628	-0.017246	-0.754579
H423	H	1.785962	0.316087	-0.421246
H424	H	1.408354	-0.238390	-0.597531
H425	H	1.741687	0.094943	-0.264197
H426	H	2.075020	0.428277	0.069136
H427	H	1.466129	-0.206857	-0.751592
H428	H	1.799463	0.126476	-0.418258
H429	H	2.132796	0.459810	-0.084925
N430	N	1.481400	-0.198498	-0.858367
N431	N	1.814733	0.134836	-0.525033
N432	N	2.148067	0.468169	-0.191700
H433	H	1.517962	-0.178551	-0.834003
H434	H	1.851295	0.154782	-0.500669
H435	H	2.184629	0.488115	-0.167336
H436	H	1.523135	-0.221170	-0.882415
H437	H	1.856468	0.112163	-0.549082
H438	H	2.189801	0.445497	-0.215748
H439	H	1.408472	-0.238275	-1.099896
H440	H	1.741805	0.095058	-0.766563
H441	H	2.075139	0.428392	-0.433230
N442	N	1.183663	-0.360920	-0.986089
N443	N	1.516997	-0.027587	-0.652756
N444	N	1.850330	0.305747	-0.319422
H445	H	1.147097	-0.380866	-1.010450
H446	H	1.480430	-0.047533	-0.677117
H447	H	1.813764	0.285801	-0.343784
H448	H	1.220334	-0.386355	-0.964654
H449	H	1.553668	-0.053022	-0.631320
H450	H	1.887001	0.280312	-0.297987
H451	H	1.198850	-0.352706	-0.590528
H452	H	1.532184	-0.019373	-0.257195
H453	H	1.865517	0.313960	0.076138
H454	H	0.647867	-0.246387	-0.246371
H455	H	0.981200	0.086946	0.086962
H456	H	1.314534	0.420280	0.420296
N457	N	1.125884	-0.392450	-0.846456
N458	N	1.459217	-0.059116	-0.513123
N459	N	1.792550	0.274217	-0.179790
H460	H	1.089304	-0.412404	-0.819644
H461	H	1.422637	-0.079071	-0.486310
H462	H	1.755970	0.254262	-0.152977
H463	H	1.084166	-0.369761	-0.867717
H464	H	1.417500	-0.036428	-0.534383
H465	H	1.750833	0.296906	-0.201050
N466	N	0.972558	-0.354106	-0.353730
N467	N	1.305891	-0.020773	-0.020397
N468	N	1.639224	0.312560	0.312936
H469	H	0.928413	-0.373842	-0.373406
H470	H	1.261746	-0.040509	-0.040073
H471	H	1.595079	0.292824	0.293261
H472	H	1.011684	-0.334165	-0.379266
H473	H	1.345017	-0.000832	-0.045933
H474	H	1.678350	0.332501	0.287401
N475	N	1.125850	-0.392466	-0.732968
N476	N	1.459184	-0.059133	-0.399634
N477	N	1.792517	0.274201	-0.066301
H478	H	1.089278	-0.412411	-0.757327
H479	H	1.422612	-0.079078	-0.423993
H480	H	1.755945	0.254255	-0.090660
H481	H	1.162526	-0.417902	-0.711536
H482	H	1.495859	-0.084569	-0.378202
H483	H	1.829192	0.248765	-0.044869
N484	N	0.972582	-0.214902	-0.214970
N485	N	1.305916	0.118432	0.118364
N486	N	1.639249	0.451765	0.451697
H487	H	1.039414	-0.222215	-0.222257
H488	H	1.372748	0.111118	0.111076
H489	H	1.706081	0.444451	0.444409
H490	H	0.956156	-0.177023	-0.222624
H491	H	1.289489	0.156311	0.110710
H492	H	1.622823	0.489644	0.444043
H493	H	0.818776	-0.373602	-0.373170
H494	H	1.152109	-0.040269	-0.039836
H495	H	1.485442	0.293065	0.293497
