data_functionalizedCrystal
_audit_creation_method	'MofGen! by Chris Wilmer'
_symmetry_space_group_name_H-M	'P1'
_symmetry_Int_Tables_number	1
_symmetry_cell_setting	triclinic
loop_
_symmetry_equiv_pos_as_xyz
  x,y,z
_cell_length_a	16.109293
_cell_length_b	15.186229
_cell_length_c	10.654550
_cell_angle_alpha	90.002580
_cell_angle_beta	96.028413
_cell_angle_gamma	89.993231
loop_
_atom_site_label
_atom_site_type_symbol
_atom_site_fract_x
_atom_site_fract_y
_atom_site_fract_z
O1	O	-1.104094	0.073296	0.161372
O2	O	-0.862151	0.073282	0.181471
O3	O	-0.988685	0.073286	-0.011394
O4	O	-0.977560	0.073292	0.354236
O5	O	-0.988677	-0.073171	-0.011396
O6	O	-0.862142	-0.073175	0.181468
O7	O	-1.104086	-0.073161	0.161369
Zn8	Zn	-0.983113	-0.096421	0.171418
Zn9	Zn	-0.983124	0.096542	0.171422
O10	O	-0.977551	-0.073165	0.354233
C11	C	-0.831167	0.000052	0.180657
C12	C	-0.738857	0.000047	0.178221
N13	N	-0.983111	-0.228114	0.171415
C14	C	-0.526477	-0.079784	0.172588
C15	C	-0.439743	-0.079784	0.170286
C16	C	-0.439762	0.079892	0.170295
C17	C	-0.526496	0.079890	0.172588
C18	C	-0.569850	0.000050	0.173741
C19	C	-0.396383	0.000052	0.169146
C20	C	-0.302342	0.000053	0.166650
C21	C	-0.663897	0.000048	0.176234
C22	C	-1.039160	-0.453835	0.086043
C23	C	-1.039162	-0.546025	0.086040
C24	C	-0.927077	-0.546037	0.256791
C25	C	-0.927071	-0.453849	0.256786
C26	C	-0.983117	-0.407751	0.171414
C27	C	-0.983126	-0.592128	0.171415
C28	C	-0.983128	-0.692085	0.171413
C29	C	-0.983114	-0.307788	0.171415
C30	C	-0.135069	0.000064	0.162195
C31	C	-0.227376	0.000055	0.164665
C32	C	-0.987864	0.000058	-0.058182
C33	C	-0.985420	0.000061	-0.197592
N34	N	-0.983132	0.228235	0.171415
C35	C	-1.059921	0.000063	-0.278092
C36	C	-1.057620	0.000069	-0.409081
C37	C	-0.906309	0.000068	-0.379058
C38	C	-0.908612	0.000068	-0.248072
C39	C	-1.147280	0.000060	-0.295426
C40	C	-1.144978	0.000066	-0.426415
C41	C	-0.978372	0.000064	0.401022
C42	C	-0.980816	0.000067	0.540432
H43	H	-0.561773	-0.144796	0.173526
C44	C	-1.184856	-0.085368	-0.247802
N45	N	-1.213157	-0.149713	-0.211932
H46	H	-0.404432	-0.144793	0.169347
H47	H	-0.404453	0.144896	0.169358
C48	C	-0.574210	0.167719	0.173849
N49	N	-0.610148	0.233868	0.174794
C50	C	-1.100805	-0.403130	-0.007878
N51	N	-1.147236	-0.364941	-0.078627
H52	H	-1.171383	0.063303	-0.472417
C53	C	-1.100807	-0.596714	-0.007885
N54	N	-1.147238	-0.634892	-0.078638
H55	H	-0.881447	-0.583580	0.326300
C56	C	-0.865455	-0.403154	0.350763
N57	N	-0.819060	-0.364969	0.421562
H58	H	-0.847945	0.000079	-0.182532
C59	C	-0.821824	0.000066	-0.434599
N60	N	-0.758188	0.000060	-0.476431
H61	H	-1.181452	0.061349	-0.266532
H62	H	-1.177890	-0.061223	-0.468625
