data_functionalizedCrystal
_audit_creation_method	'MofGen! by Chris Wilmer'
_symmetry_space_group_name_H-M	'P1'
_symmetry_Int_Tables_number	1
_symmetry_cell_setting	triclinic
loop_
_symmetry_equiv_pos_as_xyz
  x,y,z
_cell_length_a	17.077404
_cell_length_b	25.639240
_cell_length_c	17.077396
_cell_angle_alpha	89.961743
_cell_angle_beta	89.981638
_cell_angle_gamma	90.030728
loop_
_atom_site_label
_atom_site_type_symbol
_atom_site_fract_x
_atom_site_fract_y
_atom_site_fract_z
Zn1	Zn	1.200001	-0.208179	-0.443765
Zn2	Zn	1.199885	-0.295617	-0.312477
Zn3	Zn	1.068733	-0.208194	-0.312516
Zn4	Zn	1.068678	-0.295582	-0.443703
O5	O	1.134324	-0.251893	-0.378115
O6	O	1.309832	-0.219786	-0.426360
O7	O	1.182462	-0.284041	-0.202635
O8	O	1.086217	-0.135027	-0.329969
O9	O	1.309747	-0.284026	-0.329902
O10	O	1.182659	-0.135016	-0.426397
O11	O	1.086105	-0.219811	-0.202664
O12	O	0.958878	-0.219778	-0.329909
O13	O	1.086124	-0.283967	-0.553559
O14	O	0.958838	-0.283982	-0.426291
O15	O	1.182606	-0.219753	-0.553604
O16	O	1.182409	-0.368777	-0.329842
O17	O	1.086012	-0.368752	-0.426254
C18	C	0.930376	-0.251878	-0.378098
C19	C	0.843126	-0.251884	-0.378109
C20	C	0.802181	-0.218494	-0.428411
C21	C	0.720201	-0.218498	-0.428414
C22	C	0.679167	-0.251894	-0.378120
C23	C	0.720118	-0.285286	-0.327812
C24	C	0.802097	-0.285280	-0.327805
C25	C	0.549248	-0.285298	-0.327832
C26	C	0.467263	-0.285305	-0.327840
C27	C	0.467352	-0.218516	-0.428441
C28	C	0.549331	-0.218509	-0.428434
C29	C	0.590276	-0.251902	-0.378127
C30	C	1.134213	-0.387736	-0.378054
C31	C	1.134238	-0.445850	-0.378054
C32	C	1.184566	-0.806168	-0.428416
C33	C	1.184590	-0.860773	-0.428432
O34	O	1.227249	-0.888972	-0.471189
N35	N	1.134433	-0.888132	-0.378191
C36	C	1.084244	-0.860884	-0.327937
O37	O	1.041584	-0.889169	-0.285205
C38	C	1.084218	-0.806281	-0.327925
C39	C	1.134383	-0.778924	-0.378164
C40	C	1.234727	-0.778812	-0.478651
C41	C	1.234705	-0.724211	-0.478634
C42	C	1.184522	-0.696967	-0.428382
C43	C	1.134361	-0.724324	-0.378147
C44	C	1.034026	-0.779034	-0.277675
C45	C	1.034003	-0.724427	-0.277669
C46	C	1.084169	-0.697071	-0.327907
C47	C	1.084156	-0.642479	-0.327877
N48	N	1.134312	-0.615120	-0.378118
C49	C	1.184495	-0.642364	-0.428371
C50	C	1.084303	-0.975555	-0.327966
C51	C	1.084333	-1.030157	-0.327972
C52	C	1.184677	-1.030042	-0.428469
C53	C	1.184651	-0.975439	-0.428458
C54	C	1.134460	-0.948196	-0.378206
C55	C	1.184445	-0.527699	-0.428330
C56	C	1.184421	-0.473094	-0.428306
C57	C	1.084074	-0.473214	-0.327813
C58	C	1.084101	-0.527814	-0.327833
C59	C	1.134289	-0.555056	-0.378099
O60	O	1.041516	-0.614245	-0.285145
O61	O	1.227141	-0.614072	-0.471102
C62	C	1.339068	-0.251908	-0.378134
C63	C	1.426318	-0.251915	-0.378141
C64	C	1.134372	-0.251855	-0.582860
C65	C	1.134392	-0.251838	-0.670110
C66	C	1.134457	-0.115520	-0.378194
C67	C	1.134513	-0.057406	-0.378228
C68	C	1.184632	-0.218399	-0.711125
C69	C	1.184641	-0.218381	-0.793105
C70	C	1.134414	-0.251806	-0.834069
C71	C	1.084168	-0.285247	-0.793048
C72	C	1.084156	-0.285262	-0.711069
C73	C	1.084200	-0.285216	-0.963918
C74	C	1.084214	-0.285202	-1.045903
C75	C	1.184686	-0.218335	-1.045955
C76	C	1.184673	-0.218350	-0.963976
C77	C	1.134428	-0.251792	-0.922960
C78	C	1.134322	-0.251894	-0.174168
C79	C	1.134454	-0.251763	-0.086918
H80	H	0.686702	-0.312476	-0.286858
C81	C	1.028958	-0.321965	-1.090965
C82	C	1.028977	-0.321949	-1.181139
C83	C	0.973721	-0.358713	-1.226202
C84	C	0.918445	-0.395492	-1.181091
C85	C	0.918424	-0.395509	-1.090912
C86	C	0.973681	-0.358746	-1.045849
H87	H	1.069898	-0.294722	-1.214538
H88	H	0.973737	-0.358700	-1.292958
H89	H	0.877541	-0.422706	-1.214449
H90	H	0.877504	-0.422736	-1.057514
H91	H	0.973665	-0.358759	-0.979093
H92	H	0.433856	-0.312500	-0.286886
H93	H	1.225499	-0.953168	-0.469367
H94	H	1.043270	-0.312460	-0.826407
H95	H	1.043273	-0.312439	-0.930526
C96	C	0.675153	-0.181779	-0.483758
C97	C	0.618798	-0.140705	-0.449886
C98	C	0.573746	-0.103989	-0.505236
C99	C	0.585049	-0.108348	-0.594458
C100	C	0.641405	-0.149424	-0.628334
C101	C	0.686457	-0.186140	-0.572985
H102	H	0.610429	-0.137476	-0.383835
H103	H	0.532027	-0.073582	-0.480158
H104	H	0.551699	-0.081169	-0.635431
H105	H	0.649774	-0.152653	-0.694386
H106	H	0.728176	-0.216547	-0.598063
C107	C	1.028895	-0.322047	-0.665946
C108	C	0.939664	-0.317773	-0.677204
C109	C	0.884399	-0.354557	-0.632080
C110	C	0.918366	-0.395615	-0.575699
C111	C	1.007602	-0.399891	-0.564438
C112	C	1.062866	-0.363106	-0.609562
H113	H	0.914515	-0.287377	-0.718943
H114	H	0.818341	-0.351391	-0.640416
H115	H	0.877456	-0.422845	-0.542295
H116	H	1.032751	-0.430286	-0.522699
H117	H	1.128925	-0.366272	-0.601226
C118	C	1.289940	-0.808774	-0.533931
C119	C	1.351614	-0.846289	-0.499979
C120	C	1.406837	-0.876246	-0.555257
C121	C	1.400387	-0.868686	-0.644486
C122	C	1.338711	-0.831169	-0.678442
C123	C	1.283487	-0.801212	-0.623164
H124	H	1.356391	-0.851887	-0.433923
H125	H	1.452494	-0.904019	-0.530120
H126	H	1.441266	-0.890862	-0.685405
H127	H	1.333934	-0.825572	-0.744498
H128	H	1.237831	-0.773440	-0.648301
H129	H	0.993129	-0.702248	-0.236749
H130	H	1.275552	-0.701941	-0.519545
C131	C	1.028930	-0.557912	-0.272565
C132	C	1.035389	-0.550455	-0.183331
C133	C	0.980214	-0.580550	-0.128066
C134	C	0.918580	-0.618101	-0.162034
C135	C	0.912118	-0.625560	-0.251273
C136	C	0.967293	-0.595465	-0.306538
H137	H	1.081017	-0.522656	-0.158181
H138	H	0.984998	-0.575028	-0.062006
H139	H	0.877736	-0.640379	-0.121124
H140	H	0.866490	-0.653359	-0.276422
H141	H	0.962509	-0.600987	-0.372598
H142	H	0.835585	-0.191300	-0.469369
C143	C	1.239603	-0.443002	-0.483574
C144	C	1.205538	-0.405446	-0.545161
C145	C	1.260717	-0.375356	-0.600428
C146	C	1.349961	-0.382822	-0.594108
C147	C	1.384030	-0.420380	-0.532519
C148	C	1.328851	-0.450470	-0.477252
H149	H	1.139471	-0.399918	-0.549841
H150	H	1.235497	-0.347553	-0.646020
H151	H	1.390807	-0.360548	-0.635020
H152	H	1.450097	-0.425908	-0.527839
H153	H	1.354072	-0.478272	-0.431660
C154	C	1.239878	-1.060016	-0.483753
C155	C	1.301538	-1.097542	-0.449803
C156	C	1.356737	-1.127517	-0.505083
C157	C	1.350275	-1.119966	-0.594312
C158	C	1.288612	-1.082439	-0.628267
C159	C	1.233414	-1.052464	-0.572987
H160	H	1.306324	-1.103133	-0.383746
H161	H	1.402384	-1.155298	-0.479947
H162	H	1.391136	-1.142156	-0.635233
H163	H	1.283826	-1.076847	-0.694324
H164	H	1.187767	-1.024683	-0.598123
C165	C	1.029156	-1.060245	-0.272703
C166	C	1.063215	-1.097798	-0.211110
C167	C	1.008032	-1.127883	-0.155841
C168	C	0.918789	-1.120415	-0.162166
C169	C	0.884725	-1.082861	-0.223762
C170	C	0.939909	-1.052775	-0.279030
H171	H	1.129282	-1.103328	-0.206425
H172	H	1.033249	-1.155684	-0.110244
H173	H	0.877939	-1.142686	-0.121253
H174	H	0.818659	-1.077331	-0.228446
H175	H	0.914692	-1.024975	-0.324627
C176	C	0.594291	-0.322030	-0.272496
C177	C	0.582987	-0.317691	-0.183272
C178	C	0.628031	-0.354424	-0.127941
C179	C	0.684379	-0.395495	-0.161834
C180	C	0.695686	-0.399834	-0.251062
C181	C	0.650642	-0.363102	-0.306393
H182	H	0.541273	-0.287287	-0.158178
H183	H	0.619661	-0.351211	-0.061888
H184	H	0.717724	-0.422686	-0.120875
H185	H	0.737400	-0.430239	-0.276156
H186	H	0.659012	-0.366315	-0.372446
H187	H	0.434010	-0.191325	-0.469401
H188	H	0.582738	-0.191318	-0.469393
C189	C	1.239656	-0.557660	-0.483617
C190	C	1.328891	-0.550100	-0.477280
C191	C	1.384105	-0.580061	-0.532562
C192	C	1.350084	-0.617581	-0.594180
C193	C	1.260844	-0.625142	-0.600519
C194	C	1.205630	-0.595181	-0.545238
H195	H	1.354080	-0.522324	-0.431664
H196	H	1.450167	-0.574464	-0.527868
H197	H	1.390957	-0.639759	-0.635102
H198	H	1.235656	-0.652917	-0.646135
H199	H	1.139569	-0.600778	-0.549931
C200	C	1.029098	-0.945590	-0.272674
C201	C	1.063130	-0.908069	-0.211064
C202	C	1.007926	-0.878108	-0.155773
C203	C	0.918689	-0.885668	-0.162093
C204	C	0.884653	-0.923191	-0.223705
C205	C	0.939857	-0.953152	-0.278996
H206	H	1.129192	-0.902470	-0.206384
H207	H	1.033122	-0.850330	-0.110164
H208	H	0.877824	-0.863489	-0.121163
H209	H	0.818590	-0.928789	-0.228385
H210	H	0.914660	-0.980929	-0.324605
C211	C	1.239908	-0.181596	-0.838218
C212	C	1.329139	-0.185874	-0.826959
C213	C	1.384407	-0.149085	-0.872070
C214	C	1.350444	-0.108019	-0.928440
C215	C	1.261208	-0.103739	-0.939702
C216	C	1.205941	-0.140528	-0.894591
H217	H	1.354284	-0.216276	-0.785229
H218	H	1.450465	-0.152254	-0.863733
H219	H	1.391356	-0.080785	-0.961834
H220	H	1.236063	-0.073337	-0.981432
H221	H	1.139883	-0.137359	-0.902928
H222	H	0.835434	-0.312469	-0.286844
C223	C	1.239955	-0.181546	-1.091065
C224	C	1.301568	-0.204196	-1.147423
C225	C	1.356838	-0.167410	-1.192535
C226	C	1.350496	-0.107974	-1.181290
C227	C	1.288881	-0.085321	-1.124930
C228	C	1.233610	-0.122107	-1.079817
H229	H	1.306265	-0.248196	-1.155749
H230	H	1.402450	-0.184179	-1.234257
H231	H	1.391410	-0.080743	-1.214685
H232	H	1.284183	-0.041321	-1.116603
H233	H	1.187998	-0.105338	-1.038095
H234	H	0.993176	-0.801298	-0.236765
H235	H	1.043217	-0.451023	-0.286895
H236	H	1.225577	-0.191135	-0.930625
H237	H	1.225535	-0.191182	-0.677778
