data_functionalizedCrystal
_audit_creation_method	'MofGen! by Chris Wilmer'
_symmetry_space_group_name_H-M	'P1'
_symmetry_Int_Tables_number	1
_symmetry_cell_setting	triclinic
loop_
_symmetry_equiv_pos_as_xyz
  x,y,z
_cell_length_a	15.944480
_cell_length_b	16.098687
_cell_length_c	15.944564
_cell_angle_alpha	87.267012
_cell_angle_beta	83.486891
_cell_angle_gamma	92.723061
loop_
_atom_site_label
_atom_site_type_symbol
_atom_site_fract_x
_atom_site_fract_y
_atom_site_fract_z
O1	O	-1.110815	0.069240	-0.111800
O2	O	-0.866257	0.069245	-0.125219
O3	O	-0.995209	0.069234	0.003767
O4	O	-0.981863	0.069251	-0.240786
O5	O	-1.002702	-0.069276	0.011276
O6	O	-0.873750	-0.069265	-0.117710
O7	O	-1.118308	-0.069271	-0.104291
Zn8	Zn	-0.997219	-0.091260	-0.109808
Zn9	Zn	-0.987346	0.091234	-0.119702
O10	O	-0.989356	-0.069260	-0.233277
C11	C	-0.838709	-0.000009	-0.120918
C12	C	-0.745460	-0.000007	-0.119279
C13	C	-0.509701	-0.000000	-0.195210
C14	C	-0.462836	-0.068299	-0.150569
C15	C	-0.574737	-0.000008	-0.116243
C16	C	-0.455453	0.068261	-0.157954
C17	C	-0.409826	-0.000005	-0.113316
C18	C	-0.529103	-0.068363	-0.071620
C19	C	-0.521720	0.068259	-0.079020
C20	C	-0.474888	-0.000057	-0.034320
C21	C	-0.669738	-0.000010	-0.117931
C22	C	-0.314829	-0.000009	-0.111621
N23	N	-1.003962	-0.215807	-0.103056
C24	C	-1.035352	-0.740617	-0.071722
C25	C	-1.030615	-0.653429	-0.076456
C26	C	-0.971130	-0.609845	-0.135913
C27	C	-0.916385	-0.653454	-0.190644
C28	C	-0.921127	-0.740640	-0.185914
C29	C	-0.953959	-0.346601	-0.153057
C30	C	-0.949220	-0.259409	-0.157782
C31	C	-1.063451	-0.259390	-0.043594
C32	C	-1.068184	-0.346578	-0.038865
C33	C	-1.013442	-0.390179	-0.093599
C34	C	-0.966285	-0.520726	-0.140752
C35	C	-1.018292	-0.479297	-0.088764
C36	C	-0.145855	-0.000013	-0.108604
C37	C	-0.239099	-0.000005	-0.110277
C38	C	-0.998400	-0.000021	0.038815
C39	C	-0.996733	-0.000022	0.132060
N40	N	-0.980609	0.215781	-0.126448
C41	C	-0.912816	-0.000009	0.346893
C42	C	-0.955471	-0.068305	0.411623
C43	C	-0.993718	-0.000016	0.302784
C44	C	-0.948103	0.068256	0.404203
C45	C	-0.990799	-0.000007	0.467694
C46	C	-1.036399	-0.068368	0.366288
C47	C	-1.029016	0.068254	0.358858
C48	C	-1.071731	-0.000058	0.423571
C49	C	-0.995397	-0.000022	0.207783
C50	C	-0.989126	-0.000007	0.562694
C51	C	-0.986154	-0.000004	0.731674
C52	C	-0.987786	-0.000000	0.638424
H53	H	-0.525331	-0.000060	-0.263226
O54	O	-0.852222	-0.606457	-0.254777
H55	H	-0.787660	-0.623224	-0.243135
O56	O	-0.914288	-0.144784	0.442399
H57	H	-0.950340	-0.201410	0.426419
O58	O	-0.571423	-0.144934	-0.023335
H59	H	-0.547258	-0.201489	-0.052853
O60	O	-0.428636	-0.144778	-0.190589
H61	H	-0.442265	-0.144634	-0.257332
O62	O	-0.454381	-0.000121	0.055843
H63	H	-0.414499	0.056592	0.064277
O64	O	-0.823880	-0.000102	0.302745
H65	H	-0.825878	0.000481	0.233363
H66	H	-0.423392	0.125995	-0.194449
O67	O	-1.070167	0.144731	0.328045
H68	H	-1.033391	0.201342	0.342913
O69	O	-0.555934	0.144737	-0.039023
H70	H	-0.587364	0.181621	-0.085847
H71	H	-1.073715	-0.126169	0.349440
H72	H	-0.910750	0.125998	0.421141
O73	O	-1.160765	-0.000041	0.467487
H74	H	-1.158914	0.000527	0.536837
H75	H	-1.083787	-0.776097	-0.023302
H76	H	-1.075191	-0.617929	-0.031894
H77	H	-1.108021	-0.223883	0.000968
O78	O	-1.132359	-0.393587	0.025247
H79	H	-1.169640	-0.348620	0.062498
O80	O	-0.862094	-0.787674	-0.244948
H81	H	-0.819932	-0.742722	-0.287086
H82	H	-0.900777	-0.223927	-0.206201
H83	H	-1.066728	-0.514785	-0.040357
O84	O	-0.894956	-0.393623	-0.212126
H85	H	-0.852807	-0.348666	-0.254271
H86	H	-0.917850	-0.485233	-0.189161
