data_functionalizedCrystal
_audit_creation_method	'MofGen! by Chris Wilmer'
_symmetry_space_group_name_H-M	'P1'
_symmetry_Int_Tables_number	1
_symmetry_cell_setting	triclinic
loop_
_symmetry_equiv_pos_as_xyz
  x,y,z
_cell_length_a	17.639181
_cell_length_b	17.638516
_cell_length_c	12.759393
_cell_angle_alpha	78.830562
_cell_angle_beta	78.797517
_cell_angle_gamma	87.881382
loop_
_atom_site_label
_atom_site_type_symbol
_atom_site_fract_x
_atom_site_fract_y
_atom_site_fract_z
Zn1	Zn	1.099664	-0.536767	0.442087
Zn2	Zn	1.599664	-0.036767	0.942087
Zn3	Zn	1.073877	-0.663760	0.307436
Zn4	Zn	1.573877	-0.163760	0.807436
Zn5	Zn	0.972677	-0.511157	0.293730
Zn6	Zn	1.472677	-0.011157	0.793730
Zn7	Zn	0.946979	-0.638065	0.510335
Zn8	Zn	1.446979	-0.138065	1.010335
O9	O	1.023299	-0.587437	0.388397
O10	O	1.523299	-0.087437	0.888397
O11	O	1.202494	-0.575084	0.401398
O12	O	1.702494	-0.075084	0.901398
O13	O	1.060416	-0.643552	0.158616
O14	O	1.560416	-0.143552	0.658616
O15	O	1.011069	-0.408296	0.279112
O16	O	1.511069	0.091704	0.779112
O17	O	1.183549	-0.668385	0.302471
O18	O	1.683549	-0.168385	0.802471
O19	O	1.104365	-0.427112	0.388109
O20	O	1.604365	0.072888	0.888109
O21	O	0.986065	-0.531435	0.148547
O22	O	1.486065	-0.031435	0.648547
O23	O	0.863017	-0.506520	0.345290
O24	O	1.363017	-0.006520	0.845290
O25	O	0.967270	-0.624592	0.648284
O26	O	1.467270	-0.124592	1.148284
O27	O	0.844137	-0.599759	0.504429
O28	O	1.344137	-0.099759	1.004429
O29	O	1.079447	-0.550169	0.598142
O30	O	1.579447	-0.050169	1.098142
O31	O	1.035498	-0.766609	0.368649
O32	O	1.535498	-0.266609	0.868649
O33	O	0.942266	-0.747732	0.517718
O34	O	1.442266	-0.247732	1.017718
C35	C	0.826027	-0.547573	0.430779
C36	C	1.326027	-0.047573	0.930779
C37	C	0.741629	-0.530537	0.448941
C38	C	1.241629	-0.030537	0.948941
C39	C	0.414840	-0.717025	0.250490
C40	C	0.914840	-0.217025	0.750490
C41	C	0.335538	-0.701007	0.267562
C42	C	0.835538	-0.201007	0.767562
C43	C	0.355232	-0.604010	0.370825
C44	C	0.855232	-0.104010	0.870825
C45	C	0.434539	-0.620017	0.353758
C46	C	0.934539	-0.120017	0.853758
C47	C	0.464336	-0.676526	0.293590
C48	C	0.964336	-0.176526	0.793590
C49	C	0.484034	-0.579518	0.396858
C50	C	0.984034	-0.079518	0.896858
C51	C	0.563333	-0.595527	0.379796
C52	C	1.063333	-0.095527	0.879796
C53	C	0.593136	-0.652035	0.319635
C54	C	1.093136	-0.152035	0.819635
C55	C	0.543635	-0.692535	0.276529
C56	C	1.043635	-0.192535	0.776529
C57	C	0.454235	-0.523013	0.457032
C58	C	0.954235	-0.023013	0.957032
C59	C	0.503731	-0.482514	0.500132
C60	C	1.003731	0.017486	1.000132
C61	C	0.583032	-0.498519	0.483064
C62	C	1.083032	0.001481	0.983064
C63	C	0.612835	-0.555027	0.422902
C64	C	1.112835	-0.055027	0.922902
C65	C	0.632533	-0.458019	0.526170
C66	C	1.132533	0.041981	1.026170
C67	C	0.711832	-0.474028	0.509108
C68	C	1.211832	0.025972	1.009108
C69	C	0.692134	-0.571036	0.405841
C70	C	1.192134	-0.071036	0.905841
C71	C	0.983316	-0.784726	0.452095
C72	C	1.483316	-0.284726	0.952095
C73	C	0.966280	-0.869141	0.479366
C74	C	1.466280	-0.369141	0.979366
C75	C	1.153174	-1.195822	0.181207
C76	C	1.653174	-0.695822	0.681207
C77	C	1.137153	-1.275140	0.206852
C78	C	1.637153	-0.775140	0.706852
C79	C	1.039990	-1.255511	0.361989
C80	C	1.539990	-0.755511	0.861989
C81	C	1.056000	-1.176189	0.336354
C82	C	1.556000	-0.676189	0.836354
C83	C	1.112593	-1.146351	0.245962
C84	C	1.612593	-0.646351	0.745962
C85	C	1.015419	-1.126718	0.401109
C86	C	1.515419	-0.626718	0.901109
C87	C	1.031431	-1.047403	0.375479
C88	C	1.531431	-0.547403	0.875479
C89	C	1.088023	-1.017560	0.285094
C90	C	1.588023	-0.517560	0.785094
C91	C	1.128605	-1.067037	0.220332
C92	C	1.628605	-0.567037	0.720332
C93	C	0.958829	-1.156558	0.491505
C94	C	1.458829	-0.656558	0.991505
C95	C	0.918249	-1.107087	0.556260
C96	C	1.418249	-0.607087	1.056260
C97	C	0.934256	-1.027770	0.530626
C98	C	1.434256	-0.527770	1.030626
C99	C	0.990849	-0.997927	0.440241
C100	C	1.490849	-0.497927	0.940241
C101	C	0.893675	-0.978293	0.595388
C102	C	1.393675	-0.478293	1.095388
C103	C	0.909686	-0.898979	0.569758
C104	C	1.409686	-0.398979	1.069758
C105	C	1.006861	-0.918612	0.414610
C106	C	1.506861	-0.418612	0.914610
C107	C	1.221342	-0.627458	0.345851
C108	C	1.721342	-0.127458	0.845851
C109	C	1.305736	-0.644512	0.327720
C110	C	1.805736	-0.144512	0.827720
C111	C	1.023368	-0.587371	0.662394
C112	C	1.523368	-0.087371	1.162394
C113	C	1.023397	-0.587343	0.779156
C114	C	1.523397	-0.087343	1.279156
C115	C	1.063460	-0.389382	0.324469
C116	C	1.563460	0.110618	0.824469
C117	C	1.080574	-0.304982	0.297226
C118	C	1.580574	0.195018	0.797226
C119	C	1.023286	-0.587457	0.115439
C120	C	1.523286	-0.087457	0.615439
C121	C	1.023447	-0.587301	-0.001423
C122	C	1.523447	-0.087301	0.498577
C123	C	1.081815	-0.548588	0.807908
C124	C	1.581815	-0.048588	1.307908
C125	C	1.081839	-0.548564	0.917619
C126	C	1.581839	-0.048564	1.417619
C127	C	0.965023	-0.626057	0.969820
C128	C	1.465023	-0.126057	1.469820
C129	C	0.964997	-0.626076	0.860109
C130	C	1.464997	-0.126076	1.360109
C131	C	1.140215	-0.509855	0.726954
C132	C	1.640215	-0.009855	1.226954
C133	C	1.198639	-0.471097	0.755704
C134	C	1.698639	0.028903	1.255704
C135	C	1.198662	-0.471074	0.865415
C136	C	1.698662	0.028926	1.365415
C137	C	1.140263	-0.509808	0.946377
C138	C	1.640263	-0.009808	1.446377
H139	H	0.657708	-0.665062	0.305733
H140	H	1.157708	-0.165062	0.805733
H141	H	1.140204	-0.509872	0.637619
H142	H	1.640204	-0.009872	1.137619
H143	H	0.872172	-1.131393	0.629859
H144	H	1.372172	-0.631393	1.129859
H145	H	0.847602	-1.002601	0.668990
H146	H	1.347602	-0.502601	1.168990
H147	H	0.917419	-0.657620	0.836700
H148	H	1.417419	-0.157620	1.336700
H149	H	1.052940	-0.894317	0.340998
H150	H	1.552940	-0.394317	0.840998
H151	H	1.199253	-1.171527	0.107594
H152	H	1.699253	-0.671527	0.607594
H153	H	0.716397	-0.617047	0.356838
H154	H	1.216397	-0.117047	0.856838
H155	H	0.876642	-0.858699	0.622489
H156	H	1.376642	-0.358699	1.122489
H157	H	0.295239	-0.733992	0.232463
H158	H	0.795239	-0.233992	0.732463
H159	H	0.439103	-0.763036	0.201488
H160	H	0.939103	-0.263036	0.701488
H161	H	0.330960	-0.558002	0.419817
H162	H	0.830960	-0.058002	0.919817
H163	H	1.170206	-1.315419	0.154116
H164	H	1.670206	-0.815419	0.654116
H165	H	0.567898	-0.738546	0.227527
H166	H	1.067898	-0.238546	0.727527
H167	H	0.389664	-0.509983	0.470925
H168	H	0.889664	-0.009983	0.970925
H169	H	1.246182	-0.439556	0.689778
H170	H	1.746182	0.060444	1.189778
H171	H	0.993913	-1.279816	0.435588
H172	H	1.493913	-0.779816	0.935588
H173	H	1.246229	-0.439509	0.888819
H174	H	1.746229	0.060491	1.388819
H175	H	0.479458	-0.436506	0.549124
H176	H	0.979458	0.063494	1.049124
H177	H	0.945798	-1.221142	0.512373
H178	H	1.445798	-0.721142	1.012373
H179	H	1.140280	-0.509775	1.035708
H180	H	1.640280	-0.009775	1.535708
H181	H	0.608259	-0.412014	0.575167
H182	H	1.108259	0.087986	1.075167
H183	H	0.917477	-0.657592	1.035746
H184	H	1.417477	-0.157592	1.535746
H185	H	1.101061	-0.952977	0.264230
H186	H	1.601061	-0.452977	0.764230
H187	H	0.752133	-0.441047	0.544202
H188	H	1.252133	0.058953	1.044202
H189	H	1.174684	-1.042741	0.146719
H190	H	1.674684	-0.542741	0.646719
