data_functionalizedCrystal
_audit_creation_method	'MofGen! by Chris Wilmer'
_symmetry_space_group_name_H-M	'P1'
_symmetry_Int_Tables_number	1
_symmetry_cell_setting	triclinic
loop_
_symmetry_equiv_pos_as_xyz
  x,y,z
_cell_length_a	16.109293
_cell_length_b	27.732048
_cell_length_c	15.186229
_cell_angle_alpha	89.991324
_cell_angle_beta	90.006769
_cell_angle_gamma	96.949538
loop_
_atom_site_label
_atom_site_type_symbol
_atom_site_fract_x
_atom_site_fract_y
_atom_site_fract_z
O1	O	-1.102366	0.062112	-0.073308
O2	O	-0.860207	0.069848	-0.073296
O3	O	-0.988807	-0.004385	-0.073285
O4	O	-0.973765	0.136345	-0.073318
O5	O	-0.988799	-0.004387	0.073172
O6	O	-0.860199	0.069847	0.073162
O7	O	-1.102357	0.062111	0.073149
Zn8	Zn	-0.981276	0.065979	0.096409
Zn9	Zn	-0.981288	0.065980	-0.096555
O10	O	-0.973757	0.136344	0.073139
C11	C	-0.829232	0.069535	-0.000065
C12	C	-0.736948	0.068597	-0.000060
C13	C	-0.524628	0.066429	0.079772
C14	C	-0.437919	0.065543	0.079771
C15	C	-0.437938	0.065546	-0.079904
C16	C	-0.524647	0.066429	-0.079903
C17	C	-0.567989	0.066873	-0.000062
C18	C	-0.394571	0.065104	-0.000064
C19	C	-0.300557	0.064143	-0.000065
C20	C	-0.662009	0.067833	-0.000061
C21	C	-0.988487	-0.022394	-0.000054
C22	C	-0.987537	-0.076053	-0.000047
C23	C	-1.057545	-0.414576	-0.000096
C24	C	-1.054018	-0.616251	-0.000108
O25	O	-1.118036	-0.647239	-0.000150
N26	N	-0.977763	-0.635692	-0.000103
C27	C	-0.902385	-0.604712	-0.000101
O28	O	-0.837445	-0.625876	-0.000106
C29	C	-0.905913	-0.403038	-0.000095
C30	C	-0.982173	-0.383600	-0.000091
C31	C	-1.133799	-0.395137	-0.000092
C32	C	-1.134680	-0.344721	-0.000085
C33	C	-1.059307	-0.313745	-0.000080
C34	C	-0.983054	-0.333184	-0.000083
C35	C	-0.830536	-0.372059	-0.000100
C36	C	-0.831425	-0.321638	-0.000100
C37	C	-0.907685	-0.302199	-0.000096
C38	C	-0.908563	-0.251792	-0.000071
N39	N	-0.984817	-0.232351	-0.000076
C40	C	-1.060190	-0.263327	-0.000080
C41	C	-0.900538	-0.710594	-0.000102
C42	C	-0.899655	-0.761012	-0.000102
C43	C	-1.051288	-0.772547	-0.000111
C44	C	-1.052170	-0.722128	-0.000104
C45	C	-0.976792	-0.691152	-0.000107
C46	C	-1.062034	-0.157450	-0.000063
C47	C	-1.062909	-0.107029	-0.000051
C48	C	-0.911276	-0.095499	-0.000048
C49	C	-0.910401	-0.145915	-0.000055
C50	C	-0.985787	-0.176890	-0.000065
O51	O	-0.844579	-0.220775	-0.000039
O52	O	-1.125120	-0.242154	-0.000094
C53	C	-1.056664	-0.464992	-0.000103
C54	C	-0.980411	-0.484431	-0.000107
C55	C	-0.905038	-0.453455	-0.000102
C56	C	-0.979528	-0.534849	-0.000107
C57	C	-1.054901	-0.565826	-0.000111
C58	C	-1.131155	-0.546384	-0.000116
C59	C	-1.132036	-0.495968	-0.000108
C60	C	-0.828784	-0.472896	-0.000097
C61	C	-0.827909	-0.523312	-0.000104
C62	C	-0.903281	-0.554289	-0.000109
C63	C	-0.133331	0.062429	-0.000076
C64	C	-0.225612	0.063380	-0.000067
C65	C	-0.974077	0.154353	-0.000094
C66	C	-0.975028	0.208012	-0.000107
N67	N	-0.981275	0.065977	0.228102
N68	N	-0.981296	0.065978	-0.228248
C69	C	-1.038238	0.033118	0.453829
C70	C	-1.038241	0.033117	0.546019
C71	C	-0.924327	0.098839	0.546019
C72	C	-0.924321	0.098837	0.453831
C73	C	-0.981281	0.065977	0.407738
C74	C	-0.981290	0.065978	0.592116
C75	C	-0.981292	0.065977	0.692072
C76	C	-0.981278	0.065978	0.307776
H77	H	-0.402638	0.065186	-0.144908
O78	O	-0.566640	0.066881	-0.157538
C79	C	-0.557523	0.066762	-0.315915
C80	C	-0.509860	0.066263	-0.228064
H81	H	-0.511641	0.066252	-0.372958
H82	H	-0.590051	0.100990	-0.319970
H83	H	-0.606183	0.033376	-0.319848
H84	H	-0.461161	0.099626	-0.224071
H85	H	-0.477390	0.032013	-0.224045
H86	H	-0.559915	0.066790	0.144783
H87	H	-1.125011	-0.091206	-0.000046
O88	O	-1.093497	0.001224	0.408918
C89	C	-1.143863	-0.027974	0.266899
C90	C	-1.081273	0.008195	0.317647
H91	H	-1.133990	-0.022358	0.193098
H92	H	-1.210410	-0.021696	0.284916
H93	H	-1.133484	-0.066674	0.285123
H94	H	-1.091575	0.046908	0.299451
H95	H	-1.014747	0.001874	0.299626
O96	O	-1.135339	-0.187466	-0.000031
C97	C	-1.285830	-0.193572	-0.000080
C98	C	-1.202876	-0.159525	-0.000103
H99	H	-1.340454	-0.170996	-0.000156
H100	H	-1.289266	-0.217463	0.061225
H101	H	-1.289176	-0.217469	-0.061360
H102	H	-1.199474	-0.135598	0.061136
H103	H	-1.199474	-0.135668	-0.061447
O104	O	-1.208832	-0.325923	-0.000127
C105	C	-1.359136	-0.342704	-0.000087
C106	C	-1.275213	-0.364053	-0.000057
H107	H	-1.412827	-0.373522	-0.000012
H108	H	-1.363405	-0.319401	-0.061394
H109	H	-1.363300	-0.319378	0.061191
H110	H	-1.270992	-0.387401	-0.061293
H111	H	-1.270980	-0.387328	0.061290
O112	O	-0.395921	0.065136	0.157401
C113	C	-0.405064	0.065199	0.315777
C114	C	-0.452726	0.065673	0.227922
H115	H	-0.450972	0.065623	0.372816
H116	H	-0.356443	0.098600	0.319823
H117	H	-0.372492	0.030985	0.319729
H118	H	-0.485348	0.099865	0.223911
H119	H	-0.501300	0.032249	0.223913
H120	H	-0.765805	-0.539134	-0.000100
O121	O	-0.868970	0.130693	0.590894
C122	C	-0.755275	0.140967	0.694961
C123	C	-0.817931	0.104838	0.644212
H124	H	-0.713982	0.120078	0.738067
H125	H	-0.790818	0.165114	0.738164
H126	H	-0.714600	0.164462	0.646166
H127	H	-0.858623	0.081311	0.692944
H128	H	-0.782337	0.080725	0.600996
H129	H	-1.192526	-0.571614	-0.000116
H130	H	-0.877935	0.125595	0.416301
O131	O	-1.207000	-0.425243	-0.000251
C132	C	-1.294018	-0.488868	-0.076092
C133	C	-1.211089	-0.454799	-0.076041
H134	H	-1.297343	-0.512780	-0.137352
H135	H	-1.348693	-0.466328	-0.076148
H136	H	-1.297387	-0.512742	-0.014770
H137	H	-1.207638	-0.430917	-0.137352
H138	H	-1.156453	-0.477367	-0.075939
O139	O	-1.126227	-0.703225	0.000047
C140	C	-1.215213	-0.652985	0.075884
C141	C	-1.131319	-0.674366	0.075835
H142	H	-1.219349	-0.629641	0.137142
H143	H	-1.268960	-0.683772	0.075939
H144	H	-1.219412	-0.629688	0.014561
H145	H	-1.127038	-0.697658	0.137148
H146	H	-1.077612	-0.643557	0.075734
H147	H	-1.112659	-0.797777	-0.000114
H148	H	-0.837557	-0.776834	-0.000090
O149	O	-0.827234	-0.680576	-0.000058
C150	C	-0.676744	-0.674469	-0.000092
C151	C	-0.759698	-0.708516	-0.000128
H152	H	-0.622119	-0.697044	-0.000167
H153	H	-0.673302	-0.650590	0.061217
H154	H	-0.673404	-0.650560	-0.061368
H155	H	-0.763094	-0.732455	0.061107
H156	H	-0.763105	-0.732361	-0.061476
H157	H	-0.768438	-0.387877	-0.000108
H158	H	-0.770042	-0.296419	-0.000104
H159	H	-0.848305	-0.161742	-0.000034
H160	H	-0.849910	-0.070269	-0.000041
H161	H	-1.194135	-0.480146	-0.000105
O162	O	-0.755487	-0.442878	-0.000049
C163	C	-0.604996	-0.436770	-0.000081
C164	C	-0.687950	-0.470818	-0.000123
H165	H	-0.550371	-0.459346	-0.000160
H166	H	-0.601556	-0.412896	0.061231
H167	H	-0.601656	-0.412858	-0.061353
H168	H	-0.691346	-0.494761	0.061107
H169	H	-0.691355	-0.494660	-0.061477
H170	H	-1.084619	0.006359	0.583543
