data_functionalizedCrystal
_audit_creation_method	'MofGen! by Chris Wilmer'
_symmetry_space_group_name_H-M	'P1'
_symmetry_Int_Tables_number	1
_symmetry_cell_setting	triclinic
loop_
_symmetry_equiv_pos_as_xyz
  x,y,z
_cell_length_a	21.606444
_cell_length_b	14.560438
_cell_length_c	14.560438
_cell_angle_alpha	60.000905
_cell_angle_beta	90.001828
_cell_angle_gamma	60.000244
loop_
_atom_site_label
_atom_site_type_symbol
_atom_site_fract_x
_atom_site_fract_y
_atom_site_fract_z
Zr1	Zr	0.596234	1.005276	-0.120494
O2	O	0.497407	1.196879	-0.267141
O3	O	0.626529	0.813674	-0.075541
O4	O	0.626526	1.005278	-0.267141
O5	O	0.497412	1.005273	0.075601
O6	O	0.728378	1.005278	-0.267139
O7	O	0.497410	1.005275	-0.075540
O8	O	0.728383	0.662534	0.075600
O9	O	0.497407	1.348017	-0.267138
O10	O	0.715461	0.892482	-0.056364
O11	O	0.639452	0.892480	0.056429
O12	O	0.639448	1.118069	-0.169156
O13	O	0.563439	1.118067	-0.056363
Zr14	Zr	0.758680	1.005272	0.120562
Zr15	Zr	0.758676	1.005276	-0.120490
Zr16	Zr	0.596238	1.005272	0.120559
Zr17	Zr	0.596234	1.246323	-0.120489
Zr18	Zr	0.758679	0.764224	0.120558
O19	O	0.728384	1.196873	0.075610
O20	O	0.728378	1.196879	-0.267136
O21	O	0.497412	1.196873	0.075604
O22	O	0.857507	0.813668	0.267210
O23	O	0.857501	0.813674	-0.075535
O24	O	0.626535	0.813669	0.267204
O25	O	0.857501	1.005275	-0.075532
O26	O	0.728387	1.005269	0.267210
O27	O	0.626535	1.005269	0.267208
O28	O	0.857504	1.005272	0.075609
O29	O	0.626527	1.348017	-0.267135
O30	O	0.728387	0.662530	0.267204
O31	O	0.857507	0.662530	0.267207
O32	O	0.857503	0.662533	0.075602
O33	O	0.497410	1.348014	-0.075534
O34	O	0.626530	1.348014	-0.075531
O35	O	0.715465	0.892478	0.169225
O36	O	0.791474	0.892480	0.056432
O37	O	0.715461	1.118067	-0.056360
O38	O	0.639452	1.118065	0.056433
C39	C	0.677456	0.703760	0.000029
C40	C	0.677456	0.601429	0.000027
C41	C	0.717131	0.553354	-0.058850
C42	C	0.717133	0.457194	-0.058840
C43	C	0.637782	0.457198	0.058926
C44	C	0.637784	0.553349	0.058922
C45	C	0.474266	1.005274	0.000030
C46	C	0.405305	1.005274	0.000028
C47	C	0.372906	1.005279	-0.083240
C48	C	0.308112	1.005273	-0.083236
C49	C	0.275716	1.005270	0.000033
C50	C	0.308121	1.005261	0.083309
C51	C	0.372917	1.005259	0.083308
C52	C	0.046807	1.005271	0.083313
C53	C	-0.017994	1.005277	0.083305
C54	C	-0.017998	1.005285	-0.083231
C55	C	0.046798	1.005282	-0.083231
C56	C	0.079200	1.005266	0.000047
C57	C	0.149458	1.005271	0.000043
C58	C	0.205456	1.005275	0.000033
C59	C	0.880647	1.005273	0.000039
C60	C	0.949608	1.005273	0.000041
C61	C	0.677451	1.005279	-0.301485
C62	C	0.677450	1.005281	-0.403818
C63	C	0.677457	1.306788	0.000040
C64	C	0.677457	1.409119	0.000042
C65	C	0.637773	1.123033	-0.510771
C66	C	0.637782	1.123026	-0.606919
C67	C	0.717146	0.887506	-0.489149
C68	C	0.717141	0.887513	-0.393003
C69	C	0.677462	1.005269	0.301554
C70	C	0.677464	1.005267	0.403887
C71	C	0.880647	0.703760	0.000033
C72	C	0.949607	0.601428	0.000033
C73	C	0.677461	0.703755	0.301548
C74	C	0.677463	0.601422	0.403879
C75	C	0.880652	0.703755	0.301553
C76	C	0.949614	0.601422	0.403885
C77	C	0.474262	1.306793	-0.301484
C78	C	0.405299	1.409126	-0.403817
C79	C	0.474267	1.306788	0.000035
C80	C	0.405306	1.409119	0.000036
C81	C	0.677452	1.306793	-0.301479
C82	C	0.677450	1.409125	-0.403810
C83	C	0.942314	0.553374	-0.058856
C84	C	1.007104	0.457236	-0.058879
C85	C	1.079186	0.409148	-0.000005
C86	C	1.086478	0.457213	0.058885
C87	C	1.021689	0.553355	0.058901
C88	C	1.021683	0.553366	0.393065
C89	C	1.086487	0.457227	0.489208
C90	C	1.079220	0.409138	0.596171
C91	C	1.007145	0.457204	0.606989
C92	C	0.942342	0.553348	0.510847
C93	C	0.333231	1.457193	-0.392996
C94	C	0.268427	1.553362	-0.489140
C95	C	0.275693	1.601456	-0.596102
C96	C	0.347769	1.553384	-0.606920
C97	C	0.412571	1.457224	-0.510778
C98	C	0.412599	1.457184	0.058915
C99	C	0.347809	1.553348	0.058911
C100	C	0.275727	1.601439	0.000034
C101	C	0.268435	1.553370	-0.058852
C102	C	0.333224	1.457214	-0.058854
C103	C	0.717141	0.553343	0.510833
C104	C	0.717134	0.457199	0.606980
C105	C	0.637770	0.457219	0.489206
C106	C	0.637773	0.553367	0.393061
H107	H	0.605481	0.418040	0.106875
H108	H	0.749456	0.592471	0.519648
N109	N	0.999317	0.405313	0.722360
H110	H	0.943829	0.450336	0.714639
H111	H	1.024476	0.422042	0.764820
H112	H	0.471286	1.418035	0.106866
H113	H	0.353761	1.592469	0.106867
N114	N	0.594973	1.250053	-0.522442
H115	H	0.631363	1.255303	-0.485171
H116	H	0.555041	1.255238	-0.485199
H117	H	1.145168	0.418102	0.480380
H118	H	0.605474	1.218912	-0.694002
N119	N	0.490300	1.405360	-0.522461
H120	H	0.530256	1.337139	-0.445332
H121	H	0.496306	1.478787	-0.564982
H122	H	0.353676	1.592554	-0.694020
H123	H	1.027613	0.592505	0.305980
N124	N	0.594957	0.605211	0.277713
H125	H	0.631330	0.588492	0.235171
H126	H	0.555024	0.701711	0.235295
N127	N	0.273167	1.005279	-0.173048
H128	H	0.227208	1.005270	-0.160410
H129	H	0.311480	0.925197	-0.169366
H130	H	0.883627	0.592526	-0.106811
H131	H	1.027638	0.592469	0.106862
N132	N	0.407857	1.005258	0.173121
H133	H	0.407762	1.085334	0.136799
H134	H	0.461705	0.925121	0.216847
H135	H	1.131993	0.330852	0.674447
N136	N	0.864612	0.605169	0.522525
H137	H	0.869850	0.560106	0.604876
H138	H	0.836002	0.588422	0.485208
H139	H	0.222921	1.679755	-0.674378
N140	N	0.205850	1.705150	0.000042
H141	H	0.221416	1.728292	0.046281
H142	H	0.174692	1.671617	0.033527
H143	H	0.209746	1.592486	-0.480309
H144	H	0.749459	0.791624	-0.480357
H145	H	0.209737	1.592541	-0.106788
N146	N	0.325353	1.405377	-0.122362
H147	H	0.269856	1.450439	-0.159654
H148	H	0.350500	1.308859	-0.068303
H149	H	0.749454	0.791620	-0.305911
H150	H	0.399276	1.005289	-0.151050
N151	N	0.081736	1.005296	-0.173047
H152	H	0.051379	1.005297	-0.225797
H153	H	0.135604	0.925213	-0.136633
N154	N	0.273177	1.005271	0.173113
H155	H	0.303537	1.005266	0.225864
H156	H	0.273273	0.925193	0.216782
H157	H	0.327300	1.418041	-0.305911
N158	N	-0.052950	1.005315	-0.173064
H159	H	-0.098915	1.005318	-0.160435
H160	H	-0.014647	0.925243	-0.169402
H161	H	-0.044369	1.005274	0.151116
H162	H	0.749443	0.418059	0.694064
N163	N	0.081762	1.005220	0.173147
H164	H	0.051408	1.005212	0.225897
H165	H	0.081677	1.085287	0.136762
H166	H	1.001152	0.418114	-0.106834
N167	N	0.594968	0.405380	0.477540
H168	H	0.600989	0.337170	0.554676
H169	H	0.615804	0.365565	0.435019
H170	H	0.749436	0.592496	-0.106804
N171	N	1.149059	0.305452	-0.000033
H172	H	1.149079	0.225676	0.033469
H173	H	1.195796	0.282379	0.046179
N174	N	0.759926	0.405339	-0.122340
H175	H	0.785057	0.450390	-0.159647
H176	H	0.723492	0.422067	-0.181527
N177	N	0.594997	0.605199	0.122438
H178	H	0.569861	0.560157	0.159743
H179	H	0.555108	0.701720	0.068379
N180	N	1.164226	0.405342	0.122380
H181	H	1.204156	0.337142	0.113431
H182	H	1.170236	0.365505	0.204722
