data_functionalizedCrystal
_audit_creation_method	'MofGen! by Chris Wilmer'
_symmetry_space_group_name_H-M	'P1'
_symmetry_Int_Tables_number	1
_symmetry_cell_setting	triclinic
loop_
_symmetry_equiv_pos_as_xyz
  x,y,z
_cell_length_a	15.625020
_cell_length_b	27.731996
_cell_length_c	14.185569
_cell_angle_alpha	76.953602
_cell_angle_beta	85.694396
_cell_angle_gamma	83.465128
loop_
_atom_site_label
_atom_site_type_symbol
_atom_site_fract_x
_atom_site_fract_y
_atom_site_fract_z
O1	O	1.077885	0.125503	-0.475592
O2	O	0.836942	0.121521	-0.387936
O3	O	0.964924	0.053508	-0.434474
O4	O	0.949903	0.193517	-0.429053
O5	O	1.002731	0.033418	-0.281388
O6	O	0.874749	0.101432	-0.234849
O7	O	1.115692	0.105414	-0.322505
Cu8	Cu	0.998673	0.101589	-0.264699
Cu9	Cu	0.953961	0.125347	-0.445742
O10	O	0.987710	0.173428	-0.275967
C11	C	0.825031	0.109665	-0.300181
C12	C	0.733211	0.104262	-0.266776
C13	C	0.624402	0.085696	-0.136251
C14	C	0.710678	0.090775	-0.167650
C15	C	0.669471	0.112674	-0.334542
C16	C	0.583191	0.107595	-0.303157
C17	C	0.560664	0.094106	-0.204010
C18	C	0.519452	0.116005	-0.370916
C19	C	0.433179	0.110928	-0.339533
C20	C	0.410644	0.097442	-0.240391
C21	C	0.474390	0.089030	-0.172627
C22	C	0.541980	0.129497	-0.470063
C23	C	0.478242	0.137907	-0.537822
C24	C	0.391967	0.132827	-0.506440
C25	C	0.369432	0.119341	-0.407297
C26	C	0.328221	0.141239	-0.574203
C27	C	0.241948	0.136163	-0.542820
C28	C	0.283159	0.114264	-0.375914
C29	C	0.983520	0.025439	-0.357816
C30	C	0.982593	-0.028268	-0.357469
C31	C	0.956130	-0.350336	-0.438835
C32	C	0.952599	-0.552178	-0.437568
O33	O	0.934581	-0.568962	-0.508359
N34	N	0.972769	-0.588369	-0.353962
C35	C	0.993819	-0.574097	-0.270665
O36	O	1.010885	-0.609511	-0.199521
C37	C	0.997343	-0.372255	-0.271931
C38	C	0.977180	-0.336067	-0.355545
C39	C	0.935968	-0.314148	-0.522443
C40	C	0.936855	-0.263691	-0.522760
C41	C	0.957905	-0.249421	-0.439470
C42	C	0.978068	-0.285609	-0.355863
C43	C	1.018386	-0.357984	-0.188632
C44	C	1.019264	-0.307519	-0.188955
C45	C	0.999100	-0.271330	-0.272570
C46	C	1.000005	-0.220882	-0.272890
N47	N	0.979835	-0.184692	-0.356496
C48	C	0.958785	-0.198961	-0.439786
C49	C	0.991968	-0.680066	-0.270007
C50	C	0.991089	-0.730527	-0.269691
C51	C	0.949868	-0.708604	-0.436594
C52	C	0.950753	-0.658143	-0.436911
C53	C	0.971798	-0.643875	-0.353613
C54	C	0.960651	-0.092998	-0.440447
C55	C	0.961544	-0.042537	-0.440758
C56	C	1.002760	-0.064464	-0.273854
C57	C	1.001872	-0.114920	-0.273544
C58	C	0.980812	-0.129185	-0.356847
O59	O	1.018005	-0.204063	-0.202134
O60	O	0.941703	-0.163539	-0.510913
C61	C	0.955243	-0.400793	-0.438518
C62	C	0.975405	-0.436981	-0.354910
C63	C	0.996455	-0.422712	-0.271620
C64	C	0.974526	-0.487442	-0.354594
C65	C	0.953476	-0.501711	-0.437884
C66	C	0.933305	-0.465520	-0.521490
C67	C	0.934193	-0.415063	-0.521807
C68	C	1.016625	-0.458903	-0.188014
C69	C	1.015737	-0.509359	-0.187704
C70	C	0.994687	-0.523629	-0.270994
C71	C	1.127603	0.117270	-0.410262
C72	C	1.219421	0.122674	-0.443673
C73	C	0.969114	0.201497	-0.352627
C74	C	0.970039	0.255204	-0.352981
N75	N	1.030126	0.084878	-0.137366
N76	N	0.922515	0.142053	-0.573078
C77	C	0.830105	0.191127	0.303019
C78	C	0.853936	0.178473	0.399375
C79	C	0.967286	0.118272	0.358117
C80	C	0.943462	0.130920	0.261757
C81	C	0.874871	0.167348	0.234216
C82	C	0.988228	0.107140	0.192954
C83	C	0.964409	0.119789	0.096602
C84	C	0.895822	0.156217	0.069052
C85	C	0.851051	0.179996	0.137864
C86	C	1.056823	0.070715	0.220496
C87	C	1.101589	0.046936	0.151693
C88	C	1.077766	0.059582	0.055340
C89	C	1.009179	0.096009	0.027790
C90	C	1.122537	0.035802	-0.013472
C91	C	1.098717	0.048450	-0.109825
C92	C	0.985359	0.108658	-0.068563
H93	H	0.606059	0.074718	-0.055515
H94	H	0.929500	0.138317	-0.090984
C95	C	1.037918	-0.549163	-0.095714
N96	N	1.054616	-0.579141	-0.026425
H97	H	0.612230	0.133633	-0.495611
H98	H	0.795192	0.209656	0.115442
H99	H	0.687825	0.123658	-0.415268
H100	H	0.762573	0.083928	-0.112464
C101	C	0.804681	0.204634	0.475059
N102	N	0.767584	0.224338	0.532063
C103	C	0.449608	0.074186	-0.063561
N104	N	0.430941	0.063006	0.018585
C105	C	0.912006	-0.375260	-0.613789
N106	N	0.895290	-0.345284	-0.683073
C107	C	0.869619	0.170130	-0.036940
N108	N	0.849881	0.180608	-0.116772
C109	C	1.024060	-0.154729	-0.181567
N110	N	1.040765	-0.184710	-0.112285
C111	C	1.025906	-0.048757	-0.182237
N112	N	1.043330	-0.036925	-0.113227
C113	C	0.754618	0.231179	0.272732
N114	N	0.697754	0.261339	0.249922
H115	H	0.496596	0.148891	-0.618548
C116	C	0.171832	0.145413	-0.617359
N117	N	0.119020	0.152383	-0.673504
H118	H	1.023136	0.088613	0.380552
H119	H	1.076217	0.060420	0.298953
C120	C	0.258377	0.099421	-0.266847
N121	N	0.239710	0.088241	-0.184702
H122	H	1.157439	0.017277	0.174128
H123	H	1.135171	0.029087	-0.165847
H124	H	1.178389	0.006145	0.008963
H125	H	0.945125	-0.013073	-0.508851
C126	C	0.353014	0.156078	-0.683261
N127	N	0.371687	0.167255	-0.765406
H128	H	0.340393	0.093312	-0.214840
C129	C	0.914664	-0.223888	-0.614740
N130	N	0.897945	-0.193911	-0.684023
C131	C	0.937499	-0.108681	-0.532090
N132	N	0.920070	-0.120494	-0.601118
H133	H	0.918822	-0.325759	-0.590270
H134	H	0.916169	-0.477147	-0.589309
H135	H	0.934333	-0.628681	-0.504997
C136	C	0.926706	-0.724309	-0.528211
N137	N	0.909254	-0.736141	-0.597211
C138	C	1.015126	-0.664380	-0.178368
N139	N	1.032572	-0.652567	-0.109346
C140	C	1.013278	-0.770330	-0.177711
N141	N	1.029986	-0.800308	-0.108426
C142	C	1.040557	-0.397781	-0.096644
N143	N	1.057253	-0.427756	-0.027351
H144	H	1.036389	-0.295906	-0.121118
H145	H	1.033768	-0.447291	-0.120188
