data_functionalizedCrystal
_audit_creation_method	'MofGen! by Chris Wilmer'
_symmetry_space_group_name_H-M	'P1'
_symmetry_Int_Tables_number	1
_symmetry_cell_setting	triclinic
loop_
_symmetry_equiv_pos_as_xyz
  x,y,z
_cell_length_a	23.532407
_cell_length_b	15.944551
_cell_length_c	22.610064
_cell_angle_alpha	90.002706
_cell_angle_beta	89.994072
_cell_angle_gamma	96.826292
loop_
_atom_site_label
_atom_site_type_symbol
_atom_site_fract_x
_atom_site_fract_y
_atom_site_fract_z
O1	O	0.073437	-1.113904	0.049129
O2	O	0.082493	-0.869278	0.049145
O3	O	-0.004938	-0.998968	0.049126
O4	O	0.160868	-0.984214	0.049148
O5	O	-0.004916	-0.998959	-0.049244
O6	O	0.082515	-0.869269	-0.049225
O7	O	0.073460	-1.113895	-0.049240
Zn8	Zn	0.077991	-0.991581	-0.064851
Zn9	Zn	0.077962	-0.991593	0.064755
O10	O	0.160891	-0.984206	-0.049221
C11	C	0.082128	-0.837983	-0.000038
C12	C	0.081001	-0.744746	-0.000033
C13	C	-0.026144	-0.998588	-0.000061
C14	C	-0.089366	-0.997458	-0.000065
C15	C	0.073824	-1.145190	-0.000056
C16	C	0.074951	-1.238427	-0.000058
C17	C	-0.488199	-1.067121	-0.000037
C18	C	-0.547603	-1.066072	-0.000032
O19	O	-0.584098	-1.130650	-0.000015
N20	N	-0.570528	-0.988971	-0.000028
C21	C	-0.534045	-0.912915	-0.000022
O22	O	-0.558999	-0.847239	-0.000017
C23	C	-0.474642	-0.913965	-0.000022
C24	C	-0.451721	-0.991071	-0.000033
C25	C	-0.465277	-1.144220	-0.000047
C26	C	-0.405877	-1.145269	-0.000052
C27	C	-0.369399	-1.069219	-0.000048
C28	C	-0.392320	-0.992120	-0.000039
C29	C	-0.438160	-0.837910	-0.000012
C30	C	-0.378754	-0.838967	-0.000012
C31	C	-0.355832	-0.916072	-0.000023
C32	C	-0.296442	-0.917118	-0.000040
N33	N	-0.273517	-0.994219	-0.000045
C34	C	-0.309995	-1.070269	-0.000049
C35	C	-0.658796	-0.910716	-0.000020
C36	C	-0.718198	-0.909664	-0.000024
C37	C	-0.731752	-1.062821	-0.000034
C38	C	-0.672349	-1.063872	-0.000034
C39	C	-0.635871	-0.987816	-0.000025
C40	C	-0.185250	-1.072466	-0.000061
C41	C	-0.125844	-1.073508	-0.000069
C42	C	-0.112295	-0.920352	-0.000057
C43	C	-0.171696	-0.919309	-0.000052
C44	C	-0.208173	-0.995373	-0.000052
O45	O	-0.259913	-0.852574	-0.000055
O46	O	-0.285033	-1.135935	-0.000046
C47	C	0.182097	-0.984586	-0.000034
C48	C	0.245318	-0.985715	-0.000025
N49	N	0.078011	-0.991579	-0.153303
C50	C	0.024113	-0.530369	-0.000052
C51	C	0.050519	-0.469131	0.048453
C52	C	0.078962	-0.574038	-0.000040
C53	C	0.050554	-0.469144	-0.048531
C54	C	0.076989	-0.409142	-0.000050
C55	C	0.105383	-0.514027	0.048505
C56	C	0.105410	-0.514047	-0.048523
C57	C	0.131856	-0.452826	-0.000006
C58	C	0.080097	-0.669030	-0.000034
C59	C	0.075858	-0.314150	-0.000051
C60	C	0.116678	-0.934134	-0.438143
C61	C	0.116684	-0.934131	-0.376223
O62	O	0.149585	-0.885264	-0.344197
N63	N	0.077988	-0.991573	-0.345255
C64	C	0.039280	-1.049015	-0.376211
O65	O	0.006367	-1.097873	-0.344185
C66	C	0.039273	-1.049013	-0.438130
C67	C	0.077975	-0.991573	-0.469094
C68	C	0.155377	-0.876698	-0.469107
C69	C	0.155372	-0.876702	-0.531023
C70	C	0.116668	-0.934141	-0.561974
C71	C	0.077970	-0.991577	-0.531010
C72	C	0.000563	-1.106450	-0.469084
C73	C	0.000558	-1.106442	-0.531007
C74	C	0.039260	-1.049002	-0.561972
C75	C	0.039261	-1.049019	-0.623877
N76	N	0.077957	-0.991578	-0.654844
C77	C	0.116660	-0.934139	-0.623893
C78	C	0.039299	-1.049014	-0.246177
C79	C	0.039309	-1.049022	-0.184260
C80	C	0.116712	-0.934137	-0.184276
C81	C	0.116704	-0.934134	-0.246195
C82	C	0.077995	-0.991573	-0.277145
C83	C	0.116647	-0.934151	-0.753920
C84	C	0.116641	-0.934162	-0.815841
C85	C	0.039236	-1.049043	-0.815820
C86	C	0.039245	-1.049036	-0.753904
C87	C	0.077953	-0.991582	-0.722956
O88	O	0.006375	-1.097860	-0.655942
O89	O	0.149563	-0.885282	-0.655926
N90	N	0.077937	-0.991601	0.153207
H91	H	-0.214943	-1.134405	-0.000059
H92	H	-0.021407	-0.564086	0.000002
C93	C	-0.771886	-1.146476	-0.000027
H94	H	-0.810546	-1.134802	-0.000017
H95	H	-0.764941	-1.178121	-0.034330
H96	H	-0.764937	-1.178107	0.034282
H97	H	0.186894	-0.829920	-0.443912
H98	H	-0.107185	-1.136300	-0.000079
H99	H	-0.653691	-1.126658	-0.000042
H100	H	-0.349056	-0.777032	-0.000004
H101	H	-0.387220	-1.208056	-0.000059
H102	H	0.027355	-0.449250	-0.089537
H103	H	0.007800	-1.095803	-0.159053
H104	H	-0.736855	-0.846878	-0.000026
H105	H	0.007779	-1.095795	-0.271374
H106	H	0.186884	-0.829927	-0.556230
H107	H	0.027311	-0.449220	0.089454
H108	H	0.148218	-0.887362	-0.271402
H109	H	0.148158	-0.887388	-0.841050
H110	H	0.148166	-0.887366	-0.728729
C111	C	0.136698	-0.540761	0.103956
H112	H	0.137208	-0.600249	0.103628
H113	H	0.174854	-0.513502	0.104086
H114	H	0.117344	-0.525036	0.138362
C115	C	-0.505395	-1.227883	-0.000056
H116	H	-0.483227	-1.273943	-0.000067
H117	H	-0.528857	-1.230675	0.034245
H118	H	-0.528842	-1.230654	-0.034367
C119	C	0.159286	-0.870955	-0.150221
H120	H	0.153742	-0.879183	-0.108911
H121	H	0.197298	-0.879755	-0.160376
H122	H	0.153074	-0.814946	-0.160361
H123	H	-0.030952	-1.153222	-0.443882
C124	C	-0.042023	-1.169627	-0.565049
H125	H	-0.065066	-1.203836	-0.537736
H126	H	-0.065745	-1.139614	-0.589199
H127	H	-0.021522	-1.204426	-0.589207
C128	C	0.193409	-0.407505	0.000037
H129	H	0.212790	-0.422855	0.034525
H130	H	0.213044	-0.423563	-0.034086
H131	H	0.192364	-0.348128	-0.000286
C132	C	-0.003323	-1.112221	-0.719842
H133	H	-0.026375	-1.146428	-0.747146
H134	H	0.017177	-1.147009	-0.695688
H135	H	-0.027046	-1.082198	-0.695687
C136	C	-0.003337	-1.112218	-0.849874
H137	H	0.002202	-1.103981	-0.891184
H138	H	0.002867	-1.168226	-0.839735
H139	H	-0.041350	-1.103405	-0.839719
C140	C	0.136734	-0.540985	-0.103913
H141	H	0.117199	-0.525806	-0.138345
H142	H	0.174794	-0.513369	-0.104256
H143	H	0.137521	-0.600411	-0.103315
H144	H	-0.629098	-0.848778	-0.000018
H145	H	-0.456812	-0.775123	-0.000000
H146	H	-0.190359	-0.856524	-0.000060
H147	H	-0.082584	-0.858434	-0.000056
