data_functionalizedCrystal
_audit_creation_method	'MofGen! by Chris Wilmer'
_symmetry_space_group_name_H-M	'P1'
_symmetry_Int_Tables_number	1
_symmetry_cell_setting	triclinic
loop_
_symmetry_equiv_pos_as_xyz
  x,y,z
_cell_length_a	12.759401
_cell_length_b	25.639239
_cell_length_c	12.759393
_cell_angle_alpha	90.037607
_cell_angle_beta	90.018567
_cell_angle_gamma	90.038328
loop_
_atom_site_label
_atom_site_type_symbol
_atom_site_fract_x
_atom_site_fract_y
_atom_site_fract_z
Zn1	Zn	1.606076	-0.208133	0.593939
Zn2	Zn	1.605895	-0.295580	0.418241
Zn3	Zn	1.430378	-0.208159	0.418278
Zn4	Zn	1.430291	-0.295538	0.593882
O5	O	1.518160	-0.251853	0.506085
O6	O	1.753073	-0.219740	0.570641
O7	O	1.582573	-0.284012	0.271225
O8	O	1.453797	-0.134990	0.441620
O9	O	1.752940	-0.283987	0.441556
O10	O	1.582881	-0.134971	0.570677
O11	O	1.453621	-0.219784	0.271252
O12	O	1.283345	-0.219743	0.441564
O13	O	1.453649	-0.283915	0.740911
O14	O	1.283282	-0.283940	0.570580
O15	O	1.582797	-0.219699	0.740953
O16	O	1.582489	-0.368740	0.441500
O17	O	1.453473	-0.368709	0.570543
C18	C	1.245193	-0.251840	0.506070
C19	C	1.128416	-0.251848	0.506089
C20	C	1.073616	-0.218458	0.573408
C21	C	0.963892	-0.218468	0.573414
C22	C	0.963777	-0.285262	0.438781
C23	C	1.073499	-0.285249	0.438770
C24	C	1.073682	-0.179896	0.651141
C25	C	0.963958	-0.179906	0.651147
C26	C	1.517980	-0.387695	0.506034
C27	C	1.518000	-0.445809	0.506048
C28	C	1.450969	-0.696999	0.573256
C29	C	1.450930	-0.642395	0.573244
O30	O	1.393766	-0.614155	0.630352
N31	N	1.518132	-0.615083	0.506103
C32	C	1.585385	-0.642379	0.438977
O33	O	1.642542	-0.614134	0.381867
C34	C	1.585428	-0.696982	0.438995
C35	C	1.518214	-0.724291	0.506133
C36	C	1.383761	-0.724308	0.640390
C37	C	1.383799	-0.778908	0.640401
C38	C	1.451045	-0.806200	0.573277
C39	C	1.518252	-0.778891	0.506144
C40	C	1.652685	-0.724276	0.371875
C41	C	1.652723	-0.778883	0.371900
C42	C	1.585510	-0.806192	0.439038
C43	C	1.585535	-0.860783	0.439031
N44	N	1.518333	-0.888095	0.506173
C45	C	1.451088	-0.860803	0.573296
C46	C	1.585290	-0.527708	0.438945
C47	C	1.585242	-0.473106	0.438920
C48	C	1.450788	-0.473126	0.573189
C49	C	1.450832	-0.527729	0.573208
C50	C	1.518088	-0.555020	0.506086
C51	C	1.451172	-0.975468	0.573312
C52	C	1.451213	-1.030074	0.573314
C53	C	1.585669	-1.030049	0.439049
C54	C	1.585625	-0.975449	0.439043
C55	C	1.518373	-0.948160	0.506183
O56	O	1.642673	-0.889058	0.381955
O57	O	1.393950	-0.889055	0.630405
C58	C	1.792193	-0.251865	0.506100
C59	C	1.908970	-0.251871	0.506107
C60	C	1.518234	-0.251800	0.780119
C61	C	1.518265	-0.251777	0.896895
C62	C	1.518369	-0.115480	0.506159
C63	C	1.518458	-0.057365	0.506190
C64	C	1.518147	-0.251867	0.233118
C65	C	1.518319	-0.251743	0.116342
C66	C	1.585522	-0.218337	0.951781
C67	C	1.585547	-0.218318	1.061505
C68	C	1.451055	-0.285185	1.061448
C69	C	1.451026	-0.285200	0.951726
C70	C	1.663173	-0.179734	0.951815
C71	C	1.663198	-0.179715	1.061539
H72	H	1.396410	-0.953256	0.627985
H73	H	1.396255	-0.312429	0.907042
C74	C	0.918802	-0.128549	0.612510
C75	C	1.000731	-0.094517	0.586897
C76	C	0.959172	-0.047202	0.551311
H77	H	0.876884	-0.134657	0.552196
H78	H	0.876963	-0.113425	0.666074
H79	H	1.042552	-0.109637	0.533337
H80	H	1.042656	-0.088393	0.647194
H81	H	0.917333	-0.032079	0.604875
H82	H	0.917254	-0.053316	0.491000
H83	H	1.014754	-0.024104	0.533937
C84	C	1.624460	-0.128367	1.106758
C85	C	1.598761	-0.094370	1.024871
C86	C	1.563084	-0.047063	1.066489
H87	H	1.564166	-0.134496	1.148638
H88	H	1.678000	-0.113204	1.148647
H89	H	1.545226	-0.109529	0.983000
H90	H	1.659039	-0.088226	0.982984
H91	H	1.616624	-0.031900	1.108377
H92	H	1.502793	-0.053197	1.108368
H93	H	1.545652	-0.023989	1.010935
H94	H	1.396309	-0.312395	1.106105
C95	C	0.924478	-0.194371	0.759700
C96	C	1.010023	-0.203225	0.826085
C97	C	0.973696	-0.216511	0.926108
H98	H	0.883235	-0.166653	0.786850
H99	H	0.883062	-0.225105	0.755370
H100	H	1.051422	-0.172495	0.830419
H101	H	1.051276	-0.230945	0.798969
H102	H	0.932280	-0.247245	0.921777
H103	H	0.932452	-0.188791	0.953247
H104	H	1.031731	-0.222525	0.971159
C105	C	1.378197	-1.059628	0.646329
C106	C	1.319323	-1.024036	0.705130
C107	C	1.252065	-1.051240	0.772411
H108	H	1.332360	-1.080970	0.606225
H109	H	1.418353	-1.080880	0.692203
H110	H	1.279170	-1.002793	0.659262
H111	H	1.365132	-1.002694	0.745255
H112	H	1.292222	-1.072492	0.818285
H113	H	1.206236	-1.072580	0.732299
H114	H	1.212118	-1.027095	0.812322
C115	C	1.658654	-0.945731	0.366313
C116	C	1.725930	-0.914321	0.425850
C117	C	1.793217	-0.886937	0.358892
H118	H	1.698803	-0.969749	0.326313
H119	H	1.618508	-0.924435	0.320513
H120	H	1.766072	-0.935614	0.471631
H121	H	1.685810	-0.890293	0.465847
H122	H	1.753071	-0.865642	0.313092
H123	H	1.833359	-0.910959	0.318896
H124	H	1.838865	-0.865619	0.399277
C125	C	1.377734	-0.557403	0.645934
C126	C	1.310429	-0.588803	0.586407
C127	C	1.243068	-0.616138	0.653370
H128	H	1.417792	-0.578705	0.691778
H129	H	1.337620	-0.533341	0.685884
H130	H	1.350539	-0.612863	0.546475
H131	H	1.270348	-0.567514	0.540565
H132	H	1.202954	-0.592075	0.693320
H133	H	1.283135	-0.637437	0.699211
H134	H	1.197388	-0.637442	0.612991
C135	C	1.133187	-0.321442	0.365715
C136	C	1.241032	-0.314274	0.380092
C137	C	1.296048	-0.347602	0.312800
H138	H	1.115307	-0.356605	0.380890
H139	H	1.115242	-0.313743	0.295133
H140	H	1.258969	-0.321978	0.450658
H141	H	1.258943	-0.279119	0.364910
H142	H	1.278103	-0.339903	0.242218
H143	H	1.278160	-0.382763	0.327981
H144	H	1.369226	-0.342740	0.322539
C145	C	1.658033	-0.443433	0.365886
C146	C	1.598563	-0.412151	0.298466
C147	C	1.665588	-0.384817	0.231165
H148	H	1.703799	-0.422051	0.405983
H149	H	1.698064	-0.467495	0.325853
H150	H	1.558550	-0.388091	0.338494
H151	H	1.552800	-0.433520	0.258346
H152	H	1.705619	-0.408879	0.191132
H153	H	1.711351	-0.363438	0.271271
H154	H	1.625248	-0.363593	0.185406
C155	C	1.771638	-0.194285	1.101201
C156	C	1.798068	-0.244039	1.064491
C157	C	1.897944	-0.257480	1.101022
H158	H	1.821419	-0.169644	1.076432
H159	H	1.771672	-0.194301	1.175660
H160	H	1.798043	-0.244019	0.990048
H161	H	1.748315	-0.268691	1.089257
H162	H	1.897977	-0.257497	1.175481
H163	H	1.947715	-0.232837	1.076250
H164	H	1.915885	-0.291242	1.076128
H165	H	1.707417	-0.702049	0.317206
H166	H	1.707496	-0.801101	0.317243
C167	C	1.658609	-1.059781	0.366263
C168	C	1.644258	-1.113444	0.380661
C169	C	1.711435	-1.140850	0.313631
H170	H	1.643313	-1.050927	0.295620
H171	H	1.729218	-1.050830	0.381686
H172	H	1.573666	-1.122392	0.365230
H173	H	1.659562	-1.122314	0.451289
H174	H	1.782043	-1.131899	0.329054
H175	H	1.696133	-1.131992	0.242992
H176	H	1.701714	-1.177263	0.323397
H177	H	0.919051	-0.312457	0.383972
H178	H	1.107734	-0.194443	0.728376
C179	C	1.310791	-0.808459	0.713419
C180	C	1.251922	-0.772862	0.772213
C181	C	1.184666	-0.800061	0.839505
H182	H	1.264952	-0.829803	0.673323
H183	H	1.350949	-0.829708	0.759297
H184	H	1.211768	-0.751622	0.726341
H185	H	1.297734	-0.751518	0.812330
H186	H	1.224824	-0.821310	0.885383
H187	H	1.138833	-0.821403	0.799401
H188	H	1.144722	-0.775913	0.879411
H189	H	1.396035	-0.450895	0.627846
C190	C	1.310916	-0.694656	0.713401
C191	C	1.370324	-0.663257	0.780813
C192	C	1.303244	-0.635944	0.848093
H193	H	1.265118	-0.673355	0.673288
H194	H	1.270921	-0.718731	0.753441
H195	H	1.410300	-0.639185	0.740778
H196	H	1.416119	-0.684545	0.820949
H197	H	1.263250	-0.660020	0.888133
H198	H	1.257449	-0.614646	0.807972
H199	H	1.343543	-0.614641	0.893846
H200	H	1.103483	-0.139385	0.629496
H201	H	1.740432	-0.194250	0.917776
H202	H	1.640055	-0.549925	0.384277
H203	H	1.641439	-0.139242	0.922067
