data_functionalizedCrystal
_audit_creation_method	'MofGen! by Chris Wilmer'
_symmetry_space_group_name_H-M	'P1'
_symmetry_Int_Tables_number	1
_symmetry_cell_setting	triclinic
loop_
_symmetry_equiv_pos_as_xyz
  x,y,z
_cell_length_a	14.853567
_cell_length_b	14.853567
_cell_length_c	13.330367
_cell_angle_alpha	89.996055
_cell_angle_beta	89.991237
_cell_angle_gamma	96.365070
loop_
_atom_site_label
_atom_site_type_symbol
_atom_site_fract_x
_atom_site_fract_y
_atom_site_fract_z
O1	O	0.117691	-1.196369	0.083346
O2	O	0.617691	-0.696369	0.583346
O3	O	0.131712	-0.933910	0.083362
O4	O	0.631712	-0.433910	0.583362
O5	O	-0.006528	-1.072150	0.083356
O6	O	0.493472	-0.572150	0.583356
O7	O	0.255931	-1.058129	0.083351
O8	O	0.755931	-0.558129	0.583351
O9	O	-0.006506	-1.072129	-0.083491
O10	O	0.493494	-0.572129	0.416509
O11	O	0.131734	-0.933889	-0.083485
O12	O	0.631734	-0.433889	0.416515
O13	O	0.117713	-1.196348	-0.083501
O14	O	0.617713	-0.696348	0.416499
Cu15	Cu	0.124726	-1.065116	-0.098728
Cu16	Cu	0.624726	-0.565116	0.401272
Cu17	Cu	0.124700	-1.065142	0.098588
Cu18	Cu	0.624700	-0.565142	0.598588
O19	O	0.255954	-1.058108	-0.083496
O20	O	0.755954	-0.558108	0.416504
C21	C	0.131088	-0.900311	-0.000060
C22	C	0.631088	-0.400311	0.499940
C23	C	0.129184	-0.800227	-0.000053
C24	C	0.629184	-0.300227	0.499947
C25	C	-0.040106	-1.071504	-0.000064
C26	C	0.459894	-0.571504	0.499936
C27	C	-0.140189	-1.069601	-0.000055
C28	C	0.359811	-0.569601	0.499945
C29	C	0.118337	-1.229947	-0.000078
C30	C	0.618337	-0.729947	0.499922
C31	C	0.120241	-1.330031	-0.000078
C32	C	0.620241	-0.830031	0.499922
C33	C	-0.552723	-0.979435	-0.000069
C34	C	-0.052723	-0.479435	0.499931
C35	C	-0.574004	-1.143668	-0.000079
C36	C	-0.074004	-0.643668	0.499921
C37	C	-0.479970	-1.145458	-0.000073
C38	C	0.020030	-0.645458	0.499927
C39	C	-0.422309	-1.064235	-0.000067
C40	C	0.077691	-0.564235	0.499933
C41	C	-0.458680	-0.981223	-0.000066
C42	C	0.041320	-0.481223	0.499934
C43	C	-0.443591	-1.228469	-0.000084
C44	C	0.056409	-0.728469	0.499916
C45	C	-0.349552	-1.230262	-0.000079
C46	C	0.150448	-0.730262	0.499921
C47	C	-0.291889	-1.149039	-0.000066
C48	C	0.208111	-0.649039	0.499934
C49	C	-0.328266	-1.066023	-0.000064
C50	C	0.171734	-0.566023	0.499936
C51	C	-0.270604	-0.984800	-0.000058
C52	C	0.229396	-0.484800	0.499942
C53	C	-0.306979	-0.901783	-0.000049
C54	C	0.193021	-0.401783	0.499951
C55	C	-0.401017	-0.899999	-0.000053
C56	C	0.098983	-0.399999	0.499947
C57	C	-0.197851	-1.150823	-0.000062
C58	C	0.302149	-0.650823	0.499938
C59	C	-0.176561	-0.986588	-0.000055
C60	C	0.323439	-0.486588	0.499945
C61	C	0.289531	-1.058754	-0.000073
C62	C	0.789531	-0.558754	0.499927
C63	C	0.389615	-1.060657	-0.000075
C64	C	0.889615	-0.560657	0.499925
N65	N	0.124744	-1.065105	-0.237509
N66	N	0.624744	-0.565105	0.262491
C67	C	0.039019	-0.387693	-0.000074
C68	C	0.539019	0.112307	0.499926
C69	C	0.203251	-0.366412	-0.000076
C70	C	0.703251	0.133588	0.499924
C71	C	0.205042	-0.460446	-0.000073
C72	C	0.705042	0.039554	0.499927
C73	C	0.123819	-0.518108	-0.000069
C74	C	0.623819	-0.018108	0.499931
C75	C	0.040806	-0.481736	-0.000067
C76	C	0.540806	0.018264	0.499933
C77	C	0.288053	-0.496825	-0.000064
C78	C	0.788053	0.003175	0.499936
C79	C	0.289846	-0.590864	-0.000059
C80	C	0.789846	-0.090864	0.499941
C81	C	0.208623	-0.648528	-0.000062
C82	C	0.708623	-0.148528	0.499938
C83	C	0.125607	-0.612150	-0.000062
C84	C	0.625607	-0.112150	0.499938
C85	C	0.044384	-0.669812	-0.000058
C86	C	0.544384	-0.169812	0.499942
C87	C	-0.038633	-0.633437	-0.000065
C88	C	0.461367	-0.133437	0.499935
C89	C	-0.040417	-0.539399	-0.000070
C90	C	0.459583	-0.039399	0.499930
C91	C	0.210407	-0.742565	-0.000057
C92	C	0.710407	-0.242565	0.499943
C93	C	0.046172	-0.763855	-0.000052
C94	C	0.546172	-0.263855	0.499948
C95	C	0.179463	-1.119897	-0.710126
C96	C	0.679463	-0.619897	-0.210126
C97	C	0.069900	-1.010413	-0.710106
C98	C	0.569900	-0.510413	-0.210106
C99	C	0.069914	-1.010400	-0.605088
C100	C	0.569914	-0.510400	-0.105088
C101	C	0.124702	-1.065137	-0.552584
C102	C	0.624702	-0.565137	-0.052584
C103	C	0.179477	-1.119888	-0.605098
C104	C	0.679477	-0.619888	-0.105098
C105	C	0.015134	-0.955658	-0.552565
C106	C	0.515134	-0.455658	-0.052565
C107	C	0.015145	-0.955643	-0.447541
C108	C	0.515145	-0.455643	0.052459
C109	C	0.069939	-1.010376	-0.395035
C110	C	0.569939	-0.510376	0.104965
C111	C	0.124716	-1.065128	-0.447556
C112	C	0.624716	-0.565128	0.052444
C113	C	0.179504	-1.119865	-0.395052
C114	C	0.679504	-0.619865	0.104948
C115	C	0.234287	-1.174613	-0.447571
C116	C	0.734287	-0.674613	0.052429
C117	C	0.234270	-1.174621	-0.552593
C118	C	0.734270	-0.674621	-0.052593
C119	C	0.069955	-1.010368	-0.290013
C120	C	0.569955	-0.510368	0.209987
C121	C	0.179518	-1.119856	-0.290024
C122	C	0.679518	-0.619856	0.209976
N123	N	0.124675	-1.065160	0.237370
N124	N	0.624675	-0.565160	0.737370
H125	H	-0.129618	-0.920445	-0.000045
H126	H	0.370382	-0.420445	0.499955
H127	H	-0.582344	-0.911844	-0.000058
H128	H	-0.082344	-0.411844	0.499942
Br129	Br	-0.059217	-0.881376	-0.623824
Br130	Br	0.440783	-0.381376	-0.123824
H131	H	-0.108005	-0.509774	-0.000100
H132	H	0.391995	-0.009774	0.499900
H133	H	-0.620958	-1.209795	-0.000092
H134	H	-0.120958	-0.709795	0.499908
H135	H	-0.029462	-0.911064	-0.404789
H136	H	0.470538	-0.411064	0.095211
H137	H	-0.430643	-0.832411	-0.000046
H138	H	0.069357	-0.332411	0.499954
H139	H	-0.490546	-1.294596	-0.000099
H140	H	0.009454	-0.794596	0.499901
H141	H	-0.019971	-0.810798	-0.000052
H142	H	0.480029	-0.310798	0.499948
Br143	Br	0.398276	-0.418568	-0.000048
Br144	Br	0.898276	0.081432	0.499952
Br145	Br	-0.148859	-0.711703	-0.000048
Br146	Br	0.351141	-0.211703	0.499952
H147	H	-0.260019	-0.835652	-0.000051
H148	H	0.239981	-0.335652	0.499949
Br149	Br	-0.004456	-0.936135	-0.781361
Br150	Br	0.495544	-0.436135	-0.281361
Br151	Br	0.253886	-1.194138	-0.218776
Br152	Br	0.753886	-0.694138	0.281224
H153	H	0.278891	-1.219184	-0.404809
H154	H	0.778891	-0.719184	0.095191
H155	H	-0.168238	-1.218414	-0.000076
H156	H	0.331762	-0.718414	0.499924
Br157	Br	-0.300193	-1.342925	-0.000076
Br158	Br	0.199807	-0.842925	0.499924
Br159	Br	-0.073642	-0.338331	-0.000092
Br160	Br	0.426358	0.161669	0.499908
H161	H	0.277998	-0.772178	-0.000053
H162	H	0.777998	-0.272178	0.499947
Br163	Br	-0.004406	-0.936095	-0.218741
Br164	Br	0.495594	-0.436095	0.281259
Br165	Br	0.313477	-0.288157	-0.000063
Br166	Br	0.813477	0.211843	0.499937
H167	H	0.278869	-1.219195	-0.595363
H168	H	0.778869	-0.719195	-0.095363
Br169	Br	0.402509	-0.640223	-0.000050
Br170	Br	0.902509	-0.140223	0.499950
Br171	Br	0.253817	-1.194185	-0.781397
Br172	Br	0.753817	-0.694185	-0.281397
