data_functionalizedCrystal
_audit_creation_method	'MofGen! by Chris Wilmer'
_symmetry_space_group_name_H-M	'P1'
_symmetry_Int_Tables_number	1
_symmetry_cell_setting	triclinic
loop_
_symmetry_equiv_pos_as_xyz
  x,y,z
_cell_length_a	19.805407
_cell_length_b	16.625545
_cell_length_c	19.805399
_cell_angle_alpha	90.025578
_cell_angle_beta	90.024201
_cell_angle_gamma	90.024805
loop_
_atom_site_label
_atom_site_type_symbol
_atom_site_fract_x
_atom_site_fract_y
_atom_site_fract_z
Zn1	Zn	1.034740	-0.321036	0.382813
Zn2	Zn	1.034656	-0.455874	0.269628
Zn3	Zn	0.921554	-0.321057	0.269628
Zn4	Zn	0.921520	-0.455829	0.382766
O5	O	0.978117	-0.388449	0.326209
O6	O	1.129445	-0.338933	0.367818
O7	O	1.019633	-0.438017	0.174912
O8	O	0.936618	-0.208222	0.284662
O9	O	1.129384	-0.437997	0.284662
O10	O	1.019775	-0.208207	0.367818
O11	O	0.936537	-0.338968	0.174912
O12	O	0.826833	-0.338925	0.284616
O13	O	0.936559	-0.437921	0.477489
O14	O	0.826808	-0.437941	0.367738
O15	O	1.019741	-0.338890	0.477523
O16	O	1.019599	-0.568700	0.284617
O17	O	0.936478	-0.568667	0.367739
C18	C	0.802261	-0.388431	0.326173
C19	C	0.727029	-0.388442	0.326173
C20	C	0.265243	-0.440104	0.369466
C21	C	0.335931	-0.440102	0.369451
C22	C	0.371268	-0.388468	0.326235
C23	C	0.335912	-0.336838	0.283026
C24	C	0.265225	-0.336844	0.283037
C25	C	0.620985	-0.336814	0.282978
C26	C	0.691677	-0.336810	0.282971
C27	C	0.691692	-0.440072	0.369392
C28	C	0.621005	-0.440078	0.369404
C29	C	0.585655	-0.388451	0.326192
C30	C	0.509007	-0.388454	0.326207
C31	C	0.447915	-0.388461	0.326223
C32	C	0.978044	-0.597940	0.326187
C33	C	0.978074	-0.687561	0.326201
C34	C	0.978101	-0.760343	0.326214
C35	C	0.978140	-0.851652	0.326229
C36	C	0.978175	-0.924428	0.326238
C37	C	0.978214	-1.015743	0.326252
C38	C	1.154660	-0.388468	0.326245
C39	C	1.229892	-0.388476	0.326261
C40	C	0.978155	-0.388398	0.502752
C41	C	0.978172	-0.388377	0.577984
C42	C	0.978210	-0.178140	0.326245
C43	C	0.978249	-0.088519	0.326260
C44	C	0.978119	-0.388441	0.150353
C45	C	0.978234	-0.388236	0.075121
C46	C	1.021486	-0.336808	0.613347
C47	C	1.021493	-0.336785	0.684035
C48	C	0.978188	-0.388334	0.719359
C49	C	0.934870	-0.439905	0.683991
C50	C	0.934860	-0.439924	0.613304
C51	C	0.934908	-0.439830	0.969065
C52	C	0.934922	-0.439809	1.039757
C53	C	1.021541	-0.336691	1.039796
C54	C	1.021531	-0.336710	0.969109
C55	C	0.978210	-0.388277	0.933747
C56	C	0.978202	-0.388301	0.857098
C57	C	0.978199	-0.388315	0.796006
H58	H	0.364711	-0.482145	0.404631
N59	N	0.888141	-0.495549	0.575167
H60	H	0.915624	-0.532927	0.545838
H61	H	0.856792	-0.462729	0.545877
H62	H	0.236477	-0.482146	0.404661
H63	H	0.592237	-0.482121	0.404597
N64	N	0.729786	-0.281111	0.236357
H65	H	0.717457	-0.293563	0.187979
H66	H	0.779918	-0.288961	0.242966
H67	H	0.592212	-0.294779	0.247790
N68	N	1.068202	-0.281216	0.575252
H69	H	1.061629	-0.289056	0.525105
H70	H	1.116534	-0.293780	0.587627
N71	N	1.068266	-0.281068	1.077936
H72	H	1.061702	-0.288872	1.128076
H73	H	1.057757	-0.223484	1.065585
H74	H	0.720482	-0.482111	0.404576
N75	N	0.374021	-0.281150	0.236409
H76	H	0.424166	-0.288977	0.242959
H77	H	0.361687	-0.223582	0.247030
H78	H	0.236443	-0.294801	0.247857
H79	H	1.056765	-0.294795	0.712825
H80	H	1.056796	-0.294736	0.940351
H81	H	0.899656	-0.481788	1.068516
H82	H	0.899643	-0.481831	0.940281
H83	H	0.899608	-0.481875	0.712758
