data_functionalizedCrystal
_audit_creation_method	'MofGen! by Chris Wilmer'
_symmetry_space_group_name_H-M	'P1'
_symmetry_Int_Tables_number	1
_symmetry_cell_setting	triclinic
loop_
_symmetry_equiv_pos_as_xyz
  x,y,z
_cell_length_a	10.685976
_cell_length_b	14.909042
_cell_length_c	10.685880
_cell_angle_alpha	90.794215
_cell_angle_beta	90.317159
_cell_angle_gamma	82.626747
loop_
_atom_site_label
_atom_site_type_symbol
_atom_site_fract_x
_atom_site_fract_y
_atom_site_fract_z
Zn1	Zn	2.009001	-0.497508	-0.518904
Zn2	Zn	2.003030	-0.635919	-0.297202
Zn3	Zn	1.781444	-0.474598	-0.327263
Zn4	Zn	1.809581	-0.637624	-0.522876
O5	O	1.900764	-0.561412	-0.416561
O6	O	2.184401	-0.524743	-0.475252
O7	O	1.959361	-0.604218	-0.126542
O8	O	1.802353	-0.351484	-0.363603
O9	O	2.180014	-0.626433	-0.312369
O10	O	1.969538	-0.368316	-0.504401
O11	O	1.796563	-0.485696	-0.148627
O12	O	1.608984	-0.487349	-0.367454
O13	O	1.850309	-0.629339	-0.696997
O14	O	1.629657	-0.607124	-0.511171
O15	O	1.996822	-0.526396	-0.694079
O16	O	1.986645	-0.762298	-0.316220
O17	O	1.844520	-0.763550	-0.482022
C18	C	1.573636	-0.544936	-0.443006
C19	C	1.433693	-0.537911	-0.454347
C20	C	1.918024	-0.795637	-0.396315
C21	C	1.925527	-0.895848	-0.387686
C22	C	1.791463	-1.085508	-0.543994
C23	C	1.798509	-1.179665	-0.535891
C24	C	1.946656	-1.178320	-0.363371
C25	C	1.939611	-1.084163	-0.371474
C26	C	1.862013	-1.037761	-0.461790
C27	C	1.854975	-0.943602	-0.469898
C28	C	2.003115	-0.942259	-0.297373
C29	C	2.010160	-1.036416	-0.289270
C30	C	2.229170	-0.577953	-0.390014
C31	C	2.369116	-0.585002	-0.378701
C32	C	1.927370	-0.580613	-0.742089
C33	C	1.938708	-0.588796	-0.880809
C34	C	1.883473	-0.326276	-0.436912
C35	C	1.876104	-0.226075	-0.445584
C36	C	1.874329	-0.542224	-0.092300
C37	C	1.863216	-0.533800	0.046417
H38	H	1.420897	-0.630703	-0.305260
H39	H	1.791795	-0.905823	-0.543441
H40	H	2.060565	-0.903373	-0.230440
C41	C	1.706126	-1.034464	-0.643345
H42	H	1.665117	-1.076387	-0.691144
H43	H	1.755948	-1.003320	-0.697032
H44	H	1.644647	-0.992201	-0.603147
C45	C	1.720912	-1.232185	-0.626321
H46	H	1.673699	-1.191061	-0.681273
H47	H	1.664941	-1.263389	-0.579803
H48	H	1.776233	-1.274499	-0.673700
C49	C	2.032018	-1.229375	-0.264048
H50	H	2.026115	-1.292290	-0.271007
H51	H	2.005679	-1.208116	-0.182977
H52	H	2.116942	-1.219228	-0.276906
H53	H	2.073334	-1.074210	-0.215735
C54	C	1.764175	-0.461734	-0.894395
H55	H	1.769291	-0.465498	-0.805797
H56	H	1.682271	-0.471905	-0.921401
H57	H	1.779882	-0.403331	-0.919450
C58	C	2.037758	-0.660863	-0.940002
H59	H	2.032657	-0.657092	-1.028599
H60	H	2.022069	-0.719264	-0.914943
H61	H	2.119665	-0.650679	-0.912995
H62	H	1.381920	-0.492222	-0.527794
