data_functionalizedCrystal
_audit_creation_method	'MofGen! by Chris Wilmer'
_symmetry_space_group_name_H-M	'P1'
_symmetry_Int_Tables_number	1
_symmetry_cell_setting	triclinic
loop_
_symmetry_equiv_pos_as_xyz
  x,y,z
_cell_length_a	11.169417
_cell_length_b	29.839131
_cell_length_c	11.169409
_cell_angle_alpha	90.047774
_cell_angle_beta	90.019824
_cell_angle_gamma	90.036108
loop_
_atom_site_label
_atom_site_type_symbol
_atom_site_fract_x
_atom_site_fract_y
_atom_site_fract_z
Zn1	Zn	1.834755	-0.178806	0.678414
Zn2	Zn	1.834557	-0.253948	0.477677
Zn3	Zn	1.634041	-0.178834	0.477748
Zn4	Zn	1.633961	-0.253911	0.678322
O5	O	1.734328	-0.216375	0.578040
O6	O	2.002678	-0.188778	0.651794
O7	O	1.807909	-0.244011	0.309736
O8	O	1.660782	-0.115963	0.504436
O9	O	2.002533	-0.243984	0.504314
O10	O	1.808246	-0.115943	0.651864
O11	O	1.660590	-0.188825	0.309789
O12	O	1.466080	-0.188789	0.504346
O13	O	1.660646	-0.243922	0.846284
O14	O	1.466022	-0.243948	0.651707
O15	O	1.808168	-0.188742	0.846352
O16	O	1.807831	-0.316810	0.504224
O17	O	1.660454	-0.316783	0.651637
C18	C	1.422504	-0.216368	0.578025
C19	C	1.289104	-0.216376	0.578047
C20	C	1.734145	-0.333097	0.577939
C21	C	1.734177	-0.383032	0.577936
C22	C	1.811096	-0.692630	0.654915
C23	C	1.811226	-0.880303	0.654988
O24	O	1.876446	-0.904529	0.720363
N25	N	1.734532	-0.903817	0.578173
C26	C	1.657794	-0.880410	0.501341
O27	O	1.592556	-0.904716	0.436016
C28	C	1.657659	-0.692738	0.501276
C29	C	1.734367	-0.669226	0.578087
C30	C	1.887797	-0.669118	0.731721
C31	C	1.887768	-0.622203	0.731697
C32	C	1.811039	-0.598799	0.654869
C33	C	1.734338	-0.622311	0.578063
C34	C	1.580916	-0.669331	0.424451
C35	C	1.580887	-0.622410	0.424444
C36	C	1.657595	-0.598899	0.501254
C37	C	1.657580	-0.551991	0.501211
N38	N	1.734274	-0.528477	0.578025
C39	C	1.811003	-0.551881	0.654854
C40	C	1.657873	-0.978940	0.501379
C41	C	1.657908	-1.025858	0.501394
C42	C	1.811338	-1.025748	0.655042
C43	C	1.811308	-0.978829	0.655020
C44	C	1.734567	-0.955426	0.578193
C45	C	1.810938	-0.453355	0.654798
C46	C	1.810906	-0.406436	0.654765
C47	C	1.657472	-0.406550	0.501121
C48	C	1.657507	-0.453465	0.501150
C49	C	1.734245	-0.476867	0.577998
O50	O	1.592385	-0.527736	0.435879
O51	O	1.876214	-0.527567	0.720188
C52	C	1.811125	-0.739545	0.654939
C53	C	1.734424	-0.763057	0.578134
C54	C	1.657695	-0.739653	0.501305
C55	C	1.734459	-0.809975	0.578148
C56	C	1.811189	-0.833379	0.654977
C57	C	1.887883	-0.809865	0.731791
C58	C	1.887854	-0.762949	0.731768
C59	C	1.581001	-0.763167	0.424491
C60	C	1.581037	-0.810083	0.424519
C61	C	1.657766	-0.833486	0.501348
C62	C	2.047371	-0.216382	0.578056
C63	C	2.180771	-0.216385	0.578063
C64	C	1.734421	-0.216325	0.891083
C65	C	1.734460	-0.216304	1.024483
C66	C	1.734545	-0.099196	0.578168
C67	C	1.734637	-0.049262	0.578222
C68	C	1.734306	-0.216392	0.266215
C69	C	1.734499	-0.216287	0.132816
H70	H	1.873375	-0.387294	0.717313
O71	O	1.885588	-0.476014	0.729490
C72	C	1.953246	-0.445193	0.797292
H73	H	1.957401	-0.411769	0.748106
H74	H	1.909237	-0.440179	0.888398
C75	C	2.075882	-0.504504	0.875136
C76	C	2.080995	-0.463452	0.814721
H77	H	2.154682	-0.515767	0.885893
H78	H	2.030298	-0.525269	0.829461
H79	H	2.039203	-0.500320	0.951051
H80	H	2.117659	-0.467637	0.738802
H81	H	2.126589	-0.442688	0.860384
O82	O	1.583494	-0.956160	0.426679
C83	C	1.651844	-0.929034	0.349189
H84	H	1.742765	-0.921954	0.391598
H85	H	1.665101	-0.947147	0.260271
C86	C	1.474105	-0.893197	0.275280
C87	C	1.585773	-0.884498	0.327373
H88	H	1.433349	-0.865725	0.261817
H89	H	1.428056	-0.911473	0.327483
H90	H	1.485169	-0.908292	0.201188
H91	H	1.574708	-0.869408	0.401470
H92	H	1.631820	-0.866218	0.275181
O93	O	1.962454	-0.691779	0.806394
C94	C	2.030110	-0.660957	0.874192
H95	H	2.034244	-0.627530	0.825015
H96	H	1.986114	-0.655949	0.965307
C97	C	2.152784	-0.720263	0.952001
C98	C	2.157869	-0.679209	0.891596
H99	H	2.231590	-0.731522	0.962742
H100	H	2.107200	-0.741029	0.906328
H101	H	2.116115	-0.716084	1.027923
H102	H	2.194523	-0.683389	0.815670
H103	H	2.203462	-0.658444	0.937257
O104	O	1.885810	-1.048438	0.729847
C105	C	1.859474	-1.036949	0.849438
H106	H	1.813324	-1.002896	0.851874
H107	H	1.797752	-1.063360	0.889801
C108	C	2.033109	-1.076549	0.919266
C109	C	1.976435	-1.034722	0.922259
H110	H	2.105255	-1.075177	0.964188
H111	H	2.050851	-1.084290	0.838696
H112	H	1.981662	-1.098553	0.952900
H113	H	2.027877	-1.012720	0.888612
H114	H	1.958705	-1.026977	1.002825
H115	H	1.873770	-0.959689	0.717567
O116	O	1.583290	-1.048625	0.426732
C117	C	1.515585	-1.017902	0.358904
H118	H	1.511389	-0.984442	0.408055
H119	H	1.559579	-1.012929	0.267790
C120	C	1.393021	-1.077353	0.281133
C121	C	1.387859	-1.036258	0.341506
H122	H	1.314236	-1.088676	0.270395
H123	H	1.438638	-1.098052	0.326826
H124	H	1.429688	-1.073203	0.205210
H125	H	1.351207	-1.040409	0.417432
H126	H	1.342233	-1.015559	0.295825
O127	O	1.506282	-0.692094	0.349803
C128	C	1.438578	-0.661367	0.281985
H129	H	1.434397	-0.627907	0.331138
H130	H	1.482562	-0.656395	0.190865
C131	C	1.315987	-0.720812	0.204226
C132	C	1.310844	-0.679718	0.264601
H133	H	1.237197	-0.732133	0.193497
H134	H	1.361603	-0.741514	0.249912
H135	H	1.352646	-0.716664	0.128299
H136	H	1.274200	-0.683868	0.340532
H137	H	1.265219	-0.659017	0.218927
O138	O	1.582810	-0.383789	0.426670
C139	C	1.505276	-0.356643	0.494944
H140	H	1.497832	-0.370756	0.589464
H141	H	1.542369	-0.321073	0.499107
C142	C	1.389675	-0.338644	0.320128
C143	C	1.380524	-0.355979	0.436216
H144	H	1.312723	-0.338232	0.283900
H145	H	1.441913	-0.356931	0.274129
H146	H	1.420590	-0.309003	0.323613
H147	H	1.349623	-0.385620	0.432729
H148	H	1.328277	-0.337696	0.482213
H149	H	1.595055	-0.472610	0.438595
O150	O	1.506212	-0.599657	0.349982
C151	C	1.428664	-0.572509	0.418233
H152	H	1.421216	-0.586613	0.512760
H153	H	1.465744	-0.536936	0.422377
C154	C	1.313071	-0.554529	0.243396
C155	C	1.303916	-0.571855	0.359494
H156	H	1.236122	-0.554123	0.207162
H157	H	1.365319	-0.572817	0.197412
H158	H	1.343976	-0.524887	0.246866
H159	H	1.273026	-0.601498	0.356021
H160	H	1.251660	-0.553571	0.405476
H161	H	1.950316	-0.743809	0.794314
H162	H	1.950226	-0.603062	0.794246
O163	O	1.962242	-0.832625	0.806553
C164	C	1.893870	-0.859765	0.883987
H165	H	1.799337	-0.845648	0.891309
H166	H	1.889764	-0.895336	0.846878
C167	C	2.068534	-0.877770	0.999817
C168	C	1.952431	-0.860428	1.008818
H169	H	2.104659	-0.878181	1.076817
H170	H	2.114600	-0.859486	0.947646
H171	H	2.065097	-0.907411	0.968888
H172	H	1.955871	-0.830786	1.039732
H173	H	1.906367	-0.878707	1.060997
H174	H	1.518574	-0.829222	0.361960
H175	H	1.518517	-0.744115	0.361929
