data_functionalizedCrystal
_audit_creation_method	'MofGen! by Chris Wilmer'
_symmetry_space_group_name_H-M	'P1'
_symmetry_Int_Tables_number	1
_symmetry_cell_setting	triclinic
loop_
_symmetry_equiv_pos_as_xyz
  x,y,z
_cell_length_a	21.395362
_cell_length_b	18.101395
_cell_length_c	21.395356
_cell_angle_alpha	89.977170
_cell_angle_beta	89.964230
_cell_angle_gamma	90.046983
loop_
_atom_site_label
_atom_site_type_symbol
_atom_site_fract_x
_atom_site_fract_y
_atom_site_fract_z
Zn1	Zn	0.957807	-0.294550	-0.354598
Zn2	Zn	1.291141	0.038784	-0.021264
Zn3	Zn	1.624474	0.372117	0.312069
Zn4	Zn	0.957724	-0.418388	-0.249825
Zn5	Zn	1.291057	-0.085055	0.083508
Zn6	Zn	1.624391	0.248278	0.416841
Zn7	Zn	0.853037	-0.294599	-0.249799
Zn8	Zn	1.186370	0.038734	0.083534
Zn9	Zn	1.519704	0.372067	0.416868
Zn10	Zn	0.852991	-0.418388	-0.354530
Zn11	Zn	1.186324	-0.085055	-0.021197
Zn12	Zn	1.519657	0.248278	0.312137
O13	O	0.905390	-0.356481	-0.302188
O14	O	1.238723	-0.023148	0.031145
O15	O	1.572056	0.310185	0.364479
O16	O	1.045474	-0.310956	-0.340739
O17	O	1.378807	0.022377	-0.007405
O18	O	1.712141	0.355710	0.325928
O19	O	0.943822	-0.401988	-0.162144
O20	O	1.277155	-0.068655	0.171189
O21	O	1.610488	0.264678	0.504523
O22	O	0.866989	-0.190960	-0.263718
O23	O	1.200323	0.142373	0.069615
O24	O	1.533656	0.475707	0.402949
O25	O	1.045413	-0.401940	-0.263763
O26	O	1.378746	-0.068607	0.069570
O27	O	1.712080	0.264727	0.402904
O28	O	0.943964	-0.190923	-0.340713
O29	O	1.277297	0.142410	-0.007380
O30	O	1.610630	0.475743	0.325953
O31	O	0.866909	-0.311041	-0.162125
O32	O	1.200242	0.022292	0.171209
O33	O	1.533575	0.355625	0.504542
O34	O	0.765353	-0.311041	-0.263652
O35	O	1.098686	0.022292	0.069681
O36	O	1.432020	0.355626	0.403014
O37	O	0.866910	-0.401940	-0.442217
O38	O	1.200244	-0.068607	-0.108884
O39	O	1.533577	0.264727	0.224450
O40	O	0.765319	-0.401988	-0.340598
O41	O	1.098652	-0.068655	-0.007265
O42	O	1.431986	0.264679	0.326069
O43	O	0.943919	-0.310956	-0.442267
O44	O	1.277252	0.022377	-0.108933
O45	O	1.610585	0.355710	0.224400
O46	O	0.943777	-0.522021	-0.263697
O47	O	1.277110	-0.188688	0.069636
O48	O	1.610443	0.144645	0.402969
O49	O	0.866829	-0.522021	-0.340623
O50	O	1.200163	-0.188688	-0.007290
O51	O	1.533496	0.144646	0.326043
C52	C	0.742602	-0.356521	-0.302115
C53	C	1.075935	-0.023187	0.031218
C54	C	1.409269	0.310146	0.364551
C55	C	0.672961	-0.356555	-0.302099
C56	C	1.006294	-0.023222	0.031234
C57	C	1.339627	0.310112	0.364568
C58	C	0.640246	-0.403974	-0.342105
C59	C	0.973580	-0.070641	-0.008771
C60	C	1.306913	0.262693	0.324562
C61	C	0.574811	-0.403956	-0.342132
C62	C	0.908144	-0.070623	-0.008799
C63	C	1.241478	0.262711	0.324534
C64	C	0.542093	-0.356527	-0.302144
C65	C	0.875426	-0.023193	0.031190
C66	C	1.208759	0.310140	0.364523
C67	C	0.574815	-0.309099	-0.262135
C68	C	0.908148	0.024235	0.071198
C69	C	1.241482	0.357568	0.404531
C70	C	0.640249	-0.309113	-0.262113
C71	C	0.973582	0.024221	0.071220
C72	C	1.306916	0.357554	0.404554
C73	C	0.438376	-0.350569	-0.245738
C74	C	0.771709	-0.017236	0.087595
C75	C	1.105043	0.316098	0.420928
C76	C	0.372943	-0.350560	-0.245760
C77	C	0.706276	-0.017226	0.087574
C78	C	1.039610	0.316107	0.420907
C79	C	0.340272	-0.356478	-0.302213
C80	C	0.673605	-0.023145	0.031120
C81	C	1.006938	0.310188	0.364454
C82	C	0.373042	-0.362421	-0.358647
C83	C	0.706375	-0.029088	-0.025313
C84	C	1.039708	0.304245	0.308020
C85	C	0.438476	-0.362436	-0.358624
C86	C	0.771809	-0.029102	-0.025291
C87	C	1.105143	0.304231	0.308042
C88	C	0.471140	-0.356506	-0.302164
C89	C	0.804474	-0.023172	0.031170
C90	C	1.137807	0.310161	0.364503
C91	C	0.236605	-0.403880	-0.342252
C92	C	0.569938	-0.070547	-0.008919
C93	C	0.903271	0.262787	0.324415
C94	C	0.171168	-0.403857	-0.342281
C95	C	0.504502	-0.070523	-0.008948
C96	C	0.837835	0.262810	0.324386
C97	C	0.171173	-0.309003	-0.262278
C98	C	0.504507	0.024330	0.071055
C99	C	0.837840	0.357663	0.404388
C100	C	0.236609	-0.309023	-0.262255
C101	C	0.569942	0.024311	0.071078
C102	C	0.903275	0.357644	0.404412
C103	C	0.269321	-0.356465	-0.302241
C104	C	0.602654	-0.023132	0.031092
C105	C	0.935987	0.310202	0.364426
C106	C	0.905306	-0.548892	-0.302170
C107	C	1.238639	-0.215559	0.031164
C108	C	1.571973	0.117775	0.364497
C109	C	0.905327	-0.631206	-0.302183
C110	C	1.238661	-0.297873	0.031151
C111	C	1.571994	0.035461	0.364484
C112	C	0.905465	-0.930297	-0.302216
C113	C	1.238798	-0.596964	0.031117
C114	C	1.572132	-0.263630	0.364450
C115	C	0.857164	-0.899003	-0.350736
C116	C	1.190497	-0.565669	-0.017403
C117	C	1.523831	-0.232336	0.315930
C118	C	0.856935	-0.813385	-0.350585
C119	C	1.190268	-0.480051	-0.017251
C120	C	1.523601	-0.146718	0.316082
C121	C	0.905397	-0.781914	-0.302200
C122	C	1.238730	-0.448581	0.031133
C123	C	1.572063	-0.115248	0.364466
C124	C	0.887523	-0.813066	-0.236161
C125	C	1.220857	-0.479732	0.097172
C126	C	1.554190	-0.146399	0.430506
C127	C	0.887212	-0.898711	-0.236451
C128	C	1.220545	-0.565378	0.096882
C129	C	1.553879	-0.232044	0.430215
C130	C	0.971745	-0.898620	-0.319154
C131	C	1.305078	-0.565287	0.014179
C132	C	1.638411	-0.231954	0.347512
C133	C	0.971355	-0.812970	-0.320602
C134	C	1.304688	-0.479636	0.012731
C135	C	1.638021	-0.146303	0.346064
C136	C	0.905359	-0.698055	-0.302187
C137	C	1.238692	-0.364722	0.031146
C138	C	1.572026	-0.031388	0.364480
C139	C	0.905501	-1.014156	-0.302225
C140	C	1.238834	-0.680823	0.031108
C141	C	1.572167	-0.347490	0.364441
C142	C	1.068813	-0.356443	-0.302261
C143	C	1.402146	-0.023109	0.031072
C144	C	1.735480	0.310224	0.364405
C145	C	1.138454	-0.356426	-0.302293
C146	C	1.471788	-0.023093	0.031041
C147	C	1.805121	0.310241	0.364374
C148	C	0.905418	-0.356442	-0.465611
C149	C	1.238752	-0.023109	-0.132278
C150	C	1.572085	0.310224	0.201055
C151	C	0.905431	-0.356426	-0.535253
C152	C	1.238764	-0.023093	-0.201919
C153	C	1.572097	0.310241	0.131414
C154	C	0.905491	-0.163319	-0.302220
C155	C	1.238824	0.170014	0.031113
C156	C	1.572158	0.503347	0.364446
C157	C	0.905534	-0.081005	-0.302234
C158	C	1.238867	0.252328	0.031099
C159	C	1.572201	0.585661	0.364433
C160	C	0.945550	-0.403627	-1.037060
C161	C	1.278883	-0.070293	-0.703726
C162	C	1.612216	0.263040	-0.370393
C163	C	0.945538	-0.403650	-0.971624
C164	C	1.278872	-0.070317	-0.638291
C165	C	1.612205	0.263016	-0.304958
C166	C	0.905490	-0.356308	-0.938891
C167	C	1.238824	-0.022975	-0.605558
C168	C	1.572157	0.310358	-0.272225
C169	C	0.865439	-0.308953	-0.971599
C170	C	1.198773	0.024380	-0.638266
C171	C	1.532106	0.357714	-0.304932
C172	C	0.865447	-0.308936	-1.037033
C173	C	1.198781	0.024397	-0.703700
C174	C	1.532114	0.357731	-0.370367
C175	C	0.900565	-0.289615	-0.835232
C176	C	1.233899	0.043719	-0.501898
C177	C	1.567232	0.377052	-0.168565
C178	C	0.900562	-0.289630	-0.769799
C179	C	1.233895	0.043703	-0.436465
C180	C	1.567228	0.377036	-0.103132
C181	C	0.905462	-0.356361	-0.737070
C182	C	1.238796	-0.023028	-0.403737
C183	C	1.572129	0.310306	-0.070404
C184	C	0.910379	-0.423078	-0.769783
C185	C	1.243713	-0.089745	-0.436450
C186	C	1.577046	0.243589	-0.103116
C187	C	0.910387	-0.423061	-0.835217
C188	C	1.243721	-0.089728	-0.501884
C189	C	1.577054	0.243606	-0.168551
C190	C	0.905477	-0.356322	-0.867939
C191	C	1.238810	-0.022988	-0.534605
C192	C	1.572144	0.310345	-0.201272
C193	C	0.945495	-0.403743	-0.633418
C194	C	1.278829	-0.070409	-0.300084
C195	C	1.612162	0.262924	0.033249
C196	C	0.945480	-0.403767	-0.567981
C197	C	1.278813	-0.070434	-0.234648
C198	C	1.612146	0.262899	0.098686
C199	C	0.865384	-0.309063	-0.567957
C200	C	1.198717	0.024270	-0.234624
C201	C	1.532051	0.357603	0.098709
C202	C	0.865396	-0.309045	-0.633393
C203	C	1.198730	0.024288	-0.300059
C204	C	1.532063	0.357621	0.033274
C205	C	0.905455	-0.356384	-0.666119
C206	C	1.238789	-0.023050	-0.332786
C207	C	1.572122	0.310283	0.000548
C208	C	0.905397	-0.356467	-0.139400
C209	C	1.238731	-0.023133	0.193933
C210	C	1.572064	0.310200	0.527266
C211	C	0.905506	-0.356275	-0.069760
C212	C	1.238840	-0.022941	0.263574
C213	C	1.572173	0.310392	0.596907
H214	H	0.464971	-0.345746	-0.199764
H215	H	0.798305	-0.012413	0.133569
H216	H	1.131638	0.320920	0.466903
H217	H	0.548171	-0.270480	-0.229577
H218	H	0.881505	0.062853	0.103756
H219	H	1.214838	0.396187	0.437089
F220	F	0.931195	-0.925773	-0.187583
F221	F	1.264528	-0.592440	0.145750
F222	F	1.597862	-0.259107	0.479084
F223	F	0.473350	-0.368757	-0.418684
F224	F	0.806683	-0.035424	-0.085350
F225	F	1.140016	0.297909	0.247983
F226	F	0.871632	-0.925862	-0.414948
F227	F	1.204965	-0.592529	-0.081615
F228	F	1.538298	-0.259196	0.251718
F229	F	0.824865	-0.785137	-0.217074
F230	F	1.158199	-0.451804	0.116259
F231	F	1.491532	-0.118470	0.449593
H232	H	0.921597	-0.792681	-0.199023
H233	H	1.254930	-0.459347	0.134310
H234	H	1.588264	-0.126014	0.467644
H235	H	0.666885	-0.270496	-0.229536
H236	H	1.000218	0.062837	0.103798
H237	H	1.333552	0.396170	0.437131
F238	F	0.988179	-0.454015	-1.071886
F239	F	1.321512	-0.120682	-0.738552
F240	F	1.654846	0.212651	-0.405219
H241	H	0.914390	-0.477384	-0.861849
H242	H	1.247723	-0.144051	-0.528516
H243	H	1.581056	0.189282	-0.195183
H244	H	0.868116	-0.792321	-0.399551
H245	H	1.201450	-0.458988	-0.066218
H246	H	1.534783	-0.125655	0.267115
H247	H	0.896561	-0.235305	-0.743169
H248	H	1.229895	0.098028	-0.409836
H249	H	1.563228	0.431361	-0.076502
F250	F	0.136351	-0.454325	-0.384866
F251	F	0.469685	-0.120992	-0.051533
F252	F	0.803018	0.212341	0.281801
H253	H	0.988040	-0.920167	-0.366491
H254	H	1.321374	-0.586834	-0.033157
H255	H	1.654707	-0.253501	0.300176
F256	F	0.338276	-0.368717	-0.418734
F257	F	0.671610	-0.035384	-0.085400
F258	F	1.004943	0.297949	0.247933
H259	H	0.914371	-0.477416	-0.743137
H260	H	1.247704	-0.144083	-0.409804
H261	H	1.581038	0.189250	-0.076471
F262	F	0.988128	-0.454124	-0.668250
F263	F	1.321462	-0.120791	-0.334917
F264	F	1.654795	0.212542	-0.001583
H265	H	0.808335	-0.920604	-0.339656
H266	H	1.141668	-0.587271	-0.006323
H267	H	1.475001	-0.253937	0.327011
H268	H	0.832791	-0.270483	-0.660017
H269	H	1.166125	0.062850	-0.326684
H270	H	1.499458	0.396183	0.006649
H271	H	0.263240	-0.442507	-0.374814
H272	H	0.596573	-0.109173	-0.041481
H273	H	0.929907	0.224160	0.291852
F274	F	0.792720	-0.786706	-0.335920
F275	F	1.126053	-0.453373	-0.002587
F276	F	1.459386	-0.120040	0.330747
H277	H	0.548170	-0.442570	-0.374712
H278	H	0.881503	-0.109236	-0.041379
H279	H	1.214836	0.224097	0.291955
F280	F	0.271427	-0.258554	-0.219673
F281	F	0.604761	0.074779	0.113660
F282	F	0.938094	0.408113	0.446993
H283	H	0.144535	-0.270382	-0.229722
H284	H	0.477868	0.062951	0.103612
H285	H	0.811201	0.396285	0.436945
F286	F	0.988099	-0.454172	-0.533180
F287	F	1.321432	-0.120839	-0.199846
F288	F	1.654766	0.212495	0.133487
F289	F	0.823885	-0.924930	-0.217701
F290	F	1.157218	-0.591596	0.115633
F291	F	1.490551	-0.258263	0.448966
H292	H	0.984833	-0.792607	-0.369204
H293	H	1.318166	-0.459273	-0.035871
H294	H	1.651500	-0.125940	0.297463
F295	F	0.988159	-0.454052	-0.936815
F296	F	1.321492	-0.120718	-0.603482
F297	F	1.654826	0.212615	-0.270149
F298	F	1.020883	-0.784957	-0.277784
F299	F	1.354216	-0.451624	0.055549
F300	F	1.687549	-0.118291	0.388882
H301	H	1.007730	-0.918855	-0.283816
H302	H	1.341064	-0.585522	0.049518
H303	H	1.674397	-0.252189	0.382851
H304	H	0.896616	-0.235267	-0.861874
H305	H	1.229949	0.098067	-0.528540
H306	H	1.563283	0.431400	-0.195207
H307	H	0.832839	-0.270375	-1.063657
H308	H	1.166172	0.062959	-0.730324
H309	H	1.499505	0.396292	-0.396990
F310	F	0.675057	-0.454464	-0.384663
F311	F	1.008390	-0.121131	-0.051330
F312	F	1.341723	0.212202	0.282003
F313	F	0.338073	-0.344235	-0.185698
F314	F	0.671406	-0.010902	0.147635
F315	F	1.004739	0.322432	0.480968
F316	F	0.822749	-0.258694	-0.533125
F317	F	1.156082	0.074640	-0.199791
F318	F	1.489415	0.407973	0.133542
F319	F	0.822819	-0.258567	-0.936761
F320	F	1.156152	0.074766	-0.603428
F321	F	1.489485	0.408100	-0.270095
