data_functionalizedCrystal
_audit_creation_method	'MofGen! by Chris Wilmer'
_symmetry_space_group_name_H-M	'P1'
_symmetry_Int_Tables_number	1
_symmetry_cell_setting	triclinic
loop_
_symmetry_equiv_pos_as_xyz
  x,y,z
_cell_length_a	10.489711
_cell_length_b	14.971486
_cell_length_c	14.048226
_cell_angle_alpha	90.006640
_cell_angle_beta	90.007977
_cell_angle_gamma	84.070569
loop_
_atom_site_label
_atom_site_type_symbol
_atom_site_fract_x
_atom_site_fract_y
_atom_site_fract_z
O1	O	-1.692620	-0.126071	-0.079196
O2	O	-1.192620	0.373929	0.420804
O3	O	-1.321282	-0.137944	-0.079190
O4	O	-0.821282	0.362056	0.420810
O5	O	-1.516904	-0.001863	-0.079186
O6	O	-1.016904	0.498137	0.420814
O7	O	-1.496998	-0.262152	-0.079199
O8	O	-0.996998	0.237848	0.420801
O9	O	-1.516880	-0.001855	0.079135
O10	O	-1.016880	0.498145	0.579135
O11	O	-1.321258	-0.137936	0.079131
O12	O	-0.821258	0.362064	0.579131
O13	O	-1.692596	-0.126063	0.079126
O14	O	-1.192596	0.373937	0.579126
Zn15	Zn	-1.506924	-0.131998	0.104265
Zn16	Zn	-1.006924	0.368002	0.604265
Zn17	Zn	-1.506955	-0.132009	-0.104330
Zn18	Zn	-1.006955	0.367991	0.395670
O19	O	-1.496975	-0.262144	0.079122
O20	O	-0.996975	0.237856	0.579122
C21	C	-1.516002	0.031470	-0.000026
C22	C	-1.016002	0.531470	0.499974
C23	C	-1.513334	0.130782	-0.000027
C24	C	-1.013334	0.630782	0.499973
C25	C	-1.273748	-0.137049	-0.000029
C26	C	-0.773748	0.362951	0.499971
C27	C	-1.132148	-0.134383	-0.000026
C28	C	-0.632148	0.365617	0.499974
C29	C	-1.740130	-0.126958	-0.000038
C30	C	-1.240130	0.373042	0.499962
C31	C	-1.881731	-0.129624	-0.000046
C32	C	-1.381731	0.370376	0.499954
C33	C	-0.948814	-0.216218	-0.000041
C34	C	-0.448814	0.283782	0.499959
C35	C	-1.041444	-0.175344	-0.078098
C36	C	-0.541444	0.324656	0.421902
C37	C	-1.041394	-0.175314	0.077994
C38	C	-0.541394	0.324686	0.577994
C39	C	-0.972496	-0.088715	-0.078168
C40	C	-0.472496	0.411285	0.421832
C41	C	-0.972436	-0.088696	0.077995
C42	C	-0.472436	0.411304	0.577995
C43	C	-1.065040	-0.047760	-0.000082
C44	C	-0.565040	0.452240	0.499918
C45	C	-1.497877	-0.295477	-0.000041
C46	C	-0.997877	0.204523	0.499959
C47	C	-1.500544	-0.394789	-0.000046
C48	C	-1.000544	0.105211	0.499954
N49	N	-1.506912	-0.131990	0.246626
N50	N	-1.006912	0.368010	0.746626
C51	C	-1.628257	0.187362	-0.000028
C52	C	-1.128257	0.687362	0.499972
C53	C	-1.625742	0.280676	-0.000037
C54	C	-1.125742	0.780676	0.499963
C55	C	-1.508304	0.317408	-0.000039
C56	C	-1.008304	0.817408	0.499961
C57	C	-1.393373	0.260821	-0.000041
C58	C	-0.893373	0.760821	0.499959
C59	C	-1.395889	0.167509	-0.000038
C60	C	-0.895889	0.667509	0.499962
C61	C	-1.388138	0.455312	-0.000044
C62	C	-0.888138	0.955312	0.499956
C63	C	-1.385622	0.548631	-0.000045
C64	C	-0.885622	1.048631	0.499955
C65	C	-1.617992	0.568480	-0.000043
C66	C	-1.117992	1.068480	0.499957
C67	C	-1.620507	0.475168	-0.000041
C68	C	-1.120507	0.975168	0.499959
C69	C	-1.505575	0.418587	-0.000041
C70	C	-1.005575	0.918587	0.499959
N71	N	-1.506977	-0.132010	-0.246690
N72	N	-1.006977	0.367990	0.253310
C73	C	-1.593560	-0.071759	0.296446
C74	C	-1.093560	0.428241	0.796446
C75	C	-1.593569	-0.071758	0.396104
C76	C	-1.093569	0.428242	0.896104
C77	C	-1.506934	-0.131994	0.445940
C78	C	-1.006934	0.368006	0.945940
C79	C	-1.420276	-0.192228	0.396113
C80	C	-0.920276	0.307772	0.896113
C81	C	-1.420263	-0.192224	0.296457
C82	C	-0.920263	0.307776	0.796457
C83	C	-1.420313	-0.192235	0.603827
C84	C	-0.920313	0.307765	1.103827
C85	C	-1.420328	-0.192241	0.703490
C86	C	-0.920328	0.307759	1.203490
C87	C	-1.593620	-0.071770	0.703474
C88	C	-1.093620	0.428230	1.203474
C89	C	-1.593606	-0.071765	0.603818
C90	C	-1.093606	0.428235	1.103818
C91	C	-1.506949	-0.132001	0.553998
C92	C	-1.006949	0.367999	1.053998
H93	H	-0.898300	-0.287392	-0.000123
H94	H	-0.398300	0.212608	0.499877
H95	H	-0.941827	-0.052083	0.143993
H96	H	-0.441827	0.447917	0.643993
Cl97	Cl	-1.237983	0.594807	-0.000046
Cl98	Cl	-0.737983	1.094807	0.499954
H99	H	-1.302307	0.121442	-0.000037
H100	H	-0.802307	0.621442	0.499963
Cl101	Cl	-1.088644	-0.231915	-0.179995
Cl102	Cl	-0.588644	0.268085	0.320005
Cl103	Cl	-0.925609	-0.032194	-0.180169
Cl104	Cl	-0.425609	0.467806	0.319831
Cl105	Cl	-1.762478	0.639609	-0.000048
Cl106	Cl	-1.262478	1.139609	0.499952
Cl107	Cl	-1.142688	0.062223	-0.000137
Cl108	Cl	-0.642688	0.562223	0.499863
Cl109	Cl	-1.311356	-0.267951	0.458762
Cl110	Cl	-0.811356	0.232049	0.958762
Cl111	Cl	-1.702499	0.003963	0.458736
Cl112	Cl	-1.202499	0.503963	0.958736
H113	H	-1.664178	-0.022724	0.744043
H114	H	-1.164178	0.477276	1.244043
Cl115	Cl	-1.245735	0.306998	-0.000055
Cl116	Cl	-0.745735	0.806998	0.499945
Cl117	Cl	-1.768146	0.428992	-0.000043
Cl118	Cl	-1.268146	0.928992	0.499957
H119	H	-1.294548	0.409246	-0.000047
H120	H	-0.794548	0.909246	0.499953
H121	H	-1.349703	-0.241269	0.255895
H122	H	-0.849703	0.258731	0.755895
H123	H	-1.664114	-0.022712	0.255876
H124	H	-1.164114	0.477288	0.755876
Cl125	Cl	-1.702526	0.003954	0.541165
Cl126	Cl	-1.202526	0.503954	1.041165
Cl127	Cl	-1.088523	-0.231900	0.179879
Cl128	Cl	-0.588523	0.268100	0.679879
Cl129	Cl	-1.311407	-0.267968	0.766133
Cl130	Cl	-0.811407	0.232032	1.266133
Cl131	Cl	-1.775902	0.141195	-0.000016
Cl132	Cl	-1.275902	0.641195	0.499984
Cl133	Cl	-1.311367	-0.267960	0.541200
Cl134	Cl	-0.811367	0.232040	1.041200
Cl135	Cl	-1.770223	0.351802	-0.000036
Cl136	Cl	-1.270223	0.851802	0.499964
