data_functionalizedCrystal
_audit_creation_method	'MofGen! by Chris Wilmer'
_symmetry_space_group_name_H-M	'P1'
_symmetry_Int_Tables_number	1
_symmetry_cell_setting	triclinic
loop_
_symmetry_equiv_pos_as_xyz
  x,y,z
_cell_length_a	14.044220
_cell_length_b	27.732048
_cell_length_c	13.101039
_cell_angle_alpha	93.329410
_cell_angle_beta	86.340132
_cell_angle_gamma	87.915767
loop_
_atom_site_label
_atom_site_type_symbol
_atom_site_fract_x
_atom_site_fract_y
_atom_site_fract_z
O1	O	1.261246	0.114020	-0.085126
O2	O	1.511246	0.364020	0.164874
O3	O	1.761246	0.614020	0.414874
O4	O	2.011246	0.864020	0.664874
O5	O	0.985339	0.109817	-0.085151
O6	O	1.235339	0.359817	0.164849
O7	O	1.485339	0.609817	0.414849
O8	O	1.735339	0.859817	0.664849
O9	O	1.131860	0.041925	-0.085119
O10	O	1.381860	0.291925	0.164881
O11	O	1.631860	0.541925	0.414881
O12	O	1.881860	0.791925	0.664881
O13	O	1.114725	0.181913	-0.085159
O14	O	1.364725	0.431913	0.164841
O15	O	1.614725	0.681913	0.414841
O16	O	1.864725	0.931913	0.664841
O17	O	1.121348	0.046805	0.085309
O18	O	1.371348	0.296805	0.335309
O19	O	1.621348	0.546805	0.585309
O20	O	1.871348	0.796805	0.835309
O21	O	0.974827	0.114697	0.085276
O22	O	1.224827	0.364697	0.335276
O23	O	1.474827	0.614697	0.585276
O24	O	1.724827	0.864697	0.835276
O25	O	1.250733	0.118900	0.085301
O26	O	1.500733	0.368900	0.335301
O27	O	1.750733	0.618900	0.585301
O28	O	2.000733	0.868900	0.835301
Zn29	Zn	1.111111	0.117574	0.112348
Zn30	Zn	1.361111	0.367574	0.362348
Zn31	Zn	1.611111	0.617574	0.612348
Zn32	Zn	1.861111	0.867574	0.862348
Zn33	Zn	1.124962	0.111144	-0.112198
Zn34	Zn	1.374962	0.361144	0.137802
Zn35	Zn	1.624962	0.611144	0.387802
Zn36	Zn	1.874962	0.861144	0.637802
O37	O	1.104212	0.186793	0.085268
O38	O	1.354212	0.436793	0.335268
O39	O	1.604212	0.686793	0.585268
O40	O	1.854212	0.936793	0.835268
C41	C	0.944796	0.110418	0.000059
C42	C	1.194796	0.360418	0.250059
C43	C	1.444796	0.610418	0.500059
C44	C	1.694796	0.860418	0.750059
C45	C	0.839651	0.104930	0.000051
C46	C	1.089651	0.354930	0.250051
C47	C	1.339651	0.604930	0.500051
C48	C	1.589651	0.854930	0.750051
C49	C	1.126244	0.026341	0.000098
C50	C	1.376244	0.276341	0.250098
C51	C	1.626244	0.526341	0.500098
C52	C	1.876244	0.776341	0.750098
C53	C	1.125160	-0.027364	0.000106
C54	C	1.375160	0.222636	0.250106
C55	C	1.625160	0.472636	0.500106
C56	C	1.875160	0.722636	0.750106
C57	C	0.647135	0.094899	0.000074
C58	C	0.897135	0.344899	0.250074
C59	C	1.147135	0.594899	0.500074
C60	C	1.397135	0.844899	0.750074
C61	C	0.588932	0.133816	0.000067
C62	C	0.838932	0.383816	0.250067
C63	C	1.088932	0.633816	0.500067
C64	C	1.338932	0.883816	0.750067
C65	C	0.481810	0.128235	0.000080
C66	C	0.731810	0.378235	0.250080
C67	C	0.981810	0.628235	0.500080
C68	C	1.231810	0.878235	0.750080
C69	C	0.754268	0.100480	0.000061
C70	C	1.004268	0.350480	0.250061
C71	C	1.254268	0.600480	0.500061
C72	C	1.504268	0.850480	0.750061
C73	C	1.204929	-0.362438	0.000061
C74	C	1.454929	-0.112438	0.250061
C75	C	1.704929	0.137562	0.500061
C76	C	1.954929	0.387562	0.750061
C77	C	1.200910	-0.564286	0.000046
C78	C	1.450910	-0.314286	0.250046
C79	C	1.700910	-0.064286	0.500046
C80	C	1.950910	0.185714	0.750046
O81	O	1.273853	-0.592120	0.000008
O82	O	1.523853	-0.342120	0.250008
O83	O	1.773853	-0.092120	0.500008
O84	O	2.023853	0.157880	0.750008
N85	N	1.114029	-0.587487	0.000039
N86	N	1.364029	-0.337487	0.250039
N87	N	1.614029	-0.087487	0.500039
N88	N	1.864029	0.162513	0.750039
C89	C	1.028146	-0.560223	0.000029
C90	C	1.278146	-0.310223	0.250029
C91	C	1.528146	-0.060223	0.500029
C92	C	1.778146	0.189777	0.750029
O93	O	0.954156	-0.584589	0.000012
O94	O	1.204156	-0.334589	0.250012
O95	O	1.454156	-0.084589	0.500012
O96	O	1.704156	0.165411	0.750012
C97	C	1.032166	-0.358376	0.000037
C98	C	1.282166	-0.108376	0.250037
C99	C	1.532166	0.141624	0.500037
C100	C	1.782166	0.391624	0.750037
C101	C	1.119052	-0.335177	0.000054
C102	C	1.369052	-0.085177	0.250054
C103	C	1.619052	0.164823	0.500054
C104	C	1.869052	0.414823	0.750054
C105	C	1.291808	-0.339239	0.000077
C106	C	1.541808	-0.089239	0.250077
C107	C	1.791808	0.160761	0.500077
C108	C	2.041808	0.410761	0.750077
C109	C	1.292812	-0.288779	0.000086
C110	C	1.542812	-0.038779	0.250086
C111	C	1.792812	0.211221	0.500086
C112	C	2.042812	0.461221	0.750086
C113	C	1.206935	-0.261519	0.000079
C114	C	1.456935	-0.011519	0.250079
C115	C	1.706935	0.238481	0.500079
C116	C	1.956935	0.488481	0.750079
C117	C	1.120056	-0.284718	0.000063
C118	C	1.370056	-0.034718	0.250063
C119	C	1.620056	0.215282	0.500063
C120	C	1.870056	0.465282	0.750063
C121	C	0.946285	-0.331113	0.000019
C122	C	1.196285	-0.081113	0.250019
C123	C	1.446285	0.168887	0.500019
C124	C	1.696285	0.418887	0.750019
C125	C	0.947297	-0.280648	0.000018
C126	C	1.197297	-0.030648	0.250018
C127	C	1.447297	0.219352	0.500018
C128	C	1.697297	0.469352	0.750018
C129	C	1.034184	-0.257449	0.000036
C130	C	1.284184	-0.007449	0.250036
C131	C	1.534184	0.242551	0.500036
C132	C	1.784184	0.492551	0.750036
C133	C	1.035183	-0.206998	0.000066
C134	C	1.285183	0.043002	0.250066
C135	C	1.535183	0.293002	0.500066
C136	C	1.785183	0.543002	0.750066
N137	N	1.122064	-0.183797	0.000072
N138	N	1.372064	0.066203	0.250072
N139	N	1.622064	0.316203	0.500072
N140	N	1.872064	0.566203	0.750072
C141	C	1.207941	-0.211057	0.000079
C142	C	1.457941	0.038943	0.250079
C143	C	1.707941	0.288943	0.500079
C144	C	1.957941	0.538943	0.750079
C145	C	1.026042	-0.666196	0.000027
C146	C	1.276042	-0.416196	0.250027
C147	C	1.526042	-0.166196	0.500027
C148	C	1.776042	0.083804	0.750027
C149	C	1.025036	-0.716658	0.000027
C150	C	1.275036	-0.466658	0.250027
C151	C	1.525036	-0.216658	0.500027
C152	C	1.775036	0.033342	0.750027
C153	C	1.197801	-0.720717	0.000043
C154	C	1.447801	-0.470717	0.250043
C155	C	1.697801	-0.220717	0.500043
C156	C	1.947801	0.029283	0.750043
C157	C	1.198805	-0.670255	0.000050
C158	C	1.448805	-0.420255	0.250050
C159	C	1.698805	-0.170255	0.500050
C160	C	1.948805	0.079745	0.750050
C161	C	1.112923	-0.642995	0.000034
C162	C	1.362923	-0.392995	0.250034
C163	C	1.612923	-0.142995	0.500034
C164	C	1.862923	0.107005	0.750034
C165	C	1.210041	-0.105089	0.000100
C166	C	1.460041	0.144911	0.250100
C167	C	1.710041	0.394911	0.500100
C168	C	1.960041	0.644911	0.750100
C169	C	1.211037	-0.054625	0.000113
C170	C	1.461037	0.195375	0.250113
C171	C	1.711037	0.445375	0.500113
C172	C	1.961037	0.695375	0.750113
C173	C	1.038273	-0.050570	0.000093
C174	C	1.288273	0.199430	0.250093
C175	C	1.538273	0.449430	0.500093
C176	C	1.788273	0.699430	0.750093
C177	C	1.037276	-0.101030	0.000085
C178	C	1.287276	0.148970	0.250085
C179	C	1.537276	0.398970	0.500085
C180	C	1.787276	0.648970	0.750085
C181	C	1.123168	-0.128288	0.000085
C182	C	1.373168	0.121712	0.250085
C183	C	1.623168	0.371712	0.500085
C184	C	1.873168	0.621712	0.750085
O185	O	0.962280	-0.179134	0.000092
O186	O	1.212280	0.070866	0.250092
O187	O	1.462280	0.320866	0.500092
O188	O	1.712280	0.570866	0.750092
O189	O	1.281921	-0.186683	0.000073
O190	O	1.531921	0.063317	0.250073
O191	O	1.781921	0.313317	0.500073
O192	O	2.031921	0.563317	0.750073
C193	C	1.203925	-0.412897	0.000052
C194	C	1.453925	-0.162897	0.250052
C195	C	1.703925	0.087103	0.500052
C196	C	1.953925	0.337103	0.750052
C197	C	1.117046	-0.436096	0.000035
C198	C	1.367046	-0.186096	0.250035
C199	C	1.617046	0.063904	0.500035
C200	C	1.867046	0.313904	0.750035
C201	C	1.031169	-0.408835	0.000029
C202	C	1.281169	-0.158835	0.250029
C203	C	1.531169	0.091165	0.500029
C204	C	1.781169	0.341165	0.750029
C205	C	1.116040	-0.486557	0.000035
C206	C	1.366040	-0.236557	0.250035
C207	C	1.616040	0.013443	0.500035
C208	C	1.866040	0.263443	0.750035
C209	C	1.201917	-0.513818	0.000042
C210	C	1.451917	-0.263818	0.250042
C211	C	1.701917	-0.013818	0.500042
C212	C	1.951917	0.236182	0.750042
C213	C	1.288798	-0.490617	0.000049
C214	C	1.538798	-0.240617	0.250049
C215	C	1.788798	0.009383	0.500049
C216	C	2.038798	0.259383	0.750049
C217	C	1.289802	-0.440157	0.000059
C218	C	1.539802	-0.190157	0.250059
C219	C	1.789802	0.059843	0.500059
C220	C	2.039802	0.309843	0.750059
C221	C	0.944288	-0.432037	0.000022
C222	C	1.194288	-0.182037	0.250022
C223	C	1.444288	0.067963	0.500022
C224	C	1.694288	0.317963	0.750022
C225	C	0.943292	-0.482496	0.000013
C226	C	1.193292	-0.232496	0.250013
C227	C	1.443292	0.017504	0.500013
C228	C	1.693292	0.267504	0.750013
C229	C	1.029168	-0.509756	0.000020
C230	C	1.279168	-0.259756	0.250020
C231	C	1.529168	-0.009756	0.500020
C232	C	1.779168	0.240244	0.750020
C233	C	1.291277	0.118300	0.000088
C234	C	1.541277	0.368300	0.250088
C235	C	1.791277	0.618300	0.500088
C236	C	2.041277	0.868300	0.750088
C237	C	1.396422	0.123787	0.000090
C238	C	1.646422	0.373787	0.250090
C239	C	1.896422	0.623787	0.500090
C240	C	2.146422	0.873787	0.750090
C241	C	1.109828	0.202376	0.000050
C242	C	1.359828	0.452376	0.250050
C243	C	1.609828	0.702376	0.500050
C244	C	1.859828	0.952376	0.750050
C245	C	1.110913	0.256082	0.000034
C246	C	1.360913	0.506082	0.250034
C247	C	1.610913	0.756082	0.500034
C248	C	1.860913	1.006082	0.750034
N249	N	1.101664	0.121962	0.265594
N250	N	1.351664	0.371962	0.515594
N251	N	1.601664	0.621962	0.765594
N252	N	1.851664	0.871962	1.015594
N253	N	1.134415	0.106752	-0.265444
N254	N	1.384415	0.356752	-0.015444
N255	N	1.634415	0.606752	0.234556
N256	N	1.884415	0.856752	0.484556
C257	C	1.088813	0.127936	0.474634
C258	C	1.338813	0.377936	0.724634
C259	C	1.588813	0.627936	0.974634
C260	C	1.838813	0.877936	1.224634
C261	C	1.147264	0.100779	0.525523
C262	C	1.397264	0.350779	0.775523
C263	C	1.647264	0.600779	1.025523
C264	C	1.897264	0.850779	1.275523
C265	C	1.140113	0.104104	0.641839
C266	C	1.390113	0.354104	0.891839
C267	C	1.640113	0.604104	1.141839
C268	C	1.890113	0.854104	1.391839
C269	C	1.095962	0.124612	0.358306
C270	C	1.345962	0.374612	0.608306
C271	C	1.595962	0.624612	0.858306
C272	C	1.845962	0.874612	1.108306
H273	H	0.619555	0.171325	0.000051
H274	H	0.869555	0.421325	0.250051
H275	H	1.119555	0.671325	0.500051
H276	H	1.369555	0.921325	0.750051
Br277	Br	1.240020	0.058088	0.452544
Br278	Br	1.490020	0.308088	0.702544
Br279	Br	1.740020	0.558088	0.952544
Br280	Br	1.990020	0.808088	1.202544
Br281	Br	0.996460	0.170847	0.547613
Br282	Br	1.246460	0.420847	0.797613
Br283	Br	1.496460	0.670847	1.047613
Br284	Br	1.746460	0.920847	1.297613
H285	H	0.616514	0.057393	0.000090
H286	H	0.866514	0.307393	0.250090
H287	H	1.116514	0.557393	0.500090
H288	H	1.366514	0.807393	0.750090
H289	H	1.267725	-0.742921	0.000049
H290	H	1.517725	-0.492921	0.250049
H291	H	1.767725	-0.242921	0.500049
H292	H	2.017725	0.007079	0.750049
H293	H	1.281793	-0.035739	0.000130
H294	H	1.531793	0.214261	0.250130
H295	H	1.781793	0.464261	0.500130
H296	H	2.031793	0.714261	0.750130
H297	H	0.966524	-0.119918	0.000099
H298	H	1.216524	0.130082	0.250099
H299	H	1.466524	0.380082	0.500099
H300	H	1.716524	0.630082	0.750099
Br301	Br	0.921732	-0.013564	0.000084
Br302	Br	1.171732	0.236436	0.250084
Br303	Br	1.421732	0.486436	0.500084
Br304	Br	1.671732	0.736436	0.750084
H305	H	1.279983	-0.127277	0.000096
H306	H	1.529983	0.122723	0.250096
H307	H	1.779983	0.372723	0.500096
H308	H	2.029983	0.622723	0.750096
H309	H	1.363564	-0.269896	0.000096
H310	H	1.613564	-0.019896	0.250096
H311	H	1.863564	0.230104	0.500096
H312	H	2.113564	0.480104	0.750096
H313	H	1.361743	-0.361429	0.000079
H314	H	1.611743	-0.111429	0.250079
H315	H	1.861743	0.138571	0.500079
H316	H	2.111743	0.388571	0.750079
H317	H	1.269556	-0.651370	0.000063
H318	H	1.519556	-0.401370	0.250063
H319	H	1.769556	-0.151370	0.500063
H320	H	2.019556	0.098630	0.750063
Br321	Br	0.907113	-0.748135	0.000028
Br322	Br	1.157113	-0.498135	0.250028
Br323	Br	1.407113	-0.248135	0.500028
Br324	Br	1.657113	0.001865	0.750028
Br325	Br	0.909476	-0.629208	0.000005
Br326	Br	1.159476	-0.379208	0.250005
Br327	Br	1.409476	-0.129208	0.500005
Br328	Br	1.659476	0.120792	0.750005
Br329	Br	0.828360	-0.362584	-0.000008
Br330	Br	1.078360	-0.112584	0.249992
Br331	Br	1.328360	0.137416	0.499992
Br332	Br	1.578360	0.387416	0.749992
H333	H	0.877360	-0.258456	0.000004
H334	H	1.127360	-0.008456	0.250004
H335	H	1.377360	0.241544	0.500004
H336	H	1.627360	0.491544	0.750004
H337	H	1.358722	-0.512821	0.000060
H338	H	1.608722	-0.262821	0.250060
H339	H	1.858722	-0.012821	0.500060
H340	H	2.108722	0.237179	0.750060
Br341	Br	1.407726	-0.408681	0.000076
Br342	Br	1.657726	-0.158681	0.250076
Br343	Br	1.907726	0.091319	0.500076
Br344	Br	2.157726	0.341319	0.750076
H345	H	0.872532	-0.501380	0.000008
H346	H	1.122532	-0.251380	0.250008
H347	H	1.372532	-0.001380	0.500008
H348	H	1.622532	0.248620	0.750008
H349	H	0.874355	-0.409846	0.000014
H350	H	1.124355	-0.159846	0.250014
H351	H	1.374355	0.090154	0.500014
H352	H	1.624355	0.340154	0.750014
