data_functionalizedCrystal
_audit_creation_method	'MofGen! by Chris Wilmer'
_symmetry_space_group_name_H-M	'P1'
_symmetry_Int_Tables_number	1
_symmetry_cell_setting	triclinic
loop_
_symmetry_equiv_pos_as_xyz
  x,y,z
_cell_length_a	16.992694
_cell_length_b	27.732048
_cell_length_c	15.455313
_cell_angle_alpha	92.637842
_cell_angle_beta	87.142206
_cell_angle_gamma	86.655439
loop_
_atom_site_label
_atom_site_type_symbol
_atom_site_fract_x
_atom_site_fract_y
_atom_site_fract_z
O1	O	1.042606	0.100467	-0.072038
O2	O	0.814336	0.099342	-0.072063
O3	O	0.935560	0.029815	-0.072033
O4	O	0.921382	0.169994	-0.072068
O5	O	0.928628	0.033773	0.072227
O6	O	0.807404	0.103301	0.072197
O7	O	1.035674	0.104425	0.072223
Cu8	Cu	0.920906	0.104225	0.085382
Cu9	Cu	0.929104	0.099543	-0.085222
O10	O	0.914450	0.173953	0.072193
C11	C	0.781675	0.099876	0.000064
C12	C	0.694684	0.095561	0.000055
C13	C	0.643939	0.137184	0.000046
C14	C	0.562201	0.133129	0.000059
C15	C	0.531209	0.087449	0.000075
C16	C	0.581960	0.045823	0.000087
C17	C	0.663696	0.049880	0.000080
C18	C	0.287814	0.070637	0.000102
C19	C	0.206071	0.066583	0.000106
C20	C	0.186318	0.153889	0.000080
C21	C	0.268057	0.157941	0.000068
C22	C	0.318800	0.116315	0.000084
N23	N	0.447660	0.083302	0.000086
N24	N	0.402347	0.120463	0.000080
C25	C	0.931796	0.013774	0.000100
C26	C	0.930900	-0.039919	0.000107
C27	C	0.996895	-0.375882	0.000069
C28	C	0.993571	-0.577686	0.000057
O29	O	1.053919	-0.606333	0.000026
N30	N	0.921689	-0.599917	0.000050
C31	C	0.850634	-0.571695	0.000040
O32	O	0.789419	-0.595235	0.000025
C33	C	0.853960	-0.369892	0.000046
C34	C	0.925846	-0.347663	0.000062
C35	C	1.068775	-0.353652	0.000084
C36	C	1.069605	-0.303204	0.000092
C37	C	0.998556	-0.274986	0.000085
C38	C	0.926676	-0.297215	0.000070
C39	C	0.782906	-0.341671	0.000030
C40	C	0.783744	-0.291218	0.000030
C41	C	0.855630	-0.268989	0.000046
C42	C	0.856457	-0.218549	0.000071
N43	N	0.928338	-0.196317	0.000078
C44	C	0.999387	-0.224535	0.000085
C45	C	0.848893	-0.677644	0.000038
C46	C	0.848061	-0.728095	0.000038
C47	C	0.990998	-0.734082	0.000054
C48	C	0.991829	-0.683630	0.000060
C49	C	0.920775	-0.655413	0.000046
C50	C	1.001126	-0.118591	0.000102
C51	C	1.001949	-0.068138	0.000114
C52	C	0.859013	-0.062155	0.000094
C53	C	0.858189	-0.112603	0.000087
C54	C	0.929251	-0.140820	0.000088
O55	O	0.796141	-0.189872	0.000092
O56	O	1.060595	-0.200987	0.000081
C57	C	0.996065	-0.426330	0.000062
C58	C	0.924185	-0.448559	0.000047
C59	C	0.853136	-0.420341	0.000039
C60	C	0.923354	-0.499010	0.000047
C61	C	0.994403	-0.527228	0.000054
C62	C	1.066285	-0.504997	0.000061
C63	C	1.067115	-0.454549	0.000069
C64	C	0.781254	-0.442573	0.000032
C65	C	0.780430	-0.493021	0.000025
C66	C	0.851480	-0.521240	0.000033
C67	C	1.068335	0.103892	0.000094
C68	C	1.155327	0.108206	0.000097
C69	C	0.918214	0.189993	0.000058
C70	C	0.919111	0.243687	0.000046
N71	N	0.915146	0.107517	0.205376
N72	N	0.934870	0.096247	-0.205217
C73	C	0.966664	0.077992	0.250783
C74	C	0.962315	0.080486	0.341590
C75	C	0.906451	0.112509	0.386988
C76	C	0.854928	0.142036	0.341575
C77	C	0.859274	0.139538	0.250770
C78	C	0.887693	0.123276	0.658565
C79	C	0.883353	0.125773	0.749377
C80	C	0.990739	0.064222	0.749385
C81	C	0.995083	0.061730	0.658578
C82	C	0.943557	0.091254	0.613173
N83	N	0.902006	0.115061	0.479807
N84	N	0.947999	0.088700	0.520356
H85	H	1.060489	-0.050041	0.000129
C86	C	0.548164	-0.003731	0.000062
C87	C	0.465723	0.001623	0.000041
C88	C	0.434566	-0.044016	0.000003
H89	H	0.563122	-0.019662	0.050359
H90	H	0.567987	-0.022389	-0.050261
H91	H	0.445907	0.020275	0.050358
H92	H	0.450743	0.017546	-0.050253
H93	H	0.454389	-0.062675	-0.050320
H94	H	0.449530	-0.059943	0.050301
H95	H	0.378628	-0.040390	-0.000019
C96	C	0.718666	0.004630	0.000042
C97	C	0.674034	-0.036244	0.000032
C98	C	0.724644	-0.077938	-0.000012
H99	H	0.748571	0.005709	0.050332
H100	H	0.753362	0.002990	-0.050288
H101	H	0.639352	-0.034604	0.050356
H102	H	0.644130	-0.037339	-0.050255
H103	H	0.759340	-0.079578	-0.050341
H104	H	0.754547	-0.076853	0.050280
H105	H	0.694370	-0.105675	-0.000027
H106	H	0.809439	0.168108	0.378544
H107	H	1.032688	0.040184	0.786363
H108	H	1.058992	-0.141559	0.000100
H109	H	1.125651	-0.436454	0.000081
H110	H	1.128142	-0.285110	0.000102
H111	H	0.669166	0.174382	0.000032
H112	H	0.799653	-0.130703	0.000098
H113	H	1.126636	-0.376623	0.000087
H114	H	0.520888	0.167023	0.000050
H115	H	0.725882	-0.268245	0.000017
C116	C	1.069960	-0.659590	0.000023
C117	C	1.131999	-0.695108	0.000009
C118	C	1.203988	-0.672984	-0.000041
H119	H	1.070957	-0.638659	0.050313
H120	H	1.075718	-0.641426	-0.050307
H121	H	1.126243	-0.713264	0.050333
H122	H	1.131028	-0.716041	-0.050278
H123	H	1.209746	-0.654820	-0.050370
H124	H	1.204977	-0.652053	0.050251
H125	H	1.246091	-0.697079	-0.000058
H126	H	0.293284	0.195138	0.000044
H127	H	0.144995	0.187778	0.000068
H128	H	0.329120	0.036742	0.000117
H129	H	1.004264	0.056444	0.378560
H130	H	0.724370	-0.359761	0.000012
C131	C	1.143410	-0.535669	-0.000114
C132	C	1.150672	-0.566826	-0.074348
C133	C	1.221709	-0.595087	-0.074550
H134	H	1.143717	-0.554145	0.050131
H135	H	1.186370	-0.515226	-0.000154
H136	H	1.107723	-0.587268	-0.074300
H137	H	1.150379	-0.548363	-0.124605
H138	H	1.264669	-0.574644	-0.074591
H139	H	1.222010	-0.613560	-0.024303
H140	H	1.226649	-0.616227	-0.124921
H141	H	0.817322	0.163580	0.213800
H142	H	1.040572	0.035654	0.621617
C143	C	0.769934	-0.752136	-0.000013
C144	C	0.707897	-0.716620	-0.000044
C145	C	0.635913	-0.738747	-0.000109
H146	H	0.764104	-0.770314	0.050278
H147	H	0.769012	-0.773057	-0.050342
H148	H	0.708817	-0.695709	0.050279
H149	H	0.713700	-0.698440	-0.050332
H150	H	0.634992	-0.759667	-0.050438
H151	H	0.630092	-0.756924	0.050183
H152	H	0.593813	-0.714653	-0.000138
H153	H	0.723396	-0.419602	0.000024
H154	H	0.801166	-0.039170	0.000091
H155	H	1.048849	-0.757066	0.000060
C156	C	0.771774	-0.646993	-0.000149
C157	C	0.771620	-0.619895	-0.074379
C158	C	0.700586	-0.591661	-0.074584
H159	H	0.766632	-0.625770	0.050098
H160	H	0.728831	-0.667449	-0.000199
H161	H	0.814550	-0.599440	-0.074322
H162	H	0.776749	-0.641105	-0.124639
H163	H	0.657643	-0.612117	-0.074633
H164	H	0.695450	-0.570441	-0.024333
H165	H	0.700468	-0.573275	-0.124951
H166	H	0.837859	0.151851	0.786336
C167	C	1.027346	0.043174	0.201655
C168	C	1.071517	0.017842	0.260861
C169	C	1.127416	-0.014242	0.215638
H170	H	1.061529	0.060797	0.166215
H171	H	1.001113	0.020964	0.166264
H172	H	1.097748	0.040050	0.296236
H173	H	1.037355	0.000210	0.296302
H174	H	1.101184	-0.036453	0.180248
H175	H	1.161594	0.003385	0.180200
H176	H	1.157388	-0.031437	0.255802
C177	C	0.702391	-0.517174	0.000185
C178	C	0.694148	-0.543927	0.074405
C179	C	0.622268	-0.566177	0.074577
H180	H	0.701437	-0.538137	-0.050070
H181	H	0.660174	-0.493151	0.000225
H182	H	0.736354	-0.567947	0.074356
H183	H	0.695088	-0.522975	0.124671
H184	H	0.580051	-0.542154	0.074618
H185	H	0.621320	-0.587138	0.024320
H186	H	0.616662	-0.584328	0.124938
C187	C	0.172572	0.016943	0.000167
C188	C	0.234503	-0.018643	0.000202
C189	C	0.203673	-0.064374	0.000265
H190	H	0.143523	0.012098	-0.050126
H191	H	0.138705	0.014904	0.050494
H192	H	0.268357	-0.016605	-0.050120
H193	H	0.263558	-0.013814	0.050492
H194	H	0.169806	-0.066413	0.050592
H195	H	0.174624	-0.069213	-0.050029
H196	H	0.245688	-0.088524	0.000297
C197	C	0.831713	0.155391	0.609432
C198	C	0.781879	0.183979	0.668629
C199	C	0.730305	0.213575	0.623396
H200	H	0.800919	0.135820	0.574020
H201	H	0.861332	0.175655	0.574013
H202	H	0.752263	0.163718	0.704033
H203	H	0.812651	0.203560	0.704043
H204	H	0.759924	0.233839	0.587977
H205	H	0.699517	0.194000	0.587986
H206	H	0.696492	0.232979	0.663554
