data_functionalizedCrystal
_audit_creation_method	'MofGen! by Chris Wilmer'
_symmetry_space_group_name_H-M	'P1'
_symmetry_Int_Tables_number	1
_symmetry_cell_setting	triclinic
loop_
_symmetry_equiv_pos_as_xyz
  x,y,z
_cell_length_a	12.645330
_cell_length_b	12.645331
_cell_length_c	12.645323
_cell_angle_alpha	90.027592
_cell_angle_beta	89.975130
_cell_angle_gamma	89.985762
loop_
_atom_site_label
_atom_site_type_symbol
_atom_site_fract_x
_atom_site_fract_y
_atom_site_fract_z
Zn1	Zn	-0.422129	-1.620731	-0.599585
Zn2	Zn	-0.599417	-1.620613	-0.422325
Zn3	Zn	-0.422157	-1.443446	-0.422314
Zn4	Zn	-0.599340	-1.443428	-0.599526
O5	O	-0.510760	-1.532054	-0.510938
O6	O	-0.445667	-1.769063	-0.576101
O7	O	-0.575947	-1.597069	-0.273977
O8	O	-0.273806	-1.467020	-0.445850
O9	O	-0.575919	-1.768976	-0.445869
O10	O	-0.273785	-1.597271	-0.576090
O11	O	-0.445715	-1.466906	-0.273969
O12	O	-0.445640	-1.295096	-0.445792
O13	O	-0.575788	-1.466989	-0.747881
O14	O	-0.575816	-1.295083	-0.575989
O15	O	-0.445592	-1.597253	-0.747925
O16	O	-0.747754	-1.597052	-0.445811
O17	O	-0.747697	-1.466874	-0.575999
C18	C	-0.510724	-1.256625	-0.510883
C19	C	-0.510733	-1.138795	-0.510885
C20	C	-0.428710	-1.093886	-0.429109
C21	C	-0.428399	-0.971326	-0.429379
C22	C	-0.480930	-0.970965	-0.622779
C23	C	-0.480325	-1.093563	-0.622278
C24	C	-0.622788	-1.093579	-0.481803
C25	C	-0.622195	-0.970972	-0.479367
C26	C	-0.786190	-1.531977	-0.510923
C27	C	-0.904020	-1.532041	-0.510952
C28	C	-1.071593	-1.450484	-0.593106
C29	C	-0.949033	-1.450067	-0.592842
C30	C	-0.948612	-1.501796	-0.399227
C31	C	-1.071211	-1.501298	-0.399726
C32	C	-1.071116	-1.644342	-0.539617
C33	C	-0.948509	-1.643654	-0.542059
C34	C	-0.234255	-1.532161	-0.510976
C35	C	-0.116425	-1.532206	-0.510992
C36	C	-0.510678	-1.532133	-0.787443
C37	C	-0.510644	-1.532166	-0.905273
C38	C	-0.510782	-0.808560	-0.510972
C39	C	-0.510750	-0.926390	-0.510933
C40	C	-0.592164	-1.449964	-1.072810
C41	C	-0.592568	-1.450179	-0.950250
C42	C	-0.540969	-1.643866	-0.949803
C43	C	-0.541480	-1.643415	-1.072401
C44	C	-0.398342	-1.503725	-1.072469
C45	C	-0.399015	-1.501232	-0.949862
C46	C	-0.510766	-1.532038	-0.235508
C47	C	-0.510502	-1.532210	-0.117678
H48	H	-0.447103	-1.123289	-0.345914
C49	C	-1.113316	-1.338879	-0.567813
H50	H	-1.157936	-1.341869	-0.507426
H51	H	-1.152312	-1.312847	-0.626480
H52	H	-1.055432	-1.293068	-0.553904
C53	C	-0.360997	-1.395605	-1.114195
H54	H	-0.293174	-1.379924	-1.085967
H55	H	-0.409774	-1.342448	-1.093181
H56	H	-0.356993	-1.397748	-1.189187
H57	H	-0.447003	-0.941182	-0.346460
H58	H	-0.919794	-1.366935	-0.573877
H59	H	-0.346149	-1.124712	-0.448169
C60	C	-0.566935	-1.338289	-0.909564
H61	H	-0.567146	-1.338271	-0.834435
H62	H	-0.618693	-1.290014	-0.934720
H63	H	-0.499140	-1.317556	-0.934428
C64	C	-0.908294	-1.475593	-0.704760
H65	H	-0.966671	-1.486310	-0.750799
H66	H	-0.866349	-1.537885	-0.702607
H67	H	-0.866743	-1.418303	-0.729936
H68	H	-0.675717	-1.468983	-0.920937
H69	H	-1.101962	-1.671932	-0.619702
C70	C	-0.557548	-1.133711	-0.707439
H71	H	-0.589144	-1.075092	-0.742193
H72	H	-0.611001	-1.175428	-0.675115
H73	H	-0.520124	-1.175368	-0.757565
H74	H	-0.919458	-1.559431	-0.336374
C75	C	-0.368110	-1.390187	-0.910550
H76	H	-0.300515	-1.371923	-0.937795
H77	H	-0.365777	-1.389926	-0.835467
H78	H	-0.418972	-1.340198	-0.934154
C79	C	-0.369696	-1.132235	-0.655483
H80	H	-0.368353	-1.207353	-0.655476
H81	H	-0.318529	-1.106256	-0.607021
H82	H	-0.353963	-1.106964	-0.724453
H83	H	-0.917996	-1.420678	-0.374542
H84	H	-0.573369	-1.366889	-1.102276
H85	H	-0.919360	-1.666463	-0.624283
H86	H	-0.345371	-0.942017	-0.448687
H87	H	-0.650021	-1.124445	-0.401606
H88	H	-0.399940	-0.940286	-0.647796
C89	C	-0.705346	-1.132819	-0.562248
H90	H	-0.772891	-1.105230	-0.544266
H91	H	-0.707802	-1.207889	-0.561037
H92	H	-0.686276	-1.109529	-0.631076
C93	C	-0.312472	-1.576248	-0.908515
H94	H	-0.343426	-1.627649	-0.863322
H95	H	-0.261330	-1.536765	-0.870206
H96	H	-0.279283	-1.610635	-0.966517
H97	H	-0.538851	-0.941866	-0.685396
C98	C	-1.111456	-1.475709	-0.705364
H99	H	-1.155789	-1.536313	-0.703167
H100	H	-1.052835	-1.489196	-0.750398
H101	H	-1.150402	-1.417154	-0.731771
C102	C	-0.652242	-1.676021	-1.111060
H103	H	-0.696504	-1.689412	-1.051839
H104	H	-0.646857	-1.738190	-1.152918
H105	H	-0.681709	-1.620559	-1.152258
H106	H	-1.099897	-1.419326	-0.375478
C107	C	-1.111286	-1.578197	-0.314244
H108	H	-1.052637	-1.609596	-0.279362
H109	H	-1.152961	-1.631820	-0.346343
H110	H	-1.152970	-1.540597	-0.264272
C111	C	-0.652593	-0.931604	-0.368174
H112	H	-0.597607	-0.888173	-0.341094
H113	H	-0.662709	-0.990490	-0.322669
H114	H	-0.716213	-0.891835	-0.372167
H115	H	-0.686547	-0.940374	-0.534548
C116	C	-0.907131	-1.730240	-0.467139
H117	H	-0.861984	-1.699315	-0.415674
H118	H	-0.868769	-1.781358	-0.506669
H119	H	-0.965127	-1.763450	-0.432826
C120	C	-1.110175	-1.726571	-0.458754
H121	H	-1.153896	-1.692789	-0.407803
H122	H	-1.051155	-1.757803	-0.424366
H123	H	-1.149564	-1.779831	-0.494187
C124	C	-0.703788	-1.475104	-1.114453
H125	H	-0.700841	-1.535508	-1.159060
H126	H	-0.729767	-1.416407	-1.153449
H127	H	-0.749615	-1.488924	-1.056539
C128	C	-0.464640	-1.729017	-1.112508
H129	H	-0.433257	-1.763920	-1.053871
H130	H	-0.411001	-1.697007	-1.154235
H131	H	-0.502275	-1.778954	-1.154145
H132	H	-0.483371	-1.706788	-0.920673
C133	C	-0.650574	-1.677043	-0.908362
H134	H	-0.678000	-1.622981	-0.863937
H135	H	-0.644284	-1.740832	-0.869220
H136	H	-0.697068	-1.687760	-0.966375
C137	C	-0.316145	-1.584633	-1.111684
H138	H	-0.349958	-1.635528	-1.155396
H139	H	-0.284847	-1.619089	-1.052749
H140	H	-0.262932	-1.549191	-1.151128
