data_functionalizedCrystal
_audit_creation_method	'MofGen! by Chris Wilmer'
_symmetry_space_group_name_H-M	'P1'
_symmetry_Int_Tables_number	1
_symmetry_cell_setting	triclinic
loop_
_symmetry_equiv_pos_as_xyz
  x,y,z
_cell_length_a	11.804365
_cell_length_b	16.109301
_cell_length_c	16.109301
_cell_angle_alpha	83.461481
_cell_angle_beta	101.825822
_cell_angle_gamma	78.157971
loop_
_atom_site_label
_atom_site_type_symbol
_atom_site_fract_x
_atom_site_fract_y
_atom_site_fract_z
O1	O	0.098953	-1.119920	-0.090088
O2	O	0.098973	-0.877862	-0.103384
O3	O	0.098950	-1.005539	0.024293
O4	O	0.098976	-0.992244	-0.217765
O5	O	-0.099100	-0.971926	-0.009286
O6	O	-0.099077	-0.844249	-0.136963
O7	O	-0.099097	-1.086308	-0.123667
Cu8	Cu	-0.117170	-0.962210	-0.133381
Cu9	Cu	0.117047	-1.001960	-0.093670
O10	O	-0.099074	-0.958631	-0.251343
C11	C	-0.000075	-0.988194	0.038478
C12	C	-0.000077	-0.986578	0.130773
C13	C	-0.000050	-0.830081	-0.119634
C14	C	-0.000043	-0.737787	-0.118018
N15	N	-0.281906	-0.934257	-0.161310
C16	C	-0.655883	-1.097043	0.001352
C17	C	-0.531225	-1.118188	0.022484
C18	C	-0.468889	-1.072207	-0.023462
C19	C	-0.531224	-1.005078	-0.090545
C20	C	-0.655894	-0.983935	-0.111684
C21	C	-0.468900	-0.959099	-0.136499
C22	C	-0.531234	-0.891970	-0.203582
C23	C	-0.655892	-0.870830	-0.224717
C24	C	-0.718228	-0.916811	-0.178770
C25	C	-0.344230	-0.980241	-0.115360
C26	C	-0.344240	-0.867133	-0.228396
C27	C	-0.468898	-0.845988	-0.249528
N28	N	0.281782	-1.029919	-0.065734
C29	C	-0.000071	-1.134089	-0.107416
C30	C	-0.000070	-1.226385	-0.109031
C31	C	-0.000049	-0.515513	-0.190027
C32	C	-0.000057	-0.428792	-0.188504
C33	C	-0.000068	-0.448664	-0.037017
C34	C	-0.000068	-0.535383	-0.038542
C35	C	-0.000053	-0.568806	-0.115048
C36	C	-0.000060	-0.395366	-0.112001
C37	C	-0.000069	-0.301338	-0.110349
C38	C	-0.000047	-0.662839	-0.116701
C39	C	-0.000046	-0.975977	-0.265528
C40	C	-0.000037	-0.977593	-0.357822
C41	C	-0.000064	-1.058588	0.353048
C42	C	-0.000054	-1.057066	0.439770
C43	C	-0.000046	-0.905578	0.419897
C44	C	-0.000048	-0.907103	0.333178
C45	C	-0.000062	-0.983609	0.299755
C46	C	-0.000051	-0.980562	0.473196
C47	C	-0.000040	-0.978911	0.567224
C48	C	-0.000071	-0.985261	0.205722
H49	H	-0.293488	-1.034898	-0.060741
C50	C	0.101737	-0.456183	0.109830
C51	C	-0.000069	-0.411926	0.047079
H52	H	0.101733	-0.433507	0.161749
H53	H	0.170789	-0.449603	0.090663
H54	H	0.101719	-0.515455	0.119643
H55	H	-0.000047	-0.352655	0.037261
H56	H	-0.069139	-0.418499	0.066250
C57	C	-0.694253	-1.234469	0.043624
C58	C	-0.724397	-1.147579	0.051857
H59	H	-0.736556	-1.265667	0.074806
H60	H	-0.611098	-1.256659	0.065814
H61	H	-0.714682	-1.240007	-0.015333
H62	H	-0.703960	-1.142040	0.110814
H63	H	-0.807571	-1.125382	0.029671
H64	H	-0.367387	-1.089426	-0.006253
C65	C	-0.101857	-1.125955	0.531574
C66	C	-0.000056	-1.139483	0.498353
H67	H	-0.101850	-1.176837	0.567746
H68	H	-0.170912	-1.111687	0.485630
H69	H	-0.101838	-1.080172	0.563889
H70	H	-0.000079	-1.185261	0.466033
H71	H	0.069017	-1.153761	0.544304
H72	H	-0.000046	-0.542722	-0.252324
C73	C	-0.000056	-0.835974	0.544005
C74	C	-0.000048	-0.821482	0.456636
H75	H	-0.000067	-0.784053	0.566681
H76	H	0.069005	-0.878556	0.574001
H77	H	-0.069125	-0.855129	0.550583
H78	H	0.069026	-0.802334	0.450059
H79	H	-0.069115	-0.778886	0.426631
H80	H	-0.000043	-0.846043	0.289785
H81	H	-0.480477	-1.172844	0.077102
C82	C	0.101736	-0.661717	0.064882
C83	C	-0.000070	-0.593972	0.043880
H84	H	0.101725	-0.697889	0.115760
H85	H	0.170788	-0.639192	0.074041
H86	H	0.101724	-0.694024	0.019093
H87	H	-0.000054	-0.561661	0.089668
H88	H	-0.069140	-0.616498	0.034727
H89	H	-0.706645	-0.816176	-0.279345
H90	H	-0.819735	-0.899593	-0.195973
H91	H	-0.000073	-1.120885	0.325839
H92	H	-0.519666	-0.791330	-0.304149
H93	H	-0.293487	-0.829693	-0.265812
C94	C	-0.101859	-0.302473	-0.291937
C95	C	-0.000047	-0.370213	-0.270922
H96	H	-0.101854	-0.266313	-0.342824
H97	H	-0.101858	-0.270159	-0.246162
H98	H	-0.170914	-0.325009	-0.301092
H99	H	0.069009	-0.347677	-0.261761
H100	H	-0.000036	-0.402532	-0.316707
