data_functionalizedCrystal
_audit_creation_method	'MofGen! by Chris Wilmer'
_symmetry_space_group_name_H-M	'P1'
_symmetry_Int_Tables_number	1
_symmetry_cell_setting	triclinic
loop_
_symmetry_equiv_pos_as_xyz
  x,y,z
_cell_length_a	10.654559
_cell_length_b	17.699083
_cell_length_c	9.730223
_cell_angle_alpha	90.008345
_cell_angle_beta	89.999563
_cell_angle_gamma	96.114151
loop_
_atom_site_label
_atom_site_type_symbol
_atom_site_fract_x
_atom_site_fract_y
_atom_site_fract_z
O1	O	1.665966	-0.106333	-0.114321
O2	O	1.300312	-0.116453	-0.114325
O3	O	1.493470	-0.001269	-0.114289
O4	O	1.472808	-0.221516	-0.114356
O5	O	1.493467	-0.001272	0.114291
O6	O	1.300310	-0.116456	0.114255
O7	O	1.665964	-0.106335	0.114259
Zn8	Zn	1.483136	-0.111396	0.150549
Zn9	Zn	1.483139	-0.111392	-0.150615
O10	O	1.472806	-0.221519	0.114224
C11	C	1.253526	-0.115710	-0.000034
C12	C	1.114122	-0.113482	-0.000034
C13	C	1.063806	-0.043570	-0.000009
C14	C	0.932821	-0.041482	-0.000019
C15	C	0.902477	-0.179224	-0.000073
C16	C	1.033461	-0.181311	-0.000073
C17	C	1.081324	0.035954	0.000028
C18	C	0.950338	0.038043	0.000018
C19	C	1.492728	0.026931	0.000006
C20	C	1.490507	0.110963	0.000023
C21	C	1.603887	0.158861	0.000035
C22	C	1.601792	0.237818	0.000038
C23	C	1.486317	0.268875	0.000040
C24	C	1.372929	0.220971	0.000024
C25	C	1.375024	0.142016	0.000011
C26	C	1.364475	0.539388	0.000075
C27	C	1.362388	0.618349	0.000092
C28	C	1.591242	0.635190	0.000102
C29	C	1.593338	0.556235	0.000089
C30	C	1.479951	0.508338	0.000066
C31	C	1.482223	0.422724	0.000060
C32	C	1.484043	0.354487	0.000055
C33	C	1.712750	-0.107079	-0.000034
C34	C	1.852153	-0.109306	-0.000044
N35	N	1.483143	-0.111398	0.356085
C36	C	1.473547	0.750281	-0.000026
C37	C	1.475768	0.666249	0.000094
N38	N	1.483142	-0.111384	-0.356151
C39	C	1.568695	-0.060412	0.428027
C40	C	1.568692	-0.060403	0.571910
C41	C	1.397581	-0.162372	0.571897
C42	C	1.397579	-0.162377	0.428017
C43	C	1.667489	-0.001543	0.428036
C44	C	1.667486	-0.001534	0.571919
H45	H	1.697920	0.133581	0.000042
H46	H	1.758349	-0.019979	0.383404
H47	H	1.637935	0.053440	0.616551
C48	C	1.720363	0.522074	0.000084
C49	C	1.753280	0.470114	0.118769
C50	C	1.880309	0.435955	0.118758
C51	C	1.974420	0.453756	0.000062
C52	C	1.941506	0.505718	-0.118633
C53	C	1.814477	0.539877	-0.118621
H54	H	1.683611	0.456935	0.206644
H55	H	1.904674	0.397490	0.206624
H56	H	2.068454	0.428469	0.000053
H57	H	2.011175	0.518897	-0.206507
H58	H	1.790112	0.578343	-0.206487
H59	H	1.268348	0.643632	0.000096
C60	C	1.138445	0.076435	-0.129181
C61	C	1.052153	0.111176	-0.233352
C62	C	1.109274	0.151655	-0.362557
C63	C	1.252688	0.157393	-0.387592
C64	C	1.338988	0.122651	-0.283418
C65	C	1.281867	0.082172	-0.154213
H66	H	0.945983	0.106929	-0.214822
H67	H	1.045388	0.177373	-0.439673
H68	H	1.294972	0.187358	-0.483238
H69	H	1.445159	0.126898	-0.301948
H70	H	1.345753	0.056454	-0.077097
H71	H	1.647064	0.056630	0.388999
C72	C	1.239748	0.486712	0.000074
C73	C	1.145046	0.490623	-0.118609
C74	C	1.020311	0.437944	-0.118602
C75	C	0.990276	0.381354	0.000088
C76	C	1.084980	0.377441	0.118780
C77	C	1.209716	0.430119	0.118773
H78	H	1.167277	0.532516	-0.206478
H79	H	0.950205	0.440841	-0.206466
H80	H	0.897940	0.342358	0.000093
H81	H	1.062749	0.335547	0.206650
H82	H	1.279821	0.427222	0.206638
H83	H	1.763770	-0.014504	0.610966
C84	C	0.911381	0.080041	0.129263
C85	C	1.012314	0.111785	0.233469
C86	C	0.973356	0.153779	0.362711
C87	C	0.833464	0.164030	0.387746
C88	C	0.732521	0.132285	0.283537
C89	C	0.771480	0.090291	0.154295
H90	H	1.115878	0.104198	0.214940
H91	H	1.048081	0.177279	0.439853
H92	H	0.804624	0.195116	0.483418
H93	H	0.628957	0.139873	0.302066
H94	H	0.696755	0.066792	0.077152
C95	C	1.303464	-0.218456	0.348875
C96	C	1.209412	-0.274570	0.427993
C97	C	1.115293	-0.330650	0.348849
C98	C	1.115225	-0.330616	0.190586
C99	C	1.209280	-0.274500	0.111459
C100	C	1.303400	-0.218420	0.190603
H101	H	1.209459	-0.274596	0.545156
H102	H	1.045667	-0.372190	0.407425
H103	H	1.045552	-0.372130	0.131999
H104	H	1.209233	-0.274473	-0.005705
H105	H	1.373025	-0.176880	0.132027
H106	H	1.074422	-0.238240	-0.000116
H107	H	1.694117	0.276813	0.000051
H108	H	1.282699	0.103017	0.000001
H109	H	1.127385	0.059978	0.098732
H110	H	0.836787	-0.234447	-0.000104
H111	H	0.915153	0.063373	-0.098671
H112	H	1.278907	0.246264	0.000016
H113	H	1.683568	0.674197	0.000114
H114	H	1.327916	-0.203878	0.630479
