data_functionalizedCrystal
_audit_creation_method	'MofGen! by Chris Wilmer'
_symmetry_space_group_name_H-M	'P1'
_symmetry_Int_Tables_number	1
_symmetry_cell_setting	triclinic
loop_
_symmetry_equiv_pos_as_xyz
  x,y,z
_cell_length_a	14.908571
_cell_length_b	16.120297
_cell_length_c	14.908520
_cell_angle_alpha	84.007770
_cell_angle_beta	89.794039
_cell_angle_gamma	89.752096
loop_
_atom_site_label
_atom_site_type_symbol
_atom_site_fract_x
_atom_site_fract_y
_atom_site_fract_z
Zn1	Zn	1.321189	-0.566579	0.466632
Zn2	Zn	1.821189	-0.066579	0.966632
Zn3	Zn	1.320031	-0.434759	0.610197
Zn4	Zn	1.820031	0.065241	1.110197
Zn5	Zn	1.179374	-0.418767	0.450349
Zn6	Zn	1.679374	0.081233	0.950349
Zn7	Zn	1.162172	-0.565616	0.608206
Zn8	Zn	1.662172	-0.065616	1.108206
O9	O	1.245691	-0.496430	0.533846
O10	O	1.745691	0.003570	1.033846
O11	O	1.446449	-0.556189	0.493323
O12	O	1.946449	-0.056189	0.993323
O13	O	1.308087	-0.316013	0.583011
O14	O	1.808087	0.183987	1.083011
O15	O	1.205870	-0.432085	0.326363
O16	O	1.705870	0.067915	0.826363
O17	O	1.445599	-0.459341	0.598800
O18	O	1.945599	0.040659	1.098800
O19	O	1.310060	-0.540682	0.338325
O20	O	1.810060	-0.040682	0.838325
O21	O	1.204747	-0.304264	0.465572
O22	O	1.704747	0.195736	0.965572
O23	O	1.051678	-0.431151	0.463641
O24	O	1.551678	0.068849	0.963641
O25	O	1.176551	-0.682368	0.595407
O26	O	1.676551	-0.182368	1.095407
O27	O	1.039040	-0.539040	0.579618
O28	O	1.539040	-0.039040	1.079618
O29	O	1.293380	-0.683076	0.491393
O30	O	1.793380	-0.183076	0.991393
O31	O	1.291407	-0.458407	0.736079
O32	O	1.791407	0.041593	1.236079
O33	O	1.175429	-0.554547	0.734616
O34	O	1.675429	-0.054547	1.234616
C35	C	1.012840	-0.483256	0.519648
C36	C	1.512840	0.016744	1.019648
C37	C	0.913223	-0.477641	0.513596
C38	C	1.413223	0.022359	1.013596
C39	C	0.712917	-0.579301	0.623164
C40	C	1.212917	-0.079301	1.123164
C41	C	0.619318	-0.574028	0.617481
C42	C	1.119318	-0.074028	1.117481
C43	C	0.632422	-0.461827	0.496544
C44	C	1.132422	0.038173	0.996544
C45	C	0.726022	-0.467100	0.502227
C46	C	1.226022	0.032900	1.002227
C47	C	0.766266	-0.525838	0.565540
C48	C	1.266266	-0.025838	1.065540
C49	C	0.859867	-0.531106	0.571226
C50	C	1.359867	-0.031106	1.071226
C51	C	0.872970	-0.418910	0.450286
C52	C	1.372970	0.081090	0.950286
C53	C	0.779371	-0.413637	0.444603
C54	C	1.279371	0.086363	0.944603
C55	C	1.233176	-0.713807	0.544994
C56	C	1.733176	-0.213807	1.044994
C57	C	1.227842	-0.806440	0.549745
C58	C	1.727842	-0.306440	1.049745
C59	C	1.218073	-0.976038	0.558396
C60	C	1.718073	-0.476038	1.058396
C61	C	1.273503	-1.017670	0.509036
C62	C	1.773503	-0.517670	1.009036
C63	C	1.268067	-1.112041	0.513850
C64	C	1.768067	-0.612041	1.013850
C65	C	1.223508	-0.881659	0.553584
C66	C	1.723508	-0.381659	1.053584
C67	C	1.479452	-0.509656	0.548100
C68	C	1.979452	-0.009656	1.048100
C69	C	1.579067	-0.515292	0.554174
C70	C	2.079067	-0.015292	1.054174
C71	C	1.231449	-0.508127	0.768058
C72	C	1.731449	-0.008127	1.268058
C73	C	1.225436	-0.513164	0.868262
C74	C	1.725436	-0.013164	1.368262
C75	C	1.258214	-0.279899	0.522679
C76	C	1.758214	0.220101	1.022679
C77	C	1.263736	-0.187264	0.517685
C78	C	1.763736	0.312736	1.017685
C79	C	1.260013	-0.484707	0.298721
C80	C	1.760013	0.015293	0.798721
C81	C	1.266116	-0.479711	0.198525
C82	C	1.766116	0.020289	0.698525
C83	C	1.335019	-0.422610	1.058029
C84	C	1.835019	0.077390	1.558029
C85	C	1.329373	-0.427340	1.152179
C86	C	1.829373	0.072660	1.652179
C87	C	1.208503	-0.527358	1.150715
C88	C	1.708503	-0.027358	1.650715
C89	C	1.214149	-0.522628	1.056564
C90	C	1.714149	-0.022628	1.556564
C91	C	1.277408	-0.470251	1.010225
C92	C	1.777408	0.029749	1.510225
C93	C	1.283050	-0.465518	0.916072
C94	C	1.783050	0.034482	1.416072
C95	C	1.162184	-0.565539	0.914610
C96	C	1.662184	-0.065539	1.414610
C97	C	1.156538	-0.570269	1.008761
C98	C	1.656538	-0.070269	1.508761
H99	H	0.892632	-0.578932	0.622780
H100	H	1.392632	-0.078932	1.122780
C101	C	1.343130	-0.970081	0.447070
C102	C	1.843130	-0.470081	0.947070
H103	H	1.337703	-0.911978	0.451930
H104	H	1.837703	-0.411978	0.951930
H105	H	1.332910	-0.980523	0.386411
H106	H	1.832910	-0.480523	0.886411
H107	H	1.401740	-0.988374	0.464660
H108	H	1.901740	-0.488374	0.964660
H109	H	1.166542	-1.011268	0.604268
H110	H	1.666542	-0.511268	1.104268
H111	H	0.746591	-0.365816	0.393054
H112	H	1.246591	0.134184	0.893054
C113	C	1.352634	-0.407910	0.865100
C114	C	1.852634	0.092090	1.365100
H115	H	1.386142	-0.380222	0.907059
H116	H	1.886142	0.119778	1.407059
H117	H	1.322683	-0.367787	0.824465
H118	H	1.822683	0.132213	1.324465
H119	H	1.392023	-0.440191	0.832341
H120	H	1.892023	0.059809	1.332341
C121	C	1.404596	-0.364998	1.007052
C122	C	1.904596	0.135002	1.507052
H123	H	1.438101	-0.337303	1.049008
H124	H	1.938101	0.162697	1.549008
H125	H	1.374637	-0.324880	0.966417
H126	H	1.874637	0.175120	1.466417
H127	H	1.443989	-0.397274	0.974293
H128	H	1.943989	0.102726	1.474293
H129	H	1.376287	-0.388547	1.191097
H130	H	1.876287	0.111453	1.691097
H131	H	1.105036	-0.612914	1.046504
H132	H	1.605036	-0.112914	1.546504
C133	C	1.138924	-0.584963	1.201699
C134	C	1.638924	-0.084963	1.701699
H135	H	1.143812	-0.580950	1.264617
H136	H	1.643812	-0.080950	1.764617
H137	H	1.149683	-0.640933	1.189905
H138	H	1.649683	-0.140933	1.689905
H139	H	1.080342	-0.568529	1.182036
H140	H	1.580342	-0.068529	1.682036
C141	C	1.098804	-0.617944	0.862028
C142	C	1.598804	-0.117944	1.362028
H143	H	1.060317	-0.649807	0.903113
H144	H	1.560317	-0.149807	1.403113
H145	H	1.133158	-0.654375	0.829198
H146	H	1.633158	-0.154375	1.329198
H147	H	1.063819	-0.581970	0.821341
H148	H	1.563819	-0.081970	1.321341
C149	C	0.757189	-0.643905	0.692805
C150	C	1.257189	-0.143905	1.192805
H151	H	0.712009	-0.674993	0.726309
H152	H	1.212009	-0.174993	1.226309
H153	H	0.793154	-0.615981	0.732606
H154	H	1.293154	-0.115981	1.232606
H155	H	0.793704	-0.680610	0.662458
H156	H	1.293704	-0.180610	1.162458
H157	H	0.575884	-0.617565	0.664402
H158	H	1.075884	-0.117565	1.164402
H159	H	0.599639	-0.414011	0.444993
H160	H	1.099639	0.085989	0.944993
H161	H	0.916417	-0.375375	0.403366
H162	H	1.416417	0.124625	0.903366
