data_functionalizedCrystal
_audit_creation_method	'MofGen! by Chris Wilmer'
_symmetry_space_group_name_H-M	'P1'
_symmetry_Int_Tables_number	1
_symmetry_cell_setting	triclinic
loop_
_symmetry_equiv_pos_as_xyz
  x,y,z
_cell_length_a	25.639242
_cell_length_b	25.639240
_cell_length_c	25.639234
_cell_angle_alpha	89.980434
_cell_angle_beta	89.973005
_cell_angle_gamma	90.027587
loop_
_atom_site_label
_atom_site_type_symbol
_atom_site_fract_x
_atom_site_fract_y
_atom_site_fract_z
Zn1	Zn	0.799274	-0.208247	-0.295760
Zn2	Zn	0.799200	-0.295674	-0.208332
Zn3	Zn	0.711843	-0.208248	-0.208325
Zn4	Zn	0.711806	-0.295646	-0.295722
O5	O	0.755531	-0.251954	-0.252035
O6	O	0.872429	-0.219855	-0.284182
O7	O	0.787597	-0.284089	-0.135166
O8	O	0.723487	-0.135083	-0.219936
O9	O	0.872375	-0.284088	-0.219949
O10	O	0.787723	-0.135082	-0.284175
O11	O	0.723416	-0.219858	-0.135160
O12	O	0.638673	-0.219830	-0.219899
O13	O	0.723424	-0.284040	-0.368893
O14	O	0.638645	-0.284041	-0.284110
O15	O	0.787686	-0.219828	-0.368921
O16	O	0.787561	-0.368836	-0.219912
O17	O	0.723352	-0.368815	-0.284117
C18	C	0.619688	-0.251933	-0.252000
C19	C	0.561574	-0.251937	-0.251997
C20	C	0.755459	-0.387796	-0.252023
C21	C	0.755475	-0.445910	-0.252035
C22	C	0.788975	-0.697052	-0.285518
C23	C	0.788959	-0.642448	-0.285514
O24	O	0.817382	-0.614167	-0.313965
N25	N	0.755533	-0.615184	-0.252042
C26	C	0.722123	-0.642528	-0.218567
O27	O	0.693690	-0.614324	-0.190096
C28	C	0.722142	-0.697131	-0.218569
C29	C	0.755567	-0.724392	-0.252047
C30	C	0.822398	-0.724313	-0.318994
C31	C	0.822413	-0.778913	-0.318998
C32	C	0.789005	-0.806253	-0.285527
C33	C	0.755582	-0.778992	-0.252052
C34	C	0.688736	-0.724474	-0.185092
C35	C	0.688758	-0.779081	-0.185097
C36	C	0.722183	-0.806341	-0.218575
C37	C	0.722189	-0.860933	-0.218586
N38	N	0.755616	-0.888196	-0.252058
C39	C	0.789024	-0.860856	-0.285529
C40	C	0.722087	-0.527857	-0.218566
C41	C	0.722065	-0.473255	-0.218566
C42	C	0.788902	-0.473179	-0.285513
C43	C	0.788921	-0.527782	-0.285514
C44	C	0.755514	-0.555121	-0.252038
C45	C	0.789052	-0.975521	-0.285536
C46	C	0.789062	-1.030127	-0.285539
C47	C	0.722228	-1.030198	-0.218591
C48	C	0.722215	-0.975598	-0.218590
C49	C	0.755632	-0.948261	-0.252064
O50	O	0.693783	-0.889248	-0.190148
O51	O	0.817457	-0.889067	-0.313991
C52	C	0.201206	-0.285444	-0.285438
C53	C	0.146601	-0.285447	-0.285446
O54	O	0.118360	-0.313911	-0.313849
N55	N	0.119292	-0.251968	-0.252069
C56	C	0.146589	-0.218480	-0.218685
O57	O	0.118346	-0.190003	-0.190297
C58	C	0.201192	-0.218474	-0.218680
C59	C	0.228499	-0.251959	-0.252056
C60	C	0.228513	-0.318926	-0.318811
C61	C	0.283113	-0.318924	-0.318802
C62	C	0.310407	-0.285439	-0.285420
C63	C	0.283100	-0.251957	-0.252047
C64	C	0.228489	-0.184983	-0.185300
C65	C	0.283096	-0.184981	-0.185297
C66	C	0.310403	-0.218466	-0.218673
C67	C	0.364994	-0.218469	-0.218655
N68	N	0.392304	-0.251949	-0.252032
C69	C	0.365010	-0.285434	-0.285414
C70	C	0.031919	-0.218493	-0.218700
C71	C	-0.022684	-0.218501	-0.218702
C72	C	-0.022668	-0.285468	-0.285463
C73	C	0.031935	-0.285462	-0.285458
C74	C	0.059228	-0.251972	-0.252077
C75	C	0.479675	-0.285426	-0.285393
C76	C	0.534281	-0.285422	-0.285379
C77	C	0.534260	-0.218453	-0.218620
C78	C	0.479659	-0.218458	-0.218631
C79	C	0.452368	-0.251947	-0.252022
O80	O	0.393270	-0.190019	-0.190268
O81	O	0.393260	-0.313901	-0.313803
C82	C	0.891904	-0.251975	-0.252071
C83	C	0.950018	-0.251984	-0.252086
C84	C	0.755559	-0.251931	-0.388408
C85	C	0.755571	-0.251921	-0.446522
C86	C	0.755617	-0.115581	-0.252059
C87	C	0.755654	-0.057467	-0.252069
C88	C	0.789004	-0.285323	-0.697711
C89	C	0.788998	-0.285334	-0.643107
O90	O	0.817400	-0.313792	-0.614866
N91	N	0.755583	-0.251895	-0.615796
C92	C	0.722166	-0.218447	-0.643093
O93	O	0.693742	-0.190006	-0.614849
C94	C	0.722169	-0.218439	-0.697696
C95	C	0.755591	-0.251877	-0.725004
C96	C	0.822423	-0.318758	-0.725019
C97	C	0.822429	-0.318747	-0.779620
C98	C	0.789016	-0.285300	-0.806912
C99	C	0.755597	-0.251865	-0.779604
C100	C	0.688751	-0.184994	-0.724991
C101	C	0.688757	-0.184989	-0.779598
C102	C	0.722179	-0.218427	-0.806906
C103	C	0.722191	-0.218406	-0.861498
N104	N	0.755607	-0.251845	-0.888808
C105	C	0.789019	-0.285292	-0.861516
C106	C	0.722161	-0.218467	-0.528422
C107	C	0.722160	-0.218472	-0.473819
C108	C	0.788992	-0.285360	-0.473838
C109	C	0.788995	-0.285352	-0.528441
C110	C	0.755577	-0.251906	-0.555733
C111	C	0.789030	-0.285264	-0.976181
C112	C	0.789035	-0.285248	-1.030786
C113	C	0.722201	-0.218363	-1.030763
C114	C	0.722198	-0.218377	-0.976163
C115	C	0.755614	-0.251832	-0.948873
O116	O	0.693802	-0.189965	-0.889773
O117	O	0.817433	-0.313733	-0.889766
C118	C	0.755533	-0.251939	-0.116192
C119	C	0.755622	-0.251801	-0.058079
H120	H	0.816263	-0.953270	-0.312793
H121	H	0.816280	-1.052320	-0.312805
C122	C	0.564318	-0.322256	-0.322095
C123	C	0.601892	-0.299657	-0.363177
C124	C	0.631927	-0.336489	-0.399893
C125	C	0.624388	-0.395921	-0.395527
C126	C	0.586812	-0.418523	-0.354443
C127	C	0.556777	-0.381691	-0.317727
H128	H	0.607475	-0.255659	-0.366411
H129	H	0.659744	-0.319757	-0.430306
H130	H	0.646622	-0.423186	-0.422706
H131	H	0.581229	-0.462521	-0.351209
H132	H	0.528960	-0.398423	-0.287315
H133	H	0.661518	-0.702286	-0.157831
C134	C	0.313144	-0.355753	-0.355522
C135	C	0.305603	-0.415185	-0.351161
C136	C	0.335630	-0.452015	-0.387886
C137	C	0.373197	-0.429413	-0.428973
C138	C	0.380740	-0.369978	-0.433336
C139	C	0.350713	-0.333148	-0.396611
H140	H	0.277792	-0.431919	-0.320744
H141	H	0.330046	-0.496013	-0.384656
H142	H	0.395424	-0.456677	-0.456159
H143	H	0.408551	-0.353244	-0.463753
H144	H	0.356297	-0.289151	-0.399842
H145	H	0.661553	-0.801337	-0.157835
H146	H	0.457461	-0.312694	-0.312584
H147	H	0.661534	-0.157767	-0.702767
H148	H	0.816198	-0.312595	-0.451606
C149	C	0.651996	-0.148196	-0.809619
C150	C	0.592556	-0.152457	-0.802085
C151	C	0.555797	-0.115664	-0.832105
C152	C	0.578479	-0.074609	-0.869658
C153	C	0.637923	-0.070347	-0.877193
C154	C	0.674681	-0.107140	-0.847173
H155	H	0.575763	-0.182850	-0.774285
H156	H	0.511793	-0.118819	-0.826527
H157	H	0.551268	-0.047373	-0.891880
H158	H	0.654716	-0.039954	-0.904993
H159	H	0.718685	-0.103984	-0.852751
H160	H	0.206296	-0.346194	-0.345998
C161	C	0.198465	-0.148145	-0.148585
C162	C	0.160962	-0.107124	-0.171313
C163	C	0.130941	-0.070281	-0.134596
C164	C	0.138424	-0.074459	-0.075151
C165	C	0.175929	-0.115482	-0.052421
C166	C	0.205950	-0.152324	-0.089138
H167	H	0.155421	-0.104030	-0.215320
H168	H	0.103177	-0.039914	-0.151423
H169	H	0.116201	-0.047186	-0.047971
H170	H	0.181470	-0.118576	-0.008413
H171	H	0.233714	-0.182692	-0.072311
C172	C	0.859185	-0.355551	-0.695006
C173	C	0.918623	-0.351283	-0.702554
C174	C	0.955394	-0.388075	-0.672547
C175	C	0.932726	-0.429136	-0.634992
C176	C	0.873285	-0.433406	-0.627443
C177	C	0.836514	-0.396614	-0.657450
H178	H	0.935406	-0.320886	-0.730355
H179	H	0.999396	-0.384914	-0.678135
H180	H	0.959945	-0.456371	-0.612779
H181	H	0.856502	-0.463803	-0.599641
H182	H	0.792512	-0.399775	-0.651861
C183	C	0.685400	-0.181686	-0.443784
C184	C	0.648648	-0.144898	-0.473813
C185	C	0.611884	-0.108113	-0.443780
C186	C	0.611870	-0.108118	-0.383719
C187	C	0.648623	-0.144908	-0.353687
C188	C	0.685388	-0.181692	-0.383720
H189	H	0.648657	-0.144893	-0.518277
H190	H	0.584677	-0.080879	-0.466013
H191	H	0.584655	-0.080888	-0.361487
H192	H	0.648614	-0.144913	-0.309223
H193	H	0.712594	-0.208927	-0.361487
H194	H	0.694842	-0.451063	-0.191311
C195	C	0.825799	-0.322032	-1.060826
C196	C	0.866868	-0.299375	-1.098380
C197	C	0.903630	-0.336157	-1.128419
C198	C	0.899324	-0.395596	-1.120902
C199	C	0.858253	-0.418255	-1.083346
C200	C	0.821491	-0.381473	-1.053308
H201	H	0.870057	-0.255373	-1.103946
H202	H	0.934034	-0.319383	-1.156220
H203	H	0.926538	-0.422824	-1.143138
H204	H	0.855064	-0.462258	-1.077780
H205	H	0.791088	-0.398247	-1.025506
C206	C	-0.052698	-0.322300	-0.322188
C207	C	-0.112759	-0.322299	-0.322193
C208	C	-0.142790	-0.359129	-0.358915
C209	C	-0.112760	-0.395960	-0.395631
C210	C	-0.052695	-0.395963	-0.395627
C211	C	-0.022664	-0.359132	-0.358906
H212	H	-0.134992	-0.295033	-0.295012
H213	H	-0.187254	-0.359127	-0.358918
H214	H	-0.134991	-0.423224	-0.422815
H215	H	-0.030462	-0.423228	-0.422808
H216	H	0.021800	-0.359134	-0.358903
H217	H	0.054165	-0.312728	-0.312636
C218	C	-0.052718	-0.181672	-0.181982
C219	C	-0.022688	-0.144843	-0.145263
C220	C	-0.052719	-0.108012	-0.108543
C221	C	-0.112781	-0.108010	-0.108543
C222	C	-0.142814	-0.144840	-0.145264
C223	C	-0.112783	-0.181672	-0.181983
H224	H	0.021776	-0.144844	-0.145261
H225	H	-0.030486	-0.080748	-0.081360
H226	H	-0.135012	-0.080745	-0.081361
H227	H	-0.187278	-0.144840	-0.145265
H228	H	-0.135016	-0.208936	-0.209167
C229	C	0.685447	-0.181575	-1.060793
C230	C	0.644393	-0.204227	-1.098312
C231	C	0.607636	-0.167442	-1.128344
C232	C	0.611933	-0.108005	-1.120857
C233	C	0.652989	-0.085350	-1.083336
C234	C	0.689746	-0.122134	-1.053304
H235	H	0.641211	-0.248229	-1.103856
H236	H	0.577244	-0.184214	-1.156119
H237	H	0.584723	-0.080775	-1.143088
H238	H	0.656171	-0.041348	-1.077792
H239	H	0.720138	-0.105363	-1.025529
H240	H	0.849635	-0.801104	-0.346256
H241	H	0.816106	-0.450909	-0.312766
H242	H	0.816210	-0.312580	-0.550671
C243	C	0.313118	-0.148140	-0.148576
C244	C	0.305635	-0.088710	-0.152951
C245	C	0.335656	-0.051871	-0.116230
C246	C	0.373161	-0.074462	-0.075135
C247	C	0.380645	-0.133896	-0.070759
C248	C	0.350624	-0.170735	-0.107480
H249	H	0.277871	-0.071984	-0.183373
H250	H	0.330116	-0.007874	-0.119470
H251	H	0.395384	-0.047192	-0.047952
H252	H	0.408410	-0.150622	-0.040336
H253	H	0.356165	-0.214731	-0.104240
C254	C	0.825789	-0.322062	-0.946166
C255	C	0.885229	-0.317798	-0.953701
C256	C	0.921990	-0.354593	-0.923686
C257	C	0.899311	-0.395650	-0.886135
C258	C	0.839868	-0.399916	-0.878598
C259	C	0.803107	-0.363122	-0.908613
H260	H	0.902020	-0.287403	-0.981500
H261	H	0.965994	-0.351435	-0.929265
H262	H	0.926524	-0.422888	-0.863916
H263	H	0.823077	-0.430311	-0.850799
H264	H	0.759103	-0.366279	-0.903034
H265	H	0.457425	-0.191193	-0.191453
C266	C	0.859148	-0.694246	-0.355819
C267	C	0.918590	-0.701713	-0.351624
C268	C	0.955338	-0.671652	-0.388456
C269	C	0.932645	-0.634122	-0.429484
C270	C	0.873200	-0.626653	-0.433681
C271	C	0.836451	-0.656715	-0.396849
H272	H	0.935392	-0.729496	-0.321251
H273	H	0.999344	-0.677181	-0.385349
H274	H	0.959848	-0.611869	-0.456750
H275	H	0.856398	-0.598870	-0.464054
H276	H	0.792445	-0.651185	-0.399956
H277	H	0.816136	-0.549974	-0.312778
C278	C	0.685443	-0.945605	-0.181771
C279	C	0.708112	-0.908067	-0.140743
C280	C	0.671343	-0.878078	-0.103921
C281	C	0.611905	-0.885627	-0.108128
C282	C	0.589233	-0.923166	-0.149158
C283	C	0.626002	-0.953155	-0.185979
H284	H	0.752114	-0.902478	-0.137627
H285	H	0.688126	-0.850289	-0.073548
H286	H	0.584686	-0.863427	-0.080870
H287	H	0.545230	-0.928756	-0.152273
H288	H	0.609219	-0.980945	-0.216353
H289	H	0.556492	-0.191192	-0.191439
H290	H	0.054137	-0.191222	-0.191513
H291	H	0.849643	-0.345976	-0.801849
C292	C	0.685405	-0.181667	-0.558440
C293	C	0.625965	-0.185920	-0.550902
C294	C	0.589208	-0.149120	-0.580917
C295	C	0.611893	-0.108067	-0.618469
C296	C	0.671336	-0.103812	-0.626009
C297	C	0.708092	-0.140612	-0.595994
H298	H	0.609170	-0.216311	-0.523102
H299	H	0.545204	-0.152270	-0.575335
H300	H	0.584683	-0.080826	-0.640688
H301	H	0.688131	-0.073420	-0.653809
H302	H	0.752096	-0.137462	-0.601576
H303	H	0.694878	-0.550113	-0.191307
H304	H	0.694990	-0.191142	-0.953927
H305	H	0.695027	-1.052468	-0.191341
