data_functionalizedCrystal
_audit_creation_method	'MofGen! by Chris Wilmer'
_symmetry_space_group_name_H-M	'P1'
_symmetry_Int_Tables_number	1
_symmetry_cell_setting	triclinic
loop_
_symmetry_equiv_pos_as_xyz
  x,y,z
_cell_length_a	12.759401
_cell_length_b	25.639240
_cell_length_c	12.759393
_cell_angle_alpha	89.955765
_cell_angle_beta	89.981504
_cell_angle_gamma	90.032919
loop_
_atom_site_label
_atom_site_type_symbol
_atom_site_fract_x
_atom_site_fract_y
_atom_site_fract_z
Zn1	Zn	1.606124	-0.208118	-0.593889
Zn2	Zn	1.605962	-0.295564	-0.418170
Zn3	Zn	1.430425	-0.208145	-0.418228
Zn4	Zn	1.430359	-0.295524	-0.593812
O5	O	1.518218	-0.251838	-0.506025
O6	O	1.753123	-0.219723	-0.570587
O7	O	1.582638	-0.283996	-0.271157
O8	O	1.453828	-0.134976	-0.441587
O9	O	1.753005	-0.283970	-0.441488
O10	O	1.582912	-0.134956	-0.570644
O11	O	1.453671	-0.219770	-0.271199
O12	O	1.283396	-0.219731	-0.441512
O13	O	1.453714	-0.283901	-0.740843
O14	O	1.283347	-0.283928	-0.570512
O15	O	1.582847	-0.219684	-0.740900
O16	O	1.582573	-0.368724	-0.441413
O17	O	1.453558	-0.368695	-0.570456
C18	C	1.245250	-0.251828	-0.506010
C19	C	1.128474	-0.251837	-0.506029
C20	C	1.073614	-0.285318	-0.573089
C21	C	0.963889	-0.285324	-0.573100
C22	C	0.963895	-0.218368	-0.438984
C23	C	1.073617	-0.218359	-0.438978
C24	C	1.073609	-0.323976	-0.650516
C25	C	0.963885	-0.323983	-0.650528
C26	C	1.518069	-0.387680	-0.505942
C27	C	1.518102	-0.445795	-0.505942
C28	C	1.585465	-0.806109	-0.573346
C29	C	1.585496	-0.860713	-0.573367
O30	O	1.642595	-0.888908	-0.630592
N31	N	1.518363	-0.888077	-0.506126
C32	C	1.451188	-0.860834	-0.438867
O33	O	1.394088	-0.889123	-0.381676
C34	C	1.451152	-0.806230	-0.438852
C35	C	1.518297	-0.778869	-0.506090
C36	C	1.652604	-0.778747	-0.640579
C37	C	1.652574	-0.724147	-0.640556
C38	C	1.585406	-0.696907	-0.573300
C39	C	1.518267	-0.724269	-0.506067
C40	C	1.383972	-0.778988	-0.371598
C41	C	1.383941	-0.724381	-0.371590
C42	C	1.451086	-0.697020	-0.438828
C43	C	1.451069	-0.642429	-0.438787
N44	N	1.518202	-0.615065	-0.506028
C45	C	1.585370	-0.642304	-0.573285
C46	C	1.451266	-0.975504	-0.438905
C47	C	1.451306	-1.030107	-0.438915
C48	C	1.585614	-1.029982	-0.573417
C49	C	1.585578	-0.975379	-0.573401
C50	C	1.518399	-0.948140	-0.506146
C51	C	1.585303	-0.527639	-0.573231
C52	C	1.585270	-0.473034	-0.573199
C53	C	1.450959	-0.473163	-0.438701
C54	C	1.450995	-0.527764	-0.438729
C55	C	1.518171	-0.555000	-0.506002
O56	O	1.393996	-0.614199	-0.381595
O57	O	1.642450	-0.614008	-0.630476
C58	C	1.792251	-0.251848	-0.506040
C59	C	1.909027	-0.251852	-0.506046
C60	C	1.518291	-0.251785	-0.780058
C61	C	1.518323	-0.251763	-0.896835
C62	C	1.518395	-0.115465	-0.506130
C63	C	1.518471	-0.057351	-0.506175
C64	C	1.585572	-0.218322	-0.951728
C65	C	1.585597	-0.218303	-1.061452
C66	C	1.451120	-0.285170	-1.061380
C67	C	1.451091	-0.285186	-0.951658
C68	C	1.663214	-0.179718	-0.951771
C69	C	1.663239	-0.179699	-1.061495
C70	C	1.518205	-0.251853	-0.233057
C71	C	1.518377	-0.251728	-0.116281
H72	H	0.929897	-0.309529	-0.727886
H73	H	1.641471	-0.139227	-0.922033
H74	H	0.934064	-0.364467	-0.628578
H75	H	1.744603	-0.190544	-1.091268
H76	H	1.103424	-0.313178	-0.731928
Br77	Br	1.614584	-0.115610	-1.118284
Br78	Br	1.148068	-0.172907	-0.347989
H79	H	1.107599	-0.362421	-0.621215
Br80	Br	0.889441	-0.172934	-0.347994
Br81	Br	1.791987	-0.203910	-0.895020
H82	H	1.639951	-0.450758	-0.627952
H83	H	1.396274	-0.450977	-0.383938
Br84	Br	1.292838	-0.816108	-0.280343
Br85	Br	1.676472	-0.564595	-0.664529
H86	H	1.707246	-0.701872	-0.695310
Br87	Br	1.743768	-0.815705	-0.731874
Br88	Br	1.292762	-0.687418	-0.280312
H89	H	1.640304	-1.052170	-0.628182
Br90	Br	1.676706	-0.938251	-0.664656
Br91	Br	1.360195	-1.067233	-0.347642
H92	H	1.396564	-0.953330	-0.384130
H93	H	1.396327	-0.312415	-0.906968
Br94	Br	1.359886	-0.564898	-0.347460
H95	H	1.396381	-0.312382	-1.106031
