data_functionalizedCrystal
_audit_creation_method	'MofGen! by Chris Wilmer'
_symmetry_space_group_name_H-M	'P1'
_symmetry_Int_Tables_number	1
_symmetry_cell_setting	triclinic
loop_
_symmetry_equiv_pos_as_xyz
  x,y,z
_cell_length_a	12.759401
_cell_length_b	16.120297
_cell_length_c	12.759400
_cell_angle_alpha	92.875400
_cell_angle_beta	90.014606
_cell_angle_gamma	92.880546
loop_
_atom_site_label
_atom_site_type_symbol
_atom_site_fract_x
_atom_site_fract_y
_atom_site_fract_z
Zn1	Zn	1.576120	-0.471353	-0.448415
Zn2	Zn	2.076120	0.028647	0.051585
Zn3	Zn	1.584927	-0.331948	-0.615199
Zn4	Zn	2.084927	0.168052	-0.115199
Zn5	Zn	1.409334	-0.331961	-0.439536
Zn6	Zn	1.909334	0.168039	0.060464
Zn7	Zn	1.400413	-0.471320	-0.624050
Zn8	Zn	1.900413	0.028680	-0.124050
O9	O	1.492698	-0.401646	-0.531800
O10	O	1.992698	0.098354	-0.031800
O11	O	1.724309	-0.452869	-0.470551
O12	O	2.224309	0.047131	0.029449
O13	O	1.569054	-0.215287	-0.584477
O14	O	2.069054	0.284713	-0.084477
O15	O	1.431506	-0.350471	-0.293694
O16	O	1.931506	0.149529	0.206306
O17	O	1.730779	-0.350449	-0.593087
O18	O	2.230779	0.149551	-0.093087
O19	O	1.554043	-0.452881	-0.300217
O20	O	2.054043	0.047119	0.199783
O21	O	1.440046	-0.215296	-0.455418
O22	O	1.940046	0.284704	0.044582
O23	O	1.261130	-0.350440	-0.464000
O24	O	1.761130	0.149560	0.036000
O25	O	1.416301	-0.587988	-0.608171
O26	O	1.916301	-0.087988	-0.108171
O27	O	1.254576	-0.452826	-0.599562
O28	O	1.754576	0.047174	-0.099562
O29	O	1.545393	-0.588012	-0.479133
O30	O	2.045393	-0.088012	0.020867
O31	O	1.560403	-0.350417	-0.763393
O32	O	2.060403	0.149583	-0.263393
O33	O	1.424841	-0.452813	-0.769896
O34	O	1.924841	0.047187	-0.269896
C35	C	1.219732	-0.401631	-0.531778
C36	C	1.719732	0.098369	-0.031778
C37	C	1.102954	-0.401644	-0.531796
C38	C	1.602954	0.098356	-0.031796
C39	C	0.941743	-0.348436	-0.461147
C40	C	1.441743	0.151564	0.038853
C41	C	1.051468	-0.348427	-0.461126
C42	C	1.551468	0.151573	0.038874
C43	C	1.044710	-0.454882	-0.602484
C44	C	1.544710	0.045118	-0.102484
C45	C	0.934988	-0.454895	-0.602499
C46	C	1.434988	0.045105	-0.102499
C47	C	0.945645	-0.286973	-0.379538
C48	C	1.445645	0.213027	0.120462
C49	C	1.055370	-0.286963	-0.379517
C50	C	1.555370	0.213037	0.120483
C51	C	1.478870	-0.619095	-0.545630
C52	C	1.978870	-0.119095	-0.045630
C53	C	1.472976	-0.711759	-0.551523
C54	C	1.972976	-0.211759	-0.051523
C55	C	1.462179	-0.881417	-0.562260
C56	C	1.962179	-0.381417	-0.062260
C57	C	1.523425	-0.922726	-0.501025
C58	C	2.023425	-0.422726	-0.001025
C59	C	1.517417	-1.017129	-0.506999
C60	C	2.017417	-0.517129	-0.006999
C61	C	1.468185	-0.787005	-0.556287
C62	C	1.968185	-0.287005	-0.056287
C63	C	1.766731	-0.401661	-0.531822
C64	C	2.266731	0.098339	-0.031822
C65	C	1.883507	-0.401668	-0.531832
C66	C	2.383507	0.098332	-0.031832
C67	C	1.492637	-0.401628	-0.804766
C68	C	1.992637	0.098372	-0.304766
C69	C	1.492705	-0.401649	-0.921544
C70	C	1.992705	0.098351	-0.421544
C71	C	1.506534	-0.185042	-0.517948
C72	C	2.006534	0.314958	-0.017948
C73	C	1.512630	-0.092379	-0.511758
C74	C	2.012630	0.407621	-0.011758
C75	C	1.563363	-0.348390	-0.972989
C76	C	2.063363	0.151610	-0.472989
C77	C	1.563426	-0.348416	-1.082715
C78	C	2.063426	0.151584	-0.582715
C79	C	1.422164	-0.454961	-1.089541
C80	C	1.922164	0.045039	-0.589541
C81	C	1.422107	-0.454939	-0.979817
C82	C	1.922107	0.045061	-0.479817
C83	C	1.644917	-0.286875	-0.969049
C84	C	2.144917	0.213125	-0.469049
C85	C	1.644980	-0.286900	-1.078775
C86	C	2.144980	0.213100	-0.578775
C87	C	1.492787	-0.401681	-0.257769
C88	C	1.992787	0.098319	0.242231
C89	C	1.492825	-0.401697	-0.140993
C90	C	1.992825	0.098303	0.359007
H91	H	1.089237	-0.222362	-0.397076
H92	H	1.589237	0.277638	0.102924
N93	N	1.621663	-0.201366	-1.112863
N94	N	2.121663	0.298634	-0.612863
H95	H	1.550558	-0.185944	-1.085599
H96	H	2.050558	0.314056	-0.585599
H97	H	1.621764	-0.201415	-1.192020
H98	H	2.121764	0.298585	-0.692020
N99	N	1.386746	-0.928490	-0.637628
N100	N	1.886746	-0.428490	-0.137628
H101	H	1.427174	-0.964629	-0.688554
H102	H	1.927174	-0.464629	-0.188554
H103	H	1.346713	-0.887727	-0.677598
H104	H	1.846713	-0.387727	-0.177598
N105	N	0.872176	-0.512309	-0.678738
N106	N	1.372176	-0.012309	-0.178738
H107	H	0.824208	-0.551006	-0.638585
H108	H	1.324208	-0.051006	-0.138585
H109	H	0.921514	-0.545964	-0.723483
H110	H	1.421514	-0.045964	-0.223483
H111	H	1.364581	-0.498314	-0.937932
H112	H	1.864581	0.001686	-0.437932
N113	N	1.346022	-0.512436	-1.152393
N114	N	1.846022	-0.012436	-0.652393
H115	H	1.356780	-0.504371	-1.229709
H116	H	1.856780	-0.004371	-0.729709
H117	H	1.271818	-0.499405	-1.132453
H118	H	1.771818	0.000595	-0.632453
N119	N	1.751190	-0.309842	-0.930958
N120	N	2.251190	0.190158	-0.430958
H121	H	1.798656	-0.320113	-0.993103
H122	H	2.298656	0.179887	-0.493103
H123	H	1.743048	-0.361902	-0.890241
H124	H	2.243048	0.138098	-0.390241
H125	H	1.720801	-0.310081	-1.114205
H126	H	2.220801	0.189919	-0.614205
H127	H	1.619715	-0.225515	-0.931169
H128	H	2.119715	0.274485	-0.431169
N129	N	1.598860	-0.875666	-0.425637
N130	N	2.098860	-0.375666	0.074363
H131	H	1.592516	-0.813920	-0.432002
H132	H	2.092516	-0.313920	0.067998
H133	H	1.672940	-0.890847	-0.442943
H134	H	2.172940	-0.390847	0.057057
H135	H	0.914778	-0.304376	-0.299312
H136	H	1.414778	0.195624	0.200688
N137	N	1.100236	-0.512286	-0.678703
N138	N	1.600236	-0.012286	-0.178703
H139	H	1.178583	-0.504202	-0.667969
H140	H	1.678583	-0.004202	-0.167969
H141	H	1.081877	-0.499208	-0.752882
H142	H	1.581877	0.000792	-0.252882
H143	H	0.915494	-0.225605	-0.404668
H144	H	1.415494	0.274395	0.095332
H145	H	1.087938	-0.310192	-0.303738
H146	H	1.587938	0.189808	0.196262
