data_functionalizedCrystal
_audit_creation_method	'MofGen! by Chris Wilmer'
_symmetry_space_group_name_H-M	'P1'
_symmetry_Int_Tables_number	1
_symmetry_cell_setting	triclinic
loop_
_symmetry_equiv_pos_as_xyz
  x,y,z
_cell_length_a	25.639239
_cell_length_b	12.759401
_cell_length_c	12.759393
_cell_angle_alpha	90.019559
_cell_angle_beta	89.962948
_cell_angle_gamma	89.963164
loop_
_atom_site_label
_atom_site_type_symbol
_atom_site_fract_x
_atom_site_fract_y
_atom_site_fract_z
Zn1	Zn	-0.208146	-1.606080	-0.593971
Zn2	Zn	-0.295593	-1.605901	-0.418274
Zn3	Zn	-0.208170	-1.430382	-0.418307
Zn4	Zn	-0.295549	-1.430297	-0.593912
O5	O	-0.251864	-1.518165	-0.506116
O6	O	-0.219754	-1.753077	-0.570675
O7	O	-0.284024	-1.582579	-0.271257
O8	O	-0.135002	-1.453799	-0.441648
O9	O	-0.284000	-1.752946	-0.441592
O10	O	-0.134984	-1.582884	-0.570707
O11	O	-0.219795	-1.453626	-0.271282
O12	O	-0.219753	-1.283350	-0.441591
O13	O	-0.283927	-1.453655	-0.740941
O14	O	-0.283950	-1.283288	-0.570607
O15	O	-0.219712	-1.582802	-0.740984
O16	O	-0.368752	-1.582496	-0.441535
O17	O	-0.368720	-1.453481	-0.570575
C18	C	-0.251850	-1.245198	-0.506097
C19	C	-0.251856	-1.128421	-0.506114
C20	C	-0.387707	-1.517989	-0.506068
C21	C	-0.445821	-1.518009	-0.506083
C22	C	-0.285336	-1.073554	-0.573180
C23	C	-0.285341	-0.963830	-0.573190
C24	C	-0.218384	-0.963850	-0.439057
C25	C	-0.218377	-1.073572	-0.439053
C26	C	-0.323995	-1.073542	-0.650618
C27	C	-0.324000	-0.963818	-0.650627
C28	C	-0.806188	-1.585519	-0.439039
C29	C	-0.860792	-1.585559	-0.439053
O30	O	-0.889032	-1.642775	-0.381998
N31	N	-0.888103	-1.518350	-0.506186
C32	C	-0.860807	-1.451103	-0.573316
O33	O	-0.889052	-1.393940	-0.630420
C34	C	-0.806204	-1.451068	-0.573307
C35	C	-0.778896	-1.518275	-0.506162
C36	C	-0.778880	-1.652721	-0.371901
C37	C	-0.724279	-1.652678	-0.371886
C38	C	-0.696987	-1.585434	-0.439009
C39	C	-0.724295	-1.518232	-0.506147
C40	C	-0.778909	-1.383827	-0.640442
C41	C	-0.724302	-1.383799	-0.640427
C42	C	-0.696994	-1.451005	-0.573282
C43	C	-0.642403	-1.450946	-0.573255
N44	N	-0.615091	-1.518155	-0.506122
C45	C	-0.642384	-1.585399	-0.438999
C46	C	-0.975478	-1.451182	-0.573332
C47	C	-1.030080	-1.451210	-0.573337
C48	C	-1.030061	-1.585669	-0.439076
C49	C	-0.975458	-1.585634	-0.439066
C50	C	-0.948167	-1.518391	-0.506200
C51	C	-0.527719	-1.585305	-0.438972
C52	C	-0.473113	-1.585253	-0.438960
C53	C	-0.473137	-1.450799	-0.573225
C54	C	-0.527737	-1.450846	-0.573234
C55	C	-0.555027	-1.518108	-0.506104
O56	O	-0.614128	-1.393762	-0.630284
O57	O	-0.614133	-1.642562	-0.381915
C58	C	-0.115491	-1.518371	-0.506187
C59	C	-0.057377	-1.518459	-0.506218
C60	C	-0.251812	-1.518239	-0.780150
C61	C	-0.251789	-1.518270	-0.896926
C62	C	-0.251875	-0.792198	-0.506132
C63	C	-0.251868	-0.908975	-0.506126
C64	C	-0.218349	-1.585526	-0.951813
C65	C	-0.218330	-1.585551	-1.061537
C66	C	-0.285196	-1.451061	-1.061479
C67	C	-0.285212	-1.451032	-0.951757
C68	C	-0.179747	-1.663176	-0.951847
C69	C	-0.179728	-1.663201	-1.061571
C70	C	-0.251879	-1.518152	-0.233149
C71	C	-0.251754	-1.518325	-0.116373
H72	H	-0.191111	-1.118241	-0.384448
H73	H	-0.702084	-1.329043	-0.695099
C74	C	-0.321980	-1.377028	-0.891367
C75	C	-0.363041	-1.422435	-0.815887
C76	C	-0.399804	-1.348420	-0.755491
C77	C	-0.395507	-1.228999	-0.770574
C78	C	-0.354444	-1.183585	-0.846058
C79	C	-0.317680	-1.257600	-0.906454
H80	H	-0.366224	-1.510844	-0.804718
H81	H	-0.430202	-1.382039	-0.699613
H82	H	-0.422721	-1.174209	-0.725865
H83	H	-0.351261	-1.095176	-0.857227
H84	H	-0.287283	-1.223981	-0.962332
C85	C	-0.304478	-0.917898	-0.755127
C86	C	-0.340372	-0.846576	-0.820503
C87	C	-0.320850	-0.800656	-0.925000
C88	C	-0.265434	-0.826059	-0.964121
C89	C	-0.229536	-0.897385	-0.898744
C90	C	-0.249058	-0.943305	-0.794247
H91	H	-0.381398	-0.827768	-0.791545
H92	H	-0.347425	-0.747856	-0.973397
H93	H	-0.250982	-0.792067	-1.041476
H94	H	-0.188510	-0.916193	-0.927703
H95	H	-0.222483	-0.996105	-0.745851
H96	H	-0.139255	-1.641442	-0.922098
C97	C	-0.378685	-0.923508	-0.620973
C98	C	-0.422765	-1.001871	-0.597052
C99	C	-0.477447	-0.961562	-0.567396
C100	C	-0.488049	-0.842890	-0.561661
C101	C	-0.443969	-0.764519	-0.585584
C102	C	-0.389286	-0.804829	-0.615240
H103	H	-0.414917	-1.089726	-0.601296
H104	H	-0.510078	-1.019577	-0.549687
H105	H	-0.528529	-0.813050	-0.539708
H106	H	-0.451816	-0.676664	-0.581340
H107	H	-0.356655	-0.746813	-0.632949
C108	C	-0.127752	-1.623936	-1.107589
C109	C	-0.083233	-1.590262	-1.033976
C110	C	-0.031259	-1.550997	-1.079996
C111	C	-0.023804	-1.545404	-1.199629
C112	C	-0.068323	-1.579079	-1.273249
C113	C	-0.120297	-1.618345	-1.227229
H114	H	-0.088751	-1.594401	-0.945409
H115	H	0.001697	-1.526069	-1.025496
H116	H	0.014671	-1.516338	-1.233696
H117	H	-0.062806	-1.574940	-1.361816
H118	H	-0.153254	-1.643273	-1.281729
H119	H	-0.191127	-0.919178	-0.384459
H120	H	-0.190574	-1.744563	-1.091349
H121	H	-0.313197	-1.103359	-0.732027
C122	C	-0.443075	-1.659187	-0.365098
C123	C	-0.405595	-1.613683	-0.282556
C124	C	-0.375559	-1.687616	-0.208698
C125	C	-0.383005	-1.807052	-0.217383
C126	C	-0.420487	-1.852562	-0.299928
C127	C	-0.450522	-1.778630	-0.373786
H128	H	-0.400082	-1.525264	-0.276125
H129	H	-0.347812	-1.653925	-0.147593
H130	H	-0.360771	-1.861781	-0.162709
H131	H	-0.426000	-1.940982	-0.306360
H132	H	-0.478269	-1.812320	-0.434892
C133	C	-0.557732	-1.659284	-0.365123
C134	C	-0.550268	-1.650756	-0.245680
C135	C	-0.580281	-1.724728	-0.171826
C136	C	-0.617759	-1.807229	-0.217415
C137	C	-0.625225	-1.815761	-0.336864
C138	C	-0.595212	-1.741789	-0.410718
H139	H	-0.522523	-1.589681	-0.211927
H140	H	-0.574754	-1.718412	-0.083402
H141	H	-0.639977	-1.861987	-0.162743
H142	H	-0.652970	-1.876836	-0.370617
H143	H	-0.600739	-1.748105	-0.499142
H144	H	-0.362440	-1.107524	-0.621327
H145	H	-0.312406	-1.396316	-1.106135
H146	H	-0.702048	-1.707407	-0.317214
C147	C	-0.808894	-1.726694	-0.298053
C148	C	-0.846480	-1.681241	-0.215524
C149	C	-0.876489	-1.755213	-0.141663
C150	C	-0.868913	-1.874638	-0.150331
C151	C	-0.831326	-1.920097	-0.232863
C152	C	-0.801316	-1.846125	-0.306724
H153	H	-0.852090	-1.592829	-0.209105
H154	H	-0.904314	-1.721560	-0.080568
H155	H	-0.891128	-1.929396	-0.095655
H156	H	-0.825716	-2.008509	-0.239282
H157	H	-0.773492	-1.879778	-0.367819
C158	C	-1.060090	-1.659647	-0.365244
C159	C	-1.120151	-1.659685	-0.365269
C160	C	-1.150181	-1.733658	-0.291442
C161	C	-1.120149	-1.807593	-0.217589
C162	C	-1.060084	-1.807557	-0.217561
C163	C	-1.030054	-1.733585	-0.291389
H164	H	-1.142386	-1.604952	-0.419942
H165	H	-1.194645	-1.733684	-0.291463
H166	H	-1.142379	-1.862352	-0.162938
H167	H	-1.037850	-1.862291	-0.162889
H168	H	-0.985590	-1.733559	-0.291367
H169	H	-0.953227	-1.640360	-0.384392
C170	C	-1.060116	-1.377274	-0.647189
C171	C	-1.030087	-1.303310	-0.721019
C172	C	-1.060121	-1.229376	-0.794879
C173	C	-1.120182	-1.229406	-0.794909
C174	C	-1.150214	-1.303372	-0.721076
C175	C	-1.120181	-1.377306	-0.647217
H176	H	-0.985623	-1.303286	-0.720999
H177	H	-1.037889	-1.174622	-0.849534
H178	H	-1.142414	-1.174675	-0.849584
H179	H	-1.194678	-1.303397	-0.721096
H180	H	-1.142412	-1.432061	-0.592561
H181	H	-0.953260	-1.396416	-0.627998
H182	H	-0.801134	-1.329095	-0.695113
C183	C	-0.557782	-1.376922	-0.647089
C184	C	-0.595387	-1.294494	-0.601515
C185	C	-0.625428	-1.220580	-0.675381
C186	C	-0.617866	-1.229094	-0.794821
C187	C	-0.580260	-1.311525	-0.840401
C188	C	-0.550218	-1.385439	-0.766535
H189	H	-0.600986	-1.288189	-0.513093
H190	H	-0.653267	-1.159559	-0.641640
H191	H	-0.640104	-1.174379	-0.849501
H192	H	-0.574660	-1.317831	-0.928823
H193	H	-0.522380	-1.446460	-0.800277
H194	H	-0.450907	-1.396046	-0.627873
H195	H	-0.194264	-1.740436	-0.917809
