data_functionalizedCrystal
_audit_creation_method	'MofGen! by Chris Wilmer'
_symmetry_space_group_name_H-M	'P1'
_symmetry_Int_Tables_number	1
_symmetry_cell_setting	triclinic
loop_
_symmetry_equiv_pos_as_xyz
  x,y,z
_cell_length_a	13.897449
_cell_length_b	29.839131
_cell_length_c	13.897441
_cell_angle_alpha	89.958174
_cell_angle_beta	89.978743
_cell_angle_gamma	90.036054
loop_
_atom_site_label
_atom_site_type_symbol
_atom_site_fract_x
_atom_site_fract_y
_atom_site_fract_z
Zn1	Zn	1.474565	-0.178833	-0.545368
Zn2	Zn	1.474415	-0.253967	-0.384035
Zn3	Zn	1.313260	-0.178853	-0.384079
Zn4	Zn	1.313186	-0.253938	-0.545280
O5	O	1.393857	-0.216398	-0.464690
O6	O	1.609527	-0.188804	-0.523985
O7	O	1.453006	-0.244023	-0.249059
O8	O	1.334751	-0.115983	-0.405529
O9	O	1.609417	-0.244004	-0.405454
O10	O	1.453261	-0.115969	-0.524028
O11	O	1.334606	-0.188837	-0.249091
O12	O	1.178269	-0.188809	-0.405444
O13	O	1.334625	-0.243955	-0.680273
O14	O	1.178214	-0.243974	-0.523878
O15	O	1.453189	-0.188776	-0.680338
O16	O	1.452935	-0.316830	-0.405369
O17	O	1.334480	-0.316809	-0.523835
C18	C	1.143242	-0.216391	-0.464657
C19	C	1.036028	-0.216399	-0.464665
C20	C	0.948959	-0.216400	-0.464681
C21	C	0.839726	-0.216404	-0.464711
C22	C	1.393709	-0.333120	-0.464609
C23	C	1.393735	-0.383055	-0.464607
C24	C	1.455551	-0.692656	-0.526480
C25	C	1.455656	-0.880329	-0.526538
O26	O	1.508070	-0.904558	-0.579085
N27	N	1.394020	-0.903840	-0.464797
C28	C	1.332350	-0.880430	-0.403042
O29	O	1.279920	-0.904734	-0.350536
C30	C	1.332241	-0.692758	-0.402990
C31	C	1.393887	-0.669249	-0.464728
C32	C	1.517192	-0.669147	-0.588214
C33	C	1.517169	-0.622232	-0.588195
C34	C	1.455505	-0.598825	-0.526443
C35	C	1.393864	-0.622334	-0.464709
C36	C	1.270566	-0.669348	-0.341240
C37	C	1.270543	-0.622427	-0.341234
C38	C	1.332189	-0.598919	-0.402972
C39	C	1.332177	-0.552011	-0.402937
N40	N	1.393813	-0.528500	-0.464678
C41	C	1.455477	-0.551907	-0.526431
C42	C	1.332413	-0.978960	-0.403073
C43	C	1.332441	-1.025878	-0.403084
C44	C	1.455746	-1.025774	-0.526582
C45	C	1.455722	-0.978855	-0.526565
C46	C	1.394048	-0.955449	-0.464814
C47	C	1.455424	-0.453381	-0.526386
C48	C	1.455399	-0.406462	-0.526359
C49	C	1.332090	-0.406570	-0.402865
C50	C	1.332119	-0.453485	-0.402888
C51	C	1.393789	-0.476890	-0.464657
O52	O	1.279783	-0.527754	-0.350426
O53	O	1.507883	-0.527595	-0.578944
C54	C	1.455574	-0.739571	-0.526499
C55	C	1.393934	-0.763080	-0.464765
C56	C	1.332270	-0.739673	-0.403013
C57	C	1.393962	-0.809998	-0.464777
C58	C	1.455626	-0.833405	-0.526530
C59	C	1.517261	-0.809894	-0.588271
C60	C	1.517238	-0.762978	-0.588252
C61	C	1.270634	-0.763184	-0.341272
C62	C	1.270663	-0.810100	-0.341295
C63	C	1.332327	-0.833506	-0.403048
C64	C	1.645449	-0.216405	-0.464725
C65	C	1.752663	-0.216408	-0.464739
C66	C	1.393916	-0.216360	-0.716284
C67	C	1.393941	-0.216344	-0.823498
C68	C	1.394031	-0.099220	-0.464793
C69	C	1.394105	-0.049285	-0.464837
C70	C	1.393961	-0.216331	-0.910567
C71	C	1.393988	-0.216311	-1.019800
C72	C	1.393853	-0.216403	-0.214076
C73	C	1.394015	-0.216293	-0.106863
H74	H	1.505602	-0.387323	-0.576634
C75	C	1.577303	-0.448553	-0.648459
C76	C	1.523211	-0.479103	-0.594284
H77	H	1.619155	-0.464433	-0.690370
H78	H	1.535241	-0.430255	-0.685299
H79	H	1.614210	-0.430256	-0.606445
H80	H	1.486298	-0.497397	-0.636297
H81	H	1.565278	-0.497408	-0.557441
H82	H	1.567406	-0.688200	-0.638506
H83	H	1.281887	-0.387505	-0.352584
H84	H	1.567474	-0.828960	-0.638549
H85	H	1.505919	-0.959717	-0.576838
H86	H	1.220367	-0.688481	-0.290966
C87	C	1.510517	-1.097654	-0.581438
C88	C	1.523521	-1.051509	-0.594470
H89	H	1.552348	-1.113542	-0.623355
H90	H	1.524687	-1.105359	-0.516652
H91	H	1.445695	-1.105356	-0.595483
H92	H	1.588342	-1.043806	-0.580417
H93	H	1.509357	-1.043801	-0.659270
C94	C	1.210553	-1.021257	-0.281018
C95	C	1.264683	-1.051716	-0.335214
H96	H	1.168714	-1.037207	-0.239125
H97	H	1.252592	-1.002956	-0.244159
H98	H	1.173630	-1.002954	-0.323020
H99	H	1.301612	-1.070016	-0.293213
H100	H	1.222638	-1.070024	-0.372076
H101	H	1.220317	-0.603372	-0.290950
C102	C	1.639043	-0.626856	-0.710271
C103	C	1.584925	-0.596395	-0.656069
H104	H	1.680869	-0.610907	-0.752180
H105	H	1.675971	-0.645155	-0.668282
H106	H	1.596989	-0.645160	-0.747123
H107	H	1.626980	-0.578094	-0.619211
H108	H	1.547995	-0.578088	-0.698063
C109	C	1.148763	-0.805478	-0.219231
C110	C	1.202892	-0.835937	-0.273427
H111	H	1.106918	-0.821429	-0.177344
H112	H	1.190803	-0.787181	-0.182364
H113	H	1.111847	-0.787172	-0.261232
H114	H	1.239814	-0.854240	-0.231426
H115	H	1.160847	-0.854242	-0.310297
C116	C	1.210232	-0.448873	-0.280817
C117	C	1.264360	-0.479329	-0.335024
H118	H	1.168391	-0.464826	-0.238930
H119	H	1.252273	-0.430577	-0.243950
H120	H	1.173312	-0.430566	-0.322812
H121	H	1.301286	-0.497633	-0.293029
H122	H	1.222314	-0.497633	-0.371894
C123	C	1.639113	-0.767603	-0.710327
C124	C	1.584995	-0.737142	-0.656125
H125	H	1.680939	-0.751653	-0.752236
H126	H	1.676040	-0.785902	-0.668338
H127	H	1.597058	-0.785906	-0.747179
H128	H	1.627049	-0.718840	-0.619267
H129	H	1.548064	-0.718835	-0.698120
C130	C	1.202615	-0.926267	-0.389510
C131	C	1.264618	-0.953238	-0.335183
H132	H	1.160761	-0.910391	-0.347593
H133	H	1.239312	-0.905547	-0.426263
H134	H	1.165712	-0.944573	-0.431506
H135	H	1.301527	-0.934931	-0.293191
H136	H	1.227918	-0.973959	-0.298413
C137	C	1.140851	-0.710486	-0.327706
C138	C	1.202849	-0.737461	-0.273383
H139	H	1.099000	-0.694610	-0.285786
H140	H	1.177550	-0.689767	-0.364457
H141	H	1.103943	-0.728790	-0.369704
H142	H	1.239762	-0.719157	-0.231389
H143	H	1.166146	-0.758182	-0.236616
