data_functionalizedCrystal
_audit_creation_method	'MofGen! by Chris Wilmer'
_symmetry_space_group_name_H-M	'P1'
_symmetry_Int_Tables_number	1
_symmetry_cell_setting	triclinic
loop_
_symmetry_equiv_pos_as_xyz
  x,y,z
_cell_length_a	23.196402
_cell_length_b	17.917595
_cell_length_c	23.196401
_cell_angle_alpha	89.993608
_cell_angle_beta	59.997774
_cell_angle_gamma	122.983368
loop_
_atom_site_label
_atom_site_type_symbol
_atom_site_fract_x
_atom_site_fract_y
_atom_site_fract_z
Zr1	Zr	0.577915	-0.754970	-0.049087
O2	O	0.706988	-0.629839	-0.145542
O3	O	0.454953	-0.793317	-0.019522
O4	O	0.575235	-0.793304	-0.139798
O5	O	0.586687	-0.629877	0.069613
O6	O	0.566170	-0.922260	-0.135263
O7	O	0.586705	-0.629853	-0.025266
O8	O	0.351006	-0.922285	0.079888
O9	O	0.801851	-0.629852	-0.145538
O10	O	0.496499	-0.905925	-0.003525
O11	O	0.503252	-0.809704	0.063899
O12	O	0.644869	-0.809688	-0.077711
O13	O	0.651621	-0.713467	-0.010287
Zr14	Zr	0.563427	-0.960678	0.109467
Zr15	Zr	0.563456	-0.960640	-0.041855
Zr16	Zr	0.577886	-0.755008	0.102235
Zr17	Zr	0.729210	-0.754990	-0.049081
Zr18	Zr	0.412131	-0.960658	0.109461
O19	O	0.686389	-0.922331	0.079902
O20	O	0.686430	-0.922277	-0.135258
O21	O	0.706947	-0.629893	0.069618
O22	O	0.434353	-1.085809	0.205922
O23	O	0.434394	-1.085755	-0.009239
O24	O	0.454912	-0.793371	0.195638
O25	O	0.554654	-1.085771	-0.009234
O26	O	0.566106	-0.922344	0.200178
O27	O	0.575172	-0.793388	0.195643
O28	O	0.554636	-1.085795	0.085646
O29	O	0.790359	-0.793333	-0.139789
O30	O	0.350983	-0.922315	0.200169
O31	O	0.339490	-1.085796	0.205918
O32	O	0.339513	-1.085765	0.085637
O33	O	0.801829	-0.629883	-0.025257
O34	O	0.790336	-0.793363	-0.019508
O35	O	0.496472	-0.905960	0.138090
O36	O	0.489720	-1.002181	0.070667
O37	O	0.638090	-0.905944	-0.003519
O38	O	0.644842	-0.809723	0.063904
C39	C	0.381423	-0.857798	0.030182
C40	C	0.317194	-0.857789	0.030179
C41	C	0.229761	-0.928846	0.084943
C42	C	0.169400	-0.928853	0.084949
C43	C	0.196477	-0.857810	0.030182
C44	C	0.283924	-0.786740	-0.024586
C45	C	0.344283	-0.786730	-0.024588
C46	C	0.142456	-0.835673	-0.034393
C47	C	0.082096	-0.835690	-0.034392
C48	C	0.010313	-0.857835	0.030186
C49	C	-0.001114	-0.879985	0.094768
C50	C	0.059245	-0.879975	0.094766
C51	C	0.131034	-0.857812	0.030178
C52	C	-0.142574	-0.928904	0.084961
C53	C	-0.202934	-0.928904	0.084968
C54	C	-0.088407	-0.786794	-0.024573
C55	C	-0.028050	-0.786791	-0.024575
C56	C	-0.055139	-0.857850	0.030192
C57	C	0.588756	-0.600561	0.021143
C58	C	0.594895	-0.513249	0.018073
C59	C	0.606107	-0.353405	0.012465
C60	C	0.535231	-0.362240	0.047903
C61	C	0.541470	-0.273298	0.044783
C62	C	0.599870	-0.442354	0.015584
C63	C	0.759919	-0.857850	0.030198
C64	C	0.824148	-0.857859	0.030201
C65	C	0.570707	-0.857776	-0.159091
C66	C	0.570719	-0.857760	-0.223331
C67	C	0.552583	-0.115088	0.039234
C68	C	0.546440	-0.202404	0.042297
C69	C	0.565726	-0.928806	-0.250996
C70	C	0.565708	-0.928827	-0.311342
C71	C	0.570700	-0.857788	-0.344029
C72	C	0.575689	-0.786736	-0.316355
C73	C	0.575699	-0.786723	-0.256006
C74	C	0.624288	-0.771095	-0.466458
C75	C	0.624284	-0.771109	-0.526808
C76	C	0.570668	-0.857830	-0.530164
C77	C	0.517067	-0.944545	-0.473167
C78	C	0.517076	-0.944531	-0.412818
C79	C	0.570691	-0.857796	-0.409468
C80	C	0.565654	-0.928905	-0.623262
C81	C	0.565631	-0.928927	-0.683606
C82	C	0.575622	-0.786828	-0.688623
C83	C	0.575636	-0.786814	-0.628275
C84	C	0.570656	-0.857852	-0.595600
C85	C	0.570635	-0.857872	0.219471
C86	C	0.570623	-0.857888	0.283711
C87	C	0.363337	-1.115061	0.039229
C88	C	0.292970	-1.202365	0.042296
C89	C	0.381387	-0.857846	0.219463
C90	C	0.317146	-0.857853	0.283700
C91	C	0.363301	-1.115108	0.228510
C92	C	0.292922	-1.202428	0.295818
C93	C	0.778040	-0.600540	-0.168130
C94	C	0.848420	-0.513220	-0.235438
C95	C	0.778004	-0.600587	0.021151
C96	C	0.848372	-0.513284	0.018083
C97	C	0.759955	-0.857802	-0.159083
C98	C	0.824196	-0.857795	-0.223320
C99	C	0.263463	-1.193118	0.005003
C100	C	0.197355	-1.275142	0.007871
C101	C	0.160750	-1.366410	0.048037
C102	C	0.190263	-1.375655	0.085331
C103	C	0.256374	-1.293632	0.082459
C104	C	0.283439	-0.908101	0.352601
C105	C	0.223086	-0.908105	0.412964
C106	C	0.196437	-0.857865	0.404426
C107	C	0.230150	-0.807610	0.335518
C108	C	0.290506	-0.807602	0.275156
C109	C	0.256346	-1.293670	0.292232
C110	C	0.190225	-1.375724	0.355470
C111	C	0.160677	-1.366535	0.422292
C112	C	0.197260	-1.275284	0.425875
C113	C	0.263384	-1.193231	0.362639
C114	C	0.885003	-0.421978	-0.231852
C115	C	0.951143	-0.339924	-0.295090
C116	C	0.980694	-0.349113	-0.361912
C117	C	0.944107	-0.440364	-0.365496
C118	C	0.877973	-0.522417	-0.302259
C119	C	0.877885	-0.522530	0.055370
C120	C	0.944010	-0.440506	0.052485
C121	C	0.980617	-0.349238	0.012318
C122	C	0.951101	-0.339994	-0.024974
C123	C	0.884981	-0.422016	-0.022093
C124	C	0.850825	-0.908045	-0.214759
C125	C	0.911177	-0.908057	-0.275111
C126	C	0.944904	-0.857813	-0.344023
C127	C	0.918268	-0.807561	-0.352583
C128	C	0.857913	-0.807556	-0.292232
H129	H	0.049939	-0.898007	0.147350
H130	H	0.280390	-1.301174	0.112832
H131	H	0.293266	-1.118810	-0.027713
Cl132	Cl	0.120557	-0.857887	0.480319
H133	H	-0.059559	-0.898011	0.147353
Cl134	Cl	0.081872	-0.697459	-0.093426
Cl135	Cl	0.559431	-1.018149	-0.346127
H136	H	0.945738	-0.766654	-0.408699
H137	H	0.579752	-0.728897	-0.342971
H138	H	0.968176	-0.447835	-0.419910
H139	H	0.106918	-1.433190	0.050371
H140	H	0.836239	-0.766632	-0.299213
H141	H	1.034545	-0.282294	-0.413398
H142	H	0.848187	-0.596707	-0.305187
Cl143	Cl	0.180713	-0.971291	0.499582
H144	H	0.317943	-0.766687	0.219057
Cl145	Cl	0.831882	-0.637258	0.105868
Cl146	Cl	0.144232	-1.490400	0.135826
H147	H	0.173192	-1.267816	0.480291
Cl148	Cl	0.309352	-1.078531	0.367159
H149	H	0.561596	-0.986751	-0.596655
H150	H	0.469868	-0.436602	0.080585
H151	H	0.968030	-0.448052	0.082856
H152	H	1.034455	-0.282458	0.009978
H153	H	0.098199	-0.986717	0.129546
Cl154	Cl	0.195703	-1.018171	0.153798
H155	H	0.208443	-0.766706	0.328577
Cl156	Cl	0.997127	-0.225248	-0.075464
H157	H	0.860955	-0.414474	-0.052455
H158	H	0.473431	-1.015136	-0.366412
H159	H	0.173334	-1.267596	-0.022498
H160	H	0.823374	-0.948960	-0.158653
H161	H	0.280393	-1.301170	0.237828
Cl162	Cl	0.944654	-0.971228	-0.264334
H163	H	0.860947	-0.414478	-0.177449
H164	H	0.305129	-0.949013	0.359566
Cl165	Cl	0.317965	-0.697424	-0.093434
H166	H	0.160445	-1.450017	0.352539
Cl167	Cl	0.454207	-0.697394	-0.093439
Cl168	Cl	0.077546	-1.469697	0.501784
H169	H	0.980921	-0.265632	-0.292158
Cl170	Cl	-0.312856	-1.018235	0.153825
H171	H	0.091405	-0.817658	-0.086978
Cl172	Cl	0.707017	-0.238604	-0.037993
H173	H	0.579764	-0.728868	-0.233481
H174	H	-0.164632	-0.986760	0.129559
Cl175	Cl	1.020783	-0.857826	-0.419887
H176	H	0.200909	-0.817630	-0.086985
Cl177	Cl	0.559459	-1.018112	-0.209916
Cl178	Cl	0.449665	-1.053575	-0.477378
Cl179	Cl	0.559346	-1.018253	-0.718383
Cl180	Cl	-0.054361	-0.697477	-0.093422
H181	H	0.579682	-0.728990	-0.715234
H182	H	0.667933	-0.700502	-0.573214
Cl183	Cl	0.581920	-0.697491	-0.593497
H184	H	0.667941	-0.700470	-0.463730
