data_functionalizedCrystal
_audit_creation_method	'MofGen! by Chris Wilmer'
_symmetry_space_group_name_H-M	'P1'
_symmetry_Int_Tables_number	1
_symmetry_cell_setting	triclinic
loop_
_symmetry_equiv_pos_as_xyz
  x,y,z
_cell_length_a	6.817900
_cell_length_b	17.982783
_cell_length_c	10.992410
_cell_angle_alpha	94.193689
_cell_angle_beta	108.764651
_cell_angle_gamma	102.448572
loop_
_atom_site_label
_atom_site_type_symbol
_atom_site_fract_x
_atom_site_fract_y
_atom_site_fract_z
V1	V	-4.082273	-0.105412	-0.401126
O2	O	-4.073913	0.005065	-0.392942
O3	O	-4.028425	-0.209014	-0.398911
O4	O	-4.060357	-0.103790	-0.575831
O5	O	-4.041760	-0.100887	-0.214797
V6	V	-4.563175	-0.092198	-0.378776
O7	O	-4.349280	-0.134399	-0.450154
O8	O	-4.746365	-0.063211	-0.329748
O9	O	-4.393816	0.011405	-0.380991
O10	O	-4.688932	-0.202675	-0.386960
O11	O	-4.721085	-0.096723	-0.565105
O12	O	-4.361884	-0.093819	-0.204072
C13	C	-3.871244	-0.234270	-0.392719
C14	C	-3.908680	-0.318966	-0.392072
C15	C	-3.868757	-0.347876	-0.274055
C16	C	-3.903953	-0.427458	-0.273451
C17	C	-3.979058	-0.478128	-0.390866
C18	C	-4.018990	-0.449214	-0.508893
C19	C	-3.983808	-0.369633	-0.509495
C20	C	-4.160877	-0.770152	-0.506465
C21	C	-4.196051	-0.849736	-0.505853
C22	C	-4.081022	-0.827976	-0.270421
C23	C	-4.045840	-0.748396	-0.271024
C24	C	-4.085785	-0.719489	-0.389050
C25	C	-4.047625	-0.633197	-0.389703
C26	C	-4.017204	-0.564418	-0.390214
C27	C	-3.911974	-0.100046	-0.618396
C28	C	-3.975303	-0.099406	-0.761221
C29	C	-3.844195	-0.093573	-0.956315
C30	C	-3.778348	-0.094554	-0.807837
C31	C	-4.150532	-0.174527	-0.838706
C32	C	-4.215047	-0.173863	-0.987269
C33	C	-4.136937	-0.028401	-0.948501
C34	C	-4.066336	-0.028045	-0.799486
C35	C	-4.214339	0.036657	-0.387180
C36	C	-4.156142	0.121352	-0.387835
C37	C	-4.173608	-0.097566	-0.161499
C38	C	-4.089517	-0.098202	-0.018673
H39	H	-3.743490	-0.039186	-0.974869
H40	H	-3.807584	-0.306625	-0.178441
H41	H	-4.193379	-0.746625	-0.602568
H42	H	-4.080158	-0.490476	-0.604495
H43	H	-3.871446	-0.450992	-0.177350
H44	H	-3.705743	-0.145404	-0.783279
N45	N	-4.026877	-0.338448	-0.636785
H46	H	-4.079791	-0.382622	-0.711077
H47	H	-3.890406	-0.303265	-0.637793
N48	N	-3.603399	-0.023009	-0.736807
H49	H	-3.568457	0.009452	-0.801889
H50	H	-3.471328	-0.038320	-0.683639
N51	N	-4.453496	-0.182510	-1.043789
H52	H	-4.531759	-0.232834	-1.026704
H53	H	-4.497035	-0.182112	-1.140627
N54	N	-3.790989	-0.160005	-1.020206
H55	H	-3.925106	-0.193086	-1.089369
H56	H	-3.730545	-0.191980	-0.952623
H57	H	-4.048508	-0.851522	-0.174318
H58	H	-4.299008	-0.180790	-0.809934
H59	H	-4.183453	-0.226715	-1.033807
H60	H	-4.088699	-0.227509	-0.813368
N61	N	-4.023553	0.047165	-0.975083
H62	H	-3.940293	0.036914	-1.032892
H63	H	-3.922053	0.079582	-0.890228
N64	N	-3.898908	0.045571	-0.729791
H65	H	-3.764646	0.032758	-0.673658
H66	H	-3.955219	0.075743	-0.673384
H67	H	-3.984675	-0.707143	-0.175412
N68	N	-4.254829	-0.026834	-0.756327
H69	H	-4.284032	-0.072738	-0.711171
H70	H	-4.385183	-0.029112	-0.834678
N71	N	-4.372916	-0.032009	-1.002611
H72	H	-4.448808	-0.078606	-1.072234
H73	H	-4.393248	0.016222	-1.041281
H74	H	-4.257212	-0.890992	-0.601473
