data_functionalizedCrystal
_audit_creation_method	'MofGen! by Chris Wilmer'
_symmetry_space_group_name_H-M	'P1'
_symmetry_Int_Tables_number	1
_symmetry_cell_setting	triclinic
loop_
_symmetry_equiv_pos_as_xyz
  x,y,z
_cell_length_a	10.489716
_cell_length_b	19.188930
_cell_length_c	17.666332
_cell_angle_alpha	90.011603
_cell_angle_beta	90.008963
_cell_angle_gamma	83.836959
loop_
_atom_site_label
_atom_site_type_symbol
_atom_site_fract_x
_atom_site_fract_y
_atom_site_fract_z
O1	O	1.691880	0.098422	0.062952
O2	O	1.320473	0.107686	0.062956
O3	O	1.516894	0.001470	0.062939
O4	O	1.495458	0.204638	0.062969
O5	O	1.516860	0.001464	-0.062958
O6	O	1.320439	0.107680	-0.062941
O7	O	1.691845	0.098416	-0.062945
Cu8	Cu	1.506139	0.103048	-0.074438
Cu9	Cu	1.506180	0.103055	0.074449
O10	O	1.495424	0.204633	-0.062928
C11	C	1.272939	0.106987	0.000007
C12	C	1.131355	0.104905	0.000008
C13	C	1.032224	0.170040	0.000020
C14	C	0.955631	0.135618	-0.062063
C15	C	0.955672	0.135608	0.062062
C16	C	1.056626	0.070510	-0.062125
C17	C	1.056672	0.070510	0.062055
C18	C	0.980129	0.036041	-0.000042
C19	C	1.516183	-0.024549	-0.000012
C20	C	1.514099	-0.102067	-0.000018
C21	C	1.629353	-0.146225	-0.000023
C22	C	1.627395	-0.219061	-0.000011
C23	C	1.510177	-0.247738	-0.000009
C24	C	1.394908	-0.203571	-0.000000
C25	C	1.396869	-0.130735	-0.000005
N26	N	1.420566	-0.356341	-0.042853
N27	N	1.418712	-0.425531	-0.042851
C28	C	1.504262	-0.467186	0.000006
N29	N	1.591757	-0.437036	0.042851
N30	N	1.593616	-0.367839	0.042845
C31	C	1.508038	-0.326714	-0.000004
C32	C	1.617401	-0.590321	0.000016
C33	C	1.615438	-0.663159	0.000033
C34	C	1.382948	-0.647667	0.000036
C35	C	1.384914	-0.574831	0.000026
C36	C	1.502144	-0.546163	0.000013
C37	C	1.739379	0.099115	0.000005
C38	C	1.880964	0.101198	0.000009
C39	C	1.496135	0.230651	0.000024
C40	C	1.498219	0.308170	0.000036
N41	N	1.506120	0.103042	-0.179158
C42	C	1.593123	0.056033	-0.218775
C43	C	1.593131	0.056030	-0.298023
C44	C	1.506147	0.103048	-0.337650
C45	C	1.419127	0.150061	-0.298023
C46	C	1.419113	0.150058	-0.218777
N47	N	1.489566	0.164745	-0.462060
N48	N	1.489587	0.164745	-0.537340
C49	C	1.506180	0.103058	-0.576414
N50	N	1.522778	0.041368	-0.537364
N51	N	1.522764	0.041368	-0.462076
C52	C	1.506151	0.103056	-0.423579
C53	C	1.593197	0.056041	-0.701961
C54	C	1.593195	0.056037	-0.781210
C55	C	1.419198	0.150074	-0.781209
C56	C	1.419193	0.150072	-0.701961
C57	C	1.506199	0.103056	-0.662342
N58	N	1.506209	0.103054	0.179168
H59	H	1.724810	-0.122888	-0.000031
H60	H	0.911587	0.163120	0.114539
H61	H	1.712856	-0.566979	0.000008
H62	H	1.663966	0.017749	-0.186519
H63	H	1.348369	0.188354	-0.813473
H64	H	1.055627	0.226697	-0.000030
O65	O	1.284789	-0.087937	-0.000038
C66	C	1.180904	-0.128862	-0.000010
H67	H	1.213573	-0.183059	-0.023839
H68	H	1.100162	-0.102409	-0.036561
H69	H	1.144973	-0.134209	0.060391
O70	O	1.739475	-0.261866	-0.000051
C71	C	1.843363	-0.220944	-0.000042
H72	H	1.810680	-0.166757	-0.023876
H73	H	1.924075	-0.247415	-0.036599
H74	H	1.879341	-0.215569	0.060354
O75	O	0.902826	0.168480	-0.124584
C76	C	0.813216	0.224786	-0.102290
H77	H	0.778331	0.215106	-0.042483
H78	H	0.728252	0.229247	-0.142892
H79	H	0.860602	0.275533	-0.103469
O80	O	1.108838	0.037792	-0.124886
C81	C	1.056081	0.071976	-0.190147
H82	H	0.959055	0.101571	-0.175684
H83	H	1.043142	0.031508	-0.235987
H84	H	1.123385	0.110490	-0.211541
H85	H	1.299469	-0.226923	0.000003
O86	O	1.677767	0.010334	-0.336400
C87	C	1.754527	-0.031179	-0.284438
H88	H	1.755805	-0.002549	-0.227940
H89	H	1.856442	-0.041291	-0.307327
H90	H	1.713406	-0.083264	-0.276029
O91	O	0.952666	-0.031630	0.000008
C92	C	1.006368	-0.066076	0.064883
H93	H	1.089393	-0.037716	0.086315
H94	H	1.042998	-0.122476	0.049898
H95	H	0.930141	-0.065891	0.110894
H96	H	1.100797	0.043037	0.114534
H97	H	1.348301	0.188342	-0.330292
H98	H	1.709296	-0.699112	0.000033
O99	O	1.269193	-0.675629	0.000008
C100	C	1.292173	-0.749385	0.000035
H101	H	1.391795	-0.765996	-0.023804
H102	H	1.217176	-0.772130	-0.036509
H103	H	1.286129	-0.769671	0.060437
H104	H	1.291062	-0.538877	0.000026
H105	H	1.348263	0.188339	-0.186520
H106	H	1.348352	0.188354	-0.669703
H107	H	1.664039	0.017756	-0.669701
O108	O	1.677766	0.010465	-0.819781
C109	C	1.756253	0.048279	-0.865587
H110	H	1.705137	0.102642	-0.877452
H111	H	1.776603	0.019246	-0.921318
H112	H	1.850483	0.053527	-0.835034
