data_functionalizedCrystal
_audit_creation_method	'MofGen! by Chris Wilmer'
_symmetry_space_group_name_H-M	'P1'
_symmetry_Int_Tables_number	1
_symmetry_cell_setting	triclinic
loop_
_symmetry_equiv_pos_as_xyz
  x,y,z
_cell_length_a	19.805407
_cell_length_b	14.908178
_cell_length_c	19.805399
_cell_angle_alpha	93.324276
_cell_angle_beta	90.024201
_cell_angle_gamma	93.312812
loop_
_atom_site_label
_atom_site_type_symbol
_atom_site_fract_x
_atom_site_fract_y
_atom_site_fract_z
Zn1	Zn	1.019224	-0.359225	0.367247
Zn2	Zn	1.519224	0.140775	0.867247
Zn3	Zn	1.012624	-0.510101	0.247525
Zn4	Zn	1.512624	-0.010101	0.747525
Zn5	Zn	0.906038	-0.359248	0.254061
Zn6	Zn	1.406038	0.140752	0.754061
Zn7	Zn	0.899489	-0.510051	0.360664
Zn8	Zn	1.399489	-0.010051	0.860664
O9	O	0.959344	-0.434656	0.307374
O10	O	1.459344	0.065344	0.807374
O11	O	1.113065	-0.379250	0.351384
O12	O	1.613065	0.120750	0.851384
O13	O	0.998463	-0.490121	0.153674
O14	O	1.498463	0.009879	0.653674
O15	O	0.926555	-0.232991	0.274566
O16	O	1.426555	0.267009	0.774566
O17	O	1.108216	-0.490099	0.263425
O18	O	1.608216	0.009901	0.763425
O19	O	1.009712	-0.232974	0.357723
O20	O	1.509712	0.267026	0.857723
O21	O	0.920155	-0.379289	0.158476
O22	O	1.420155	0.120711	0.658476
O23	O	0.810453	-0.379241	0.268183
O24	O	1.310453	0.120759	0.768183
O25	O	0.915394	-0.490014	0.456255
O26	O	1.415394	0.009986	0.956255
O27	O	0.805642	-0.490036	0.346504
O28	O	1.305642	0.009964	0.846504
O29	O	1.003363	-0.379202	0.461091
O30	O	1.503363	0.120798	0.961091
O31	O	0.992114	-0.636349	0.257043
O32	O	1.492114	-0.136349	0.757043
O33	O	0.908994	-0.636312	0.340166
O34	O	1.408994	-0.136312	0.840166
C35	C	0.783489	-0.434636	0.307339
C36	C	1.283489	0.065364	0.807339
C37	C	0.708256	-0.434649	0.307339
C38	C	1.208256	0.065351	0.807339
C39	C	0.243973	-0.492456	0.348127
C40	C	0.743973	0.007544	0.848127
C41	C	0.314661	-0.492454	0.348112
C42	C	0.814661	0.007546	0.848112
C43	C	0.352493	-0.434678	0.307400
C44	C	0.852493	0.065322	0.807400
C45	C	0.319633	-0.376906	0.266694
C46	C	0.819633	0.123094	0.766694
C47	C	0.248945	-0.376913	0.266705
C48	C	0.748945	0.123087	0.766705
C49	C	0.604707	-0.376879	0.266647
C50	C	1.104707	0.123121	0.766647
C51	C	0.675400	-0.376875	0.266641
C52	C	1.175400	0.123125	0.766641
C53	C	0.670423	-0.492420	0.348055
C54	C	1.170423	0.007580	0.848055
C55	C	0.599736	-0.492427	0.348066
C56	C	1.099736	0.007573	0.848066
C57	C	0.566881	-0.434659	0.307357
C58	C	1.066881	0.065341	0.807357
C59	C	0.490233	-0.434662	0.307372
C60	C	0.990233	0.065338	0.807372
C61	C	0.429141	-0.434669	0.307388
C62	C	0.929141	0.065331	0.807388
C63	C	0.949146	-0.669067	0.297195
C64	C	1.449146	-0.169067	0.797195
C65	C	0.944845	-0.769349	0.292863
C66	C	1.444845	-0.269349	0.792863
C67	C	1.023289	-0.957622	0.371407
C68	C	1.523289	-0.457622	0.871407
C69	C	1.019251	-1.051845	0.367340
C70	C	1.519251	-0.551845	0.867340
C71	C	0.932726	-1.052022	0.280664
C72	C	1.432726	-0.552022	0.780664
C73	C	0.936764	-0.957798	0.284731
C74	C	1.436764	-0.457798	0.784731
C75	C	0.982048	-0.910601	0.330104
C76	C	1.482048	-0.410601	0.830104
C77	C	0.986090	-0.816376	0.334168
C78	C	1.486090	-0.316376	0.834168
C79	C	0.899562	-0.816554	0.247496
C80	C	1.399562	-0.316554	0.747496
C81	C	0.895524	-0.910778	0.243428
C82	C	1.395524	-0.410778	0.743428
C83	C	1.135886	-0.434677	0.307410
C84	C	1.635886	0.065323	0.807410
C85	C	1.211117	-0.434686	0.307425
C86	C	1.711117	0.065314	0.807425
C87	C	0.959384	-0.434600	0.483919
C88	C	1.459384	0.065400	0.983919
C89	C	0.959401	-0.434575	0.559153
C90	C	1.459401	0.065425	1.059153
C91	C	0.969600	-0.199330	0.317608
C92	C	1.469600	0.300670	0.817608
C93	C	0.973971	-0.099049	0.321968
C94	C	1.473971	0.400951	0.821968
C95	C	0.959345	-0.434648	0.131519
C96	C	1.459345	0.065352	0.631519
C97	C	0.959470	-0.434418	0.056297
C98	C	1.459470	0.065582	0.556297
C99	C	1.005208	-0.376873	0.597016
C100	C	1.505208	0.123127	1.097016
C101	C	1.005216	-0.376847	0.667706
C102	C	1.505216	0.123153	1.167706
C103	C	0.959420	-0.434528	0.700530
C104	C	1.459420	0.065472	1.200530
C105	C	0.913609	-0.492233	0.662662
C106	C	1.413609	0.007767	1.162662
C107	C	0.913598	-0.492254	0.591974
C108	C	1.413598	0.007746	1.091974
C109	C	0.913651	-0.492149	0.947739
C110	C	1.413651	0.007851	1.447739
C111	C	0.913667	-0.492126	1.018432
C112	C	1.413667	0.007874	1.518432
C113	C	1.005268	-0.376742	1.023471
C114	C	1.505268	0.123258	1.523471
C115	C	1.005258	-0.376763	0.952783
C116	C	1.505258	0.123237	1.452783
C117	C	0.959444	-0.434464	0.914920
C118	C	1.459444	0.065536	1.414920
C119	C	0.959435	-0.434490	0.838271
C120	C	1.459435	0.065510	1.338271
C121	C	0.959432	-0.434507	0.777178
C122	C	1.459432	0.065493	1.277178
H123	H	0.350441	-0.329868	0.233541
H124	H	0.850441	0.170132	0.733541
H125	H	0.577966	-0.329844	0.233497
H126	H	1.077966	0.170156	0.733497
C127	C	0.202361	-0.556007	0.392911
C128	C	0.702361	-0.056007	0.892911
H129	H	0.155556	-0.547734	0.387095
H130	H	0.655556	-0.047734	0.887095
H131	H	0.211305	-0.616608	0.380299
H132	H	0.711305	-0.116608	0.880299
H133	H	0.214544	-0.542875	0.438975
H134	H	0.714544	-0.042875	0.938975
H135	H	0.895855	-1.090466	0.243726
H136	H	1.395855	-0.590466	0.743726
H137	H	1.042502	-0.329905	0.570295
H138	H	1.542502	0.170095	1.070295
C139	C	1.055617	-0.313398	0.709355
C140	C	1.555617	0.186602	1.209355
H141	H	1.049066	-0.321644	0.756155
H142	H	1.549066	0.178356	1.256155
H143	H	1.100510	-0.326633	0.697201
H144	H	1.600510	0.173367	1.197201
H145	H	1.048365	-0.252771	0.700410
H146	H	1.548365	0.247229	1.200410
H147	H	1.052830	-1.090126	0.400976
H148	H	1.552830	-0.590126	0.900976
C149	C	0.845719	-0.962699	0.193519
C150	C	1.345719	-0.462699	0.693519
H151	H	0.849222	-1.025550	0.197008
H152	H	1.349222	-0.525550	0.697008
H153	H	0.800894	-0.947301	0.204035
H154	H	1.300894	-0.447301	0.704035
H155	H	0.856325	-0.947285	0.148717
H156	H	1.356325	-0.447285	0.648717
H157	H	1.060166	-0.919193	0.408347
H158	H	1.560166	-0.419193	0.908347
C159	C	0.350802	-0.556027	0.392861
C160	C	0.850802	-0.056027	0.892861
H161	H	0.398318	-0.547767	0.387011
H162	H	0.898318	-0.047767	0.887011
H163	H	0.339826	-0.542929	0.438932
H164	H	0.839826	-0.042929	0.938932
H165	H	0.336563	-0.616623	0.380228
H166	H	0.836563	-0.116623	0.880228
C167	C	0.212804	-0.313363	0.221936
C168	C	0.712804	0.186637	0.721936
H169	H	0.245459	-0.278946	0.197692
H170	H	0.745459	0.221054	0.697692
H171	H	0.183714	-0.347826	0.190911
H172	H	0.683714	0.152174	0.690911
H173	H	0.186952	-0.274097	0.249590
H174	H	0.686952	0.225903	0.749590
C175	C	0.706561	-0.555973	0.392830
C176	C	1.206561	-0.055973	0.892830
H177	H	0.673905	-0.590374	0.417084
H178	H	1.173905	-0.090374	0.917084
H179	H	0.732414	-0.595240	0.365184
H180	H	1.232414	-0.095240	0.865184
H181	H	0.735651	-0.521502	0.423858
H182	H	1.235651	-0.021502	0.923858
C183	C	0.854196	-0.764834	0.202057
C184	C	1.354196	-0.264834	0.702057
H185	H	0.826654	-0.806441	0.174450
H186	H	1.326654	-0.306441	0.674450
H187	H	0.826263	-0.728083	0.229498
H188	H	1.326263	-0.228083	0.729498
H189	H	0.881691	-0.728080	0.174178
H190	H	1.381691	-0.228080	0.674178
C191	C	0.558124	-0.555980	0.392849
C192	C	1.058124	-0.055980	0.892849
H193	H	0.587816	-0.590392	0.417084
H194	H	1.087816	-0.090392	0.917084
H195	H	0.532063	-0.521523	0.423883
H196	H	1.032063	-0.021523	0.923883
H197	H	0.528829	-0.595251	0.365203
H198	H	1.028829	-0.095251	0.865203
C199	C	0.717014	-0.313323	0.221851
C200	C	1.217014	0.186677	0.721851
H201	H	0.687323	-0.278924	0.197603
H202	H	1.187323	0.221076	0.697603
H203	H	0.746310	-0.274053	0.249491
H204	H	1.246310	0.225947	0.749491
H205	H	0.743074	-0.347792	0.190819
H206	H	1.243074	0.152208	0.690819
H207	H	1.042551	-0.329795	0.926061
H208	H	1.542551	0.170205	1.426061
H209	H	1.022964	-0.777949	0.371111
H210	H	1.522964	-0.277949	0.871111
H211	H	1.042570	-0.329755	1.054307
H212	H	1.542570	0.170245	1.554307
C213	C	0.863285	-0.555572	1.054538
C214	C	1.363285	-0.055572	1.554538
H215	H	0.835993	-0.589933	1.021866
H216	H	1.335993	-0.089933	1.521866
H217	H	0.887464	-0.594880	1.080411
H218	H	1.387464	-0.094880	1.580411
H219	H	0.835305	-0.521034	1.083607
H220	H	1.335305	-0.021034	1.583607
H221	H	0.876356	-0.539146	0.916919
H222	H	1.376356	-0.039146	1.416919
C223	C	0.863236	-0.555683	0.698767
C224	C	1.363236	-0.055683	1.198767
H225	H	0.869807	-0.547414	0.746289
H226	H	1.369807	-0.047414	1.246289
H227	H	0.818332	-0.542479	0.687745
H228	H	1.318332	-0.042479	1.187745
H229	H	0.870503	-0.616309	0.684546
H230	H	1.370503	-0.116309	1.184546
H231	H	0.876292	-0.539232	0.561146
H232	H	1.376292	-0.039232	1.061146
