data_functionalizedCrystal
_audit_creation_method	'MofGen! by Chris Wilmer'
_symmetry_space_group_name_H-M	'P1'
_symmetry_Int_Tables_number	1
_symmetry_cell_setting	triclinic
loop_
_symmetry_equiv_pos_as_xyz
  x,y,z
_cell_length_a	18.050589
_cell_length_b	18.050591
_cell_length_c	12.645323
_cell_angle_alpha	90.031569
_cell_angle_beta	89.969044
_cell_angle_gamma	89.986383
loop_
_atom_site_label
_atom_site_type_symbol
_atom_site_fract_x
_atom_site_fract_y
_atom_site_fract_z
Zn1	Zn	-0.295791	-1.135388	-0.599653
Zn2	Zn	-0.419990	-1.135299	-0.422374
Zn3	Zn	-0.295803	-1.011191	-0.422370
Zn4	Zn	-0.419928	-1.011172	-0.599562
O5	O	-0.357878	-1.073262	-0.510990
O6	O	-0.312286	-1.239301	-0.576176
O7	O	-0.403547	-1.118806	-0.274026
O8	O	-0.191877	-1.027711	-0.445923
O9	O	-0.403535	-1.239235	-0.445930
O10	O	-0.191868	-1.118958	-0.576172
O11	O	-0.312307	-1.027624	-0.274023
O12	O	-0.312248	-0.907263	-0.445835
O13	O	-0.403430	-1.027678	-0.747921
O14	O	-0.403442	-0.907250	-0.576017
O15	O	-0.312227	-1.118940	-0.747988
O16	O	-0.523906	-1.118788	-0.445842
O17	O	-0.523861	-1.027592	-0.576021
C18	C	-0.357840	-0.880310	-0.510916
C19	C	-0.357842	-0.797764	-0.510910
C20	C	-0.550830	-1.073198	-0.510946
C21	C	-0.633376	-1.073239	-0.510962
C22	C	-0.882199	-1.122960	-0.440288
C23	C	-0.832860	-1.055201	-0.414235
C24	C	-0.930496	-1.073332	-0.511044
C25	C	-0.832753	-1.141042	-0.537006
C26	C	-0.784511	-1.073290	-0.511001
C27	C	-0.882245	-1.005537	-0.484941
C28	C	-0.882142	-1.091424	-0.607757
C29	C	-0.832826	-1.023618	-0.581741
C30	C	-1.014594	-1.073358	-0.511066
C31	C	-0.700414	-1.073257	-0.510979
C32	C	-0.308183	-0.598300	-0.440265
C33	C	-0.375919	-0.548887	-0.414171
C34	C	-0.357857	-0.646634	-0.510946
C35	C	-0.290137	-0.548965	-0.537026
C36	C	-0.357865	-0.500649	-0.510980
C37	C	-0.425628	-0.598308	-0.484802
C38	C	-0.339801	-0.598391	-0.607703
C39	C	-0.407584	-0.549000	-0.581645
C40	C	-0.357851	-0.730732	-0.510925
C41	C	-0.357879	-0.416552	-0.511001
C42	C	-0.164172	-1.073346	-0.511057
C43	C	-0.081626	-1.073382	-0.511086
C44	C	-0.357820	-1.073317	-0.787495
C45	C	-0.357796	-1.073340	-0.905325
C46	C	-0.357903	-0.266968	-0.511045
C47	C	-0.357881	-0.349513	-0.511019
C48	C	-0.414902	-1.015751	-1.072847
C49	C	-0.415184	-1.015901	-0.950287
C50	C	-0.379045	-1.151590	-0.949859
C51	C	-0.379403	-1.151274	-1.072457
C52	C	-0.279122	-1.053420	-1.072531
C53	C	-0.279593	-1.051674	-0.949924
C54	C	-0.357881	-1.073250	-0.235560
C55	C	-0.357697	-1.073371	-0.117731
H56	H	-0.903877	-1.164895	-0.380425
H57	H	-0.232872	-0.527252	-0.559034
C58	C	-0.455833	-1.174828	-0.908402
N59	N	-0.513673	-1.192327	-0.877179
H60	H	-0.903892	-0.948241	-0.462872
C61	C	-0.324542	-1.211147	-0.910515
N62	N	-0.283491	-1.256004	-0.880878
C63	C	-0.464404	-0.519932	-0.662410
N64	N	-0.507203	-0.498035	-0.723236
H65	H	-0.266224	-0.619946	-0.380431
H66	H	-0.259755	-0.997353	-1.103425
H67	H	-0.324500	-0.620152	-0.689489
H68	H	-0.482918	-0.619892	-0.462667
H69	H	-0.401886	-0.957876	-0.920175
C70	C	-0.257926	-0.973894	-0.910555
N71	N	-0.241602	-0.915315	-0.880880
H72	H	-0.391199	-0.527143	-0.332360
C73	C	-0.218964	-1.104218	-0.908558
N74	N	-0.173299	-1.143797	-0.877394
H75	H	-0.401731	-0.957553	-1.102310
H76	H	-0.236502	-1.095387	-1.101560
H77	H	-0.472788	-1.028793	-1.103660
H78	H	-0.811211	-1.039875	-0.332428
C79	C	-0.493882	-1.033681	-0.910673
N80	N	-0.553164	-1.047059	-0.880836
H81	H	-0.811014	-1.198321	-0.558983
C82	C	-0.325573	-1.211250	-1.112576
N83	N	-0.285034	-1.256427	-1.142789
C84	C	-0.803714	-0.966830	-0.662546
N85	N	-0.781784	-0.924056	-0.723401
H86	H	-0.436843	-1.168186	-1.101063
H87	H	-0.903807	-1.106769	-0.689541
