data_functionalizedCrystal
_audit_creation_method	'MofGen! by Chris Wilmer'
_symmetry_space_group_name_H-M	'P1'
_symmetry_Int_Tables_number	1
_symmetry_cell_setting	triclinic
loop_
_symmetry_equiv_pos_as_xyz
  x,y,z
_cell_length_a	14.519709
_cell_length_b	14.853567
_cell_length_c	13.330367
_cell_angle_alpha	89.999156
_cell_angle_beta	89.998062
_cell_angle_gamma	83.657537
loop_
_atom_site_label
_atom_site_type_symbol
_atom_site_fract_x
_atom_site_fract_y
_atom_site_fract_z
O1	O	1.223824	0.118179	-0.083284
O2	O	0.955341	0.132096	-0.083314
O3	O	1.096754	-0.006090	-0.083301
O4	O	1.082411	0.256364	-0.083297
O5	O	1.096733	-0.006093	0.083546
O6	O	0.955321	0.132093	0.083533
O7	O	1.223803	0.118175	0.083563
Cu8	Cu	1.089560	0.125134	0.098783
Cu9	Cu	1.089584	0.125137	-0.098533
O10	O	1.082390	0.256361	0.083550
C11	C	1.096094	-0.039680	0.000119
C12	C	1.094146	-0.139765	0.000110
C13	C	0.920971	0.131446	0.000106
C14	C	0.818591	0.129502	0.000094
C15	C	1.001911	-0.552334	0.000119
C16	C	1.169913	-0.573550	0.000138
C17	C	1.171744	-0.479516	0.000132
C18	C	1.088658	-0.421886	0.000122
C19	C	1.003740	-0.458291	0.000117
C20	C	1.256661	-0.443104	0.000147
C21	C	1.258495	-0.349064	0.000143
C22	C	1.175408	-0.291433	0.000125
C23	C	1.090486	-0.327843	0.000119
C24	C	1.007400	-0.270213	0.000108
C25	C	0.922478	-0.306621	0.000095
C26	C	0.920653	-0.400660	0.000099
C27	C	1.177233	-0.197394	0.000121
C28	C	1.009229	-0.176170	0.000106
C29	C	0.443698	0.122347	0.000140
C30	C	0.548005	0.124334	0.000127
C31	C	0.631141	0.125924	0.000116
C32	C	0.735455	0.127912	0.000105
C33	C	1.258173	0.118826	0.000141
C34	C	1.360553	0.120769	0.000146
C35	C	1.083050	0.289952	0.000128
C36	C	1.084998	0.390036	0.000130
N37	N	1.089550	0.125131	0.237564
N38	N	1.089602	0.125133	-0.237315
C39	C	1.026964	0.186302	0.710181
C40	C	1.152229	0.063966	0.710161
C41	C	1.152219	0.063963	0.605142
C42	C	1.089581	0.125132	0.552639
C43	C	1.026953	0.186303	0.605153
C44	C	1.214852	0.002799	0.552620
C45	C	1.214844	0.002795	0.447595
C46	C	1.152201	0.063959	0.395089
C47	C	1.089571	0.125132	0.447611
C48	C	1.026933	0.186301	0.395107
C49	C	0.964297	0.247470	0.447626
C50	C	0.964310	0.247468	0.552648
C51	C	1.152188	0.063962	0.290068
C52	C	1.026922	0.186302	0.290079
H53	H	0.941568	-0.129253	0.000093
F54	F	1.281503	-0.062307	0.391707
H55	H	0.854829	-0.259687	0.000093
F56	F	0.830281	-0.439415	0.000082
H57	H	1.203189	0.014163	0.247311
H58	H	0.932770	-0.581982	0.000105
H59	H	1.237558	-0.620477	0.000154
H60	H	1.324305	-0.490032	0.000165
F61	F	1.348875	-0.310324	0.000144
F62	F	0.960302	0.251397	0.766074
F63	F	0.897655	0.312565	0.608546
H64	H	1.246375	-0.167755	0.000138
F65	F	0.960248	0.251403	0.234209
F66	F	1.218896	-0.001126	0.766038
H67	H	1.265854	-0.046998	0.595371
F68	F	0.897640	0.312574	0.391737
