data_functionalizedCrystal
_audit_creation_method	'MofGen! by Chris Wilmer'
_symmetry_space_group_name_H-M	'P1'
_symmetry_Int_Tables_number	1
_symmetry_cell_setting	triclinic
loop_
_symmetry_equiv_pos_as_xyz
  x,y,z
_cell_length_a	15.995292
_cell_length_b	14.044220
_cell_length_c	13.101039
_cell_angle_alpha	86.332523
_cell_angle_beta	86.641931
_cell_angle_gamma	91.671253
loop_
_atom_site_label
_atom_site_type_symbol
_atom_site_fract_x
_atom_site_fract_y
_atom_site_fract_z
O1	O	1.124339	-0.116681	-0.085245
O2	O	1.624339	0.383319	0.414755
O3	O	0.881688	-0.131826	-0.085242
O4	O	1.381688	0.368174	0.414758
O5	O	0.999371	0.013730	-0.085233
O6	O	1.499371	0.513730	0.414767
O7	O	1.006656	-0.262236	-0.085254
O8	O	1.506656	0.237764	0.414746
O9	O	0.990928	0.003269	0.085196
O10	O	1.490928	0.503269	0.585196
O11	O	0.873246	-0.142287	0.085187
O12	O	1.373246	0.357713	0.585187
O13	O	1.115896	-0.127141	0.085184
O14	O	1.615896	0.372859	0.585184
Zn15	Zn	0.993231	-0.136375	0.112245
Zn16	Zn	1.493231	0.363625	0.612245
Zn17	Zn	1.004354	-0.122592	-0.112303
Zn18	Zn	1.504354	0.377408	0.387697
O19	O	0.998214	-0.272697	0.085175
O20	O	1.498214	0.227303	0.585175
C21	C	0.846225	-0.136440	-0.000027
C22	C	1.346225	0.363560	0.499973
C23	C	0.753134	-0.134592	-0.000025
C24	C	1.253134	0.365408	0.499975
C25	C	0.414889	-0.127798	-0.000036
C26	C	0.914889	0.372202	0.499964
C27	C	0.446067	-0.232832	-0.000424
C28	C	0.946067	0.267168	0.499576
C29	C	0.542873	-0.234853	-0.000036
C30	C	1.042873	0.265147	0.499964
C31	C	0.582696	-0.131169	-0.000031
C32	C	1.082696	0.368831	0.499969
C33	C	0.544850	-0.084618	0.097293
C34	C	1.044850	0.415382	0.597293
C35	C	0.447961	-0.083358	0.097370
C36	C	0.947961	0.416642	0.597370
C37	C	0.457546	-0.069317	-0.096440
C38	C	0.957546	0.430683	0.403560
C39	C	0.554393	-0.073132	-0.097722
C40	C	1.054393	0.426868	0.402278
C41	C	0.677534	-0.133069	-0.000025
C42	C	1.177534	0.366931	0.499975
C43	C	0.320051	-0.125895	-0.000035
C44	C	0.820051	0.374105	0.499965
C45	C	0.991961	0.043813	-0.000018
C46	C	1.491961	0.543813	0.499982
C47	C	0.982450	0.149037	-0.000017
C48	C	1.482450	0.649037	0.499983
C49	C	1.151359	-0.122527	-0.000034
C50	C	1.651359	0.377473	0.499966
C51	C	1.244451	-0.124375	-0.000042
C52	C	1.744451	0.375625	0.499958
C53	C	1.005624	-0.302780	-0.000042
C54	C	1.505624	0.197220	0.499958
C55	C	1.015135	-0.408003	-0.000050
C56	C	1.515135	0.091997	0.499950
N57	N	0.985645	-0.145780	0.265493
N58	N	1.485645	0.354220	0.765493
C59	C	0.965062	0.341695	-0.000031
C60	C	1.465062	0.841695	0.499969
C61	C	1.032519	0.399344	-0.000036
C62	C	1.532519	0.899344	0.499964
C63	C	1.022844	0.506546	-0.000044
C64	C	1.522844	1.006546	0.499956
C65	C	0.974736	0.234483	-0.000023
C66	C	1.474736	0.734483	0.499977
N67	N	1.011945	-0.113179	-0.265551
N68	N	1.511945	0.386821	0.234449
C69	C	0.975326	-0.158586	0.474535
C70	C	1.475326	0.341414	0.974535
C71	C	1.022262	-0.100377	0.525414
C72	C	1.522262	0.399623	1.025414
C73	C	1.016520	-0.107502	0.641732
C74	C	1.516520	0.392498	1.141732
C75	C	0.981067	-0.151462	0.358206
C76	C	1.481067	0.348538	0.858206
H77	H	0.437810	0.008053	-0.097094
H78	H	0.937810	0.508053	0.402906
H79	H	0.579386	-0.106956	-0.169721
H80	H	1.079386	0.393044	0.330279
H81	H	1.066757	-0.045193	0.481615
H82	H	1.566757	0.454807	0.981615
H83	H	1.097540	0.368193	-0.000105
H84	H	1.597540	0.868193	0.499895
H85	H	0.900050	0.372849	-0.000033
H86	H	1.400050	0.872849	0.499967
H87	H	0.427438	-0.006601	0.101795
H88	H	0.927438	0.493399	0.601795
H89	H	0.416619	-0.277362	0.068973
H90	H	0.916619	0.222638	0.568973
H91	H	0.564046	-0.125539	0.169717
H92	H	1.064046	0.374461	0.669717
H93	H	0.568427	-0.271700	-0.069804
H94	H	1.068427	0.228300	0.430196
H95	H	0.424553	-0.269043	-0.070220
H96	H	0.924553	0.230957	0.429780
H97	H	0.930835	-0.213768	0.518329
H98	H	1.430835	0.286232	1.018329
H99	H	0.560905	-0.280525	0.069843
H100	H	1.060905	0.219475	0.569843
H101	H	0.420258	-0.124200	0.170118
H102	H	0.920258	0.375800	0.670118
H103	H	0.435326	-0.097627	-0.170205
H104	H	0.935326	0.402373	0.329795
H105	H	0.570840	-0.008543	0.100915
H106	H	1.070840	0.491457	0.600915
H107	H	0.582002	0.002908	-0.103596
H108	H	1.082002	0.502908	0.396404
