data_functionalizedCrystal
_audit_creation_method	'MofGen! by Chris Wilmer'
_symmetry_space_group_name_H-M	'P1'
_symmetry_Int_Tables_number	1
_symmetry_cell_setting	triclinic
loop_
_symmetry_equiv_pos_as_xyz
  x,y,z
_cell_length_a	14.908782
_cell_length_b	14.908178
_cell_length_c	14.908308
_cell_angle_alpha	90.221621
_cell_angle_beta	83.240320
_cell_angle_gamma	90.210875
loop_
_atom_site_label
_atom_site_type_symbol
_atom_site_fract_x
_atom_site_fract_y
_atom_site_fract_z
Zn1	Zn	1.329186	-0.459296	0.406715
Zn2	Zn	1.330096	-0.601055	0.247621
Zn3	Zn	1.187450	-0.442980	0.265011
Zn4	Zn	1.170072	-0.601006	0.407684
O5	O	1.254201	-0.526084	0.331758
O6	O	1.455594	-0.484950	0.377928
O7	O	1.318828	-0.573279	0.123637
O8	O	1.213143	-0.319684	0.290681
O9	O	1.456263	-0.589100	0.261042
O10	O	1.317276	-0.331671	0.394791
O11	O	1.214027	-0.457142	0.136414
O12	O	1.058858	-0.457094	0.291620
O13	O	1.183525	-0.589015	0.533846
O14	O	1.046090	-0.573194	0.396442
O15	O	1.300425	-0.484902	0.533135
O16	O	1.301977	-0.726509	0.261981
O17	O	1.184408	-0.726473	0.379579
C18	C	1.019729	-0.513369	0.346024
C19	C	0.919418	-0.507952	0.352147
C20	C	0.731638	-0.606057	0.241772
C21	C	0.637388	-0.600970	0.247522
C22	C	0.636664	-0.492696	0.369402
C23	C	0.730914	-0.497783	0.363651
C24	C	0.778399	-0.554464	0.299833
C25	C	0.872652	-0.559546	0.294079
C26	C	0.871926	-0.451278	0.415962
C27	C	0.777675	-0.446191	0.421713
C28	C	1.241429	-0.759024	0.319016
C29	C	1.236046	-0.858683	0.313590
C30	C	1.334268	-1.058287	0.411932
C31	C	1.329213	-1.151925	0.406837
C32	C	1.220877	-1.139601	0.298310
C33	C	1.225932	-1.045962	0.303405
C34	C	1.282630	-1.005308	0.360217
C35	C	1.287690	-0.911668	0.365307
C36	C	1.179349	-0.899345	0.256785
C37	C	1.174294	-0.992984	0.251690
C38	C	1.489589	-0.538850	0.317437
C39	C	1.589897	-0.544290	0.311334
C40	C	1.239935	-0.538773	0.567152
C41	C	1.233856	-0.544180	0.667463
C42	C	1.267046	-0.292237	0.344568
C43	C	1.272520	-0.192586	0.350027
C44	C	1.268467	-0.513383	0.097280
C45	C	1.274735	-0.507733	-0.003027
C46	C	1.344158	-0.445906	0.855219
C47	C	1.338449	-0.450984	0.949470
C48	C	1.216725	-0.559407	0.950218
C49	C	1.222434	-0.554330	0.855967
C50	C	1.286154	-0.497578	0.808471
C51	C	1.291866	-0.492506	0.714218
C52	C	1.170138	-0.600924	0.714967
C53	C	1.164429	-0.606002	0.809218
H54	H	0.739000	-0.400045	0.473674
H55	H	0.770301	-0.652203	0.189804
H56	H	0.910008	-0.409263	0.463237
H57	H	0.911312	-0.605697	0.242114
H58	H	1.343751	-0.446298	0.675548
H59	H	1.137304	-0.856199	0.214672
H60	H	1.396046	-0.399702	0.816547
H61	H	1.333859	-0.878569	0.411564
H62	H	1.385680	-0.408904	0.987530
C63	C	1.440845	-1.079870	0.518698
C64	C	1.396586	-1.013594	0.474381
H65	H	1.479311	-1.052278	0.557257
H66	H	1.475811	-1.116127	0.475320
H67	H	1.397424	-1.116146	0.553587
H68	H	1.440007	-0.977323	0.439487
H69	H	1.361617	-0.977322	0.517766
H70	H	1.164847	-0.605611	0.988906
H71	H	1.122909	-0.643002	0.676894
C72	C	1.101629	-0.661929	0.954031
C73	C	1.094393	-0.668382	0.861431
H74	H	1.058395	-0.700447	0.986261
H75	H	1.090786	-0.601814	0.973573
H76	H	1.160613	-0.679165	0.965060
H77	H	1.035411	-0.651140	0.850401
H78	H	1.105230	-0.728511	0.841883
C79	C	1.067715	-0.971395	0.144928
C80	C	1.111972	-1.037674	0.189244
H81	H	1.029237	-0.998986	0.106379
H82	H	1.111130	-0.935130	0.110037
H83	H	1.032752	-0.935130	0.188315
H84	H	1.146941	-1.073936	0.145857
H85	H	1.068551	-1.073955	0.224137
H86	H	0.599319	-0.642983	0.200244
H87	H	0.597985	-0.446557	0.421366
C88	C	1.369566	-1.300937	0.447218
C89	C	1.385975	-1.210161	0.463683
H90	H	1.404606	-1.336888	0.482319
H91	H	1.385675	-1.313742	0.384957
H92	H	1.307288	-1.313746	0.463226
H93	H	1.448253	-1.197350	0.447668
H94	H	1.369872	-1.197351	0.525957
H95	H	1.174711	-1.172717	0.252060
