data_functionalizedCrystal
_audit_creation_method	'MofGen! by Chris Wilmer'
_symmetry_space_group_name_H-M	'P1'
_symmetry_Int_Tables_number	1
_symmetry_cell_setting	triclinic
loop_
_symmetry_equiv_pos_as_xyz
  x,y,z
_cell_length_a	13.897449
_cell_length_b	12.759400
_cell_length_c	12.759393
_cell_angle_alpha	89.968436
_cell_angle_beta	90.020530
_cell_angle_gamma	89.984036
loop_
_atom_site_label
_atom_site_type_symbol
_atom_site_fract_x
_atom_site_fract_y
_atom_site_fract_z
Zn1	Zn	1.474721	0.418168	0.594038
Zn2	Zn	1.474624	0.593887	0.418359
Zn3	Zn	1.313411	0.418227	0.418372
Zn4	Zn	1.313400	0.593810	0.593994
O5	O	1.394039	0.506023	0.506191
O6	O	1.609690	0.441486	0.570747
O7	O	1.453202	0.570642	0.271339
O8	O	1.334854	0.271198	0.441698
O9	O	1.609618	0.570586	0.441676
O10	O	1.453368	0.271155	0.570760
O11	O	1.334760	0.441585	0.271349
O12	O	1.178428	0.441510	0.441655
O13	O	1.334836	0.570454	0.741021
O14	O	1.178420	0.570510	0.570684
O15	O	1.453358	0.441411	0.741054
O16	O	1.453192	0.740898	0.441633
O17	O	1.334742	0.740841	0.570671
C18	C	1.393982	0.778991	0.506169
C19	C	1.394045	0.895767	0.506194
C20	C	1.143425	0.506009	0.506167
C21	C	1.036211	0.506028	0.506181
C22	C	1.394106	0.505917	0.780224
C23	C	1.394135	0.505872	0.897001
C24	C	0.839915	0.506032	0.506209
C25	C	0.949148	0.506027	0.506191
C26	C	1.645632	0.506038	0.506215
C27	C	1.752846	0.506044	0.506226
C28	C	1.394123	0.231990	0.506236
C29	C	1.394158	0.115213	0.506255
C30	C	1.455791	0.950624	0.439078
C31	C	1.455850	1.060348	0.439111
C32	C	1.332410	1.060349	0.573378
C33	C	1.332356	0.950627	0.573350
C34	C	1.517480	0.895764	0.371922
C35	C	1.579230	0.950621	0.304800
C36	C	1.579289	1.060345	0.304833
C37	C	1.517598	1.115212	0.371987
C38	C	1.394027	0.506053	0.233223
C39	C	1.394185	0.505802	0.116447
C40	C	1.455858	0.438673	0.951882
C41	C	1.455881	0.438635	1.061606
C42	C	1.332456	0.573004	1.061559
C43	C	1.332429	0.573036	0.951836
C44	C	1.517564	0.371509	0.897046
C45	C	1.579293	0.304305	0.951927
C46	C	1.579316	0.304267	1.061651
C47	C	1.517610	0.371433	1.116494
H48	H	1.517436	0.806422	0.371886
H49	H	1.517659	1.204557	0.372017
C50	C	1.646241	0.231493	0.892199
C51	C	1.633029	0.245924	0.784362
C52	C	1.694693	0.178874	0.729311
H53	H	1.632209	0.160853	0.910069
H54	H	1.711072	0.246876	0.910125
H55	H	1.568213	0.230534	0.766443
H56	H	1.647068	0.316550	0.766460
H57	H	1.759524	0.194256	0.747236
H58	H	1.680656	0.108239	0.747189
H59	H	1.685744	0.188663	0.656138
C60	C	1.265312	0.645801	1.121045
C61	C	1.169872	0.622911	1.094379
C62	C	1.107995	0.689944	1.149166
H63	H	1.279276	0.716435	1.103091
H64	H	1.274106	0.636150	1.194262
H65	H	1.161083	0.632571	1.021178
H66	H	1.155879	0.552289	1.112336
H67	H	1.116789	0.680293	1.222382
H68	H	1.121967	0.760575	1.131207
H69	H	1.043232	0.674417	1.131088
H70	H	1.282184	1.105030	0.628051
H71	H	1.629462	0.905943	0.250131
C72	C	1.265261	0.890931	0.646050
C73	C	1.203448	0.828019	0.586494
C74	C	1.141638	0.773004	0.653436
H75	H	1.228435	0.939200	0.686067
H76	H	1.302093	0.848001	0.691834
H77	H	1.166619	0.870945	0.540728
H78	H	1.240247	0.779730	0.546480
H79	H	1.178470	0.730074	0.699221
H80	H	1.104819	0.821280	0.693449
H81	H	1.099697	0.730304	0.613038
H82	H	1.517555	0.371534	0.807703
C83	C	1.646368	1.119717	0.231849
C84	C	1.700360	1.048184	0.173018
C85	C	1.762152	1.102835	0.105759
H86	H	1.688487	1.162451	0.271971
H87	H	1.609532	1.162568	0.185994
H88	H	1.737192	1.005350	0.218867
H89	H	1.658266	1.005447	0.132875
H90	H	1.725317	1.145687	0.059903
H91	H	1.804265	1.145568	0.145889
H92	H	1.798787	1.054309	0.065827
C93	C	1.517813	0.371278	1.235625
C94	C	1.585090	0.298067	1.271953
C95	C	1.585317	0.297911	1.381687
H96	H	1.455636	0.353061	1.260579
H97	H	1.534527	0.439053	1.260466
H98	H	1.568370	0.230307	1.247123
H99	H	1.647276	0.316267	1.247028
H100	H	1.602031	0.365686	1.406528
H101	H	1.523138	0.279697	1.406631
H102	H	1.630970	0.248246	1.406350
H103	H	1.629571	0.249539	1.106332
C104	C	1.265559	0.646185	0.892286
C105	C	1.286569	0.750126	0.918928
C106	C	1.225002	0.817543	0.864075
H107	H	1.200715	0.630957	0.910202
H108	H	1.274401	0.636648	0.819079
H109	H	1.277718	0.759659	0.992119
H110	H	1.351401	0.765387	0.901010
H111	H	1.233845	0.808006	0.790868
H112	H	1.160162	0.802306	0.881995
H113	H	1.239255	0.888075	0.882137
