data_functionalizedCrystal
_audit_creation_method	'MofGen! by Chris Wilmer'
_symmetry_space_group_name_H-M	'P1'
_symmetry_Int_Tables_number	1
_symmetry_cell_setting	triclinic
loop_
_symmetry_equiv_pos_as_xyz
  x,y,z
_cell_length_a	15.944499
_cell_length_b	15.944551
_cell_length_c	14.750522
_cell_angle_alpha	104.194790
_cell_angle_beta	104.197809
_cell_angle_gamma	83.488174
loop_
_atom_site_label
_atom_site_type_symbol
_atom_site_fract_x
_atom_site_fract_y
_atom_site_fract_z
O1	O	0.124580	1.130747	0.079720
O2	O	0.624580	1.630747	0.579720
O3	O	0.137941	0.886199	0.079743
O4	O	0.637941	1.386199	0.579743
O5	O	0.008983	1.015174	0.079732
O6	O	0.508983	1.515174	0.579732
O7	O	0.253538	1.001772	0.079730
O8	O	0.753538	1.501772	0.579730
O9	O	-0.023555	0.982634	-0.079922
O10	O	0.476445	1.482634	0.420078
O11	O	0.105403	0.853659	-0.079911
O12	O	0.605403	1.353659	0.420089
O13	O	0.092042	1.098207	-0.079934
O14	O	0.592042	1.598207	0.420066
Zn15	Zn	0.093557	0.970766	-0.105271
Zn16	Zn	0.593557	1.470766	0.394729
Zn17	Zn	0.136426	1.013639	0.105080
Zn18	Zn	0.636426	1.513639	0.605080
O19	O	0.221000	0.969232	-0.079924
O20	O	0.721000	1.469232	0.420076
C21	C	-0.038580	0.998356	-0.000092
C22	C	0.461420	1.498356	0.499908
C23	C	-0.131827	0.996712	-0.000085
C24	C	0.368173	1.496712	0.499915
C25	C	0.121118	0.838636	-0.000081
C26	C	0.621118	1.338636	0.499919
C27	C	0.119458	0.745392	-0.000072
C28	C	0.619458	1.245392	0.499928
C29	C	-0.423366	1.071642	-0.000097
C30	C	0.076634	1.571642	0.499903
C31	C	-0.378383	1.016646	-0.078815
C32	C	0.121617	1.516646	0.421185
C33	C	-0.467466	0.990734	-0.000095
C34	C	0.032534	1.490734	0.499905
C35	C	-0.346310	1.048707	0.078592
C36	C	0.153690	1.548707	0.578592
C37	C	-0.302556	0.993676	-0.000089
C38	C	0.197444	1.493676	0.499911
C39	C	-0.423725	0.935703	-0.078878
C40	C	0.076275	1.435703	0.421122
C41	C	-0.391643	0.967789	0.078599
C42	C	0.108357	1.467789	0.578599
C43	C	-0.346682	0.912730	-0.000138
C44	C	0.153318	1.412730	0.499862
C45	C	-0.562467	0.989041	-0.000100
C46	C	-0.062467	1.489041	0.499900
C47	C	-0.207557	0.995361	-0.000091
C48	C	0.292443	1.495361	0.499909
C49	C	0.035548	0.530547	-0.000090
C50	C	0.535548	1.030547	0.499910
C51	C	0.090554	0.485564	0.078628
C52	C	0.590554	0.985564	0.578628
C53	C	0.116448	0.574664	-0.000083
C54	C	0.616448	1.074664	0.499917
C55	C	0.058493	0.453504	-0.078779
C56	C	0.558493	0.953504	0.421221
C57	C	0.113534	0.409749	-0.000098
C58	C	0.613534	0.909749	0.499902
C59	C	0.171489	0.530922	0.078699
C60	C	0.671489	1.030922	0.578699
C61	C	0.139404	0.498855	-0.078778
C62	C	0.639404	0.998855	0.421222
C63	C	0.194472	0.453893	-0.000041
C64	C	0.694472	0.953893	0.499959
C65	C	0.118125	0.669668	-0.000074
C66	C	0.618125	1.169668	0.499926
C67	C	0.111865	0.314748	-0.000101
C68	C	0.611865	0.814748	0.499899
C69	C	0.268564	0.986051	-0.000097
C70	C	0.768564	1.486051	0.499903
C71	C	0.361812	0.987695	-0.000098
C72	C	0.861812	1.487695	0.499902
C73	C	0.108865	1.145770	-0.000108
C74	C	0.608865	1.645770	0.499892
C75	C	0.110527	1.239015	-0.000111
C76	C	0.610527	1.739015	0.499889
N77	N	0.064299	0.941513	-0.248830
N78	N	0.564299	1.441513	0.251170
C79	C	0.247413	1.124531	-0.600627
C80	C	0.747413	1.624531	-0.100627
C81	C	0.226898	1.104052	-0.701129
C82	C	0.726898	1.604052	-0.201129
C83	C	0.124950	1.002199	-0.701103
C84	C	0.624950	1.502199	-0.201103
C85	C	0.145460	1.022666	-0.600600
C86	C	0.645460	1.522666	-0.100600
C87	C	0.206691	1.083834	-0.550369
C88	C	0.706691	1.583834	-0.050369
C89	C	0.104738	0.981969	-0.550342
C90	C	0.604738	1.481969	-0.050342
C91	C	0.125243	1.002439	-0.449847
C92	C	0.625243	1.502439	0.050153
C93	C	0.186469	1.063605	-0.399610
C94	C	0.686469	1.563605	0.100390
C95	C	0.227196	1.104303	-0.449875
C96	C	0.727196	1.604303	0.050125
C97	C	0.043503	0.920807	-0.600574
C98	C	0.543503	1.420807	-0.100574
C99	C	0.002781	0.880110	-0.550317
C100	C	0.502781	1.380110	-0.050317
C101	C	0.023290	0.900574	-0.449820
C102	C	0.523290	1.400574	0.050180
C103	C	0.084516	0.961741	-0.399583
C104	C	0.584516	1.461741	0.100417
C105	C	-0.017437	0.859876	-0.399555
C106	C	0.482563	1.359876	0.100445
C107	C	0.003068	0.880346	-0.299061
C108	C	0.503068	1.380346	0.200939
C109	C	0.105021	0.982210	-0.299088
C110	C	0.605021	1.482210	0.200912
N111	N	0.165677	1.042900	0.248639
N112	N	0.665677	1.542900	0.748639
H113	H	-0.456712	1.138771	-0.000179
H114	H	0.043288	1.638771	0.499821
H115	H	0.069900	0.479024	0.145178
H116	H	0.569900	0.979024	0.645178
H117	H	0.219258	0.564482	0.145321
H118	H	0.719258	1.064482	0.645321
C119	C	-0.301854	0.821933	-0.000196
C120	C	0.198146	1.321933	0.499804
N121	N	-0.268087	0.753546	-0.000247
N122	N	0.231913	1.253546	0.499753
H123	H	0.261690	0.420731	0.000002
H124	H	0.761690	0.920731	0.500002
H125	H	-0.371856	1.037304	-0.145369
H126	H	0.128144	1.537304	0.354631
C127	C	-0.055146	0.575586	0.000016
C128	C	0.444854	1.075586	0.500016
N129	N	-0.123453	0.609510	0.000100
N130	N	0.376547	1.109510	0.500100
C131	C	0.314775	1.191814	-0.545368
C132	C	0.814775	1.691814	-0.045368
N133	N	0.365509	1.242490	-0.503747
N134	N	0.865509	1.742490	-0.003747
H135	H	0.203162	1.080272	-0.317781
H136	H	0.703162	1.580272	0.182219
C137	C	-0.400503	0.939928	0.168516
C138	C	0.099497	1.439928	0.668516
N139	N	-0.407180	0.918953	0.236249
N140	N	0.092820	1.418953	0.736249
C141	C	-0.300865	1.113277	0.168493
C142	C	0.199135	1.613277	0.668493
N143	N	-0.266641	1.161917	0.236203
N144	N	0.233359	1.661917	0.736203
C145	C	0.172383	1.049493	-0.243829
C146	C	0.672383	1.549493	0.256171
N147	N	0.223117	1.100170	-0.202208
N148	N	0.723117	1.600170	0.297792
C149	C	-0.469060	0.871170	-0.168883
C150	C	0.030940	1.371170	0.331117
N151	N	-0.503209	0.822569	-0.236675
N152	N	-0.003209	1.322569	0.263325
C153	C	0.167263	0.507726	-0.168690
C154	C	0.667263	1.007726	0.331310
N155	N	0.188239	0.514410	-0.236420
N156	N	0.688239	1.014410	0.263580
H157	H	0.010699	0.419861	-0.145326
H158	H	0.510699	0.919861	0.354674
H159	H	0.277065	1.154102	-0.408974
H160	H	0.777065	1.654102	0.091026
C161	C	0.271693	1.148835	-0.756408
C162	C	0.771693	1.648835	-0.256408
N163	N	0.305427	1.182570	-0.798045
N164	N	0.805427	1.682570	-0.298045
H165	H	0.075093	0.952399	-0.742014
H166	H	0.575093	1.452399	-0.242014
C167	C	0.020947	0.898293	-0.711122
C168	C	0.520947	1.398293	-0.211122
N169	N	0.003959	0.881335	-0.794387
N170	N	0.503959	1.381335	-0.294387
C171	C	-0.064568	0.812823	-0.605581
C172	C	0.435432	1.312823	-0.105581
N173	N	-0.115293	0.762138	-0.647206
N174	N	0.384707	1.262138	-0.147206
H175	H	-0.067298	0.810080	-0.440468
H176	H	0.432702	1.310080	0.059532
H177	H	-0.030091	0.847204	-0.258140
H178	H	0.469909	1.347204	0.241860
