data_functionalizedCrystal
_audit_creation_method	'MofGen! by Chris Wilmer'
_symmetry_space_group_name_H-M	'P1'
_symmetry_Int_Tables_number	1
_symmetry_cell_setting	triclinic
loop_
_symmetry_equiv_pos_as_xyz
  x,y,z
_cell_length_a	16.992701
_cell_length_b	16.992695
_cell_length_c	16.053840
_cell_angle_alpha	92.718775
_cell_angle_beta	92.717849
_cell_angle_gamma	90.667696
loop_
_atom_site_label
_atom_site_type_symbol
_atom_site_fract_x
_atom_site_fract_y
_atom_site_fract_z
O1	O	1.047699	0.163761	-0.069417
O2	O	0.819299	0.161932	-0.069417
O3	O	0.932583	0.048646	-0.069424
O4	O	0.934415	0.277047	-0.069410
O5	O	0.938876	0.054934	0.069434
O6	O	0.825592	0.168220	0.069441
O7	O	1.053992	0.170049	0.069442
Zn8	Zn	0.940791	0.170133	0.091488
Zn9	Zn	0.932499	0.161848	-0.091464
O10	O	0.940708	0.283335	0.069449
C11	C	0.793085	0.162721	0.000012
C12	C	0.705601	0.155693	0.000011
C13	C	0.213682	0.108471	0.000005
C14	C	0.295883	0.115081	0.000010
C15	C	0.332090	0.189509	0.000011
C16	C	0.286092	0.257331	0.000015
C17	C	0.203893	0.250721	0.000016
C18	C	0.577404	0.216905	0.000015
C19	C	0.659609	0.223510	0.000012
C20	C	0.669394	0.081259	0.000009
C21	C	0.587193	0.074655	0.000005
C22	C	0.541202	0.142478	0.000013
N23	N	0.416112	0.196267	0.000014
N24	N	0.457182	0.135720	0.000016
C25	C	0.933374	0.022430	0.000001
C26	C	0.926344	-0.065055	-0.000010
C27	C	1.080205	0.169261	0.000011
C28	C	1.167690	0.176288	0.000006
N29	N	0.946456	0.175787	0.216348
C30	C	0.939917	0.309551	0.000021
C31	C	0.946946	0.397036	0.000027
C32	C	0.879128	0.443028	0.000026
C33	C	0.885737	0.525228	0.000016
C34	C	0.960164	0.561435	0.000012
C35	C	1.027987	0.515438	0.000010
C36	C	1.021378	0.433239	0.000014
C37	C	0.987558	0.806748	-0.000007
C38	C	0.994162	0.888954	-0.000009
C39	C	0.851911	0.898738	-0.000005
C40	C	0.845308	0.816537	0.000005
C41	C	0.913131	0.770547	-0.000002
N42	N	0.966921	0.645457	0.000004
N43	N	0.906373	0.686526	0.000001
C44	C	0.975596	0.204975	0.739979
C45	C	0.971636	0.201014	0.652573
C46	C	0.918929	0.148267	0.608865
C47	C	0.870173	0.099482	0.652568
C48	C	0.874129	0.103447	0.739973
C49	C	0.901655	0.130968	0.347456
C50	C	0.897705	0.127005	0.260045
C51	C	0.999168	0.228539	0.260056
C52	C	1.003122	0.232496	0.347463
C53	C	0.954363	0.183714	0.391158
N54	N	0.914883	0.144215	0.519521
N55	N	0.958406	0.187770	0.480500
N56	N	0.926844	0.156192	0.783676
H57	H	0.184208	0.047863	-0.000001
C58	C	1.061160	0.756779	-0.000182
C59	C	1.058298	0.706079	-0.071634
C60	C	1.126096	0.660042	-0.071830
H61	H	1.063809	0.726632	0.048183
H62	H	1.106447	0.790094	-0.000228
H63	H	1.013023	0.672769	-0.071580
H64	H	1.055660	0.736205	-0.120011
H65	H	1.171383	0.693356	-0.071876
H66	H	1.128739	0.629900	-0.023462
H67	H	1.124166	0.625642	-0.120313
C68	C	0.821162	0.050388	0.787268
C69	C	0.774171	0.003329	0.730286
C70	C	0.725373	-0.045565	0.773822
H71	H	0.788426	0.081813	0.821363
H72	H	0.852678	0.017704	0.821351
H73	H	0.742658	0.036009	0.696217
H74	H	0.806887	-0.028113	0.696188
H75	H	0.756888	-0.078249	0.807905
H76	H	0.692641	-0.014133	0.807916
H77	H	0.693489	-0.077505	0.735166
C78	C	0.547735	-0.006086	-0.000043
C79	C	0.465903	0.002640	-0.000069
C80	C	0.429528	-0.071722	-0.000131
H81	H	0.565317	-0.032104	0.048364
H82	H	0.560979	-0.036427	-0.048488
H83	H	0.452665	0.032969	0.048372
H84	H	0.448299	0.028645	-0.048472
H85	H	0.442772	-0.102063	-0.048576
H86	H	0.447116	-0.097734	0.048277
H87	H	0.374002	-0.065812	-0.000156
C88	C	0.154089	0.324444	-0.000029
C89	C	0.203388	0.391039	-0.000052
C90	C	0.157538	0.458968	-0.000101
H91	H	0.124004	0.327128	0.048381
H92	H	0.119638	0.322669	-0.048471
H93	H	0.237826	0.392814	0.048385
H94	H	0.233473	0.388381	-0.048458
H95	H	0.123086	0.457193	-0.048543
H96	H	0.127455	0.461644	0.048310
H97	H	0.190980	0.504160	-0.000124
H98	H	0.784701	0.787063	-0.000002
H99	H	0.796694	0.936192	-0.000000
H100	H	0.706848	0.026042	0.000003
C101	C	0.798247	0.403866	-0.000014
C102	C	0.740269	0.461740	-0.000041
C103	C	0.665750	0.425697	-0.000093
H104	H	0.794791	0.374205	0.048397
H105	H	0.790476	0.369826	-0.048455
H106	H	0.748037	0.495767	0.048396
H107	H	0.743699	0.491405	-0.048448
H108	H	0.657979	0.391656	-0.048535
H109	H	0.662302	0.396037	0.048319
H110	H	0.626403	0.464958	-0.000119
C111	C	1.032847	0.262324	0.787279
C112	C	1.074677	0.304213	0.730298
C113	C	1.127416	0.357060	0.773837
H114	H	1.068671	0.233995	0.821382
H115	H	1.004415	0.298100	0.821355
H116	H	1.103107	0.268442	0.696237
H117	H	1.038874	0.332558	0.696194
H118	H	1.098984	0.392836	0.807913
H119	H	1.163235	0.328724	0.807938
H120	H	1.155799	0.385492	0.735183
C121	C	0.527612	0.290631	-0.000024
C122	C	0.576916	0.357222	-0.000048
C123	C	0.531073	0.425155	-0.000096
H124	H	0.497529	0.293318	0.048388
H125	H	0.493159	0.288859	-0.048465
H126	H	0.611356	0.358994	0.048388
H127	H	0.607000	0.354561	-0.048456
H128	H	0.496620	0.423383	-0.048537
H129	H	0.500991	0.427834	0.048316
H130	H	0.564518	0.470344	-0.000120
C131	C	0.325436	0.338112	-0.000153
C132	C	0.369084	0.342831	-0.071605
C133	C	0.405329	0.417239	-0.071796
H134	H	0.359551	0.345920	0.048212
H135	H	0.286292	0.377579	-0.000195
H136	H	0.408224	0.303376	-0.071555
H137	H	0.334987	0.335038	-0.119982
H138	H	0.366185	0.456706	-0.071838
H139	H	0.439440	0.425040	-0.023427
H140	H	0.434943	0.420454	-0.120278
C141	C	1.024433	0.254080	0.605092
C142	C	0.977766	0.302113	0.554933
C143	C	1.026375	0.351021	0.511194
H144	H	1.057115	0.222664	0.570925
H145	H	1.056374	0.286104	0.643620
H146	H	0.945839	0.270093	0.516410
H147	H	0.945085	0.333546	0.589079
H148	H	1.058315	0.383045	0.549721
H149	H	1.059054	0.319599	0.477032
H150	H	0.994718	0.383622	0.477162
C151	C	0.812122	0.575190	-0.000156
C152	C	0.808503	0.619405	-0.071611
C153	C	0.740691	0.665429	-0.071806
H154	H	0.813863	0.609727	0.048207
H155	H	0.766829	0.541875	-0.000194
H156	H	0.853785	0.652716	-0.071566
H157	H	0.806749	0.584888	-0.119985
H158	H	0.695398	0.632114	-0.071844
H159	H	0.742439	0.699961	-0.023440
H160	H	0.738223	0.695428	-0.120291
C161	C	0.840609	0.069625	0.212552
C162	C	0.882744	0.017045	0.162405
C163	C	0.830183	-0.035833	0.118654
H164	H	0.804836	0.097940	0.178375
H165	H	0.812153	0.041094	0.251072
H166	H	0.911187	0.045573	0.123890
H167	H	0.918514	-0.011288	0.196561
H168	H	0.801727	-0.064364	0.157175
H169	H	0.794412	-0.007512	0.084483
H170	H	0.858764	-0.071519	0.084631
H171	H	1.054773	0.918431	-0.000012
H172	H	1.088588	0.544924	0.000008
H173	H	1.046043	0.275448	0.383044
C174	C	1.052057	0.281638	0.212721
C175	C	1.036276	0.360551	0.233998
C176	C	1.084990	0.409493	0.190419
H177	H	1.042205	0.271832	0.154394
H178	H	1.105665	0.271121	0.227069
H179	H	0.982681	0.371064	0.219645
H180	H	1.046134	0.370382	0.292319
H181	H	1.138598	0.398976	0.204767
H182	H	1.075133	0.399680	0.132094
H183	H	1.074294	0.463041	0.204855
C184	C	0.848689	0.077909	0.394744
C185	C	0.801700	0.030847	0.337763
C186	C	0.752906	-0.018050	0.381300
H187	H	0.815951	0.109332	0.428840
H188	H	0.880208	0.045227	0.428827
H189	H	0.770185	0.063525	0.303694
H190	H	0.834418	-0.000592	0.303665
H191	H	0.784424	-0.050732	0.415382
H192	H	0.720173	0.013380	0.415394
H193	H	0.721023	-0.049992	0.342645
C194	C	0.812900	0.042333	0.605008
C195	C	0.760319	0.084407	0.554803
C196	C	0.707557	0.031784	0.510972
H197	H	0.784351	0.013824	0.643455
H198	H	0.841328	0.006610	0.570869
H199	H	0.731893	0.120116	0.588939
H200	H	0.788846	0.112914	0.516340
H201	H	0.735986	-0.003939	0.476833
H202	H	0.679014	0.003278	0.549426
H203	H	0.671879	0.060323	0.476897
H204	H	0.333326	0.059856	0.000013
H205	H	0.689086	0.284122	0.000025
H206	H	1.076602	0.395793	0.000011
