data_functionalizedCrystal
_audit_creation_method	'MofGen! by Chris Wilmer'
_symmetry_space_group_name_H-M	'P1'
_symmetry_Int_Tables_number	1
_symmetry_cell_setting	triclinic
loop_
_symmetry_equiv_pos_as_xyz
  x,y,z
_cell_length_a	21.295418
_cell_length_b	21.295417
_cell_length_c	12.759387
_cell_angle_alpha	89.961464
_cell_angle_beta	89.957911
_cell_angle_gamma	90.046319
loop_
_atom_site_label
_atom_site_type_symbol
_atom_site_fract_x
_atom_site_fract_y
_atom_site_fract_z
Zn1	Zn	0.962346	-0.250310	-0.594554
Zn2	Zn	1.462346	0.249690	-0.094554
Zn3	Zn	0.962251	-0.355593	-0.418850
Zn4	Zn	1.462251	0.144407	0.081150
Zn5	Zn	0.857072	-0.250371	-0.418824
Zn6	Zn	1.357072	0.249629	0.081176
Zn7	Zn	0.857038	-0.355575	-0.594423
Zn8	Zn	1.357038	0.144425	-0.094423
O9	O	0.909677	-0.302962	-0.506663
O10	O	1.409677	0.197038	-0.006663
O11	O	1.050422	-0.264259	-0.571312
O12	O	1.550422	0.235741	-0.071312
O13	O	0.948273	-0.341668	-0.271826
O14	O	1.448273	0.158332	0.228174
O15	O	0.871090	-0.162273	-0.442179
O16	O	1.371090	0.337727	0.057821
O17	O	1.050353	-0.341610	-0.442223
O18	O	1.550353	0.158390	0.057777
O19	O	0.948434	-0.162229	-0.571287
O20	O	1.448434	0.337771	-0.071287
O21	O	0.870999	-0.264362	-0.271807
O22	O	1.370999	0.235638	0.228193
O23	O	0.768978	-0.264344	-0.442053
O24	O	1.268978	0.235656	0.057947
O25	O	0.871033	-0.341578	-0.741462
O26	O	1.371033	0.158422	-0.241462
O27	O	0.768953	-0.341637	-0.571064
O28	O	1.268953	0.158363	-0.071064
O29	O	0.948402	-0.264241	-0.741558
O30	O	1.448402	0.235759	-0.241558
O31	O	0.948241	-0.443680	-0.442097
O32	O	1.448241	0.056320	0.057903
O33	O	0.870941	-0.443666	-0.571090
O34	O	1.370941	0.056334	-0.071090
C35	C	0.746125	-0.302995	-0.506542
C36	C	1.246125	0.197005	-0.006542
C37	C	0.676157	-0.303025	-0.506515
C38	C	1.176157	0.196975	-0.006515
C39	C	0.643294	-0.343324	-0.573591
C40	C	1.143294	0.156676	-0.073591
C41	C	0.577551	-0.343309	-0.573638
C42	C	1.077551	0.156691	-0.073638
C43	C	0.544674	-0.303000	-0.506591
C44	C	1.044674	0.197000	-0.006591
C45	C	0.577545	-0.262693	-0.439510
C46	C	1.077545	0.237307	0.060490
C47	C	0.643287	-0.262705	-0.439472
C48	C	1.143287	0.237295	0.060528
N49	N	0.441400	-0.298089	-0.414700
N50	N	0.941400	0.201911	0.085300
N51	N	0.378949	-0.298081	-0.414739
N52	N	0.878949	0.201919	0.085261
C53	C	0.346600	-0.302960	-0.506702
C54	C	0.846600	0.197040	-0.006702
N55	N	0.379062	-0.307859	-0.598628
N56	N	0.879062	0.192141	-0.098628
N57	N	0.441519	-0.307870	-0.598588
N58	N	0.941519	0.192130	-0.098588
C59	C	0.473389	-0.302982	-0.506625
C60	C	0.973389	0.197018	-0.006625
C61	C	0.242451	-0.343245	-0.573835
C62	C	0.742451	0.156755	-0.073835
C63	C	0.176708	-0.343225	-0.573884
C64	C	0.676708	0.156775	-0.073884
C65	C	0.176703	-0.262612	-0.439746
C66	C	0.676703	0.237388	0.060254
C67	C	0.242445	-0.262629	-0.439707
C68	C	0.742445	0.237371	0.060293
C69	C	0.275315	-0.302949	-0.506750
C70	C	0.775315	0.197051	-0.006750
C71	C	0.909594	-0.466514	-0.506605
C72	C	1.409594	0.033486	-0.006605
C73	C	0.909616	-0.536482	-0.506615
C74	C	1.409616	-0.036482	-0.006615
C75	C	0.949902	-0.569335	-0.439517
C76	C	1.449902	-0.069335	0.060483
C77	C	0.949932	-0.635077	-0.439541
C78	C	1.449932	-0.135077	0.060459
C79	C	0.909664	-0.667964	-0.506651
C80	C	1.409664	-0.167964	-0.006651
C81	C	0.869376	-0.635104	-0.573762
C82	C	1.369376	-0.135104	-0.073762
C83	C	0.869352	-0.569362	-0.573744
C84	C	1.369352	-0.069362	-0.073744
N85	N	0.854597	-0.771245	-0.514620
N86	N	1.354597	-0.271245	-0.014620
N87	N	0.854621	-0.833696	-0.514631
N88	N	1.354621	-0.333696	-0.014631
C89	C	0.909735	-0.866039	-0.506712
C90	C	1.409735	-0.366039	-0.006712
N91	N	0.964824	-0.833571	-0.498760
N92	N	1.464824	-0.333571	0.001240
N93	N	0.964799	-0.771114	-0.498744
N94	N	1.464799	-0.271114	0.001256
C95	C	0.909686	-0.739250	-0.506679
C96	C	1.409686	-0.239250	-0.006679
C97	C	0.950056	-0.970177	-0.439636
C98	C	1.450056	-0.470177	0.060364
C99	C	0.950086	-1.035921	-0.439667
C100	C	1.450086	-0.535921	0.060333
C101	C	0.869525	-1.035946	-0.573882
C102	C	1.369525	-0.535946	-0.073882
C103	C	0.869500	-0.970204	-0.573857
C104	C	1.369500	-0.470204	-0.073857
C105	C	0.909764	-0.937323	-0.506728
C106	C	1.409764	-0.437323	-0.006728
C107	C	1.073867	-0.302929	-0.506785
C108	C	1.573867	0.197071	-0.006785
C109	C	1.143835	-0.302915	-0.506837
C110	C	1.643835	0.197085	-0.006837
C111	C	0.909724	-0.302900	-0.780697
C112	C	1.409724	0.197100	-0.280697
C113	C	0.909744	-0.302874	-0.897473
C114	C	1.409744	0.197126	-0.397473
C115	C	0.909777	-0.138772	-0.506745
C116	C	1.409777	0.361228	-0.006745
C117	C	0.909819	-0.068804	-0.506779
C118	C	1.409819	0.431196	-0.006779
C119	C	0.990314	-0.222348	-0.897593
C120	C	1.490314	0.277652	-0.397593
C121	C	1.030608	-0.182076	-0.952514
C122	C	1.530608	0.317924	-0.452514
C123	C	1.030623	-0.182053	-1.062235
C124	C	1.530623	0.317947	-0.562235
C125	C	0.990339	-0.222305	-1.117039
C126	C	1.490339	0.277695	-0.617039
C127	C	0.950046	-0.262578	-1.062118
C128	C	1.450046	0.237422	-0.562118
C129	C	0.950036	-0.262598	-0.952394
C130	C	1.450036	0.237402	-0.452394
C131	C	0.869474	-0.343100	-1.061999
C132	C	1.369474	0.156900	-0.561999
C133	C	0.869460	-0.343127	-0.952277
C134	C	1.369460	0.156873	-0.452277
C135	C	0.829190	-0.383352	-1.116802
C136	C	1.329190	0.116648	-0.616802
C137	C	0.788898	-0.423629	-1.061882
C138	C	1.288898	0.076371	-0.561882
C139	C	0.788885	-0.423650	-0.952153
C140	C	1.288885	0.076350	-0.452153
C141	C	0.829167	-0.383399	-0.897356
C142	C	1.329167	0.116601	-0.397356
C143	C	0.909666	-0.302978	-0.233696
C144	C	1.409666	0.197022	0.266304
C145	C	0.909767	-0.302827	-0.116919
C146	C	1.409767	0.197173	0.383081
H147	H	0.670053	-0.376155	-0.628184
H148	H	1.170053	0.123845	-0.128184
H149	H	0.670043	-0.229886	-0.384851
H150	H	1.170043	0.270114	0.115149
H151	H	0.836741	-1.062722	-0.628530
H152	H	1.336741	-0.562722	-0.128530
O153	O	0.141254	-0.219132	-0.367431
O154	O	0.641254	0.280868	0.132569
H155	H	0.153813	-0.229870	-0.284935
H156	H	0.653813	0.270130	0.215065
O157	O	0.826036	-0.934773	-0.646218
O158	O	1.326036	-0.434773	-0.146218
H159	H	0.854177	-0.904764	-0.699735
H160	H	1.354177	-0.404764	-0.199735
O161	O	0.745451	-0.467035	-1.120994
O162	O	1.245451	0.032965	-0.620994
H163	H	0.717428	-0.495042	-1.064375
H164	H	1.217428	0.004958	-0.564375
H165	H	1.063430	-0.149256	-1.106952
H166	H	1.563430	0.350744	-0.606952
O167	O	0.141307	-0.386734	-0.646233
O168	O	0.641307	0.113266	-0.146233
H169	H	0.111414	-0.358639	-0.699855
H170	H	0.611414	0.141361	-0.199855
O171	O	0.990298	-0.222377	-0.779250
O172	O	1.490298	0.277623	-0.279250
H173	H	1.025075	-0.187620	-0.750369
H174	H	1.525075	0.312380	-0.250369
O175	O	0.990348	-0.222279	-1.235382
O176	O	1.490348	0.277721	-0.735382
H177	H	1.025134	-0.187513	-1.264364
H178	H	1.525134	0.312487	-0.764364
H179	H	0.269216	-0.376072	-0.628431
H180	H	0.769216	0.123928	-0.128431
O181	O	0.829202	-0.383331	-1.235145
O182	O	1.329202	0.116669	-0.735145
H183	H	0.863992	-0.348570	-1.264131
H184	H	1.363992	0.151430	-0.764131
O185	O	0.993337	-0.533869	-0.367133
O186	O	1.493337	-0.033869	0.132867
H187	H	1.021360	-0.567763	-0.320487
H188	H	1.521360	-0.067763	0.179513
O189	O	0.277897	-0.219179	-0.367333
O190	O	0.777897	0.280821	0.132667
H191	H	0.243993	-0.191154	-0.320705
H192	H	0.743993	0.308846	0.179295
H193	H	0.550789	-0.376125	-0.628264
H194	H	1.050789	0.123875	-0.128264
O195	O	1.074062	-0.138666	-0.893408
O196	O	1.574062	0.361334	-0.393408
H197	H	1.067290	-0.145452	-0.807885
H198	H	1.567290	0.354548	-0.307885
H199	H	0.756066	-0.456438	-0.907444
H200	H	1.256066	0.043562	-0.407444
H201	H	0.982739	-0.661831	-0.384902
H202	H	1.482739	-0.161831	0.115098
O203	O	0.829150	-0.383430	-0.779014
O204	O	1.329150	0.116570	-0.279014
H205	H	0.816454	-0.335960	-0.750095
H206	H	1.316454	0.164040	-0.250095
O207	O	0.825936	-0.670569	-0.646136
O208	O	1.325936	-0.170569	-0.146136
H209	H	0.832713	-0.721803	-0.634866
H210	H	1.332713	-0.221803	-0.134866
O211	O	0.825888	-0.533922	-0.646096
O212	O	1.325888	-0.033922	-0.146096
H213	H	0.797886	-0.567832	-0.692761
H214	H	1.297886	-0.067832	-0.192761
O215	O	0.542091	-0.219229	-0.367169
O216	O	1.042091	0.280771	0.132831
H217	H	0.490855	-0.226000	-0.378448
H218	H	0.990855	0.274000	0.121552
H219	H	0.982896	-1.062669	-0.385030
H220	H	1.482896	-0.562669	0.114970
O221	O	0.993489	-0.934706	-0.367252
O222	O	1.493489	-0.434706	0.132748
H223	H	1.021516	-0.968598	-0.320611
H224	H	1.521516	-0.468598	0.179389
