data_functionalizedCrystal
_audit_creation_method	'MofGen! by Chris Wilmer'
_symmetry_space_group_name_H-M	'P1'
_symmetry_Int_Tables_number	1
_symmetry_cell_setting	triclinic
loop_
_symmetry_equiv_pos_as_xyz
  x,y,z
_cell_length_a	21.395364
_cell_length_b	15.299816
_cell_length_c	21.395355
_cell_angle_alpha	80.332906
_cell_angle_beta	90.024552
_cell_angle_gamma	80.365592
loop_
_atom_site_label
_atom_site_type_symbol
_atom_site_fract_x
_atom_site_fract_y
_atom_site_fract_z
Zn1	Zn	1.001018	-0.358802	0.397446
Zn2	Zn	1.334351	-0.025469	0.730780
Zn3	Zn	1.667684	0.307864	1.064113
Zn4	Zn	1.019059	-0.509600	0.310818
Zn5	Zn	1.352392	-0.176267	0.644152
Zn6	Zn	1.685726	0.157066	0.977485
Zn7	Zn	0.896237	-0.358842	0.292688
Zn8	Zn	1.229571	-0.025508	0.626021
Zn9	Zn	1.562904	0.307825	0.959354
Zn10	Zn	0.914342	-0.509616	0.415561
Zn11	Zn	1.247676	-0.176283	0.748894
Zn12	Zn	1.581009	0.157050	1.082227
O13	O	0.957664	-0.434215	0.354128
O14	O	1.290997	-0.100882	0.687462
O15	O	1.624331	0.232451	1.020795
O16	O	1.091086	-0.378783	0.385962
O17	O	1.424419	-0.045449	0.719295
O18	O	1.757753	0.287884	1.052628
O19	O	1.002740	-0.489612	0.220737
O20	O	1.336073	-0.156278	0.554070
O21	O	1.669406	0.177055	0.887403
O22	O	0.895009	-0.232627	0.291415
O23	O	1.228343	0.100706	0.624749
O24	O	1.561676	0.434039	0.958082
O25	O	1.104341	-0.489573	0.322317
O26	O	1.437674	-0.156240	0.655650
O27	O	1.771007	0.177093	0.988983
O28	O	0.971991	-0.232598	0.368381
O29	O	1.305324	0.100735	0.701714
O30	O	1.638658	0.434068	1.035048
O31	O	0.912503	-0.378850	0.207416
O32	O	1.245837	-0.045517	0.540749
O33	O	1.579170	0.287817	0.874083
O34	O	0.810964	-0.378866	0.308980
O35	O	1.144297	-0.045532	0.642313
O36	O	1.477631	0.287801	0.975647
O37	O	0.925867	-0.489601	0.500834
O38	O	1.259200	-0.156267	0.834168
O39	O	1.592534	0.177066	1.167501
O40	O	0.824266	-0.489639	0.399254
O41	O	1.157599	-0.156306	0.732588
O42	O	1.490932	0.177028	1.065921
O43	O	0.989547	-0.378798	0.487526
O44	O	1.322880	-0.045465	0.820859
O45	O	1.656213	0.287868	1.154192
O46	O	1.020295	-0.635812	0.339881
O47	O	1.353629	-0.302478	0.673215
O48	O	1.686962	0.030855	1.006548
O49	O	0.943361	-0.635823	0.416835
O50	O	1.276694	-0.302490	0.750168
O51	O	1.610027	0.030843	1.083502
C52	C	0.794882	-0.434259	0.354116
C53	C	1.128215	-0.100926	0.687449
C54	C	1.461548	0.232408	1.020783
C55	C	0.725245	-0.434300	0.354128
C56	C	1.058579	-0.100966	0.687461
C57	C	1.391912	0.232367	1.020795
C58	C	0.685664	-0.376705	0.387341
C59	C	1.018998	-0.043372	0.720675
C60	C	1.352331	0.289961	1.054008
C61	C	0.620226	-0.376681	0.387341
C62	C	0.953559	-0.043348	0.720674
C63	C	1.286893	0.289985	1.054008
C64	C	0.594373	-0.434268	0.354136
C65	C	0.927707	-0.100934	0.687469
C66	C	1.261040	0.232399	1.020802
C67	C	0.633963	-0.491866	0.320915
C68	C	0.967296	-0.158533	0.654248
C69	C	1.300629	0.174801	0.987582
C70	C	0.699399	-0.491882	0.320911
C71	C	1.032732	-0.158549	0.654245
C72	C	1.366066	0.174785	0.987578
C73	C	0.500419	-0.515489	0.358874
C74	C	0.833752	-0.182156	0.692207
C75	C	1.167085	0.151178	1.025540
C76	C	0.434984	-0.515475	0.358882
C77	C	0.768317	-0.182141	0.692215
C78	C	1.101651	0.151192	1.025549
C79	C	0.392547	-0.434218	0.354144
C80	C	0.725880	-0.100885	0.687477
C81	C	1.059213	0.232449	1.020810
C82	C	0.415552	-0.352974	0.349410
C83	C	0.748885	-0.019640	0.682743
C84	C	1.082218	0.313693	1.016076
C85	C	0.480988	-0.352989	0.349406
C86	C	0.814321	-0.019656	0.682739
C87	C	1.147654	0.313677	1.016073
C88	C	0.523420	-0.434256	0.354136
C89	C	0.856753	-0.100923	0.687469
C90	C	1.190086	0.232410	1.020802
C91	C	0.282009	-0.376593	0.387358
C92	C	0.615342	-0.043260	0.720691
C93	C	0.948676	0.290074	1.054025
C94	C	0.216569	-0.376567	0.387353
C95	C	0.549903	-0.043234	0.720686
C96	C	0.883236	0.290099	1.054020
C97	C	0.230309	-0.491760	0.320931
C98	C	0.563642	-0.158427	0.654265
C99	C	0.896975	0.174907	0.987598
C100	C	0.295746	-0.491778	0.320932
C101	C	0.629079	-0.158444	0.654265
C102	C	0.962413	0.174889	0.987599
C103	C	0.321593	-0.434195	0.354149
C104	C	0.654926	-0.100862	0.687482
C105	C	0.988259	0.232471	1.020816
C106	C	0.985767	-0.668542	0.382305
C107	C	1.319101	-0.335209	0.715638
C108	C	1.652434	-0.001875	1.048972
C109	C	0.997847	-0.768788	0.394380
C110	C	1.331181	-0.435455	0.727713
C111	C	1.664514	-0.102121	1.061047
C112	C	0.871737	-1.051724	0.268039
C113	C	1.205071	-0.718391	0.601372
C114	C	1.538404	-0.385057	0.934705
C115	C	0.860384	-0.957538	0.256695
C116	C	1.193718	-0.624205	0.590028
C117	C	1.527051	-0.290871	0.923362
C118	C	0.894749	-0.910346	0.291115
C119	C	1.228083	-0.577012	0.624448
C120	C	1.561416	-0.243679	0.957782
C121	C	0.940469	-0.957349	0.336881
C122	C	1.273802	-0.624016	0.670214
C123	C	1.607135	-0.290682	1.003548
C124	C	0.951819	-1.051544	0.348229
C125	C	1.285153	-0.718211	0.681563
C126	C	1.618486	-0.384878	1.014896
C127	C	0.974831	-0.910166	0.371306
C128	C	1.308165	-0.576833	0.704639
C129	C	1.641498	-0.243500	1.037972
C130	C	1.020551	-0.957170	0.417072
C131	C	1.353884	-0.623836	0.750405
C132	C	1.687218	-0.290503	1.083739
C133	C	1.031900	-1.051356	0.428418
C134	C	1.365233	-0.718022	0.761751
C135	C	1.698566	-0.384689	1.095084
C136	C	0.997535	-1.098548	0.393998
C137	C	1.330868	-0.765214	0.727331
C138	C	1.664202	-0.431881	1.060664
C139	C	0.963481	-0.815971	0.359958
C140	C	1.296814	-0.482638	0.693291
C141	C	1.630147	-0.149304	1.026624
C142	C	1.043563	-0.815791	0.440148
C143	C	1.376896	-0.482458	0.773482
C144	C	1.710230	-0.149125	1.106815
C145	C	1.054916	-0.909977	0.451492
C146	C	1.388249	-0.576644	0.784825
C147	C	1.721583	-0.243311	1.118159
C148	C	1.121082	-0.434172	0.354141
C149	C	1.454416	-0.100838	0.687474
C150	C	1.787749	0.232495	1.020808
C151	C	1.190721	-0.434153	0.354146
C152	C	1.524055	-0.100820	0.687480
C153	C	1.857388	0.232513	1.020813
C154	C	0.957714	-0.434197	0.517549
C155	C	1.291047	-0.100864	0.850883
C156	C	1.624381	0.232470	1.184216
C157	C	0.957735	-0.434189	0.587190
C158	C	1.291069	-0.100856	0.920523
C159	C	1.624402	0.232478	1.253856
C160	C	0.929468	-0.198973	0.325855
C161	C	1.262802	0.134360	0.659188
C162	C	1.596135	0.467693	0.992522
C163	C	0.917453	-0.098727	0.313807
C164	C	1.250786	0.234606	0.647140
C165	C	1.584119	0.567939	0.980474
C166	C	0.957643	-0.434168	0.191335
C167	C	1.290976	-0.100835	0.524668
C168	C	1.624309	0.232498	0.858002
C169	C	0.957712	-0.433922	0.121664
C170	C	1.291046	-0.100589	0.454998
C171	C	1.624379	0.232745	0.788331
C172	C	0.990891	-0.376492	0.612974
C173	C	1.324225	-0.043159	0.946307
C174	C	1.657558	0.290175	1.279640
C175	C	0.990886	-0.376453	0.678405
C176	C	1.324219	-0.043120	1.011738
C177	C	1.657552	0.290214	1.345071
C178	C	0.957733	-0.434128	0.718051
C179	C	1.291066	-0.100794	1.051384
C180	C	1.624399	0.232539	1.384717
C181	C	0.924569	-0.491829	0.692259
C182	C	1.257903	-0.158496	1.025593
C183	C	1.591236	0.174838	1.358926
C184	C	0.924571	-0.491860	0.626829
C185	C	1.257904	-0.158526	0.960162
C186	C	1.591237	0.174807	1.293495
C187	C	0.962525	-0.515337	0.831490
C188	C	1.295858	-0.182004	1.164824
C189	C	1.629192	0.151329	1.498157
C190	C	0.962528	-0.515308	0.896920
C191	C	1.295862	-0.181975	1.230253
C192	C	1.629195	0.151359	1.563587
C193	C	0.957725	-0.434032	0.919860
C194	C	1.291058	-0.100699	1.253193
C195	C	1.624392	0.232634	1.586527
C196	C	0.952931	-0.352783	0.877362
C197	C	1.286265	-0.019450	1.210696
C198	C	1.619598	0.313883	1.544029
C199	C	0.952933	-0.352814	0.811932
C200	C	1.286266	-0.019481	1.145265
C201	C	1.619599	0.313853	1.478599
C202	C	0.957727	-0.434100	0.789000
C203	C	1.291061	-0.100767	1.122333
C204	C	1.624394	0.232566	1.455666
C205	C	0.990877	-0.376288	1.016591
C206	C	1.324210	-0.042955	1.349924
C207	C	1.657543	0.290378	1.683258
C208	C	0.990867	-0.376248	1.082023
C209	C	1.324200	-0.042915	1.415356
C210	C	1.657533	0.290419	1.748690
C211	C	0.924554	-0.491632	1.095877
C212	C	1.257888	-0.158298	1.429211
C213	C	1.591221	0.175035	1.762544
C214	C	0.924560	-0.491664	1.030446
C215	C	1.257894	-0.158331	1.363779
C216	C	1.591227	0.175003	1.697112
C217	C	0.957725	-0.433993	0.990807
C218	C	1.291058	-0.100660	1.324140
C219	C	1.624392	0.232673	1.657473
H220	H	0.587992	-0.329777	0.414386
H221	H	0.921326	0.003557	0.747719
H222	H	1.254659	0.336890	1.081052
C223	C	0.888086	-0.555076	1.139484
C224	C	1.221419	-0.221742	1.472818
C225	C	1.554753	0.111591	1.806151
N226	N	0.860617	-0.602863	1.172333
N227	N	1.193950	-0.269529	1.505666
N228	N	1.527283	0.063804	1.838999
C229	C	1.010021	-1.202159	0.406473
C230	C	1.343354	-0.868826	0.739807
C231	C	1.676687	-0.535492	1.073140
N232	N	1.019423	-1.280200	0.415869
N233	N	1.352757	-0.946867	0.749203
N234	N	1.686090	-0.613533	1.082536
C235	C	0.506291	-0.263622	0.344190
C236	C	0.839624	0.069712	0.677524
C237	C	1.172958	0.403045	1.010857
N238	N	0.525349	-0.196308	0.340258
N239	N	0.858682	0.137026	0.673592
N240	N	1.192016	0.470359	1.006925
C241	C	1.081368	-0.763884	0.478012
C242	C	1.414701	-0.430551	0.811345
C243	C	1.748035	-0.097217	1.144678
N244	N	1.109840	-0.724782	0.506529
N245	N	1.443174	-0.391448	0.839862
N246	N	1.776507	-0.058115	1.173195
H247	H	1.017896	-0.329531	0.580703
H248	H	1.351229	0.003803	0.914036
H249	H	1.684562	0.337136	1.247370
C250	C	0.810081	-0.905841	0.206367
C251	C	1.143414	-0.572508	0.539700
C252	C	1.476748	-0.239175	0.873034
N253	N	0.772186	-0.866903	0.168462
N254	N	1.105519	-0.533569	0.501795
N255	N	1.438852	-0.200236	0.835128
H256	H	0.843759	-1.090156	0.240022
H257	H	1.177093	-0.756823	0.573355
H258	H	1.510426	-0.423490	0.906688
C259	C	0.605524	-0.555212	0.284390
C260	C	0.938857	-0.221878	0.617723
C261	C	1.272190	0.111455	0.951056
N262	N	0.584103	-0.602924	0.256876
N263	N	0.917437	-0.269591	0.590209
N264	N	1.250770	0.063743	0.923543
H265	H	0.949028	-0.286658	0.777333
H266	H	1.282361	0.046675	1.110666
H267	H	1.615694	0.380008	1.443999
H268	H	0.381000	-0.286807	0.345551
H269	H	0.714333	0.046527	0.678885
H270	H	1.047666	0.379860	1.012218
H271	H	1.017865	-0.329259	1.103014
H272	H	1.351198	0.004075	1.436347
H273	H	1.684531	0.337408	1.769680
C274	C	0.882262	-0.806738	0.278632
C275	C	1.215595	-0.473405	0.611966
C276	C	1.548929	-0.140071	0.945299
N277	N	0.872857	-0.728697	0.269226
N278	N	1.206190	-0.395364	0.602559
N279	N	1.539523	-0.062030	0.935892
H280	H	1.069125	-1.089623	0.465686
H281	H	1.402458	-0.756290	0.799019
H282	H	1.735792	-0.422956	1.132353
C283	C	0.742941	-0.555247	0.284376
C284	C	1.076274	-0.221914	0.617709
C285	C	1.409607	0.111420	0.951042
N286	N	0.775738	-0.602977	0.256858
N287	N	1.109071	-0.269644	0.590192
N288	N	1.442404	0.063690	0.923525
C289	C	1.027366	-0.312985	0.706774
C290	C	1.360699	0.020349	1.040107
C291	C	1.694033	0.353682	1.373441
N292	N	1.054845	-0.265182	0.728140
N293	N	1.388178	0.068151	1.061474
N294	N	1.721512	0.401484	1.394807
C295	C	0.888089	-0.555140	1.002083
C296	C	1.221422	-0.221807	1.335416
C297	C	1.554755	0.111526	1.668750
N298	N	0.860614	-0.602951	0.980720
N299	N	1.193948	-0.269618	1.314054
N300	N	1.527281	0.063715	1.647387
C301	C	0.310441	-0.313244	0.423890
C302	C	0.643775	0.020090	0.757223
C303	C	0.977108	0.353423	1.090557
N304	N	0.331855	-0.265527	0.451405
N305	N	0.665188	0.067806	0.784739
N306	N	0.998521	0.401140	1.118072
C307	C	1.105204	-0.961693	0.501836
C308	C	1.438537	-0.628360	0.835170
C309	C	1.771870	-0.295027	1.168503
N310	N	1.143080	-1.000647	0.539757
N311	N	1.476413	-0.667313	0.873090
N312	N	1.809746	-0.333980	1.206423
H313	H	0.926255	-0.777709	0.322695
H314	H	1.259589	-0.444376	0.656028
H315	H	1.592922	-0.111042	0.989361
H316	H	0.897573	-0.538785	0.724543
H317	H	1.230907	-0.205452	1.057876
H318	H	1.564240	0.127881	1.391210
C319	C	0.947646	-0.263372	0.902591
C320	C	1.280979	0.069961	1.235924
C321	C	1.614312	0.403294	1.569257
N322	N	0.943666	-0.196030	0.921596
N323	N	1.276999	0.137303	1.254929
N324	N	1.610332	0.470636	1.588262
C325	C	1.027352	-0.312842	0.972985
C326	C	1.360685	0.020491	1.306318
C327	C	1.694018	0.353825	1.639652
N328	N	1.054824	-0.265052	0.940142
N329	N	1.388157	0.068281	1.273476
N330	N	1.721490	0.401614	1.606809
H331	H	0.966435	-0.581466	0.931517
H332	H	1.299769	-0.248133	1.264850
H333	H	1.633102	0.085201	1.598184
C334	C	0.967822	-0.604755	0.806265
C335	C	1.301155	-0.271421	1.139598
C336	C	1.634488	0.061912	1.472931
N337	N	0.971815	-0.672102	0.787265
N338	N	1.305149	-0.338769	1.120598
N339	N	1.638482	-0.005435	1.453932
C340	C	0.888096	-0.555336	0.598466
C341	C	1.221430	-0.222003	0.931800
C342	C	1.554763	0.111331	1.265133
N343	N	0.860624	-0.603149	0.577103
N344	N	1.193958	-0.269816	0.910436
N345	N	1.527291	0.063518	1.243770
H346	H	0.706704	-0.329817	0.414389
H347	H	1.040037	0.003517	0.747722
H348	H	1.373370	0.336850	1.081055
H349	H	0.416259	-0.581629	0.362740
H350	H	0.749592	-0.248295	0.696073
H351	H	1.082925	0.085038	1.029406
C352	C	0.201874	-0.555105	0.284404
C353	C	0.535208	-0.221772	0.617738
C354	C	0.868541	0.111561	0.951071
N355	N	0.180455	-0.602818	0.256890
N356	N	0.513788	-0.269484	0.590224
N357	N	0.847121	0.063849	0.923557
C358	C	0.339288	-0.555144	0.284400
C359	C	0.672622	-0.221811	0.617734
C360	C	1.005955	0.111523	0.951067
N361	N	0.372084	-0.602874	0.256882
N362	N	0.705418	-0.269540	0.590215
N363	N	1.038751	0.063793	0.923549
C364	C	0.173029	-0.313205	0.423891
C365	C	0.506363	0.020129	0.757225
C366	C	0.839696	0.353462	1.090558
N367	N	0.140234	-0.265480	0.451414
N368	N	0.473568	0.067854	0.784747
N369	N	0.806901	0.401187	1.118081
C370	C	0.547095	-0.604884	0.364090
C371	C	0.880428	-0.271551	0.697424
C372	C	1.213761	0.061783	1.030757
N373	N	0.582250	-0.672214	0.368021
N374	N	0.915583	-0.338881	0.701354
N375	N	1.248917	-0.005548	1.034687
