data_functionalizedCrystal
_audit_creation_method	'MofGen! by Chris Wilmer'
_symmetry_space_group_name_H-M	'P1'
_symmetry_Int_Tables_number	1
_symmetry_cell_setting	triclinic
loop_
_symmetry_equiv_pos_as_xyz
  x,y,z
_cell_length_a	25.639242
_cell_length_b	25.639239
_cell_length_c	25.639233
_cell_angle_alpha	90.018747
_cell_angle_beta	90.022166
_cell_angle_gamma	90.034213
loop_
_atom_site_label
_atom_site_type_symbol
_atom_site_fract_x
_atom_site_fract_y
_atom_site_fract_z
Zn1	Zn	0.799225	-0.208277	0.295742
Zn2	Zn	1.132558	0.125057	0.629076
Zn3	Zn	1.465892	0.458390	0.962409
Zn4	Zn	0.799149	-0.295696	0.208307
Zn5	Zn	1.132482	0.037638	0.541640
Zn6	Zn	1.465815	0.370971	0.874973
Zn7	Zn	0.711801	-0.208269	0.208306
Zn8	Zn	1.045135	0.125064	0.541640
Zn9	Zn	1.378468	0.458398	0.874973
Zn10	Zn	0.711746	-0.295676	0.295696
Zn11	Zn	1.045080	0.037657	0.629030
Zn12	Zn	1.378413	0.370990	0.962363
O13	O	0.755480	-0.251979	0.252013
O14	O	1.088814	0.081354	0.585346
O15	O	1.422147	0.414687	0.918680
O16	O	0.872380	-0.219884	0.284163
O17	O	1.205713	0.113449	0.617496
O18	O	1.539047	0.446782	0.950830
O19	O	0.787553	-0.284103	0.135141
O20	O	1.120886	0.049230	0.468475
O21	O	1.454219	0.382563	0.801808
O22	O	0.723453	-0.135105	0.219924
O23	O	1.056787	0.198228	0.553257
O24	O	1.390120	0.531562	0.886591
O25	O	0.872324	-0.284111	0.219924
O26	O	1.205657	0.049223	0.553258
O27	O	1.538991	0.382556	0.886591
O28	O	0.787683	-0.135111	0.284163
O29	O	1.121016	0.198223	0.617496
O30	O	1.454350	0.531556	0.950829
O31	O	0.723379	-0.219871	0.135141
O32	O	1.056712	0.113462	0.468474
O33	O	1.390046	0.446795	0.801808
O34	O	0.638629	-0.219853	0.219880
O35	O	0.971962	0.113481	0.553213
O36	O	1.305296	0.446814	0.886546
O37	O	0.723360	-0.284078	0.368868
O38	O	1.056693	0.049256	0.702201
O39	O	1.390026	0.382589	1.035534
O40	O	0.638589	-0.284070	0.284085
O41	O	0.971922	0.049263	0.617418
O42	O	1.305255	0.382597	0.950751
O43	O	0.787630	-0.219866	0.368901
O44	O	1.120963	0.113468	0.702235
O45	O	1.454297	0.446801	1.035568
O46	O	0.787499	-0.368858	0.219880
O47	O	1.120833	-0.035525	0.553213
O48	O	1.454166	0.297808	0.886547
O49	O	0.723286	-0.368844	0.284085
O50	O	1.056619	-0.035511	0.617418
O51	O	1.389952	0.297823	0.950752
C52	C	0.619638	-0.251959	0.251977
C53	C	0.952971	0.081375	0.585311
C54	C	1.286304	0.414708	0.918644
C55	C	0.561524	-0.251963	0.251975
C56	C	0.894857	0.081371	0.585308
C57	C	1.228190	0.414704	0.918641
C58	C	0.755392	-0.387822	0.251989
C59	C	1.088726	-0.054489	0.585322
C60	C	1.422059	0.278845	0.918656
C61	C	0.755403	-0.445936	0.251996
C62	C	1.088736	-0.112603	0.585330
C63	C	1.422069	0.220731	0.918663
C64	C	0.201149	-0.285473	0.285413
C65	C	0.534482	0.047860	0.618746
C66	C	0.867815	0.381193	0.952080
C67	C	0.146544	-0.285477	0.285421
C68	C	0.479878	0.047857	0.618754
C69	C	0.813211	0.381190	0.952088
O70	O	0.118297	-0.313943	0.313821
O71	O	0.451631	0.019390	0.647155
O72	O	0.784964	0.352724	0.980488
N73	N	0.119241	-0.251994	0.252047
N74	N	0.452575	0.081340	0.585380
N75	N	0.785908	0.414673	0.918714
C76	C	0.146545	-0.218502	0.218666
C77	C	0.479879	0.114831	0.552000
C78	C	0.813212	0.448165	0.885333
O79	O	0.118308	-0.190022	0.190280
O80	O	0.451641	0.143311	0.523613
O81	O	0.784975	0.476644	0.856947
C82	C	0.201149	-0.218496	0.218661
C83	C	0.534482	0.114837	0.551994
C84	C	0.867815	0.448170	0.885328
C85	C	0.228449	-0.251985	0.252034
C86	C	0.561782	0.081348	0.585367
C87	C	0.895116	0.414681	0.918700
C88	C	0.228449	-0.318959	0.318783
C89	C	0.561782	0.014374	0.652116
C90	C	0.895115	0.347708	0.985450
C91	C	0.283049	-0.318956	0.318774
C92	C	0.616383	0.014377	0.652107
C93	C	0.949716	0.347710	0.985441
C94	C	0.310350	-0.285468	0.285395
C95	C	0.643683	0.047865	0.618728
C96	C	0.977016	0.381199	0.952061
C97	C	0.283049	-0.251983	0.252024
C98	C	0.616383	0.081351	0.585358
C99	C	0.949716	0.414684	0.918691
C100	C	0.228452	-0.185002	0.185283
C101	C	0.561785	0.148331	0.518617
C102	C	0.895119	0.481664	0.851950
C103	C	0.283059	-0.185000	0.185281
C104	C	0.616392	0.148334	0.518615
C105	C	0.949726	0.481667	0.851948
C106	C	0.310359	-0.218488	0.218654
C107	C	0.643692	0.114845	0.551987
C108	C	0.977026	0.448178	0.885320
C109	C	0.364950	-0.218492	0.218636
C110	C	0.698284	0.114842	0.551969
C111	C	1.031617	0.448175	0.885303
N112	N	0.392253	-0.251974	0.252010
N113	N	0.725587	0.081359	0.585344
N114	N	1.058920	0.414692	0.918677
C115	C	0.364953	-0.285463	0.285389
C116	C	0.698286	0.047871	0.618723
C117	C	1.031620	0.381204	0.952056
C118	C	0.031875	-0.218515	0.218680
C119	C	0.365208	0.114818	0.552014
C120	C	0.698541	0.448151	0.885347
C121	C	-0.022728	-0.218523	0.218683
C122	C	0.310606	0.114810	0.552016
C123	C	0.643939	0.448144	0.885349
C124	C	-0.022725	-0.285497	0.285438
C125	C	0.310608	0.047836	0.618772
C126	C	0.643942	0.381170	0.952105
C127	C	0.031878	-0.285492	0.285433
C128	C	0.365212	0.047842	0.618766
C129	C	0.698545	0.381175	0.952100
C130	C	0.059178	-0.251998	0.252054
C131	C	0.392511	0.081335	0.585388
C132	C	0.725844	0.414669	0.918721
C133	C	0.479618	-0.285455	0.285368
C134	C	0.812951	0.047878	0.618701
C135	C	1.146285	0.381212	0.952034
C136	C	0.534223	-0.285451	0.285354
C137	C	0.867557	0.047883	0.618687
C138	C	1.200890	0.381216	0.952021
C139	C	0.534216	-0.218475	0.218601
C140	C	0.867549	0.114858	0.551934
C141	C	1.200883	0.448192	0.885267
C142	C	0.479615	-0.218481	0.218612
C143	C	0.812949	0.114853	0.551945
C144	C	1.146282	0.448186	0.885279
C145	C	0.452318	-0.251972	0.252000
C146	C	0.785651	0.081361	0.585333
C147	C	1.118984	0.414694	0.918666
O148	O	0.393232	-0.190038	0.190252
O149	O	0.726565	0.143295	0.523585
O150	O	1.059899	0.476628	0.856918
O151	O	0.393197	-0.313933	0.313776
O152	O	0.726530	0.019401	0.647109
O153	O	1.059864	0.352734	0.980442
C154	C	0.789004	-0.806294	0.218638
C155	C	1.122337	-0.472961	0.551972
C156	C	1.455670	-0.139627	0.885305
C157	C	0.789024	-0.860898	0.218645
C158	C	1.122357	-0.527565	0.551979
C159	C	1.455691	-0.194232	0.885312
O160	O	0.817502	-0.889131	0.190257
O161	O	1.150835	-0.555797	0.523590
O162	O	1.484168	-0.222464	0.856924
N163	N	0.755572	-0.888218	0.252048
N164	N	1.088906	-0.554885	0.585381
N165	N	1.422239	-0.221552	0.918714
C166	C	0.722102	-0.860932	0.285449
C167	C	1.055435	-0.527598	0.618782
C168	C	1.388768	-0.194265	0.952115
O169	O	0.693651	-0.889184	0.313861
O170	O	1.026984	-0.555850	0.647194
O171	O	1.360317	-0.222517	0.980528
C172	C	0.722085	-0.806328	0.285444
C173	C	1.055418	-0.472995	0.618777
C174	C	1.388751	-0.139662	0.952111
C175	C	0.755535	-0.779011	0.252036
C176	C	1.088868	-0.445678	0.585369
C177	C	1.422201	-0.112344	0.918702
C178	C	0.822452	-0.778976	0.185233
C179	C	1.155785	-0.445643	0.518567
C180	C	1.489118	-0.112310	0.851900
C181	C	0.822431	-0.724376	0.185226
C182	C	1.155764	-0.391043	0.518559
C183	C	1.489097	-0.057709	0.851892
C184	C	0.788962	-0.697093	0.218623
C185	C	1.122295	-0.363760	0.551957
C186	C	1.455628	-0.030426	0.885290
C187	C	0.755514	-0.724410	0.252028
C188	C	1.088847	-0.391077	0.585362
C189	C	1.422180	-0.057744	0.918695
C190	C	0.688617	-0.779042	0.318847
C191	C	1.021950	-0.445709	0.652181
C192	C	1.355284	-0.112376	0.985514
C193	C	0.688603	-0.724435	0.318840
C194	C	1.021936	-0.391102	0.652173
C195	C	1.355270	-0.057769	0.985507
C196	C	0.722053	-0.697118	0.285432
C197	C	1.055387	-0.363785	0.618765
C198	C	1.388720	-0.030451	0.952099
C199	C	0.722024	-0.642527	0.285418
C200	C	1.055357	-0.309193	0.618751
C201	C	1.388690	0.024140	0.952085
N202	N	0.755475	-0.615206	0.252016
N203	N	1.088809	-0.281873	0.585349
N204	N	1.422142	0.051460	0.918683
C205	C	0.788944	-0.642490	0.218618
C206	C	1.122278	-0.309156	0.551952
C207	C	1.455611	0.024177	0.885285
C208	C	0.722141	-0.975602	0.285457
C209	C	1.055474	-0.642269	0.618790
C210	C	1.388808	-0.308936	0.952123
C211	C	0.722155	-1.030204	0.285459
C212	C	1.055489	-0.696871	0.618793
C213	C	1.388822	-0.363538	0.952126
C214	C	0.789078	-1.030167	0.218656
C215	C	1.122412	-0.696834	0.551990
C216	C	1.455745	-0.363501	0.885323
C217	C	0.789061	-0.975564	0.218652
C218	C	1.122395	-0.642231	0.551985
C219	C	1.455728	-0.308897	0.885318
C220	C	0.755593	-0.948282	0.252055
C221	C	1.088926	-0.614949	0.585388
C222	C	1.422260	-0.281615	0.918721
C223	C	0.788897	-0.527824	0.218605
C224	C	1.122231	-0.194491	0.551938
C225	C	1.455564	0.138842	0.885272
C226	C	0.788872	-0.473219	0.218599
C227	C	1.122205	-0.139886	0.551932
C228	C	1.455538	0.193448	0.885265
C229	C	0.721951	-0.473261	0.285403
C230	C	1.055284	-0.139928	0.618737
C231	C	1.388617	0.193406	0.952070
C232	C	0.721974	-0.527862	0.285408
C233	C	1.055307	-0.194528	0.618741
C234	C	1.388641	0.138805	0.952074
C235	C	0.755452	-0.555142	0.252007
C236	C	1.088785	-0.221809	0.585340
C237	C	1.422118	0.111525	0.918673
O238	O	0.693562	-0.614260	0.313793
O239	O	1.026895	-0.280926	0.647127
O240	O	1.360229	0.052407	0.980460
O241	O	0.817396	-0.614231	0.190216
O242	O	1.150729	-0.280898	0.523549
O243	O	1.484062	0.052436	0.856883
C244	C	0.891853	-0.252000	0.252049
C245	C	1.225187	0.081333	0.585382
C246	C	1.558520	0.414666	0.918715
C247	C	0.949967	-0.252009	0.252064
C248	C	1.283301	0.081324	0.585397
C249	C	1.616634	0.414657	0.918731
C250	C	0.755497	-0.251970	0.388386
C251	C	1.088831	0.081363	0.721719
C252	C	1.422164	0.414696	1.055053
C253	C	0.755504	-0.251966	0.446500
C254	C	1.088838	0.081367	0.779833
C255	C	1.422171	0.414700	1.113167
C256	C	0.755583	-0.115606	0.252048
C257	C	1.088916	0.217727	0.585382
C258	C	1.422250	0.551060	0.918715
C259	C	0.755627	-0.057492	0.252064
C260	C	1.088960	0.275841	0.585397
C261	C	1.422293	0.609174	0.918730
C262	C	0.755494	-0.251951	0.116170
C263	C	1.088827	0.081383	0.449504
C264	C	1.422160	0.414716	0.782837
C265	C	0.755588	-0.251807	0.058057
C266	C	1.088921	0.081526	0.391390
C267	C	1.422254	0.414859	0.724723
C268	C	0.789012	-0.218432	0.806886
C269	C	1.122346	0.114902	1.140220
C270	C	1.455679	0.448235	1.473553
C271	C	0.789019	-0.218417	0.861491
C272	C	1.122352	0.114916	1.194824
C273	C	1.455685	0.448249	1.528157
O274	O	0.817466	-0.189967	0.889747
O275	O	1.150799	0.143367	1.223080
O276	O	1.484133	0.476700	1.556414
N277	N	0.755562	-0.251844	0.888783
N278	N	1.088895	0.081490	1.222116
N279	N	1.422229	0.414823	1.555449
C280	C	0.722093	-0.285283	0.861468
C281	C	1.055426	0.048050	1.194801
C282	C	1.388760	0.381384	1.528134
O283	O	0.693636	-0.313713	0.889695
O284	O	1.026969	0.019620	1.223029
O285	O	1.360302	0.352954	1.556362
C286	C	0.722084	-0.285294	0.806864
C287	C	1.055418	0.048039	1.140198
C288	C	1.388751	0.381372	1.473531
C289	C	0.755547	-0.251870	0.779575
C290	C	1.088880	0.081464	1.112908
C291	C	1.422214	0.414797	1.446242
C292	C	0.822472	-0.185009	0.779597
C293	C	1.155805	0.148324	1.112930
C294	C	1.489138	0.481657	1.446264
C295	C	0.822466	-0.185025	0.724997
C296	C	1.155799	0.148309	1.058330
C297	C	1.489133	0.481642	1.391663
C298	C	0.789000	-0.218462	0.697685
C299	C	1.122334	0.114871	1.031019
C300	C	1.455667	0.448204	1.364352
C301	C	0.755541	-0.251885	0.724974
C302	C	1.088874	0.081448	1.058308
C303	C	1.422208	0.414782	1.391641
C304	C	0.688613	-0.318731	0.779550
C305	C	1.021946	0.014603	1.112883
C306	C	1.355280	0.347936	1.446217
C307	C	0.688607	-0.318739	0.724943
C308	C	1.021940	0.014594	1.058276
C309	C	1.355273	0.347928	1.391610
C310	C	0.722069	-0.285314	0.697654
C311	C	1.055403	0.048019	1.030987
C312	C	1.388736	0.381352	1.364320
C313	C	0.722070	-0.285338	0.643063
C314	C	1.055403	0.047995	0.976396
C315	C	1.388736	0.381329	1.309729
N316	N	0.755526	-0.251912	0.615771
N317	N	1.088860	0.081422	0.949104
N318	N	1.422193	0.414755	1.282437
C319	C	0.788992	-0.218474	0.643082
C320	C	1.122325	0.114860	0.976415
C321	C	1.455658	0.448193	1.309749
C322	C	0.722113	-0.285256	0.976138
C323	C	1.055446	0.048077	1.309472
C324	C	1.388780	0.381411	1.642805
C325	C	0.722124	-0.285247	1.030741
C326	C	1.055457	0.048086	1.364074
C327	C	1.388791	0.381419	1.697407
C328	C	0.789049	-0.218381	1.030760
C329	C	1.122383	0.114952	1.364093
C330	C	1.455716	0.448286	1.697427
C331	C	0.789041	-0.218392	0.976157
C332	C	1.122374	0.114941	1.309490
C333	C	1.455707	0.448274	1.642823
C334	C	0.755570	-0.251829	0.948846
C335	C	1.088903	0.081504	1.282180
C336	C	1.422237	0.414837	1.615513
C337	C	0.788977	-0.218509	0.528417
C338	C	1.122311	0.114825	0.861750
C339	C	1.455644	0.448158	1.195083
C340	C	0.788970	-0.218529	0.473811
C341	C	1.122303	0.114805	0.807145
C342	C	1.455636	0.448138	1.140478
C343	C	0.722043	-0.285393	0.473797
C344	C	1.055376	0.047940	0.807130
C345	C	1.388710	0.381274	1.140463
C346	C	0.722052	-0.285375	0.528397
C347	C	1.055385	0.047958	0.861731
C348	C	1.388719	0.381291	1.195064
C349	C	0.755521	-0.251929	0.555706
C350	C	1.088854	0.081404	0.889039
C351	C	1.422187	0.414738	1.222373
O352	O	0.693635	-0.313773	0.614771
O353	O	1.026969	0.019561	0.948105
O354	O	1.360302	0.352894	1.281438
O355	O	0.817439	-0.190044	0.614847
O356	O	1.150773	0.143290	0.948181
O357	O	1.484106	0.476623	1.281514
H358	H	0.556449	-0.312723	0.312530
H359	H	0.889782	0.020610	0.645864
H360	H	1.223115	0.353943	0.979197
C361	C	0.449599	-0.322301	0.322092
C362	C	0.782932	0.011032	0.655425
C363	C	1.116265	0.344365	0.988759
N364	N	0.426988	-0.350057	0.349750
N365	N	0.760322	-0.016724	0.683083
N366	N	1.093655	0.316609	1.016416
H367	H	0.661364	-0.345949	0.801759
H368	H	0.994697	-0.012615	1.135093
H369	H	1.328031	0.320718	1.468426
C370	C	0.685176	-0.557912	0.322156
C371	C	1.018509	-0.224578	0.655489
C372	C	1.351842	0.108755	0.988823
N373	N	0.657462	-0.580542	0.349840
N374	N	0.990795	-0.247208	0.683173
N375	N	1.324129	0.086125	1.016507
C376	C	0.061903	-0.322328	0.322148
C377	C	0.395237	0.011005	0.655481
C378	C	0.728570	0.344338	0.988815
N379	N	0.084516	-0.350074	0.349805
N380	N	0.417849	-0.016741	0.683138
N381	N	0.751182	0.316592	1.016471
H382	H	0.556454	-0.191211	0.191422
H383	H	0.889787	0.142122	0.524756
H384	H	1.223121	0.475455	0.858089
H385	H	0.849709	-0.801185	0.158037
H386	H	1.183042	-0.467851	0.491370
H387	H	1.516376	-0.134518	0.824704
C388	C	0.859270	-0.148247	0.694986
C389	C	1.192604	0.185087	1.028319
C390	C	1.525937	0.518420	1.361652
N391	N	0.886991	-0.120541	0.672385
N392	N	1.220324	0.212792	1.005718
N393	N	1.553657	0.546126	1.339051
C394	C	0.198427	-0.355808	0.355501
C395	C	0.531760	-0.022474	0.688834
C396	C	0.865094	0.310859	1.022167
N397	N	0.175818	-0.383569	0.383154
N398	N	0.509152	-0.050236	0.716487
N399	N	0.842485	0.283098	1.049821
H400	H	0.816300	-0.953325	0.191448
H401	H	1.149633	-0.619992	0.524782
H402	H	1.482966	-0.286659	0.858115
H403	H	0.694798	-0.312619	0.451550
H404	H	1.028131	0.020715	0.784883
H405	H	1.361464	0.354048	1.118217
H406	H	0.816221	-0.191310	0.451595
H407	H	1.149554	0.142024	0.784928
H408	H	1.482888	0.475357	1.118262
H409	H	0.661345	-0.345963	0.702710
H410	H	0.994678	-0.012629	1.036043
H411	H	1.328011	0.320704	1.369376
C412	C	0.685245	-0.322147	0.558416
C413	C	1.018578	0.011186	0.891750
C414	C	1.351912	0.344519	1.225083
N415	N	0.657517	-0.349841	0.581023
N416	N	0.990851	-0.016508	0.914356
N417	N	1.324184	0.316826	1.247690
H418	H	0.694912	-1.052442	0.312659
H419	H	1.028245	-0.719108	0.645992
H420	H	1.361579	-0.385775	0.979325
H421	H	0.816333	-1.052391	0.191464
H422	H	1.149666	-0.719058	0.524797
H423	H	1.482999	-0.385724	0.858131
C424	C	0.685323	-0.945597	0.322207
C425	C	1.018656	-0.612263	0.655540
C426	C	1.351990	-0.278930	0.988874
N427	N	0.657595	-0.922999	0.349890
N428	N	0.990928	-0.589666	0.683224
N429	N	1.324261	-0.256333	1.016557
H430	H	-0.044963	-0.312763	0.312619
H431	H	0.288371	0.020570	0.645953
H432	H	0.621704	0.353903	0.979286
H433	H	0.206233	-0.157734	0.158106
H434	H	0.539567	0.175600	0.491440
H435	H	0.872900	0.508933	0.824773
C436	C	0.313072	-0.355794	0.355489
C437	C	0.646406	-0.022461	0.688823
C438	C	0.979739	0.310872	1.022156
N439	N	0.335682	-0.383542	0.383146
N440	N	0.669016	-0.050208	0.716480
N441	N	1.002349	0.283125	1.049813
C442	C	0.449584	-0.181646	0.181897
C443	C	0.782918	0.151688	0.515230
C444	C	1.116251	0.485021	0.848563
N445	N	0.426969	-0.153897	0.154245
N446	N	0.760302	0.179436	0.487579
N447	N	1.093635	0.512769	0.820912
C448	C	0.825798	-0.181719	0.558448
C449	C	1.159131	0.151614	0.891782
C450	C	1.492464	0.484948	1.225115
N451	N	0.853534	-0.154012	0.581068
N452	N	1.186867	0.179322	0.914401
N453	N	1.520200	0.512655	1.247735
H454	H	0.816111	-0.450979	0.191392
H455	H	1.149444	-0.117646	0.524725
H456	H	1.482777	0.215688	0.858059
H457	H	0.849670	-0.702137	0.158024
H458	H	1.183003	-0.368804	0.491357
H459	H	1.516337	-0.035471	0.824690
C460	C	-0.052752	-0.181686	0.181967
C461	C	0.280582	0.151647	0.515300
C462	C	0.613915	0.484981	0.848634
N463	N	-0.075364	-0.153936	0.154314
N464	N	0.257970	0.179397	0.487648
N465	N	0.591303	0.512731	0.820981
H466	H	0.661376	-0.801275	0.346049
H467	H	0.994709	-0.467942	0.679383
H468	H	1.328042	-0.134608	1.012716
H469	H	0.694699	-0.451039	0.312594
H470	H	1.028032	-0.117705	0.645927
H471	H	1.361366	0.215628	0.979260
H472	H	0.661350	-0.702225	0.346042
H473	H	0.994683	-0.368891	0.679376
H474	H	1.328016	-0.035558	1.012709
H475	H	0.849723	-0.157777	0.801828
H476	H	1.183057	0.175556	1.135162
H477	H	1.516390	0.508889	1.468495
H478	H	0.816288	-0.191174	0.953941
H479	H	1.149621	0.142159	1.287275
H480	H	1.482955	0.475493	1.620608
H481	H	0.816298	-0.191153	1.053007
H482	H	1.149631	0.142181	1.386340
H483	H	1.482964	0.475514	1.719673
H484	H	0.694881	-0.312471	1.052955
H485	H	1.028214	0.020862	1.386288
H486	H	1.361548	0.354196	1.719621
H487	H	0.694857	-0.312487	0.953905
H488	H	1.028190	0.020846	1.287239
H489	H	1.361523	0.354180	1.620572
C490	C	0.061899	-0.181674	0.181953
C491	C	0.395233	0.151660	0.515286
C492	C	0.728566	0.484993	0.848619
N493	N	0.084511	-0.153925	0.154289
N494	N	0.417844	0.179409	0.487622
N495	N	0.751178	0.512742	0.820956
C496	C	0.825721	-0.557825	0.181859
C497	C	1.159054	-0.224492	0.515192
C498	C	1.492388	0.108842	0.848526
N499	N	0.853454	-0.580421	0.154179
N500	N	1.186787	-0.247088	0.487512
N501	N	1.520120	0.086246	0.820846
C502	C	0.313085	-0.148154	0.148559
C503	C	0.646418	0.185179	0.481893
C504	C	0.979752	0.518512	0.815226
N505	N	0.335699	-0.120404	0.120899
N506	N	0.669033	0.212929	0.454233
N507	N	1.002366	0.546262	0.787566
