data_functionalizedCrystal
_audit_creation_method	'MofGen! by Chris Wilmer'
_symmetry_space_group_name_H-M	'P1'
_symmetry_Int_Tables_number	1
_symmetry_cell_setting	triclinic
loop_
_symmetry_equiv_pos_as_xyz
  x,y,z
_cell_length_a	16.109302
_cell_length_b	10.540510
_cell_length_c	15.186229
_cell_angle_alpha	89.998730
_cell_angle_beta	89.994701
_cell_angle_gamma	83.987546
loop_
_atom_site_label
_atom_site_type_symbol
_atom_site_fract_x
_atom_site_fract_y
_atom_site_fract_z
O1	O	1.104117	0.163165	-0.073263
O2	O	1.604117	0.663165	0.426737
O3	O	0.862177	0.183470	-0.073256
O4	O	1.362177	0.683470	0.426744
O5	O	0.988680	-0.011470	-0.073259
O6	O	1.488680	0.488530	0.426741
O7	O	0.977614	0.358105	-0.073260
O8	O	1.477614	0.858105	0.426740
O9	O	0.988671	-0.011473	0.073198
O10	O	1.488671	0.488527	0.573198
O11	O	0.862169	0.183467	0.073201
O12	O	1.362169	0.683467	0.573201
O13	O	1.104108	0.163163	0.073194
O14	O	1.604108	0.663163	0.573194
Zn15	Zn	0.983137	0.173314	0.096451
Zn16	Zn	1.483137	0.673314	0.596451
Zn17	Zn	0.983148	0.173318	-0.096513
Zn18	Zn	1.483148	0.673318	0.403487
O19	O	0.977606	0.358103	0.073198
O20	O	1.477606	0.858103	0.573198
C21	C	0.831193	0.182646	-0.000026
C22	C	1.331193	0.682646	0.499974
C23	C	0.738883	0.180179	-0.000024
C24	C	1.238883	0.680179	0.499976
C25	C	0.526503	0.174475	0.079802
C26	C	1.026503	0.674475	0.579802
C27	C	0.439769	0.172144	0.079798
C28	C	0.939769	0.672144	0.579798
C29	C	0.439789	0.172154	-0.079877
C30	C	0.939789	0.672154	0.420123
C31	C	0.526522	0.174475	-0.079873
C32	C	1.026522	0.674475	0.420127
C33	C	0.569876	0.175643	-0.000031
C34	C	1.069876	0.675643	0.499969
C35	C	0.396409	0.170990	-0.000038
C36	C	0.896409	0.670990	0.499962
C37	C	0.302368	0.168462	-0.000042
C38	C	0.802368	0.668462	0.499958
C39	C	0.663924	0.178168	-0.000027
C40	C	1.163924	0.678168	0.499973
C41	C	0.987851	-0.058763	-0.000033
C42	C	1.487851	0.441237	0.499967
C43	C	0.985384	-0.199678	-0.000038
C44	C	1.485384	0.300322	0.499962
C45	C	1.073264	-0.418386	0.000295
C46	C	1.573264	0.081614	0.500295
C47	C	1.075896	-0.271828	-0.000040
C48	C	1.575896	0.228172	0.499960
C49	C	0.939055	-0.243775	-0.083669
C50	C	1.439055	0.256225	0.416331
C51	C	0.937065	-0.390508	-0.083734
C52	C	1.437065	0.109492	0.416266
C53	C	0.935170	-0.390292	0.082815
C54	C	1.435170	0.109708	0.582815
C55	C	0.939463	-0.244012	0.083916
C56	C	1.439463	0.255988	0.583916
C57	C	1.135092	0.163987	-0.000038
C58	C	1.635092	0.663987	0.499962
C59	C	1.227402	0.166453	-0.000046
C60	C	1.727402	0.666453	0.499954
C61	C	0.978435	0.405396	-0.000031
C62	C	1.478435	0.905396	0.499969
C63	C	0.980902	0.546311	-0.000032
C64	C	1.480902	1.046311	0.499968
N65	N	0.983136	0.173311	0.228144
N66	N	1.483136	0.673311	0.728144
N67	N	0.983157	0.173311	-0.228205
N68	N	1.483157	0.673311	0.271795
C69	C	1.039170	0.087021	0.453865
C70	C	1.539170	0.587021	0.953865
C71	C	1.039173	0.087018	0.546055
C72	C	1.539173	0.587018	1.046055
C73	C	0.927116	0.259606	0.546067
C74	C	1.427116	0.759606	1.046067
C75	C	0.927110	0.259602	0.453879
C76	C	1.427110	0.759602	0.953879
C77	C	0.983142	0.173311	0.407780
C78	C	1.483142	0.673311	0.907780
C79	C	0.983150	0.173312	0.592158
C80	C	1.483150	0.673312	1.092158
C81	C	0.983153	0.173309	0.692114
C82	C	1.483153	0.673309	1.192114
C83	C	0.983139	0.173311	0.307818
C84	C	1.483139	0.673311	0.807818
H85	H	0.404479	0.171205	-0.144882
H86	H	0.904479	0.671205	0.355118
C87	C	0.973818	-0.448174	0.168453
C88	C	1.473818	0.051826	0.668453
N89	N	1.002937	-0.491772	0.232950
N90	N	1.502937	0.008228	0.732950
H91	H	0.881497	0.329864	0.583609
H92	H	1.381497	0.829864	1.083609
C93	C	0.392061	0.170875	0.167621
C94	C	0.892061	0.670875	0.667621
N95	N	0.356128	0.169922	0.233773
N96	N	0.856128	0.669922	0.733773
C97	C	0.865509	0.354590	0.403183
C98	C	1.365509	0.854590	0.903183
N99	N	0.819126	0.426151	0.364998
N100	N	1.319126	0.926151	0.864998
H101	H	0.561800	0.175425	0.144814
H102	H	1.061800	0.675425	0.644814
H103	H	0.869367	-0.412538	-0.087521
H104	H	1.369367	0.087462	0.412479
H105	H	1.084795	0.016751	0.583574
H106	H	1.584795	0.516751	1.083574
H107	H	1.108523	-0.460845	0.060271
H108	H	1.608523	0.039155	0.560271
C109	C	0.574236	0.175752	-0.167700
C110	C	1.074236	0.675752	0.332300
N111	N	0.610175	0.176709	-0.233849
N112	N	1.110175	0.676709	0.266151
H113	H	1.112145	-0.243002	0.059909
H114	H	1.612145	0.256998	0.559909
C115	C	1.120634	-0.477828	-0.080276
C116	C	1.620634	0.022172	0.419724
N117	N	1.156311	-0.522601	-0.140964
N118	N	1.656311	-0.022601	0.359036
H119	H	0.968733	-0.431173	-0.146252
H120	H	1.468733	0.068827	0.353748
C121	C	1.125157	-0.234148	-0.081175
C122	C	1.625157	0.265852	0.418825
N123	N	1.162261	-0.205768	-0.142292
N124	N	1.662261	0.294232	0.357708
C125	C	0.850187	-0.176459	0.090740
C126	C	1.350187	0.323541	0.590740
N127	N	0.782940	-0.125580	0.095874
N128	N	1.282940	0.374420	0.595874
C129	C	0.843367	-0.418928	0.083589
C130	C	1.343367	0.081072	0.583589
N131	N	0.774226	-0.440509	0.084167
N132	N	1.274226	0.059491	0.584167
H133	H	0.872422	-0.195436	-0.086777
H134	H	1.372422	0.304564	0.413223
H135	H	0.973174	-0.215882	0.145785
H136	H	1.473174	0.284118	0.645785
C137	C	0.982534	-0.202722	-0.167754
C138	C	1.482534	0.297278	0.332246
N139	N	1.015288	-0.171806	-0.231086
N140	N	1.515288	0.328194	0.268914
H141	H	1.084793	0.016756	0.416334
H142	H	1.584793	0.516756	0.916334
