data_functionalizedCrystal
_audit_creation_method	'MofGen! by Chris Wilmer'
_symmetry_space_group_name_H-M	'P1'
_symmetry_Int_Tables_number	1
_symmetry_cell_setting	triclinic
loop_
_symmetry_equiv_pos_as_xyz
  x,y,z
_cell_length_a	13.897448
_cell_length_b	18.215407
_cell_length_c	13.897431
_cell_angle_alpha	90.048994
_cell_angle_beta	89.924096
_cell_angle_gamma	89.986687
loop_
_atom_site_label
_atom_site_type_symbol
_atom_site_fract_x
_atom_site_fract_y
_atom_site_fract_z
Zn1	Zn	-0.383666	-1.125335	-0.545363
Zn2	Zn	-0.545115	-1.125192	-0.384064
Zn3	Zn	-0.383823	-1.002201	-0.384083
Zn4	Zn	-0.544908	-1.002249	-0.545319
O5	O	-0.464378	-1.063745	-0.464707
O6	O	-0.405103	-1.228301	-0.523976
O7	O	-0.523872	-1.108797	-0.249084
O8	O	-0.248821	-1.018575	-0.405503
O9	O	-0.523719	-1.228196	-0.405471
O10	O	-0.248705	-1.109041	-0.523995
O11	O	-0.405371	-1.018436	-0.249098
O12	O	-0.405171	-0.899223	-0.405461
O13	O	-0.523366	-1.018657	-0.680307
O14	O	-0.523519	-0.899259	-0.523920
O15	O	-0.404902	-1.109088	-0.680339
O16	O	-0.680069	-1.108844	-0.405428
O17	O	-0.679917	-1.018518	-0.523902
C18	C	-0.464340	-0.872538	-0.464688
C19	C	-0.464347	-0.790739	-0.464703
C20	C	-0.402703	-0.602599	-0.526505
C21	C	-0.402708	-0.525741	-0.526507
C22	C	-0.526038	-0.525642	-0.402917
C23	C	-0.526027	-0.602499	-0.402910
C24	C	-0.464361	-0.640976	-0.464710
C25	C	-0.464377	-0.487260	-0.464719
C26	C	-0.464383	-0.403926	-0.464721
C27	C	-0.464354	-0.724315	-0.464706
C28	C	-0.714992	-1.063691	-0.464679
C29	C	-0.822206	-1.063735	-0.464699
C30	C	-1.018501	-1.063812	-0.464760
C31	C	-0.909269	-1.063767	-0.464729
C32	C	-0.212785	-1.063819	-0.464756
C33	C	-0.105571	-1.063850	-0.464777
C34	C	-0.464094	-1.063894	-0.716301
C35	C	-0.463973	-1.063958	-0.823515
C36	C	-0.464406	-0.255697	-0.464724
C37	C	-0.464391	-0.337496	-0.464725
C38	C	-0.464591	-1.063638	-0.214092
C39	C	-0.464441	-1.063717	-0.106879
C40	C	-0.464304	-1.063793	-0.019809
C41	C	-0.464122	-1.063887	0.089423
H42	H	-0.352488	-0.633925	-0.576823
H43	H	-0.352498	-0.494498	-0.576826
H44	H	-0.576245	-0.494305	-0.352603
H45	H	-0.576238	-0.633746	-0.352584
