data_functionalizedCrystal
_audit_creation_method	'MofGen! by Chris Wilmer'
_symmetry_space_group_name_H-M	'P1'
_symmetry_Int_Tables_number	1
_symmetry_cell_setting	triclinic
loop_
_symmetry_equiv_pos_as_xyz
  x,y,z
_cell_length_a	14.519709
_cell_length_b	14.519709
_cell_length_c	14.421503
_cell_angle_alpha	89.995739
_cell_angle_beta	89.997167
_cell_angle_gamma	96.319855
loop_
_atom_site_label
_atom_site_type_symbol
_atom_site_fract_x
_atom_site_fract_y
_atom_site_fract_z
O1	O	1.223874	-0.120877	-0.076993
O2	O	1.473874	0.129123	0.173007
O3	O	1.723874	0.379123	0.423007
O4	O	1.973874	0.629123	0.673007
O5	O	0.955397	-0.135114	-0.077022
O6	O	1.205397	0.114886	0.172978
O7	O	1.455397	0.364886	0.422978
O8	O	1.705397	0.614886	0.672978
O9	O	1.096754	0.006243	-0.076998
O10	O	1.346754	0.256243	0.173002
O11	O	1.596754	0.506243	0.423002
O12	O	1.846754	0.756243	0.673002
O13	O	1.082518	-0.262234	-0.077016
O14	O	1.332518	-0.012234	0.172984
O15	O	1.582518	0.237766	0.422984
O16	O	1.832518	0.487766	0.672984
O17	O	1.096728	0.006219	0.077225
O18	O	1.346728	0.256219	0.327225
O19	O	1.596728	0.506219	0.577225
O20	O	1.846728	0.756219	0.827225
O21	O	0.955372	-0.135137	0.077202
O22	O	1.205372	0.114863	0.327202
O23	O	1.455372	0.364863	0.577202
O24	O	1.705372	0.614863	0.827202
O25	O	1.223848	-0.120901	0.077230
O26	O	1.473848	0.129099	0.327230
O27	O	1.723848	0.379099	0.577230
O28	O	1.973848	0.629099	0.827230
Cu29	Cu	1.089608	-0.128021	0.091298
Cu30	Cu	1.339608	0.121979	0.341298
Cu31	Cu	1.589608	0.371979	0.591298
Cu32	Cu	1.839608	0.621979	0.841298
Cu33	Cu	1.089638	-0.127993	-0.091089
Cu34	Cu	1.339638	0.122007	0.158911
Cu35	Cu	1.589638	0.372007	0.408911
Cu36	Cu	1.839638	0.622007	0.658911
O37	O	1.082492	-0.262258	0.077207
O38	O	1.332492	-0.012258	0.327207
O39	O	1.582492	0.237742	0.577207
O40	O	1.832492	0.487742	0.827207
C41	C	0.921025	-0.134462	0.000087
C42	C	1.171025	0.115538	0.250087
C43	C	1.421025	0.365538	0.500087
C44	C	1.671025	0.615538	0.750087
C45	C	0.818643	-0.132474	0.000076
C46	C	1.068643	0.117526	0.250076
C47	C	1.318643	0.367526	0.500076
C48	C	1.568643	0.617526	0.750076
C49	C	1.096078	0.040591	0.000114
C50	C	1.346078	0.290591	0.250114
C51	C	1.596078	0.540591	0.500114
C52	C	1.846078	0.790591	0.750114
C53	C	1.094090	0.142972	0.000114
C54	C	1.344090	0.392972	0.250114
C55	C	1.594090	0.642972	0.500114
C56	C	1.844090	0.892972	0.750114
C57	C	0.443748	-0.125154	0.000119
C58	C	0.693748	0.124846	0.250119
C59	C	0.943748	0.374846	0.500119
C60	C	1.193748	0.624846	0.750119
C61	C	0.548056	-0.127187	0.000106
C62	C	0.798056	0.122813	0.250106
C63	C	1.048056	0.372813	0.500106
C64	C	1.298056	0.622813	0.750106
C65	C	0.631192	-0.128814	0.000096
C66	C	0.881192	0.121186	0.250096
C67	C	1.131192	0.371186	0.500096
C68	C	1.381192	0.621186	0.750096
C69	C	0.735507	-0.130847	0.000086
C70	C	0.985507	0.119153	0.250086
C71	C	1.235507	0.369153	0.500086
C72	C	1.485507	0.619153	0.750086
C73	C	1.258221	-0.121553	0.000120
C74	C	1.508221	0.128447	0.250120
C75	C	1.758221	0.378447	0.500120
C76	C	2.008221	0.628447	0.750120
C77	C	1.360602	-0.123541	0.000125
C78	C	1.610602	0.126459	0.250125
C79	C	1.860602	0.376459	0.500125
C80	C	2.110602	0.626459	0.750125
N81	N	1.089593	-0.128040	0.219579
N82	N	1.339593	0.121960	0.469579
N83	N	1.589593	0.371960	0.719579
N84	N	1.839593	0.621960	0.969579
C85	C	1.083168	-0.296606	0.000093
C86	C	1.333168	-0.046606	0.250093
C87	C	1.583168	0.203394	0.500093
C88	C	1.833168	0.453394	0.750093
C89	C	1.085156	-0.398987	0.000087
C90	C	1.335156	-0.148987	0.250087
C91	C	1.585156	0.101013	0.500087
C92	C	1.835156	0.351013	0.750087
C93	C	1.086770	0.517868	0.000089
C94	C	1.336770	0.767868	0.250089
C95	C	1.586770	1.017868	0.500089
C96	C	1.836770	1.267868	0.750089
C97	C	1.088803	0.413560	0.000096
C98	C	1.338803	0.663560	0.250096
C99	C	1.588803	0.913560	0.500096
C100	C	1.838803	1.163560	0.750096
C101	C	1.090430	0.330423	0.000102
C102	C	1.340430	0.580423	0.250102
C103	C	1.590430	0.830423	0.500102
C104	C	1.840430	1.080423	0.750102
C105	C	1.092463	0.226109	0.000108
C106	C	1.342463	0.476109	0.250108
C107	C	1.592463	0.726109	0.500108
C108	C	1.842463	0.976109	0.750108
C109	C	1.024214	-0.193379	0.469222
C110	C	1.274214	0.056621	0.719222
C111	C	1.524214	0.306621	0.969222
C112	C	1.774214	0.556621	1.219222
C113	C	1.107575	-0.211417	0.531032
C114	C	1.357575	0.038583	0.781032
C115	C	1.607575	0.288583	1.031032
C116	C	1.857575	0.538583	1.281032
C117	C	1.089612	-0.128022	0.408741
C118	C	1.339612	0.121978	0.658741
C119	C	1.589612	0.371978	0.908741
C120	C	1.839612	0.621978	1.158741
C121	C	1.006270	-0.110008	0.531024
C122	C	1.256270	0.139992	0.781024
C123	C	1.506270	0.389992	1.031024
C124	C	1.756270	0.639992	1.281024
C125	C	1.089624	-0.128006	0.591462
C126	C	1.339624	0.121994	0.841462
C127	C	1.589624	0.371994	1.091462
C128	C	1.839624	0.621994	1.341462
C129	C	1.173015	-0.146102	0.469190
C130	C	1.423015	0.103898	0.719190
C131	C	1.673015	0.353898	0.969190
C132	C	1.923015	0.603898	1.219190
C133	C	1.071655	-0.044657	0.469177
C134	C	1.321655	0.205343	0.719177
C135	C	1.571655	0.455343	0.969177
C136	C	1.821655	0.705343	1.219177
C137	C	1.155077	-0.062660	0.530959
C138	C	1.405077	0.187340	0.780959
C139	C	1.655077	0.437340	1.030959
C140	C	1.905077	0.687340	1.280959
C141	C	1.089604	-0.128033	0.303480
C142	C	1.339604	0.121967	0.553480
C143	C	1.589604	0.371967	0.803480
C144	C	1.839604	0.621967	1.053480
C145	C	1.089641	-0.127994	0.696721
C146	C	1.339641	0.122006	0.946721
C147	C	1.589641	0.372006	1.196721
C148	C	1.839641	0.622006	1.446721
N149	N	1.089644	-0.127984	0.780630
N150	N	1.339644	0.122016	1.030630
N151	N	1.589644	0.372016	1.280630
N152	N	1.839644	0.622016	1.530630
H153	H	0.968966	-0.248692	0.442115
H154	H	1.218966	0.001308	0.692115
H155	H	1.468966	0.251308	0.942115
H156	H	1.718966	0.501308	1.192115
H157	H	1.122775	-0.281910	0.558202
H158	H	1.372775	-0.031910	0.808202
H159	H	1.622775	0.218090	1.058202
H160	H	1.872775	0.468090	1.308202
N161	N	1.261468	-0.165310	0.435286
N162	N	1.511468	0.084690	0.685286
N163	N	1.761468	0.334690	0.935286
N164	N	2.011468	0.584690	1.185286
N165	N	1.332618	-0.112769	0.455699
N166	N	1.582618	0.137231	0.705699
N167	N	1.832618	0.387231	0.955699
N168	N	2.082618	0.637231	1.205699
H169	H	1.395087	-0.126338	0.431755
H170	H	1.645087	0.123662	0.681755
H171	H	1.895087	0.373662	0.931755
H172	H	2.145087	0.623662	1.181755
H173	H	1.210447	-0.007379	0.557896
H174	H	1.460447	0.242621	0.807896
H175	H	1.710447	0.492621	1.057896
H176	H	1.960447	0.742621	1.307896
N177	N	1.052548	0.043749	0.435073
N178	N	1.302548	0.293749	0.685073
N179	N	1.552548	0.543749	0.935073
N180	N	1.802548	0.793749	1.185073
N181	N	0.977675	0.074073	0.454849
N182	N	1.227675	0.324073	0.704849
N183	N	1.477675	0.574073	0.954849
N184	N	1.727675	0.824073	1.204849
H185	H	0.964170	0.136511	0.430763
H186	H	1.214170	0.386511	0.680763
H187	H	1.464170	0.636511	0.930763
H188	H	1.714170	0.886511	1.180763
H189	H	0.935784	-0.094780	0.558188
H190	H	1.185784	0.155220	0.808188
H191	H	1.435784	0.405220	1.058188
H192	H	1.685784	0.655220	1.308188
