data_functionalizedCrystal
_audit_creation_method	'MofGen! by Chris Wilmer'
_symmetry_space_group_name_H-M	'P1'
_symmetry_Int_Tables_number	1
_symmetry_cell_setting	triclinic
loop_
_symmetry_equiv_pos_as_xyz
  x,y,z
_cell_length_a	27.732048
_cell_length_b	26.210047
_cell_length_c	27.732048
_cell_angle_alpha	89.975290
_cell_angle_beta	97.357345
_cell_angle_gamma	90.015477
loop_
_atom_site_label
_atom_site_type_symbol
_atom_site_fract_x
_atom_site_fract_y
_atom_site_fract_z
O1	O	0.640937	0.042369	-0.057526
O2	O	0.500144	0.042385	-0.066272
O3	O	0.574913	0.042367	0.008498
O4	O	0.566168	0.042387	-0.132296
O5	O	0.574886	-0.042491	0.008518
O6	O	0.500117	-0.042473	-0.066251
O7	O	0.640910	-0.042489	-0.057506
Cu8	Cu	0.570511	-0.050229	-0.061876
Cu9	Cu	0.570543	0.050125	-0.061901
O10	O	0.566141	-0.042471	-0.132275
C11	C	0.482124	-0.000042	-0.066078
C12	C	0.428469	-0.000036	-0.065525
N13	N	0.570492	-0.120813	-0.061859
C14	C	0.574716	-0.000064	0.026515
C15	C	0.574164	-0.000068	0.080170
C16	C	0.089654	-0.000053	-0.106229
C17	C	-0.112006	-0.000057	-0.104178
O18	O	-0.143262	-0.000074	-0.141398
N19	N	-0.131130	-0.000063	-0.059843
C20	C	-0.099835	-0.000071	-0.016017
O21	O	-0.120728	-0.000081	0.021740
C22	C	0.101824	-0.000069	-0.018068
C23	C	0.120944	-0.000059	-0.062407
C24	C	0.108775	-0.000043	-0.150563
C25	C	0.159187	-0.000039	-0.151075
C26	C	0.190477	-0.000045	-0.107253
C27	C	0.171356	-0.000055	-0.062919
C28	C	0.133117	-0.000081	0.025757
C29	C	0.183534	-0.000082	0.025240
C30	C	0.202655	-0.000071	-0.019098
C31	C	0.253059	-0.000057	-0.019609
N32	N	0.272183	-0.000051	-0.063944
C33	C	0.240892	-0.000045	-0.107766
C34	C	-0.205709	-0.000070	-0.014943
C35	C	-0.256124	-0.000070	-0.014430
C36	C	-0.268291	-0.000057	-0.102591
C37	C	-0.217876	-0.000054	-0.103103
C38	C	-0.186585	-0.000065	-0.059278
C39	C	0.346761	-0.000036	-0.108839
C40	C	0.397178	-0.000030	-0.109347
C41	C	0.409341	-0.000045	-0.021186
C42	C	0.358929	-0.000049	-0.020678
C43	C	0.327639	-0.000046	-0.064508
O44	O	0.284343	-0.000046	0.017592
O45	O	0.261794	-0.000047	-0.145518
C46	C	0.039242	-0.000057	-0.105716
C47	C	0.020120	-0.000067	-0.061382
C48	C	0.051411	-0.000073	-0.017560
C49	C	-0.030294	-0.000066	-0.060869
C50	C	-0.061585	-0.000060	-0.104691
C51	C	-0.042461	-0.000054	-0.149026
C52	C	0.007951	-0.000050	-0.149539
C53	C	0.032287	-0.000078	0.026775
C54	C	-0.018125	-0.000082	0.027284
C55	C	-0.049416	-0.000076	-0.016538
C56	C	0.658931	-0.000061	-0.057699
C57	C	0.712586	-0.000064	-0.058252
C58	C	0.541439	-0.526792	-0.032762
C59	C	0.541418	-0.313133	-0.032750
O60	O	0.516686	-0.285524	-0.007973
N61	N	0.570510	-0.286397	-0.061865
C62	C	0.599613	-0.313079	-0.090983
O63	O	0.624361	-0.285436	-0.115743
C64	C	0.599636	-0.526737	-0.090992
C65	C	0.570538	-0.553470	-0.061879
C66	C	0.512344	-0.553525	-0.003651
C67	C	0.512348	-0.606937	-0.003656
C68	C	0.541446	-0.633615	-0.032773
C69	C	0.570542	-0.606881	-0.061884
C70	C	0.628741	-0.553418	-0.120107
C71	C	0.628745	-0.606835	-0.120106
C72	C	0.599647	-0.633569	-0.090993
C73	C	0.599644	-0.686971	-0.091006
N74	N	0.570552	-0.713707	-0.061891
C75	C	0.541453	-0.687029	-0.032775
C76	C	0.599598	-0.200906	-0.090977
C77	C	0.599591	-0.147492	-0.090976
C78	C	0.541397	-0.147549	-0.032742
C79	C	0.541401	-0.200965	-0.032746
C80	C	0.570505	-0.227642	-0.061862
C81	C	0.541462	-0.799197	-0.032788
C82	C	0.541467	-0.852613	-0.032798
C83	C	0.599663	-0.852550	-0.091029
C84	C	0.599657	-0.799139	-0.091022
C85	C	0.570555	-0.772463	-0.061898
O86	O	0.624367	-0.714613	-0.115767
O87	O	0.516717	-0.714681	-0.008010
C88	C	0.541436	-0.473380	-0.032757
C89	C	0.570531	-0.446647	-0.061869
C90	C	0.599630	-0.473325	-0.090985
C91	C	0.570524	-0.393233	-0.061867
C92	C	0.541426	-0.366555	-0.032750
C93	C	0.512333	-0.393291	-0.003635
C94	C	0.512337	-0.446702	-0.003640
C95	C	0.628722	-0.446589	-0.120100
C96	C	0.628716	-0.393178	-0.120093
C97	C	0.599617	-0.366499	-0.090976
N98	N	0.570566	0.120709	-0.061914
C99	C	0.566338	-0.000040	-0.150292
C100	C	0.566891	-0.000032	-0.203947
C101	C	0.614867	-0.000046	0.418985
C102	C	0.612816	-0.000039	0.620645
O103	O	0.650037	-0.000021	0.651900
N104	N	0.568481	-0.000034	0.639768
C105	C	0.524656	-0.000028	0.608474
O106	O	0.486899	-0.000019	0.629367
C107	C	0.526707	-0.000032	0.406815
C108	C	0.571045	-0.000042	0.387694
C109	C	0.659202	-0.000056	0.399864
C110	C	0.659714	-0.000060	0.349452
C111	C	0.615892	-0.000056	0.318161
C112	C	0.571557	-0.000046	0.337282
C113	C	0.482882	-0.000022	0.375521
C114	C	0.483399	-0.000022	0.325104
C115	C	0.527737	-0.000032	0.305983
C116	C	0.528247	-0.000046	0.255580
N117	N	0.572583	-0.000051	0.236456
C118	C	0.616405	-0.000056	0.267747
C119	C	0.523582	-0.000027	0.714348
C120	C	0.523069	-0.000027	0.764762
C121	C	0.611230	-0.000037	0.776930
C122	C	0.611742	-0.000041	0.726514
C123	C	0.567917	-0.000032	0.695224
C124	C	0.617477	-0.000066	0.161878
C125	C	0.617986	-0.000073	0.111461
C126	C	0.529825	-0.000060	0.099298
C127	C	0.529316	-0.000056	0.149710
C128	C	0.573146	-0.000057	0.180999
O129	O	0.491047	-0.000059	0.224296
O130	O	0.654156	-0.000054	0.246844
C131	C	0.614355	-0.000042	0.469397
C132	C	0.570021	-0.000033	0.488518
C133	C	0.526198	-0.000028	0.457228
C134	C	0.569508	-0.000033	0.538933
C135	C	0.613330	-0.000037	0.570223
C136	C	0.657665	-0.000042	0.551100
C137	C	0.658177	-0.000046	0.500688
C138	C	0.481863	-0.000023	0.476351
C139	C	0.481355	-0.000019	0.526764
C140	C	0.525177	-0.000024	0.558054
H141	H	0.412743	-0.000021	-0.145454
Br142	Br	0.718683	-0.000062	0.442321
H143	H	0.653168	-0.000065	0.187348
Br144	Br	0.066317	-0.000034	-0.210045
Br145	Br	0.225997	-0.000098	0.084721
Br146	Br	0.462893	-0.000026	0.790705
Br147	Br	-0.163250	-0.000084	0.044540
Br148	Br	0.107181	-0.000084	0.085934
H149	H	0.343360	-0.000050	0.015426
Br150	Br	0.670702	-0.000042	0.819405
Br151	Br	0.501910	-0.237240	0.006766
H152	H	-0.202311	-0.000049	-0.139207
Br153	Br	-0.282067	-0.000069	0.045745
Br154	Br	0.717137	-0.000052	0.593575
H155	H	-0.067947	-0.000047	-0.184708
Br156	Br	0.421176	-0.000010	0.552706
Br157	Br	-0.044068	-0.000088	0.087463
Br158	Br	0.422384	-0.000015	0.433892
H159	H	0.487892	-0.000020	0.688875
H160	H	0.174750	-0.000030	-0.187180
Br161	Br	0.423918	-0.000008	0.282641
Br162	Br	0.668218	-0.482787	-0.159620
H163	H	0.517765	-0.777484	-0.009073
H164	H	0.488648	-0.531809	0.020062
H165	H	-0.293777	-0.000053	-0.138273
Br166	Br	0.472857	-0.643209	0.035858
H167	H	0.517702	-0.125819	-0.009035
H168	H	0.434827	-0.000048	0.014492
Br169	Br	0.639071	-0.111217	-0.130500
H170	H	0.647846	-0.000048	0.710950
H171	H	0.694282	-0.000054	0.485125
Br172	Br	0.501972	-0.888891	0.006713
Br173	Br	0.472839	-0.357074	0.035877
Br174	Br	0.639098	-0.237103	-0.130497
H175	H	0.446777	-0.000011	0.391080
Br176	Br	0.668248	-0.643037	-0.159620
Br177	Br	0.639153	-0.762857	-0.130527
H178	H	0.623354	-0.874281	-0.114737
H179	H	0.023514	-0.000042	-0.185643
Br180	Br	0.719890	-0.000059	0.323510
H181	H	0.493213	-0.000062	0.165279
Br182	Br	0.668202	-0.356903	-0.159616
Br183	Br	0.472843	-0.482975	0.035872
H184	H	0.654093	-0.000082	0.095896
Br185	Br	0.470355	-0.000054	0.056822
H186	H	0.321291	-0.000036	-0.144529
H187	H	0.057760	-0.000085	0.062462
H188	H	0.652437	-0.531660	-0.143814
