data_functionalizedCrystal
_audit_creation_method	'MofGen! by Chris Wilmer'
_symmetry_space_group_name_H-M	'P1'
_symmetry_Int_Tables_number	1
_symmetry_cell_setting	triclinic
loop_
_symmetry_equiv_pos_as_xyz
  x,y,z
_cell_length_a	16.959455
_cell_length_b	25.639240
_cell_length_c	25.639234
_cell_angle_alpha	89.971713
_cell_angle_beta	89.984076
_cell_angle_gamma	90.029777
loop_
_atom_site_label
_atom_site_type_symbol
_atom_site_fract_x
_atom_site_fract_y
_atom_site_fract_z
Zn1	Zn	1.208279	-0.208244	-0.295663
Zn2	Zn	1.208183	-0.295666	-0.208216
Zn3	Zn	1.076118	-0.208242	-0.208233
Zn4	Zn	1.076043	-0.295645	-0.295612
O5	O	1.142156	-0.251949	-0.251931
O6	O	1.318877	-0.219850	-0.284077
O7	O	1.190655	-0.284077	-0.135053
O8	O	1.093721	-0.135077	-0.219859
O9	O	1.318807	-0.284079	-0.219830
O10	O	1.190820	-0.135078	-0.284093
O11	O	1.093628	-0.219847	-0.135065
O12	O	0.965497	-0.219827	-0.219809
O13	O	1.093594	-0.284044	-0.368784
O14	O	0.965442	-0.284042	-0.284006
O15	O	1.190747	-0.219830	-0.368821
O16	O	1.190583	-0.368829	-0.219781
O17	O	1.093500	-0.368813	-0.283990
C18	C	0.936790	-0.251932	-0.251904
C19	C	0.848933	-0.251938	-0.251905
C20	C	0.477410	-0.285360	-0.218460
C21	C	0.477505	-0.218582	-0.285465
C22	C	0.560051	-0.218573	-0.285452
C23	C	0.601280	-0.251959	-0.251943
C24	C	0.559963	-0.285354	-0.218448
C25	C	0.601374	-0.185183	-0.318951
C26	C	0.683925	-0.185174	-0.318940
C27	C	0.725155	-0.218557	-0.285428
C28	C	0.683834	-0.251953	-0.251931
C29	C	0.725063	-0.285339	-0.218422
C30	C	0.683743	-0.318732	-0.184922
C31	C	0.601194	-0.318737	-0.184936
C32	C	0.807704	-0.218552	-0.285414
C33	C	0.807616	-0.285332	-0.218410
C34	C	1.142044	-0.387792	-0.251890
C35	C	1.142069	-0.445906	-0.251890
C36	C	1.192740	-0.806231	-0.285438
C37	C	1.192763	-0.860836	-0.285449
O38	O	1.235713	-0.889040	-0.313930
N39	N	1.142266	-0.888188	-0.251981
C40	C	1.091735	-0.860934	-0.218505
O41	O	1.048785	-0.889214	-0.190040
C42	C	1.091709	-0.806331	-0.218497
C43	C	1.142216	-0.778981	-0.251963
C44	C	1.243242	-0.778881	-0.318901
C45	C	1.243220	-0.724281	-0.318890
C46	C	1.192695	-0.697030	-0.285415
C47	C	1.142193	-0.724380	-0.251952
C48	C	1.041175	-0.779078	-0.185024
C49	C	1.041152	-0.724471	-0.185019
C50	C	1.091659	-0.697121	-0.218485
C51	C	1.091646	-0.642529	-0.218465
N52	N	1.142144	-0.615176	-0.251933
C53	C	1.192668	-0.642427	-0.285407
C54	C	1.091794	-0.975605	-0.218524
C55	C	1.091825	-1.030207	-0.218529
C56	C	1.192852	-1.030105	-0.285473
C57	C	1.192825	-0.975501	-0.285466
C58	C	1.142292	-0.948252	-0.251991
C59	C	1.192618	-0.527762	-0.285381
C60	C	1.192593	-0.473156	-0.285365
C61	C	1.091564	-0.473264	-0.218422
C62	C	1.091591	-0.527864	-0.218436
C63	C	1.142121	-0.555112	-0.251919
O64	O	1.048716	-0.614290	-0.189999
O65	O	1.235605	-0.614140	-0.313873
C66	C	1.348324	-0.251967	-0.251957
C67	C	1.436181	-0.251974	-0.251969
C68	C	1.142173	-0.251935	-0.388304
C69	C	1.142180	-0.251928	-0.446418
C70	C	1.142290	-0.115576	-0.251983
C71	C	1.142347	-0.057462	-0.252006
C72	C	1.091645	-0.285299	-0.697586
C73	C	1.091631	-0.285310	-0.642982
O74	O	1.048589	-0.313735	-0.614724
N75	N	1.142210	-0.251886	-0.615692
C76	C	1.192801	-0.218444	-0.643009
O77	O	1.235820	-0.190015	-0.614783
C78	C	1.192810	-0.218430	-0.697612
C79	C	1.142233	-0.251860	-0.724899
C80	C	1.041072	-0.318726	-0.724874
C81	C	1.041087	-0.318714	-0.779474
C82	C	1.091675	-0.285276	-0.806787
C83	C	1.142248	-0.251849	-0.779500
C84	C	1.243396	-0.184986	-0.724928
C85	C	1.243400	-0.184974	-0.779535
C86	C	1.192824	-0.218405	-0.806823
C87	C	1.192852	-0.218400	-0.861414
N88	N	1.142273	-0.251824	-0.888704
C89	C	1.091684	-0.285262	-0.861391
C90	C	1.192776	-0.218475	-0.528338
C91	C	1.192772	-0.218492	-0.473736
C92	C	1.091601	-0.285357	-0.473713
C93	C	1.091610	-0.285343	-0.528316
C94	C	1.142197	-0.251900	-0.555628
C95	C	1.091720	-0.285236	-0.976056
C96	C	1.091742	-0.285224	-1.030661
C97	C	1.192910	-0.218356	-1.030680
C98	C	1.192891	-0.218371	-0.976079
C99	C	1.142290	-0.251812	-0.948768
O100	O	1.235870	-0.189988	-0.889707
O101	O	1.048665	-0.313682	-0.889624
C102	C	1.142185	-0.251926	-0.116088
C103	C	1.142331	-0.251785	-0.057974
H104	H	0.717561	-0.157983	-0.346218
Br105	Br	0.545113	-0.364053	-0.139476
H106	H	1.050509	-0.312463	-0.953826
H107	H	1.050408	-0.312584	-0.451464
H108	H	1.233725	-0.450890	-0.312616
Br109	Br	0.863778	-0.173240	-0.330879
Br110	Br	0.972444	-0.364087	-0.816498
Br111	Br	0.972567	-0.687492	-0.139588
H112	H	0.999872	-0.345955	-0.702641
H113	H	1.000047	-0.801337	-0.157772
H114	H	0.443763	-0.312547	-0.191184
H115	H	1.284581	-0.157764	-0.702720
H116	H	1.233759	-0.549940	-0.312649
Br117	Br	1.023290	-1.067318	-0.173100
H118	H	1.050425	-0.312565	-0.550530
H119	H	1.050470	-0.550134	-0.191181
H120	H	1.050429	-0.451068	-0.191166
H121	H	1.050556	-0.312449	-1.052876
H122	H	1.233990	-1.052302	-0.312731
H123	H	1.233965	-0.191275	-0.451523
H124	H	1.284344	-0.702015	-0.346142
Br125	Br	0.421551	-0.173282	-0.330945
H126	H	1.233977	-0.191242	-0.550573
Br127	Br	0.545417	-0.139886	-0.364432
H128	H	1.284385	-0.801063	-0.346164
H129	H	1.284592	-0.157737	-0.801770
Br130	Br	1.261543	-0.173008	-0.939045
H131	H	1.234100	-0.191133	-1.052928
H132	H	0.841179	-0.312518	-0.191121
Br133	Br	0.739706	-0.364045	-0.139453
H134	H	1.050647	-0.953421	-0.191261
H135	H	1.233951	-0.953236	-0.312716
