data_functionalizedCrystal
_audit_creation_method	'MofGen! by Chris Wilmer'
_symmetry_space_group_name_H-M	'P1'
_symmetry_Int_Tables_number	1
_symmetry_cell_setting	triclinic
loop_
_symmetry_equiv_pos_as_xyz
  x,y,z
_cell_length_a	8.634740
_cell_length_b	14.519731
_cell_length_c	7.681481
_cell_angle_alpha	84.245782
_cell_angle_beta	96.618670
_cell_angle_gamma	92.129580
loop_
_atom_site_label
_atom_site_type_symbol
_atom_site_fract_x
_atom_site_fract_y
_atom_site_fract_z
O1	O	2.032368	0.308193	-0.146450
O2	O	1.583343	0.282973	-0.146450
O3	O	1.819745	0.162390	-0.146434
O4	O	1.795966	0.428776	-0.146466
O5	O	1.848842	0.147508	0.146426
O6	O	1.612440	0.268092	0.146410
O7	O	2.061465	0.293311	0.146410
Zn8	Zn	1.841572	0.278339	0.192908
Zn9	Zn	1.803236	0.297946	-0.192948
O10	O	1.825063	0.413895	0.146394
C11	C	1.540425	0.269819	-0.000020
C12	C	1.369193	0.252785	-0.000020
C13	C	1.833180	0.120492	-0.000004
C14	C	1.829842	0.017818	-0.000003
C15	C	1.827129	-0.065564	-0.000007
C16	C	1.823738	-0.170170	-0.000020
C17	C	1.821046	-0.253545	-0.000031
C18	C	1.817656	-0.358158	-0.000042
C19	C	2.104383	0.306465	-0.000024
C20	C	2.275614	0.323500	-0.000036
C21	C	1.811628	0.455793	-0.000040
C22	C	1.814965	0.558467	-0.000053
N23	N	1.867747	0.264958	0.456244
N24	N	1.777073	0.311320	-0.456284
H25	H	1.684513	0.358641	0.468513
H26	H	1.326497	0.397074	-0.000028
C27	C	1.992806	0.201031	0.557828
H28	H	2.047079	0.173287	0.476643
H29	H	1.944219	0.154103	0.629769
H30	H	2.064294	0.236275	0.629724
C31	C	1.300459	0.153386	-0.000025
H32	H	1.190525	0.154590	-0.000049
H33	H	1.344354	0.116931	0.102102
H34	H	1.324073	0.127323	-0.102164
