data_functionalizedCrystal
_audit_creation_method	'MofGen! by Chris Wilmer'
_symmetry_space_group_name_H-M	'P1'
_symmetry_Int_Tables_number	1
_symmetry_cell_setting	triclinic
loop_
_symmetry_equiv_pos_as_xyz
  x,y,z
_cell_length_a	14.853566
_cell_length_b	14.853567
_cell_length_c	9.730223
_cell_angle_alpha	90.002458
_cell_angle_beta	90.002641
_cell_angle_gamma	83.634672
loop_
_atom_site_label
_atom_site_type_symbol
_atom_site_fract_x
_atom_site_fract_y
_atom_site_fract_z
O1	O	1.196360	0.117695	-0.114187
O2	O	0.933901	0.131717	-0.114208
O3	O	1.072141	-0.006524	-0.114201
O4	O	1.058120	0.255936	-0.114194
O5	O	1.072140	-0.006520	0.114379
O6	O	0.933899	0.131721	0.114371
O7	O	1.196359	0.117698	0.114393
Zn8	Zn	1.065129	0.124710	0.150674
Zn9	Zn	1.065131	0.124706	-0.150490
O10	O	1.058118	0.255939	0.114386
C11	C	0.900311	0.131084	0.000079
C12	C	0.800227	0.129181	0.000070
C13	C	0.377043	0.121128	-0.124505
C14	C	0.377063	0.121132	0.124702
C15	C	0.471097	0.122920	0.124697
C16	C	0.518108	0.123813	0.000090
C17	C	0.471086	0.122918	-0.124513
C18	C	0.518126	0.123824	0.249298
C19	C	0.612165	0.125612	0.249299
C20	C	0.659179	0.126499	0.124690
C21	C	0.612151	0.125603	0.000082
C22	C	0.659162	0.126496	-0.124525
C23	C	0.612136	0.125594	-0.249135
C24	C	0.518100	0.123805	-0.249122
C25	C	0.753216	0.128288	0.124677
C26	C	0.753205	0.128286	-0.124533
C27	C	1.071505	-0.040111	0.000084
C28	C	1.069601	-0.140194	0.000072
C29	C	0.979435	-0.552728	0.000091
C30	C	1.143668	-0.574009	0.000104
C31	C	1.145458	-0.479976	0.000097
C32	C	1.064236	-0.422313	0.000088
C33	C	0.981223	-0.458685	0.000087
C34	C	1.228470	-0.443597	0.000111
C35	C	1.230263	-0.349558	0.000105
C36	C	1.149040	-0.291894	0.000086
C37	C	1.066023	-0.328271	0.000084
C38	C	0.984801	-0.270608	0.000076
C39	C	0.901784	-0.306984	0.000064
C40	C	0.899999	-0.401021	0.000069
C41	C	1.150824	-0.197856	0.000081
C42	C	0.986588	-0.176566	0.000072
C43	C	1.229948	0.118332	0.000103
C44	C	1.330032	0.120235	0.000102
C45	C	1.058754	0.289526	0.000097
C46	C	1.060658	0.389610	0.000100
N47	N	1.065134	0.124713	0.356210
N48	N	1.065133	0.124696	-0.356026
C49	C	1.126362	0.063520	0.428140
C50	C	1.126360	0.063509	0.572023
C51	C	1.003898	0.185891	0.572035
C52	C	1.003896	0.185897	0.428154
C53	C	1.197068	-0.007134	0.428134
C54	C	1.197065	-0.007144	0.572017
H55	H	0.338780	0.120412	0.226151
H56	H	1.175649	-0.072468	0.616628
H57	H	0.954032	0.235717	0.369591
H58	H	1.182191	-0.076317	0.389076
Cl59	Cl	0.812298	0.129402	-0.281192
H60	H	0.832411	-0.430646	0.000061
Cl61	Cl	0.812329	0.129428	0.281316
Cl62	Cl	1.303854	0.015899	0.632329
H63	H	1.262363	0.014337	0.383514
Cl64	Cl	0.884473	-0.104083	0.000050
H65	H	0.911845	-0.582349	0.000076
Cl66	Cl	0.671247	0.126723	-0.405778
H67	H	0.835653	-0.260023	0.000066
Cl68	Cl	1.245771	-0.646499	0.000138
H69	H	0.479803	0.123069	-0.350572
H70	H	0.954039	0.235705	0.630627
H71	H	0.338751	0.120390	-0.225959
Cl72	Cl	0.459021	0.122712	0.405936
H73	H	1.294597	-0.490552	0.000131
H74	H	0.650446	0.126345	0.350764
H75	H	1.297861	-0.319950	0.000113
H76	H	1.218415	-0.168244	0.000100
