data_functionalizedCrystal
_audit_creation_method	'MofGen! by Chris Wilmer'
_symmetry_space_group_name_H-M	'P1'
_symmetry_Int_Tables_number	1
_symmetry_cell_setting	triclinic
loop_
_symmetry_equiv_pos_as_xyz
  x,y,z
_cell_length_a	6.817900
_cell_length_b	19.551823
_cell_length_c	10.773894
_cell_angle_alpha	96.640095
_cell_angle_beta	96.645922
_cell_angle_gamma	101.663376
loop_
_atom_site_label
_atom_site_type_symbol
_atom_site_fract_x
_atom_site_fract_y
_atom_site_fract_z
V1	V	-3.940090	-0.094103	-0.389512
O2	O	-3.938613	0.007164	-0.381497
O3	O	-3.883197	-0.189132	-0.387425
O4	O	-3.857996	-0.091497	-0.559128
O5	O	-3.963989	-0.091148	-0.208605
V6	V	-4.429184	-0.082128	-0.367804
O7	O	-4.189127	-0.120373	-0.437130
O8	O	-4.630344	-0.055858	-0.320186
O9	O	-4.262870	0.012901	-0.369891
O10	O	-4.548057	-0.183395	-0.375819
O11	O	-4.522681	-0.085084	-0.548710
O12	O	-4.288072	-0.084734	-0.198188
C13	C	-3.727222	-0.212335	-0.381429
C14	C	-3.761768	-0.290015	-0.380854
C15	C	-3.695074	-0.087790	-0.600452
C16	C	-3.709181	-0.086287	-0.739118
C17	C	-3.958524	-0.330021	-0.386821
C18	C	-3.990985	-0.403011	-0.386293
C19	C	-3.826676	-0.435989	-0.379772
C20	C	-3.629893	-0.395974	-0.373811
C21	C	-3.597439	-0.322987	-0.374352
C22	C	-3.729160	-0.542999	-0.300672
C23	C	-3.761620	-0.615984	-0.300124
C24	C	-3.926768	-0.661106	-0.378109
C25	C	-4.059484	-0.633232	-0.456628
C26	C	-4.027030	-0.560245	-0.457169
C27	C	-3.861847	-0.515131	-0.379186
C28	C	-4.158736	-0.780256	-0.383506
C29	C	-4.191192	-0.853248	-0.382986
C30	C	-3.830092	-0.846208	-0.370491
C31	C	-3.797643	-0.773219	-0.371024
C32	C	-3.961972	-0.740247	-0.377526
C33	C	-3.887023	-0.088891	-0.806996
C34	C	-3.901606	-0.087338	-0.950315
C35	C	-4.082187	0.036100	-0.375883
C36	C	-4.026878	0.113779	-0.376467
C37	C	-4.114336	-0.088444	-0.156857
C38	C	-4.079469	-0.089943	-0.018190
H39	H	-4.092338	-0.303180	-0.392124
H40	H	-3.567718	-0.082903	-0.787107
H41	H	-4.351419	-0.885821	-0.387853
Cl42	Cl	-3.594801	-0.651016	-0.201398
H43	H	-4.151213	-0.435590	-0.391152
H44	H	-4.028481	-0.092266	-0.759005
Cl45	Cl	-3.683173	-0.082116	-1.024390
H46	H	-4.135090	-0.537554	-0.521103
Cl47	Cl	-4.267112	-0.689949	-0.554671
H48	H	-4.220945	-0.093325	-0.970208
Cl49	Cl	-3.521522	-0.486282	-0.202630
H50	H	-4.292542	-0.753409	-0.388798
H51	H	-3.696308	-0.873059	-0.365189
Cl52	Cl	-3.350068	-0.272690	-0.366847
H53	H	-3.637423	-0.740645	-0.366157
H54	H	-3.496114	-0.422830	-0.368505
