data_functionalizedCrystal
_audit_creation_method	'MofGen! by Chris Wilmer'
_symmetry_space_group_name_H-M	'P1'
_symmetry_Int_Tables_number	1
_symmetry_cell_setting	triclinic
loop_
_symmetry_equiv_pos_as_xyz
  x,y,z
_cell_length_a	8.559649
_cell_length_b	15.072220
_cell_length_c	8.559649
_cell_angle_alpha	90.000498
_cell_angle_beta	69.778664
_cell_angle_gamma	90.011665
loop_
_atom_site_label
_atom_site_type_symbol
_atom_site_fract_x
_atom_site_fract_y
_atom_site_fract_z
O1	O	2.126903	0.073769	-0.055048
O2	O	1.651418	0.073772	0.028733
O3	O	1.931051	0.073769	-0.250900
O4	O	1.847270	0.073772	0.224585
O5	O	1.930988	-0.073796	-0.250879
O6	O	1.651355	-0.073793	0.028754
O7	O	2.126840	-0.073797	-0.055027
Zn8	Zn	1.889087	-0.097224	-0.013133
Zn9	Zn	1.889170	0.097199	-0.013161
O10	O	1.847207	-0.073794	0.224606
C11	C	1.591077	-0.000010	0.035093
C12	C	1.411378	-0.000009	0.053992
N13	N	1.889042	-0.229913	-0.013116
C14	C	1.889168	-0.589114	-0.013167
C15	C	1.739149	-0.551506	0.136067
C16	C	1.739396	-0.448680	0.136514
C17	C	1.889104	-0.410910	-0.013141
C18	C	2.053837	-0.448203	0.003058
C19	C	2.052972	-0.551060	0.004094
C20	C	1.876011	-0.551215	-0.179179
C21	C	1.871988	-0.448352	-0.177568
C22	C	1.889079	-0.310197	-0.013132
C23	C	1.889204	-0.689828	-0.013175
C24	C	2.187180	-0.000012	-0.061387
C25	C	2.366879	-0.000008	-0.080286
C26	C	1.937369	-0.000012	-0.311198
C27	C	1.956268	-0.000007	-0.490898
N28	N	1.889230	0.229888	-0.013192
C29	C	1.840889	-0.000011	0.284904
C30	C	1.821990	-0.000010	0.464604
H31	H	1.466258	-0.000004	-0.209705
F32	F	1.747497	-0.416503	0.298126
F33	F	2.125442	-0.000019	-0.620799
H34	H	1.985656	-0.575535	-0.289990
H35	H	1.616278	-0.423468	0.129927
F36	F	2.072271	-0.582408	0.161513
H37	H	1.750914	-0.423979	-0.190345
H38	H	1.311990	-0.000003	0.183420
H39	H	1.745176	-0.577344	0.259020
F40	F	1.577627	-0.583852	0.127979
H41	H	2.167275	-0.423735	-0.103614
F42	F	2.201763	-0.583578	-0.134098
F43	F	2.074307	-0.414521	0.158512
H44	H	1.759623	-0.577205	-0.199912
F45	F	2.007628	-0.414760	-0.327425
F46	F	1.652825	-0.000011	-0.405504
