data_functionalizedCrystal
_audit_creation_method	'MofGen! by Chris Wilmer'
_symmetry_space_group_name_H-M	'P1'
_symmetry_Int_Tables_number	1
_symmetry_cell_setting	triclinic
loop_
_symmetry_equiv_pos_as_xyz
  x,y,z
_cell_length_a	19.188930
_cell_length_b	19.188930
_cell_length_c	18.266242
_cell_angle_alpha	90.011475
_cell_angle_beta	89.977082
_cell_angle_gamma	96.855221
loop_
_atom_site_label
_atom_site_type_symbol
_atom_site_fract_x
_atom_site_fract_y
_atom_site_fract_z
O1	O	0.926149	-0.087169	-0.061124
O2	O	0.722838	-0.098903	-0.061075
O3	O	0.830361	0.008620	-0.061087
O4	O	0.818627	-0.194691	-0.061113
O5	O	0.830343	0.008625	0.060675
O6	O	0.722820	-0.098897	0.060687
O7	O	0.926131	-0.087163	0.060638
Zn8	Zn	0.824473	-0.093029	0.079994
Zn9	Zn	0.824497	-0.093037	-0.080432
O10	O	0.818608	-0.194686	0.060649
C11	C	0.696818	-0.098520	-0.000188
C12	C	0.619313	-0.097380	-0.000169
C13	C	0.829972	0.034634	-0.000204
C14	C	0.828831	0.112138	-0.000197
C15	C	0.574389	-0.160470	-0.000188
C16	C	0.501566	-0.159399	-0.000196
C17	C	0.473669	-0.095233	-0.000199
C18	C	0.518603	-0.032133	-0.000175
C19	C	0.591425	-0.033207	-0.000160
N20	N	0.365695	-0.046188	-0.041663
N21	N	0.296516	-0.045172	-0.041679
C22	C	0.254260	-0.091994	-0.000243
N23	N	0.283795	-0.139881	0.041200
N24	N	0.352980	-0.140899	0.041213
C25	C	0.394707	-0.094062	-0.000215
C26	C	0.130372	-0.153928	-0.000270
C27	C	0.057547	-0.152853	-0.000274
C28	C	0.074586	-0.025586	-0.000261
C29	C	0.147409	-0.026662	-0.000250
C30	C	0.175298	-0.090835	-0.000258
C31	C	0.952151	-0.087546	-0.000252
C32	C	1.029656	-0.088687	-0.000276
C33	C	0.818997	-0.220700	-0.000236
C34	C	0.820138	-0.298204	-0.000247
N35	N	0.824461	-0.093024	0.189481
C36	C	0.891922	0.157062	-0.000209
C37	C	0.890850	0.229886	-0.000220
C38	C	0.826684	0.257782	-0.000206
C39	C	0.763585	0.212849	-0.000198
C40	C	0.764658	0.140026	-0.000194
N41	N	0.777631	0.365789	0.041244
N42	N	0.776615	0.434968	0.041242
C43	C	0.823446	0.477191	-0.000220
N44	N	0.871341	0.447624	-0.041669
N45	N	0.872359	0.378439	-0.041664
C46	C	0.825513	0.336745	-0.000210
C47	C	0.885379	0.601079	-0.000245
C48	C	0.884305	0.673904	-0.000261
C49	C	0.757038	0.656865	-0.000231
C50	C	0.758114	0.584042	-0.000222
C51	C	0.822287	0.556154	-0.000226
N52	N	0.824513	-0.093037	-0.189919
C53	C	0.872088	-0.045436	0.227785
C54	C	0.872092	-0.045433	0.304430
C55	C	0.824477	-0.093030	0.342768
C56	C	0.776841	-0.140621	0.304455
C57	C	0.776834	-0.140618	0.227812
N58	N	0.815401	-0.154837	0.463094
N59	N	0.815413	-0.154838	0.535902
C60	C	0.824496	-0.093040	0.573691
N61	N	0.833582	-0.031239	0.535920
N62	N	0.833574	-0.031240	0.463106
C63	C	0.824480	-0.093038	0.425875
C64	C	0.872131	-0.045444	0.695101
C65	C	0.872130	-0.045440	0.771748
C66	C	0.776882	-0.140634	0.771772
C67	C	0.776879	-0.140632	0.695127
C68	C	0.824507	-0.093038	0.656796
H69	H	0.464982	-0.210776	-0.000210
H70	H	0.944176	0.134360	-0.000214
H71	H	0.020970	-0.204232	-0.000285
C72	C	0.682688	-0.234714	0.235536
C73	C	0.724484	-0.192936	0.185704
H74	H	0.650374	-0.267016	0.209537
H75	H	0.657667	-0.205713	0.265445
H76	H	0.711681	-0.259755	0.265412
H77	H	0.695492	-0.167890	0.155831
H78	H	0.749507	-0.221941	0.155782
C79	C	-0.029475	0.032568	-0.000286
C80	C	0.043931	0.044948	-0.000268
H81	H	-0.048401	0.076115	-0.000294
H82	H	-0.044929	0.006609	0.042168
H83	H	-0.044879	0.006594	-0.042754
H84	H	0.059335	0.070917	0.042203
H85	H	0.059391	0.070918	-0.042727
H86	H	0.183988	0.024713	-0.000238
H87	H	0.495885	0.020111	-0.000188
H88	H	0.738100	-0.179386	0.663938
H89	H	0.937632	0.578372	-0.000251
C90	C	0.735508	-0.261610	0.795354
C91	C	0.724540	-0.192954	0.813903
H92	H	0.703188	-0.293907	0.821364
H93	H	0.782074	-0.269074	0.807893
H94	H	0.728687	-0.268411	0.744224
H95	H	0.731365	-0.186151	0.865032
H96	H	0.677962	-0.185487	0.801368
C97	C	0.138306	-0.262741	-0.062865
C98	C	0.161034	-0.224463	-0.000268
H99	H	0.157232	-0.306288	-0.062859
H100	H	0.153765	-0.236777	-0.105314
H101	H	0.088505	-0.271128	-0.062865
H102	H	0.210835	-0.216072	-0.000271
H103	H	0.145579	-0.250433	0.042193
H104	H	0.597091	-0.212725	-0.000196
H105	H	0.942228	0.266470	-0.000233
C106	C	0.705432	0.316916	-0.000179
C107	C	0.693052	0.243510	-0.000178
H108	H	0.661886	0.335842	-0.000165
H109	H	0.731403	0.332337	-0.042644
H110	H	0.731395	0.332350	0.042279
H111	H	0.667093	0.228075	-0.042640
H112	H	0.667070	0.228082	0.042290
H113	H	0.713281	0.103448	-0.000184
H114	H	0.706738	0.547464	-0.000208
H115	H	0.910910	-0.006688	0.663892
H116	H	0.935683	0.710481	-0.000274
C117	C	0.648222	0.664775	0.062385
C118	C	0.686503	0.687520	-0.000217
H119	H	0.604674	0.683699	0.062387
H120	H	0.674182	0.680224	0.104831
H121	H	0.639837	0.614974	0.062383
H122	H	0.694893	0.737320	-0.000213
H123	H	0.660537	0.672074	-0.042674
H124	H	0.910868	-0.006681	0.196579
H125	H	0.628003	0.018171	-0.000145
H126	H	0.910877	-0.006680	0.335623
C127	C	0.734570	-0.182899	0.421956
C128	C	0.724503	-0.192943	0.346594
H129	H	0.702259	-0.215204	0.447968
H130	H	0.727133	-0.136326	0.434531
H131	H	0.781146	-0.190370	0.434480
H132	H	0.677929	-0.185467	0.334069
H133	H	0.731935	-0.239527	0.334014
C134	C	0.966291	0.048639	0.764021
C135	C	0.924489	0.006870	0.813854
H136	H	0.998619	0.080929	0.790018
H137	H	0.937310	0.073687	0.734150
H138	H	0.991304	0.019625	0.734105
H139	H	0.899471	0.035883	0.843767
H140	H	0.953473	-0.018181	0.843737
