data_functionalizedCrystal
_audit_creation_method	'MofGen! by Chris Wilmer'
_symmetry_space_group_name_H-M	'P1'
_symmetry_Int_Tables_number	1
_symmetry_cell_setting	triclinic
loop_
_symmetry_equiv_pos_as_xyz
  x,y,z
_cell_length_a	14.853569
_cell_length_b	14.519709
_cell_length_c	13.330367
_cell_angle_alpha	90.003343
_cell_angle_beta	90.005718
_cell_angle_gamma	83.657855
loop_
_atom_site_label
_atom_site_type_symbol
_atom_site_fract_x
_atom_site_fract_y
_atom_site_fract_z
O1	O	1.196415	0.120408	0.083380
O2	O	1.529749	0.453742	0.416713
O3	O	1.863082	0.787075	0.750046
O4	O	0.933961	0.134750	0.083392
O5	O	1.267295	0.468083	0.416725
O6	O	1.600628	0.801417	0.750059
O7	O	1.072147	-0.006662	0.083377
O8	O	1.405480	0.326671	0.416710
O9	O	1.738814	0.660005	0.750043
O10	O	1.058230	0.261821	0.083395
O11	O	1.391563	0.595154	0.416729
O12	O	1.724896	0.928487	0.750062
O13	O	1.072126	-0.006659	-0.083471
O14	O	1.405459	0.326674	0.249863
O15	O	1.738792	0.660008	0.583196
O16	O	0.933940	0.134753	-0.083455
O17	O	1.267274	0.468086	0.249878
O18	O	1.600607	0.801420	0.583212
O19	O	1.196394	0.120411	-0.083467
O20	O	1.529727	0.453745	0.249866
O21	O	1.863061	0.787078	0.583199
Cu22	Cu	1.065165	0.127583	-0.098696
Cu23	Cu	1.398499	0.460916	0.234638
Cu24	Cu	1.731832	0.794249	0.567971
Cu25	Cu	1.065190	0.127579	0.098620
Cu26	Cu	1.398524	0.460912	0.431954
Cu27	Cu	1.731857	0.794246	0.765287
O28	O	1.058209	0.261823	-0.083452
O29	O	1.391542	0.595157	0.249881
O30	O	1.724875	0.928490	0.583215
C31	C	0.900362	0.134102	-0.000030
C32	C	1.233695	0.467435	0.333303
C33	C	1.567029	0.800768	0.666637
C34	C	0.800278	0.132153	-0.000026
C35	C	1.133611	0.465487	0.333308
C36	C	1.466944	0.798820	0.666641
C37	C	0.763868	0.047238	-0.000028
C38	C	1.097201	0.380571	0.333305
C39	C	1.430535	0.713904	0.666639
C40	C	0.742644	0.215239	-0.000027
C41	C	1.075977	0.548572	0.333306
C42	C	1.409310	0.881906	0.666639
C43	C	0.648609	0.213412	-0.000029
C44	C	0.981942	0.546745	0.333305
C45	C	1.315276	0.880078	0.666638
C46	C	0.612199	0.128496	-0.000031
C47	C	0.945533	0.461829	0.333302
C48	C	1.278866	0.795163	0.666636
C49	C	0.669825	0.045407	-0.000032
C50	C	1.003158	0.378741	0.333301
C51	C	1.336491	0.712074	0.666634
C52	C	0.590977	0.296498	-0.000038
C53	C	0.924310	0.629832	0.333296
C54	C	1.257643	0.963165	0.666629
C55	C	0.496936	0.294674	-0.000040
C56	C	0.830269	0.628008	0.333293
C57	C	1.163602	0.961341	0.666626
C58	C	0.460525	0.209757	-0.000035
C59	C	0.793858	0.543091	0.333298
C60	C	1.127191	0.876424	0.666631
C61	C	0.518156	0.126666	-0.000035
C62	C	0.851489	0.459999	0.333298
C63	C	1.184823	0.793332	0.666631
C64	C	0.481747	0.041750	-0.000038
C65	C	0.815080	0.375083	0.333296
C66	C	1.148413	0.708417	0.666629
C67	C	0.539377	-0.041343	-0.000031
C68	C	0.872710	0.291990	0.333303
C69	C	1.206043	0.625324	0.666636
C70	C	0.633414	-0.039509	-0.000027
C71	C	0.966747	0.293824	0.333306
C72	C	1.300080	0.627157	0.666639
C73	C	0.366487	0.207924	-0.000039
C74	C	0.699821	0.541257	0.333295
C75	C	1.033154	0.874591	0.666628
C76	C	0.387703	0.039920	-0.000042
C77	C	0.721037	0.373253	0.333291
C78	C	1.054370	0.706586	0.666625
C79	C	1.071488	-0.041020	-0.000047
C80	C	1.404821	0.292313	0.333286
C81	C	1.738154	0.625647	0.666620
C82	C	1.069544	-0.143400	-0.000048
C83	C	1.402877	0.189933	0.333286
C84	C	1.736211	0.523266	0.666619
C85	C	1.062389	-0.518293	-0.000021
C86	C	1.395722	-0.184960	0.333312
C87	C	1.729056	0.148373	0.666645
C88	C	1.064376	-0.413986	-0.000029
C89	C	1.397709	-0.080653	0.333304
C90	C	1.731043	0.252680	0.666638
C91	C	1.065966	-0.330850	-0.000035
C92	C	1.399300	0.002483	0.333298
C93	C	1.732633	0.335816	0.666631
C94	C	1.067954	-0.226536	-0.000041
C95	C	1.401287	0.106797	0.333292
C96	C	1.734620	0.440130	0.666626
C97	C	1.229994	0.121060	-0.000043
C98	C	1.563327	0.454393	0.333290
C99	C	1.896660	0.787727	0.666624
C100	C	1.330078	0.123008	-0.000041
C101	C	1.663411	0.456341	0.333292
C102	C	1.996745	0.789675	0.666626
C103	C	1.058868	0.296182	-0.000026
C104	C	1.392201	0.629515	0.333307
C105	C	1.725534	0.962848	0.666641
C106	C	1.060811	0.398562	-0.000019
C107	C	1.394145	0.731895	0.333314
C108	C	1.727478	1.065229	0.666648
N109	N	1.065154	0.127584	-0.237477
N110	N	1.398488	0.460918	0.095856
N111	N	1.731821	0.794251	0.429190
C112	C	1.010392	0.071547	-0.290004
C113	C	1.343726	0.404881	0.043330
C114	C	1.677059	0.738214	0.376663
C115	C	1.119927	0.183617	-0.289979
C116	C	1.453261	0.516950	0.043355
C117	C	1.786594	0.850284	0.376688
C118	C	1.119938	0.183616	-0.394997
C119	C	1.453271	0.516950	-0.061664
C120	C	1.786605	0.850283	0.271670
C121	C	1.065176	0.127579	-0.447524
C122	C	1.398509	0.460913	-0.114190
C123	C	1.731843	0.794246	0.219143
C124	C	1.010403	0.071543	-0.395032
C125	C	1.343736	0.404876	-0.061698
C126	C	1.677070	0.738210	0.271635
C127	C	1.174717	0.239645	-0.447497
C128	C	1.508050	0.572978	-0.114163
C129	C	1.841383	0.906311	0.219170
C130	C	1.174730	0.239645	-0.552522
C131	C	1.508063	0.572979	-0.219188
C132	C	1.841397	0.906312	0.114145
C133	C	1.119962	0.183613	-0.605050
C134	C	1.453296	0.516946	-0.271717
C135	C	1.786629	0.850279	0.061617
C136	C	1.065187	0.127575	-0.552552
C137	C	1.398520	0.460908	-0.219218
C138	C	1.731853	0.794242	0.114115
C139	C	1.010425	0.071538	-0.605078
C140	C	1.343758	0.404871	-0.271745
C141	C	1.677091	0.738205	0.061588
C142	C	0.955643	0.015504	-0.552582
C143	C	1.288977	0.348838	-0.219248
C144	C	1.622310	0.682171	0.114085
C145	C	0.955635	0.015510	-0.447560
C146	C	1.288969	0.348844	-0.114227
C147	C	1.622302	0.682177	0.219107
C148	C	1.119970	0.183607	-0.710072
C149	C	1.453304	0.516940	-0.376738
C150	C	1.786637	0.850273	-0.043405
C151	C	1.010436	0.071534	-0.710106
C152	C	1.343769	0.404867	-0.376773
C153	C	1.677102	0.738200	-0.043440
N154	N	1.065208	0.127570	0.237402
N155	N	1.398542	0.460903	0.570735
N156	N	1.731875	0.794237	0.904069
H157	H	0.358067	-0.029230	-0.000039
H158	H	0.691400	0.304104	0.333295
H159	H	1.024733	0.637437	0.666628
H160	H	0.911037	-0.030111	-0.404808
H161	H	1.244370	0.303223	-0.071475
H162	H	1.577704	0.636556	0.261858
H163	H	0.772295	0.284374	-0.000032
H164	H	1.105628	0.617707	0.333301
H165	H	1.438961	0.951040	0.666634
H166	H	0.620629	0.365632	-0.000042
H167	H	0.953962	0.698966	0.333291
H168	H	1.287295	1.032299	0.666624
H169	H	1.219307	0.285260	-0.404722
H170	H	1.552641	0.618594	-0.071389
H171	H	1.885974	0.951927	0.261945
H172	H	1.164518	0.229234	-0.247205
H173	H	1.497851	0.562567	0.086128
H174	H	1.831184	0.895901	0.419461
H175	H	0.319569	0.275577	-0.000053
H176	H	0.652903	0.608910	0.333280
H177	H	0.986236	0.942243	0.666613
H178	H	0.509720	-0.110482	-0.000026
H179	H	0.843053	0.222852	0.333307
H180	H	1.176386	0.556185	0.666641
H181	H	0.450021	0.362334	-0.000044
H182	H	0.783354	0.695667	0.333289
H183	H	1.116687	1.029000	0.666622
H184	H	0.965788	0.025929	-0.247256
H185	H	1.299121	0.359262	0.086077
H186	H	1.632455	0.692596	0.419410
H187	H	1.219336	0.285272	-0.595255
H188	H	1.552669	0.618605	-0.261922
H189	H	1.886002	0.951939	0.071411
H190	H	0.680344	-0.107159	-0.000024
H191	H	1.013677	0.226175	0.333310
H192	H	1.347010	0.559508	0.666643
H193	H	0.911060	-0.030125	-0.595363
H194	H	1.244393	0.303209	-0.262029
H195	H	1.577727	0.636542	0.071304
H196	H	0.965837	0.025905	-0.752866
H197	H	1.299170	0.359238	-0.419533
H198	H	1.632504	0.692572	-0.086199
H199	H	1.164576	0.229225	-0.752809
H200	H	1.497909	0.562558	-0.419476
H201	H	1.831243	0.895892	-0.086143
H202	H	0.810794	-0.020414	-0.000018
H203	H	1.144128	0.312919	0.333315
H204	H	1.477461	0.646252	0.666649
