data_functionalizedCrystal
_audit_creation_method	'MofGen! by Chris Wilmer'
_symmetry_space_group_name_H-M	'P1'
_symmetry_Int_Tables_number	1
_symmetry_cell_setting	triclinic
loop_
_symmetry_equiv_pos_as_xyz
  x,y,z
_cell_length_a	19.077068
_cell_length_b	19.077142
_cell_length_c	19.076919
_cell_angle_alpha	89.925643
_cell_angle_beta	94.470751
_cell_angle_gamma	89.885450
loop_
_atom_site_label
_atom_site_type_symbol
_atom_site_fract_x
_atom_site_fract_y
_atom_site_fract_z
Zn1	Zn	-0.340467	-1.044046	-0.453535
Zn2	Zn	-0.453617	-1.043960	-0.340376
Zn3	Zn	-0.331038	-0.931658	-0.330962
Zn4	Zn	-0.453191	-0.921799	-0.453108
O5	O	-0.394578	-0.985366	-0.394495
O6	O	-0.359601	-1.142194	-0.442642
O7	O	-0.433589	-1.033152	-0.240651
O8	O	-0.233814	-0.950729	-0.343461
O9	O	-0.442732	-1.142130	-0.359505
O10	O	-0.240742	-1.033300	-0.433514
O11	O	-0.343531	-0.950645	-0.233735
O12	O	-0.343117	-0.832191	-0.343047
O13	O	-0.442005	-0.933926	-0.551640
O14	O	-0.432862	-0.824948	-0.432787
O15	O	-0.359188	-1.023740	-0.551954
O16	O	-0.552035	-1.023592	-0.359091
O17	O	-0.551722	-0.933842	-0.441915
C18	C	-0.386921	-0.803118	-0.386849
C19	C	-0.383663	-0.725150	-0.383596
C20	C	-0.428922	-0.684768	-0.428722
C21	C	-0.425852	-0.611509	-0.425668
C22	C	-0.377525	-0.578633	-0.377484
C23	C	-0.332260	-0.619021	-0.332356
C24	C	-0.335328	-0.692278	-0.335414
C25	C	-0.363329	-0.359939	-0.363338
C26	C	-0.360266	-0.286676	-0.360282
C27	C	-0.453858	-0.279169	-0.453596
C28	C	-0.456924	-0.352428	-0.456647
C29	C	-0.411657	-0.392810	-0.411521
N30	N	-0.374386	-0.503751	-0.374359
N31	N	-0.414792	-0.467691	-0.414650
C32	C	-0.577413	-0.977656	-0.401494
C33	C	-0.655634	-0.974421	-0.404515
C34	C	-0.692526	-1.019663	-0.362850
C35	C	-0.766023	-1.016624	-0.365696
C36	C	-0.802628	-0.968340	-0.410202
C37	C	-0.765732	-0.923096	-0.451871
C38	C	-0.692236	-0.926139	-0.449029
C39	C	-1.022422	-0.954229	-0.423325
C40	C	-1.095922	-0.951188	-0.426162
C41	C	-1.096209	-1.044718	-0.339988
C42	C	-1.022711	-1.047753	-0.337147
C43	C	-0.985822	-1.002512	-0.378818
N44	N	-0.877754	-0.965231	-0.413109
N45	N	-0.910697	-1.005625	-0.375914
C46	C	-0.211031	-0.993124	-0.387485
C47	C	-0.132814	-0.996430	-0.384498
C48	C	-0.401601	-0.977743	-0.578045
C49	C	-0.404593	-0.974495	-0.656263
C50	C	-0.402262	-0.168326	-0.402163
C51	C	-0.405526	-0.246294	-0.405409
C52	C	-0.362883	-1.019728	-0.693174
C53	C	-0.365691	-1.016667	-0.766668
C54	C	-0.410215	-0.968376	-0.803249
C55	C	-0.451927	-0.923138	-0.766332
C56	C	-0.449114	-0.926196	-0.692840
C57	C	-0.423248	-0.954214	-1.023031
C58	C	-0.426060	-0.951161	-1.096528
C59	C	-0.339822	-1.044689	-1.096859
C60	C	-0.337016	-1.047745	-1.023365
C61	C	-0.378726	-1.002505	-0.986454
N62	N	-0.413089	-0.965248	-0.878372
N63	N	-0.375848	-1.005630	-0.911333
C64	C	-0.387534	-0.993001	-0.211659
C65	C	-0.384349	-0.996394	-0.133440
H66	H	-0.298469	-0.725157	-0.298671
H67	H	-1.126252	-1.081552	-0.306062
H68	H	-0.662200	-0.889299	-0.482957
H69	H	-0.300762	-1.087071	-0.993586
H70	H	-0.462708	-0.578632	-0.462414
C71	C	-0.540101	-0.915926	-1.003529
C72	C	-0.469093	-0.904478	-0.982471
H73	H	-0.568402	-0.885218	-0.978486
H74	H	-0.548139	-0.907205	-1.052530
H75	H	-0.551920	-0.963118	-0.993842
H76	H	-0.457272	-0.857287	-0.992164
H77	H	-0.461050	-0.913194	-0.933460
C78	C	-0.435021	-0.852953	-1.175587
C79	C	-0.474997	-0.898068	-1.136737
H80	H	-0.465233	-0.820180	-1.200412
H81	H	-0.402139	-0.828618	-1.144619
H82	H	-0.410590	-0.879467	-1.208088
H83	H	-0.499424	-0.871554	-1.104233
H84	H	-0.507891	-0.922405	-1.167709
C85	C	-0.320273	-0.270471	-0.238918
C86	C	-0.307137	-0.250528	-0.307326
H87	H	-0.287472	-0.248154	-0.206230
H88	H	-0.366633	-0.256907	-0.229849
H89	H	-0.315609	-0.319879	-0.234280
H90	H	-0.311806	-0.201120	-0.311965
H91	H	-0.260765	-0.264088	-0.316398
H92	H	-0.992909	-1.087070	-0.300906
C93	C	-0.936257	-0.862888	-0.425869
C94	C	-0.981872	-0.904497	-0.469120
H95	H	-0.911218	-0.832188	-0.454143
H96	H	-0.962666	-0.836169	-0.395179
H97	H	-0.903944	-0.892090	-0.398961
H98	H	-1.014189	-0.875295	-0.496025
H99	H	-0.955461	-0.931218	-0.499823
C100	C	-1.088262	-0.859053	-0.511075
C101	C	-1.136161	-0.898117	-0.475094
H102	H	-1.113106	-0.826295	-0.541285
H103	H	-1.057335	-0.834700	-0.478168
H104	H	-1.061870	-0.889673	-0.538185
H105	H	-1.162550	-0.867497	-0.447980
H106	H	-1.167100	-0.922471	-0.508006
H107	H	-0.305864	-1.081520	-1.126919
C108	C	-0.549123	-0.337646	-0.548580
C109	C	-0.510045	-0.388563	-0.509614
H110	H	-0.581916	-0.359956	-0.581281
H111	H	-0.573620	-0.309211	-0.517712
H112	H	-0.518333	-0.309248	-0.573184
H113	H	-0.540835	-0.416957	-0.485006
H114	H	-0.485547	-0.417010	-0.540487
C115	C	-0.353225	-0.446643	-0.271751
C116	C	-0.313576	-0.404318	-0.313731
H117	H	-0.322507	-0.474045	-0.241127
H118	H	-0.381612	-0.417890	-0.244767
H119	H	-0.382439	-0.476709	-0.300891
H120	H	-0.284366	-0.374249	-0.284591
H121	H	-0.285177	-0.433075	-0.340718
C122	C	-0.851567	-0.905923	-0.549300
C123	C	-0.805968	-0.870021	-0.500792
H124	H	-0.876409	-0.873154	-0.579497
H125	H	-0.825171	-0.936526	-0.576414
H126	H	-0.884053	-0.932430	-0.524884
H127	H	-0.773478	-0.843518	-0.525208
H128	H	-0.832366	-0.839406	-0.473675
C129	C	-0.292287	-0.602840	-0.210991
C130	C	-0.279136	-0.582886	-0.279391
H131	H	-0.259487	-0.580535	-0.178293
H132	H	-0.338647	-0.589270	-0.201927
H133	H	-0.287634	-0.652250	-0.206363
H134	H	-0.283795	-0.533476	-0.284021
H135	H	-0.232764	-0.596452	-0.288459
H136	H	-0.662727	-1.058978	-0.326606
C137	C	-0.536883	-0.830995	-0.758618
C138	C	-0.500869	-0.870054	-0.806540
H139	H	-0.567096	-0.798222	-0.783441
H140	H	-0.563986	-0.861611	-0.732266
H141	H	-0.503990	-0.806654	-0.727655
H142	H	-0.533762	-0.894400	-0.837500
H143	H	-0.473764	-0.839434	-0.832904
H144	H	-0.326629	-1.059053	-0.663395
H145	H	-0.796056	-1.053465	-0.331768
H146	H	-0.331728	-1.053502	-0.796718
H147	H	-0.483072	-0.889356	-0.662787
H148	H	-0.468278	-0.711529	-0.467956
H149	H	-0.490710	-0.246283	-0.490335
