data_functionalizedCrystal
_audit_creation_method	'MofGen! by Chris Wilmer'
_symmetry_space_group_name_H-M	'P1'
_symmetry_Int_Tables_number	1
_symmetry_cell_setting	triclinic
loop_
_symmetry_equiv_pos_as_xyz
  x,y,z
_cell_length_a	14.971491
_cell_length_b	14.971486
_cell_length_c	13.448316
_cell_angle_alpha	90.003864
_cell_angle_beta	90.006926
_cell_angle_gamma	83.615182
loop_
_atom_site_label
_atom_site_type_symbol
_atom_site_fract_x
_atom_site_fract_y
_atom_site_fract_z
O1	O	1.186943	0.116583	0.082735
O2	O	1.686943	0.616583	0.582735
O3	O	0.926543	0.130537	0.082728
O4	O	1.426543	0.630537	0.582728
O5	O	1.063722	-0.006640	0.082724
O6	O	1.563722	0.493360	0.582724
O7	O	1.049764	0.253760	0.082738
O8	O	1.549764	0.753760	0.582738
O9	O	1.063709	-0.006641	-0.082659
O10	O	1.563709	0.493359	0.417341
O11	O	0.926530	0.130536	-0.082656
O12	O	1.426530	0.630536	0.417344
O13	O	1.186929	0.116582	-0.082649
O14	O	1.686929	0.616582	0.417351
Cu15	Cu	1.056728	0.123559	-0.097753
Cu16	Cu	1.556728	0.623559	0.402247
Cu17	Cu	1.056744	0.123560	0.097832
Cu18	Cu	1.556744	0.623560	0.597832
O19	O	1.049750	0.253759	-0.082646
O20	O	1.549750	0.753759	0.417354
C21	C	0.893212	0.129912	0.000035
C22	C	1.393212	0.629912	0.500035
C23	C	0.793915	0.128039	0.000032
C24	C	1.293915	0.628039	0.500032
C25	C	0.366217	0.119959	0.090205
C26	C	0.866217	0.619959	0.590205
C27	C	0.459517	0.121716	0.090201
C28	C	0.959517	0.621716	0.590201
C29	C	0.506155	0.122600	0.000047
C30	C	1.006155	0.622600	0.500047
C31	C	0.459490	0.121717	-0.090109
C32	C	0.959490	0.621717	0.409891
C33	C	0.366192	0.119954	-0.090104
C34	C	0.866192	0.619954	0.409896
C35	C	0.653951	0.125395	-0.090113
C36	C	1.153951	0.625395	0.409887
C37	C	0.747255	0.127160	-0.090118
C38	C	1.247255	0.627160	0.409882
C39	C	0.747277	0.127156	0.090193
C40	C	1.247277	0.627156	0.590193
C41	C	0.653979	0.125393	0.090198
C42	C	1.153979	0.625393	0.590198
C43	C	0.607319	0.124513	0.000041
C44	C	1.107319	0.624513	0.500041
C45	C	1.063091	-0.039965	0.000033
C46	C	1.563091	0.460035	0.500033
C47	C	1.061221	-0.139262	0.000034
C48	C	1.561221	0.360738	0.500034
C49	C	1.141810	-0.196486	0.000035
C50	C	1.641810	0.303514	0.500035
C51	C	1.140046	-0.289786	0.000045
C52	C	1.640046	0.210214	0.500045
C53	C	1.057693	-0.325859	0.000046
C54	C	1.557693	0.174141	0.500046
C55	C	0.977098	-0.268628	0.000048
C56	C	1.477098	0.231372	0.500048
C57	C	0.978862	-0.175331	0.000045
C58	C	1.478862	0.324669	0.500045
C59	C	0.973427	-0.463091	0.000051
C60	C	1.473427	0.036909	0.500051
C61	C	0.971663	-0.556395	0.000052
C62	C	1.471663	-0.056395	0.500052
C63	C	1.134611	-0.577546	0.000051
C64	C	1.634611	-0.077546	0.500051
C65	C	1.136375	-0.484248	0.000049
C66	C	1.636375	0.015752	0.500049
C67	C	1.055780	-0.427023	0.000048
C68	C	1.555780	0.072977	0.500048
C69	C	1.220261	0.117207	0.000046
C70	C	1.720261	0.617207	0.500046
C71	C	1.319557	0.119080	0.000056
C72	C	1.819557	0.619080	0.500056
C73	C	1.050381	0.287084	0.000048
C74	C	1.550381	0.787084	0.500048
C75	C	1.052252	0.386381	0.000054
C76	C	1.552252	0.886381	0.500054
N77	N	1.056723	0.123557	-0.235318
N78	N	1.556723	0.623557	0.264682
C79	C	1.111025	0.177899	-0.287349
C80	C	1.611025	0.677899	0.212651
C81	C	1.111036	0.177895	-0.391452
C82	C	1.611036	0.677895	0.108548
C83	C	1.056740	0.123554	-0.443522
C84	C	1.556740	0.623554	0.056478
C85	C	1.002436	0.069205	-0.391484
C86	C	1.502436	0.569205	0.108516
C87	C	1.002430	0.069205	-0.287382
C88	C	1.502430	0.569205	0.212618
C89	C	1.002450	0.069211	-0.608464
C90	C	1.502450	0.569211	-0.108464
C91	C	1.002454	0.069213	-0.712572
C92	C	1.502454	0.569213	-0.212572
C93	C	1.111056	0.177902	-0.712534
C94	C	1.611056	0.677902	-0.212534
C95	C	1.111051	0.177901	-0.608432
C96	C	1.611051	0.677901	-0.108432
C97	C	1.056745	0.123554	-0.556401
C98	C	1.556745	0.623554	-0.056401
N99	N	1.056756	0.123555	0.235396
N100	N	1.556756	0.623555	0.735396
H101	H	0.497471	0.122431	-0.163514
H102	H	0.997471	0.622431	0.336486
H103	H	1.205670	-0.336374	0.000044
H104	H	1.705670	0.163626	0.500044
O105	O	0.943874	0.010601	-0.552338
O106	O	1.443874	0.510601	-0.052338
H107	H	0.906109	-0.027178	-0.606032
H108	H	1.406109	0.472822	-0.106032
H109	H	0.615963	0.124688	-0.163528
H110	H	1.115963	0.624688	0.336472
H111	H	0.328202	0.119247	-0.163513
H112	H	0.828202	0.619247	0.336487
O113	O	1.225196	-0.445333	0.000059
O114	O	1.725196	0.054667	0.500059
H115	H	1.280943	-0.500798	0.000074
H116	H	1.780943	-0.000798	0.500074
O117	O	1.169606	0.236516	-0.552265
O118	O	1.669606	0.736516	-0.052265
H119	H	1.207374	0.274303	-0.605932
H120	H	1.707374	0.774303	-0.105932
O121	O	1.169632	0.236519	-0.768648
O122	O	1.669632	0.736519	-0.268648
H123	H	1.241097	0.217184	-0.748643
H124	H	1.741097	0.717184	-0.248643
O125	O	0.509841	0.122664	0.187436
O126	O	1.009841	0.622664	0.687436
H127	H	0.544449	0.184379	0.191748
H128	H	1.044449	0.684379	0.691748
O129	O	0.943895	0.010601	-0.768740
O130	O	1.443895	0.510601	-0.268740
H131	H	0.906141	-0.027199	-0.715072
H132	H	1.406141	0.472801	-0.215072
H133	H	0.785225	0.127884	-0.163529
H134	H	1.285225	0.627884	0.336471
O135	O	0.603689	0.124414	0.187442
O136	O	1.103689	0.624414	0.687442
H137	H	0.613695	0.185656	0.230699
H138	H	1.113695	0.685656	0.730699
O139	O	0.943884	0.010583	-0.447645
O140	O	1.443884	0.510583	0.052355
H141	H	0.906133	-0.027215	-0.393972
H142	H	1.406133	0.472785	0.106028
O143	O	0.891938	-0.113610	0.000039
O144	O	1.391938	0.386390	0.500039
H145	H	0.906999	-0.042675	0.000047
H146	H	1.406999	0.457325	0.500047
O147	O	0.797595	0.128096	0.187438
O148	O	1.297595	0.628096	0.687438
H149	H	0.870308	0.129457	0.172293
H150	H	1.370308	0.629457	0.672293
O151	O	1.221538	-0.639268	0.000055
O152	O	1.721538	-0.139268	0.500055
H153	H	1.260928	-0.626446	-0.067362
H154	H	1.760928	-0.126446	0.432638
O155	O	1.230637	-0.157584	0.000045
O156	O	1.730637	0.342416	0.500045
H157	H	1.269368	-0.180575	-0.067354
H158	H	1.769368	0.319425	0.432646
O159	O	0.882842	-0.595310	0.000071
O160	O	1.382842	-0.095310	0.500071
H161	H	0.827095	-0.539846	0.000089
H162	H	1.327095	-0.039846	0.500089
H163	H	1.155256	0.222145	-0.433812
H164	H	1.655256	0.722145	0.066188
O165	O	1.169588	0.236512	-0.231189
O166	O	1.669588	0.736512	0.268811
H167	H	1.207355	0.274292	-0.284863
H168	H	1.707355	0.774292	0.215137
O169	O	0.886502	-0.401365	0.000041
O170	O	1.386502	0.098635	0.500041
H171	H	0.828939	-0.442121	0.000029
H172	H	1.328939	0.057879	0.500029
H173	H	0.910045	-0.298007	0.000055
H174	H	1.410045	0.201993	0.500055
H175	H	0.958211	0.024954	-0.245020
H176	H	1.458211	0.524954	0.254980
H177	H	0.328250	0.119246	0.163619
H178	H	0.828250	0.619246	0.663619
