data_functionalizedCrystal
_audit_creation_method	'MofGen! by Chris Wilmer'
_symmetry_space_group_name_H-M	'P1'
_symmetry_Int_Tables_number	1
_symmetry_cell_setting	triclinic
loop_
_symmetry_equiv_pos_as_xyz
  x,y,z
_cell_length_a	14.044220
_cell_length_b	14.044202
_cell_length_c	12.503572
_cell_angle_alpha	86.163523
_cell_angle_beta	86.164750
_cell_angle_gamma	86.809210
loop_
_atom_site_label
_atom_site_type_symbol
_atom_site_fract_x
_atom_site_fract_y
_atom_site_fract_z
O1	O	1.282209	-0.225115	-0.089240
O2	O	1.005539	-0.216808	-0.089266
O3	O	1.139715	-0.082627	-0.089224
O4	O	1.148033	-0.359296	-0.089282
O5	O	1.129626	-0.092737	0.089414
O6	O	0.995450	-0.226917	0.089373
O7	O	1.272120	-0.235225	0.089398
Cu8	Cu	1.132864	-0.231994	0.105697
Cu9	Cu	1.144795	-0.220039	-0.105564
O10	O	1.137944	-0.369406	0.089357
C11	C	0.964873	-0.218227	0.000050
C12	C	0.858730	-0.207382	0.000042
C13	C	1.131033	-0.052060	0.000100
C14	C	1.120184	0.054082	0.000114
C15	C	0.664390	-0.187557	0.000067
C16	C	0.613263	-0.264471	0.000056
C17	C	0.505126	-0.253440	0.000070
C18	C	0.772537	-0.198586	0.000053
C19	C	1.312787	-0.233806	0.000080
C20	C	1.418930	-0.244650	0.000081
N21	N	1.124478	-0.240403	0.254286
C22	C	1.177284	0.299542	0.000092
C23	C	1.100368	0.248416	0.000089
C24	C	1.111397	0.140279	0.000103
C25	C	1.166257	0.407689	0.000078
C26	C	1.146623	0.600027	0.000045
C27	C	1.157464	0.493882	0.000067
N28	N	1.153188	-0.211623	-0.254154
C29	C	1.112144	-0.252781	0.473398
C30	C	1.165519	-0.199248	0.526741
C31	C	1.158656	-0.206135	0.648663
C32	C	1.119006	-0.245895	0.351466
H33	H	0.650706	-0.338603	0.000035
H34	H	1.216370	-0.148245	0.480844
H35	H	1.061298	-0.303782	0.519289
O36	O	0.619880	-0.099053	0.000127
C37	C	0.638108	0.070546	0.000066
C38	C	0.688650	-0.029627	0.000032
H39	H	0.693687	0.126706	-0.000034
H40	H	0.587420	0.075382	0.074846
H41	H	0.595791	0.083711	-0.074674
H42	H	0.731018	-0.042857	0.074721
H43	H	0.739282	-0.034414	-0.074798
H44	H	1.251410	0.262100	0.000108
O45	O	1.011994	0.293228	0.000127
C46	C	0.920292	0.443440	0.000044
C47	C	1.020425	0.392807	0.000023
H48	H	0.927075	0.523959	-0.000063
H49	H	0.875602	0.417771	0.074822
H50	H	0.884067	0.426067	-0.074698
H51	H	1.056732	0.410157	0.074713
H52	H	1.065045	0.418481	-0.074806
