data_functionalizedCrystal
_audit_creation_method	'MofGen! by Chris Wilmer'
_symmetry_space_group_name_H-M	'P1'
_symmetry_Int_Tables_number	1
_symmetry_cell_setting	triclinic
loop_
_symmetry_equiv_pos_as_xyz
  x,y,z
_cell_length_a	14.971491
_cell_length_b	10.540539
_cell_length_c	9.016244
_cell_angle_alpha	90.000067
_cell_angle_beta	90.009190
_cell_angle_gamma	84.070863
loop_
_atom_site_label
_atom_site_type_symbol
_atom_site_fract_x
_atom_site_fract_y
_atom_site_fract_z
O1	O	1.187878	0.165446	0.123397
O2	O	0.927590	0.185249	0.123385
O3	O	1.063672	-0.009426	0.123389
O4	O	1.051796	0.360121	0.123392
O5	O	1.063652	-0.009422	-0.123291
O6	O	0.927570	0.185254	-0.123296
O7	O	1.187858	0.165451	-0.123284
Cu8	Cu	1.057712	0.175353	-0.145814
Cu9	Cu	1.057736	0.175347	0.145915
O10	O	1.051776	0.360126	-0.123288
C11	C	0.894251	0.184365	0.000043
C12	C	0.794939	0.181707	0.000039
C13	C	0.367179	0.170238	0.134539
C14	C	0.460494	0.172731	0.134533
C15	C	0.507136	0.173988	0.000062
C16	C	0.460460	0.172739	-0.134412
C17	C	0.367148	0.170237	-0.134405
C18	C	0.654951	0.177958	-0.134417
C19	C	0.748269	0.180462	-0.134425
C20	C	0.748297	0.180451	0.134521
C21	C	0.654985	0.177949	0.134528
C22	C	0.608315	0.176703	0.000053
C23	C	1.062772	-0.056717	0.000052
C24	C	1.060107	-0.197635	0.000059
C25	C	0.957999	-0.379905	0.000608
C26	C	0.960700	-0.233318	0.000053
C27	C	1.107935	-0.259831	-0.140805
C28	C	1.104542	-0.406337	-0.140924
C29	C	1.106587	-0.406884	0.139598
C30	C	1.107502	-0.259912	0.141461
C31	C	1.221198	0.166335	0.000061
C32	C	1.320510	0.168993	0.000075
C33	C	1.052676	0.407417	0.000053
C34	C	1.055341	0.548334	0.000055
N35	N	1.057702	0.175356	-0.351000
C36	C	0.984684	0.279150	-0.586035
C37	C	0.984845	0.279534	-0.414144
C38	C	1.151219	0.204430	-0.413334
C39	C	1.150820	0.205164	-0.585279
C40	C	1.038133	0.042139	-0.585546
C41	C	1.035987	0.043028	-0.413592
N42	N	1.057753	0.175334	0.351101
H43	H	0.786300	0.181468	0.244015
C44	C	0.315877	0.168858	0.282455
H45	H	0.253618	0.167201	0.263206
H46	H	0.337526	0.095300	0.337702
H47	H	0.324828	0.243240	0.337705
H48	H	1.167980	0.302307	-0.625366
H49	H	1.085680	-0.037856	-0.370614
H50	H	0.915360	0.262189	-0.372003
C51	C	0.511826	0.174107	0.282443
H52	H	0.470682	0.173017	0.362529
H53	H	0.554577	0.101117	0.288036
H54	H	0.541877	0.249058	0.288028
C55	C	0.315800	0.168942	-0.282310
H56	H	0.253547	0.167281	-0.263048
H57	H	0.324750	0.243341	-0.337510
H58	H	0.337417	0.095399	-0.337615
C59	C	0.799580	0.181767	-0.282338
H60	H	0.758426	0.180627	-0.362426
H61	H	0.829650	0.256689	-0.287984
H62	H	0.842316	0.108747	-0.287868
C63	C	0.603615	0.176593	-0.282336
H64	H	0.644755	0.177715	-0.362424
H65	H	0.573560	0.101655	-0.287936
H66	H	0.560866	0.249596	-0.287910
C67	C	1.201113	-0.472245	-0.149593
H68	H	1.199696	-0.562146	-0.149720
H69	H	1.228819	-0.447035	-0.238101
H70	H	1.234398	-0.448223	-0.066290
C71	C	1.203582	-0.471777	0.140899
H72	H	1.234210	-0.444334	0.225463
H73	H	1.202670	-0.561702	0.144516
H74	H	1.233709	-0.449308	0.053512
H75	H	0.617011	0.176934	0.244026
H76	H	0.914981	0.262086	-0.627432
C77	C	0.909864	-0.175178	0.136460
H78	H	0.911455	-0.085308	0.136307
H79	H	0.849249	-0.194208	0.132980
H80	H	0.937539	-0.210143	0.224259
H81	H	0.498444	0.173755	-0.243900
H82	H	0.922785	-0.191131	-0.101096
H83	H	0.997132	0.377432	-0.629226
H84	H	1.069178	-0.434135	-0.246227
C85	C	1.063034	-0.201790	-0.282429
H86	H	1.092454	-0.240042	-0.367084
H87	H	1.001596	-0.217001	-0.283697
H88	H	1.067364	-0.112513	-0.283888
C89	C	0.904951	-0.417954	0.137056
H90	H	0.941689	-0.477950	0.194908
H91	H	0.887440	-0.344341	0.195067
H92	H	0.853001	-0.455078	0.105365
C93	C	1.174920	0.334172	-0.355153
H94	H	1.127953	0.370787	-0.292893
H95	H	1.229278	0.322297	-0.300193
H96	H	1.182130	0.389489	-0.436494
H97	H	0.997457	0.378375	-0.372996
H98	H	0.918882	-0.409668	-0.099845
C99	C	1.206550	-0.230746	-0.147893
H100	H	1.219460	-0.180286	-0.064811
H101	H	1.244838	-0.308438	-0.146588
H102	H	1.216187	-0.185541	-0.236651
C103	C	1.063134	-0.449007	0.283832
H104	H	1.013327	-0.494303	0.260291
H105	H	1.105951	-0.502722	0.338838
H106	H	1.043294	-0.375970	0.341334
H107	H	1.072507	-0.218659	0.245668
H108	H	1.179978	-0.236511	0.149970
C109	C	0.947937	0.004442	-0.644179
H110	H	0.921400	0.069592	-0.707851
H111	H	0.957894	-0.073344	-0.697730
H112	H	0.908862	-0.006144	-0.563117
C113	C	0.943050	0.013220	-0.358568
H114	H	0.917584	0.081123	-0.297695
H115	H	0.904948	0.003805	-0.441236
H116	H	0.949287	-0.063653	-0.302794
C117	C	1.110094	-0.062234	-0.640470
H118	H	1.151897	-0.024889	-0.701714
H119	H	1.140582	-0.102266	-0.557778
H120	H	1.082196	-0.123922	-0.695838
H121	H	1.206936	0.132539	-0.626859
H122	H	1.206921	0.130836	-0.372428
