data_functionalizedCrystal
_audit_creation_method	'MofGen! by Chris Wilmer'
_symmetry_space_group_name_H-M	'P1'
_symmetry_Int_Tables_number	1
_symmetry_cell_setting	triclinic
loop_
_symmetry_equiv_pos_as_xyz
  x,y,z
_cell_length_a	14.044220
_cell_length_b	15.995343
_cell_length_c	12.503572
_cell_angle_alpha	93.518504
_cell_angle_beta	86.164750
_cell_angle_gamma	88.339031
loop_
_atom_site_label
_atom_site_type_symbol
_atom_site_fract_x
_atom_site_fract_y
_atom_site_fract_z
O1	O	1.263161	0.197432	-0.089227
O2	O	1.763161	0.697432	0.410773
O3	O	0.987193	0.190147	-0.089253
O4	O	1.487193	0.690147	0.410747
O5	O	1.132723	0.072466	-0.089220
O6	O	1.632723	0.572466	0.410780
O7	O	1.117631	0.315113	-0.089261
O8	O	1.617631	0.815113	0.410739
O9	O	1.121779	0.081333	0.089420
O10	O	1.621779	0.581333	0.589420
O11	O	0.976249	0.199013	0.089386
O12	O	1.476249	0.699013	0.589386
O13	O	1.252216	0.206299	0.089412
O14	O	1.752216	0.706299	0.589412
Cu15	Cu	1.113233	0.203465	0.105710
Cu16	Cu	1.613233	0.703465	0.605710
Cu17	Cu	1.126176	0.192980	-0.105551
Cu18	Cu	1.626176	0.692980	0.394449
O19	O	1.106686	0.323979	0.089378
O20	O	1.606686	0.823979	0.589378
C21	C	0.946407	0.191391	0.000063
C22	C	1.446407	0.691391	0.500063
C23	C	0.841182	0.181880	0.000054
C24	C	1.341182	0.681880	0.500054
C25	C	0.648520	0.164493	0.000078
C26	C	1.148520	0.664493	0.500078
C27	C	0.590885	0.231949	0.000071
C28	C	1.090885	0.731949	0.500071
C29	C	0.483681	0.222274	0.000085
C30	C	0.983681	0.722274	0.500085
C31	C	0.755734	0.174166	0.000065
C32	C	1.255734	0.674166	0.500065
C33	C	1.126628	0.045658	0.000103
C34	C	1.626628	0.545658	0.500103
C35	C	1.124761	-0.047432	0.000111
C36	C	1.624761	0.452568	0.500111
C37	C	1.121373	-0.217872	0.000086
C38	C	1.621373	0.282128	0.500086
C39	C	1.016322	-0.249065	0.000074
C40	C	1.516322	0.250935	0.500074
C41	C	1.014371	-0.345911	-0.000344
C42	C	1.514371	0.154089	0.499656
C43	C	1.118037	-0.385683	0.000063
C44	C	1.618037	0.114317	0.500063
C45	C	1.177096	-0.357691	-0.101738
C46	C	1.677096	0.142309	0.398262
C47	C	1.178346	-0.260809	-0.101812
C48	C	1.678346	0.239191	0.398188
C49	C	1.167437	-0.250716	0.101342
C50	C	1.667437	0.249284	0.601342
C51	C	1.163478	-0.347435	0.102668
C52	C	1.663478	0.152565	0.602668
C53	C	1.116157	-0.480522	0.000046
C54	C	1.616157	0.019478	0.500046
C55	C	1.123257	-0.123033	0.000096
C56	C	1.623257	0.376967	0.500096
C57	C	1.293003	0.205054	0.000093
C58	C	1.793003	0.705054	0.500093
C59	C	1.398228	0.214565	0.000096
C60	C	1.898228	0.714565	0.500096
C61	C	1.112781	0.350787	0.000054
C62	C	1.612781	0.850787	0.500054
C63	C	1.114649	0.443877	0.000038
C64	C	1.614649	0.943877	0.500038
N65	N	1.104136	0.210840	0.254300
N66	N	1.604136	0.710840	0.754300
N67	N	1.135281	0.185599	-0.254142
N68	N	1.635281	0.685599	0.245858
C69	C	1.090754	0.221696	0.473413
C70	C	1.590754	0.721696	0.973413
C71	C	1.148659	0.174746	0.526753
C72	C	1.648659	0.674746	1.026753
C73	C	1.141214	0.180786	0.648675
C74	C	1.641214	0.680786	1.148675
C75	C	1.098199	0.215657	0.351480
C76	C	1.598199	0.715657	0.851480
H77	H	0.968544	-0.364403	0.072611
H78	H	1.468544	0.135597	0.572611
H79	H	0.980733	-0.226685	-0.072828
H80	H	1.480733	0.273315	0.427172
O81	O	0.628114	0.309489	-0.000161
O82	O	1.128114	0.809489	0.499839
C83	C	0.690309	0.314477	-0.092686
C84	C	1.190309	0.814477	0.407314
H85	H	0.670795	0.265784	-0.157318
H86	H	1.170795	0.765784	0.342682
H87	H	0.683443	0.379753	-0.123779
H88	H	1.183443	0.879753	0.376221
H89	H	0.766982	0.301928	-0.071779
H90	H	1.266982	0.801928	0.428221
O91	O	1.253264	-0.379690	0.110214
O92	O	1.753264	0.120310	0.610214
C93	C	1.277057	-0.437855	0.022494
C94	C	1.777057	0.062145	0.522494
H95	H	1.231378	-0.423680	-0.046621
H96	H	1.731378	0.076320	0.453379
H97	H	1.355725	-0.432956	-0.004577
H98	H	1.855725	0.067044	0.495423
H99	H	1.263309	-0.503961	0.047746
H100	H	1.763309	-0.003961	0.547746
H101	H	1.244698	-0.230871	0.102338
H102	H	1.744698	0.269129	0.602338
O103	O	0.611309	0.086940	-0.000102
O104	O	1.111309	0.586940	0.499898
C105	C	0.560409	0.072765	-0.092603
C106	C	1.060409	0.572765	0.407397
H107	H	0.587833	0.115024	-0.157272
H108	H	1.087833	0.615024	0.342728
H109	H	0.571054	0.004398	-0.123657
H110	H	1.071054	0.504398	0.376343
H111	H	0.481186	0.087409	-0.071681
H112	H	0.981186	0.587409	0.428319
O113	O	0.962526	-0.214864	0.087185
O114	O	1.462526	0.285136	0.587185
C115	C	1.019095	-0.162240	0.149502
C116	C	1.519095	0.337760	0.649502
H117	H	1.082116	-0.140932	0.096881
H118	H	1.582116	0.359068	0.596881
H119	H	0.974254	-0.105166	0.184183
H120	H	1.474254	0.394834	0.684183
H121	H	1.046656	-0.198068	0.217834
H122	H	1.546656	0.301932	0.717834
O123	O	0.970783	-0.375888	-0.088040
O124	O	1.470783	0.124112	0.411960
C125	C	1.021738	-0.352461	-0.181932
C126	C	1.521738	0.147539	0.318068
H127	H	1.098606	-0.339525	-0.163799
H128	H	1.598606	0.160475	0.336201
H129	H	1.021112	-0.405413	-0.247181
H130	H	1.521112	0.094587	0.252819
H131	H	0.986702	-0.293505	-0.210741
H132	H	1.486702	0.206495	0.289259
H133	H	1.035593	0.266426	0.519307
H134	H	1.535593	0.766426	1.019307
O135	O	1.140895	-0.236697	-0.193053
O136	O	1.640895	0.263303	0.306947
C137	C	1.196152	-0.272962	-0.283280
C138	C	1.696152	0.227038	0.216720
H139	H	1.236200	-0.331348	-0.259843
H140	H	1.736200	0.168652	0.240157
H141	H	1.147362	-0.290949	-0.349671
H142	H	1.647362	0.209051	0.150329
H143	H	1.249575	-0.225916	-0.313285
H144	H	1.749575	0.274084	0.186715
H145	H	1.255649	-0.240696	-0.106144
H146	H	1.755649	0.259304	0.393856
H147	H	1.129564	-0.221096	0.178532
H148	H	1.629564	0.278904	0.678532
O149	O	1.139554	-0.389476	-0.192513
O150	O	1.639554	0.110524	0.307487
C151	C	1.208969	-0.441073	-0.253393
C152	C	1.708969	0.058927	0.246607
H153	H	1.264465	-0.464131	-0.198552
H154	H	1.764465	0.035869	0.301448
H155	H	1.173200	-0.497092	-0.292507
H156	H	1.673200	0.002908	0.207493
H157	H	1.245370	-0.403720	-0.318349
H158	H	1.745370	0.096280	0.181651
O159	O	1.111997	-0.368639	0.192414
O160	O	1.611997	0.131361	0.692414
C161	C	1.035187	-0.417805	0.162619
C162	C	1.535187	0.082195	0.662619
H163	H	1.052502	-0.448786	0.078747
H164	H	1.552502	0.051214	0.578747
H165	H	1.023085	-0.468167	0.222311
H166	H	1.523085	0.031833	0.722311
H167	H	0.967864	-0.376223	0.162705
H168	H	1.467864	0.123777	0.662705
O169	O	1.214278	0.121287	0.471838
O170	O	1.714278	0.621287	0.971838
C171	C	1.207061	0.126943	0.360567
C172	C	1.707061	0.626943	0.860567
H173	H	1.172912	0.190238	0.345259
H174	H	1.672912	0.690238	0.845259
H175	H	1.281356	0.120546	0.317624
H176	H	1.781356	0.620546	0.817624
H177	H	1.161080	0.074619	0.328840
H178	H	1.661080	0.574619	0.828840
H179	H	1.253623	-0.384011	-0.105232
H180	H	1.753623	0.115989	0.394768
