data_functionalizedCrystal
_audit_creation_method	'MofGen! by Chris Wilmer'
_symmetry_space_group_name_H-M	'P1'
_symmetry_Int_Tables_number	1
_symmetry_cell_setting	triclinic
loop_
_symmetry_equiv_pos_as_xyz
  x,y,z
_cell_length_a	21.295419
_cell_length_b	21.295417
_cell_length_c	13.897441
_cell_angle_alpha	89.965596
_cell_angle_beta	89.980254
_cell_angle_gamma	90.044503
loop_
_atom_site_label
_atom_site_type_symbol
_atom_site_fract_x
_atom_site_fract_y
_atom_site_fract_z
Zn1	Zn	0.962329	-0.250347	-0.545379
Zn2	Zn	1.295663	0.082987	-0.212046
Zn3	Zn	1.628996	0.416320	0.121288
Zn4	Zn	0.962242	-0.355624	-0.384067
Zn5	Zn	1.295575	-0.022290	-0.050734
Zn6	Zn	1.628909	0.311043	0.282600
Zn7	Zn	0.857061	-0.250400	-0.384094
Zn8	Zn	1.190395	0.082934	-0.050761
Zn9	Zn	1.523728	0.416267	0.282573
Zn10	Zn	0.857023	-0.355609	-0.545316
Zn11	Zn	1.190357	-0.022276	-0.211983
Zn12	Zn	1.523690	0.311058	0.121350
O13	O	0.909664	-0.302995	-0.464714
O14	O	1.242997	0.030339	-0.131381
O15	O	1.576331	0.363672	0.201953
O16	O	1.050407	-0.264296	-0.523995
O17	O	1.383740	0.069038	-0.190662
O18	O	1.717074	0.402371	0.142671
O19	O	0.948269	-0.341694	-0.249089
O20	O	1.281602	-0.008361	0.084245
O21	O	1.614936	0.324973	0.417578
O22	O	0.871078	-0.162303	-0.405526
O23	O	1.204411	0.171030	-0.072193
O24	O	1.537744	0.504364	0.261140
O25	O	1.050343	-0.341643	-0.405480
O26	O	1.383676	-0.008309	-0.072147
O27	O	1.717010	0.325024	0.261187
O28	O	0.948418	-0.162264	-0.524022
O29	O	1.281751	0.171069	-0.190688
O30	O	1.615084	0.504402	0.142645
O31	O	0.870993	-0.264386	-0.249109
O32	O	1.204326	0.068947	0.084225
O33	O	1.537660	0.402280	0.417558
O34	O	0.768967	-0.264372	-0.405466
O35	O	1.102300	0.068961	-0.072132
O36	O	1.435634	0.402295	0.261201
O37	O	0.871013	-0.341617	-0.680306
O38	O	1.204346	-0.008284	-0.346973
O39	O	1.537680	0.325049	-0.013640
O40	O	0.768939	-0.341669	-0.523915
O41	O	1.102272	-0.008335	-0.190582
O42	O	1.435606	0.324998	0.142752
O43	O	0.948381	-0.264282	-0.680352
O44	O	1.281714	0.069052	-0.347019
O45	O	1.615048	0.402385	-0.013686
O46	O	0.948232	-0.443711	-0.405419
O47	O	1.281565	-0.110378	-0.072086
O48	O	1.614899	0.222955	0.261247
O49	O	0.870928	-0.443700	-0.523889
O50	O	1.204262	-0.110367	-0.190555
O51	O	1.537595	0.222966	0.142778
C52	C	0.746112	-0.303025	-0.464687
C53	C	1.079446	0.030308	-0.131354
C54	C	1.412779	0.363642	0.201980
C55	C	0.676144	-0.303053	-0.464698
C56	C	1.009478	0.030280	-0.131365
C57	C	1.342811	0.363614	0.201968
C58	C	0.643333	-0.262844	-0.526505
C59	C	0.976667	0.070489	-0.193171
C60	C	1.310000	0.403822	0.140162
C61	C	0.577591	-0.262828	-0.526508
C62	C	0.910924	0.070506	-0.193175
C63	C	1.244258	0.403839	0.140158
C64	C	0.544662	-0.303030	-0.464716
C65	C	0.877995	0.030303	-0.131383
C66	C	1.211328	0.363636	0.201951
C67	C	0.577480	-0.343242	-0.402898
C68	C	0.910814	-0.009909	-0.069564
C69	C	1.244147	0.323425	0.263769
C70	C	0.643222	-0.343253	-0.402889
C71	C	0.976555	-0.009920	-0.069555
C72	C	1.309888	0.323413	0.263778
N73	N	0.441388	-0.358109	-0.457179
N74	N	0.774721	-0.024776	-0.123845
N75	N	1.108054	0.308558	0.209488
N76	N	0.378936	-0.358096	-0.457193
N77	N	0.712269	-0.024763	-0.123859
N78	N	1.045603	0.308570	0.209474
C79	C	0.346587	-0.302998	-0.464737
C80	C	0.679920	0.030335	-0.131404
C81	C	1.013254	0.363669	0.201930
N82	N	0.379049	-0.247911	-0.472286
N83	N	0.712382	0.085422	-0.138953
N84	N	1.045715	0.418756	0.194381
N85	N	0.441506	-0.247924	-0.472277
N86	N	0.774839	0.085409	-0.138944
N87	N	1.108173	0.418742	0.194390
C88	C	0.473376	-0.303022	-0.464718
C89	C	0.806710	0.030311	-0.131385
C90	C	1.140043	0.363644	0.201949
C91	C	0.242491	-0.262768	-0.526551
C92	C	0.575824	0.070566	-0.193217
C93	C	0.909157	0.403899	0.140116
C94	C	0.176747	-0.262750	-0.526548
C95	C	0.510080	0.070584	-0.193214
C96	C	0.843414	0.403917	0.140119
C97	C	0.176638	-0.343170	-0.402942
C98	C	0.509971	-0.009836	-0.069609
C99	C	0.843304	0.323497	0.263725
C100	C	0.242380	-0.343182	-0.402940
C101	C	0.575714	-0.009849	-0.069607
C102	C	0.909047	0.323485	0.263727
C103	C	0.275303	-0.302982	-0.464750
C104	C	0.608636	0.030352	-0.131416
C105	C	0.941969	0.363685	0.201917
C106	C	0.909584	-0.466546	-0.464665
C107	C	1.242917	-0.133213	-0.131332
C108	C	1.576250	0.200120	0.202001
C109	C	0.909607	-0.536515	-0.464677
C110	C	1.242940	-0.203181	-0.131343
C111	C	1.576274	0.130152	0.201990
C112	C	0.949855	-0.569304	-0.526421
C113	C	1.283188	-0.235970	-0.193088
C114	C	1.616522	0.097363	0.140246
C115	C	0.949877	-0.635046	-0.526445
C116	C	1.283210	-0.301713	-0.193112
C117	C	1.616544	0.031620	0.140222
C118	C	0.909658	-0.667997	-0.464707
C119	C	1.242991	-0.334664	-0.131374
C120	C	1.576325	-0.001330	0.201960
C121	C	0.869402	-0.635200	-0.402958
C122	C	1.202736	-0.301867	-0.069625
C123	C	1.536069	0.031467	0.263709
C124	C	0.869377	-0.569459	-0.402943
C125	C	1.202710	-0.236125	-0.069609
C126	C	1.536044	0.097208	0.263724
N127	N	0.904903	-0.771264	-0.380290
N128	N	1.238237	-0.437930	-0.046956
N129	N	1.571570	-0.104597	0.286377
N130	N	0.904931	-0.833715	-0.380307
N131	N	1.238264	-0.500382	-0.046973
N132	N	1.571598	-0.167049	0.286360
C133	C	0.909732	-0.866072	-0.464751
C134	C	1.243065	-0.532738	-0.131417
C135	C	1.576398	-0.199405	0.201916
N136	N	0.914515	-0.833617	-0.549178
N137	N	1.247849	-0.500284	-0.215845
N138	N	1.581182	-0.166951	0.117488
N139	N	0.914491	-0.771160	-0.549160
N140	N	1.247824	-0.437827	-0.215827
N141	N	1.581157	-0.104494	0.117507
C142	C	0.909681	-0.739282	-0.464717
C143	C	1.243014	-0.405949	-0.131384
C144	C	1.576348	-0.072616	0.201950
C145	C	0.950006	-0.970146	-0.526526
C146	C	1.283339	-0.636813	-0.193193
C147	C	1.616672	-0.303480	0.140141
C148	C	0.950024	-1.035890	-0.526552
C149	C	1.283357	-0.702557	-0.193218
C150	C	1.616690	-0.369223	0.140115
C151	C	0.869552	-1.036042	-0.403056
C152	C	1.202885	-0.702709	-0.069723
C153	C	1.536219	-0.369376	0.263611
C154	C	0.869531	-0.970300	-0.403039
C155	C	1.202864	-0.636967	-0.069706
C156	C	1.536198	-0.303633	0.263627
C157	C	0.909761	-0.937356	-0.464773
C158	C	1.243094	-0.604023	-0.131440
C159	C	1.576428	-0.270689	0.201894
C160	C	1.073854	-0.302965	-0.464742
C161	C	1.407188	0.030368	-0.131408
C162	C	1.740521	0.363702	0.201925
C163	C	1.143822	-0.302952	-0.464754
C164	C	1.477156	0.030381	-0.131420
C165	C	1.810489	0.363715	0.201913
C166	C	0.909703	-0.302942	-0.716307
C167	C	1.243036	0.030391	-0.382974
C168	C	1.576369	0.363725	-0.049640
C169	C	0.909719	-0.302919	-0.823521
C170	C	1.243052	0.030414	-0.490188
C171	C	1.576386	0.363747	-0.156854
C172	C	0.909762	-0.138804	-0.464784
C173	C	1.243095	0.194529	-0.131451
C174	C	1.576428	0.527862	0.201883
C175	C	0.909803	-0.068836	-0.464814
C176	C	1.243137	0.264497	-0.131481
C177	C	1.576470	0.597830	0.201853
C178	C	0.909732	-0.302902	-0.910591
C179	C	1.243065	0.030432	-0.577258
C180	C	1.576399	0.363765	-0.243924
C181	C	0.909750	-0.302873	-1.019824
C182	C	1.243083	0.030460	-0.686490
C183	C	1.576417	0.363793	-0.353157
C184	C	0.909662	-0.303002	-0.214100
C185	C	1.242995	0.030331	0.119234
C186	C	1.576329	0.363665	0.452567
C187	C	0.909767	-0.302847	-0.106886
C188	C	1.243101	0.030486	0.226447
C189	C	1.576434	0.363820	0.559780
H190	H	0.550665	-0.375975	-0.352585
H191	H	0.883999	-0.042642	-0.019252
H192	H	1.217332	0.290692	0.314082
H193	H	0.982647	-0.661748	-0.576736
H194	H	1.315980	-0.328415	-0.243403
H195	H	1.649313	0.004918	0.089931
H196	H	0.982762	-0.943322	-0.576797
H197	H	1.316095	-0.609989	-0.243463
H198	H	1.649428	-0.276656	0.089870
H199	H	0.269095	-0.375927	-0.352615
H200	H	0.602428	-0.042593	-0.019281
H201	H	0.935762	0.290740	0.314052
N202	N	0.991147	-1.069374	-0.589627
N203	N	1.324480	-0.736041	-0.256294
N204	N	1.657814	-0.402707	0.077040
N205	N	1.049232	-1.061966	-0.583300
N206	N	1.382565	-0.728633	-0.249966
N207	N	1.715899	-0.395300	0.083367
H208	H	1.078277	-1.085614	-0.627848
H209	H	1.411611	-0.752280	-0.294515
H210	H	1.744944	-0.418947	0.038818
H211	H	0.550871	-0.230082	-0.576837
H212	H	0.884205	0.103252	-0.243503
H213	H	1.217538	0.436585	0.089830
H214	H	0.669936	-0.375997	-0.352557
H215	H	1.003269	-0.042664	-0.019224
H216	H	1.336603	0.290670	0.314110
H217	H	0.150034	-0.230003	-0.576876
H218	H	0.483367	0.103330	-0.243543
H219	H	0.816700	0.436664	0.089790
N220	N	0.828319	-0.668865	-0.339906
N221	N	1.161653	-0.335531	-0.006573
N222	N	1.494986	-0.002198	0.326760
N223	N	0.828348	-0.727562	-0.339927
N224	N	1.161681	-0.394228	-0.006594
N225	N	1.495014	-0.060895	0.326740
H226	H	0.799329	-0.751338	-0.295398
H227	H	1.132663	-0.418005	0.037935
H228	H	1.465996	-0.084671	0.371268
N229	N	0.276115	-0.221699	-0.589684
N230	N	0.609449	0.111635	-0.256351
N231	N	0.942782	0.444968	0.076983
N232	N	0.246808	-0.185793	-0.644857
N233	N	0.580142	0.147540	-0.311523
N234	N	0.913475	0.480874	0.021810
H235	H	0.270554	-0.156786	-0.689444
H236	H	0.603887	0.176547	-0.356111
H237	H	0.937220	0.509881	-0.022778
H238	H	0.149828	-0.375903	-0.352629
H239	H	0.483161	-0.042570	-0.019296
H240	H	0.816494	0.290763	0.314037
N241	N	0.990951	-0.535663	-0.589485
N242	N	1.324285	-0.202330	-0.256152
N243	N	1.657618	0.131004	0.077182
N244	N	1.026884	-0.564952	-0.644612
N245	N	1.360218	-0.231619	-0.311278
N246	N	1.693551	0.101714	0.022055
H247	H	1.055909	-0.541193	-0.689153
H248	H	1.389242	-0.207860	-0.355819
H249	H	1.722576	0.125473	-0.022486
N250	N	0.676959	-0.221766	-0.589618
N251	N	1.010293	0.111567	-0.256284
N252	N	1.343626	0.444900	0.077049
N253	N	0.713667	-0.181628	-0.555786
N254	N	1.047000	0.151705	-0.222452
N255	N	1.380333	0.485039	0.110881
H256	H	0.737416	-0.152614	-0.600357
H257	H	1.070749	0.180719	-0.267024
H258	H	1.404082	0.514053	0.066310
N259	N	0.828260	-0.535955	-0.339882
N260	N	1.161594	-0.202621	-0.006549
N261	N	1.494927	0.130712	0.326785
N262	N	0.788123	-0.499300	-0.373763
N263	N	1.121456	-0.165967	-0.040429
N264	N	1.454790	0.167366	0.292904
H265	H	0.759082	-0.475637	-0.329227
H266	H	1.092416	-0.142304	0.004107
H267	H	1.425749	0.191030	0.337440
H268	H	0.836801	-1.062870	-0.352794
H269	H	1.170134	-0.729537	-0.019460
H270	H	1.503468	-0.396204	0.313873
H271	H	0.836760	-0.943601	-0.352757
H272	H	1.170093	-0.610268	-0.019423
H273	H	1.503427	-0.276935	0.313910
