data_functionalizedCrystal
_audit_creation_method	'MofGen! by Chris Wilmer'
_symmetry_space_group_name_H-M	'P1'
_symmetry_Int_Tables_number	1
_symmetry_cell_setting	triclinic
loop_
_symmetry_equiv_pos_as_xyz
  x,y,z
_cell_length_a	9.065218
_cell_length_b	15.186229
_cell_length_c	9.065218
_cell_angle_alpha	89.998095
_cell_angle_beta	94.984115
_cell_angle_gamma	90.003435
loop_
_atom_site_label
_atom_site_type_symbol
_atom_site_fract_x
_atom_site_fract_y
_atom_site_fract_z
O1	O	1.960399	0.073227	-0.216355
O2	O	1.531114	0.073228	-0.234101
O3	O	1.754630	0.073226	-0.010586
O4	O	1.736884	0.073229	-0.439871
O5	O	1.754615	-0.073232	-0.010582
O6	O	1.531099	-0.073229	-0.234098
O7	O	1.960384	-0.073230	-0.216352
Zn8	Zn	1.745739	-0.096483	-0.225224
Zn9	Zn	1.745759	0.096481	-0.225229
O10	O	1.736868	-0.073228	-0.439867
C11	C	1.476120	-0.000001	-0.232394
C12	C	1.312277	-0.000000	-0.227294
N13	N	1.745736	-0.228176	-0.225220
C14	C	1.844744	-0.453900	-0.126282
C15	C	1.844748	-0.546089	-0.126278
C16	C	1.646756	-0.546096	-0.324164
C17	C	1.646745	-0.453908	-0.324159
C18	C	1.745747	-0.407812	-0.225220
C19	C	1.745763	-0.592190	-0.225221
C20	C	1.745767	-0.692146	-0.225218
C21	C	1.745742	-0.307850	-0.225221
C22	C	2.015378	0.000000	-0.218059
C23	C	2.179221	0.000005	-0.223158
C24	C	1.752917	-0.000002	0.044403
C25	C	1.747817	0.000003	0.208245
N26	N	1.745774	0.228173	-0.225221
C27	C	1.738582	0.000001	-0.494855
C28	C	1.743681	0.000003	-0.658698
H29	H	1.925358	-0.583611	-0.045712
H30	H	1.925355	-0.416370	-0.045717
O31	O	1.550781	-0.409038	-0.420344
C32	C	1.522060	-0.304987	-0.621479
C33	C	1.630898	-0.355731	-0.512623
H34	H	1.586792	-0.261891	-0.696135
H35	H	1.447516	-0.261776	-0.556825
H36	H	1.451283	-0.353785	-0.692135
H37	H	1.701772	-0.306997	-0.441940
H38	H	1.705341	-0.398956	-0.577366
O39	O	1.550741	-0.591012	-0.420225
C40	C	1.462956	-0.733035	-0.507882
C41	C	1.571791	-0.682281	-0.399033
H42	H	1.479915	-0.806835	-0.490766
H43	H	1.483760	-0.714967	-0.626366
H44	H	1.344532	-0.714869	-0.487027
H45	H	1.690256	-0.700421	-0.419753
H46	H	1.550858	-0.700355	-0.280585
