data_functionalizedCrystal
_audit_creation_method	'MofGen! by Chris Wilmer'
_symmetry_space_group_name_H-M	'P1'
_symmetry_Int_Tables_number	1
_symmetry_cell_setting	triclinic
loop_
_symmetry_equiv_pos_as_xyz
  x,y,z
_cell_length_a	16.109301
_cell_length_b	15.944551
_cell_length_c	14.421503
_cell_angle_alpha	89.990248
_cell_angle_beta	89.997488
_cell_angle_gamma	83.480109
loop_
_atom_site_label
_atom_site_type_symbol
_atom_site_fract_x
_atom_site_fract_y
_atom_site_fract_z
O1	O	1.103167	0.107972	-0.077055
O2	O	1.603167	0.607972	0.422945
O3	O	0.861110	0.121408	-0.077070
O4	O	1.361110	0.621408	0.422930
O5	O	0.988748	-0.007587	-0.077054
O6	O	1.488748	0.492413	0.422946
O7	O	0.975528	0.236967	-0.077071
O8	O	1.475528	0.736967	0.422929
O9	O	0.988737	-0.007600	0.077170
O10	O	1.488737	0.492400	0.577170
O11	O	0.861098	0.121395	0.077153
O12	O	1.361098	0.621395	0.577153
O13	O	1.103155	0.107958	0.077168
O14	O	1.603155	0.607958	0.577168
Cu15	Cu	0.982126	0.114675	0.091243
Cu16	Cu	1.482126	0.614675	0.591243
Cu17	Cu	0.982139	0.114692	-0.091144
Cu18	Cu	1.482139	0.614692	0.408856
O19	O	0.975517	0.236954	0.077152
O20	O	1.475517	0.736954	0.577152
C21	C	0.830129	0.120857	0.000040
C22	C	1.330129	0.620857	0.500040
C23	C	0.737833	0.119226	0.000034
C24	C	1.237833	0.619226	0.500034
C25	C	0.515584	0.191975	0.000040
C26	C	1.015584	0.691975	0.500040
C27	C	0.428863	0.190435	0.000046
C28	C	0.928863	0.690435	0.500046
C29	C	0.448688	0.037387	0.000053
C30	C	0.948688	0.537387	0.500053
C31	C	0.535407	0.038927	0.000054
C32	C	1.035407	0.538927	0.500054
C33	C	0.568853	0.116224	0.000042
C34	C	1.068853	0.616224	0.500042
C35	C	0.395412	0.113143	0.000048
C36	C	0.895412	0.613143	0.500048
C37	C	0.301386	0.111473	0.000054
C38	C	0.801386	0.611473	0.500054
C39	C	0.662885	0.117894	0.000038
C40	C	1.162885	0.617894	0.500038
C41	C	0.988194	-0.038887	0.000058
C42	C	1.488194	0.461113	0.500058
C43	C	0.986548	-0.132133	0.000059
C44	C	1.486548	0.367867	0.500059
C45	C	0.903499	-0.346962	0.000041
C46	C	1.403499	0.153038	0.500041
C47	C	0.942059	-0.407999	0.076084
C48	C	1.442059	0.092001	0.576084
C49	C	0.983572	-0.302858	0.000051
C50	C	1.483572	0.197142	0.500051
C51	C	0.942089	-0.407969	-0.075968
C52	C	1.442089	0.092031	0.424032
C53	C	0.980691	-0.467769	0.000040
C54	C	1.480691	0.032231	0.500040
C55	C	1.022153	-0.362666	0.076158
C56	C	1.522153	0.137334	0.576158
C57	C	1.022173	-0.362630	-0.075963
C58	C	1.522173	0.137370	0.424037
C59	C	1.060790	-0.423649	0.000100
C60	C	1.560790	0.076351	0.500100
C61	C	0.985229	-0.207856	0.000058
C62	C	1.485229	0.292144	0.500058
C63	C	0.979039	-0.562770	0.000040
C64	C	1.479039	-0.062770	0.500040
C65	C	1.134136	0.108510	0.000056
C66	C	1.634136	0.608510	0.500056
C67	C	1.226432	0.110141	0.000056
C68	C	1.726432	0.610141	0.500056
C69	C	0.976071	0.268254	0.000038
C70	C	1.476071	0.768254	0.500038
C71	C	0.977717	0.361500	0.000032
C72	C	1.477717	0.861500	0.500032
N73	N	0.982122	0.114663	0.219524
N74	N	1.482122	0.614663	0.719524
N75	N	0.982150	0.114697	-0.219426
N76	N	1.482150	0.614697	0.280574
C77	C	1.040699	0.054542	0.530960
C78	C	1.540699	0.554542	1.030960
C79	C	1.057513	0.130206	0.469120
C80	C	1.557513	0.630206	0.969120
C81	C	0.982141	0.114687	0.591413
C82	C	1.482141	0.614687	1.091413
C83	C	0.965356	0.039013	0.469160
C84	C	1.465356	0.539013	0.969160
C85	C	0.982134	0.114671	0.408692
C86	C	1.482134	0.614671	0.908692
C87	C	0.998992	0.190391	0.530933
C88	C	1.498992	0.690391	1.030933
C89	C	0.906802	0.099147	0.530979
C90	C	1.406802	0.599147	1.030979
C91	C	0.923585	0.174867	0.469166
C92	C	1.423585	0.674867	0.969166
C93	C	0.982147	0.114695	0.696674
C94	C	1.482147	0.614695	1.196674
C95	C	0.982127	0.114672	0.303433
C96	C	1.482127	0.614672	0.803433
H97	H	0.385495	0.252119	0.000046
H98	H	0.885495	0.752119	0.500046
H99	H	0.908216	-0.428029	-0.140261
H100	H	1.408216	0.071971	0.359739
F101	F	0.551176	0.274240	0.000032
F102	F	1.051176	0.774240	0.500032
H103	H	1.013254	0.254396	0.557955
H104	H	1.513254	0.754396	1.057955
H105	H	0.843113	0.085979	0.558170
H106	H	1.343113	0.585979	1.058170
F107	F	1.105472	-0.011857	0.566427
F108	F	1.605472	0.488143	1.066427
F109	F	1.140781	0.147376	0.433584
F110	F	1.640781	0.647376	0.933584
H111	H	0.421446	-0.025546	0.000068
H112	H	0.921446	0.474454	0.500068
F113	F	1.147739	-0.467021	0.000158
F114	F	1.647739	0.032979	0.500158
H115	H	0.578781	-0.022762	0.000058
H116	H	1.078781	0.477238	0.500058
F117	F	0.858851	0.241410	0.433920
F118	F	1.358851	0.741410	0.933920
H119	H	0.951163	-0.024978	0.442023
H120	H	1.451163	0.475022	0.942023
H121	H	0.837035	-0.313632	0.000112
H122	H	1.337035	0.186368	0.500112
H123	H	0.908186	-0.428102	0.140369
H124	H	1.408186	0.071898	0.640369
H125	H	1.055988	-0.342693	0.140518
H126	H	1.555988	0.157307	0.640518
H127	H	1.056016	-0.342505	-0.140251
H128	H	1.556016	0.157495	0.359749
