data_functionalizedCrystal
_audit_creation_method	'MofGen! by Chris Wilmer'
_symmetry_space_group_name_H-M	'P1'
_symmetry_Int_Tables_number	1
_symmetry_cell_setting	triclinic
loop_
_symmetry_equiv_pos_as_xyz
  x,y,z
_cell_length_a	29.839134
_cell_length_b	15.300062
_cell_length_c	15.296720
_cell_angle_alpha	69.243975
_cell_angle_beta	80.347432
_cell_angle_gamma	80.349836
loop_
_atom_site_label
_atom_site_type_symbol
_atom_site_fract_x
_atom_site_fract_y
_atom_site_fract_z
Zn1	Zn	0.675651	-0.461265	0.590209
Zn2	Zn	0.697763	-0.589857	0.461644
Zn3	Zn	0.611619	-0.434384	0.434696
Zn4	Zn	0.611578	-0.616671	0.617062
O5	O	0.649153	-0.525544	0.525903
O6	O	0.741450	-0.478351	0.573195
O7	O	0.695607	-0.546762	0.327944
O8	O	0.610876	-0.307847	0.432809
O9	O	0.757696	-0.572827	0.478739
O10	O	0.657920	-0.327596	0.547064
O11	O	0.632318	-0.432537	0.308144
O12	O	0.548748	-0.458537	0.458847
O13	O	0.610807	-0.618527	0.743626
O14	O	0.548718	-0.592462	0.592831
O15	O	0.657880	-0.504351	0.723897
O16	O	0.695568	-0.723517	0.504777
O17	O	0.632248	-0.743217	0.618962
C18	C	0.666314	-0.767105	0.567728
C19	C	0.673694	-0.870451	0.585652
C20	C	0.532432	-0.525493	0.525829
C21	C	0.482499	-0.525498	0.525823
C22	C	0.701626	-0.929206	0.653593
C23	C	0.708563	-1.026306	0.670442
C24	C	0.687573	-1.064660	0.619345
C25	C	0.659643	-1.005905	0.551398
C26	C	0.652702	-0.908796	0.534553
C27	C	0.638650	-1.044251	0.500305
C28	C	0.610720	-0.985495	0.432357
C29	C	0.603780	-0.888396	0.415515
C30	C	0.624770	-0.850042	0.466611
C31	C	0.645591	-1.141359	0.517150
C32	C	0.596667	-1.120950	0.398109
C33	C	0.589730	-1.023850	0.381261
C34	C	0.172858	-0.595354	0.595611
C35	C	-0.014816	-0.595388	0.595657
O36	O	-0.039079	-0.654731	0.654945
N37	N	-0.038292	-0.525590	0.525979
C38	C	-0.014846	-0.455776	0.456288
O39	O	-0.039121	-0.396405	0.397030
C40	C	0.172826	-0.455740	0.456247
C41	C	0.196300	-0.525547	0.525924
C42	C	0.196332	-0.665155	0.665282
C43	C	0.243248	-0.665149	0.665267
C44	C	0.266690	-0.595342	0.595580
C45	C	0.243216	-0.525541	0.525909
C46	C	0.196270	-0.385923	0.386561
C47	C	0.243191	-0.385919	0.386558
C48	C	0.266665	-0.455726	0.456235
C49	C	0.313575	-0.455728	0.456207
N50	N	0.337050	-0.525525	0.525884
C51	C	0.313608	-0.595332	0.595571
C52	C	-0.113377	-0.455801	0.456314
C53	C	-0.160295	-0.455811	0.456323
C54	C	-0.160262	-0.595422	0.595692
C55	C	-0.113342	-0.595415	0.595679
C56	C	-0.089902	-0.525599	0.525991
C57	C	0.412136	-0.595315	0.595534
C58	C	0.459056	-0.595304	0.595510
C59	C	0.459019	-0.455692	0.456144
C60	C	0.412103	-0.455704	0.456164
C61	C	0.388662	-0.525520	0.525867
O62	O	0.337866	-0.396409	0.396955
O63	O	0.337889	-0.654683	0.654833
C64	C	0.125942	-0.595360	0.595626
C65	C	0.102468	-0.525559	0.525954
C66	C	0.125910	-0.455752	0.456267
C67	C	0.055550	-0.525569	0.525963
C68	C	0.032108	-0.595376	0.595650
C69	C	0.055583	-0.665173	0.665328
C70	C	0.102499	-0.665167	0.665313
C71	C	0.102435	-0.385955	0.386589
C72	C	0.055518	-0.385968	0.386610
C73	C	0.032076	-0.455775	0.456296
C74	C	0.766329	-0.525596	0.525978
C75	C	0.816263	-0.525618	0.526010
C76	C	0.631872	-0.567428	0.768445
C77	C	0.624508	-0.585277	0.871803
C78	C	0.631936	-0.283044	0.483935
C79	C	0.624599	-0.179704	0.466051
C80	C	0.666387	-0.483756	0.284292
C81	C	0.673820	-0.465645	0.180890
C82	C	0.701790	-0.397815	1.122064
C83	C	0.708711	-0.381047	1.024955
C84	C	0.687661	-0.432103	0.986662
C85	C	0.659688	-0.499930	1.045488
C86	C	0.652768	-0.516705	1.142607
C87	C	0.638640	-0.550992	1.007205
C88	C	0.610667	-0.618820	1.066031
C89	C	0.603748	-0.635591	1.163140
C90	C	0.624799	-0.584535	1.201433
C91	C	0.645560	-0.534218	0.910086
C92	C	0.596538	-0.653108	0.930629
C93	C	0.589617	-0.669875	1.027738
H94	H	0.693223	-1.143725	0.633068
H95	H	0.581034	-0.840558	0.360195
H96	H	0.566989	-0.975999	0.325937
H97	H	0.036488	-0.722015	0.722067
H98	H	-0.094296	-0.398947	0.399561
C99	C	0.386546	-0.379875	0.380660
C100	C	0.351632	-0.329493	0.423132
C101	C	0.328080	-0.259626	0.353616
H102	H	0.407176	-0.338212	0.339127
H103	H	0.373613	-0.408326	0.346236
H104	H	0.364564	-0.301042	0.457540
H105	H	0.330992	-0.371129	0.464659
H106	H	0.315148	-0.288077	0.319192
H107	H	0.348714	-0.217970	0.312087
H108	H	0.304386	-0.225439	0.382424
C109	C	0.675881	-1.205305	0.590906
C110	C	0.677460	-1.298557	0.594743
C111	C	0.705357	-1.357490	0.662688
H112	H	0.705917	-1.187121	0.574672
H113	H	0.663691	-1.200220	0.650636
H114	H	0.689652	-1.303638	0.535026
H115	H	0.647432	-1.316769	0.610989
H116	H	0.693167	-1.352405	0.722418
H117	H	0.735390	-1.339298	0.646447
H118	H	0.706428	-1.420769	0.665306
H119	H	0.718929	-0.356258	1.153253
H120	H	0.731307	-1.074137	0.725760
C121	C	0.573745	-0.708708	0.889140
C122	C	0.588384	-0.804779	0.928665
C123	C	0.567405	-0.856024	0.890452
H124	H	0.541456	-0.697955	0.902661
H125	H	0.581880	-0.689063	0.822879
H126	H	0.580246	-0.824418	0.994910
H127	H	0.620671	-0.815561	0.915146
H128	H	0.575540	-0.836379	0.824192
H129	H	0.535117	-0.845263	0.903976
H130	H	0.577338	-0.921212	0.917258
H131	H	0.731488	-0.325824	0.977066
H132	H	0.580975	-0.690828	1.211036
C133	C	0.559170	-0.743397	1.091543
C134	C	0.514963	-0.719041	1.064407
C135	C	0.486903	-0.786739	1.123171
H136	H	0.571253	-0.803161	1.086490
H137	H	0.558034	-0.746065	1.154870
H138	H	0.516101	-0.716383	1.001096
H139	H	0.502867	-0.659288	1.069465
H140	H	0.485766	-0.789407	1.186498
H141	H	0.498989	-0.846498	1.118114
H142	H	0.456904	-0.770218	1.104773
C143	C	-0.087817	-0.671059	0.671362
C144	C	-0.068853	-0.628811	0.721935
C145	C	-0.045334	-0.698464	0.791657
H146	H	-0.108455	-0.712669	0.712954
H147	H	-0.064080	-0.705349	0.642753
H148	H	-0.092587	-0.594537	0.750542
H149	H	-0.048208	-0.587207	0.680369
H150	H	-0.021597	-0.732754	0.763049
H151	H	-0.065975	-0.740070	0.833243
H152	H	-0.032461	-0.669809	0.825974
C153	C	0.573932	-1.162754	0.342695
C154	C	0.585998	-1.260365	0.371971
C155	C	0.565068	-1.298913	0.320945
H156	H	0.541638	-1.149333	0.353450
H157	H	0.583852	-1.136119	0.277460
H158	H	0.576076	-1.286991	0.437191
H159	H	0.618290	-1.273814	0.361214
H160	H	0.574988	-1.272278	0.255710
H161	H	0.532774	-1.285485	0.331704
H162	H	0.573255	-1.365144	0.340795
C163	C	0.170843	-0.740822	0.741036
C164	C	0.135935	-0.698605	0.791661
C165	C	0.112454	-0.768290	0.861461
H166	H	0.157909	-0.775168	0.712521
H167	H	0.191530	-0.782377	0.782574
H168	H	0.115251	-0.657066	0.750130
H169	H	0.148856	-0.664265	0.820198
H170	H	0.133141	-0.809845	0.902999
H171	H	0.099522	-0.802632	0.832937
H172	H	0.088768	-0.739657	0.895824
C173	C	0.724390	-0.887379	0.708935
C174	C	0.712339	-0.789762	0.679624
C175	C	0.733307	-0.751199	0.730580
H176	H	0.714495	-0.913959	0.774175
H177	H	0.756685	-0.900843	0.698126
H178	H	0.680050	-0.776305	0.690440
H179	H	0.722234	-0.763156	0.614391
H180	H	0.765603	-0.764663	0.719771
H181	H	0.723411	-0.777787	0.795818
H182	H	0.725137	-0.684962	0.710694
C183	C	0.484456	-0.671150	0.671274
C184	C	0.453877	-0.732266	0.732319
C185	C	0.477255	-0.802135	0.802129
H186	H	0.508167	-0.705552	0.642757
H187	H	0.497340	-0.642681	0.705750
H188	H	0.441000	-0.760733	0.697848
H189	H	0.430165	-0.697892	0.760859
H190	H	0.490139	-0.773666	0.836606
H191	H	0.500965	-0.836529	0.773604
H192	H	0.456510	-0.843605	0.843562
H193	H	0.262273	-0.329060	0.329814
C194	C	0.617139	-0.744617	0.448332
C195	C	0.570383	-0.716634	0.466383
C196	C	0.563336	-0.619523	0.449549
H197	H	0.633600	-0.730076	0.488470
H198	H	0.627608	-0.712261	0.384518
H199	H	0.559919	-0.748980	0.530187
H200	H	0.553913	-0.731151	0.426249
H201	H	0.573805	-0.587167	0.385734
H202	H	0.579799	-0.604992	0.489688
H203	H	0.531611	-0.600523	0.461785
H204	H	0.393055	-0.652163	0.652294
C205	C	-0.185677	-0.671182	0.671500
C206	C	-0.182227	-0.666975	0.760053
C207	C	-0.205631	-0.736749	0.829909
H208	H	-0.216992	-0.661265	0.661658
H209	H	-0.172569	-0.731292	0.668670
H210	H	-0.195336	-0.606879	0.762880
H211	H	-0.150918	-0.676903	0.769925
H212	H	-0.192524	-0.796859	0.827080
H213	H	-0.236945	-0.726826	0.820058
H214	H	-0.203291	-0.733910	0.890000
C215	C	-0.185700	-0.379918	0.380613
C216	C	-0.155125	-0.318772	0.319603
C217	C	-0.178512	-0.248836	0.249857
H218	H	-0.198598	-0.408294	0.346085
H219	H	-0.209404	-0.345565	0.409219
H220	H	-0.131429	-0.353121	0.290999
H221	H	-0.142226	-0.290373	0.354104
H222	H	-0.202216	-0.214482	0.278463
H223	H	-0.191409	-0.277220	0.215337
H224	H	-0.157771	-0.207335	0.208459
C225	C	0.268643	-0.740988	0.741033
C226	C	0.238060	-0.802099	0.802072
C227	C	0.261433	-0.871967	0.871891
H228	H	0.292356	-0.775394	0.712524
H229	H	0.281525	-0.712518	0.775512
H230	H	0.225186	-0.830567	0.767597
H231	H	0.214347	-0.767721	0.830604
H232	H	0.274315	-0.843498	0.906371
H233	H	0.285145	-0.906365	0.843374
H234	H	0.240685	-0.913434	0.913319
H235	H	0.478114	-0.398859	0.399404
H236	H	0.693299	-0.418446	0.907591
H237	H	0.177166	-0.329080	0.329820
C238	C	0.030112	-0.310063	0.310901
C239	C	0.060687	-0.248917	0.249890
C240	C	0.037299	-0.178973	0.180152
H241	H	0.017210	-0.338432	0.276372
H242	H	0.006411	-0.275710	0.339514
H243	H	0.084380	-0.283265	0.221279
H244	H	0.073590	-0.220525	0.284392
H245	H	0.013598	-0.144620	0.208765
H246	H	0.024398	-0.207351	0.145630
H247	H	0.058040	-0.137473	0.138753
C248	C	0.127954	-0.310304	0.310891
C249	C	0.162872	-0.352545	0.260306
C250	C	0.186391	-0.282884	0.190565
H251	H	0.107306	-0.268706	0.269309
H252	H	0.140879	-0.276002	0.339484
H253	H	0.149947	-0.386831	0.231714
H254	H	0.183530	-0.394137	0.301862
H255	H	0.199317	-0.248582	0.219158
H256	H	0.165740	-0.241290	0.148990
H257	H	0.210088	-0.311535	0.156241
H258	H	0.121608	-0.722011	0.722051
H259	H	0.668335	-0.478991	0.862199
H260	H	0.619164	-0.598184	1.280507
