data_functionalizedCrystal
_audit_creation_method	'MofGen! by Chris Wilmer'
_symmetry_space_group_name_H-M	'P1'
_symmetry_Int_Tables_number	1
_symmetry_cell_setting	triclinic
loop_
_symmetry_equiv_pos_as_xyz
  x,y,z
_cell_length_a	10.654550
_cell_length_b	14.750779
_cell_length_c	10.654551
_cell_angle_alpha	102.764234
_cell_angle_beta	84.485132
_cell_angle_gamma	77.237079
loop_
_atom_site_label
_atom_site_type_symbol
_atom_site_fract_x
_atom_site_fract_y
_atom_site_fract_z
O1	O	1.640793	0.079896	0.203433
O2	O	1.275320	0.079880	0.220234
O3	O	1.466458	0.079889	0.029095
O4	O	1.449654	0.079887	0.394573
O5	O	1.520491	-0.079759	-0.024932
O6	O	1.329352	-0.079768	0.166207
O7	O	1.694825	-0.079752	0.149407
Zn8	Zn	1.520668	-0.105107	0.149229
Zn9	Zn	1.449477	0.105236	0.220412
O10	O	1.503687	-0.079760	0.340546
C11	C	1.255539	0.000054	0.191986
C12	C	1.116097	0.000049	0.188292
N13	N	1.569262	-0.248661	0.100648
C14	C	1.036608	0.000062	0.300838
C15	C	0.905581	0.000079	0.297367
C16	C	0.933546	0.000072	0.068796
C17	C	1.064572	0.000049	0.072266
C18	C	1.088133	0.000062	0.416865
C19	C	1.008642	0.000076	0.529420
C20	C	0.877615	0.000093	0.525949
C21	C	0.826080	0.000095	0.409923
C22	C	1.265174	-0.600493	0.404607
C23	C	1.299235	-0.700990	0.370573
C24	C	1.468524	-0.700945	0.201382
C25	C	1.434473	-0.600446	0.235398
C26	C	1.332798	-0.550227	0.337012
C27	C	1.502097	-0.550180	0.167803
C28	C	1.468052	-0.449689	0.201821
C29	C	1.366384	-0.399464	0.303434
C30	C	1.298754	-0.449737	0.371030
C31	C	1.603778	-0.600400	0.066196
C32	C	1.671402	-0.550135	-0.001399
C33	C	1.637351	-0.449642	0.032612
C34	C	1.535683	-0.399417	0.134225
C35	C	1.704982	-0.399370	-0.034984
C36	C	1.670937	-0.298879	-0.000966
C37	C	1.501638	-0.298926	0.168243
C38	C	1.714606	0.000076	0.177655
C39	C	1.854045	0.000089	0.181351
C40	C	1.492240	0.000067	-0.044716
C41	C	1.488545	0.000074	-0.184157
N42	N	1.400893	0.248789	0.268983
C43	C	1.457360	0.087096	-0.220219
C44	C	1.453882	0.087091	-0.351241
C45	C	1.512781	-0.086965	-0.410130
C46	C	1.516250	-0.086960	-0.279109
C47	C	1.429656	0.174129	-0.125267
C48	C	1.398470	0.261159	-0.161328
C49	C	1.394991	0.261154	-0.292350
C50	C	1.422698	0.174120	-0.387311
C51	C	1.477905	0.000064	0.414357
C52	C	1.481597	0.000064	0.553800
H53	H	1.194818	0.000053	0.419705
H54	H	1.369585	0.332018	-0.321704
H55	H	1.215951	-0.408847	0.453766
H56	H	1.338670	-0.317638	0.331134
O57	O	1.637058	-0.698017	0.033019
C58	C	1.778768	-0.842198	-0.108685
C59	C	1.741233	-0.731650	-0.071229
H60	H	1.862979	-0.869424	-0.192991
H61	H	1.809555	-0.869533	-0.021455
H62	H	1.691478	-0.869481	-0.139392
H63	H	1.828468	-0.704285	-0.040547
H64	H	1.710398	-0.704381	-0.158489
O65	O	1.058891	0.000116	0.642029
C66	C	1.248364	0.000040	0.748662
C67	C	1.191621	0.000017	0.621052
H68	H	1.355690	-0.000061	0.731740
H69	H	1.193199	0.066873	0.826967
H70	H	1.238220	-0.066752	0.781734
H71	H	1.201753	0.066763	0.587862
H72	H	1.246795	-0.066861	0.542829
H73	H	1.244160	-0.741912	0.425627
O74	O	0.800231	0.000064	0.635146
C75	C	0.585966	0.000165	0.731128
C76	C	0.673465	0.000167	0.607355
H77	H	0.483451	0.000269	0.708710
H78	H	0.627330	-0.066662	0.765579
H79	H	0.582327	0.066962	0.810764
H80	H	0.677140	-0.066585	0.527634
H81	H	0.632068	0.067038	0.573015
H82	H	0.719393	0.000094	0.407101
H83	H	0.891570	0.000090	-0.025662
O84	O	1.403006	-0.250176	0.267107
C85	C	1.320850	-0.219482	0.495190
C86	C	1.432648	-0.274735	0.383359
H87	H	1.344764	-0.239332	0.589201
H88	H	1.308140	-0.139014	0.507999
H89	H	1.226826	-0.239245	0.471129
H90	H	1.526736	-0.255052	0.407336
H91	H	1.445244	-0.355189	0.370577
O92	O	1.166406	-0.551851	0.503384
C93	C	1.002012	-0.562489	0.667570
C94	C	1.113849	-0.617696	0.555759
H95	H	0.959469	-0.615701	0.709930
H96	H	1.040781	-0.515460	0.746823
H97	H	0.922924	-0.515426	0.628665
H98	H	1.192977	-0.664811	0.594544
H99	H	1.074981	-0.664664	0.476527
O100	O	1.736717	-0.250193	-0.066798
C101	C	1.908279	-0.260743	-0.238167
C102	C	1.833866	-0.315998	-0.163744
H103	H	1.986858	-0.313922	-0.316546
H104	H	1.837649	-0.213730	-0.285580
H105	H	1.955478	-0.213658	-0.167395
H106	H	1.786662	-0.363135	-0.234432
H107	H	1.904554	-0.362950	-0.116311
H108	H	1.535339	-0.157824	-0.487457
H109	H	1.754190	-0.591034	-0.084131
H110	H	1.129294	0.000040	-0.019378
H111	H	1.375900	0.332018	-0.084001
O112	O	1.546598	-0.171578	-0.244296
C113	C	1.604509	-0.344219	-0.316503
C114	C	1.570216	-0.248458	-0.356115
H115	H	1.623587	-0.406402	-0.406882
H116	H	1.695378	-0.348651	-0.267410
H117	H	1.519850	-0.348493	-0.245863
H118	H	1.654792	-0.244121	-0.426794
H119	H	1.479305	-0.244067	-0.405136
H120	H	1.551313	-0.741844	0.118650
H121	H	1.787775	-0.440270	-0.117711
H122	H	1.432488	0.174143	-0.018580
H123	H	1.419845	0.174124	-0.493993
