data_functionalizedCrystal
_audit_creation_method	'MofGen! by Chris Wilmer'
_symmetry_space_group_name_H-M	'P1'
_symmetry_Int_Tables_number	1
_symmetry_cell_setting	triclinic
loop_
_symmetry_equiv_pos_as_xyz
  x,y,z
_cell_length_a	25.639239
_cell_length_b	12.759395
_cell_length_c	12.759387
_cell_angle_alpha	89.981185
_cell_angle_beta	89.962425
_cell_angle_gamma	90.040223
loop_
_atom_site_label
_atom_site_type_symbol
_atom_site_fract_x
_atom_site_fract_y
_atom_site_fract_z
Zn1	Zn	-0.208096	1.606076	-0.593964
Zn2	Zn	-0.295543	1.605898	-0.418267
Zn3	Zn	-0.208126	1.430379	-0.418301
Zn4	Zn	-0.295504	1.430293	-0.593906
O5	O	-0.251817	1.518162	-0.506110
O6	O	-0.219700	1.753074	-0.570668
O7	O	-0.283976	1.582577	-0.271250
O8	O	-0.134957	1.453796	-0.441641
O9	O	-0.283947	1.752943	-0.441584
O10	O	-0.134935	1.582880	-0.570700
O11	O	-0.219751	1.453624	-0.271275
O12	O	-0.219713	1.283347	-0.441585
O13	O	-0.283881	1.453649	-0.740935
O14	O	-0.283910	1.283283	-0.570602
O15	O	-0.219662	1.582796	-0.740978
O16	O	-0.368703	1.582493	-0.441528
O17	O	-0.368675	1.453477	-0.570569
C18	C	-0.251811	1.245194	-0.506092
C19	C	-0.251821	1.128418	-0.506109
C20	C	-0.318777	1.128390	-0.640236
C21	C	-0.352259	1.073515	-0.707303
C22	C	-0.352265	0.963794	-0.707316
C23	C	-0.318785	0.908944	-0.640257
C24	C	-0.285303	0.963819	-0.573190
C25	C	-0.285301	1.073543	-0.573182
C26	C	-0.218345	0.963846	-0.439070
C27	C	-0.218340	1.073568	-0.439050
C28	C	-0.184865	0.908997	-0.372011
C29	C	-0.151384	0.963871	-0.304937
C30	C	-0.151380	1.073600	-0.304926
C31	C	-0.184858	1.128443	-0.371983
C32	C	-0.387660	1.517985	-0.506062
C33	C	-0.445774	1.518006	-0.506076
C34	C	-0.806139	1.585516	-0.439032
C35	C	-0.860744	1.585557	-0.439046
O36	O	-0.888982	1.642773	-0.381991
N37	N	-0.888056	1.518346	-0.506179
C38	C	-0.860762	1.451099	-0.573310
O39	O	-0.889008	1.393935	-0.630414
C40	C	-0.806159	1.451064	-0.573300
C41	C	-0.778849	1.518271	-0.506156
C42	C	-0.778829	1.652718	-0.371894
C43	C	-0.724229	1.652676	-0.371879
C44	C	-0.696938	1.585431	-0.439002
C45	C	-0.724248	1.518229	-0.506140
C46	C	-0.778865	1.383822	-0.640436
C47	C	-0.724258	1.383794	-0.640421
C48	C	-0.696948	1.451001	-0.573276
C49	C	-0.642357	1.450941	-0.573249
N50	N	-0.615044	1.518152	-0.506116
C51	C	-0.642335	1.585397	-0.438992
C52	C	-0.975433	1.451178	-0.573326
C53	C	-1.030035	1.451206	-0.573331
C54	C	-1.030013	1.585666	-0.439069
C55	C	-0.975410	1.585631	-0.439059
C56	C	-0.948120	1.518388	-0.506193
C57	C	-0.527670	1.585302	-0.438965
C58	C	-0.473065	1.585250	-0.438953
C59	C	-0.473092	1.450795	-0.573219
C60	C	-0.527692	1.450842	-0.573228
C61	C	-0.554980	1.518104	-0.506097
O62	O	-0.614084	1.393757	-0.630278
O63	O	-0.614083	1.642560	-0.381908
C64	C	-0.115444	1.518368	-0.506181
C65	C	-0.057330	1.518456	-0.506211
C66	C	-0.251763	1.518233	-0.780143
C67	C	-0.251740	1.518263	-0.896920
C68	C	-0.251824	1.792195	-0.506128
C69	C	-0.251827	1.908972	-0.506136
C70	C	-0.184858	1.383993	-0.896965
C71	C	-0.151407	1.316878	-0.951848
C72	C	-0.151388	1.316909	-1.061570
C73	C	-0.184825	1.384061	-1.116411
C74	C	-0.218277	1.451177	-1.061527
C75	C	-0.218291	1.451141	-0.951803
C76	C	-0.285161	1.585440	-1.061483
C77	C	-0.285178	1.585416	-0.951761
C78	C	-0.318598	1.652593	-1.116324
C79	C	-0.352047	1.719715	-1.061441
C80	C	-0.352065	1.719682	-0.951712
C81	C	-0.318629	1.652531	-0.896878
C82	C	-0.251833	1.518151	-0.233142
C83	C	-0.251709	1.518324	-0.116366
H84	H	-0.124111	1.118272	-0.250319
O85	O	-0.945998	1.378637	-0.645727
H86	H	-0.921164	1.325201	-0.598648
O87	O	-0.557099	1.657837	-0.366554
H88	H	-0.528928	1.704546	-0.319864
H89	H	-0.379517	1.118186	-0.761903
O90	O	-0.115339	1.244457	-0.892702
H91	H	-0.120966	1.255716	-0.807185
O92	O	-0.557155	1.378340	-0.645624
H93	H	-0.581989	1.425348	-0.699123
H94	H	-0.379303	1.774339	-0.907033
H95	H	-0.450863	1.396042	-0.627867
H96	H	-0.379527	0.919115	-0.761933
O97	O	-1.059451	1.658204	-0.366671
H98	H	-1.048917	1.740642	-0.384761
O99	O	-0.318806	0.790601	-0.640234
H100	H	-0.347719	0.761659	-0.698120
O101	O	-0.694828	1.311261	-0.712834
H102	H	-0.652270	1.322524	-0.701557
O103	O	-0.184863	0.790654	-0.371999
H104	H	-0.195375	0.761704	-0.292705
O105	O	-0.115287	0.904718	-0.232592
H106	H	-0.120921	0.819203	-0.243861
O107	O	-0.184856	1.246785	-0.371964
H108	H	-0.174336	1.275764	-0.451243
H109	H	-0.318583	1.652608	-1.205665
H110	H	-0.318638	1.652501	-0.807537
H111	H	-0.318779	1.217731	-0.640225
O112	O	-0.808310	1.311338	-0.712867
H113	H	-0.833230	1.257909	-0.665819
O114	O	-0.443607	1.657748	-0.366538
H115	H	-0.471761	1.704522	-0.319877
H116	H	-0.124150	1.262256	-1.106255
O117	O	-0.694775	1.725179	-0.299474
H118	H	-0.722933	1.771949	-0.252818
O119	O	-0.808260	1.725245	-0.299484
H120	H	-0.780088	1.771956	-0.252798
H121	H	-0.184866	1.383969	-0.807623
H122	H	-0.184812	1.384072	-1.205752
H123	H	-0.953177	1.640358	-0.384385
O124	O	-1.059489	1.378712	-0.645744
H125	H	-1.031333	1.331955	-0.692417
H126	H	-0.379271	1.774381	-1.106101
