data_functionalizedCrystal
_audit_creation_method	'MofGen! by Chris Wilmer'
_symmetry_space_group_name_H-M	'P1'
_symmetry_Int_Tables_number	1
_symmetry_cell_setting	triclinic
loop_
_symmetry_equiv_pos_as_xyz
  x,y,z
_cell_length_a	21.395364
_cell_length_b	16.959453
_cell_length_c	21.395355
_cell_angle_alpha	90.017325
_cell_angle_beta	90.024516
_cell_angle_gamma	90.015752
loop_
_atom_site_label
_atom_site_type_symbol
_atom_site_fract_x
_atom_site_fract_y
_atom_site_fract_z
Zn1	Zn	0.957906	-0.314862	0.354266
Zn2	Zn	0.957828	-0.447023	0.249491
Zn3	Zn	0.853121	-0.314853	0.249503
Zn4	Zn	0.853109	-0.446993	0.354231
O5	O	0.905491	-0.380933	0.301873
O6	O	1.045573	-0.332410	0.340377
O7	O	0.943910	-0.429499	0.161814
O8	O	0.867058	-0.204243	0.263420
O9	O	1.045516	-0.429508	0.263399
O10	O	0.944043	-0.204250	0.340389
O11	O	0.866982	-0.332394	0.161823
O12	O	0.765441	-0.332365	0.263386
O13	O	0.867039	-0.429457	0.441914
O14	O	0.765433	-0.429448	0.340329
O15	O	0.944032	-0.332381	0.441939
O16	O	0.943899	-0.557630	0.263365
O17	O	0.866963	-0.557608	0.340317
C18	C	0.742703	-0.380903	0.301855
C19	C	0.673062	-0.380909	0.301863
C20	C	0.905439	-0.586299	0.301850
C21	C	0.905474	-0.674156	0.301861
C22	C	0.171295	-0.330493	0.342029
C23	C	0.236730	-0.330487	0.342029
C24	C	0.269424	-0.380957	0.301887
C25	C	0.236676	-0.431451	0.261753
C26	C	0.171242	-0.431461	0.261759
C27	C	0.373061	-0.387078	0.245420
C28	C	0.438494	-0.387062	0.245413
C29	C	0.471244	-0.380931	0.301869
C30	C	0.438554	-0.374798	0.358334
C31	C	0.373120	-0.374808	0.358340
C32	C	0.340376	-0.380952	0.301876
C33	C	0.574937	-0.330438	0.342004
C34	C	0.640373	-0.330438	0.342005
C35	C	0.640318	-0.431397	0.261723
C36	C	0.574882	-0.431401	0.261727
C37	C	0.542196	-0.380918	0.301867
C38	C	0.945628	-1.045576	0.342026
C39	C	0.865528	-1.045686	0.261812
C40	C	0.865505	-0.963140	0.261798
C41	C	0.905544	-0.921809	0.301899
C42	C	0.945605	-0.963023	0.342014
C43	C	0.825440	-0.921920	0.221688
C44	C	0.825415	-0.839369	0.221672
C45	C	0.865457	-0.798036	0.261770
C46	C	0.905520	-0.839255	0.301887
C47	C	0.945558	-0.797924	0.341988
C48	C	0.985626	-0.839141	0.382102
C49	C	0.985647	-0.921690	0.382113
C50	C	0.865435	-0.715487	0.261760
C51	C	0.945535	-0.715370	0.341976
C52	C	1.068914	-0.380964	0.301891
C53	C	1.138555	-0.380977	0.301898
C54	C	0.905543	-0.380917	0.465296
C55	C	0.905565	-0.380910	0.534937
C56	C	0.905560	-0.174765	0.301909
C57	C	0.905590	-0.086908	0.301925
C58	C	0.905475	-0.380892	0.139085
C59	C	0.905574	-0.380676	0.069444
C60	C	0.945654	-0.330361	0.567665
C61	C	0.945653	-0.330327	0.633100
C62	C	0.905570	-0.380856	0.665806
C63	C	0.865473	-0.431409	0.633070
C64	C	0.865471	-0.431436	0.567636
C65	C	0.900605	-0.452027	0.769472
C66	C	0.900611	-0.452001	0.834905
C67	C	0.905574	-0.380773	0.867626
C68	C	0.910543	-0.309567	0.834907
C69	C	0.910540	-0.309594	0.769472
C70	C	0.905568	-0.380832	0.736758
C71	C	0.945664	-0.330182	0.971307
C72	C	0.945659	-0.330147	1.036743
C73	C	0.865482	-0.431236	1.036712
C74	C	0.865484	-0.431265	0.971277
C75	C	0.905578	-0.380739	0.938578
H76	H	0.144686	-0.289389	0.374717
H77	H	0.978252	-1.079140	0.374684
N78	N	0.988720	-0.670801	0.385234
H79	H	0.963233	-0.636557	0.414242
H80	H	1.017751	-0.636586	0.359752
H81	H	1.018267	-0.955257	0.414772
H82	H	0.978301	-0.289217	0.541045
N83	N	0.915901	-0.232735	0.870188
H84	H	0.915147	-0.243519	0.916605
H85	H	0.879682	-0.197393	0.858733
N86	N	0.988903	-0.275688	0.936033
H87	H	1.014296	-0.243654	0.966698
H88	H	0.963411	-0.239117	0.908870
N89	N	0.822237	-0.485970	0.532335
H90	H	0.828321	-0.478322	0.485920
H91	H	0.777493	-0.473655	0.543751
N92	N	0.473755	-0.393681	0.184518
H93	H	0.500906	-0.345513	0.178702
H94	H	0.443045	-0.397603	0.148789
N95	N	0.539565	-0.485847	0.218439
H96	H	0.570204	-0.517819	0.193007
H97	H	0.512406	-0.453621	0.189491
H98	H	0.832929	-1.079343	0.229166
H99	H	0.346401	-0.392074	0.199443
H100	H	0.978303	-0.288979	1.063389
H101	H	0.832840	-0.472371	1.063340
N102	N	0.895260	-0.528858	0.734183
H103	H	0.892123	-0.573961	0.764838
H104	H	0.933437	-0.536205	0.707054
H105	H	0.667029	-0.289330	0.374689
H106	H	0.666936	-0.472496	0.229043
N107	N	0.822235	-0.485774	0.935972
H108	H	0.796838	-0.517775	0.966618
H109	H	0.847714	-0.522375	0.908827
N110	N	0.782263	-0.966496	0.178434
H111	H	0.788364	-1.025044	0.184524
H112	H	0.792039	-0.952079	0.133696
H113	H	0.792791	-0.805814	0.189009
H114	H	0.832810	-0.681932	0.229103
N115	N	0.988892	-0.275803	0.668410
H116	H	1.014290	-0.243799	0.637766
H117	H	1.017874	-0.307980	0.695570
N118	N	1.028806	-0.794551	0.425350
H119	H	1.073584	-0.808878	0.415663
H120	H	1.019006	-0.808913	0.470094
H121	H	0.914584	-0.251616	0.742835
H122	H	0.263299	-0.472545	0.229070
N123	N	0.822245	-0.485905	0.668350
H124	H	0.831952	-0.542390	0.656969
H125	H	0.777498	-0.473556	0.656936
N126	N	0.272053	-0.276036	0.385315
H127	H	0.241417	-0.244058	0.410745
H128	H	0.299193	-0.239411	0.359854
N129	N	0.337992	-0.368536	0.419334
H130	H	0.349365	-0.317517	0.440889
H131	H	0.349593	-0.414466	0.447040
N132	N	0.473867	-0.368174	0.419232
H133	H	0.520279	-0.369100	0.410664
H134	H	0.462436	-0.413933	0.447185
N135	N	0.539676	-0.275995	0.385296
H136	H	0.570348	-0.244016	0.410724
H137	H	0.512535	-0.308226	0.414248
H138	H	0.896569	-0.509981	0.861541
H139	H	0.144586	-0.472572	0.229078
