data_functionalizedCrystal
_audit_creation_method	'MofGen! by Chris Wilmer'
_symmetry_space_group_name_H-M	'P1'
_symmetry_Int_Tables_number	1
_symmetry_cell_setting	triclinic
loop_
_symmetry_equiv_pos_as_xyz
  x,y,z
_cell_length_a	13.897447
_cell_length_b	18.215407
_cell_length_c	13.897441
_cell_angle_alpha	89.979341
_cell_angle_beta	90.028354
_cell_angle_gamma	89.980549
loop_
_atom_site_label
_atom_site_type_symbol
_atom_site_fract_x
_atom_site_fract_y
_atom_site_fract_z
Zn1	Zn	-0.383995	-1.125100	0.545443
Zn2	Zn	-0.133995	-0.875100	0.795443
Zn3	Zn	0.116005	-0.625100	1.045443
Zn4	Zn	0.366005	-0.375100	1.295443
Zn5	Zn	-0.545314	-1.125020	0.384148
Zn6	Zn	-0.295314	-0.875020	0.634148
Zn7	Zn	-0.045314	-0.625020	0.884148
Zn8	Zn	0.204686	-0.375020	1.134148
Zn9	Zn	-0.384035	-1.002032	0.384155
Zn10	Zn	-0.134035	-0.752032	0.634155
Zn11	Zn	0.115965	-0.502032	0.884155
Zn12	Zn	0.365965	-0.252032	1.134155
Zn13	Zn	-0.545250	-1.002010	0.545395
Zn14	Zn	-0.295250	-0.752010	0.795395
Zn15	Zn	-0.045250	-0.502010	1.045395
Zn16	Zn	0.204750	-0.252010	1.295395
O17	O	-0.464649	-1.063540	0.464785
O18	O	-0.214649	-0.813540	0.714785
O19	O	0.035351	-0.563540	0.964785
O20	O	0.285351	-0.313540	1.214785
O21	O	-0.405405	-1.228073	0.524064
O22	O	-0.155405	-0.978073	0.774064
O23	O	0.094595	-0.728073	1.024064
O24	O	0.344595	-0.478073	1.274064
O25	O	-0.523964	-1.108681	0.249167
O26	O	-0.273964	-0.858681	0.499167
O27	O	-0.023964	-0.608681	0.749167
O28	O	0.226036	-0.358681	0.999167
O29	O	-0.249048	-1.018400	0.405574
O30	O	0.000952	-0.768400	0.655574
O31	O	0.250952	-0.518400	0.905574
O32	O	0.500952	-0.268400	1.155574
O33	O	-0.523926	-1.228014	0.405561
O34	O	-0.273926	-0.978014	0.655561
O35	O	-0.023926	-0.728014	0.905561
O36	O	0.226074	-0.478014	1.155561
O37	O	-0.249019	-1.108818	0.524071
O38	O	0.000981	-0.858818	0.774071
O39	O	0.250981	-0.608818	1.024071
O40	O	0.500981	-0.358818	1.274071
O41	O	-0.405472	-1.018323	0.249173
O42	O	-0.155472	-0.768323	0.499173
O43	O	0.094528	-0.518323	0.749173
O44	O	0.344528	-0.268323	0.999173
O45	O	-0.405410	-0.899045	0.405527
O46	O	-0.155410	-0.649045	0.655527
O47	O	0.094590	-0.399045	0.905527
O48	O	0.344590	-0.149045	1.155527
O49	O	-0.523816	-1.018362	0.680383
O50	O	-0.273816	-0.768362	0.930383
O51	O	-0.023816	-0.518362	1.180383
O52	O	0.226184	-0.268362	1.430383
O53	O	-0.523854	-0.899028	0.523989
O54	O	-0.273854	-0.649028	0.773989
O55	O	-0.023854	-0.399028	1.023989
O56	O	0.226146	-0.149028	1.273989
O57	O	-0.405343	-1.108796	0.680418
O58	O	-0.155343	-0.858796	0.930418
O59	O	0.094657	-0.608796	1.180418
O60	O	0.344657	-0.358796	1.430418
O61	O	-0.680287	-1.108659	0.405514
O62	O	-0.430287	-0.858659	0.655514
O63	O	-0.180287	-0.608659	0.905514
O64	O	0.069713	-0.358659	1.155514
O65	O	-0.680240	-1.018284	0.523981
O66	O	-0.430240	-0.768284	0.773981
O67	O	-0.180240	-0.518284	1.023981
O68	O	0.069760	-0.268284	1.273981
C69	C	-0.464630	-0.872334	0.464754
C70	C	-0.214630	-0.622334	0.714754
C71	C	0.035370	-0.372334	0.964754
C72	C	0.285370	-0.122334	1.214754
C73	C	-0.464645	-0.790535	0.464764
C74	C	-0.214645	-0.540535	0.714764
C75	C	0.035355	-0.290535	0.964764
C76	C	0.285355	-0.040535	1.214764
C77	C	-0.715263	-1.063481	0.464763
C78	C	-0.465263	-0.813481	0.714763
C79	C	-0.215263	-0.563481	0.964763
C80	C	0.034737	-0.313481	1.214763
C81	C	-0.822477	-1.063522	0.464785
C82	C	-0.572477	-0.813522	0.714785
C83	C	-0.322477	-0.563522	0.964785
C84	C	-0.072477	-0.313522	1.214785
C85	C	-0.526414	-0.602352	0.526366
C86	C	-0.276414	-0.352352	0.776366
C87	C	-0.026414	-0.102352	1.026366
C88	C	0.223586	0.147648	1.276366
C89	C	-0.526416	-0.525493	0.526377
C90	C	-0.276416	-0.275493	0.776377
C91	C	-0.026416	-0.025493	1.026377
C92	C	0.223584	0.224507	1.276377
C93	C	-0.402889	-0.525481	0.403208
C94	C	-0.152889	-0.275481	0.653208
C95	C	0.097111	-0.025481	0.903208
C96	C	0.347111	0.224519	1.153208
C97	C	-0.402883	-0.602338	0.403203
C98	C	-0.152883	-0.352338	0.653203
C99	C	0.097117	-0.102338	0.903203
C100	C	0.347117	0.147662	1.153203
C101	C	-0.464651	-0.640772	0.464780
C102	C	-0.214651	-0.390772	0.714780
C103	C	0.035349	-0.140772	0.964780
C104	C	0.285349	0.109228	1.214780
C105	C	-0.464659	-0.487056	0.464796
C106	C	-0.214659	-0.237056	0.714796
C107	C	0.035341	0.012944	0.964796
C108	C	0.285341	0.262944	1.214796
C109	C	-0.464661	-0.403722	0.464807
C110	C	-0.214661	-0.153722	0.714807
C111	C	0.035339	0.096278	0.964807
C112	C	0.285339	0.346278	1.214807
C113	C	-0.464648	-0.724111	0.464771
C114	C	-0.214648	-0.474111	0.714771
C115	C	0.035352	-0.224111	0.964771
C116	C	0.285352	0.025889	1.214771
C117	C	-0.909547	-1.063558	0.464807
C118	C	-0.659547	-0.813558	0.714807
C119	C	-0.409547	-0.563558	0.964807
C120	C	-0.159547	-0.313558	1.214807
C121	C	-1.018779	-1.063609	0.464832
C122	C	-0.768779	-0.813609	0.714832
C123	C	-0.518779	-0.563609	0.964832
C124	C	-0.268779	-0.313609	1.214832
C125	C	-0.213056	-1.063620	0.464829
C126	C	0.036944	-0.813620	0.714829
C127	C	0.286944	-0.563620	0.964829
C128	C	0.536944	-0.313620	1.214829
C129	C	-0.105842	-1.063655	0.464847
C130	C	0.144158	-0.813655	0.714847
C131	C	0.394158	-0.563655	0.964847
C132	C	0.644158	-0.313655	1.214847
C133	C	-0.464568	-1.063585	0.716378
C134	C	-0.214568	-0.813585	0.966378
C135	C	0.035432	-0.563585	1.216378
C136	C	0.285432	-0.313585	1.466378
C137	C	-0.464533	-1.063605	0.823592
C138	C	-0.214533	-0.813605	1.073592
C139	C	0.035467	-0.563605	1.323592
C140	C	0.285467	-0.313605	1.573592
C141	C	-0.464665	-0.255493	0.464812
C142	C	-0.214665	-0.005493	0.714812
C143	C	0.035335	0.244507	0.964812
C144	C	0.285335	0.494507	1.214812
C145	C	-0.464664	-0.337292	0.464813
C146	C	-0.214664	-0.087292	0.714813
C147	C	0.035336	0.162708	0.964813
C148	C	0.285336	0.412708	1.214813
C149	C	-0.464660	-1.063538	0.214171
C150	C	-0.214660	-0.813538	0.464171
C151	C	0.035340	-0.563538	0.714171
C152	C	0.285340	-0.313538	0.964171
C153	C	-0.464422	-1.063661	0.106957
C154	C	-0.214422	-0.813661	0.356957
C155	C	0.035578	-0.563661	0.606957
C156	C	0.285578	-0.313661	0.856957
C157	C	-0.464506	-1.063620	0.910662
C158	C	-0.214506	-0.813620	1.160662
C159	C	0.035494	-0.563620	1.410662
C160	C	0.285494	-0.313620	1.660662
C161	C	-0.464462	-1.063641	1.019895
C162	C	-0.214462	-0.813641	1.269895
C163	C	0.035538	-0.563641	1.519895
C164	C	0.285538	-0.313641	1.769895
H165	H	-0.576708	-0.494215	0.576527
H166	H	-0.326708	-0.244215	0.826527
H167	H	-0.076708	0.005785	1.076527
H168	H	0.173292	0.255785	1.326527
N169	N	-0.589485	-0.641623	0.589271
N170	N	-0.339485	-0.391623	0.839271
N171	N	-0.089485	-0.141623	1.089271
N172	N	0.160515	0.108377	1.339271
N173	N	-0.589472	-0.710245	0.589262
N174	N	-0.339472	-0.460245	0.839262
N175	N	-0.089472	-0.210245	1.089262
N176	N	0.160528	0.039755	1.339262
H177	H	-0.634016	-0.737980	0.633692
H178	H	-0.384016	-0.487980	0.883692
H179	H	-0.134016	-0.237980	1.133692
H180	H	0.115984	0.012020	1.383692
N181	N	-0.339804	-0.486209	0.340317
N182	N	-0.089804	-0.236209	0.590317
N183	N	0.160196	0.013791	0.840317
N184	N	0.410196	0.263791	1.090317
N185	N	-0.339817	-0.417587	0.340329
N186	N	-0.089817	-0.167587	0.590329
N187	N	0.160183	0.082413	0.840329
N188	N	0.410183	0.332413	1.090329
H189	H	-0.295263	-0.389851	0.295910
H190	H	-0.045263	-0.139851	0.545910
H191	H	0.204737	0.110149	0.795910
H192	H	0.454737	0.360149	1.045910
H193	H	-0.352582	-0.633620	0.353052
H194	H	-0.102582	-0.383620	0.603052
H195	H	0.147418	-0.133620	0.853052
H196	H	0.397418	0.116380	1.103052
