data_functionalizedCrystal
_audit_creation_method	'MofGen! by Chris Wilmer'
_symmetry_space_group_name_H-M	'P1'
_symmetry_Int_Tables_number	1
_symmetry_cell_setting	triclinic
loop_
_symmetry_equiv_pos_as_xyz
  x,y,z
_cell_length_a	18.050591
_cell_length_b	29.839126
_cell_length_c	29.839131
_cell_angle_alpha	90.031806
_cell_angle_beta	89.968767
_cell_angle_gamma	89.974078
loop_
_atom_site_label
_atom_site_type_symbol
_atom_site_fract_x
_atom_site_fract_y
_atom_site_fract_z
Zn1	Zn	1.135293	-0.254057	0.178936
Zn2	Zn	1.135178	-0.178916	0.254056
Zn3	Zn	1.011101	-0.178931	0.178936
Zn4	Zn	1.011045	-0.254010	0.254034
O5	O	1.073154	-0.216478	0.216490
O6	O	1.239202	-0.244103	0.188910
O7	O	1.118694	-0.116051	0.244100
O8	O	1.027647	-0.188922	0.116069
O9	O	1.239118	-0.188898	0.244100
O10	O	1.118891	-0.244117	0.116068
O11	O	1.027536	-0.116062	0.188910
O12	O	0.907169	-0.188877	0.188888
O13	O	1.027551	-0.316883	0.244063
O14	O	0.907128	-0.244037	0.244063
O15	O	1.118836	-0.316918	0.188888
O16	O	1.118639	-0.188852	0.316920
O17	O	1.027440	-0.244023	0.316904
C18	C	0.880202	-0.216454	0.216474
C19	C	0.797656	-0.216454	0.216477
C20	C	0.598207	-0.186527	0.186439
C21	C	0.548777	-0.175463	0.227414
C22	C	0.646526	-0.216474	0.216491
C23	C	0.548874	-0.227536	0.175530
C24	C	0.500541	-0.216493	0.216500
C25	C	0.598184	-0.205389	0.257488
C26	C	0.598285	-0.257481	0.205576
C27	C	0.548877	-0.246433	0.246580
C28	C	0.730624	-0.216462	0.216485
C29	C	0.416444	-0.216505	0.216511
C30	C	1.073200	-0.333657	0.216473
C31	C	1.073220	-0.383591	0.216466
C32	C	1.025769	-0.693243	0.187683
C33	C	1.025790	-0.880916	0.187652
O34	O	0.985408	-0.905188	0.163225
N35	N	1.073255	-0.904377	0.216382
C36	C	1.120715	-0.880916	0.245123
O37	O	1.161083	-0.905176	0.269562
C38	C	1.120690	-0.693243	0.245156
C39	C	1.073227	-0.669786	0.216421
C40	C	0.978309	-0.669785	0.158951
C41	C	0.978307	-0.622870	0.158957
C42	C	1.025765	-0.599412	0.187696
C43	C	1.073225	-0.622870	0.216428
C44	C	1.168146	-0.669783	0.273900
C45	C	1.168134	-0.622862	0.273906
C46	C	1.120671	-0.599404	0.245171
C47	C	1.120681	-0.552497	0.245173
N48	N	1.073215	-0.529037	0.216443
C49	C	1.025757	-0.552494	0.187705
C50	C	1.120726	-0.979446	0.245103
C51	C	1.120734	-1.026364	0.245094
C52	C	1.025807	-1.026362	0.187624
C53	C	1.025804	-0.979443	0.187630
C54	C	1.073261	-0.955986	0.216373
C55	C	1.025757	-0.453969	0.187720
C56	C	1.025762	-0.407049	0.187727
C57	C	1.120685	-0.407056	0.245200
C58	C	1.120684	-0.453971	0.245190
C59	C	1.073214	-0.477426	0.216449
O60	O	1.161036	-0.528196	0.269591
O61	O	0.985384	-0.528226	0.163276
C62	C	1.025770	-0.740159	0.187677
C63	C	1.073230	-0.763617	0.216409
C64	C	1.120689	-0.740159	0.245147
C65	C	1.073238	-0.810534	0.216400
C66	C	1.025780	-0.833992	0.187662
C67	C	0.978314	-0.810532	0.158932
C68	C	0.978312	-0.763616	0.158938
C69	C	1.168154	-0.763619	0.273877
C70	C	1.168153	-0.810535	0.273868
C71	C	1.120695	-0.833992	0.245129
C72	C	1.266860	-0.216504	0.216507
C73	C	1.349406	-0.216514	0.216515
C74	C	1.073041	-0.216441	0.333213
C75	C	1.073060	-0.216439	0.383147
C76	C	1.073151	-0.099756	0.216475
C77	C	1.073276	-0.049822	0.216356
C78	C	1.073288	-0.216526	0.099312
C79	C	1.073345	-0.216547	0.049378
C80	C	1.120654	-0.245259	0.692756
C81	C	1.120735	-0.245286	0.880429
O82	O	1.161090	-0.269762	0.904664
N83	N	1.073280	-0.216528	0.903932
C84	C	1.025799	-0.187764	0.880515
O85	O	0.985433	-0.163307	0.904812
C86	C	1.025715	-0.187739	0.692843
C87	C	1.073178	-0.216496	0.669342
C88	C	1.168112	-0.274014	0.669255
C89	C	1.168095	-0.274005	0.622339
C90	C	1.120619	-0.245242	0.598925
C91	C	1.073160	-0.216487	0.622426
C92	C	0.978231	-0.158977	0.669426
C93	C	0.978213	-0.158975	0.622505
C94	C	1.025675	-0.187731	0.599004
C95	C	1.025666	-0.187715	0.552096
N96	N	1.073121	-0.216473	0.528593
C97	C	1.120597	-0.245236	0.552007
C98	C	1.025847	-0.187778	0.979045
C99	C	1.025869	-0.187783	1.025963
C100	C	1.120804	-0.245307	1.025874
C101	C	1.120786	-0.245299	0.978955
C102	C	1.073302	-0.216536	0.955542
C103	C	1.120556	-0.245215	0.453481
C104	C	1.120537	-0.245203	0.406562
C105	C	1.025599	-0.187681	0.406655
C106	C	1.025621	-0.187692	0.453570
C107	C	1.073103	-0.216463	0.476982
O108	O	0.985327	-0.163256	0.527832
O109	O	1.160946	-0.269696	0.527702
C110	C	1.120672	-0.245268	0.739671
C111	C	1.073214	-0.216513	0.763172
C112	C	1.025737	-0.187750	0.739758
C113	C	1.073235	-0.216519	0.810090
C114	C	1.120711	-0.245282	0.833505
C115	C	1.168166	-0.274040	0.810001
C116	C	1.168148	-0.274031	0.763086
C117	C	0.978283	-0.158992	0.763262
C118	C	0.978305	-0.159003	0.810177
C119	C	1.025781	-0.187766	0.833591
H120	H	0.527032	-0.140793	0.236653
Cl121	Cl	1.180487	-0.281466	1.055318
H122	H	0.987111	-0.387952	0.164326
Cl123	Cl	1.180397	-0.949964	0.281239
H124	H	0.527174	-0.236869	0.140890
H125	H	1.159215	-0.268646	0.472538
Cl126	Cl	0.966085	-0.483448	0.151584
H127	H	1.206825	-0.297459	0.829073
Cl128	Cl	0.631481	-0.190893	0.310991
H129	H	0.987228	-0.164362	1.045094
Cl130	Cl	0.918630	-0.593387	0.122835
H131	H	0.939656	-0.135582	0.829308
Cl132	Cl	0.631651	-0.147386	0.147243
Cl133	Cl	0.918630	-0.699267	0.122823
Cl134	Cl	0.515643	-0.285547	0.285867
H135	H	0.987179	-0.164355	0.959985
H136	H	0.987155	-0.960347	0.164232
H137	H	0.986979	-0.164273	0.472706
H138	H	1.206796	-0.297448	0.743954
H139	H	0.939675	-0.829639	0.135530
Cl140	Cl	0.918589	-0.122831	0.733834
Cl141	Cl	0.631884	-0.310996	0.191294
H142	H	1.159391	-1.045460	0.268488
H143	H	1.206741	-0.297422	0.603207
Cl144	Cl	0.966144	-1.055860	0.151496
Cl145	Cl	0.918515	-0.122813	0.593074
Cl146	Cl	1.180454	-0.281452	0.949416
H147	H	1.206795	-0.688875	0.297299
H148	H	1.206785	-0.603766	0.297310
Cl149	Cl	1.227803	-0.310180	0.698681
H150	H	1.159341	-0.473071	0.268584
Cl151	Cl	1.180347	-0.377557	0.281324
Cl152	Cl	0.918640	-0.734134	0.122813
Cl153	Cl	1.227829	-0.840019	0.309994
Cl154	Cl	0.918556	-0.122826	0.698959
H155	H	0.986947	-0.164261	0.387584
H156	H	1.206798	-0.744525	0.297281
H157	H	1.159189	-0.268620	0.387428
