data_functionalizedCrystal
_audit_creation_method	'MofGen! by Chris Wilmer'
_symmetry_space_group_name_H-M	'P1'
_symmetry_Int_Tables_number	1
_symmetry_cell_setting	triclinic
loop_
_symmetry_equiv_pos_as_xyz
  x,y,z
_cell_length_a	19.077105
_cell_length_b	19.121063
_cell_length_c	19.077174
_cell_angle_alpha	94.804191
_cell_angle_beta	85.483752
_cell_angle_gamma	90.263052
loop_
_atom_site_label
_atom_site_type_symbol
_atom_site_fract_x
_atom_site_fract_y
_atom_site_fract_z
Zn1	Zn	1.079661	-0.341255	-0.455843
Zn2	Zn	1.412994	-0.007922	-0.122510
Zn3	Zn	1.746327	0.325411	0.210823
Zn4	Zn	1.070214	-0.453789	-0.342572
Zn5	Zn	1.403547	-0.120456	-0.009239
Zn6	Zn	1.736881	0.212878	0.324095
Zn7	Zn	0.957450	-0.331437	-0.332838
Zn8	Zn	1.290783	0.001896	0.000495
Zn9	Zn	1.624116	0.335229	0.333829
Zn10	Zn	0.957110	-0.453743	-0.455688
Zn11	Zn	1.290443	-0.120410	-0.122355
Zn12	Zn	1.623776	0.212924	0.210979
O13	O	1.016109	-0.395056	-0.396735
O14	O	1.349442	-0.061723	-0.063402
O15	O	1.682775	0.271611	0.269931
O16	O	1.176888	-0.360311	-0.444956
O17	O	1.510221	-0.026978	-0.111623
O18	O	1.843554	0.306355	0.221710
O19	O	1.051444	-0.433469	-0.242463
O20	O	1.384778	-0.100136	0.090870
O21	O	1.718111	0.233198	0.424203
O22	O	0.977757	-0.234459	-0.345146
O23	O	1.311090	0.098874	-0.011813
O24	O	1.644424	0.432208	0.321521
O25	O	1.169947	-0.442989	-0.361736
O26	O	1.503281	-0.109656	-0.028403
O27	O	1.836614	0.223678	0.304930
O28	O	1.067545	-0.241672	-0.435517
O29	O	1.400878	0.091661	-0.102184
O30	O	1.734211	0.424995	0.231149
O31	O	0.968597	-0.343578	-0.235312
O32	O	1.301930	-0.010245	0.098022
O33	O	1.635264	0.323089	0.431355
O34	O	0.858924	-0.343533	-0.344996
O35	O	1.192258	-0.010200	-0.011662
O36	O	1.525591	0.323133	0.321671
O37	O	0.977178	-0.442911	-0.554526
O38	O	1.310511	-0.109577	-0.221193
O39	O	1.643844	0.223756	0.112141
O40	O	0.858675	-0.433391	-0.435253
O41	O	1.192008	-0.100057	-0.101920
O42	O	1.525341	0.233276	0.231414
O43	O	1.067215	-0.360267	-0.554640
O44	O	1.400548	-0.026933	-0.221307
O45	O	1.733882	0.306400	0.112027
O46	O	1.051115	-0.552064	-0.361586
O47	O	1.384448	-0.218730	-0.028253
O48	O	1.717781	0.114603	0.305081
O49	O	0.968018	-0.552030	-0.444692
O50	O	1.301351	-0.218697	-0.111358
O51	O	1.634684	0.114637	0.221975
C52	C	0.833265	-0.387392	-0.389052
C53	C	1.166598	-0.054059	-0.055718
C54	C	1.499931	0.279274	0.277615
C55	C	0.755043	-0.384131	-0.385782
C56	C	1.088377	-0.050798	-0.052449
C57	C	1.421710	0.282535	0.280885
C58	C	0.718177	-0.429448	-0.431170
C59	C	1.051511	-0.096115	-0.097836
C60	C	1.384844	0.237219	0.235497
C61	C	0.644681	-0.426375	-0.428101
C62	C	0.978014	-0.093041	-0.094767
C63	C	1.311347	0.240292	0.238566
C64	C	0.608051	-0.377988	-0.379640
C65	C	0.941384	-0.044654	-0.046306
C66	C	1.274717	0.288679	0.287027
C67	C	0.644922	-0.332666	-0.334250
C68	C	0.978255	0.000667	-0.000916
C69	C	1.311588	0.334000	0.332417
C70	C	0.718417	-0.335737	-0.337323
C71	C	1.051751	-0.002403	-0.003990
C72	C	1.385084	0.330930	0.329344
C73	C	0.388255	-0.363778	-0.365420
C74	C	0.721588	-0.030445	-0.032087
C75	C	1.054921	0.302888	0.301247
C76	C	0.314753	-0.360713	-0.362349
C77	C	0.648087	-0.027379	-0.029016
C78	C	0.981420	0.305954	0.304318
C79	C	0.314518	-0.454421	-0.456201
C80	C	0.647851	-0.121087	-0.122868
C81	C	0.981184	0.212246	0.210466
C82	C	0.388015	-0.457489	-0.459267
C83	C	0.721348	-0.124156	-0.125934
C84	C	1.054681	0.209177	0.207400
C85	C	0.424879	-0.412166	-0.413880
C86	C	0.758213	-0.078832	-0.080546
C87	C	1.091546	0.254501	0.252787
N88	N	0.532925	-0.374847	-0.376500
N89	N	0.866258	-0.041513	-0.043166
N90	N	1.199592	0.291820	0.290167
N91	N	0.500004	-0.415304	-0.417024
N92	N	0.833337	-0.081970	-0.083690
N93	N	1.166671	0.251363	0.249643
C94	C	1.008524	-0.577531	-0.404195
C95	C	1.341857	-0.244198	-0.070861
C96	C	1.675191	0.089135	0.262472
C97	C	1.005344	-0.655599	-0.407412
C98	C	1.338678	-0.322265	-0.074079
C99	C	1.672011	0.011068	0.259255
C100	C	1.047151	-0.692272	-0.365694
C101	C	1.380485	-0.358939	-0.032360
C102	C	1.713818	-0.025606	0.300973
C103	C	1.044165	-0.765625	-0.368724
C104	C	1.377499	-0.432292	-0.035391
C105	C	1.710832	-0.098959	0.297943
C106	C	0.999368	-0.802303	-0.413469
C107	C	1.332702	-0.468970	-0.080136
C108	C	1.666035	-0.135636	0.253197
C109	C	0.957560	-0.765624	-0.455192
C110	C	1.290893	-0.432291	-0.121859
C111	C	1.624226	-0.098958	0.211474
C112	C	0.960550	-0.692273	-0.452165
C113	C	1.293883	-0.358940	-0.118832
C114	C	1.627217	-0.025606	0.214501
C115	C	0.988177	-1.023777	-0.424775
C116	C	1.321511	-0.690444	-0.091442
C117	C	1.654844	-0.357110	0.241892
C118	C	0.985189	-1.097133	-0.427797
C119	C	1.318522	-0.763800	-0.094464
C120	C	1.651855	-0.430467	0.238869
C121	C	1.071796	-1.097129	-0.341330
C122	C	1.405129	-0.763796	-0.007996
C123	C	1.738462	-0.430462	0.325337
C124	C	1.074779	-1.023776	-0.338303
C125	C	1.408112	-0.690443	-0.004970
C126	C	1.741445	-0.357109	0.328363
C127	C	1.032973	-0.987104	-0.380029
C128	C	1.366306	-0.653771	-0.046696
C129	C	1.699640	-0.320437	0.286638
C130	C	0.996314	-0.877281	-0.416566
C131	C	1.329647	-0.543948	-0.083233
C132	C	1.662980	-0.210615	0.250101
C133	C	1.036032	-0.912127	-0.376936
C134	C	1.369365	-0.578794	-0.043602
C135	C	1.702699	-0.245461	0.289731
C136	C	1.199666	-0.402750	-0.404449
C137	C	1.533000	-0.069417	-0.071116
C138	C	1.866333	0.263916	0.262217
C139	C	1.277888	-0.406029	-0.407737
C140	C	1.611221	-0.072696	-0.074403
C141	C	1.944554	0.260637	0.258930
C142	C	1.023212	-0.402679	-0.580922
C143	C	1.356546	-0.069345	-0.247588
C144	C	1.689879	0.263988	0.085745
C145	C	1.026239	-0.405927	-0.659411
C146	C	1.359573	-0.072594	-0.326078
C147	C	1.692906	0.260740	0.007256
C148	C	1.023743	-0.211870	-0.389263
C149	C	1.357076	0.121464	-0.055930
C150	C	1.690409	0.454797	0.277403
C151	C	1.026996	-0.133807	-0.386079
C152	C	1.360329	0.199527	-0.052746
C153	C	1.693662	0.532860	0.280588
C154	C	0.984529	-0.360653	-0.692562
C155	C	1.317863	-0.027319	-0.359228
C156	C	1.651196	0.306014	-0.025895
C157	C	0.987371	-0.363710	-0.766311
C158	C	1.320704	-0.030377	-0.432978
C159	C	1.654037	0.302956	-0.099644
C160	C	1.031926	-0.412040	-0.806908
C161	C	1.365260	-0.078706	-0.473575
C162	C	1.698593	0.254627	-0.140242
C163	C	1.073638	-0.457319	-0.773753
C164	C	1.406971	-0.123986	-0.440419
C165	C	1.740305	0.209348	-0.107086
C166	C	1.070792	-0.454264	-0.700005
C167	C	1.404126	-0.120931	-0.366672
C168	C	1.737459	0.212403	-0.033338
C169	C	1.045059	-0.426198	-1.027870
C170	C	1.378392	-0.092865	-0.694537
C171	C	1.711725	0.240469	-0.361204
C172	C	1.047903	-0.429248	-1.101623
C173	C	1.381236	-0.095915	-0.768290
C174	C	1.714569	0.237418	-0.434956
C175	C	0.961634	-0.335640	-1.094176
C176	C	1.294967	-0.002307	-0.760843
C177	C	1.628300	0.331027	-0.427509
C178	C	0.958795	-0.332587	-1.020427
C179	C	1.292129	0.000747	-0.687094
C180	C	1.625462	0.334080	-0.353761
C181	C	1.000504	-0.377868	-0.987278
C182	C	1.333838	-0.044535	-0.653945
C183	C	1.667171	0.288798	-0.320611
N184	N	1.034833	-0.415165	-0.882292
N185	N	1.368167	-0.081832	-0.548958
N186	N	1.701500	0.251502	-0.215625
N187	N	0.997593	-0.374746	-0.911896
N188	N	1.330926	-0.041413	-0.578563
N189	N	1.664260	0.291921	-0.245229
C190	C	1.009075	-0.387414	-0.213265
C191	C	1.342408	-0.054081	0.120068
C192	C	1.675742	0.279252	0.453402
C193	C	1.006192	-0.383974	-0.134774
C194	C	1.339526	-0.050640	0.198560
C195	C	1.672859	0.282693	0.531893
H196	H	0.418261	-0.326877	-0.328457
H197	H	0.751594	0.006456	0.004876
H198	H	1.084927	0.339789	0.338209
Br199	Br	1.134101	-0.522916	-0.828848
Br200	Br	1.467434	-0.189583	-0.495515
Br201	Br	1.800767	0.143751	-0.162182
H202	H	1.079013	-0.463077	-1.000889
H203	H	1.412346	-0.129744	-0.667556
H204	H	1.745680	0.203590	-0.334223
Br205	Br	0.905031	-0.274191	-1.139168
Br206	Br	1.238364	0.059142	-0.805834
Br207	Br	1.571697	0.392475	-0.472501
H208	H	0.954136	-0.993924	-0.458748
H209	H	1.287469	-0.660591	-0.125415
H210	H	1.620803	-0.327258	0.207918
H211	H	0.748433	-0.298831	-0.300367
H212	H	1.081766	0.034502	0.032967
H213	H	1.415100	0.367835	0.366300
H214	H	1.083627	-0.662414	-0.329254
H215	H	1.416960	-0.329080	0.004079
H216	H	1.750293	0.004253	0.337413
Br217	Br	0.265041	-0.295048	-0.296569
Br218	Br	0.598374	0.038286	0.036765
Br219	Br	0.931707	0.371619	0.370098
H220	H	0.948251	-0.321294	-0.659512
H221	H	1.281585	0.012040	-0.326179
H222	H	1.614918	0.345373	0.007154
Br223	Br	0.594651	-0.487877	-0.489703
Br224	Br	0.927984	-0.154544	-0.156370
Br225	Br	1.261318	0.178790	0.176964
H226	H	0.417834	-0.496893	-0.498728
H227	H	0.751167	-0.163559	-0.165394
H228	H	1.084500	0.169774	0.167939
H229	H	1.084188	-0.468605	-1.134676
H230	H	1.417522	-0.135272	-0.801343
H231	H	1.750855	0.198062	-0.468009
H232	H	1.111256	-0.993914	-0.301868
H233	H	1.444589	-0.660581	0.031465
H234	H	1.777923	-0.327248	0.364798
Br235	Br	0.264483	-0.515931	-0.517792
Br236	Br	0.597817	-0.182597	-0.184459
Br237	Br	0.931150	0.150736	0.148875
Br238	Br	1.128533	-1.146902	-0.284709
Br239	Br	1.461866	-0.813568	0.048625
Br240	Br	1.795199	-0.480235	0.381958
H241	H	1.078209	-0.795481	-0.334752
H242	H	1.411542	-0.462148	-0.001418
H243	H	1.744875	-0.128815	0.331915
H244	H	0.615092	-0.293266	-0.294795
H245	H	0.948425	0.040068	0.038539
H246	H	1.281759	0.373401	0.371872
Br247	Br	0.898328	-0.266991	-0.965335
Br248	Br	1.231662	0.066342	-0.632002
Br249	Br	1.564995	0.399676	-0.298669
Br250	Br	0.924376	-1.146909	-0.488515
Br251	Br	1.257710	-0.813576	-0.155181
Br252	Br	1.591043	-0.480243	0.178152
Br253	Br	0.903814	-0.642501	-0.508790
Br254	Br	1.237148	-0.309168	-0.175457
Br255	Br	1.570481	0.024165	0.157877
H256	H	0.921088	-0.795494	-0.491628
H257	H	1.254422	-0.462160	-0.158295
H258	H	1.587755	-0.128827	0.175039
H259	H	1.104763	-0.491126	-0.673015
H260	H	1.438096	-0.157793	-0.339682
H261	H	1.771429	0.175540	-0.006348
H262	H	1.072509	-0.882262	-0.340507
H263	H	1.405842	-0.548929	-0.007173
H264	H	1.739175	-0.215596	0.326160
Br265	Br	0.930722	-0.302300	-0.811298
Br266	Br	1.264055	0.031033	-0.477965
Br267	Br	1.597388	0.364367	-0.144632
Br268	Br	0.767882	-0.495124	-0.496937
Br269	Br	1.101215	-0.161791	-0.163603
Br270	Br	1.434549	0.171542	0.169730
Br271	Br	0.935520	-0.927064	-0.477292
Br272	Br	1.268854	-0.593731	-0.143958
Br273	Br	1.602187	-0.260398	0.189375
