data_functionalizedCrystal
_audit_creation_method	'MofGen! by Chris Wilmer'
_symmetry_space_group_name_H-M	'P1'
_symmetry_Int_Tables_number	1
_symmetry_cell_setting	triclinic
loop_
_symmetry_equiv_pos_as_xyz
  x,y,z
_cell_length_a	13.897449
_cell_length_b	16.625539
_cell_length_c	13.897447
_cell_angle_alpha	89.973723
_cell_angle_beta	90.020810
_cell_angle_gamma	89.980569
loop_
_atom_site_label
_atom_site_type_symbol
_atom_site_fract_x
_atom_site_fract_y
_atom_site_fract_z
Zn1	Zn	1.474678	-0.455896	-0.383980
Zn2	Zn	1.474570	-0.321068	-0.545293
Zn3	Zn	1.313371	-0.321079	-0.384018
Zn4	Zn	1.313344	-0.455861	-0.545239
O5	O	1.393991	-0.388476	-0.464632
O6	O	1.609645	-0.438021	-0.405386
O7	O	1.453153	-0.208237	-0.523938
O8	O	1.334825	-0.338983	-0.249031
O9	O	1.609566	-0.338964	-0.523902
O10	O	1.453336	-0.438032	-0.249004
O11	O	1.334721	-0.208246	-0.405450
O12	O	1.178385	-0.338948	-0.405397
O13	O	1.334779	-0.568698	-0.523809
O14	O	1.178366	-0.437972	-0.523845
O15	O	1.453310	-0.568724	-0.405333
O16	O	1.453127	-0.338929	-0.680268
O17	O	1.334674	-0.437961	-0.680227
C18	C	1.143376	-0.388458	-0.464620
C19	C	1.036162	-0.388469	-0.464637
C20	C	0.839867	-0.388490	-0.464641
C21	C	0.949100	-0.388476	-0.464636
C22	C	1.394053	-0.598785	-0.464561
C23	C	1.394080	-0.688406	-0.464530
C24	C	1.394125	-1.016582	-0.464422
C25	C	1.394109	-0.925274	-0.464455
C26	C	1.394103	-0.852497	-0.464477
C27	C	1.394087	-0.761183	-0.464508
C28	C	1.645584	-0.388495	-0.464646
C29	C	1.752797	-0.388503	-0.464652
C30	C	1.393912	-0.388458	-0.715247
C31	C	1.393967	-0.388476	-0.822461
C32	C	1.393984	-0.178985	-0.464634
C33	C	1.394144	-0.089365	-0.464393
C34	C	1.394014	-0.388495	-0.909530
C35	C	1.394081	-0.388516	-1.018763
C36	C	1.394096	-0.388513	-0.213039
C37	C	1.394140	-0.388528	-0.105825
