data_functionalizedCrystal
_audit_creation_method	'MofGen! by Chris Wilmer'
_symmetry_space_group_name_H-M	'P1'
_symmetry_Int_Tables_number	1
_symmetry_cell_setting	triclinic
loop_
_symmetry_equiv_pos_as_xyz
  x,y,z
_cell_length_a	10.686285
_cell_length_b	10.685904
_cell_length_c	10.686551
_cell_angle_alpha	98.408451
_cell_angle_beta	99.084519
_cell_angle_gamma	89.665902
loop_
_atom_site_label
_atom_site_type_symbol
_atom_site_fract_x
_atom_site_fract_y
_atom_site_fract_z
Zn1	Zn	-0.282812	2.015996	0.846610
Zn2	Zn	-0.511401	2.015894	0.618099
Zn3	Zn	-0.317932	1.789929	0.615577
Zn4	Zn	-0.511279	1.820008	0.814017
O5	O	-0.405856	1.910457	0.723576
O6	O	-0.298488	2.192572	0.830993
O7	O	-0.500485	1.973289	0.439084
O8	O	-0.136692	1.807372	0.658809
O9	O	-0.466431	2.192497	0.663107
O10	O	-0.110890	1.973462	0.828548
O11	O	-0.358345	1.807273	0.437231
O12	O	-0.358227	1.617330	0.627205
O13	O	-0.466223	1.858637	0.997021
O14	O	-0.500278	1.639428	0.772998
O15	O	-0.298370	2.002629	1.020967
O16	O	-0.687966	2.002455	0.631503
O17	O	-0.687876	1.858538	0.775444
C18	C	-0.433051	1.582592	0.696292
C19	C	-0.444713	1.442334	0.684648
C20	C	-0.733701	1.933785	0.700241
C21	C	-0.873942	1.943884	0.690311
C22	C	-0.076725	1.887073	0.747033
C23	C	0.063531	1.877109	0.757029
C24	C	-0.378365	1.933999	1.056619
C25	C	-0.366651	1.944032	1.198543
C26	C	-0.378556	2.239602	0.750967
C27	C	-0.366922	2.379864	0.762639
C28	C	-0.433142	1.887072	0.391841
C29	C	-0.444481	1.877259	0.249964
H30	H	-0.291393	1.433689	0.838317
Br31	Br	-0.846878	1.768941	0.864900
H32	H	-0.927705	2.008772	0.625578
H33	H	-0.520081	1.812420	1.185412
H34	H	-0.520229	1.388515	0.608968
Br35	Br	-0.240652	2.052130	1.306134
