data_functionalizedCrystal
_audit_creation_method	'MofGen! by Chris Wilmer'
_symmetry_space_group_name_H-M	'P1'
_symmetry_Int_Tables_number	1
_symmetry_cell_setting	triclinic
loop_
_symmetry_equiv_pos_as_xyz
  x,y,z
_cell_length_a	16.992701
_cell_length_b	16.974813
_cell_length_c	16.176319
_cell_angle_alpha	86.338635
_cell_angle_beta	89.992649
_cell_angle_gamma	87.023742
loop_
_atom_site_label
_atom_site_type_symbol
_atom_site_fract_x
_atom_site_fract_y
_atom_site_fract_z
O1	O	1.040214	0.167642	-0.079966
O2	O	0.811931	0.165805	-0.079843
O3	O	0.932436	0.052022	-0.072227
O4	O	0.919709	0.281425	-0.087582
O5	O	0.932420	0.052013	0.065267
O6	O	0.811915	0.165796	0.057651
O7	O	1.040198	0.167634	0.057528
Cu8	Cu	0.926055	0.166714	0.070144
Cu9	Cu	0.926074	0.166725	-0.092459
O10	O	0.919693	0.281417	0.049912
C11	C	0.782713	0.163435	-0.010938
C12	C	0.695676	0.156376	-0.010466
C13	C	0.206768	0.108947	-0.007294
C14	C	0.288547	0.115586	-0.007734
C15	C	0.320010	0.190341	-0.012741
C16	C	0.269689	0.258461	-0.017301
C17	C	0.187911	0.251822	-0.016856
C18	C	0.563577	0.217857	-0.014581
C19	C	0.645362	0.224492	-0.015028
C20	C	0.664214	0.081615	-0.005459
C21	C	0.582434	0.074983	-0.005019
C22	C	0.532120	0.143103	-0.009575
N23	N	0.403601	0.197128	-0.013193
N24	N	0.448530	0.136315	-0.009117
C25	C	0.931944	0.022529	-0.001508
C26	C	0.930491	-0.065340	0.004368
C27	C	0.929820	-0.106612	-0.067818
C28	C	0.928450	-0.189174	-0.062295
C29	C	0.927757	-0.230463	0.015417
C30	C	0.928427	-0.189185	0.087609
C31	C	0.929791	-0.106624	0.082084
C32	C	0.923671	-0.477383	0.039977
C33	C	0.922309	-0.559950	0.045496
C34	C	0.922331	-0.559932	-0.104408
C35	C	0.923700	-0.477370	-0.109926
C36	C	0.924365	-0.436100	-0.037734
N37	N	0.926360	-0.314854	0.021065
N38	N	0.925757	-0.351709	-0.043383
C39	C	1.069416	0.170004	-0.011379
C40	C	1.156453	0.177063	-0.011857
C41	C	0.920185	0.310910	-0.020809
C42	C	0.921638	0.398779	-0.026691
N43	N	0.926047	0.166707	0.184509
N44	N	0.926089	0.166726	-0.206824
C45	C	0.979422	0.116347	0.231144
C46	C	0.979426	0.116346	0.317692
C47	C	0.926058	0.166710	0.357602
C48	C	0.872676	0.217072	0.310960
C49	C	0.872669	0.217068	0.224415
C50	C	0.872703	0.217089	0.659987
C51	C	0.872716	0.217091	0.746539
C52	C	0.979460	0.116367	0.753264
C53	C	0.979453	0.116363	0.666719
C54	C	0.926069	0.166722	0.620085
C55	C	0.926065	0.166720	0.526241
C56	C	0.926066	0.166716	0.451444
H57	H	0.556823	0.014109	-0.000942
O58	O	0.927669	-0.229279	-0.132402
C59	C	0.858294	-0.317836	-0.213495
C60	C	0.859066	-0.272452	-0.134068
H61	H	0.802842	-0.352765	-0.214860
H62	H	0.858981	-0.274163	-0.270005
H63	H	0.912527	-0.360222	-0.214394
H64	H	0.804842	-0.230066	-0.133088
H65	H	0.858419	-0.316171	-0.077594
H66	H	0.927858	-0.222809	0.150883
O67	O	1.031360	0.067411	0.362865
C68	C	1.137228	-0.032510	0.360404
C69	C	1.078462	0.022881	0.309144
H70	H	1.175314	-0.068538	0.316993
H71	H	1.176406	0.004099	0.398432
H72	H	1.103425	-0.074138	0.403748
H73	H	1.112201	0.064520	0.265755
H74	H	1.039285	-0.013777	0.271172
O75	O	0.924375	-0.437426	0.110184
C76	C	0.924211	-0.446164	0.259450
C77	C	0.923417	-0.491517	0.180004
H78	H	0.923420	-0.489875	0.315920
H79	H	0.979712	-0.411313	0.260907
H80	H	0.870026	-0.403713	0.260334
H81	H	0.977564	-0.534009	0.179068
H82	H	0.867881	-0.526315	0.178578
O83	O	0.930467	-0.066655	0.152288
C84	C	0.930228	-0.075375	0.301555
C85	C	0.929491	-0.120739	0.222113
H86	H	0.929422	-0.119081	0.358028
H87	H	0.985716	-0.040507	0.303039
H88	H	0.876030	-0.032938	0.302404
H89	H	0.983651	-0.163216	0.221211
H90	H	0.873968	-0.155554	0.220661
O91	O	0.176116	0.036372	-0.002324
C92	C	0.094764	-0.054064	0.074991
C93	C	0.129406	0.028160	0.069451
H94	H	0.057005	-0.060736	0.133026
H95	H	0.056905	-0.060761	0.017938
H96	H	0.144789	-0.101591	0.078137
H97	H	0.079430	0.075737	0.066331
H98	H	0.167285	0.034790	0.126503
H99	H	0.930388	-0.073000	-0.131099
O100	O	1.031325	0.067364	0.628084
C101	C	1.137232	-0.032516	0.643889
C102	C	1.078520	0.022925	0.687747
H103	H	1.175416	-0.068447	0.692106
H104	H	1.103463	-0.074226	0.606199
H105	H	1.176320	0.004128	0.600880
H106	H	1.039417	-0.013655	0.730796
H107	H	1.112339	0.064638	0.725384
O108	O	0.820790	0.266037	0.785180
C109	C	0.714929	0.365968	0.769380
C110	C	0.773675	0.310568	0.725514
H111	H	0.676833	0.401997	0.721159
H112	H	0.675759	0.329366	0.812341
H113	H	0.748749	0.407595	0.807120
H114	H	0.739920	0.268930	0.687730
H115	H	0.812845	0.347219	0.682602
H116	H	0.329510	0.060119	-0.004015
H117	H	1.022885	0.075338	0.198655
O118	O	0.820964	0.266058	0.614605
C119	C	0.804152	0.373019	0.509781
C120	C	0.862832	0.317591	0.561109
H121	H	0.837979	0.414709	0.466530
H122	H	0.765022	0.336439	0.471667
H123	H	0.766004	0.408980	0.553198
H124	H	0.901032	0.281619	0.517752
H125	H	0.901908	0.354216	0.599233
H126	H	1.022926	0.075359	0.791243
O127	O	0.924332	-0.437384	-0.185481
C128	C	0.924255	-0.446086	-0.333582
C129	C	0.923515	-0.491466	-0.248069
H130	H	0.923612	-0.489792	-0.384207
H131	H	0.870039	-0.403682	-0.340224
H132	H	0.979725	-0.411181	-0.339618
H133	H	0.868082	-0.526417	-0.241975
H134	H	0.977769	-0.533822	-0.241466
O135	O	0.921785	-0.600098	0.120975
C136	C	0.988132	-0.698003	0.214498
C137	C	0.988821	-0.652582	0.129005
H138	H	1.042315	-0.740459	0.221011
H139	H	0.988896	-0.654356	0.265175
H140	H	0.932633	-0.732859	0.220578
H141	H	1.044310	-0.617723	0.122844
H142	H	0.988015	-0.696268	0.078370
O143	O	0.820724	0.265908	0.349697
C144	C	0.684350	0.303569	0.373650
C145	C	0.743099	0.248199	0.329750
H146	H	0.621578	0.289282	0.357525
H147	H	0.693457	0.294918	0.443527
H148	H	0.694530	0.367544	0.352352
H149	H	0.732955	0.184203	0.350980
H150	H	0.733978	0.256919	0.259880
H151	H	0.829204	0.258076	0.186445
H152	H	0.670975	0.285369	-0.019094
O153	O	0.713058	0.015425	-0.001173
C154	C	0.754170	-0.104683	-0.064330
C155	C	0.698823	-0.029743	-0.069299
H156	H	0.742669	-0.141231	-0.119393
H157	H	0.818039	-0.087146	-0.065559
H158	H	0.742738	-0.141182	-0.004317
H159	H	0.710184	0.006790	-0.129304
H160	H	0.634972	-0.047335	-0.068024
O161	O	0.514745	0.284053	-0.019161
C162	C	0.473664	0.404163	-0.098417
C163	C	0.529001	0.329216	-0.093342
H164	H	0.485182	0.440707	-0.158379
H165	H	0.409792	0.386634	-0.097293
H166	H	0.485089	0.440662	-0.043297
H167	H	0.517647	0.292683	-0.148450
H168	H	0.592854	0.346799	-0.094427
O169	O	0.300158	0.331121	-0.022278
C170	C	0.309109	0.455249	-0.101851
C171	C	0.274538	0.372993	-0.096307
H172	H	0.288423	0.489120	-0.161707
H173	H	0.288354	0.489225	-0.046625
H174	H	0.376200	0.448274	-0.101347
H175	H	0.207447	0.379895	-0.096835
H176	H	0.295355	0.339047	-0.151530
O177	O	0.138953	0.317932	-0.021397
C178	C	0.035718	0.393379	-0.097704
C179	C	0.091104	0.318466	-0.092656
H180	H	-0.002970	0.393844	-0.155321
H181	H	-0.003099	0.393848	-0.040232
H182	H	0.072267	0.447937	-0.101320
H183	H	0.054618	0.263867	-0.089066
H184	H	0.129924	0.318067	-0.150127
H185	H	0.921788	-0.593543	-0.163183
