data_functionalizedCrystal
_audit_creation_method	'MofGen! by Chris Wilmer'
_symmetry_space_group_name_H-M	'P1'
_symmetry_Int_Tables_number	1
_symmetry_cell_setting	triclinic
loop_
_symmetry_equiv_pos_as_xyz
  x,y,z
_cell_length_a	19.188930
_cell_length_b	12.837942
_cell_length_c	11.295663
_cell_angle_alpha	85.464944
_cell_angle_beta	85.931605
_cell_angle_gamma	91.013140
loop_
_atom_site_label
_atom_site_type_symbol
_atom_site_fract_x
_atom_site_fract_y
_atom_site_fract_z
O1	O	0.930765	-0.136401	0.099407
O2	O	0.728652	-0.153811	0.099326
O3	O	0.825227	0.005777	0.099357
O4	O	0.834190	-0.295989	0.099376
O5	O	0.833692	0.019771	-0.098685
O6	O	0.737116	-0.139817	-0.098717
O7	O	0.939229	-0.122406	-0.098635
Cu8	Cu	0.838946	-0.129834	-0.116759
Cu9	Cu	0.828936	-0.146384	0.117449
O10	O	0.842654	-0.281995	-0.098667
C11	C	0.706835	-0.146249	0.000294
C12	C	0.629216	-0.144554	0.000263
N13	N	0.845991	-0.118193	-0.281488
C14	C	0.826432	0.051381	0.000336
C15	C	0.817401	0.166417	0.000334
C16	C	0.590714	-0.238199	0.000287
C17	C	0.517780	-0.236609	0.000300
C18	C	0.483351	-0.141371	0.000313
C19	C	0.521862	-0.047714	0.000282
C20	C	0.594795	-0.049306	0.000257
N21	N	0.367495	-0.073339	0.067759
N22	N	0.298212	-0.071834	0.067785
C23	C	0.263609	-0.136570	0.000385
N24	N	0.300906	-0.202885	-0.067027
N25	N	0.370195	-0.204394	-0.067048
C26	C	0.404268	-0.139635	0.000339
C27	C	0.146024	-0.228497	0.000422
C28	C	0.073090	-0.226903	0.000428
C29	C	0.077173	-0.038006	0.000421
C30	C	0.150106	-0.039602	0.000403
C31	C	0.184527	-0.134851	0.000410
C32	C	0.961047	-0.129968	0.000399
C33	C	1.038666	-0.131664	0.000438
C34	C	0.841450	-0.327599	0.000358
C35	C	0.850480	-0.442636	0.000367
C36	C	0.925966	0.407863	0.000402
C37	C	0.917484	0.515951	0.000401
C38	C	0.791955	0.490681	0.000338
C39	C	0.800437	0.382594	0.000340
C40	C	0.867444	0.341189	0.000370
C41	C	0.875926	0.233100	0.000363
C42	C	0.750398	0.207832	0.000309
C43	C	0.741916	0.315920	0.000307
C44	C	0.896775	-0.034345	-0.468457
C45	C	0.891436	-0.043151	-0.343799
C46	C	0.805883	-0.184437	-0.343844
C47	C	0.811222	-0.175631	-0.468503
C48	C	0.856669	-0.100582	-0.530805
C49	C	0.862004	-0.091773	-0.655465
C50	C	0.776454	-0.233063	-0.655508
C51	C	0.771115	-0.241868	-0.530850
N52	N	0.821896	-0.158016	0.282179
H53	H	0.486426	-0.312868	0.000317
C54	C	0.708406	0.032124	0.000219
C55	C	0.637121	0.053634	0.000238
H56	H	0.734536	0.095677	0.000203
H57	H	0.716579	-0.011815	0.069276
H58	H	0.722449	-0.002063	-0.068849
H59	H	0.623077	0.087815	0.069311
H60	H	0.628944	0.097591	-0.068825
C61	C	0.942938	0.041893	-0.659533
C62	C	0.946723	0.048151	-0.536950
H63	H	0.973772	0.092829	-0.701814
H64	H	0.955998	-0.025792	-0.679941
H65	H	0.896479	0.054415	-0.679980
H66	H	0.993182	0.035621	-0.516501
H67	H	0.933668	0.115851	-0.516534
H68	H	0.930487	0.199391	0.000383
H69	H	0.965138	0.570234	0.000431
H70	H	0.768886	-0.245547	-0.293101
C71	C	0.673176	0.470392	0.000269
C72	C	0.668264	0.361439	0.000266
H73	H	0.627705	0.498490	0.000233
H74	H	0.694612	0.488405	0.069344
H75	H	0.700533	0.498171	-0.068780
H76	H	0.640911	0.333659	0.069320
H77	H	0.646818	0.343417	-0.068816
H78	H	0.899007	-0.030661	-0.706191
C79	C	0.411872	0.038595	0.000338
C80	C	0.484020	0.056973	0.000302
H81	H	0.388512	0.103228	0.000355
H82	H	0.402017	0.004938	-0.068713
H83	H	0.396157	-0.004833	0.069411
H84	H	0.499736	0.100395	-0.068776
H85	H	0.493880	0.090646	0.069360
C86	C	0.134666	-0.415051	0.000417
C87	C	0.183866	-0.333190	0.000410
H88	H	0.158029	-0.479682	0.000402
H89	H	0.103371	-0.415385	0.069482
H90	H	0.109240	-0.405610	-0.068642
H91	H	0.209290	-0.342627	0.069474
H92	H	0.215174	-0.332857	-0.068662
H93	H	0.041743	-0.303162	0.000441
C94	C	-0.032811	0.048306	0.000470
C95	C	0.039336	0.066682	0.000441
H96	H	-0.056171	0.112939	0.000488
H97	H	-0.042664	0.014653	-0.068585
H98	H	-0.048529	0.004876	0.069539
H99	H	0.055055	0.110106	-0.068633
H100	H	0.049194	0.100352	0.069503
H101	H	0.181455	0.036653	0.000390
H102	H	0.743795	-0.286994	-0.706286
C103	C	1.049194	0.443693	0.000466
C104	C	0.999617	0.362343	0.000439
H105	H	1.094663	0.415589	0.000497
H106	H	1.046230	0.490204	-0.068596
H107	H	1.040316	0.480446	0.069528
H108	H	1.008492	0.325595	-0.068628
H109	H	1.002583	0.315814	0.069508
H110	H	0.734115	-0.302975	-0.480109
C111	C	0.625463	0.193717	0.000234
C112	C	0.686065	0.134542	0.000267
H113	H	0.585750	0.148469	0.000196
H114	H	0.621809	0.231507	0.069297
H115	H	0.627727	0.241293	-0.068827
H116	H	0.683803	0.086970	0.069333
H117	H	0.689719	0.096734	-0.068803
H118	H	0.737400	0.524412	0.000326
C119	C	0.976533	0.097393	-0.356281
C120	C	0.935519	0.029663	-0.275266
H121	H	1.003745	0.142350	-0.313969
H122	H	1.006589	0.057780	-0.404875
H123	H	0.947076	0.137996	-0.404931
H124	H	0.964977	-0.010945	-0.226621
H125	H	0.905459	0.069281	-0.226651
H126	H	0.618734	-0.315758	0.000294
