data_functionalizedCrystal
_audit_creation_method	'MofGen! by Chris Wilmer'
_symmetry_space_group_name_H-M	'P1'
_symmetry_Int_Tables_number	1
_symmetry_cell_setting	triclinic
loop_
_symmetry_equiv_pos_as_xyz
  x,y,z
_cell_length_a	17.019386
_cell_length_b	16.992695
_cell_length_c	16.053770
_cell_angle_alpha	87.264060
_cell_angle_beta	96.751283
_cell_angle_gamma	92.973293
loop_
_atom_site_label
_atom_site_type_symbol
_atom_site_fract_x
_atom_site_fract_y
_atom_site_fract_z
O1	O	-1.059543	0.106173	-0.145533
O2	O	-0.726210	0.439506	0.187800
O3	O	-0.392877	0.772840	0.521133
O4	O	-0.829938	0.118190	-0.129044
O5	O	-0.496605	0.451524	0.204290
O6	O	-0.163272	0.784857	0.537623
O7	O	-0.943820	-0.001963	-0.137216
O8	O	-0.610487	0.331370	0.196117
O9	O	-0.277153	0.664704	0.529451
O10	O	-0.945662	0.226326	-0.137361
O11	O	-0.612328	0.559660	0.195972
O12	O	-0.278995	0.892993	0.529305
O13	O	-0.937513	-0.007911	0.002097
O14	O	-0.604179	0.325423	0.335431
O15	O	-0.270846	0.658756	0.668764
O16	O	-0.823631	0.112243	0.010269
O17	O	-0.490298	0.445576	0.343603
O18	O	-0.156964	0.778909	0.676936
O19	O	-1.053236	0.100225	-0.006220
O20	O	-0.719903	0.433559	0.327113
O21	O	-0.386569	0.766892	0.660446
Zn22	Zn	-0.937432	0.105290	0.024143
Zn23	Zn	-0.604099	0.438623	0.357477
Zn24	Zn	-0.270765	0.771956	0.690810
Zn25	Zn	-0.945742	0.113126	-0.159408
Zn26	Zn	-0.612409	0.446459	0.173926
Zn27	Zn	-0.279076	0.779793	0.507259
O28	O	-0.939354	0.220379	0.001952
O29	O	-0.606021	0.553712	0.335285
O30	O	-0.272688	0.887046	0.668618
C31	C	-0.797270	0.114641	-0.057267
C32	C	-0.463936	0.447974	0.276066
C33	C	-0.130603	0.781308	0.609399
C34	C	-0.709323	0.112917	-0.050951
C35	C	-0.375990	0.446250	0.282382
C36	C	-0.042657	0.779583	0.615716
C37	C	-0.671437	0.115350	-0.123917
C38	C	-0.338103	0.448683	0.209416
C39	C	-0.004770	0.782017	0.542750
C40	C	-0.588801	0.113742	-0.117970
C41	C	-0.255467	0.447075	0.215363
C42	C	0.077866	0.780409	0.548697
C43	C	-0.544053	0.109695	-0.039056
C44	C	-0.210720	0.443028	0.294277
C45	C	0.122614	0.776361	0.627611
C46	C	-0.581945	0.107263	0.033915
C47	C	-0.248612	0.440597	0.367249
C48	C	0.084722	0.773930	0.700582
C49	C	-0.664579	0.108877	0.027967
C50	C	-0.331246	0.442210	0.361301
C51	C	0.002087	0.775544	0.694634
C52	C	-0.294379	0.104665	-0.017298
C53	C	0.038955	0.437998	0.316035
C54	C	0.372288	0.771331	0.649369
C55	C	-0.211739	0.103049	-0.011355
C56	C	0.121594	0.436382	0.321978
C57	C	0.454928	0.769715	0.655311
C58	C	-0.218600	0.109529	-0.163241
C59	C	0.114733	0.442862	0.170092
C60	C	0.448066	0.776196	0.503425
C61	C	-0.301236	0.111138	-0.169182
C62	C	0.032097	0.444471	0.164151
C63	C	0.365430	0.777805	0.497484
C64	C	-0.339121	0.108711	-0.096211
C65	C	-0.005787	0.442044	0.237122
C66	C	0.327546	0.775377	0.570456
C67	C	-0.459586	0.108048	-0.032975
C68	C	-0.126252	0.441381	0.300358
C69	C	0.207081	0.774715	0.633692
C70	C	-0.423586	0.110363	-0.102293
C71	C	-0.090253	0.443696	0.231041
C72	C	0.243080	0.777029	0.564374
C73	C	-0.938298	-0.034154	-0.067389
C74	C	-0.604965	0.299179	0.265944
C75	C	-0.271632	0.632512	0.599277
C76	C	-0.931232	-0.121213	-0.066882
C77	C	-0.597899	0.212121	0.266451
C78	C	-0.264566	0.545454	0.599785
C79	C	-0.999408	-0.171316	-0.071777
C80	C	-0.666075	0.162018	0.261556
C81	C	-0.332741	0.495351	0.594889
C82	C	-0.992765	-0.253115	-0.071308
C83	C	-0.659431	0.080218	0.262025
C84	C	-0.326098	0.413551	0.595358
C85	C	-0.917945	-0.284811	-0.065938
C86	C	-0.584611	0.048523	0.267396
C87	C	-0.251278	0.381856	0.600729
C88	C	-0.849764	-0.234701	-0.061044
C89	C	-0.516431	0.098632	0.272289
C90	C	-0.183097	0.431965	0.605622
C91	C	-0.856408	-0.152903	-0.061520
C92	C	-0.523075	0.180430	0.271814
C93	C	-0.189742	0.513764	0.605147
C94	C	-0.890406	-0.528464	-0.063971
C95	C	-0.557073	-0.195130	0.269362
C96	C	-0.223739	0.138203	0.602695
C97	C	-0.883767	-0.610268	-0.063494
C98	C	-0.550433	-0.276935	0.269839
C99	C	-0.217100	0.056398	0.603173
C100	C	-1.026768	-0.628677	-0.073759
C101	C	-0.693435	-0.295343	0.259574
C102	C	-0.360102	0.037990	0.592907
C103	C	-1.033406	-0.546876	-0.074229
C104	C	-0.700073	-0.213543	0.259104
C105	C	-0.366739	0.119791	0.592437
C106	C	-0.965225	-0.496774	-0.069340
C107	C	-0.631892	-0.163440	0.263993
C108	C	-0.298559	0.169893	0.597326
N109	N	-0.911152	-0.368423	-0.065455
N110	N	-0.577819	-0.035090	0.267878
N111	N	-0.244485	0.298244	0.601211
N112	N	-0.972019	-0.413163	-0.069829
N113	N	-0.638686	-0.079829	0.263505
N114	N	-0.305352	0.253504	0.596838
C115	C	-0.085905	0.103771	-0.077999
C116	C	0.247428	0.437104	0.255335
C117	C	0.580762	0.770437	0.588668
C118	C	-0.173852	0.105482	-0.084321
C119	C	0.159481	0.438816	0.249012
C120	C	0.492814	0.772149	0.582345
C121	C	-0.944876	0.252570	-0.067877
C122	C	-0.611543	0.585903	0.265457
C123	C	-0.278209	0.919237	0.598790
C124	C	-0.951942	0.339629	-0.068389
C125	C	-0.618609	0.672962	0.264944
C126	C	-0.285276	1.006295	0.598277
N127	N	-0.951414	0.118468	-0.284676
N128	N	-0.618081	0.451802	0.048657
N129	N	-0.284747	0.785135	0.381990
C130	C	-0.902495	0.072541	-0.324848
C131	C	-0.569162	0.405875	0.008486
C132	C	-0.235829	0.739208	0.341819
C133	C	-0.906473	0.076257	-0.412541
C134	C	-0.573140	0.409590	-0.079208
C135	C	-0.239807	0.742923	0.254126
C136	C	-0.959366	0.125904	-0.460061
C137	C	-0.626033	0.459237	-0.126727
C138	C	-0.292700	0.792570	0.206606
C139	C	-1.008290	0.171832	-0.419884
C140	C	-0.674957	0.505166	-0.086550
C141	C	-0.341624	0.838499	0.246783
C142	C	-1.004316	0.168112	-0.332192
C143	C	-0.670982	0.501446	0.001141
C144	C	-0.337649	0.834779	0.334474
C145	C	-0.976716	0.142150	-0.722720
C146	C	-0.643382	0.475483	-0.389386
C147	C	-0.310049	0.808817	-0.056053
C148	C	-0.980685	0.145868	-0.810417
C149	C	-0.647351	0.479202	-0.477083
C150	C	-0.314018	0.812535	-0.143750
C151	C	-0.878869	0.050291	-0.803068
C152	C	-0.545535	0.383624	-0.469735
C153	C	-0.212202	0.716958	-0.136401
C154	C	-0.874895	0.046579	-0.715375
C155	C	-0.541562	0.379912	-0.382042
C156	C	-0.208229	0.713246	-0.048708
C157	C	-0.923822	0.092504	-0.675206
C158	C	-0.590489	0.425838	-0.341872
C159	C	-0.257155	0.759171	-0.008539
N160	N	-0.963432	0.129704	-0.549697
N161	N	-0.630099	0.463038	-0.216364
N162	N	-0.296765	0.796371	0.116969
N163	N	-0.919760	0.088699	-0.585571
N164	N	-0.586427	0.422032	-0.252238
N165	N	-0.253093	0.755366	0.081096
N166	N	-0.931766	0.099941	0.149412
N167	N	-0.598433	0.433275	0.482745
N168	N	-0.265100	0.766608	0.816078
H169	H	-0.325215	0.102683	0.042121
H170	H	0.008119	0.436016	0.375454
H171	H	0.341452	0.769350	0.708787
H172	H	-0.831825	0.006150	-0.676690
H173	H	-0.498492	0.339483	-0.343357
H174	H	-0.165159	0.672817	-0.010023
H175	H	-0.822835	-0.636072	-0.059107
H176	H	-0.489502	-0.302738	0.274227
H177	H	-0.156169	0.030595	0.607560
Cl178	Cl	-1.078476	-0.316099	-0.077460
Cl179	Cl	-0.745142	0.017234	0.255873
Cl180	Cl	-0.411809	0.350568	0.589206
Cl181	Cl	-0.727683	0.120433	-0.223128
Cl182	Cl	-0.394350	0.453767	0.110205
Cl183	Cl	-0.061017	0.787100	0.443538
Cl184	Cl	-0.541175	0.116802	-0.209703
Cl185	Cl	-0.207842	0.450135	0.123630
Cl186	Cl	0.125491	0.783469	0.456963
H187	H	-0.337665	0.114428	-0.233442
H188	H	-0.004332	0.447761	0.099891
H189	H	0.329002	0.781095	0.433224
Cl190	Cl	-1.093472	-0.131479	-0.078521
Cl191	Cl	-0.760139	0.201854	0.254812
Cl192	Cl	-0.426806	0.535188	0.588146
H193	H	-1.016555	0.179546	-0.690025
H194	H	-0.683221	0.512880	-0.356691
H195	H	-0.349888	0.846213	-0.023358
Cl196	Cl	-0.479841	0.115453	-0.201495
Cl197	Cl	-0.146508	0.448786	0.131838
Cl198	Cl	0.186825	0.782120	0.465172
Cl199	Cl	-0.835994	0.010128	-0.265116
Cl200	Cl	-0.502661	0.343462	0.068217
Cl201	Cl	-0.169328	0.676795	0.401550
Cl202	Cl	-0.170970	0.112572	-0.254971
Cl203	Cl	0.162363	0.445905	0.078363
Cl204	Cl	0.495697	0.779239	0.411696
H205	H	-0.423143	0.104750	0.031277
H206	H	-0.089810	0.438084	0.364610
H207	H	0.243524	0.771417	0.697944
H208	H	-0.175306	0.099775	0.052909
H209	H	0.158028	0.433108	0.386242
H210	H	0.491361	0.766442	0.719576
Cl211	Cl	-1.127471	-0.507036	-0.081008
Cl212	Cl	-0.794137	-0.173702	0.252325
Cl213	Cl	-0.460804	0.159631	0.585658
H214	H	-1.051360	0.212252	-0.458582
H215	H	-0.718027	0.545585	-0.125248
H216	H	-0.384694	0.878919	0.208085
Cl217	Cl	-0.525690	0.102181	0.133122
Cl218	Cl	-0.192357	0.435515	0.466456
Cl219	Cl	0.140977	0.768848	0.799789
Cl220	Cl	-0.770698	-0.089916	-0.055368
Cl221	Cl	-0.437365	0.243418	0.277965
Cl222	Cl	-0.104031	0.576751	0.611298
H223	H	-0.695425	0.106899	0.087384
H224	H	-0.362092	0.440232	0.420718
H225	H	-0.028758	0.773565	0.754051
Cl226	Cl	-1.112475	-0.691666	-0.079907
Cl227	Cl	-0.779142	-0.358333	0.253426
Cl228	Cl	-0.445808	-0.025000	0.586759
Cl229	Cl	-0.804692	-0.465488	-0.057827
Cl230	Cl	-0.471359	-0.132155	0.275506
Cl231	Cl	-0.138026	0.201179	0.608839
Cl232	Cl	-1.065819	0.225848	-0.281691
Cl233	Cl	-0.732486	0.559181	0.051642
Cl234	Cl	-0.399153	0.892515	0.384975
Cl235	Cl	-0.755704	-0.274547	-0.054303
Cl236	Cl	-0.422371	0.058787	0.279030
Cl237	Cl	-0.089037	0.392120	0.612364
Cl238	Cl	-0.844949	0.018542	-0.463037
Cl239	Cl	-0.511616	0.351875	-0.129703
Cl240	Cl	-0.178283	0.685208	0.203630
H241	H	-1.023755	0.186302	-0.849106
H242	H	-0.690422	0.519636	-0.515772
H243	H	-0.357089	0.852969	-0.182439
Cl244	Cl	-0.817368	-0.007443	-0.853572
Cl245	Cl	-0.484034	0.325890	-0.520239
Cl246	Cl	-0.150701	0.659224	-0.186905
