data_functionalizedCrystal
_audit_creation_method	'MofGen! by Chris Wilmer'
_symmetry_space_group_name_H-M	'P1'
_symmetry_Int_Tables_number	1
_symmetry_cell_setting	triclinic
loop_
_symmetry_equiv_pos_as_xyz
  x,y,z
_cell_length_a	6.817900
_cell_length_b	12.200722
_cell_length_c	14.858572
_cell_angle_alpha	93.924192
_cell_angle_beta	104.524003
_cell_angle_gamma	107.140920
loop_
_atom_site_label
_atom_site_type_symbol
_atom_site_fract_x
_atom_site_fract_y
_atom_site_fract_z
V1	V	-4.056917	-0.159435	-0.290059
V2	V	-3.806917	0.090565	-0.040059
V3	V	-3.556917	0.340565	0.209941
V4	V	-3.306917	0.590565	0.459941
O5	O	-4.024805	0.006919	-0.284436
O6	O	-3.774805	0.256919	-0.034436
O7	O	-3.524805	0.506919	0.215564
O8	O	-3.274805	0.756919	0.465564
O9	O	-4.026550	-0.315419	-0.288173
O10	O	-3.776550	-0.065419	-0.038173
O11	O	-3.526550	0.184581	0.211827
O12	O	-3.276550	0.434581	0.461827
O13	O	-4.013309	-0.157309	-0.416520
O14	O	-3.763309	0.092691	-0.166520
O15	O	-3.513309	0.342691	0.083480
O16	O	-3.263309	0.592691	0.333480
O17	O	-4.038138	-0.152286	-0.155201
O18	O	-3.788138	0.097714	0.094799
O19	O	-3.538138	0.347714	0.344799
O20	O	-3.288138	0.597714	0.594799
V21	V	-4.537587	-0.139499	-0.273917
V22	V	-4.287587	0.110501	-0.023917
V23	V	-4.037587	0.360501	0.226083
V24	V	-3.787587	0.610501	0.476083
O25	O	-4.324433	-0.203167	-0.325468
O26	O	-4.074433	0.046833	-0.075468
O27	O	-3.824433	0.296833	0.174532
O28	O	-3.574433	0.546833	0.424532
O29	O	-4.720269	-0.095767	-0.238509
O30	O	-4.470269	0.154233	0.011491
O31	O	-4.220269	0.404233	0.261491
O32	O	-3.970269	0.654233	0.511491
O33	O	-4.344748	0.016485	-0.275803
O34	O	-4.094748	0.266485	-0.025803
O35	O	-3.844748	0.516485	0.224197
O36	O	-3.594748	0.766485	0.474197
O37	O	-4.687096	-0.305852	-0.279541
O38	O	-4.437096	-0.055852	-0.029541
O39	O	-4.187096	0.194148	0.220459
O40	O	-3.937096	0.444148	0.470459
O41	O	-4.673763	-0.146648	-0.408775
O42	O	-4.423763	0.103352	-0.158775
O43	O	-4.173763	0.353352	0.091225
O44	O	-3.923763	0.603352	0.341225
O45	O	-4.357989	-0.141625	-0.147457
O46	O	-4.107989	0.108375	0.102543
O47	O	-3.857989	0.358375	0.352543
O48	O	-3.607989	0.608375	0.602543
C49	C	-3.875783	-0.353434	-0.283623
C50	C	-3.625783	-0.103434	-0.033623
C51	C	-3.375783	0.146566	0.216377
C52	C	-3.125783	0.396566	0.466377
C53	C	-3.932273	-0.480954	-0.282924
C54	C	-3.682273	-0.230954	-0.032924
C55	C	-3.432273	0.019046	0.217076
C56	C	-3.182273	0.269046	0.467076
C57	C	-3.978143	-0.584514	-0.282347
C58	C	-3.728143	-0.334514	-0.032347
C59	C	-3.478143	-0.084514	0.217653
C60	C	-3.228143	0.165486	0.467653
C61	C	-4.035709	-0.714434	-0.281629
C62	C	-3.785709	-0.464434	-0.031629
C63	C	-3.535709	-0.214434	0.218371
C64	C	-3.285709	0.035566	0.468371
C65	C	-3.858891	-0.151747	-0.447340
C66	C	-3.608891	0.098253	-0.197340
C67	C	-3.358891	0.348253	0.052660
C68	C	-3.108891	0.598253	0.302660
C69	C	-3.904640	-0.151041	-0.550723
C70	C	-3.654640	0.098959	-0.300723
C71	C	-3.404640	0.348959	-0.050723
C72	C	-3.154640	0.598959	0.199277
C73	C	-4.072081	-0.148459	-0.929289
C74	C	-3.822081	0.101541	-0.679289
C75	C	-3.572081	0.351541	-0.429289
C76	C	-3.322081	0.601541	-0.179289
C77	C	-4.025485	-0.149177	-0.823960
C78	C	-3.775485	0.100823	-0.573960
C79	C	-3.525485	0.350823	-0.323960
C80	C	-3.275485	0.600823	-0.073960
C81	C	-3.988362	-0.149751	-0.740009
C82	C	-3.738362	0.100249	-0.490009
C83	C	-3.488362	0.350249	-0.240009
C84	C	-3.238362	0.600249	0.009991
C85	C	-3.941763	-0.150467	-0.634674
C86	C	-3.691763	0.099533	-0.384674
C87	C	-3.441763	0.349533	-0.134674
C88	C	-3.191763	0.599533	0.115326
C89	C	-4.158857	0.054494	-0.280351
C90	C	-3.908857	0.304494	-0.030351
C91	C	-3.658857	0.554494	0.219649
C92	C	-3.408857	0.804494	0.469649
C93	C	-4.081606	0.182013	-0.281057
C94	C	-3.831606	0.432013	-0.031057
C95	C	-3.581606	0.682013	0.218943
C96	C	-3.331606	0.932013	0.468943
C97	C	-4.175749	-0.147190	-0.116632
C98	C	-3.925749	0.102810	0.133368
C99	C	-3.675749	0.352810	0.383368
C100	C	-3.425749	0.602810	0.633368
C101	C	-4.109238	-0.147891	-0.013248
C102	C	-3.859238	0.102109	0.236752
C103	C	-3.609238	0.352109	0.486752
C104	C	-3.359238	0.602109	0.736752
