data_functionalizedCrystal
_audit_creation_method	'MofGen! by Chris Wilmer'
_symmetry_space_group_name_H-M	'P1'
_symmetry_Int_Tables_number	1
_symmetry_cell_setting	triclinic
loop_
_symmetry_equiv_pos_as_xyz
  x,y,z
_cell_length_a	15.297475
_cell_length_b	25.639240
_cell_length_c	15.296720
_cell_angle_alpha	99.636054
_cell_angle_beta	88.382886
_cell_angle_gamma	99.655403
loop_
_atom_site_label
_atom_site_type_symbol
_atom_site_fract_x
_atom_site_fract_y
_atom_site_fract_z
Zn1	Zn	1.253164	0.406880	0.726487
Zn2	Zn	1.278383	0.482160	0.579982
Zn3	Zn	1.132059	0.377510	0.554736
Zn4	Zn	1.106612	0.477021	0.701112
O5	O	1.192555	0.435893	0.640579
O6	O	1.379079	0.431308	0.728238
O7	O	1.280176	0.458137	0.454061
O8	O	1.148219	0.308256	0.577573
O9	O	1.397607	0.486616	0.620602
O10	O	1.237195	0.329834	0.703758
O11	O	1.172673	0.381252	0.435513
O12	O	1.006114	0.376269	0.552968
O13	O	1.104849	0.477857	0.827050
O14	O	0.987418	0.449379	0.660510
O15	O	1.212520	0.426325	0.845693
O16	O	1.255502	0.554628	0.595997
O17	O	1.129302	0.550853	0.684990
C18	C	0.964985	0.409079	0.601246
C19	C	0.867626	0.397623	0.584440
C20	C	0.554410	0.517779	0.760697
C21	C	0.645884	0.528546	0.776485
C22	C	0.701324	0.495816	0.728476
C23	C	0.665281	0.452317	0.664675
C24	C	0.573799	0.441551	0.648881
C25	C	0.720713	0.419588	0.616659
C26	C	0.684670	0.376089	0.552858
C27	C	0.593197	0.365325	0.537068
C28	C	0.537757	0.398054	0.585077
C29	C	0.812195	0.430355	0.632453
C30	C	0.831584	0.354127	0.520637
C31	C	0.740110	0.343359	0.504849
C32	C	1.192398	0.571712	0.640503
C33	C	1.192406	0.629828	0.640513
C34	C	1.258329	0.992180	0.594315
C35	C	1.258355	1.046788	0.594328
O36	O	1.314294	1.076700	0.555002
N37	N	1.192622	1.072142	0.640611
C38	C	1.126864	1.042886	0.686892
O39	O	1.070956	1.069466	0.726261
C40	C	1.126844	0.988280	0.686883
C41	C	1.192576	0.962927	0.640590
C42	C	1.324057	0.966827	0.548026
C43	C	1.324030	0.912223	0.548012
C44	C	1.258276	0.882970	0.594287
C45	C	1.192549	0.908323	0.640576
C46	C	1.061091	0.959026	0.733168
C47	C	1.061076	0.904416	0.733156
C48	C	1.126808	0.879064	0.686863
C49	C	1.126769	0.824466	0.686836
N50	N	1.192502	0.799112	0.640553
C51	C	1.258255	0.828364	0.594278
C52	C	1.126914	1.157563	0.686907
C53	C	1.126931	1.212168	0.686911
C54	C	1.258422	1.216066	0.594348
C55	C	1.258401	1.161460	0.594340
C56	C	1.192647	1.132209	0.640624
C57	C	1.258194	0.713690	0.594251
C58	C	1.258160	0.659080	0.594238
C59	C	1.126671	0.655187	0.686804
C60	C	1.126703	0.709792	0.686814
C61	C	1.192472	0.739043	0.640536
O62	O	1.070860	0.794521	0.726145
O63	O	1.314161	0.801779	0.554925
C64	C	1.421013	0.462811	0.680067
C65	C	1.518368	0.474282	0.696894
C66	C	1.153033	0.454794	0.869042
C67	C	1.136191	0.462849	0.966399
C68	C	1.192702	1.299543	0.640659
C69	C	1.192688	1.241425	0.640640
C70	C	1.231973	0.417033	0.413015
C71	C	1.248984	0.408852	0.315688
C72	C	1.312958	0.378238	1.279659
C73	C	1.328788	0.370672	1.188188
C74	C	1.280640	0.393715	1.132736
C75	C	1.216660	0.424326	1.168764
C76	C	1.200834	0.431897	1.260245
C77	C	1.168515	0.447374	1.113322
C78	C	1.104536	0.477985	1.149350
C79	C	1.088712	0.485554	1.240822
C80	C	1.136860	0.462510	1.296273
C81	C	1.184341	0.439804	1.021842
C82	C	1.072217	0.493462	1.002427
C83	C	1.056388	0.501028	1.093898
H84	H	0.675224	0.563964	0.828430
H85	H	0.841532	0.465772	0.684401
O86	O	1.322342	1.136923	0.549361
C87	C	1.452729	1.146560	0.457503
C88	C	1.380377	1.174412	0.508423
H89	H	1.499658	1.176854	0.424376
H90	H	1.491595	1.129699	0.505625
H91	H	1.420454	1.112491	0.404756
H92	H	1.412579	1.208502	0.561169
H93	H	1.341517	1.191235	0.460246
O94	O	0.790181	0.506368	0.743809
C95	C	0.925330	0.570024	0.743751
C96	C	0.824700	0.558148	0.726366
H97	H	0.953272	0.611883	0.729638
H98	H	0.938495	0.567821	0.815920
H99	H	0.958735	0.539136	0.698502
H100	H	0.791228	0.589024	0.771559
H101	H	0.811599	0.560332	0.654176
O102	O	0.500428	0.549502	0.807274
C103	C	0.350911	0.566718	0.832446
C104	C	0.411943	0.530737	0.779647
H105	H	0.279361	0.551566	0.810116
H106	H	0.356622	0.565563	0.906222
H107	H	0.371585	0.609691	0.820046
H108	H	0.391310	0.487748	0.791973
H109	H	0.406225	0.531937	0.705889
O110	O	1.359858	0.355925	1.333504
C111	C	1.504045	0.350404	1.387228
C112	C	1.451032	0.375724	1.326227
H113	H	1.577771	0.366393	1.381351
H114	H	1.481821	0.361086	1.458820
H115	H	1.491787	0.304951	1.366624
H116	H	1.463265	0.421180	1.346750
H117	H	1.473266	0.364999	1.254649
H118	H	1.123976	0.468669	1.370757
O119	O	1.026518	0.515227	1.275918
C120	C	0.890374	0.516875	1.358727
C121	C	0.960748	0.483210	1.319042
H122	H	0.837172	0.491000	1.393586
H123	H	0.923099	0.552479	1.408530
H124	H	0.858719	0.532065	1.303382
H125	H	0.992427	0.467983	1.374326
H126	H	0.927975	0.447634	1.269217
H127	H	1.311751	0.737500	0.556570
O128	O	0.448883	0.387525	0.569821
C129	C	0.313738	0.323856	0.569783
C130	C	0.414380	0.335708	0.587109
H131	H	0.285815	0.281958	0.583736
H132	H	0.280269	0.354690	0.615085
H133	H	0.300635	0.326134	0.497634
H134	H	0.427564	0.333423	0.659235
H135	H	0.447797	0.304874	0.541750
O136	O	0.997309	0.876001	0.778231
C137	C	0.964953	0.822687	0.894380
C138	C	1.037255	0.854861	0.843422
H139	H	0.997223	0.805577	0.947085
H140	H	0.917985	0.850173	0.927533
H141	H	0.926120	0.788458	0.846194
H142	H	1.076153	0.889091	0.891550
H143	H	1.084162	0.827339	0.810255
H144	H	1.311687	0.638440	0.556537
O145	O	0.558324	0.323037	0.475084
C146	C	0.587219	0.248585	0.365807
C147	C	0.626823	0.296450	0.435991
H148	H	0.642583	0.227082	0.334167
H149	H	0.537487	0.219547	0.398682
H150	H	0.552263	0.263716	0.312566
H151	H	0.661824	0.281367	0.489252
H152	H	0.676509	0.325478	0.403052
O153	O	1.295857	0.386363	1.043855
C154	C	1.234649	0.352188	0.898062
C155	C	1.217284	0.360482	0.998700
H156	H	1.171140	0.331252	0.861526
H157	H	1.257009	0.392758	0.876317
H158	H	1.288685	0.326379	0.881842
H159	H	1.163235	0.386271	1.014995
H160	H	1.194973	0.319892	1.020392
H161	H	0.710751	0.307942	0.452901
H162	H	1.004295	0.525952	1.123245
O163	O	0.885550	0.322369	0.474101
C164	C	1.035078	0.305192	0.448840
C165	C	0.974055	0.341188	0.501616
H166	H	1.106649	0.320401	0.471053
H167	H	1.014522	0.262216	0.461267
H168	H	1.029239	0.306332	0.375075
H169	H	0.979863	0.340094	0.575397
H170	H	0.994628	0.384148	0.489114
O171	O	1.387978	0.887689	0.503039
C172	C	1.518380	0.897335	0.411204
C173	C	1.446016	0.925182	0.462113
H174	H	1.565311	0.927632	0.378086
H175	H	1.557240	0.880474	0.459332
H176	H	1.486116	0.863266	0.358451
H177	H	1.478207	0.959272	0.514865
H178	H	1.407162	0.942005	0.413930
O179	O	1.063031	1.236713	0.731950
C180	C	0.932578	1.227060	0.823714
C181	C	1.004902	1.199201	0.772754
H182	H	0.885552	1.196742	0.856702
H183	H	0.964780	1.261099	0.876552
H184	H	0.893823	1.243961	0.775554
H185	H	1.043682	1.182268	0.820845
H186	H	0.972646	1.165189	0.719904
O187	O	1.025389	0.515906	0.948702
C188	C	0.912477	0.569904	0.939086
C189	C	0.965450	0.544527	1.000039
H190	H	0.863991	0.593040	0.980565
H191	H	0.960018	0.598462	0.903205
H192	H	0.874160	0.536958	0.888345
H193	H	1.003771	0.577436	1.050830
H194	H	0.917864	0.515956	1.035855
H195	H	1.377606	0.990639	0.510344
O196	O	1.063138	1.129148	0.731975
C197	C	1.030761	1.075840	0.848128
C198	C	1.103073	1.108010	0.797175
H199	H	1.063022	1.058731	0.900841
H200	H	0.983792	1.103328	0.881271
H201	H	0.991931	1.041610	0.799941
H202	H	1.141967	1.142240	0.845304
H203	H	1.149981	1.080486	0.764018
H204	H	1.311965	1.239894	0.556672
O205	O	0.997198	0.983568	0.778220
C206	C	0.866758	0.973910	0.870001
C207	C	0.939080	0.946054	0.819029
H208	H	0.819740	0.943590	0.902993
H209	H	0.898964	1.007948	0.922837
H210	H	0.827994	0.990810	0.821849
H211	H	0.977869	0.929121	0.867113
H212	H	0.906820	0.912042	0.766181
H213	H	1.073133	0.631361	0.724477
O214	O	1.062963	0.734498	0.731838
C215	C	1.030660	0.804491	0.848091
C216	C	1.102929	0.776572	0.797151
H217	H	1.062944	0.838506	0.900921
H218	H	0.991877	0.821420	0.799990
H219	H	0.983643	0.774187	0.881116
H220	H	1.150006	0.806844	0.764123
H221	H	1.141646	0.759633	0.845293
O222	O	1.246578	0.410147	0.986822
C223	C	1.382677	0.408484	0.903939
C224	C	1.312269	0.442140	0.943571
H225	H	1.435796	0.434333	0.868945
H226	H	1.414439	0.393327	0.959253
H227	H	1.349877	0.372860	0.854222
H228	H	1.345001	0.477788	0.993278
H229	H	1.280512	0.457257	0.888209
H230	H	1.380882	0.345750	1.158861
