data_functionalizedCrystal
_audit_creation_method	'MofGen! by Chris Wilmer'
_symmetry_space_group_name_H-M	'P1'
_symmetry_Int_Tables_number	1
_symmetry_cell_setting	triclinic
loop_
_symmetry_equiv_pos_as_xyz
  x,y,z
_cell_length_a	10.654563
_cell_length_b	10.654550
_cell_length_c	9.730223
_cell_angle_alpha	89.999807
_cell_angle_beta	90.002093
_cell_angle_gamma	84.487706
loop_
_atom_site_label
_atom_site_type_symbol
_atom_site_fract_x
_atom_site_fract_y
_atom_site_fract_z
O1	O	1.667824	0.176475	-0.114213
O2	O	1.302348	0.193263	-0.114231
O3	O	1.493489	0.002130	-0.114217
O4	O	1.476683	0.367608	-0.114228
O5	O	1.493487	0.002135	0.114363
O6	O	1.302345	0.193268	0.114349
O7	O	1.667822	0.176480	0.114367
Zn8	Zn	1.485083	0.184875	0.150650
Zn9	Zn	1.485086	0.184868	-0.150514
O10	O	1.476681	0.367613	0.114352
C11	C	1.255549	0.192029	0.000056
C12	C	1.116106	0.188331	0.000049
C13	C	1.492254	-0.044665	0.000072
C14	C	1.488562	-0.184109	0.000067
C15	C	1.601103	-0.263589	0.000076
C16	C	1.597626	-0.394610	0.000067
C17	C	1.369058	-0.366658	0.000043
C18	C	1.372536	-0.235639	0.000043
C19	C	1.733065	-0.279728	0.000096
C20	C	1.729588	-0.410749	0.000086
C21	C	1.050587	0.186594	-0.124545
C22	C	0.919563	0.183139	-0.124533
C23	C	0.919591	0.183154	0.124678
C24	C	1.050611	0.186617	0.124664
C25	C	0.731515	0.251850	-0.274216
C26	C	0.665994	0.250091	-0.398816
C27	C	0.717481	0.177746	-0.508828
C28	C	0.834491	0.107129	-0.494246
C29	C	0.900007	0.108877	-0.369643
C30	C	0.848518	0.181251	-0.259636
C31	C	1.238663	0.117896	0.274338
C32	C	1.304182	0.119635	0.398942
C33	C	1.252699	0.191972	0.508966
C34	C	1.135687	0.262570	0.494397
C35	C	1.070168	0.260831	0.369793
C36	C	1.121660	0.188496	0.259769
C37	C	1.714621	0.177714	0.000076
C38	C	1.854063	0.181413	0.000074
C39	C	1.477916	0.414409	0.000061
C40	C	1.481608	0.553852	0.000057
N41	N	1.485090	0.184878	0.356186
N42	N	1.485089	0.184855	-0.356051
C43	C	1.569750	0.100274	0.428119
C44	C	1.569746	0.100258	0.572002
C45	C	1.400420	0.269464	0.572007
C46	C	1.400419	0.269472	0.428126
C47	C	1.667512	0.002588	0.428117
C48	C	1.667509	0.002573	0.572000
H49	H	1.280894	-0.170930	0.000016
H50	H	1.274593	-0.408630	0.000023
H51	H	1.779309	-0.452505	0.095747
F52	F	1.793655	0.030695	0.623054
H53	H	0.876398	0.048212	-0.583830
H54	H	1.769470	-0.456392	-0.098606
F55	F	1.786688	0.042588	0.369785
F56	F	1.120287	0.188422	-0.257171
H57	H	0.689590	0.310777	-0.184648
H58	H	1.784681	-0.250369	-0.095555
H59	H	0.995276	0.051384	-0.357771
H60	H	1.646070	-0.093946	0.389064
F61	F	0.647745	0.175879	-0.641437
H62	H	1.280598	0.058996	0.184748
F63	F	0.541471	0.325254	-0.414334
F64	F	0.849876	0.181326	0.257294
H65	H	1.636996	-0.088652	0.616616
H66	H	1.331482	0.338337	0.630596
H67	H	1.775085	-0.244097	0.098794
F68	F	0.945625	0.335960	0.354294
F69	F	1.080882	0.339548	0.611502
F70	F	1.428686	0.044439	0.414470
F71	F	1.322422	0.193794	0.641592
F72	F	1.310300	0.359503	0.351571
