data_functionalizedCrystal
_audit_creation_method	'MofGen! by Chris Wilmer'
_symmetry_space_group_name_H-M	'P1'
_symmetry_Int_Tables_number	1
_symmetry_cell_setting	triclinic
loop_
_symmetry_equiv_pos_as_xyz
  x,y,z
_cell_length_a	10.686220
_cell_length_b	18.101395
_cell_length_c	18.101390
_cell_angle_alpha	89.968664
_cell_angle_beta	94.351820
_cell_angle_gamma	94.412841
loop_
_atom_site_label
_atom_site_type_symbol
_atom_site_fract_x
_atom_site_fract_y
_atom_site_fract_z
Zn1	Zn	1.928995	-0.207842	-0.331995
Zn2	Zn	1.928816	-0.331707	-0.208165
Zn3	Zn	1.717984	-0.217388	-0.217657
Zn4	Zn	1.717902	-0.341162	-0.341450
O5	O	1.823424	-0.274525	-0.274816
O6	O	2.105549	-0.216321	-0.307639
O7	O	1.900809	-0.316581	-0.105793
O8	O	1.746085	-0.112484	-0.232839
O9	O	2.105417	-0.307324	-0.216662
O10	O	1.901113	-0.105471	-0.316843
O11	O	1.745911	-0.232591	-0.112766
O12	O	1.541396	-0.241759	-0.242007
O13	O	1.745944	-0.323439	-0.443827
O14	O	1.541335	-0.332696	-0.332957
O15	O	1.901033	-0.225489	-0.436880
O16	O	1.900729	-0.436599	-0.225830
O17	O	1.745771	-0.443546	-0.323754
C18	C	1.495581	-0.289290	-0.289539
C19	C	1.355328	-0.295624	-0.295855
C20	C	1.823256	-0.466943	-0.274802
C21	C	1.823299	-0.549255	-0.274816
C22	C	1.823576	-0.848334	-0.274843
C23	C	1.726306	-0.821400	-0.336586
C24	C	1.725844	-0.735803	-0.336427
C25	C	1.823438	-0.699957	-0.274830
C26	C	1.787436	-0.732737	-0.198400
C27	C	1.786809	-0.818411	-0.198771
C28	C	1.957060	-0.810659	-0.288834
C29	C	1.956275	-0.725043	-0.290581
C30	C	1.823363	-0.616101	-0.274818
C31	C	1.823648	-0.932190	-0.274850
C32	C	2.152548	-0.259703	-0.260037
C33	C	2.292801	-0.253387	-0.253739
C34	C	1.823499	-0.274454	-0.467975
C35	C	1.823531	-0.274424	-0.550288
C36	C	1.823628	-0.081354	-0.274845
C37	C	1.823715	0.000964	-0.274858
C38	C	1.823600	-0.274375	-0.849376
C39	C	1.921499	-0.212934	-0.813666
C40	C	1.921194	-0.212736	-0.728061
C41	C	1.823567	-0.274399	-0.700995
C42	C	1.690636	-0.259188	-0.738046
C43	C	1.691222	-0.258734	-0.823665
C44	C	1.857460	-0.351225	-0.816267
C45	C	1.860377	-0.350694	-0.730486
C46	C	1.823540	-0.274414	-0.617136
C47	C	1.823617	-0.274358	-0.933235
C48	C	1.823422	-0.274539	-0.082406
C49	C	1.823635	-0.274350	-0.000083
H50	H	1.748369	-0.713719	-0.393287
H51	H	1.301557	-0.336639	-0.336742
H52	H	1.615799	-0.301863	-0.847765
Cl53	Cl	2.068954	-0.836898	-0.219304
Cl54	Cl	1.891429	-0.845689	-0.125817
H55	H	2.032580	-0.700193	-0.248411
Cl56	Cl	1.645512	-0.173745	-0.706983
Cl57	Cl	1.636159	-0.856152	-0.179398
Cl58	Cl	1.887339	-0.125327	-0.848450
Cl59	Cl	1.574958	-0.326560	-0.711796
H60	H	1.748608	-0.840938	-0.393644
Cl61	Cl	1.573083	-0.711153	-0.322853
Cl62	Cl	1.574479	-0.861589	-0.323240
H63	H	1.856054	-0.709277	-0.151404
Cl64	Cl	2.074188	-0.226291	-0.838611
H65	H	1.786161	-0.396931	-0.839725
Cl66	Cl	1.638377	-0.706449	-0.178484
Cl67	Cl	2.007738	-0.841634	-0.372929
H68	H	1.983425	-0.703452	-0.346800
Cl69	Cl	2.004552	-0.374370	-0.843009
Cl70	Cl	2.073385	-0.226363	-0.688779
H71	H	1.898780	-0.155683	-0.708595
H72	H	1.958202	-0.362273	-0.705777
H73	H	1.794257	-0.398447	-0.712044
Cl74	Cl	1.375805	-0.190073	-0.190606
Cl75	Cl	1.646846	-0.172289	-0.856526
