data_functionalizedCrystal
_audit_creation_method	'MofGen! by Chris Wilmer'
_symmetry_space_group_name_H-M	'P1'
_symmetry_Int_Tables_number	1
_symmetry_cell_setting	triclinic
loop_
_symmetry_equiv_pos_as_xyz
  x,y,z
_cell_length_a	14.853558
_cell_length_b	14.853559
_cell_length_c	13.330367
_cell_angle_alpha	89.997552
_cell_angle_beta	89.992972
_cell_angle_gamma	83.631294
loop_
_atom_site_label
_atom_site_type_symbol
_atom_site_fract_x
_atom_site_fract_y
_atom_site_fract_z
O1	O	1.196370	0.117664	-0.083406
O2	O	1.696370	0.617664	0.416594
O3	O	0.933909	0.131694	-0.083410
O4	O	1.433909	0.631694	0.416590
O5	O	1.072155	-0.006551	-0.083407
O6	O	1.572155	0.493449	0.416593
O7	O	1.058125	0.255910	-0.083409
O8	O	1.558125	0.755910	0.416591
O9	O	1.072135	-0.006554	0.083440
O10	O	1.572135	0.493446	0.583440
O11	O	0.933889	0.131691	0.083437
O12	O	1.433889	0.631691	0.583437
O13	O	1.196350	0.117661	0.083441
O14	O	1.696350	0.617661	0.583441
Cu15	Cu	1.065118	0.124676	0.098673
Cu16	Cu	1.565118	0.624676	0.598673
Cu17	Cu	1.065142	0.124680	-0.098643
Cu18	Cu	1.565142	0.624680	0.401357
O19	O	1.058105	0.255907	0.083438
O20	O	1.558105	0.755907	0.583438
C21	C	0.900310	0.131059	0.000013
C22	C	1.400310	0.631059	0.500013
C23	C	0.800226	0.129158	0.000011
C24	C	1.300226	0.629158	0.500011
C25	C	1.071510	-0.040142	0.000015
C26	C	1.571510	0.459858	0.500015
C27	C	1.069609	-0.140226	0.000009
C28	C	1.569609	0.359774	0.500009
C29	C	0.753217	0.128269	-0.090941
C30	C	1.253217	0.628269	0.409059
C31	C	0.753194	0.128254	0.090962
C32	C	1.253194	0.628254	0.590962
C33	C	0.659160	0.126464	0.090964
C34	C	1.159160	0.626464	0.590964
C35	C	0.612151	0.125574	0.000011
C36	C	1.112151	0.625574	0.500011
C37	C	0.659175	0.126475	-0.090942
C38	C	1.159175	0.626475	0.409058
C39	C	0.612130	0.125554	0.181916
C40	C	1.112130	0.625554	0.681916
C41	C	0.518091	0.123762	0.181921
C42	C	1.018091	0.623762	0.681921
C43	C	0.471079	0.122879	0.090968
C44	C	0.971079	0.622879	0.590968
C45	C	0.518109	0.123781	0.000010
C46	C	1.018109	0.623781	0.500010
C47	C	0.471100	0.122891	-0.090942
C48	C	0.971100	0.622891	0.409058
C49	C	0.518127	0.123800	-0.181900
C50	C	1.018127	0.623800	0.318100
C51	C	0.612163	0.125592	-0.181896
C52	C	1.112163	0.625592	0.318104
C53	C	0.377042	0.121087	0.090963
C54	C	0.877042	0.621087	0.590963
C55	C	0.377058	0.121098	-0.090943
C56	C	0.877058	0.621098	0.409057
C57	C	1.061557	-0.563399	-0.090940
C58	C	1.561557	-0.063399	0.409060
C59	C	1.061535	-0.563397	0.090963
C60	C	1.561535	-0.063397	0.590963
C61	C	1.063328	-0.469364	0.090964
C62	C	1.563328	0.030636	0.590964
C63	C	1.064234	-0.422343	0.000012
C64	C	1.564234	0.077657	0.500012
C65	C	1.063347	-0.469356	-0.090942
C66	C	1.563347	0.030644	0.409058
C67	C	1.064206	-0.422342	0.181916
C68	C	1.564206	0.077658	0.681916
C69	C	1.065998	-0.328303	0.181921
C70	C	1.565998	0.171697	0.681921
C71	C	1.066911	-0.281282	0.090967
C72	C	1.566911	0.218718	0.590967
C73	C	1.066025	-0.328301	0.000010
C74	C	1.566025	0.171699	0.500010
C75	C	1.066932	-0.281281	-0.090943
C76	C	1.566932	0.218719	0.409057
C77	C	1.066052	-0.328299	-0.181901
C78	C	1.566052	0.171701	0.318099
C79	C	1.064260	-0.422335	-0.181895
C80	C	1.564260	0.077665	0.318105
C81	C	1.068703	-0.187246	0.090961
C82	C	1.568703	0.312754	0.590961
C83	C	1.068722	-0.187239	-0.090945
C84	C	1.568722	0.312761	0.409055
C85	C	1.229949	0.118297	0.000016
C86	C	1.729949	0.618297	0.500016
C87	C	1.330033	0.120197	0.000011
C88	C	1.830033	0.620197	0.500011
C89	C	1.058749	0.289497	0.000014
C90	C	1.558749	0.789497	0.500014
C91	C	1.060650	0.389581	0.000013
C92	C	1.560650	0.889581	0.500013
N93	N	1.065108	0.124673	0.237455
N94	N	1.565108	0.624673	0.737455
N95	N	1.065159	0.124676	-0.237424
N96	N	1.565159	0.624676	0.262576
C97	C	1.003924	0.185871	0.710076
C98	C	1.503924	0.685871	1.210076
C99	C	1.126384	0.063481	0.710047
C100	C	1.626384	0.563481	1.210047
C101	C	1.126373	0.063479	0.605029
C102	C	1.626373	0.563479	1.105029
C103	C	1.065139	0.124674	0.552529
C104	C	1.565139	0.624674	1.052529
C105	C	1.003914	0.185872	0.605048
C106	C	1.503914	0.685872	1.105048
C107	C	1.187603	0.002288	0.552502
C108	C	1.687603	0.502288	1.052502
C109	C	1.187596	0.002284	0.447477
C110	C	1.687596	0.502284	0.947477
C111	C	1.126356	0.063475	0.394976
C112	C	1.626356	0.563475	0.894976
C113	C	1.065128	0.124675	0.447501
C114	C	1.565128	0.624675	0.947501
C115	C	1.003893	0.185870	0.395002
C116	C	1.503893	0.685870	0.895002
C117	C	0.942660	0.247066	0.447525
C118	C	1.442660	0.747066	0.947525
C119	C	0.942674	0.247063	0.552547
C120	C	1.442674	0.747063	1.052547
C121	C	1.126343	0.063478	0.289954
C122	C	1.626343	0.563478	0.789954
C123	C	1.003883	0.185871	0.289974
C124	C	1.503883	0.685871	0.789974
H125	H	0.338789	0.120379	-0.165008
H126	H	0.838789	0.620379	0.334992
Br127	Br	0.920819	0.268914	0.781351
Br128	Br	1.420819	0.768914	1.281351
H129	H	0.791475	0.128972	0.165011
H130	H	1.291475	0.628972	0.665011
Br131	Br	0.920767	0.268918	0.218732
Br132	Br	1.420767	0.768918	0.718732
H133	H	0.338756	0.120356	0.165020
H134	H	0.838756	0.620356	0.665020
Br135	Br	1.209494	-0.019558	0.781292
Br136	Br	1.709494	0.480442	1.281292
Br137	Br	0.675931	0.126762	0.305343
Br138	Br	1.175931	0.626762	0.805343
H139	H	1.176202	0.013657	0.247194
H140	H	1.676202	0.513657	0.747194
Br141	Br	0.454274	0.122540	0.305361
Br142	Br	0.954274	0.622540	0.805361
H143	H	0.479841	0.123071	-0.255954
H144	H	0.979841	0.623071	0.244046
H145	H	1.066783	-0.290002	-0.255954
H146	H	1.566783	0.209998	0.244046
Br147	Br	1.069963	-0.123434	-0.214387
Br148	Br	1.569963	0.376566	0.285613
Br149	Br	1.069892	-0.123438	0.214394
Br150	Br	1.569892	0.376562	0.714394
H151	H	0.892806	0.296895	0.404768
H152	H	1.392806	0.796895	0.904768
Br153	Br	1.067185	-0.264500	0.305360
Br154	Br	1.567185	0.235500	0.805360
H155	H	0.892821	0.296887	0.595318
H156	H	1.392821	0.796887	1.095318
Br157	Br	1.063074	-0.486151	-0.305327
Br158	Br	1.563074	0.013849	0.194673
H159	H	0.650462	0.126330	-0.255949
H160	H	1.150462	0.626330	0.244051
Br161	Br	1.270714	-0.080752	0.623747
Br162	Br	1.770714	0.419248	1.123747
H163	H	1.060844	-0.601685	-0.164996
H164	H	1.560844	-0.101685	0.335004
Br165	Br	0.817035	0.129505	-0.214379
Br166	Br	1.317035	0.629505	0.285621
Br167	Br	1.270693	-0.080766	0.376201
Br168	Br	1.770693	0.419234	0.876201
H169	H	1.060791	-0.601686	0.165013
H170	H	1.560791	-0.101686	0.665013
H171	H	1.063463	-0.460632	0.255965
H172	H	1.563463	0.039368	0.755965
