data_functionalizedCrystal
_audit_creation_method	'MofGen! by Chris Wilmer'
_symmetry_space_group_name_H-M	'P1'
_symmetry_Int_Tables_number	1
_symmetry_cell_setting	triclinic
loop_
_symmetry_equiv_pos_as_xyz
  x,y,z
_cell_length_a	16.992694
_cell_length_b	16.974885
_cell_length_c	16.053802
_cell_angle_alpha	96.211606
_cell_angle_beta	87.249047
_cell_angle_gamma	87.024242
loop_
_atom_site_label
_atom_site_type_symbol
_atom_site_fract_x
_atom_site_fract_y
_atom_site_fract_z
O1	O	1.042985	0.165033	-0.058179
O2	O	0.814709	0.163187	-0.058328
O3	O	0.935581	0.049061	-0.066017
O4	O	0.922112	0.279158	-0.050489
O5	O	0.928928	0.055315	0.073263
O6	O	0.808056	0.169441	0.080952
O7	O	1.036332	0.171287	0.081102
Zn8	Zn	0.921137	0.171357	0.103141
Zn9	Zn	0.929903	0.163117	-0.080367
O10	O	0.915459	0.285412	0.088791
C11	C	0.782180	0.163940	0.011149
C12	C	0.695167	0.156859	0.010661
C13	C	0.644633	0.225181	0.015273
C14	C	0.562874	0.218523	0.014835
C15	C	0.531651	0.143543	0.009780
C16	C	0.582192	0.075216	0.005171
C17	C	0.663948	0.081874	0.005615
C18	C	0.288171	0.115946	0.007940
C19	C	0.206408	0.109292	0.007494
C20	C	0.187096	0.252600	0.017160
C21	C	0.268855	0.259252	0.017598
C22	C	0.319388	0.190925	0.012993
N23	N	0.448081	0.136736	0.009330
N24	N	0.402956	0.197733	0.013450
C25	C	0.931866	0.022610	0.001625
C26	C	0.930698	-0.065525	-0.004329
C27	C	0.926521	-0.103529	0.068792
C28	C	0.925429	-0.186342	0.063191
C29	C	0.928508	-0.231149	-0.015533
C30	C	0.932688	-0.193139	-0.088659
C31	C	0.933786	-0.110328	-0.083057
C32	C	0.925620	-0.479182	-0.040429
C33	C	0.924520	-0.561998	-0.046026
C34	C	0.917262	-0.555195	0.105825
C35	C	0.918355	-0.472383	0.111420
C36	C	0.922539	-0.434381	0.038294
N37	N	0.927390	-0.315796	-0.021260
N38	N	0.923663	-0.349735	0.044022
C39	C	1.068861	0.170533	0.011623
C40	C	1.155874	0.177614	0.012105
C41	C	0.919175	0.311863	0.021147
C42	C	0.920343	0.399998	0.027095
N43	N	0.915161	0.176980	0.228380
N44	N	0.935886	0.157487	-0.205607
C45	C	0.966611	0.128439	0.268803
C46	C	0.962437	0.132381	0.356476
C47	C	0.906817	0.184868	0.403723
C48	C	0.855362	0.233411	0.363294
C49	C	0.859532	0.229465	0.275623
C50	C	0.888601	0.202084	0.666293
C51	C	0.884436	0.206028	0.753970
C52	C	0.991511	0.104996	0.747146
C53	C	0.995680	0.101058	0.659473
C54	C	0.944222	0.149598	0.619051
N55	N	0.902551	0.188900	0.493339
N56	N	0.948484	0.145561	0.529437
H57	H	0.180991	0.048231	0.003376
Cl58	Cl	0.683875	0.319446	0.021623
Cl59	Cl	1.036541	0.062455	0.209416
Cl60	Cl	0.785434	0.299392	0.422689
Cl61	Cl	0.912005	-0.602974	0.197749
Cl62	Cl	0.499349	0.304418	0.020627
Cl63	Cl	1.027118	0.071356	0.407295
H64	H	0.935200	-0.229628	-0.152757
Cl65	Cl	0.922646	-0.047208	0.167764
Cl66	Cl	1.065604	0.035075	0.600076
Cl67	Cl	0.308101	0.353517	0.023948
Cl68	Cl	0.542940	-0.019046	-0.001179
H69	H	0.922031	-0.217281	0.122734
H70	H	0.929025	-0.448251	-0.099974
H71	H	0.927020	-0.598477	-0.110135
Cl72	Cl	0.939041	-0.062552	-0.174984
Cl73	Cl	0.727477	-0.004020	-0.000179
Cl74	Cl	0.914463	-0.416059	0.210391
Cl75	Cl	1.056195	0.043975	0.797966
Cl76	Cl	0.351688	0.030048	0.002150
H77	H	0.145944	0.308228	0.020910
Cl78	Cl	0.814507	0.272020	0.813362
H79	H	0.846703	0.241608	0.633388
Cl80	Cl	0.794846	0.290488	0.224806
