data_functionalizedCrystal
_audit_creation_method	'MofGen! by Chris Wilmer'
_symmetry_space_group_name_H-M	'P1'
_symmetry_Int_Tables_number	1
_symmetry_cell_setting	triclinic
loop_
_symmetry_equiv_pos_as_xyz
  x,y,z
_cell_length_a	17.640112
_cell_length_b	17.637651
_cell_length_c	18.215399
_cell_angle_alpha	101.243683
_cell_angle_beta	78.824100
_cell_angle_gamma	114.329102
loop_
_atom_site_label
_atom_site_type_symbol
_atom_site_fract_x
_atom_site_fract_y
_atom_site_fract_z
Zn1	Zn	1.193556	-0.073150	0.178028
Zn2	Zn	1.165612	-0.211026	0.034236
Zn3	Zn	1.055742	-0.101073	0.075614
Zn4	Zn	1.027877	-0.238863	0.177901
O5	O	1.110697	-0.156028	0.116445
O6	O	1.305167	-0.068103	0.141690
O7	O	1.151004	-0.196476	-0.063260
O8	O	1.097379	0.017998	0.106569
O9	O	1.284637	-0.169400	0.036047
O10	O	1.198631	0.038513	0.181812
O11	O	1.070283	-0.115695	-0.032860
O12	O	0.936727	-0.142688	0.106446
O13	O	1.049888	-0.216845	0.280903
O14	O	0.916255	-0.243922	0.181596
O15	O	1.171611	-0.095096	0.280996
O16	O	1.123985	-0.330086	0.035924
O17	O	1.022792	-0.350538	0.141473
C18	C	0.896590	-0.199356	0.148497
C19	C	0.804991	-0.217912	0.162224
C20	C	0.556987	-0.015048	0.012172
C21	C	0.470912	-0.032500	0.025078
C22	C	0.449619	-0.138060	0.103147
C23	C	0.535695	-0.120614	0.090251
C24	C	0.589372	-0.059107	0.044762
C25	C	0.568080	-0.164673	0.122841
C26	C	0.654148	-0.147231	0.109942
C27	C	0.707830	-0.085729	0.064454
C28	C	0.675440	-0.041665	0.031864
C29	C	0.514400	-0.226183	0.168326
C30	C	0.546786	-0.270243	0.200915
C31	C	0.632855	-0.252797	0.188021
C32	C	0.686538	-0.191295	0.142533
C33	C	0.665246	-0.296861	0.220612
C34	C	0.751313	-0.279418	0.207713
C35	C	0.772605	-0.173852	0.129634
C36	C	1.067355	-0.370221	0.084207
C37	C	1.048888	-0.461838	0.070430
C38	C	1.251520	-0.709499	0.221265
C39	C	1.234142	-0.795592	0.208310
C40	C	1.128779	-0.817048	0.129858
C41	C	1.146151	-0.730954	0.142804
C42	C	1.207522	-0.677186	0.188509
C43	C	1.102153	-0.698641	0.110047
C44	C	1.119521	-0.612555	0.122995
C45	C	1.180887	-0.558782	0.168700
C46	C	1.224890	-0.591100	0.201457
C47	C	1.040778	-0.752411	0.064346
C48	C	0.996780	-0.720098	0.031590
C49	C	1.014152	-0.634010	0.044533
C50	C	1.075518	-0.580237	0.090238
C51	C	0.970149	-0.601692	0.011776
C52	C	0.987518	-0.515606	0.024724
C53	C	1.092886	-0.494151	0.103186
C54	C	1.325639	-0.112532	0.084267
C55	C	1.417235	-0.093996	0.070555
C56	C	1.110758	-0.155961	0.308399
C57	C	1.110785	-0.155933	0.390198
C58	C	1.154230	0.059005	0.148820
C59	C	1.172782	0.150640	0.162617
C60	C	1.110695	-0.156026	-0.074761
C61	C	1.110875	-0.155790	-0.156549
C62	C	1.174195	-0.092485	0.578446
C63	C	1.174210	-0.092459	0.655307
C64	C	1.047458	-0.219241	0.655198
C65	C	1.047441	-0.219263	0.578340
C66	C	1.110814	-0.155885	0.539965
C67	C	1.110846	-0.155837	0.693684
C68	C	1.110861	-0.155809	0.777020
C69	C	1.110798	-0.155912	0.456624
H70	H	0.719150	0.008432	-0.005165
H71	H	0.995864	-0.270843	0.686452
C72	C	0.977723	-0.289011	0.536006
H73	H	0.939990	-0.326761	0.569864
H74	H	0.948193	-0.264754	0.516142
H75	H	1.001979	-0.318559	0.495898
C76	C	0.929276	-0.779243	-0.018682
H77	H	0.905556	-0.747667	-0.036333
H78	H	0.954044	-0.806443	-0.060496
H79	H	0.886569	-0.820100	0.009775
C80	C	0.606207	-0.364472	0.270689
H81	H	0.637824	-0.388205	0.288262
H82	H	0.579041	-0.339741	0.312557
H83	H	0.565343	-0.407181	0.242148
H84	H	0.816316	-0.123755	0.092605
H85	H	1.225820	-0.040831	0.686636
H86	H	0.444319	-0.240383	0.178826
H87	H	0.600697	0.035049	-0.024857
C88	C	0.802504	-0.066538	0.050261
H89	H	0.829831	-0.023602	0.018498
H90	H	0.824871	-0.048399	0.096985
H91	H	0.811215	-0.115776	0.026529
H92	H	0.444550	0.003388	-0.001458
C93	C	1.292381	-0.531953	0.251749
H94	H	1.316093	-0.563526	0.269413
H95	H	1.335087	-0.491080	0.223314
H96	H	1.267584	-0.504774	0.293563
C97	C	0.487738	-0.337892	0.250953
H98	H	0.431841	-0.341967	0.253973
H99	H	0.490643	-0.390409	0.229660
H100	H	0.504297	-0.323022	0.300109
C101	C	0.390571	-0.205709	0.153185
H102	H	0.334675	-0.209784	0.156205
H103	H	0.393477	-0.258227	0.131892
H104	H	0.407130	-0.190839	0.202341
H105	H	0.951689	-0.489298	-0.001949
H106	H	0.777681	-0.315295	0.234252
C107	C	0.902640	-0.660840	-0.038490
H108	H	0.878918	-0.629266	-0.056140
H109	H	0.927402	-0.688045	-0.080303
H110	H	0.859936	-0.701693	-0.010027
H111	H	1.142867	-0.450369	0.140398
H112	H	1.195028	-0.488685	0.179241
C113	C	1.243893	-0.022764	0.536240
H114	H	1.281637	0.015003	0.570171
H115	H	1.273414	-0.047034	0.496133
H116	H	1.219624	0.006767	0.516389
H117	H	1.301501	-0.665716	0.258477
H118	H	1.269963	-0.821899	0.235000
C119	C	1.061280	-0.876195	0.079582
H120	H	1.057240	-0.932093	0.076557
H121	H	1.008742	-0.873327	0.100711
H122	H	1.076227	-0.859661	0.030449
H123	H	1.026632	-0.822509	0.053814
