data_functionalizedCrystal
_audit_creation_method	'MofGen! by Chris Wilmer'
_symmetry_space_group_name_H-M	'P1'
_symmetry_Int_Tables_number	1
_symmetry_cell_setting	triclinic
loop_
_symmetry_equiv_pos_as_xyz
  x,y,z
_cell_length_a	10.489741
_cell_length_b	10.723024
_cell_length_c	9.798715
_cell_angle_alpha	90.002215
_cell_angle_beta	90.000765
_cell_angle_gamma	84.503522
loop_
_atom_site_label
_atom_site_type_symbol
_atom_site_fract_x
_atom_site_fract_y
_atom_site_fract_z
O1	O	-1.693940	-0.176061	-0.113403
O2	O	-1.322733	-0.192587	-0.113424
O3	O	-1.516899	-0.002753	-0.113408
O4	O	-1.499774	-0.365895	-0.113419
O5	O	-1.516885	-0.002752	0.113574
O6	O	-1.322720	-0.192586	0.113558
O7	O	-1.693926	-0.176059	0.113579
Zn8	Zn	-1.508321	-0.184322	0.149607
Zn9	Zn	-1.508339	-0.184324	-0.149452
O10	O	-1.499760	-0.365894	0.113563
C11	C	-1.275196	-0.191338	0.000065
C12	C	-1.133569	-0.187604	0.000057
C13	C	-1.515646	0.043748	0.000082
C14	C	-1.511917	0.182305	0.000077
C15	C	-1.741464	-0.177308	0.000088
C16	C	-1.883091	-0.181043	0.000087
C17	C	-1.065506	-0.066818	0.000073
C18	C	-0.973349	-0.123877	-0.111840
C19	C	-0.973370	-0.123904	0.111947
C20	C	-1.043277	-0.244712	-0.111949
C21	C	-1.043307	-0.244723	0.111939
C22	C	-0.951178	-0.301869	-0.000002
C23	C	-1.501013	-0.412395	0.000071
C24	C	-1.504742	-0.550951	0.000067
N25	N	-1.508318	-0.184320	0.353707
C26	C	-1.620562	0.257221	0.000081
C27	C	-1.616711	0.400426	0.000076
N28	N	-1.508351	-0.184316	-0.353551
C29	C	-1.590044	-0.104442	0.578645
C30	C	-1.590027	-0.104443	0.421483
H31	H	-1.115259	0.032476	-0.000064
O32	O	-1.735015	0.207420	0.000266
C33	C	-1.934429	0.190920	0.117900
C34	C	-1.804863	0.247418	0.117849
H35	H	-1.990926	0.223215	0.212970
H36	H	-1.991105	0.223305	0.022974
H37	H	-1.917130	0.084327	0.117832
H38	H	-1.822045	0.354014	0.117965
H39	H	-1.748229	0.214935	0.212767
H40	H	-1.416051	0.224185	0.000062
H41	H	-1.438369	-0.252704	0.412006
H42	H	-1.709719	0.464802	0.000085
O43	O	-1.393806	0.372215	-0.000180
C44	C	-1.263270	0.208975	-0.117735
C45	C	-1.388937	0.295948	-0.117640
H46	H	-1.259304	0.147272	-0.212677
H47	H	-1.178319	0.267802	-0.117832
H48	H	-1.259194	0.147399	-0.022698
H49	H	-1.393138	0.357540	-0.212661
H50	H	-1.473829	0.237046	-0.117472
H51	H	-1.660003	-0.036060	0.636945
H52	H	-1.659963	-0.036054	0.363175
O53	O	-1.079875	-0.305507	-0.225100
C54	C	-1.085100	-0.311056	-0.470866
C55	C	-1.043552	-0.242108	-0.342839
H56	H	-1.055774	-0.259811	-0.566090
H57	H	-1.036861	-0.410953	-0.471366
H58	H	-1.193520	-0.313404	-0.469910
H59	H	-0.935148	-0.239665	-0.343710
H60	H	-1.091884	-0.142249	-0.342387
O61	O	-1.425069	-0.265959	0.576758
C62	C	-1.399582	-0.436051	0.415329
C63	C	-1.494041	-0.343640	0.494139
H64	H	-1.455309	-0.498897	0.348535
H65	H	-1.335445	-0.381596	0.348347
H66	H	-1.338051	-0.496134	0.490850
H67	H	-1.555657	-0.283535	0.418717
H68	H	-1.558091	-0.398170	0.561142
H69	H	-0.942373	-0.072770	-0.206453
H70	H	-1.074315	-0.295788	0.206556
O71	O	-0.892186	-0.420469	-0.000313
C72	C	-0.860989	-0.618082	-0.118548
C73	C	-0.927857	-0.483797	-0.118374
H74	H	-0.889824	-0.669331	-0.213975
H75	H	-0.752729	-0.614448	-0.117725
H76	H	-0.890980	-0.669911	-0.024002
H77	H	-0.897969	-0.431891	-0.212904
H78	H	-1.036104	-0.487521	-0.119126
H79	H	-0.942419	-0.072774	0.206561
