data_functionalizedCrystal
_audit_creation_method	'MofGen! by Chris Wilmer'
_symmetry_space_group_name_H-M	'P1'
_symmetry_Int_Tables_number	1
_symmetry_cell_setting	triclinic
loop_
_symmetry_equiv_pos_as_xyz
  x,y,z
_cell_length_a	17.699083
_cell_length_b	16.992695
_cell_length_c	16.176319
_cell_angle_alpha	89.993125
_cell_angle_beta	89.998611
_cell_angle_gamma	86.975619
loop_
_atom_site_label
_atom_site_type_symbol
_atom_site_fract_x
_atom_site_fract_y
_atom_site_fract_z
O1	O	1.010252	0.099146	-0.068631
O2	O	1.510252	0.599146	0.431369
O3	O	0.790676	0.112045	-0.068658
O4	O	1.290676	0.612045	0.431342
O5	O	0.899584	-0.008546	-0.068638
O6	O	1.399584	0.491454	0.431362
O7	O	0.901344	0.219736	-0.068651
O8	O	1.401344	0.719736	0.431349
O9	O	0.899567	-0.008553	0.068855
O10	O	1.399567	0.491447	0.568855
O11	O	0.790660	0.112037	0.068835
O12	O	1.290660	0.612037	0.568835
O13	O	1.010235	0.099138	0.068862
O14	O	1.510235	0.599138	0.568862
Cu15	Cu	0.900446	0.105587	0.081403
Cu16	Cu	1.400446	0.605587	0.581403
Cu17	Cu	0.900465	0.105596	-0.081199
Cu18	Cu	1.400465	0.605596	0.418801
O19	O	0.901328	0.219729	0.068842
O20	O	1.401328	0.719729	0.568842
C21	C	0.762442	0.111579	0.000085
C22	C	1.262442	0.611579	0.500085
C23	C	0.678338	0.110192	0.000075
C24	C	1.178338	0.610192	0.500075
C25	C	0.897311	-0.037758	0.000108
C26	C	1.397311	0.462242	0.500108
C27	C	0.890554	-0.124789	0.000107
C28	C	1.390554	0.375211	0.500107
C29	C	0.634124	0.180976	0.000071
C30	C	1.134124	0.680976	0.500071
C31	C	0.555099	0.179669	0.000082
C32	C	1.055099	0.679669	0.500082
C33	C	0.520290	0.107576	0.000091
C34	C	1.020290	0.607576	0.500091
C35	C	0.564510	0.036787	0.000097
C36	C	1.064510	0.536787	0.500097
C37	C	0.643533	0.038095	0.000092
C38	C	1.143533	0.538095	0.500092
C39	C	0.245818	0.031509	0.000118
C40	C	0.745818	0.531509	0.500118
C41	C	0.166789	0.030206	0.000120
C42	C	0.666789	0.530206	0.500120
C43	C	0.157384	0.173082	0.000108
C44	C	0.657384	0.673082	0.500108
C45	C	0.236408	0.174391	0.000103
C46	C	0.736408	0.674391	0.500103
C47	C	0.280621	0.103602	0.000113
C48	C	0.780621	0.603602	0.500113
C49	C	0.366308	0.105020	0.000103
C50	C	0.866308	0.605020	0.500103
C51	C	0.434604	0.106157	0.000095
C52	C	0.934604	0.606157	0.500095
C53	C	0.955751	-0.175154	0.000116
C54	C	1.455751	0.324846	0.500116
C55	C	0.949398	-0.256928	0.000107
C56	C	1.449398	0.243072	0.500107
C57	C	0.877846	-0.288336	0.000096
C58	C	1.377846	0.211664	0.500096
C59	C	0.812643	-0.237965	0.000084
C60	C	1.312643	0.262035	0.500084
C61	C	0.818998	-0.156192	0.000087
C62	C	1.318998	0.343808	0.500087
C63	C	0.851510	-0.531884	0.000081
C64	C	1.351510	-0.031884	0.500081
C65	C	0.845160	-0.613663	0.000081
C66	C	1.345160	-0.113663	0.500081
C67	C	0.981915	-0.632621	0.000102
C68	C	1.481915	-0.132621	0.500102
C69	C	0.988263	-0.550845	0.000110
C70	C	1.488263	-0.050845	0.500110
C71	C	0.923061	-0.500481	0.000094
C72	C	1.423061	-0.000481	0.500094
N73	N	0.871350	-0.371923	0.000090
N74	N	1.371350	0.128077	0.500090
N75	N	0.929558	-0.416897	0.000095
N76	N	1.429558	0.083103	0.500095
C77	C	1.038469	0.099604	0.000117
C78	C	1.538469	0.599604	0.500117
C79	C	1.122574	0.100991	0.000122
C80	C	1.622574	0.600991	0.500122
C81	C	0.903601	0.248941	0.000094
C82	C	1.403601	0.748941	0.500094
C83	C	0.910358	0.335972	0.000090
C84	C	1.410358	0.835972	0.500090
N85	N	0.900438	0.105580	0.195768
N86	N	1.400438	0.605580	0.695768
N87	N	0.900479	0.105597	-0.195564
N88	N	1.400479	0.605597	0.304436
C89	C	0.948679	0.052204	0.239041
C90	C	1.448679	0.552204	0.739041
C91	C	0.948683	0.052203	0.325588
C92	C	1.448683	0.552203	0.825588
C93	C	0.900449	0.105583	0.368861
C94	C	1.400449	0.605583	0.868861
C95	C	0.852202	0.158961	0.325582
C96	C	1.352202	0.658961	0.825582
C97	C	0.852195	0.158957	0.239036
C98	C	1.352195	0.658957	0.739036
C99	C	0.852229	0.158976	0.674610
C100	C	1.352229	0.658976	1.174610
C101	C	0.852242	0.158977	0.761161
C102	C	1.352242	0.658977	1.261161
C103	C	0.948717	0.052222	0.761162
C104	C	1.448717	0.552222	1.261162
C105	C	0.948709	0.052218	0.674617
C106	C	1.448709	0.552218	1.174617
C107	C	0.900461	0.105593	0.631345
C108	C	1.400461	0.605593	1.131345
C109	C	0.900456	0.105593	0.537501
C110	C	1.400456	0.605593	1.037501
C111	C	0.900457	0.105588	0.462703
C112	C	1.400457	0.605588	0.962703
H113	H	0.519103	0.237308	0.000078
H114	H	1.019103	0.737308	0.500078
H115	H	0.812945	0.202437	0.639385
H116	H	1.312945	0.702437	1.139385
H117	H	1.002489	-0.297933	0.000117
H118	H	1.502489	0.202067	0.500117
H119	H	0.812925	0.202421	0.360819
H120	H	1.312925	0.702421	0.860819
C121	C	0.756838	0.264491	0.247723
C122	C	1.256838	0.764491	0.747723
C123	C	0.799171	0.217633	0.191467
C124	C	1.299171	0.717633	0.691467
H125	H	0.724105	0.300717	0.218355
H126	H	1.224105	0.800717	0.718355
H127	H	0.727649	0.231892	0.281486
H128	H	1.227649	0.731892	0.781486
H129	H	0.790054	0.292651	0.281471
H130	H	1.290054	0.792651	0.781471
H131	H	0.765955	0.189468	0.157723
H132	H	1.265955	0.689468	0.657723
H133	H	0.828363	0.250236	0.157689
H134	H	1.328363	0.750236	0.657689
H135	H	0.798417	-0.490887	0.000069
H136	H	1.298417	0.009113	0.500069
H137	H	0.121377	0.230722	0.000103
H138	H	0.621377	0.730722	0.500103
H139	H	0.679531	-0.019545	0.000095
H140	H	1.179531	0.480455	0.500095
C141	C	0.742180	-0.354898	0.000081
C142	C	1.242180	0.145102	0.500081
C143	C	0.733991	-0.272487	0.000075
C144	C	1.233991	0.227513	0.500075
H145	H	0.693621	-0.376207	0.000082
H146	H	1.193621	0.123793	0.500082
H147	H	0.769233	-0.372186	-0.047860
H148	H	1.269233	0.127814	0.452140
H149	H	0.769230	-0.372191	0.048034
H150	H	1.269230	0.127809	0.548034
H151	H	0.706946	-0.255194	-0.047882
H152	H	1.206946	0.244806	0.452118
H153	H	0.706927	-0.255193	0.048020
H154	H	1.206927	0.244807	0.548020
H155	H	0.786891	-0.639232	0.000085
H156	H	1.286891	-0.139232	0.500085
H157	H	0.662460	0.239682	0.000064
H158	H	1.162460	0.739682	0.500064
H159	H	0.987989	0.008755	0.639387
H160	H	1.487989	0.508755	1.139387
H161	H	0.138450	-0.028504	0.000128
H162	H	0.638450	0.471496	0.500128
H163	H	0.765906	-0.115186	0.000080
H164	H	1.265906	0.384814	0.500080
C165	C	1.058724	-0.433912	0.000119
C166	C	1.558724	0.066088	0.500119
C167	C	1.066915	-0.516323	0.000116
C168	C	1.566915	-0.016323	0.500116
H169	H	1.107281	-0.412601	0.000128
H170	H	1.607281	0.087399	0.500128
H171	H	1.031680	-0.416616	-0.047828
H172	H	1.531680	0.083384	0.452172
H173	H	1.031665	-0.416630	0.048067
H174	H	1.531665	0.083370	0.548067
H175	H	1.093970	-0.533606	-0.047835
H176	H	1.593970	-0.033606	0.452165
H177	H	1.093971	-0.533626	0.048067
H178	H	1.593971	-0.033626	0.548067
C179	C	0.353368	0.239836	0.000066
C180	C	0.853368	0.739836	0.500066
C181	C	0.274670	0.253636	0.000079
C182	C	0.774670	0.753636	0.500079
H183	H	0.376988	0.288760	0.000044
H184	H	0.876988	0.788760	0.500044
H185	H	0.368252	0.210708	0.048015
H186	H	0.868252	0.710708	0.548015
H187	H	0.368238	0.210690	-0.047879
H188	H	0.868238	0.710690	0.452121
H189	H	0.259800	0.282777	0.048027
H190	H	0.759800	0.782777	0.548027
H191	H	0.259780	0.282777	-0.047875
H192	H	0.759780	0.782777	0.452125
H193	H	0.536162	-0.021912	0.000116
H194	H	1.036162	0.478088	0.500116
C195	C	0.247166	-0.109852	0.000125
C196	C	0.747166	0.390148	0.500125
C197	C	0.294410	-0.046302	0.000123
C198	C	0.794410	0.453698	0.500123
H199	H	0.277168	-0.157891	0.000123
H200	H	0.777168	0.342109	0.500123
H201	H	0.216149	-0.107391	0.048069
H202	H	0.716149	0.392609	0.548069
H203	H	0.216147	-0.107380	-0.047825
H204	H	0.716147	0.392620	0.452175
H205	H	0.325425	-0.048770	0.048076
H206	H	0.825425	0.451230	0.548076
H207	H	0.325439	-0.048765	-0.047826
H208	H	0.825439	0.451235	0.452174
H209	H	1.034999	-0.673635	0.000114
H210	H	1.534999	-0.173635	0.500114
H211	H	1.014017	-0.149588	0.000131
H212	H	1.514017	0.350412	0.500131
H213	H	0.987960	0.008740	0.203814
H214	H	1.487960	0.508740	0.703814
H215	H	0.987964	0.008741	0.360821
H216	H	1.487964	0.508741	0.860821
H217	H	0.988001	0.008758	0.796403
H218	H	1.488001	0.508758	1.296403
H219	H	0.812961	0.202446	0.796393
H220	H	1.312961	0.702446	1.296393
