data_functionalizedCrystal
_audit_creation_method	'MofGen! by Chris Wilmer'
_symmetry_space_group_name_H-M	'P1'
_symmetry_Int_Tables_number	1
_symmetry_cell_setting	triclinic
loop_
_symmetry_equiv_pos_as_xyz
  x,y,z
_cell_length_a	6.817900
_cell_length_b	11.102193
_cell_length_c	12.200875
_cell_angle_alpha	92.494685
_cell_angle_beta	107.143593
_cell_angle_gamma	108.604125
loop_
_atom_site_label
_atom_site_type_symbol
_atom_site_fract_x
_atom_site_fract_y
_atom_site_fract_z
V1	V	-4.094464	-0.176128	-0.357665
O2	O	-4.053827	0.008167	-0.350852
O3	O	-4.071352	-0.348947	-0.355223
O4	O	-4.063804	-0.173549	-0.513653
O5	O	-4.061427	-0.168445	-0.191325
V6	V	-4.572516	-0.154069	-0.337769
O7	O	-4.367722	-0.224517	-0.401309
O8	O	-4.749455	-0.105680	-0.294125
O9	O	-4.372421	0.018750	-0.340211
O10	O	-4.730550	-0.338364	-0.344582
O11	O	-4.722950	-0.161752	-0.504109
O12	O	-4.379969	-0.156648	-0.181781
C13	C	-3.921931	-0.391073	-0.349582
C14	C	-3.984439	-0.532355	-0.348625
C15	C	-3.991565	-0.761366	-0.136706
C16	C	-3.907032	-0.676751	-0.032105
C17	C	-3.848302	-0.544005	-0.033007
C18	C	-3.874103	-0.495872	-0.138521
C19	C	-3.958636	-0.580487	-0.243122
C20	C	-4.017368	-0.713234	-0.242209
C21	C	-4.068972	-0.616970	-0.453226
C22	C	-4.127718	-0.749717	-0.452328
C23	C	-4.094773	-0.568837	-0.558741
C24	C	-4.179322	-0.653453	-0.663345
C25	C	-4.238055	-0.786207	-0.662439
C26	C	-4.212250	-0.834332	-0.556929
C27	C	-3.912301	-0.167334	-0.551674
C28	C	-3.968684	-0.166369	-0.679195
C29	C	-4.071874	-0.164604	-0.912669
C30	C	-4.014443	-0.165585	-0.782747
C31	C	-4.185185	0.060868	-0.345849
C32	C	-4.101916	0.202150	-0.346813
C33	C	-4.194814	-0.162868	-0.143754
C34	C	-4.117669	-0.163826	-0.016232
H35	H	-4.260073	-0.942419	-0.556181
O36	O	-4.048441	-0.890332	-0.135970
C37	C	-3.923716	-0.938539	-0.187825
H38	H	-3.863866	-0.870641	-0.247874
H39	H	-4.029400	-1.037696	-0.240090
H40	H	-3.777033	-0.946261	-0.117447
H41	H	-4.200307	-0.614251	-0.749245
H42	H	-3.886028	-0.715956	0.053803
O43	O	-4.038072	-0.439924	-0.559775
C44	C	-4.223301	-0.411734	-0.623117
H45	H	-4.347553	-0.500937	-0.685750
H46	H	-4.171873	-0.330509	-0.674146
H47	H	-4.300255	-0.380962	-0.560678
H48	H	-4.306872	-0.855094	-0.747618
O49	O	-3.766436	-0.461683	0.068515
C50	C	-3.903777	-0.389986	0.068842
H51	H	-4.001086	-0.388004	-0.024321
H52	H	-3.799877	-0.287529	0.113877
H53	H	-4.021421	-0.436446	0.117233
H54	H	-3.826254	-0.387780	-0.139245
