data_functionalizedCrystal
_audit_creation_method	'MofGen! by Chris Wilmer'
_symmetry_space_group_name_H-M	'P1'
_symmetry_Int_Tables_number	1
_symmetry_cell_setting	triclinic
loop_
_symmetry_equiv_pos_as_xyz
  x,y,z
_cell_length_a	17.699083
_cell_length_b	10.540510
_cell_length_c	16.176319
_cell_angle_alpha	89.995706
_cell_angle_beta	89.998611
_cell_angle_gamma	83.898163
loop_
_atom_site_label
_atom_site_type_symbol
_atom_site_fract_x
_atom_site_fract_y
_atom_site_fract_z
O1	O	1.005112	0.160523	-0.068626
O2	O	1.505112	0.660523	0.431374
O3	O	0.784868	0.181407	-0.068653
O4	O	1.284868	0.681407	0.431347
O5	O	0.900027	-0.013836	-0.068638
O6	O	1.400027	0.486164	0.431362
O7	O	0.889954	0.355766	-0.068640
O8	O	1.389954	0.855766	0.431360
O9	O	0.900011	-0.013848	0.068855
O10	O	1.400011	0.486152	0.568855
O11	O	0.784852	0.181395	0.068841
O12	O	1.284852	0.681395	0.568841
O13	O	1.005096	0.160510	0.068867
O14	O	1.505096	0.660510	0.568867
Cu15	Cu	0.894973	0.170951	0.081408
Cu16	Cu	1.394973	0.670951	0.581408
Cu17	Cu	0.894992	0.170966	-0.081194
Cu18	Cu	1.394992	0.670966	0.418806
O19	O	0.889938	0.355754	0.068853
O20	O	1.389938	0.855754	0.568853
C21	C	0.756658	0.180653	0.000091
C22	C	1.256658	0.680653	0.500091
C23	C	0.672626	0.178408	0.000080
C24	C	1.172626	0.678408	0.500080
C25	C	0.899268	-0.061132	0.000106
C26	C	1.399268	0.438868	0.500106
C27	C	0.897022	-0.202041	0.000101
C28	C	1.397022	0.297959	0.500101
C29	C	0.624743	0.293011	0.000080
C30	C	1.124743	0.793011	0.500080
C31	C	0.545786	0.290894	0.000091
C32	C	1.045786	0.790894	0.500091
C33	C	0.514714	0.174172	0.000096
C34	C	1.014714	0.674172	0.500096
C35	C	0.562603	0.059560	0.000099
C36	C	1.062603	0.559560	0.500099
C37	C	0.641558	0.061678	0.000094
C38	C	1.141558	0.561678	0.500094
C39	C	0.244185	0.051015	0.000119
C40	C	0.744185	0.551015	0.500119
C41	C	0.165223	0.048905	0.000121
C42	C	0.665223	0.548905	0.500121
C43	C	0.148412	0.280231	0.000116
C44	C	0.648412	0.780231	0.500116
C45	C	0.227368	0.282349	0.000111
C46	C	0.727368	0.782349	0.500111
C47	C	0.275250	0.167737	0.000118
C48	C	0.775250	0.667737	0.500118
C49	C	0.360864	0.170034	0.000108
C50	C	0.860864	0.670034	0.500108
C51	C	0.429101	0.171874	0.000100
C52	C	0.929101	0.671874	0.500100
C53	C	0.977022	-0.420960	0.000426
C54	C	1.477022	0.079040	0.500426
C55	C	0.979418	-0.274408	0.000112
C56	C	1.479418	0.225592	0.500112
C57	C	0.854853	-0.246021	-0.078418
C58	C	1.354853	0.253979	0.421582
C59	C	0.853041	-0.392749	-0.078479
C60	C	1.353041	0.107251	0.421521
C61	C	0.851307	-0.392540	0.077876
C62	C	1.351307	0.107460	0.577876
C63	C	0.855215	-0.246271	0.078910
C64	C	1.355215	0.253729	0.578910
C65	C	1.033306	0.161265	0.000122
C66	C	1.533306	0.661265	0.500122
C67	C	1.117339	0.163510	0.000127
C68	C	1.617339	0.663510	0.500127
C69	C	0.890696	0.403050	0.000106
C70	C	1.390696	0.903050	0.500106
C71	C	0.892942	0.543959	0.000106
C72	C	1.392942	1.043959	0.500106
N73	N	0.894965	0.170940	0.195773
N74	N	1.394965	0.670940	0.695773
N75	N	0.895006	0.170967	-0.195559
N76	N	1.395006	0.670967	0.304441
C77	C	0.945973	0.084522	0.239044
C78	C	1.445973	0.584522	0.739044
C79	C	0.945977	0.084521	0.325591
C80	C	1.445977	0.584521	0.825591
C81	C	0.894976	0.170945	0.368866
C82	C	1.394976	0.670945	0.868866
C83	C	0.843962	0.257367	0.325589
C84	C	1.343962	0.757367	0.825589
C85	C	0.843955	0.257362	0.239044
C86	C	1.343955	0.757362	0.739044
C87	C	0.843988	0.257391	0.674618
C88	C	1.343988	0.757391	1.174618
C89	C	0.844001	0.257393	0.761169
C90	C	1.344001	0.757393	1.261169
C91	C	0.946010	0.084550	0.761165
C92	C	1.446010	0.584550	1.261165
C93	C	0.946003	0.084544	0.674619
C94	C	1.446003	0.584544	1.174619
C95	C	0.894987	0.170962	0.631350
C96	C	1.394987	0.670962	1.131350
C97	C	0.894982	0.170961	0.537506
C98	C	1.394982	0.670961	1.037506
C99	C	0.894983	0.170953	0.462708
C100	C	1.394983	0.670953	0.962708
H101	H	0.650035	0.388060	0.000075
H102	H	1.150035	0.888060	0.500075
N103	N	0.133469	-0.070318	0.000127
N104	N	0.633469	0.429682	0.500127
N105	N	0.091284	-0.097304	-0.057826
N106	N	0.591284	0.402696	0.442174
H107	H	0.068855	-0.181500	-0.057823
H108	H	0.568855	0.318500	0.442177
N109	N	0.293077	-0.066066	0.000123
N110	N	0.793077	0.433934	0.500123
N111	N	0.265322	-0.170270	0.000123
N112	N	0.765322	0.329730	0.500123
H113	H	0.299854	-0.252964	0.000124
H114	H	0.799854	0.247036	0.500124
H115	H	0.987547	0.014180	0.796403
H116	H	1.487547	0.514180	1.296403
N117	N	0.775730	-0.420171	-0.082951
N118	N	1.275730	0.079829	0.417049
N119	N	0.723284	-0.330978	-0.086022
N120	N	1.223284	0.169022	0.413978
H121	H	0.668683	-0.350339	-0.089180
H122	H	1.168683	0.149661	0.410820
H123	H	0.506802	0.384216	0.000089
H124	H	1.006802	0.884216	0.500089
N125	N	0.893713	-0.211087	0.151776
N126	N	1.393713	0.288913	0.651776
N127	N	0.951725	-0.153647	0.145752
N128	N	1.451725	0.346353	0.645752
H129	H	0.978918	-0.128793	0.197213
H130	H	1.478918	0.371207	0.697213
N131	N	0.791886	0.345669	0.805362
N132	N	1.291886	0.845669	1.305362
N133	N	0.721924	0.344059	0.795709
N134	N	1.221924	0.844059	1.295709
H135	H	0.685119	0.406401	0.826920
H136	H	1.185119	0.906401	1.326920
H137	H	0.795059	-0.196104	0.083644
H138	H	1.295059	0.303896	0.583644
H139	H	0.789443	-0.413559	0.078397
H140	H	1.289443	0.086441	0.578397
N141	N	0.889223	-0.443888	-0.152085
N142	N	1.389223	0.056112	0.347915
N143	N	0.894435	-0.561297	-0.165436
N144	N	1.394435	-0.061297	0.334564
H145	H	0.919992	-0.597412	-0.217420
H146	H	1.419992	-0.097412	0.282580
H147	H	0.537298	-0.035477	0.000115
H148	H	1.037298	0.464523	0.500115
H149	H	0.987507	0.014151	0.203815
H150	H	1.487507	0.514151	0.703815
N151	N	0.259105	0.401579	0.000126
N152	N	0.759105	0.901579	0.500126
N153	N	0.301285	0.428556	0.058086
N154	N	0.801285	0.928556	0.558086
H155	H	0.323698	0.512766	0.058101
H156	H	0.823698	1.012766	0.558101
H157	H	1.009116	-0.463507	0.056736
H158	H	1.509116	0.036493	0.556736
H159	H	0.802433	0.327731	0.360829
H160	H	1.302433	0.827731	0.860829
H161	H	0.884151	-0.215695	-0.136844
H162	H	1.384151	0.284305	0.363156
N163	N	0.998071	-0.003797	0.369769
N164	N	1.498071	0.496203	0.869769
N165	N	0.996396	-0.121116	0.360080
N166	N	1.496396	0.378884	0.860080
H167	H	1.033189	-0.183508	0.391272
H168	H	1.533189	0.316492	0.891272
H169	H	0.109417	0.373553	0.000115
H170	H	0.609417	0.873553	0.500115
N171	N	0.690462	-0.055399	0.000103
N172	N	1.190462	0.444601	0.500103
N173	N	0.662711	-0.159608	0.000112
N174	N	1.162711	0.340392	0.500112
H175	H	0.697248	-0.242298	0.000124
H176	H	1.197248	0.257702	0.500124
H177	H	0.802419	0.327731	0.203814
H178	H	1.302419	0.827731	0.703814
H179	H	0.987535	0.014174	0.639387
H180	H	1.487535	0.514174	1.139387
H181	H	1.012413	-0.245672	0.056396
H182	H	1.512413	0.254328	0.556396
N183	N	0.778764	-0.185156	-0.082090
N184	N	1.278764	0.314844	0.417910
N185	N	0.767025	-0.066224	-0.085557
N186	N	1.267025	0.433776	0.414443
H187	H	0.713287	-0.023233	-0.088149
H188	H	1.213287	0.476767	0.411851
H189	H	0.802451	0.327757	0.639395
H190	H	1.302451	0.827757	1.139395
N191	N	1.017063	-0.476266	-0.069807
N192	N	1.517063	0.023734	0.430193
N193	N	0.983944	-0.541407	-0.120095
N194	N	1.483944	-0.041407	0.379905
H195	H	1.012220	-0.580469	-0.169699
H196	H	1.512220	-0.080469	0.330301
H197	H	1.012618	-0.246604	-0.056263
H198	H	1.512618	0.253396	0.443737
N199	N	0.883969	-0.446402	0.152531
N200	N	1.383969	0.053598	0.652531
N201	N	0.938336	-0.532256	0.149322
N202	N	1.438336	-0.032256	0.649322
H203	H	0.961412	-0.570301	0.202043
H204	H	1.461412	-0.070301	0.702043
