data_functionalizedCrystal
_audit_creation_method	'MofGen! by Chris Wilmer'
_symmetry_space_group_name_H-M	'P1'
_symmetry_Int_Tables_number	1
_symmetry_cell_setting	triclinic
loop_
_symmetry_equiv_pos_as_xyz
  x,y,z
_cell_length_a	15.625020
_cell_length_b	15.538191
_cell_length_c	9.730217
_cell_angle_alpha	90.000608
_cell_angle_beta	71.915129
_cell_angle_gamma	66.738808
loop_
_atom_site_label
_atom_site_type_symbol
_atom_site_fract_x
_atom_site_fract_y
_atom_site_fract_z
O1	O	1.156033	0.122907	-0.690502
O2	O	0.888752	0.137558	-0.557277
O3	O	1.074421	-0.006830	-0.649829
O4	O	0.970364	0.267295	-0.597950
O5	O	1.074417	-0.006831	-0.421247
O6	O	0.888749	0.137556	-0.328695
O7	O	1.156029	0.122906	-0.461920
Zn8	Zn	1.022388	0.130231	-0.359015
Zn9	Zn	1.022393	0.130233	-0.660182
O10	O	0.970360	0.267294	-0.369368
C11	C	0.855378	0.136894	-0.426352
C12	C	0.755944	0.134908	-0.376790
C13	C	0.615792	0.132107	-0.182343
C14	C	0.709226	0.133973	-0.228929
C15	C	0.709241	0.133971	-0.478125
C16	C	0.615807	0.132100	-0.431561
C17	C	0.569090	0.131169	-0.283668
C18	C	0.569105	0.131162	-0.532886
C19	C	0.475677	0.129295	-0.486325
C20	C	0.428952	0.128367	-0.338437
C21	C	0.475662	0.129302	-0.237106
C22	C	0.615821	0.132099	-0.680777
C23	C	0.569119	0.131161	-0.782103
C24	C	0.475693	0.129288	-0.735543
C25	C	0.428967	0.128360	-0.587656
C26	C	0.428983	0.128353	-0.836874
C27	C	0.335555	0.126487	-0.790312
C28	C	0.335540	0.126494	-0.541094
C29	C	1.085306	-0.041912	-0.540969
C30	C	1.117735	-0.146444	-0.557147
C31	C	0.795562	-0.434649	-0.396532
C32	C	0.826056	-0.532876	-0.411728
C33	C	0.997582	-0.555098	-0.497225
C34	C	0.967101	-0.456871	-0.482042
C35	C	0.866090	-0.396654	-0.431693
C36	C	1.037630	-0.418876	-0.517204
C37	C	1.007152	-0.320658	-0.502015
C38	C	0.906145	-0.260435	-0.451664
C39	C	0.835612	-0.298436	-0.416504
C40	C	1.138641	-0.479095	-0.567543
C41	C	1.209169	-0.441100	-0.602705
C42	C	1.178691	-0.342881	-0.587526
C43	C	1.077685	-0.282657	-0.537175
C44	C	1.249224	-0.304880	-0.622686
C45	C	1.218746	-0.206661	-0.607496
C46	C	1.047206	-0.184439	-0.521986
C47	C	1.189403	0.123569	-0.592848
C48	C	1.288837	0.125556	-0.642419
C49	C	0.959475	0.302376	-0.478230
C50	C	0.927046	0.406908	-0.462062
N51	N	1.022391	0.130229	-0.153480
N52	N	1.022399	0.130227	-0.865721
C53	C	1.186838	0.002411	-0.235463
C54	C	1.269067	-0.061496	-0.204518
C55	C	1.269076	-0.061496	-0.060643
C56	C	1.186847	0.002415	0.052295
C57	C	1.104619	0.066321	0.021349
C58	C	1.104619	0.066317	-0.122534
C59	C	0.940171	0.194133	0.103333
C60	C	0.940162	0.194140	-0.040543
C61	C	0.857941	0.258044	0.216271
C62	C	0.775714	0.321957	0.185324
C63	C	0.775708	0.321956	0.041439
C64	C	0.857933	0.258047	-0.071488
H65	H	0.297528	0.125725	-0.872821
H66	H	0.691893	0.133626	-0.718682
Cl67	Cl	0.920218	-0.108730	-0.458702
Cl68	Cl	0.767981	0.135139	-0.664041
Cl69	Cl	1.372435	-0.141841	-0.346495
Cl70	Cl	0.867827	-0.136959	-0.432555
Cl71	Cl	1.372448	-0.141842	-0.021736
H72	H	0.708766	0.373985	0.277286
H73	H	1.186855	0.002402	0.169446
Cl74	Cl	1.176956	-0.602571	-0.586628
Cl75	Cl	1.336150	-0.516810	-0.665988
Cl76	Cl	0.708624	-0.222727	-0.353221
H77	H	0.607168	0.131923	-0.902517
Cl78	Cl	0.767934	0.135153	-0.101530
H79	H	0.768616	-0.563806	-0.383072
Cl80	Cl	0.668574	-0.358940	-0.333248
H81	H	0.857950	0.258037	0.333421
Cl82	Cl	1.186843	0.002417	-0.416344
Cl83	Cl	1.124563	-0.630808	-0.560508
H84	H	0.708745	0.373993	0.016256
Cl85	Cl	0.487720	0.129533	-1.022787
Cl86	Cl	0.857936	0.258042	-0.252369
Cl87	Cl	1.376205	-0.380592	-0.685952
H88	H	0.437617	0.128556	-0.116675
Cl89	Cl	1.307411	-0.158892	-0.651674
H90	H	0.352875	0.126852	-0.300528
Cl91	Cl	0.557066	0.130909	0.003578
Cl92	Cl	0.276814	0.125296	-0.355173
