data_functionalizedCrystal
_audit_creation_method	'MofGen! by Chris Wilmer'
_symmetry_space_group_name_H-M	'P1'
_symmetry_Int_Tables_number	1
_symmetry_cell_setting	triclinic
loop_
_symmetry_equiv_pos_as_xyz
  x,y,z
_cell_length_a	21.295418
_cell_length_b	29.839131
_cell_length_c	29.839125
_cell_angle_alpha	90.011606
_cell_angle_beta	90.033105
_cell_angle_gamma	90.057233
loop_
_atom_site_label
_atom_site_type_symbol
_atom_site_fract_x
_atom_site_fract_y
_atom_site_fract_z
Zn1	Zn	0.962242	-0.178754	0.254239
Zn2	Zn	0.962144	-0.253858	0.179109
Zn3	Zn	0.856985	-0.178763	0.179096
Zn4	Zn	0.856914	-0.253878	0.254185
O5	O	0.909571	-0.216313	0.216657
O6	O	1.050318	-0.188704	0.244300
O7	O	0.948183	-0.243892	0.116240
O8	O	0.871018	-0.115895	0.189081
O9	O	1.050246	-0.243883	0.189103
O10	O	0.948350	-0.115888	0.244288
O11	O	0.870923	-0.188720	0.116230
O12	O	0.768886	-0.188740	0.189028
O13	O	0.870898	-0.243917	0.317059
O14	O	0.768834	-0.243927	0.244196
O15	O	0.948282	-0.188724	0.317099
O16	O	0.948115	-0.316728	0.189050
O17	O	0.870803	-0.316743	0.244208
C18	C	0.746020	-0.216337	0.216605
C19	C	0.676051	-0.216358	0.216594
C20	C	0.643174	-0.245132	0.245276
C21	C	0.577432	-0.245120	0.245297
C22	C	0.544569	-0.216340	0.216626
C23	C	0.577454	-0.187561	0.187941
C24	C	0.643195	-0.187570	0.187925
N25	N	0.441304	-0.212818	0.177333
N26	N	0.378853	-0.212812	0.177349
C27	C	0.346494	-0.216312	0.216674
N28	N	0.378947	-0.219826	0.255982
N29	N	0.441404	-0.219834	0.255964
C30	C	0.473284	-0.216328	0.216641
C31	C	0.242332	-0.245075	0.245381
C32	C	0.176588	-0.245061	0.245402
C33	C	0.176611	-0.187504	0.188042
C34	C	0.242354	-0.187516	0.188025
C35	C	0.275210	-0.216304	0.216694
C36	C	0.909458	-0.333036	0.216635
C37	C	0.909467	-0.382970	0.216640
C38	C	0.949901	-0.692593	0.187978
C39	C	0.949978	-0.880266	0.187996
O40	O	0.984267	-0.904514	0.163609
N41	N	0.909702	-0.903755	0.216691
C42	C	0.869406	-0.880323	0.245386
O43	O	0.835155	-0.904608	0.269796
C44	C	0.869332	-0.692651	0.245370
C45	C	0.909606	-0.669164	0.216670
C46	C	0.990172	-0.669107	0.159280
C47	C	0.990150	-0.622191	0.159275
C48	C	0.949856	-0.598762	0.187966
C49	C	0.909584	-0.622249	0.216664
C50	C	0.829040	-0.669220	0.274067
C51	C	0.829026	-0.622299	0.274062
C52	C	0.869300	-0.598812	0.245361
C53	C	0.869268	-0.551905	0.245350
N54	N	0.909544	-0.528416	0.216655
C55	C	0.949838	-0.551845	0.187963
C56	C	0.869447	-0.978854	0.245391
C57	C	0.869464	-1.025772	0.245395
C58	C	0.950038	-1.025711	0.188005
C59	C	0.950016	-0.978793	0.188000
C60	C	0.909723	-0.955365	0.216696
C61	C	0.949788	-0.453319	0.187953
C62	C	0.949761	-0.406399	0.187948
C63	C	0.869190	-0.406463	0.245339
C64	C	0.869215	-0.453379	0.245343
C65	C	0.909519	-0.476805	0.216648
O66	O	0.835003	-0.527628	0.269728
O67	O	0.984094	-0.527551	0.163563
C68	C	0.949923	-0.739509	0.187984
C69	C	0.909651	-0.762995	0.216682
C70	C	0.869357	-0.739567	0.245373
C71	C	0.909669	-0.809913	0.216685
C72	C	0.949963	-0.833342	0.187993
C73	C	0.990239	-0.809853	0.159298
C74	C	0.990217	-0.762937	0.159292
C75	C	0.829080	-0.763056	0.274069
C76	C	0.829105	-0.809971	0.274072
C77	C	0.869399	-0.833400	0.245380
C78	C	1.073762	-0.216290	0.216709
C79	C	1.143730	-0.216280	0.216731
C80	C	0.909593	-0.216322	0.333835
C81	C	0.909602	-0.216325	0.383770
C82	C	0.909702	-0.099135	0.216689
C83	C	0.909758	-0.049200	0.216703
C84	C	0.909586	-0.216273	0.099934
C85	C	0.909699	-0.216142	0.050000
C86	C	0.869352	-0.244962	0.740336
C87	C	0.869330	-0.245013	0.552663
O88	O	0.835046	-0.269446	0.528381
N89	N	0.909616	-0.216284	0.529215
C90	C	0.949908	-0.187537	0.552688
O91	O	0.984169	-0.163099	0.528437
C92	C	0.949927	-0.187483	0.740360
C93	C	0.909643	-0.216218	0.763806
C94	C	0.829070	-0.273694	0.763782
C95	C	0.829079	-0.273682	0.810698
C96	C	0.869369	-0.244939	0.834167
C97	C	0.909651	-0.216207	0.810721
C98	C	0.990216	-0.158735	0.763832
C99	C	0.990216	-0.158723	0.810753
C100	C	0.949931	-0.187458	0.834199
C101	C	0.949950	-0.187452	0.881106
N102	N	0.909663	-0.216181	0.904555
C103	C	0.869373	-0.244925	0.881085
C104	C	0.949896	-0.187568	0.454157
C105	C	0.949893	-0.187582	0.407239
C106	C	0.869313	-0.245058	0.407218
C107	C	0.869320	-0.245046	0.454137
C108	C	0.909610	-0.216298	0.477605
C109	C	0.869394	-0.244899	0.979611
C110	C	0.869408	-0.244886	1.026531
C111	C	0.949985	-0.187409	1.026548
C112	C	0.949974	-0.187423	0.979632
C113	C	0.909673	-0.216169	0.956165
O114	O	0.984211	-0.163029	0.905417
O115	O	0.835107	-0.269352	0.905344
C116	C	0.869344	-0.244973	0.693421
C117	C	0.909626	-0.216241	0.669975
C118	C	0.949916	-0.187498	0.693445
C119	C	0.909622	-0.216255	0.623057
C120	C	0.869331	-0.244999	0.599588
C121	C	0.829045	-0.273728	0.623036
C122	C	0.829053	-0.273717	0.669951
C123	C	0.990203	-0.158768	0.669996
C124	C	0.990191	-0.158782	0.623081
C125	C	0.949901	-0.187526	0.599611
H126	H	0.149821	-0.268491	0.268761
H127	H	0.796241	-0.297134	0.603919
H128	H	0.550693	-0.164127	0.164598
H129	H	0.836603	-0.268287	1.045618
H130	H	0.669963	-0.164138	0.164568
H131	H	0.550658	-0.268551	0.268655
H132	H	0.269085	-0.268514	0.268727
H133	H	0.796273	-0.297080	0.829783
H134	H	0.982708	-0.164157	0.473261
H135	H	0.149855	-0.164069	0.164700
H136	H	0.796249	-0.297115	0.689037
H137	H	0.982847	-1.044795	0.164643
H138	H	0.269123	-0.164087	0.164666
H139	H	0.982557	-0.387278	0.164575
H140	H	0.982609	-0.472387	0.164588
H141	H	1.022947	-0.603071	0.135906
H142	H	0.796269	-0.743984	0.297434
H143	H	1.022988	-0.688177	0.135916
H144	H	0.982812	-0.959673	0.164630
H145	H	0.836663	-1.044891	0.268761
H146	H	1.023002	-0.135383	0.603995
H147	H	0.836634	-0.959782	0.268760
H148	H	0.836572	-0.268303	0.960510
H149	H	0.796241	-0.688335	0.297436
H150	H	0.796215	-0.603226	0.297431
H151	H	0.836422	-0.472503	0.268714
H152	H	0.836516	-0.268444	0.473223
H153	H	0.836381	-0.387380	0.268699
H154	H	1.023012	-0.743818	0.135922
H155	H	1.023046	-0.828937	0.135935
H156	H	0.982703	-0.164188	0.388154
H157	H	0.796303	-0.829090	0.297443
H158	H	0.796257	-0.297100	0.744678
H159	H	0.982791	-0.164008	1.045665
H160	H	0.836508	-0.268462	0.388101
H161	H	1.023021	-0.135336	0.744750
H162	H	1.023023	-0.135310	0.829859
H163	H	0.982782	-0.164028	0.960542
H164	H	1.023012	-0.135361	0.689100
H165	H	0.669922	-0.268572	0.268621
