data_functionalizedCrystal
_audit_creation_method	'MofGen! by Chris Wilmer'
_symmetry_space_group_name_H-M	'P1'
_symmetry_Int_Tables_number	1
_symmetry_cell_setting	triclinic
loop_
_symmetry_equiv_pos_as_xyz
  x,y,z
_cell_length_a	19.288867
_cell_length_b	10.967829
_cell_length_c	18.366186
_cell_angle_alpha	77.865925
_cell_angle_beta	89.992441
_cell_angle_gamma	83.941601
loop_
_atom_site_label
_atom_site_type_symbol
_atom_site_fract_x
_atom_site_fract_y
_atom_site_fract_z
O1	O	0.922367	0.155674	-0.080055
O2	O	1.422367	0.655674	0.419945
O3	O	0.720244	0.176669	-0.082697
O4	O	1.220244	0.676669	0.417303
O5	O	0.825965	-0.015506	-0.058577
O6	O	1.325965	0.484494	0.441423
O7	O	0.816647	0.347849	-0.104175
O8	O	1.316647	0.847849	0.395825
O9	O	0.825947	-0.015515	0.062523
O10	O	1.325947	0.484485	0.562523
O11	O	0.720226	0.176660	0.038404
O12	O	1.220226	0.676660	0.538404
O13	O	0.922349	0.155664	0.041045
O14	O	1.422349	0.655664	0.541045
Zn15	Zn	0.821285	0.166161	0.058952
Zn16	Zn	1.321285	0.666161	0.558952
Zn17	Zn	0.821309	0.166173	-0.100603
Zn18	Zn	1.321309	0.666173	0.399397
O19	O	0.816628	0.347839	0.016926
O20	O	1.316628	0.847839	0.516926
C21	C	0.694354	0.175989	-0.022063
C22	C	1.194354	0.675989	0.477937
C23	C	0.617237	0.173959	-0.021811
C24	C	1.117237	0.673959	0.478189
C25	C	0.061586	0.159348	-0.085980
C26	C	0.561586	0.659348	0.414020
C27	C	0.134046	0.161247	-0.086221
C28	C	0.634046	0.661247	0.413779
C29	C	0.170271	0.162198	-0.020329
C30	C	0.670271	0.662198	0.479671
C31	C	0.134032	0.161216	0.045813
C32	C	0.634032	0.661216	0.545813
C33	C	0.061575	0.159305	0.046054
C34	C	0.561575	0.659305	0.546054
C35	C	0.280088	0.238306	0.020693
C36	C	0.780088	0.738306	0.520693
C37	C	0.352543	0.240225	0.020449
C38	C	0.852543	0.740225	0.520449
C39	C	0.393755	0.168088	-0.021068
C40	C	0.893755	0.668088	0.478932
C41	C	0.362501	0.094048	-0.062355
C42	C	0.862501	0.594048	0.437645
C43	C	0.290044	0.092136	-0.062114
C44	C	0.790044	0.592136	0.437886
C45	C	0.248840	0.164270	-0.020583
C46	C	0.748840	0.664270	0.479417
C47	C	0.508555	0.171120	-0.087466
C48	C	1.008555	0.671120	0.412534
C49	C	0.581017	0.173011	-0.087703
C50	C	1.081017	0.673011	0.412297
C51	C	0.581001	0.172993	0.044331
C52	C	1.081001	0.672993	0.544331
C53	C	0.508541	0.171089	0.044568
C54	C	1.008541	0.671089	0.544568
C55	C	0.472323	0.170158	-0.021333
C56	C	0.972323	0.670158	0.478667
C57	C	0.825276	-0.061997	0.007805
C58	C	1.325276	0.438003	0.507805
C59	C	0.823244	-0.200511	0.025182
C60	C	1.323244	0.299489	0.525182
C61	C	0.822347	-0.262254	-0.029805
C62	C	1.322347	0.237746	0.470195
C63	C	0.820246	-0.405416	-0.011846
C64	C	1.320246	0.094584	0.488154
C65	C	0.948239	0.156345	-0.019591
C66	C	1.448239	0.656345	0.480409
C67	C	1.025356	0.158374	-0.019848
C68	C	1.525356	0.658374	0.480152
C69	C	0.817317	0.394330	-0.049458
C70	C	1.317317	0.894330	0.450542
C71	C	0.819349	0.532845	-0.066840
C72	C	1.319349	1.032845	0.433160
N73	N	0.821273	0.166151	0.167844
N74	N	1.321273	0.666151	0.667844
N75	N	0.821325	0.166172	-0.209494
N76	N	1.321325	0.666172	0.290506
C77	C	0.868102	0.081098	0.216619
C78	C	1.368102	0.581098	0.716619
C79	C	0.868107	0.081092	0.292848
C80	C	1.368107	0.581092	0.792848
C81	C	0.821289	0.166162	0.320296
C82	C	1.321289	0.666162	0.820296
C83	C	0.774451	0.251222	0.271510
C84	C	1.274451	0.751222	0.771510
C85	C	0.774443	0.251217	0.195285
C86	C	1.274443	0.751217	0.695285
C87	C	0.812732	0.279856	0.426788
C88	C	1.312732	0.779856	0.926788
C89	C	0.812745	0.279863	0.503012
C90	C	1.312745	0.779863	1.003012
C91	C	0.821309	0.166177	0.555401
C92	C	1.321309	0.666177	1.055401
C93	C	0.829874	0.052480	0.531557
C94	C	1.329874	0.552480	1.031557
C95	C	0.829867	0.052475	0.455331
C96	C	1.329867	0.552475	0.955331
C97	C	0.821292	0.166176	0.402948
C98	C	1.321292	0.666176	0.902948
C99	C	0.868145	0.081111	0.686833
C100	C	1.368145	0.581111	1.186833
C101	C	0.868144	0.081103	0.763063
C102	C	1.368144	0.581103	1.263063
C103	C	0.774492	0.251244	0.741723
C104	C	1.274492	0.751244	1.241723
C105	C	0.774489	0.251240	0.665495
C106	C	1.274489	0.751240	1.165495
C107	C	0.821319	0.166175	0.638055
C108	C	1.321319	0.666175	1.138055
H109	H	0.610516	0.173795	-0.141557
H110	H	1.110516	0.673795	0.358443
F111	F	0.917939	-0.009439	0.187417
F112	F	1.417939	0.490561	0.687417
F113	F	0.819212	-0.474843	0.067071
F114	F	1.319212	0.025157	0.567071
F115	F	0.256784	0.013336	-0.106050
F116	F	0.756784	0.513336	0.393950
H117	H	0.479065	0.170358	-0.141126
H118	H	0.979065	0.670358	0.358874
H119	H	0.823131	-0.209127	-0.090177
H120	H	1.323131	0.290873	0.409823
F121	F	0.023014	0.158272	0.116443
F122	F	0.523014	0.658272	0.616443
F123	F	0.917951	-0.009438	0.344766
F124	F	1.417951	0.490562	0.844766
H125	H	0.246539	0.297042	0.054510
H126	H	0.746539	0.797042	0.554510
F127	F	0.820357	-0.397724	-0.145758
F128	F	1.320357	0.102276	0.354242
F129	F	0.406356	0.017273	-0.106546
F130	F	0.906356	0.517273	0.393454
F131	F	0.822209	-0.269943	0.104095
F132	F	1.322209	0.230057	0.604095
F133	F	0.619551	0.173988	0.114461
F134	F	1.119551	0.673988	0.614461
F135	F	0.838994	-0.068523	0.587308
F136	F	1.338994	0.431477	1.087308
H137	H	0.377982	0.300544	0.054048
H138	H	0.877982	0.800544	0.554048
H139	H	0.736370	0.320504	0.764070
H140	H	1.236370	0.820504	1.264070
H141	H	0.836839	-0.040101	0.435921
H142	H	1.336839	0.459899	0.935921
H143	H	0.805747	0.372439	0.384137
H144	H	1.305747	0.872439	0.884137
F145	F	0.724651	0.341771	0.613581
F146	F	1.224651	0.841771	1.113581
H147	H	0.906275	0.011841	0.664491
H148	H	1.406275	0.511841	1.164491
F149	F	0.724622	0.341755	0.300723
F150	F	1.224622	0.841755	0.800723
F151	F	0.172587	0.162224	0.115940
F152	F	0.672587	0.662224	0.615940
H153	H	0.479042	0.170300	0.098419
H154	H	0.979042	0.670300	0.598419
F155	F	0.917984	-0.009433	0.814977
F156	F	1.417984	0.490567	1.314977
H157	H	0.163551	0.162047	-0.140076
H158	H	0.663551	0.662047	0.359924
H159	H	0.805775	0.372442	0.522419
H160	H	1.305775	0.872442	1.022419
H161	H	0.032102	0.158585	-0.139641
H162	H	0.532102	0.658585	0.360359
F163	F	0.724600	0.341746	0.143371
F164	F	1.224600	0.841746	0.643371
