data_functionalizedCrystal
_audit_creation_method	'MofGen! by Chris Wilmer'
_symmetry_space_group_name_H-M	'P1'
_symmetry_Int_Tables_number	1
_symmetry_cell_setting	triclinic
loop_
_symmetry_equiv_pos_as_xyz
  x,y,z
_cell_length_a	15.186229
_cell_length_b	9.065218
_cell_length_c	9.065218
_cell_angle_alpha	85.015885
_cell_angle_beta	89.998095
_cell_angle_gamma	89.996565
loop_
_atom_site_label
_atom_site_type_symbol
_atom_site_fract_x
_atom_site_fract_y
_atom_site_fract_z
O1	O	0.073227	-1.960399	-0.216355
O2	O	0.073228	-1.531114	-0.234101
O3	O	0.073226	-1.754630	-0.010586
O4	O	0.073229	-1.736884	-0.439871
O5	O	-0.073232	-1.754615	-0.010582
O6	O	-0.073229	-1.531099	-0.234098
O7	O	-0.073230	-1.960384	-0.216352
Zn8	Zn	-0.096483	-1.745739	-0.225224
Zn9	Zn	0.096481	-1.745759	-0.225229
O10	O	-0.073228	-1.736868	-0.439867
C11	C	-0.000001	-1.476120	-0.232394
C12	C	-0.000000	-1.312277	-0.227294
N13	N	-0.228176	-1.745736	-0.225220
C14	C	-0.000002	-1.752917	0.044403
C15	C	0.000003	-1.747817	0.208245
C16	C	-0.453900	-1.844744	-0.126282
C17	C	-0.546089	-1.844748	-0.126278
C18	C	-0.546096	-1.646756	-0.324164
C19	C	-0.453908	-1.646745	-0.324159
C20	C	-0.407812	-1.745747	-0.225220
C21	C	-0.592190	-1.745763	-0.225221
C22	C	-0.692146	-1.745767	-0.225218
C23	C	-0.307850	-1.745742	-0.225221
N24	N	0.228173	-1.745774	-0.225221
C25	C	0.000000	-2.015378	-0.218059
C26	C	0.000005	-2.179221	-0.223158
C27	C	0.000001	-1.738582	-0.494855
C28	C	0.000003	-1.743681	-0.658698
H29	H	-0.416370	-1.925355	-0.045717
H30	H	-0.583637	-1.566152	-0.404720
F31	F	-0.404855	-1.541369	-0.429462
H32	H	-0.583611	-1.925358	-0.045712
