data_functionalizedCrystal
_audit_creation_method	'MofGen! by Chris Wilmer'
_symmetry_space_group_name_H-M	'P1'
_symmetry_Int_Tables_number	1
_symmetry_cell_setting	triclinic
loop_
_symmetry_equiv_pos_as_xyz
  x,y,z
_cell_length_a	35.288113
_cell_length_b	35.277611
_cell_length_c	35.277682
_cell_angle_alpha	89.997327
_cell_angle_beta	59.999432
_cell_angle_gamma	60.000166
loop_
_atom_site_label
_atom_site_type_symbol
_atom_site_fract_x
_atom_site_fract_y
_atom_site_fract_z
O1	O	-0.271232	-0.323090	0.011273
O2	O	-0.193633	-0.267966	-0.011225
O3	O	-0.271230	-0.267965	0.066395
O4	O	-0.193635	-0.323091	-0.066346
O5	O	-0.334254	-0.204920	0.066390
O6	O	-0.256658	-0.204921	-0.011230
O7	O	-0.334256	-0.260045	0.011268
Zn8	Zn	-0.305463	-0.222473	0.000019
Zn9	Zn	-0.222426	-0.305537	0.000025
O10	O	-0.256659	-0.260046	-0.066351
C11	C	-0.139921	-0.094839	-0.023515
C12	C	-0.166526	-0.044836	-0.020291
C13	C	-0.162510	-0.117863	-0.023839
C14	C	-0.071295	-0.163484	-0.023521
C15	C	-0.024525	-0.186877	-0.020303
C16	C	-0.093988	-0.186403	-0.023845
C17	C	-0.139916	-0.163485	-0.023523
C18	C	-0.166517	-0.186877	-0.020308
C19	C	-0.093993	-0.117863	-0.023837
C20	C	-0.188008	-0.205776	-0.017709
C21	C	-0.188021	-0.004439	-0.017686
C22	C	0.013260	-0.205775	-0.017702
C23	C	-0.214969	-0.229485	-0.014449
C24	C	-0.214987	0.046242	-0.014418
C25	C	0.060663	-0.229485	-0.014440
C26	C	-0.466057	-0.500369	0.034182
C27	C	-0.511983	-0.477348	0.034501
C28	C	-0.466054	-0.431728	0.034177
C29	C	-0.511980	-0.408811	0.034496
C30	C	-0.534676	-0.431729	0.034177
C31	C	-0.443465	-0.477347	0.034501
C32	C	-0.342486	-0.665896	0.021768
C33	C	-0.317224	-0.712772	0.018258
C34	C	-0.338910	-0.736288	0.016496
C35	C	-0.311516	-0.787116	0.012682
C36	C	-0.385862	-0.712923	0.018248
C37	C	-0.411124	-0.666049	0.021764
C38	C	-0.389434	-0.642536	0.023524
C39	C	-0.687733	-0.389815	0.021747
C40	C	-0.731082	-0.368211	0.018231
C41	C	-0.752825	-0.323007	0.016462
C42	C	-0.799821	-0.299581	0.012644
C43	C	-0.731219	-0.299405	0.018214
C44	C	-0.687878	-0.321006	0.021737
C45	C	-0.666135	-0.366216	0.023501
C46	C	-0.342474	-0.389811	0.021746
C47	C	-0.317205	-0.368208	0.018224
C48	C	-0.338888	-0.323002	0.016457
C49	C	-0.311491	-0.299577	0.012637
C50	C	-0.385836	-0.299403	0.018207
C51	C	-0.411101	-0.321009	0.021727
C52	C	-0.389418	-0.366213	0.023500
C53	C	-0.416828	-0.591710	0.027333
C54	C	-0.438663	-0.551196	0.030370
C55	C	-0.438657	-0.408305	0.030359
C56	C	-0.416819	-0.389634	0.027316
C57	C	-0.581672	-0.408306	0.030359
C58	C	-0.619135	-0.389636	0.027317
C59	C	-0.061850	-0.432022	-0.438498
C60	C	-0.015925	-0.477641	-0.461414
C61	C	-0.061850	-0.432022	-0.369855
C62	C	-0.015924	-0.477642	-0.392875
C63	C	0.006770	-0.500664	-0.438494
C64	C	-0.084440	-0.409104	-0.392879
C65	C	-0.185425	-0.320835	-0.480419
C66	C	-0.210689	-0.299078	-0.502026
C67	C	-0.189005	-0.322533	-0.547232
C68	C	-0.216400	-0.298947	-0.570658
C69	C	-0.142053	-0.367745	-0.570831
C70	C	-0.116790	-0.389496	-0.549227
C71	C	-0.138478	-0.366040	-0.504019
C72	C	0.159822	-0.666191	-0.549673
C73	C	0.203170	-0.713067	-0.571429
C74	C	0.224915	-0.736585	-0.547974
C75	C	0.271910	-0.787411	-0.571555
C76	C	0.203311	-0.713220	-0.502762
C77	C	0.159971	-0.666344	-0.481011
C78	C	0.138226	-0.642833	-0.504471
C79	C	-0.185423	-0.320837	-0.204330
C80	C	-0.210690	-0.299082	-0.157452
C81	C	-0.189006	-0.322537	-0.133935
C82	C	-0.216401	-0.298952	-0.083107
C83	C	-0.142058	-0.367748	-0.157296
C84	C	-0.116795	-0.389501	-0.204172
C85	C	-0.138480	-0.366040	-0.227687
C86	C	-0.111082	-0.389631	-0.480594
C87	C	-0.089245	-0.408434	-0.461922
C88	C	-0.089244	-0.408435	-0.319029
C89	C	-0.111081	-0.389633	-0.278515
C90	C	0.053765	-0.551490	-0.462079
C91	C	0.091227	-0.592004	-0.480880
O92	O	0.184792	-0.260049	0.011276
O93	O	0.074572	-0.204918	-0.011214
O94	O	0.074577	-0.204931	0.066402
O95	O	0.184787	-0.260036	-0.066340
O96	O	0.074580	-0.267979	0.066395
O97	O	0.074575	-0.267967	-0.011221
O98	O	0.184796	-0.323098	0.011268
Zn99	Zn	0.129686	-0.305543	0.000022
Zn100	Zn	0.129681	-0.222473	0.000032
O101	O	0.184791	-0.323085	-0.066347
O102	O	-0.334280	0.196123	0.011311
O103	O	-0.256678	0.063379	-0.011194
O104	O	-0.334272	0.140988	0.066428
O105	O	-0.256685	0.118515	-0.066311
O106	O	-0.271246	0.140988	0.066430
O107	O	-0.193651	0.063380	-0.011192
O108	O	-0.271253	0.196124	0.011313
Zn109	Zn	-0.222445	0.129752	0.000061
Zn110	Zn	-0.305486	0.129751	0.000058
O111	O	-0.193659	0.118515	-0.066309
O112	O	0.397507	-0.936914	-0.602533
O113	O	0.287295	-0.804173	-0.547413
O114	O	0.287292	-0.881789	-0.547409
O115	O	0.397511	-0.859297	-0.602537
O116	O	0.287290	-0.881788	-0.610455
O117	O	0.287294	-0.804171	-0.610459
O118	O	0.397506	-0.936912	-0.665578
Zn119	Zn	0.342400	-0.870541	-0.648029
Zn120	Zn	0.342402	-0.870543	-0.564963
O121	O	0.397510	-0.859295	-0.665583
O122	O	-0.271230	-0.267964	-0.665316
O123	O	-0.193638	-0.323088	-0.610187
O124	O	-0.271233	-0.323088	-0.610187
O125	O	-0.193635	-0.267964	-0.665317
O126	O	-0.334259	-0.260042	-0.547144
O127	O	-0.256663	-0.260042	-0.547145
O128	O	-0.334256	-0.204919	-0.602274
Zn129	Zn	-0.305466	-0.222471	-0.564700
Zn130	Zn	-0.222427	-0.305536	-0.647761
O131	O	-0.256660	-0.204919	-0.602274
C132	C	-0.456595	-0.094848	0.293242
C133	C	-0.503362	-0.044847	0.316630
C134	C	-0.433901	-0.117870	0.316162
C135	C	-0.387976	-0.163489	0.224603
C136	C	-0.361374	-0.186880	0.174603
C137	C	-0.365386	-0.186407	0.247627
C138	C	-0.387976	-0.163489	0.293246
C139	C	-0.361374	-0.186880	0.316639
C140	C	-0.433901	-0.117870	0.247623
C141	C	-0.339882	-0.205777	0.335538
C142	C	-0.541144	-0.004451	0.335525
C143	C	-0.339882	-0.205778	0.134207
C144	C	-0.312920	-0.229485	0.359247
C145	C	-0.588544	0.046227	0.359230
C146	C	-0.312919	-0.229485	0.083529
C147	C	-0.139914	-0.163526	0.293243
C148	C	-0.166515	-0.186921	0.316629
C149	C	-0.162508	-0.117907	0.316165
C150	C	-0.071292	-0.163518	0.224608
C151	C	-0.024521	-0.186904	0.174608
C152	C	-0.093990	-0.117899	0.247633
C153	C	-0.139918	-0.094881	0.293251
C154	C	-0.166524	-0.044881	0.316645
C155	C	-0.093985	-0.186440	0.247625
C156	C	-0.188019	-0.004485	0.335545
C157	C	-0.188006	-0.205822	0.335522
C158	C	0.013264	-0.205797	0.134213
C159	C	-0.214985	0.046193	0.359256
C160	C	-0.214967	-0.229534	0.359225
C161	C	0.060667	-0.229500	0.083535
C162	C	-0.387977	0.153259	0.293278
C163	C	-0.361372	0.150036	0.316669
C164	C	-0.433902	0.153576	0.316195
C165	C	-0.387982	0.153270	0.224638
C166	C	-0.361384	0.150059	0.174638
C167	C	-0.433907	0.153586	0.247659
C168	C	-0.456599	0.153258	0.293277
C169	C	-0.503365	0.150035	0.316666
C170	C	-0.365390	0.153587	0.247660
C171	C	-0.541147	0.147430	0.335562
C172	C	-0.339878	0.147432	0.335565
C173	C	-0.339894	0.147463	0.134243
C174	C	-0.588546	0.144163	0.359268
C175	C	-0.312913	0.144165	0.359273
C176	C	-0.312935	0.144208	0.083566
C177	C	0.533962	-0.500327	-0.438490
C178	C	0.556552	-0.477301	-0.461404
C179	C	0.465336	-0.431691	-0.369847
C180	C	0.488030	-0.408769	-0.392865
C181	C	0.533958	-0.431682	-0.438483
C182	C	0.488034	-0.477309	-0.392872
C183	C	0.588298	-0.665858	-0.480419
C184	C	0.613412	-0.712734	-0.502027
C185	C	0.660370	-0.736245	-0.547233
C186	C	0.687609	-0.787073	-0.570661
C187	C	0.682211	-0.712876	-0.570830
C188	C	0.657092	-0.666002	-0.549224
C189	C	0.610134	-0.642493	-0.504016
C190	C	0.657534	-0.389751	-0.549653
C191	C	0.682796	-0.368142	-0.571405
C192	C	0.661112	-0.322938	-0.547949
C193	C	0.688502	-0.299507	-0.571527
C194	C	0.614158	-0.299341	-0.502738
C195	C	0.588891	-0.320946	-0.480989
C196	C	0.610587	-0.366156	-0.504452
C197	C	0.312274	-0.389793	-0.204326
C198	C	0.268926	-0.368195	-0.157448
C199	C	0.247178	-0.322989	-0.133930
C200	C	0.200179	-0.299569	-0.083102
C201	C	0.268782	-0.299385	-0.157288
C202	C	0.312130	-0.320986	-0.204163
C203	C	0.333870	-0.366190	-0.227680
C204	C	0.582904	-0.591667	-0.480590
C205	C	0.561197	-0.551153	-0.461917
C206	C	0.418337	-0.408273	-0.319021
C207	C	0.380873	-0.389606	-0.278508
C208	C	0.561353	-0.408255	-0.462065
C209	C	0.583189	-0.389581	-0.480864
O210	O	-0.271267	0.196079	0.389818
O211	O	-0.193655	0.063337	0.334690
O212	O	-0.271264	0.140949	0.334697
O213	O	-0.193658	0.118467	0.389810
O214	O	-0.334279	0.140936	0.397745
O215	O	-0.256670	0.063324	0.397738
O216	O	-0.334282	0.196067	0.452865
Zn217	Zn	-0.305481	0.129693	0.435312
Zn218	Zn	-0.222456	0.129710	0.352244
O219	O	-0.256673	0.118454	0.452858
C220	C	0.006425	0.095680	-0.438452
C221	C	-0.016272	0.095363	-0.461370
C222	C	-0.062191	0.095669	-0.369813
C223	C	-0.084784	0.095352	-0.392834
C224	C	-0.062197	0.095680	-0.438452
C225	C	-0.016266	0.095352	-0.392834
C226	C	0.159478	0.108116	-0.480364
C227	C	0.202826	0.111633	-0.501968
C228	C	0.224567	0.113404	-0.547173
C229	C	0.271562	0.117227	-0.570597
C230	C	0.202961	0.111654	-0.570774
C231	C	0.159621	0.108130	-0.549172
C232	C	0.137880	0.106361	-0.503965
C233	C	-0.116535	0.108125	-0.549635
C234	C	-0.141649	0.111642	-0.571391
C235	C	-0.188604	0.113404	-0.547939
C236	C	-0.215842	0.117224	-0.571521
C237	C	-0.210441	0.111643	-0.502728
C238	C	-0.185323	0.108118	-0.480975
C239	C	-0.138368	0.106362	-0.504434
C240	C	-0.116504	0.108070	-0.204288
C241	C	-0.141615	0.111582	-0.157411
C242	C	-0.188570	0.113342	-0.133896
C243	C	-0.215802	0.117153	-0.083069
C244	C	-0.210414	0.111594	-0.157259
C245	C	-0.185302	0.108084	-0.204134
C246	C	-0.138343	0.106318	-0.227646
C247	C	0.090881	0.102545	-0.480543
C248	C	0.053420	0.099501	-0.461874
C249	C	-0.089418	0.099477	-0.318987
C250	C	-0.111120	0.102512	-0.278474
C251	C	-0.089431	0.099500	-0.462039
C252	C	-0.111138	0.102544	-0.480841
H253	H	-0.199462	-0.099379	-0.024361
H254	H	-0.074998	-0.099413	0.229150
C255	C	-0.459189	0.154176	0.223001
C256	C	-0.459384	0.114656	0.220724
C257	C	-0.482659	0.115176	0.198006
H258	H	-0.494949	0.181211	0.239665
H259	H	-0.439077	0.154293	0.192464
H260	H	-0.479497	0.114543	0.251256
H261	H	-0.423631	0.087614	0.204057
H262	H	-0.462546	0.115294	0.167469
H263	H	-0.518417	0.142213	0.214673
H264	H	-0.482789	0.088361	0.196455
H265	H	-0.074999	-0.099378	-0.024354
C266	C	-0.459140	0.154155	0.366139
C267	C	-0.421910	0.114630	0.368608
C268	C	-0.445142	0.115142	0.414606
H269	H	-0.469506	0.181187	0.385249
H270	H	-0.489785	0.154273	0.376555
H271	H	-0.391275	0.114516	0.358199
H272	H	-0.411541	0.087592	0.349509
H273	H	-0.475787	0.115260	0.425021
H274	H	-0.455508	0.142175	0.433712
H275	H	-0.419887	0.088323	0.416286
C276	C	-0.065757	-0.438544	-0.574857
C277	C	-0.024195	-0.438473	-0.579034
C278	C	0.022826	-0.483646	-0.602647
H279	H	-0.071381	-0.458369	-0.558017
H280	H	-0.056423	-0.449408	-0.604888
H281	H	-0.033526	-0.427614	-0.549009
H282	H	-0.018553	-0.418657	-0.595878
H283	H	0.032160	-0.494511	-0.632678
H284	H	0.017196	-0.503467	-0.585804
H285	H	0.051033	-0.483603	-0.605488
H286	H	0.469033	-0.371287	-0.374376
C287	C	-0.211835	-0.093186	0.366119
C288	C	-0.253806	-0.053456	0.368598
C289	C	-0.299250	-0.030669	0.414607
H290	H	-0.222173	-0.113385	0.376575
H291	H	-0.203853	-0.084473	0.385191
H292	H	-0.261788	-0.062170	0.349533
H293	H	-0.243485	-0.033246	0.358151
H294	H	-0.291268	-0.021955	0.433679
H295	H	-0.309583	-0.050872	0.425059
H296	H	-0.327731	-0.003707	0.416296
H297	H	0.595627	-0.731757	-0.482811
H298	H	-0.328434	0.154105	0.229179
H299	H	-0.452898	-0.099385	0.353645
H300	H	-0.248648	0.113027	-0.138110
H301	H	-0.278976	-0.387428	0.016796
H302	H	-0.452887	-0.099380	0.229135
C303	C	-0.537250	-0.358821	0.035215
C304	C	-0.507535	-0.343584	0.035434
C305	C	-0.530805	-0.297535	0.036108
H306	H	-0.537455	-0.356986	0.008447
H307	H	-0.572989	-0.339752	0.062298
H308	H	-0.471806	-0.362647	0.008354
H309	H	-0.507328	-0.345408	0.062200
H310	H	-0.566544	-0.278466	0.063191
H311	H	-0.531008	-0.295704	0.009340
H312	H	-0.510650	-0.287189	0.036261
C313	C	0.680719	-0.640584	-0.574853
C314	C	0.643266	-0.603185	-0.579032
C315	C	0.665016	-0.579764	-0.602644
H316	H	0.689326	-0.629373	-0.558011
H317	H	0.712270	-0.661277	-0.604883
H318	H	0.611724	-0.582495	-0.549008
H319	H	0.634655	-0.614383	-0.595878
H320	H	0.696567	-0.600457	-0.632674
H321	H	0.673622	-0.568556	-0.585800
H322	H	0.639609	-0.554389	-0.605487
H323	H	-0.078302	0.106692	-0.568739
H324	H	0.329974	-0.426601	-0.223470
C325	C	0.009512	-0.502291	-0.511426
C326	C	0.062173	-0.515022	-0.539388
C327	C	0.085629	-0.537730	-0.585462
H328	H	0.009765	-0.529289	-0.513259
H329	H	-0.010549	-0.482054	-0.521882
H330	H	0.082229	-0.535258	-0.528934
H331	H	0.061935	-0.488033	-0.537568
H332	H	0.065568	-0.517493	-0.595918
H333	H	0.085878	-0.564726	-0.587290
H334	H	0.121360	-0.546367	-0.604440
H335	H	0.593507	-0.495781	-0.498887
H336	H	-0.248917	-0.262271	-0.138434
C337	C	0.462774	-0.502030	-0.368315
C338	C	0.492496	-0.546991	-0.398259
C339	C	0.469240	-0.569773	-0.375654
H340	H	0.462576	-0.503658	-0.341346
H341	H	0.427033	-0.485358	-0.359645
H342	H	0.528227	-0.563659	-0.406922
H343	H	0.492696	-0.545376	-0.425229
H344	H	0.433500	-0.553101	-0.366984
H345	H	0.469044	-0.571399	-0.348686
H346	H	0.489401	-0.600280	-0.395969
C347	C	0.136412	-0.640942	-0.431903
C348	C	0.082412	-0.624523	-0.402848
C349	C	0.060691	-0.601116	-0.357607
H350	H	0.155505	-0.661615	-0.420984
H351	H	0.139208	-0.615522	-0.431841
H352	H	0.079621	-0.649940	-0.402908
H353	H	0.063306	-0.603844	-0.413752
H354	H	0.063487	-0.575695	-0.357546
H355	H	0.079787	-0.621791	-0.346693
H356	H	0.024049	-0.589969	-0.337889
C357	C	0.245531	-0.393890	-0.132176
C358	C	0.273842	-0.438095	-0.162807
C359	C	0.252300	-0.461777	-0.139545
H360	H	0.248352	-0.396817	-0.106777
H361	H	0.208891	-0.377042	-0.121022
H362	H	0.310472	-0.454939	-0.173954
H363	H	0.271023	-0.435182	-0.188206
H364	H	0.215660	-0.444929	-0.128391
H365	H	0.255122	-0.464700	-0.114148
H366	H	0.271502	-0.491771	-0.160326
C367	C	0.136220	0.106261	-0.574862
C368	C	0.164526	0.108577	-0.619069
C369	C	0.142979	0.106864	-0.642744
H370	H	0.139042	0.078040	-0.577786
H371	H	0.099580	0.131756	-0.558011
H372	H	0.201157	0.083085	-0.635915
H373	H	0.161706	0.136796	-0.616158
H374	H	0.106338	0.132359	-0.625894
H375	H	0.145802	0.078643	-0.645665
H376	H	0.162177	0.108440	-0.672739
H377	H	-0.248916	-0.262267	-0.482808
C378	C	0.537302	-0.640410	-0.431347
C379	C	0.523542	-0.670901	-0.415314
C380	C	0.476565	-0.647472	-0.370114
H381	H	0.542991	-0.629233	-0.411562
H382	H	0.509074	-0.615012	-0.431350
H383	H	0.551763	-0.696291	-0.415308
H384	H	0.517842	-0.682080	-0.435086
H385	H	0.448337	-0.622074	-0.370117
H386	H	0.482259	-0.636296	-0.350333
H387	H	0.467221	-0.668155	-0.359231
H388	H	-0.324812	-0.426621	0.023185
C389	C	-0.068575	-0.236417	-0.024638
C390	C	-0.015911	-0.264394	-0.064575
C391	C	0.007512	-0.310468	-0.065327
H392	H	-0.068331	-0.238262	0.002110
H393	H	-0.088651	-0.246851	-0.024814
H394	H	0.004160	-0.253963	-0.064396
H395	H	-0.016140	-0.262563	-0.091330
H396	H	-0.012565	-0.320902	-0.065503
H397	H	0.007752	-0.312308	-0.038577
H398	H	0.043244	-0.329457	-0.092426
C399	C	-0.316110	-0.236385	0.222908
C400	C	-0.301087	-0.251617	0.177942
C401	C	-0.255696	-0.297650	0.155157
H402	H	-0.287533	-0.238191	0.221286
H403	H	-0.324091	-0.255476	0.239573
H404	H	-0.293104	-0.232531	0.161280
H405	H	-0.329650	-0.249822	0.179550
H406	H	-0.263677	-0.316741	0.171822
H407	H	-0.227123	-0.299452	0.153538
H408	H	-0.245500	-0.307992	0.124647
C409	C	-0.068596	-0.236408	0.222884
C410	C	-0.023441	-0.251626	0.177921
C411	C	-0.000046	-0.297649	0.155113
H412	H	-0.058183	-0.255525	0.239525
H413	H	-0.093768	-0.238184	0.221266
H414	H	0.001726	-0.249853	0.179541
H415	H	-0.033839	-0.232522	0.161268
H416	H	-0.025218	-0.299425	0.153494
H417	H	0.010363	-0.316762	0.171756
H418	H	0.030591	-0.307979	0.124601
H419	H	-0.078569	-0.426312	-0.223190
H420	H	0.720442	-0.732021	-0.607636
H421	H	-0.748668	-0.387431	0.016803
H422	H	-0.121394	-0.371621	-0.374400
C423	C	0.681149	-0.438823	-0.575213
C424	C	0.727663	-0.454857	-0.619464
C425	C	0.749426	-0.500057	-0.643023
H426	H	0.689750	-0.458608	-0.558341
H427	H	0.655759	-0.438822	-0.578056
H428	H	0.753048	-0.454862	-0.616619
H429	H	0.719077	-0.435085	-0.636348
H430	H	0.724036	-0.500055	-0.645866
H431	H	0.758023	-0.519837	-0.626147
H432	H	0.780985	-0.510940	-0.673051
C433	C	0.733824	-0.393732	-0.620456
C434	C	0.775369	-0.397883	-0.620374
C435	C	0.822384	-0.421448	-0.665552
H436	H	0.743203	-0.423767	-0.631362
H437	H	0.728158	-0.376859	-0.640253
H438	H	0.781036	-0.414756	-0.600584
H439	H	0.766009	-0.367855	-0.609477
H440	H	0.816717	-0.404575	-0.685348
H441	H	0.831757	-0.451482	-0.676453
H442	H	0.850577	-0.424264	-0.665502
H443	H	0.002707	0.094870	-0.374340
H444	H	-0.203088	-0.301731	-0.443610
H445	H	0.596497	-0.262532	-0.483641
C446	C	-0.118578	-0.393131	-0.131692
C447	C	-0.150740	-0.364402	-0.085644
C448	C	-0.129123	-0.387767	-0.062048
H449	H	-0.117315	-0.420674	-0.132175
H450	H	-0.083362	-0.400918	-0.146437
H451	H	-0.185947	-0.356621	-0.070904
H452	H	-0.152006	-0.336860	-0.085148
H453	H	-0.093907	-0.395554	-0.076792
H454	H	-0.127861	-0.415309	-0.062533
H455	H	-0.150939	-0.368276	-0.030803
C456	C	0.009341	-0.502202	-0.368160
C457	C	-0.020376	-0.472260	-0.323199
C458	C	0.002886	-0.494867	-0.300422
H459	H	0.009539	-0.529171	-0.366530
H460	H	0.045081	-0.510872	-0.384836
H461	H	-0.056107	-0.463597	-0.306527
H462	H	-0.020576	-0.445291	-0.324815
H463	H	0.038627	-0.503537	-0.317098
H464	H	0.003083	-0.521836	-0.298796
H465	H	-0.017270	-0.474553	-0.269915
C466	C	0.537936	-0.295261	-0.431896
C467	C	0.524356	-0.251052	-0.416001
C468	C	0.477425	-0.227381	-0.370775
H469	H	0.509626	-0.292340	-0.431799
H470	H	0.543628	-0.312112	-0.412094
H471	H	0.518661	-0.234205	-0.435798
H472	H	0.552653	-0.253960	-0.416087
H473	H	0.483117	-0.244232	-0.350973
H474	H	0.449118	-0.224463	-0.370682
H475	H	0.468207	-0.197385	-0.359983
C476	C	0.335489	-0.295273	-0.229449
C477	C	0.307157	-0.251057	-0.198825
C478	C	0.328656	-0.227354	-0.222103
H479	H	0.372126	-0.312083	-0.240619
H480	H	0.332645	-0.292370	-0.254842
H481	H	0.310007	-0.253961	-0.173441
H482	H	0.270521	-0.234234	-0.187654
H483	H	0.325812	-0.224451	-0.247495
H484	H	0.365293	-0.244168	-0.233272
H485	H	0.309433	-0.197349	-0.201330
H486	H	0.251073	-0.262575	-0.138136
H487	H	-0.123867	0.113078	-0.608200
C488	C	-0.118414	-0.393277	-0.619920
C489	C	-0.071885	-0.437520	-0.635966
C490	C	-0.050088	-0.461053	-0.681188
H491	H	-0.143766	-0.396140	-0.619964
H492	H	-0.109830	-0.376368	-0.639670
H493	H	-0.080470	-0.454425	-0.616221
H494	H	-0.046521	-0.434671	-0.635933
H495	H	-0.041504	-0.444144	-0.700938
H496	H	-0.075444	-0.463912	-0.681228
H497	H	-0.018513	-0.491073	-0.692083
C498	C	-0.134031	0.094620	-0.368127
C499	C	-0.149038	0.094390	-0.323169
C500	C	-0.194390	0.093702	-0.300401
H501	H	-0.162630	0.121386	-0.366493
H502	H	-0.126013	0.067535	-0.384812
H503	H	-0.157058	0.121471	-0.306488
H504	H	-0.120452	0.067625	-0.324789
H505	H	-0.186372	0.066618	-0.317086
H506	H	-0.222985	0.120469	-0.298771
H507	H	-0.204575	0.093542	-0.269897
H508	H	-0.530976	-0.495833	0.035018
H509	H	0.002721	0.094852	-0.498852
H510	H	-0.123834	0.113018	-0.138389
C511	C	-0.409424	-0.250285	0.016388
C512	C	-0.421991	-0.221308	0.053997
C513	C	-0.443729	-0.176058	0.052342
H514	H	-0.384056	-0.250225	-0.011811
H515	H	-0.441022	-0.239301	0.017960
H516	H	-0.390397	-0.232289	0.052421
H517	H	-0.447363	-0.221354	0.082202
H518	H	-0.475327	-0.165073	0.053915
H519	H	-0.418358	-0.176003	0.024142
H520	H	-0.452263	-0.156391	0.077862
H521	H	-0.078269	0.106635	-0.223429
H522	H	0.141782	0.106674	-0.443555
H523	H	0.142122	-0.647051	-0.568779
H524	H	0.220414	0.113060	-0.482749
C525	C	0.226619	0.113610	-0.619839
C526	C	0.269190	0.117083	-0.633702
C527	C	0.290990	0.118895	-0.678896
H528	H	0.239326	0.086194	-0.640359
H529	H	0.199820	0.139906	-0.620568
H530	H	0.295984	0.090789	-0.632976
H531	H	0.256497	0.144498	-0.613194
H532	H	0.264191	0.145191	-0.679625
H533	H	0.303694	0.091478	-0.699412
H534	H	0.319873	0.121256	-0.688306
H535	H	-0.248670	0.113071	-0.483634
C536	C	-0.209128	0.106235	-0.431883
C537	C	-0.255631	0.108542	-0.415992
C538	C	-0.277580	0.106818	-0.370767
H539	H	-0.183835	0.078014	-0.431785
H540	H	-0.217773	0.131730	-0.412078
H541	H	-0.246984	0.083050	-0.435791
H542	H	-0.280936	0.136761	-0.416079
H543	H	-0.286225	0.132312	-0.350963
H544	H	-0.252283	0.078596	-0.370674
H545	H	-0.309137	0.108387	-0.359978
C546	C	-0.209088	0.106171	-0.229422
C547	C	-0.255576	0.108454	-0.198801
C548	C	-0.277500	0.106691	-0.222080
H549	H	-0.217751	0.131653	-0.240588
H550	H	-0.183761	0.077938	-0.254817
H551	H	-0.280897	0.136684	-0.173415
H552	H	-0.246927	0.082974	-0.187633
H553	H	-0.252174	0.078458	-0.247475
H554	H	-0.286161	0.132173	-0.233246
H555	H	-0.309042	0.108235	-0.201309
C556	C	-0.318837	-0.640448	0.023621
C557	C	-0.266927	-0.662304	-0.016839
C558	C	-0.245125	-0.638878	-0.015140
H559	H	-0.340537	-0.609182	0.025944
H560	H	-0.317551	-0.641003	0.049893
H561	H	-0.268215	-0.661744	-0.043104
H562	H	-0.245213	-0.693568	-0.019170
H563	H	-0.243840	-0.639434	0.011132
H564	H	-0.266828	-0.607613	-0.012816
H565	H	-0.209900	-0.653707	-0.042589
C566	C	-0.394125	-0.501996	0.035095
C567	C	-0.352149	-0.504265	-0.004421
C568	C	-0.306688	-0.526970	-0.003893
H569	H	-0.402061	-0.485327	0.062133
H570	H	-0.383819	-0.532534	0.035212
H571	H	-0.362453	-0.473732	-0.004534
H572	H	-0.344196	-0.520938	-0.031465
H573	H	-0.296382	-0.557509	-0.003776
H574	H	-0.314629	-0.510299	0.023146
H575	H	-0.278200	-0.528517	-0.030706
H576	H	-0.403516	-0.732073	0.016816
C577	C	-0.266199	-0.738214	0.016273
C578	C	-0.224648	-0.775623	-0.025362
C579	C	-0.177637	-0.799075	-0.027206
H580	H	-0.256825	-0.717556	0.017795
H581	H	-0.271867	-0.749414	0.041741
H582	H	-0.218980	-0.764423	-0.050824
H583	H	-0.234004	-0.796293	-0.026894
H584	H	-0.183305	-0.810274	-0.001738
H585	H	-0.168268	-0.778412	-0.025683
H586	H	-0.149440	-0.824461	-0.055453
H587	H	-0.748926	-0.262597	0.016776
C588	C	-0.462077	-0.640772	0.023637
C589	C	-0.475656	-0.671399	0.021330
C590	C	-0.522586	-0.648131	0.023046
H591	H	-0.490389	-0.615373	0.051855
H592	H	-0.456384	-0.629618	-0.001861
H593	H	-0.481352	-0.682546	0.046826
H594	H	-0.447358	-0.696798	-0.006887
H595	H	-0.516893	-0.636977	-0.002452
H596	H	-0.550894	-0.622734	0.051265
H597	H	-0.531803	-0.668909	0.021477
H598	H	-0.670034	-0.426625	0.023186
C599	C	-0.664374	-0.295394	0.023538
C600	C	-0.645834	-0.283959	-0.016951
C601	C	-0.624172	-0.260370	-0.015313
H602	H	-0.691199	-0.267822	0.049783
H603	H	-0.635422	-0.314728	0.025861
H604	H	-0.674783	-0.264625	-0.019269
H605	H	-0.619003	-0.311522	-0.043202
H606	H	-0.595220	-0.279704	-0.012991
H607	H	-0.651000	-0.232799	0.010933
H608	H	-0.611586	-0.252612	-0.042786
C609	C	-0.462086	-0.295299	0.023650
C610	C	-0.475677	-0.251082	0.021363
C611	C	-0.522646	-0.227383	0.023141
H612	H	-0.456450	-0.312111	-0.001825
H613	H	-0.490369	-0.292399	0.051889
H614	H	-0.447401	-0.253984	-0.006873
H615	H	-0.481324	-0.234258	0.046836
H616	H	-0.550928	-0.224482	0.051380
H617	H	-0.517006	-0.244198	-0.002335
H618	H	-0.531876	-0.197377	0.021594
H619	H	-0.203079	-0.301728	-0.223475
C620	C	0.226524	-0.738360	-0.620501
C621	C	0.198194	-0.707739	-0.636383
C622	C	0.219685	-0.731024	-0.681583
H623	H	0.263163	-0.749535	-0.640342
H624	H	0.223672	-0.763748	-0.620546
H625	H	0.201051	-0.682359	-0.636341
H626	H	0.161556	-0.696562	-0.616554
H627	H	0.216833	-0.756413	-0.681628
H628	H	0.256323	-0.742199	-0.701420
H629	H	0.200463	-0.710253	-0.692363
H630	H	0.221021	-0.732367	-0.483667
