data_functionalizedCrystal
_audit_creation_method	'MofGen! by Chris Wilmer'
_symmetry_space_group_name_H-M	'P1'
_symmetry_Int_Tables_number	1
_symmetry_cell_setting	triclinic
loop_
_symmetry_equiv_pos_as_xyz
  x,y,z
_cell_length_a	10.967874
_cell_length_b	11.026607
_cell_length_c	16.776229
_cell_angle_alpha	89.996140
_cell_angle_beta	77.864182
_cell_angle_gamma	96.380181
loop_
_atom_site_label
_atom_site_type_symbol
_atom_site_fract_x
_atom_site_fract_y
_atom_site_fract_z
O1	O	1.694042	0.170539	-0.298986
O2	O	1.334403	0.186858	-0.249586
O3	O	1.484416	0.001797	-0.270189
O4	O	1.544029	0.355600	-0.278383
O5	O	1.484388	0.001786	-0.137608
O6	O	1.334375	0.186846	-0.117005
O7	O	1.694014	0.170528	-0.166405
Zn8	Zn	1.514190	0.178685	-0.120655
Zn9	Zn	1.514227	0.178701	-0.295336
O10	O	1.544001	0.355589	-0.145803
C11	C	1.287632	0.185664	-0.176873
C12	C	1.148307	0.182109	-0.157735
C13	C	1.473404	-0.043511	-0.202389
C14	C	1.440620	-0.178498	-0.197888
C15	C	1.086207	0.180530	-0.217884
C16	C	0.942207	0.176856	-0.198106
C17	C	1.531143	-0.251550	-0.210324
C18	C	1.497261	-0.391066	-0.205673
C19	C	1.740785	0.171722	-0.239120
C20	C	1.880110	0.175277	-0.258263
C21	C	1.555012	0.400897	-0.213604
C22	C	1.587797	0.535884	-0.218110
N23	N	1.514174	0.178674	-0.001442
N24	N	1.514251	0.178702	-0.414550
C25	C	1.580633	0.096763	0.031148
C26	C	1.580640	0.096762	0.114599
C27	C	1.514194	0.178679	0.165458
C28	C	1.447726	0.260594	0.132864
C29	C	1.447713	0.260588	0.049415
C30	C	1.447777	0.260618	0.469404
C31	C	1.447798	0.260620	0.552858
C32	C	1.580703	0.096793	0.534588
C33	C	1.580690	0.096787	0.451139
C34	C	1.514218	0.178696	0.418553
C35	C	1.514209	0.178695	0.328066
C36	C	1.514209	0.178687	0.255943
H37	H	1.139647	0.181905	-0.284021
C38	C	1.653811	0.006678	0.570433
H39	H	1.693391	-0.042099	0.528189
H40	H	1.597476	-0.044336	0.610735
H41	H	1.715689	0.050886	0.594476
H42	H	0.888772	0.175494	-0.131964
H43	H	1.690387	-0.423377	-0.232261
C44	C	1.669725	-0.196517	-0.229356
H45	H	1.674317	-0.109965	-0.229980
H46	H	1.710192	-0.222805	-0.281146
H47	H	1.710161	-0.222819	-0.188671
H48	H	1.393686	0.327329	0.594268
H49	H	1.393593	0.327286	0.022883
H50	H	0.933544	0.176653	-0.324405
H51	H	1.393656	0.327314	0.442879
C52	C	1.358671	-0.446093	-0.186637
H53	H	1.354080	-0.532645	-0.186003
H54	H	1.318227	-0.419789	-0.227312
H55	H	1.318213	-0.419808	-0.134840
H56	H	1.338037	-0.219245	-0.183803
C57	C	1.076132	0.180264	-0.068387
H58	H	1.133768	0.181739	-0.033215
H59	H	1.018671	0.108189	-0.057529
H60	H	1.031447	0.249746	-0.059289
C61	C	1.653722	0.006652	-0.024790
H62	H	1.693293	-0.042139	0.006575
H63	H	1.715586	0.050844	-0.065855
H64	H	1.597364	-0.044366	-0.049589
H65	H	1.393617	0.327288	0.174280
H66	H	1.634755	0.030064	0.141132
C67	C	1.653776	0.006675	0.395199
H68	H	1.693348	-0.042118	0.426562
H69	H	1.715637	0.050867	0.354133
H70	H	1.597414	-0.044340	0.370401
