data_functionalizedCrystal
_audit_creation_method	'MofGen! by Chris Wilmer'
_symmetry_space_group_name_H-M	'P1'
_symmetry_Int_Tables_number	1
_symmetry_cell_setting	triclinic
loop_
_symmetry_equiv_pos_as_xyz
  x,y,z
_cell_length_a	11.026607
_cell_length_b	11.026607
_cell_length_c	9.483335
_cell_angle_alpha	78.625300
_cell_angle_beta	78.615903
_cell_angle_gamma	71.413983
loop_
_atom_site_label
_atom_site_type_symbol
_atom_site_fract_x
_atom_site_fract_y
_atom_site_fract_z
O1	O	0.549184	-1.711182	-0.120885
O2	O	0.488420	-1.344601	-0.120887
O3	O	0.335511	-1.497510	-0.120881
O4	O	0.702093	-1.558273	-0.120891
O5	O	0.304381	-1.528597	0.120896
O6	O	0.457290	-1.375688	0.120890
O7	O	0.518053	-1.742268	0.120892
Cu8	Cu	0.484829	-1.561816	0.142967
Cu9	Cu	0.521645	-1.525053	-0.142962
O10	O	0.670962	-1.589359	0.120886
C11	C	0.461645	-1.312485	0.000001
C12	C	0.428228	-1.170471	0.000000
C13	C	0.272287	-1.501843	0.000006
C14	C	0.130273	-1.468426	0.000000
C15	C	0.544828	-1.774384	0.000001
C16	C	0.578246	-1.916397	-0.000008
C17	C	0.076624	-1.560695	-0.000001
C18	C	-0.070154	-1.526159	-0.000007
C19	C	0.734187	-1.585025	-0.000004
C20	C	0.876202	-1.618442	-0.000008
N21	N	0.458936	-1.587682	0.344074
C22	C	0.520498	-1.116821	-0.000003
C23	C	0.485963	-0.970042	-0.000004
N24	N	0.547530	-1.499195	-0.344069
C25	C	0.492462	-1.554210	0.583704
C26	C	0.514012	-1.532659	0.416297
H27	H	0.139356	-1.665259	0.000009
H28	H	0.067541	-1.363862	-0.000010
O29	O	0.631118	-1.415673	0.573683
H30	H	0.668187	-1.378659	0.652056
O31	O	0.597580	-1.449105	0.334067
H32	H	0.601374	-1.445271	0.215484
H33	H	0.323670	-1.107733	-0.000034
O34	O	0.659006	-1.199911	0.000004
H35	H	0.721342	-1.138286	0.000015
O36	O	0.408875	-1.637737	0.665940
H37	H	0.405059	-1.641549	0.784523
O38	O	0.347445	-0.886959	0.000011
H39	H	0.285106	-0.948588	0.000027
H40	H	-0.061057	-1.722998	-0.000117
H41	H	0.395838	-1.650748	0.406166
H42	H	-0.132881	-1.421588	-0.000017
O43	O	0.716768	-0.999464	-0.000004
H44	H	0.749093	-1.048068	-0.098552
