data_functionalizedCrystal
_audit_creation_method	'MofGen! by Chris Wilmer'
_symmetry_space_group_name_H-M	'P1'
_symmetry_Int_Tables_number	1
_symmetry_cell_setting	triclinic
loop_
_symmetry_equiv_pos_as_xyz
  x,y,z
_cell_length_a	27.731994
_cell_length_b	27.732048
_cell_length_c	16.176319
_cell_angle_alpha	89.988239
_cell_angle_beta	89.998662
_cell_angle_gamma	82.631595
loop_
_atom_site_label
_atom_site_type_symbol
_atom_site_fract_x
_atom_site_fract_y
_atom_site_fract_z
O1	O	0.640946	0.057393	-0.068637
O2	O	1.140946	0.557393	0.431363
O3	O	0.500149	0.066166	-0.068666
O4	O	1.000149	0.566166	0.431334
O5	O	0.574920	-0.008618	-0.068635
O6	O	1.074920	0.491382	0.431365
O7	O	0.566175	0.132177	-0.068668
O8	O	1.066175	0.632177	0.431332
O9	O	0.574910	-0.008622	0.068858
O10	O	1.074910	0.491378	0.568858
O11	O	0.500139	0.066162	0.068827
O12	O	1.000139	0.566162	0.568827
O13	O	0.640936	0.057389	0.068856
O14	O	1.140936	0.557389	0.568856
Cu15	Cu	0.570537	0.061775	0.081396
Cu16	Cu	1.070537	0.561775	0.581396
Cu17	Cu	0.570549	0.061780	-0.081206
Cu18	Cu	1.070549	0.561780	0.418794
O19	O	0.566165	0.132173	0.068825
O20	O	1.066165	0.632173	0.568825
C21	C	0.482137	0.065984	0.000077
C22	C	0.982137	0.565984	0.500077
C23	C	0.428480	0.065442	0.000067
C24	C	0.928480	0.565442	0.500067
C25	C	0.095756	0.062023	0.075047
C26	C	0.595756	0.562023	0.575047
C27	C	-0.105902	0.059962	0.075057
C28	C	0.394098	0.559962	0.575057
O29	O	-0.131979	0.059672	0.138797
O30	O	0.368021	0.559672	0.638797
N31	N	-0.131111	0.059708	0.000109
N32	N	0.368889	0.559708	0.500109
C33	C	-0.105902	0.059967	-0.074846
C34	C	0.394098	0.559967	0.425154
O35	O	-0.131971	0.059699	-0.138593
O36	O	0.368029	0.559699	0.361407
C37	C	0.095755	0.062025	-0.074855
C38	C	0.595755	0.562025	0.425145
C39	C	0.120961	0.062283	0.000097
C40	C	0.620961	0.562283	0.500097
C41	C	0.120962	0.062281	0.149993
C42	C	0.620962	0.562281	0.649993
C43	C	0.171373	0.062799	0.149990
C44	C	0.671373	0.562799	0.649990
C45	C	0.196579	0.063059	0.075040
C46	C	0.696579	0.563059	0.575040
C47	C	0.171372	0.062801	0.000094
C48	C	0.671372	0.562801	0.500094
C49	C	0.120964	0.062280	-0.149809
C50	C	0.620964	0.562280	0.350191
C51	C	0.171381	0.062794	-0.149805
C52	C	0.671381	0.562794	0.350195
C53	C	0.196587	0.063052	-0.074852
C54	C	0.696587	0.563052	0.425148
C55	C	0.246989	0.063580	-0.074858
C56	C	0.746989	0.563580	0.425142
N57	N	0.272198	0.063833	0.000089
N58	N	0.772198	0.563833	0.500089
C59	C	0.246993	0.063573	0.075038
C60	C	0.746993	0.563573	0.575038
C61	C	-0.211776	0.058887	-0.074836
C62	C	0.288224	0.558887	0.425164
C63	C	-0.262190	0.058374	-0.074834
C64	C	0.237810	0.558374	0.425166
C65	C	-0.262186	0.058368	0.075069
C66	C	0.237814	0.558368	0.575069
C67	C	-0.211771	0.058885	0.075066
C68	C	0.288229	0.558885	0.575066
C69	C	-0.186566	0.059141	0.000112
C70	C	0.313434	0.559141	0.500112
C71	C	0.352860	0.064661	0.075026
C72	C	0.852860	0.564661	0.575026
C73	C	0.403275	0.065181	0.075016
C74	C	0.903275	0.565181	0.575016
C75	C	0.403267	0.065185	-0.074886
C76	C	0.903267	0.565185	0.425114
C77	C	0.352856	0.064667	-0.074877
C78	C	0.852856	0.564667	0.425123
C79	C	0.327654	0.064404	0.000086
C80	C	0.827654	0.564404	0.500086
O81	O	0.273098	0.063864	-0.138565
O82	O	0.773098	0.563864	0.361435
O83	O	0.273072	0.063830	0.138776
O84	O	0.773072	0.563830	0.638776
C85	C	0.045345	0.061505	0.075050
C86	C	0.545345	0.561505	0.575050
C87	C	0.020139	0.061247	0.000104
C88	C	0.520139	0.561247	0.500104
C89	C	0.045344	0.061508	-0.074846
C90	C	0.545344	0.561508	0.425154
C91	C	-0.030275	0.060734	0.000106
C92	C	0.469725	0.560734	0.500106
C93	C	-0.055480	0.060474	0.075055
C94	C	0.444520	0.560474	0.575055
C95	C	-0.030271	0.060727	0.150003
C96	C	0.469729	0.560727	0.650003
C97	C	0.020140	0.061245	0.150000
C98	C	0.520140	0.561245	0.650000
C99	C	0.020135	0.061254	-0.149793
C100	C	0.520135	0.561254	0.350207
C101	C	-0.030277	0.060737	-0.149784
C102	C	0.469723	0.560737	0.350216
C103	C	-0.055482	0.060476	-0.074834
C104	C	0.444518	0.560476	0.425166
C105	C	0.574732	-0.026627	0.000114
C106	C	1.074732	0.473373	0.500114
C107	C	0.574179	-0.080282	0.000120
C108	C	1.074179	0.419718	0.500120
C109	C	0.614884	-0.419105	0.000086
C110	C	1.114884	0.080895	0.500086
C111	C	0.612833	-0.620764	0.000074
C112	C	1.112833	-0.120764	0.500074
O113	O	0.650055	-0.652027	0.000046
O114	O	1.150055	-0.152027	0.500046
N115	N	0.568496	-0.639879	0.000066
N116	N	1.068496	-0.139879	0.500066
C117	C	0.524670	-0.608576	0.000055
C118	C	1.024670	-0.108576	0.500055
O119	O	0.486912	-0.629462	0.000039
O120	O	0.986912	-0.129462	0.500039
C121	C	0.526721	-0.406918	0.000061
C122	C	1.026721	0.093082	0.500061
C123	C	0.571061	-0.387805	0.000078
C124	C	1.071061	0.112195	0.500078
C125	C	0.659220	-0.399992	0.000102
C126	C	1.159220	0.100008	0.500102
C127	C	0.659732	-0.349580	0.000109
C128	C	1.159732	0.150420	0.500109
C129	C	0.615908	-0.318281	0.000101
C130	C	1.115908	0.181719	0.500101
C131	C	0.571573	-0.337394	0.000085
C132	C	1.071573	0.162606	0.500085
C133	C	0.482895	-0.375615	0.000045
C134	C	0.982895	0.124385	0.500045
C135	C	0.483412	-0.325198	0.000044
C136	C	0.983412	0.174802	0.500044
C137	C	0.527751	-0.306086	0.000061
C138	C	1.027751	0.193914	0.500061
C139	C	0.528262	-0.255683	0.000085
C140	C	1.028262	0.244317	0.500085
N141	N	0.572598	-0.236567	0.000093
N142	N	1.072598	0.263433	0.500093
C143	C	0.616421	-0.267867	0.000101
C144	C	1.116421	0.232133	0.500101
C145	C	0.523596	-0.714450	0.000054
C146	C	1.023596	-0.214450	0.500054
C147	C	0.523083	-0.764864	0.000054
C148	C	1.023083	-0.264864	0.500054
C149	C	0.611246	-0.777049	0.000071
C150	C	1.111246	-0.277049	0.500071
C151	C	0.611759	-0.726633	0.000077
C152	C	1.111759	-0.226633	0.500077
C153	C	0.567932	-0.695335	0.000062
C154	C	1.067932	-0.195335	0.500062
C155	C	0.617494	-0.161998	0.000118
C156	C	1.117494	0.338002	0.500118
C157	C	0.618002	-0.111581	0.000129
C158	C	1.118002	0.388419	0.500129
C159	C	0.529839	-0.099401	0.000107
C160	C	1.029839	0.400599	0.500107
C161	C	0.529331	-0.149813	0.000100
C162	C	1.029331	0.350187	0.500100
C163	C	0.573162	-0.181111	0.000103
C164	C	1.073162	0.318889	0.500103
O165	O	0.491060	-0.224391	0.000104
O166	O	0.991060	0.275609	0.500104
O167	O	0.654174	-0.246971	0.000099
O168	O	1.154174	0.253029	0.500099
C169	C	0.614372	-0.469517	0.000079
C170	C	1.114372	0.030483	0.500079
C171	C	0.570036	-0.488629	0.000063
C172	C	1.070036	0.011371	0.500063
C173	C	0.526213	-0.457330	0.000055
C174	C	1.026213	0.042670	0.500055
C175	C	0.569523	-0.539043	0.000063
C176	C	1.069523	-0.039043	0.500063
C177	C	0.613346	-0.570343	0.000071
C178	C	1.113346	-0.070343	0.500071
C179	C	0.657683	-0.551228	0.000079
C180	C	1.157683	-0.051228	0.500079
C181	C	0.658195	-0.500816	0.000087
C182	C	1.158195	-0.000816	0.500087
C183	C	0.481876	-0.476445	0.000046
C184	C	0.981876	0.023555	0.500046
C185	C	0.481367	-0.526857	0.000040
C186	C	0.981367	-0.026857	0.500040
C187	C	0.525191	-0.558157	0.000048
C188	C	1.025191	-0.058157	0.500048
C189	C	0.658949	0.057571	0.000111
C190	C	1.158949	0.557571	0.500111
C191	C	0.712605	0.058113	0.000116
C192	C	1.212605	0.558113	0.500116
C193	C	0.566353	0.150182	0.000074
C194	C	1.066353	0.650182	0.500074
C195	C	0.566906	0.203837	0.000062
C196	C	1.066906	0.703837	0.500062
N197	N	0.570532	0.061771	0.195761
N198	N	1.070532	0.561771	0.695761
N199	N	0.570557	0.061781	-0.195571
N200	N	1.070557	0.561781	0.304429
C201	C	0.603650	0.028670	0.239039
C202	C	1.103650	0.528670	0.739039
C203	C	0.603653	0.028669	0.325586
C204	C	1.103653	0.528669	0.825586
C205	C	0.570538	0.061772	0.368853
C206	C	1.070538	0.561772	0.868853
C207	C	0.537416	0.094875	0.325569
C208	C	1.037416	0.594875	0.825569
C209	C	0.537412	0.094873	0.239024
C210	C	1.037412	0.594873	0.739024
C211	C	0.537433	0.094884	0.674598
C212	C	1.037433	0.594884	1.174598
C213	C	0.537441	0.094884	0.761149
C214	C	1.037441	0.594884	1.261149
C215	C	0.603674	0.028680	0.761160
C216	C	1.103674	0.528680	1.261160
C217	C	0.603669	0.028678	0.674614
C218	C	1.103669	0.528678	1.174614
C219	C	0.570546	0.061779	0.631338
C220	C	1.070546	0.561779	1.131338
C221	C	0.570543	0.061778	0.537493
C222	C	1.070543	0.561778	1.037493
C223	C	0.570543	0.061775	0.462696
C224	C	1.070543	0.561775	0.962696
H225	H	0.423798	0.065399	-0.135908
H226	H	0.923798	0.565399	0.364092
H227	H	0.654110	-0.096023	0.000144
H228	H	1.154110	0.403977	0.500144
H229	H	0.510473	0.121842	0.796376
H230	H	1.010473	0.621842	1.296376
H231	H	0.191892	0.063007	0.211024
H232	H	0.691892	0.563007	0.711024
C233	C	0.659452	-0.811487	0.000074
C234	C	1.159452	-0.311487	0.500074
N235	N	0.695759	-0.837428	0.000068
N236	N	1.195759	-0.337428	0.500068
H237	H	0.510452	0.121826	0.360803
H238	H	1.010452	0.621826	0.860803
H239	H	0.494160	-0.073908	0.000103
H240	H	0.994160	0.426092	0.500103
H241	H	0.510443	0.121826	0.203788
H242	H	1.010443	0.621826	0.703788
C243	C	0.640106	-0.007736	0.808771
C244	C	1.140106	0.492264	1.308771
N245	N	0.667547	-0.035163	0.844631
N246	N	1.167547	0.464837	1.344631
H247	H	-0.050802	0.060518	0.211029
H248	H	0.449198	0.560518	0.711029
C249	C	0.093244	0.062002	0.232451
C250	C	0.593244	0.562002	0.732451
N251	N	0.072369	0.061797	0.294564
N252	N	0.572369	0.561797	0.794564
C253	C	-0.289920	0.058077	0.157514
C254	C	0.210080	0.558077	0.657514
N255	N	-0.310812	0.057855	0.219608
N256	N	0.189188	0.557855	0.719608
C257	C	-0.057997	0.060450	-0.232243
C258	C	0.442003	0.560450	0.267757
N259	N	-0.078874	0.060229	-0.294350
N260	N	0.421126	0.560229	0.205650
H261	H	0.332331	0.064465	-0.135909
H262	H	0.832331	0.564465	0.364091
H263	H	0.653186	-0.187475	0.000117
H264	H	1.153186	0.312525	0.500117
C265	C	0.501058	0.131358	0.627005
C266	C	1.001058	0.631358	1.127005
N267	N	0.473681	0.158854	0.591155
N268	N	0.973681	0.658854	1.091155
C269	C	0.047854	0.061539	-0.232248
C270	C	0.547854	0.561539	0.267752
N271	N	0.068729	0.061755	-0.294359
N272	N	0.568729	0.561755	0.205641
C273	C	0.199103	0.063077	-0.232263
C274	C	0.699103	0.563077	0.267737
N275	N	0.219982	0.063292	-0.294371
N276	N	0.719982	0.563292	0.205629
C277	C	0.640074	-0.007756	0.373188
C278	C	1.140074	0.492244	0.873188
N279	N	0.667504	-0.035198	0.409041
N280	N	1.167504	0.464802	0.909041
H281	H	-0.191252	0.059096	0.136099
H282	H	0.308748	0.559096	0.636099
H283	H	0.695837	-0.334024	0.000120
H284	H	1.195837	0.165976	0.500120
H285	H	0.423795	0.065393	0.136054
H286	H	0.923795	0.565393	0.636054
H287	H	-0.282710	0.058171	-0.135868
H288	H	0.217290	0.558171	0.364132
C289	C	0.325144	0.064376	0.157489
C290	C	0.825144	0.564376	0.657489
N291	N	0.304268	0.064166	0.219600
N292	N	0.804268	0.564166	0.719600
H293	H	-0.191259	0.059096	-0.135876
H294	H	0.308741	0.559096	0.364124
C295	C	0.707433	-0.434414	0.000120
C296	C	1.207433	0.065586	0.500120
N297	N	0.743751	-0.460338	0.000142
N298	N	1.243751	0.039662	0.500142
H299	H	0.647863	-0.711076	0.000090
H300	H	1.147863	-0.211076	0.500090
C301	C	0.705889	-0.585666	0.000087
C302	C	1.205889	-0.085666	0.500087
N303	N	0.742195	-0.611608	0.000088
N304	N	1.242195	-0.111608	0.500088
C305	C	0.474306	-0.785881	0.000046
C306	C	0.974306	-0.285881	0.500046
N307	N	0.437566	-0.801709	0.000034
N308	N	0.937566	-0.301709	0.500034
H309	H	0.100450	0.062069	-0.210844
H310	H	0.600450	0.562069	0.289156
H311	H	0.445258	-0.542413	0.000034
H312	H	0.945258	-0.042413	0.500034
C313	C	0.434117	-0.396627	0.000021
C314	C	0.934117	0.103373	0.500021
N315	N	0.397375	-0.412451	-0.000000
N316	N	0.897375	0.087549	0.500000
C317	C	0.475380	-0.680027	0.000038
C318	C	0.975380	-0.180027	0.500038
N319	N	0.439063	-0.654101	0.000028
N320	N	0.939063	-0.154101	0.500028
C321	C	0.435198	-0.290772	0.000030
C322	C	0.935198	0.209228	0.500030
N323	N	0.398883	-0.264843	0.000023
N324	N	0.898883	0.235157	0.500023
C325	C	0.480556	-0.170837	0.000087
C326	C	0.980556	0.329163	0.500087
N327	N	0.443817	-0.186669	0.000069
N328	N	0.943817	0.313331	0.500069
C329	C	0.640079	-0.007747	0.191452
C330	C	1.140079	0.492253	0.691452
N331	N	0.667517	-0.035179	0.155613
N332	N	1.167517	0.464821	0.655613
C333	C	0.640096	-0.007739	0.627025
C334	C	1.140096	0.492261	1.127025
N335	N	0.667532	-0.035171	0.591181
N336	N	1.167532	0.464829	1.091181
H337	H	0.694301	-0.485260	0.000100
H338	H	1.194301	0.014740	0.500100
H339	H	0.446189	-0.450966	0.000038
H340	H	0.946189	0.049034	0.500038
H341	H	0.040658	0.061455	0.211034
H342	H	0.540658	0.561455	0.711034
