data_functionalizedCrystal
_audit_creation_method	'MofGen! by Chris Wilmer'
_symmetry_space_group_name_H-M	'P1'
_symmetry_Int_Tables_number	1
_symmetry_cell_setting	triclinic
loop_
_symmetry_equiv_pos_as_xyz
  x,y,z
_cell_length_a	9.065218
_cell_length_b	14.519709
_cell_length_c	13.596369
_cell_angle_alpha	89.993066
_cell_angle_beta	89.994623
_cell_angle_gamma	84.348015
loop_
_atom_site_label
_atom_site_type_symbol
_atom_site_fract_x
_atom_site_fract_y
_atom_site_fract_z
O1	O	1.957869	0.135228	-0.081796
O2	O	2.457869	0.635228	0.418204
O3	O	1.528376	0.146320	-0.081798
O4	O	2.028376	0.646320	0.418202
O5	O	1.754510	0.006619	-0.081788
O6	O	2.254510	0.506619	0.418212
O7	O	1.731735	0.274929	-0.081806
O8	O	2.231735	0.774929	0.418194
O9	O	1.754487	0.006611	0.081795
O10	O	2.254487	0.506611	0.581795
O11	O	1.528354	0.146312	0.081785
O12	O	2.028354	0.646312	0.581785
O13	O	1.957846	0.135221	0.081786
O14	O	2.457846	0.635221	0.581786
Zn15	Zn	1.743096	0.140765	0.107758
Zn16	Zn	2.243096	0.640765	0.607758
Zn17	Zn	1.743126	0.140775	-0.107770
Zn18	Zn	2.243126	0.640775	0.392230
O19	O	1.731713	0.274922	0.081777
O20	O	2.231713	0.774922	0.581777
C21	C	1.473398	0.145250	-0.000007
C22	C	1.973398	0.645250	0.499993
C23	C	1.309615	0.142063	-0.000007
C24	C	1.809615	0.642063	0.499993
C25	C	1.753437	-0.027752	0.000003
C26	C	2.253437	0.472248	0.500003
C27	C	1.750257	-0.130157	0.000004
C28	C	2.250257	0.369843	0.500004
C29	C	1.738547	-0.505138	-0.000022
C30	C	2.238547	-0.005138	0.499978
C31	C	1.741799	-0.400807	-0.000014
C32	C	2.241799	0.099193	0.499986
C33	C	1.744402	-0.317651	-0.000008
C34	C	2.244402	0.182349	0.499992
C35	C	1.747654	-0.213313	-0.000003
C36	C	2.247654	0.286687	0.499997
C37	C	2.012824	0.136290	-0.000007
C38	C	2.512824	0.636290	0.499993
C39	C	2.176607	0.139478	-0.000013
C40	C	2.676607	0.639478	0.499987
C41	C	1.732785	0.309293	-0.000017
C42	C	2.232785	0.809293	0.499983
C43	C	1.735966	0.411697	-0.000024
C44	C	2.235966	0.911697	0.499976
N45	N	1.743087	0.140758	0.254850
N46	N	2.243087	0.640758	0.754850
N47	N	1.743147	0.140775	-0.254861
N48	N	2.243147	0.640775	0.245139
C49	C	1.743124	0.140776	0.656141
C50	C	2.243124	0.640776	1.156141
C51	C	1.743109	0.140774	0.544489
C52	C	2.243109	0.640774	1.044489
C53	C	1.743106	0.140768	0.455499
C54	C	2.243106	0.640768	0.955499
C55	C	1.743090	0.140764	0.343840
C56	C	2.243090	0.640764	0.843840
