data_functionalizedCrystal
_audit_creation_method	'MofGen! by Chris Wilmer'
_symmetry_space_group_name_H-M	'P1'
_symmetry_Int_Tables_number	1
_symmetry_cell_setting	triclinic
loop_
_symmetry_equiv_pos_as_xyz
  x,y,z
_cell_length_a	14.044220
_cell_length_b	23.532407
_cell_length_c	12.503572
_cell_angle_alpha	93.496478
_cell_angle_beta	86.164750
_cell_angle_gamma	88.018778
loop_
_atom_site_label
_atom_site_type_symbol
_atom_site_fract_x
_atom_site_fract_y
_atom_site_fract_z
O1	O	1.261903	0.134222	-0.089227
O2	O	0.985982	0.129269	-0.089253
O3	O	1.132262	0.049265	-0.089219
O4	O	1.115623	0.214225	-0.089260
O5	O	1.121261	0.055293	0.089420
O6	O	0.974981	0.135296	0.089386
O7	O	1.250902	0.140249	0.089413
Cu8	Cu	1.111937	0.138323	0.105711
Cu9	Cu	1.124947	0.131195	-0.105551
O10	O	1.104622	0.220253	0.089379
C11	C	0.945188	0.130115	0.000063
C12	C	0.840023	0.123648	0.000054
C13	C	0.647472	0.111828	0.000078
C14	C	0.589407	0.157687	0.000072
C15	C	0.482265	0.151110	0.000085
C16	C	0.754624	0.118404	0.000065
C17	C	1.126337	0.031040	0.000103
C18	C	1.125063	-0.032246	0.000111
C19	C	1.203641	-0.427092	0.000060
C20	C	1.202458	-0.486556	0.000051
O21	O	1.275300	-0.519354	0.000019
N22	N	1.115494	-0.513896	0.000044
C23	C	1.029708	-0.481769	0.000034
O24	O	0.955630	-0.510484	0.000026
C25	C	1.030893	-0.422305	0.000034
C26	C	1.117862	-0.394968	0.000053
C27	C	1.290603	-0.399754	0.000077
C28	C	1.291786	-0.340294	0.000087
C29	C	1.206006	-0.308170	0.000080
C30	C	1.119044	-0.335508	0.000063
C31	C	0.945109	-0.390179	0.000016
C32	C	0.946301	-0.330712	0.000016
C33	C	1.033270	-0.303375	0.000035
C34	C	1.034447	-0.243924	0.000066
N35	N	1.121411	-0.216584	0.000074
C36	C	1.207191	-0.248707	0.000081
C37	C	1.027228	-0.606646	0.000031
C38	C	1.026042	-0.666108	0.000038
C39	C	1.198792	-0.670891	0.000053
C40	C	1.199976	-0.611428	0.000054
C41	C	1.114192	-0.579306	0.000038
C42	C	1.209668	-0.123835	0.000103
C43	C	1.210842	-0.064369	0.000118
C44	C	1.038093	-0.059591	0.000097
C45	C	1.036917	-0.119052	0.000088
C46	C	1.122713	-0.151173	0.000087
O47	O	0.961644	-0.211090	0.000095
O48	O	1.281258	-0.219985	0.000075
C49	C	1.291696	0.139403	0.000094
C50	C	1.396861	0.145869	0.000096
C51	C	1.110547	0.238478	0.000054
C52	C	1.111822	0.301763	0.000039
N53	N	1.102793	0.143337	0.254301
N54	N	1.134098	0.126177	-0.254141
C55	C	1.089342	0.150717	0.473413
C56	C	1.147546	0.118799	0.526753
C57	C	1.140062	0.122905	0.648675
C58	C	1.096825	0.146611	0.351480
H59	H	1.281666	-0.042114	0.000136
C60	C	0.943743	-0.024248	0.000083
H61	H	0.956912	0.015080	0.000078
H62	H	0.904213	-0.030909	0.062368
H63	H	0.911905	-0.035105	-0.062231
C64	C	1.222463	0.077719	0.464759
H65	H	1.257995	0.058231	0.514262
H66	H	1.264420	0.098719	0.420883
H67	H	1.191184	0.050857	0.420895
C68	C	0.605935	0.052119	0.000088
H69	H	0.656454	0.024209	0.000094
H70	H	0.571690	0.045557	-0.062204
H71	H	0.564037	0.049755	0.062395
C72	C	1.014446	0.191801	0.535412
H73	H	1.019187	0.189210	0.610410
H74	H	0.952351	0.181849	0.517057
H75	H	1.025610	0.229698	0.517037
H76	H	0.620163	0.201888	0.000055
H77	H	1.279531	-0.149982	0.000099
H78	H	1.362605	-0.318041	0.000098
C79	C	1.384969	-0.435081	0.000093
H80	H	1.436921	-0.410275	0.000112
H81	H	1.391951	-0.460478	-0.062197
H82	H	1.384261	-0.456275	0.062401
H83	H	0.966098	-0.141310	0.000102
H84	H	1.270794	-0.589174	0.000068
H85	H	0.955222	-0.688360	0.000041
C86	C	1.293150	-0.706235	0.000041
H87	H	1.279983	-0.745564	0.000023
H88	H	1.325010	-0.695384	0.062335
H89	H	1.332661	-0.699570	-0.062264
H90	H	0.957366	-0.580495	0.000027
H91	H	0.874290	-0.412427	-0.000005
H92	H	0.876442	-0.304561	0.000002
