data_functionalizedCrystal
_audit_creation_method	'MofGen! by Chris Wilmer'
_symmetry_space_group_name_H-M	'P1'
_symmetry_Int_Tables_number	1
_symmetry_cell_setting	triclinic
loop_
_symmetry_equiv_pos_as_xyz
  x,y,z
_cell_length_a	10.489746
_cell_length_b	10.489741
_cell_length_c	12.503552
_cell_angle_alpha	86.444084
_cell_angle_beta	93.556370
_cell_angle_gamma	84.540238
loop_
_atom_site_label
_atom_site_type_symbol
_atom_site_fract_x
_atom_site_fract_y
_atom_site_fract_z
O1	O	1.701340	0.172700	0.089248
O2	O	1.330147	0.189584	0.089266
O3	O	1.524190	-0.004455	0.089250
O4	O	1.507298	0.366739	0.089264
O5	O	1.509580	0.010150	-0.089391
O6	O	1.315537	0.204190	-0.089376
O7	O	1.686730	0.187305	-0.089394
Cu8	Cu	1.499800	0.197081	-0.105696
Cu9	Cu	1.517078	0.179808	0.105568
O10	O	1.492688	0.381345	-0.089378
C11	C	1.275311	0.195610	-0.000053
C12	C	1.133682	0.191790	-0.000046
C13	C	1.515609	-0.044684	-0.000070
C14	C	1.511792	-0.186314	-0.000068
C15	C	0.980823	0.066068	-0.000066
C16	C	1.051013	0.136125	-0.088140
C17	C	1.065373	0.121755	0.087986
C18	C	0.951515	0.255113	-0.088219
C19	C	0.965876	0.240719	0.087986
C20	C	1.036016	0.310865	-0.000110
C21	C	1.388328	-0.254458	-0.000054
C22	C	1.439448	-0.339377	-0.088136
C23	C	1.453882	-0.353752	0.087990
C24	C	1.562956	-0.269363	-0.088223
C25	C	1.577379	-0.283734	0.087983
C26	C	1.628587	-0.368625	-0.000121
C27	C	1.741567	0.181279	-0.000073
C28	C	1.883196	0.185099	-0.000072
C29	C	1.501269	0.421573	-0.000055
C30	C	1.505086	0.563202	-0.000051
N31	N	1.487657	0.209229	-0.254288
C32	C	1.547087	0.149776	-0.526726
C33	C	1.469804	0.227099	-0.473395
C34	C	1.479740	0.217154	-0.351473
C35	C	1.537153	0.159720	-0.648659
N36	N	1.529231	0.167650	0.254160
H37	H	0.956094	-0.037426	-0.000158
H38	H	1.286810	-0.204801	-0.000138
H39	H	1.381118	-0.364302	-0.162599
H40	H	1.620709	0.076113	-0.480821
O41	O	1.624013	-0.220464	-0.186981
H42	H	1.626320	-0.114954	-0.186235
H43	H	1.635666	-0.258777	0.162449
O44	O	1.392739	-0.402857	0.186635
H45	H	1.293020	-0.356676	0.186445
O46	O	1.763157	-0.434107	-0.000186
H47	H	1.808096	-0.400091	-0.073373
O48	O	1.372287	0.324700	-0.534194
H49	H	1.379695	0.317311	-0.621804
H50	H	1.114906	0.065396	0.162448
H51	H	0.902139	0.311422	-0.162766
O52	O	1.100595	0.077628	-0.186757
H53	H	1.078953	-0.023919	-0.186575
O54	O	1.068459	0.448063	-0.000162
H55	H	1.022286	0.503146	-0.073347
H56	H	0.928466	0.284834	0.162455
