data_functionalizedCrystal
_audit_creation_method	'MofGen! by Chris Wilmer'
_symmetry_space_group_name_H-M	'P1'
_symmetry_Int_Tables_number	1
_symmetry_cell_setting	triclinic
loop_
_symmetry_equiv_pos_as_xyz
  x,y,z
_cell_length_a	16.109302
_cell_length_b	8.597304
_cell_length_c	15.186229
_cell_angle_alpha	82.296375
_cell_angle_beta	89.994701
_cell_angle_gamma	84.402578
loop_
_atom_site_label
_atom_site_type_symbol
_atom_site_fract_x
_atom_site_fract_y
_atom_site_fract_z
O1	O	1.104799	0.201736	-0.088570
O2	O	1.604799	0.701736	0.411430
O3	O	0.862945	0.226840	-0.090468
O4	O	1.362945	0.726840	0.409532
O5	O	0.988632	-0.014182	-0.072183
O6	O	1.488632	0.485818	0.427817
O7	O	0.979113	0.442757	-0.106854
O8	O	1.479113	0.942757	0.393146
O9	O	0.988623	-0.014185	0.074274
O10	O	1.488623	0.485815	0.574274
O11	O	0.862937	0.226836	0.055990
O12	O	1.362937	0.726836	0.555990
O13	O	1.104791	0.201732	0.057887
O14	O	1.604791	0.701732	0.557887
Zn15	Zn	0.983862	0.214284	0.080192
Zn16	Zn	1.483862	0.714284	0.580192
Zn17	Zn	0.983874	0.214288	-0.112772
Zn18	Zn	1.483874	0.714288	0.387228
O19	O	0.979104	0.442754	0.039603
O20	O	1.479104	0.942754	0.539603
C21	C	0.831958	0.225821	-0.017161
C22	C	1.331958	0.725821	0.482839
C23	C	0.739637	0.222771	-0.016927
C24	C	1.239637	0.722771	0.483073
C25	C	0.527233	0.215719	0.063434
C26	C	1.027233	0.715719	0.563434
C27	C	0.440489	0.212837	0.063649
C28	C	0.940489	0.712837	0.563649
C29	C	0.440509	0.212849	-0.096027
C30	C	0.940509	0.712849	0.403973
C31	C	0.527252	0.215719	-0.096241
C32	C	1.027252	0.715719	0.403759
C33	C	0.570611	0.217162	-0.016509
C34	C	1.070611	0.717162	0.483491
C35	C	0.397124	0.211410	-0.016079
C36	C	0.897124	0.711410	0.483921
C37	C	0.303073	0.208285	-0.015846
C38	C	0.803073	0.708285	0.484154
C39	C	0.664669	0.220284	-0.016741
C40	C	1.164669	0.720284	0.483259
C41	C	0.987605	-0.072654	0.005480
C42	C	1.487605	0.427346	0.505480
C43	C	0.984548	-0.246880	0.018695
C44	C	1.484548	0.253120	0.518695
C45	C	1.135778	0.202751	-0.015422
C46	C	1.635778	0.702751	0.484578
C47	C	1.228099	0.205800	-0.015661
C48	C	1.728099	0.705800	0.484339
C49	C	0.980131	0.501226	-0.038062
C50	C	1.480131	1.001226	0.461938
C51	C	0.983188	0.675451	-0.051283
C52	C	1.483188	1.175451	0.448717
N53	N	0.983861	0.214280	0.211885
N54	N	1.483861	0.714280	0.711885
N55	N	0.983882	0.214280	-0.244464
N56	N	1.483882	0.714280	0.255536
C57	C	1.039534	0.107591	0.445701
C58	C	1.539534	0.607591	0.945701
C59	C	1.039537	0.107588	0.537891
C60	C	1.539537	0.607588	1.037891
C61	C	0.928202	0.320973	0.521713
C62	C	1.428202	0.820973	1.021713
C63	C	0.928196	0.320968	0.429525
C64	C	1.428196	0.820968	0.929525
C65	C	0.983867	0.214279	0.391522
C66	C	1.483867	0.714279	0.891522
C67	C	0.983875	0.214280	0.575899
C68	C	1.483875	0.714280	1.075899
C69	C	0.983878	0.214277	0.675855
C70	C	1.483878	0.714277	1.175855
C71	C	0.983864	0.214280	0.291559
C72	C	1.483864	0.714280	0.791559
H73	H	0.562534	0.216894	0.128357
H74	H	1.062534	0.716894	0.628357
C75	C	0.393518	0.211557	-0.182675
C76	C	0.893518	0.711557	0.317325
C77	C	0.406386	0.347186	-0.241133
C78	C	0.906386	0.847186	0.258867
C79	C	0.363121	0.346049	-0.320967
C80	C	0.863121	0.846049	0.179033
H81	H	0.335627	0.209728	-0.171229
H82	H	0.835627	0.709728	0.328771
H83	H	0.413346	0.120613	-0.208632
H84	H	0.913346	0.620613	0.291368
H85	H	0.386554	0.438106	-0.215181
H86	H	0.886554	0.938106	0.284819
H87	H	0.464269	0.349043	-0.252605
H88	H	0.964269	0.849043	0.247395
H89	H	0.382949	0.255106	-0.346924
H90	H	0.882949	0.755106	0.153076
H91	H	0.305232	0.344217	-0.309512
H92	H	0.805232	0.844217	0.190488
H93	H	0.371852	0.438064	-0.360643
H94	H	0.871852	0.938064	0.139357
H95	H	0.984358	-0.257756	-0.121308
H96	H	1.484358	0.242244	0.378692
C97	C	0.867793	0.436640	0.370547
C98	C	1.367793	0.936640	0.870547
C99	C	0.879689	0.413768	0.281682
C100	C	1.379689	0.913768	0.781682
C101	C	0.824056	0.520273	0.227329
C102	C	1.324056	1.020273	0.727329
H103	H	0.877620	0.541461	0.377589
H104	H	1.377620	1.041461	0.877589
H105	H	0.812151	0.419558	0.386908
H106	H	1.312151	0.919558	0.886908
H107	H	0.935318	0.430863	0.265327
H108	H	1.435318	0.930863	0.765327
H109	H	0.869856	0.308968	0.274613
H110	H	1.369856	0.808968	0.774613
H111	H	0.768414	0.503191	0.243690
H112	H	1.268414	1.003191	0.743690
H113	H	0.833888	0.625087	0.234378
H114	H	1.333888	1.125087	0.734378
H115	H	0.832115	0.504759	0.167029
H116	H	1.332115	1.004759	0.667029
H117	H	1.084863	0.020717	0.414762
H118	H	1.584863	0.520717	0.914762
H119	H	0.405174	0.211662	0.128746
H120	H	0.905174	0.711662	0.628746
H121	H	0.983365	-0.313677	0.088724
H122	H	1.483365	0.186323	0.588724
H123	H	1.084865	0.020711	0.582003
H124	H	1.584865	0.520711	1.082003
H125	H	0.562572	0.216891	-0.161344
H126	H	1.062572	0.716891	0.338656
C127	C	0.867861	0.436744	0.563140
C128	C	1.367861	0.936744	1.063140
C129	C	0.879796	0.413948	0.655468
C130	C	1.379796	0.913948	1.155468
C131	C	0.824234	0.520588	0.693656
C132	C	1.324234	1.020588	1.193656
H133	H	0.812199	0.419777	0.549438
H134	H	1.312199	0.919777	1.049438
H135	H	0.877749	0.541526	0.540124
H136	H	1.377749	1.041526	1.040124
H137	H	0.869902	0.309192	0.678475
H138	H	1.369902	0.809192	1.178475
H139	H	0.935447	0.430929	0.669195
H140	H	1.435447	0.930929	1.169195
H141	H	0.834122	0.625369	0.670641
H142	H	1.334122	1.125369	1.170641
H143	H	0.768575	0.503611	0.679948
H144	H	1.268575	1.003611	1.179948
H145	H	0.832329	0.505145	0.756303
H146	H	1.332329	1.005145	1.256303
