data_functionalizedCrystal
_audit_creation_method	'MofGen! by Chris Wilmer'
_symmetry_space_group_name_H-M	'P1'
_symmetry_Int_Tables_number	1
_symmetry_cell_setting	triclinic
loop_
_symmetry_equiv_pos_as_xyz
  x,y,z
_cell_length_a	19.077105
_cell_length_b	19.805405
_cell_length_c	19.805398
_cell_angle_alpha	90.030326
_cell_angle_beta	87.690718
_cell_angle_gamma	92.277359
loop_
_atom_site_label
_atom_site_type_symbol
_atom_site_fract_x
_atom_site_fract_y
_atom_site_fract_z
Zn1	Zn	1.075917	0.311109	-0.424211
Zn2	Zn	1.575917	0.811109	0.075789
Zn3	Zn	1.075842	0.424296	-0.311016
Zn4	Zn	1.575842	0.924296	0.188984
Zn5	Zn	0.958235	0.306575	-0.306496
Zn6	Zn	1.458235	0.806575	0.193504
Zn7	Zn	0.958184	0.419705	-0.419625
Zn8	Zn	1.458184	0.919705	0.080375
O9	O	1.017045	0.365421	-0.365337
O10	O	1.517045	0.865421	0.134663
O11	O	1.174397	0.329942	-0.413006
O12	O	1.674397	0.829942	0.086994
O13	O	1.060231	0.408704	-0.215700
O14	O	1.560231	0.908704	0.284300
O15	O	0.973899	0.212462	-0.322139
O16	O	1.473899	0.712462	0.177861
O17	O	1.174342	0.413100	-0.329843
O18	O	1.674342	0.913100	0.170157
O19	O	1.060359	0.215793	-0.408624
O20	O	1.560359	0.715793	0.091376
O21	O	0.973826	0.322215	-0.212379
O22	O	1.473826	0.822215	0.287621
O23	O	0.859738	0.317763	-0.317692
O24	O	1.359738	0.817763	0.182308
O25	O	0.973812	0.405275	-0.514950
O26	O	1.473812	0.905275	-0.014950
O27	O	0.859701	0.400879	-0.400807
O28	O	1.359701	0.900879	0.099193
O29	O	1.060310	0.325490	-0.518320
O30	O	1.560310	0.825490	-0.018320
O31	O	1.060181	0.518401	-0.325396
O32	O	1.560181	1.018401	0.174604
O33	O	0.973739	0.515028	-0.405190
O34	O	1.473739	1.015028	0.094810
C35	C	0.834182	0.358332	-0.358262
C36	C	1.334182	0.858332	0.141738
C37	C	0.755953	0.355315	-0.355251
C38	C	1.255953	0.855315	0.144749
C39	C	1.016965	0.541274	-0.365301
C40	C	1.516965	1.041274	0.134699
C41	C	1.016996	0.616507	-0.365311
C42	C	1.516996	1.116507	0.134689
C43	C	1.017063	0.365376	-0.541881
C44	C	1.517063	0.865376	-0.041881
C45	C	1.017071	0.365357	-0.617113
C46	C	1.517071	0.865357	-0.117113
C47	C	0.719199	0.397237	-0.397042
C48	C	1.219199	0.897237	0.102958
C49	C	0.645694	0.394394	-0.394217
C50	C	1.145694	0.894394	0.105783
C51	C	0.608944	0.349631	-0.349596
C52	C	1.108944	0.849631	0.150404
C53	C	0.645703	0.307705	-0.307804
C54	C	1.145703	0.807705	0.192196
C55	C	0.719206	0.310545	-0.310633
C56	C	1.219206	0.810545	0.189367
C57	C	0.389113	0.336486	-0.336504
C58	C	0.889113	0.836486	0.163496
C59	C	0.315604	0.333650	-0.333676
C60	C	0.815604	0.833650	0.166324
C61	C	0.315600	0.420338	-0.420091
C62	C	0.815600	0.920338	0.079909
C63	C	0.389105	0.423178	-0.422914
C64	C	0.889105	0.923178	0.077086
C65	C	0.425857	0.381249	-0.381123
C66	C	0.925857	0.881249	0.118877
N67	N	0.533811	0.346725	-0.346705
N68	N	1.033811	0.846725	0.153295
N69	N	0.500990	0.384152	-0.384018
N70	N	1.000990	0.884152	0.115982
C71	C	1.200621	0.372539	-0.372440
C72	C	1.700621	0.872539	0.127560
C73	C	1.278850	0.375572	-0.375467
C74	C	1.778850	0.875572	0.124533
C75	C	1.017143	0.188882	-0.365389
C76	C	1.517143	0.688882	0.134611
C77	C	1.017185	0.113652	-0.365411
C78	C	1.517185	0.613652	0.134589
C79	C	1.062050	0.653587	-0.323809
C80	C	1.562050	1.153587	0.176191
C81	C	1.062080	0.724277	-0.323826
C82	C	1.562080	1.224277	0.176174
C83	C	1.017052	0.757885	-0.365340
C84	C	1.517052	1.257885	0.134660
C85	C	0.971995	0.720800	-0.406847
C86	C	1.471995	1.220800	0.093153
C87	C	0.971969	0.650112	-0.406834
C88	C	1.471969	1.150112	0.093166
C89	C	0.972099	1.005877	-0.406901
C90	C	1.472099	1.505877	0.093099
C91	C	0.972127	1.076571	-0.406909
C92	C	1.472127	1.576571	0.093091
C93	C	1.062210	1.080042	-0.323893
C94	C	1.562210	1.580042	0.176107
C95	C	1.062184	1.009354	-0.323880
C96	C	1.562184	1.509354	0.176120
C97	C	1.017130	0.972275	-0.365389
C98	C	1.517130	1.472275	0.134611
C99	C	1.017100	0.895626	-0.365372
C100	C	1.517100	1.395626	0.134628
C101	C	1.017078	0.834533	-0.365354
C102	C	1.517078	1.334533	0.134646
C103	C	1.062173	0.410288	-1.080635
C104	C	1.562173	0.910288	-0.580635
C105	C	1.062154	0.410306	-1.009946
C106	C	1.562154	0.910306	-0.509946
C107	C	1.017159	0.365284	-0.972878
C108	C	1.517159	0.865284	-0.472878
C109	C	0.972175	0.320246	-1.006503
C110	C	1.472175	0.820246	-0.506503
C111	C	0.972192	0.320232	-1.077191
C112	C	1.472192	0.820232	-0.577191
C113	C	0.972107	0.320301	-0.721427
C114	C	1.472107	0.820301	-0.221427
C115	C	0.972096	0.320317	-0.650735
C116	C	1.472096	0.820317	-0.150735
C117	C	1.062069	0.410375	-0.654182
C118	C	1.562069	0.910375	-0.154182
C119	C	1.062086	0.410361	-0.724870
C120	C	1.562086	0.910361	-0.224870
C121	C	1.017100	0.365326	-0.758489
C122	C	1.517100	0.865326	-0.258489
C123	C	1.017121	0.365308	-0.835138
C124	C	1.517121	0.865308	-0.335138
C125	C	1.017141	0.365298	-0.896231
C126	C	1.517141	0.865298	-0.396231
C127	C	1.017066	0.365419	-0.189482
C128	C	1.517066	0.865419	0.310518
C129	C	1.017195	0.365253	-0.114255
C130	C	1.517195	0.865253	0.385745
H131	H	0.749116	0.433690	-0.433375
H132	H	1.249116	0.933690	0.066625
O133	O	0.279865	0.460961	-0.460759
O134	O	0.779865	0.960961	0.039241
C135	C	0.237366	0.420837	-0.502896
C136	C	0.737366	0.920837	-0.002896
H137	H	0.259543	0.368391	-0.508024
H138	H	0.759543	0.868391	-0.008024
H139	H	0.181654	0.416325	-0.479828
H140	H	0.681654	0.916325	0.020172
C141	C	0.209008	0.518362	-0.566859
C142	C	0.709008	1.018362	-0.066859
C143	C	0.236249	0.453949	-0.573162
C144	C	0.736249	0.953949	-0.073162
H145	H	0.208315	0.538788	-0.610202
H146	H	0.708315	1.038788	-0.110202
H147	H	0.237638	0.545396	-0.538469
H148	H	0.737638	1.045396	-0.038469
H149	H	0.162583	0.514594	-0.547633
H150	H	0.662583	1.014594	-0.047633
H151	H	0.282675	0.457719	-0.592379
H152	H	0.782675	0.957719	-0.092379
H153	H	0.207626	0.426917	-0.601557
H154	H	0.707626	0.926917	-0.101557
O155	O	0.424699	0.295731	-0.295843
O156	O	0.924699	0.795731	0.204157
C157	C	0.376498	0.255604	-0.255867
C158	C	0.876498	0.755604	0.244133
H159	H	0.324093	0.281305	-0.251452
H160	H	0.824093	0.781305	0.248548
H161	H	0.368703	0.203933	-0.280452
H162	H	0.868703	0.703933	0.219548
C163	C	0.469529	0.215285	-0.190375
C164	C	0.969529	0.715285	0.309625
C165	C	0.405167	0.246855	-0.184948
C166	C	0.905167	0.746855	0.315052
H167	H	0.487214	0.209885	-0.146630
H168	H	0.987214	0.709885	0.353370
H169	H	0.502004	0.242317	-0.217309
H170	H	1.002004	0.742317	0.282691
H171	H	0.463025	0.172229	-0.210865
H172	H	0.963025	0.672229	0.289135
H173	H	0.411674	0.289913	-0.164466
H174	H	0.911674	0.789913	0.335534
H175	H	0.372694	0.219829	-0.158009
H176	H	0.872694	0.719829	0.341991
H177	H	0.935536	0.283591	-0.976317
H178	H	1.435536	0.783591	-0.476317
H179	H	0.615775	0.271255	-0.271475
H180	H	1.115775	0.771255	0.228525
H181	H	1.098697	0.447047	-0.626801
H182	H	1.598697	0.947047	-0.126801
O183	O	0.928478	0.276419	-1.109746
O184	O	1.428478	0.776419	-0.609746
C185	C	0.888747	0.236695	-1.061873
C186	C	1.388747	0.736695	-0.561873
H187	H	0.917566	0.235476	-1.012598
H188	H	1.417566	0.735476	-0.512598
H189	H	0.835280	0.259412	-1.052283
H190	H	1.335280	0.759412	-0.552283
C191	C	0.843250	0.165758	-1.149617
C192	C	1.343250	0.665758	-0.649617
C193	C	0.878649	0.164257	-1.089098
C194	C	1.378649	0.664257	-0.589098
H195	H	0.837018	0.121076	-1.166411
H196	H	1.337018	0.621076	-0.666411
H197	H	0.870015	0.192522	-1.181871
H198	H	1.370015	0.692522	-0.681871
H199	H	0.798698	0.184692	-1.141617
H200	H	1.298698	0.684692	-0.641617
H201	H	0.923204	0.145331	-1.097100
H202	H	1.423204	0.645331	-0.597100
H203	H	0.851891	0.137488	-1.056846
H204	H	1.351891	0.637488	-0.556846
H205	H	0.749130	0.276404	-0.276606
H206	H	1.249130	0.776404	0.223394
H207	H	0.935283	0.619922	-0.440630
H208	H	1.435283	1.119922	0.059370
O209	O	1.105905	0.454088	-1.116536
O210	O	1.605905	0.954088	-0.616536
C211	C	1.145612	0.493830	-1.071701
C212	C	1.645612	0.993830	-0.571701
H213	H	1.116769	0.495065	-1.020199
H214	H	1.616769	0.995065	-0.520199
H215	H	1.199077	0.471119	-1.066253
H216	H	1.699077	0.971119	-0.566253
C217	C	1.191147	0.564737	-1.162908
C218	C	1.691147	1.064737	-0.662908
C219	C	1.155719	0.566259	-1.099655
C220	C	1.655719	1.066259	-0.599655
H221	H	1.197385	0.609414	-1.180153
H222	H	1.697385	1.109414	-0.680153
H223	H	1.164398	0.537961	-1.193116
H224	H	1.664398	1.037961	-0.693116
H225	H	1.235698	0.545808	-1.158360
H226	H	1.735698	1.045808	-0.658360
H227	H	1.111166	0.585180	-1.104206
H228	H	1.611166	1.085180	-0.604206
H229	H	1.182461	0.593040	-1.069449
H230	H	1.682461	1.093040	-0.569449
H231	H	0.615773	0.428532	-0.428247
H232	H	1.115773	0.928532	0.071753
O233	O	0.928157	0.753366	-0.447140
O234	O	1.428157	1.253366	0.052860
C235	C	0.858014	0.733455	-0.429566
C236	C	1.358014	1.233455	0.070434
H237	H	0.856556	0.682094	-0.403480
H238	H	1.356556	1.182094	0.096520
H239	H	0.834346	0.772365	-0.393841
H240	H	1.334346	1.272365	0.106159
C241	C	0.817123	0.791604	-0.525906
C242	C	1.317123	1.291604	-0.025906
C243	C	0.815333	0.728519	-0.493872
C244	C	1.315333	1.228519	0.006128
H245	H	0.790794	0.788562	-0.565572
H246	H	1.290794	1.288562	-0.065572
H247	H	0.864380	0.805021	-0.537745
H248	H	1.364380	1.305021	-0.037745
H249	H	0.797402	0.824022	-0.496128
H250	H	1.297402	1.324022	0.003872
H251	H	0.835062	0.696104	-0.523646
H252	H	1.335062	1.196104	-0.023646
H253	H	0.768079	0.715097	-0.482040
H254	H	1.268079	1.215097	0.017960
H255	H	1.098714	0.626228	-0.290000
H256	H	1.598714	1.126228	0.210000
O257	O	1.105749	0.454121	-0.977257
O258	O	1.605749	0.954121	-0.477257
C259	C	1.065652	0.496287	-0.934797
C260	C	1.565652	0.996287	-0.434797
H261	H	1.010221	0.498317	-0.953957
H262	H	1.510221	0.998317	-0.453957
H263	H	1.063227	0.475282	-0.881135
H264	H	1.563227	0.975282	-0.381135
C265	C	1.168085	0.565486	-0.911488
C266	C	1.668085	1.065486	-0.411488
C267	C	1.100005	0.567984	-0.935025
C268	C	1.600005	1.067984	-0.435025
H269	H	1.189276	0.609711	-0.911626
H270	H	1.689276	1.109711	-0.411626
H271	H	1.195100	0.537076	-0.940092
H272	H	1.695100	1.037076	-0.440092
H273	H	1.166055	0.547978	-0.866773
H274	H	1.666055	1.047978	-0.366773
H275	H	1.102036	0.585483	-0.979742
H276	H	1.602036	1.085483	-0.479742
H277	H	1.072991	0.596398	-0.906428
H278	H	1.572991	1.096398	-0.406428
H279	H	1.098728	0.447021	-0.755047
H280	H	1.598728	0.947021	-0.255047
H281	H	0.419022	0.459630	-0.459247
H282	H	0.919022	0.959630	0.040753
H283	H	0.935453	0.283653	-0.620556
H284	H	1.435453	0.783653	-0.120556
H285	H	0.285684	0.297191	-0.297345
H286	H	0.785684	0.797191	0.202655
O287	O	0.928393	0.276486	-0.753973
O288	O	1.428393	0.776486	-0.253973
C289	C	0.888668	0.236763	-0.706095
C290	C	1.388668	0.736763	-0.206095
H291	H	0.917489	0.235550	-0.656821
H292	H	1.417489	0.735550	-0.156821
H293	H	0.835198	0.259475	-0.696505
H294	H	1.335198	0.759475	-0.196505
C295	C	0.843173	0.165816	-0.793832
C296	C	1.343173	0.665816	-0.293832
C297	C	0.878575	0.164322	-0.733314
C298	C	1.378575	0.664322	-0.233314
H299	H	0.836944	0.121132	-0.810622
H300	H	1.336944	0.621132	-0.310622
H301	H	0.869934	0.192580	-0.826089
H302	H	1.369934	0.692580	-0.326089
H303	H	0.798619	0.184746	-0.785832
H304	H	1.298619	0.684746	-0.285832
H305	H	0.923132	0.145400	-0.741317
H306	H	1.423132	0.645400	-0.241317
H307	H	0.851821	0.137553	-0.701059
H308	H	1.351821	0.637553	-0.201059
H309	H	0.935414	0.975694	-0.440698
H310	H	1.435414	1.475694	0.059302
O311	O	1.105866	0.760192	-0.283445
O312	O	1.605866	1.260192	0.216555
C313	C	1.145612	0.715371	-0.246810
C314	C	1.645612	1.215371	0.253190
H315	H	1.116765	0.663891	-0.243320
H316	H	1.616765	1.163891	0.256680
H317	H	1.199046	0.709859	-0.273700
H318	H	1.699046	1.209859	0.226300
C319	C	1.191246	0.806623	-0.179465
C320	C	1.691246	1.306623	0.320535
C321	C	1.155812	0.743397	-0.175174
C322	C	1.655812	1.243397	0.324826
H323	H	1.197541	0.823912	-0.135278
H324	H	1.697541	1.323912	0.364722
H325	H	1.164470	0.836821	-0.204148
H326	H	1.664470	1.336821	0.295852
H327	H	1.235770	0.802022	-0.201876
H328	H	1.735770	1.302022	0.298124
H329	H	1.111285	0.748001	-0.152771
H330	H	1.611285	1.248001	0.347229
H331	H	1.182580	0.713201	-0.150485
H332	H	1.682580	1.213201	0.349515
H333	H	1.098897	1.110240	-0.290097
H334	H	1.598897	1.610240	0.209903
H335	H	1.098848	0.981992	-0.290072
H336	H	1.598848	1.481992	0.209928
H337	H	0.935460	1.103932	-0.440721
H338	H	1.435460	1.603932	0.059279
