data_functionalizedCrystal
_audit_creation_method	'MofGen! by Chris Wilmer'
_symmetry_space_group_name_H-M	'P1'
_symmetry_Int_Tables_number	1
_symmetry_cell_setting	triclinic
loop_
_symmetry_equiv_pos_as_xyz
  x,y,z
_cell_length_a	16.109298
_cell_length_b	14.971507
_cell_length_c	14.048226
_cell_angle_alpha	89.994195
_cell_angle_beta	89.997285
_cell_angle_gamma	96.458575
loop_
_atom_site_label
_atom_site_type_symbol
_atom_site_fract_x
_atom_site_fract_y
_atom_site_fract_z
O1	O	0.108426	-1.186776	0.079173
O2	O	0.608426	-0.686776	0.579173
O3	O	0.121383	-0.926360	0.079169
O4	O	0.621383	-0.426360	0.579169
O5	O	-0.006117	-1.063723	0.079178
O6	O	0.493883	-0.563723	0.579178
O7	O	0.235926	-1.049412	0.079164
O8	O	0.735926	-0.549412	0.579164
O9	O	-0.006116	-1.063710	-0.079143
O10	O	0.493884	-0.563710	0.420857
O11	O	0.121384	-0.926347	-0.079153
O12	O	0.621384	-0.426347	0.420847
O13	O	0.108427	-1.186763	-0.079148
O14	O	0.608427	-0.686763	0.420852
Zn15	Zn	0.114906	-1.056553	-0.104287
Zn16	Zn	0.614906	-0.556553	0.395713
Zn17	Zn	0.114904	-1.056570	0.104308
Zn18	Zn	0.614904	-0.556570	0.604308
O19	O	0.235928	-1.049399	-0.079157
O20	O	0.735928	-0.549399	0.420843
C21	C	0.120801	-0.893030	0.000007
C22	C	0.620801	-0.393030	0.500007
C23	C	0.119055	-0.793736	0.000006
C24	C	0.619055	-0.293736	0.500006
C25	C	0.187297	-0.355354	0.000006
C26	C	0.687297	0.144646	0.500006
C27	C	0.188931	-0.448652	0.000011
C28	C	0.688931	0.051348	0.500011
C29	C	0.114020	-0.505981	0.000012
C30	C	0.614020	-0.005981	0.500012
C31	C	0.037470	-0.470008	0.000017
C32	C	0.537470	0.029992	0.500017
C33	C	0.035837	-0.376712	0.000018
C34	C	0.535837	0.123288	0.500018
C35	C	0.040878	-0.664466	0.000012
C36	C	0.540878	-0.164466	0.500012
C37	C	0.042511	-0.757769	0.000008
C38	C	0.542511	-0.257769	0.500008
C39	C	0.193973	-0.736406	0.000004
C40	C	0.693973	-0.236406	0.500004
C41	C	0.192340	-0.643110	0.000006
C42	C	0.692340	-0.143110	0.500006
C43	C	0.115789	-0.607144	0.000009
C44	C	0.615789	-0.107144	0.500009
C45	C	-0.037092	-1.063137	0.000021
C46	C	0.462908	-0.563137	0.500021
C47	C	-0.129390	-1.061401	0.000032
C48	C	0.370610	-0.561401	0.500032
C49	C	-0.428467	-1.055741	0.086313
C50	C	0.071533	-0.555741	0.586313
C51	C	-0.341745	-1.057385	0.086320
C52	C	0.158255	-0.557385	0.586320
C53	C	-0.341729	-1.057384	-0.086291
C54	C	0.158271	-0.557384	0.413709
C55	C	-0.428450	-1.055747	-0.086297
C56	C	0.071550	-0.555747	0.413703
C57	C	-0.471816	-1.054921	0.000008
C58	C	0.028184	-0.554921	0.500008
C59	C	-0.298373	-1.058202	0.000021
C60	C	0.201627	-0.558202	0.500021
C61	C	-0.204345	-1.059984	0.000027
C62	C	0.295655	-0.559984	0.500027
C63	C	-0.565851	-1.053140	0.000002
C64	C	-0.065851	-0.553140	0.500002
C65	C	0.266903	-1.049985	0.000002
C66	C	0.766903	-0.549985	0.500002
C67	C	0.359200	-1.051722	-0.000003
C68	C	0.859200	-0.551722	0.499997
C69	C	0.109009	-0.220093	0.000011
C70	C	0.609009	0.279907	0.500011
C71	C	0.110753	-0.319387	0.000008
C72	C	0.610753	0.180613	0.500008
N73	N	0.114906	-1.056548	-0.246648
N74	N	0.614906	-0.556548	0.253352
C75	C	0.064384	-1.002354	-0.703513
C76	C	0.564384	-0.502354	-0.203513
C77	C	0.064381	-1.002350	-0.603856
C78	C	0.564381	-0.502350	-0.103856
C79	C	0.114897	-1.056571	-0.554018
C80	C	0.614897	-0.556571	-0.054018
C81	C	0.165413	-1.110806	-0.603843
C82	C	0.665413	-0.610806	-0.103843
C83	C	0.165411	-1.110813	-0.703499
C84	C	0.665411	-0.610813	-0.203499
C85	C	0.165416	-1.110785	-0.396129
C86	C	0.665416	-0.610785	0.103871
C87	C	0.165420	-1.110776	-0.296466
C88	C	0.665420	-0.610776	0.203534
C89	C	0.064387	-1.002322	-0.296486
C90	C	0.564387	-0.502322	0.203514
C91	C	0.064384	-1.002329	-0.396142
C92	C	0.564384	-0.502329	0.103858
C93	C	0.114901	-1.056563	-0.445960
C94	C	0.614901	-0.556563	0.054040
N95	N	0.114897	-1.056582	0.246669
N96	N	0.614897	-0.556582	0.746669
H97	H	0.251261	-0.477932	0.000018
H98	H	0.751261	0.022068	0.500018
H99	H	0.206558	-1.154924	-0.255891
H100	H	0.706558	-0.654924	0.244109
H101	H	-0.021457	-0.635186	0.000019
H102	H	0.478543	-0.135186	0.500019
Cl103	Cl	-0.287252	-1.058420	0.194823
Cl104	Cl	0.212748	-0.558420	0.694823
H105	H	0.023256	-0.958161	-0.255919
H106	H	0.523256	-0.458161	0.244081
H107	H	-0.463773	-1.055068	0.156588
H108	H	0.036227	-0.555068	0.656588
H109	H	-0.306410	-1.058055	-0.156557
H110	H	0.193590	-0.558055	0.343443
H111	H	-0.023524	-0.516693	0.000023
H112	H	0.476476	-0.016693	0.500023
H113	H	-0.463747	-1.055081	-0.156581
H114	H	0.036253	-0.555081	0.343419
Cl115	Cl	0.281477	-0.283292	-0.000003
Cl116	Cl	0.781477	0.216708	0.499997
Cl117	Cl	0.000878	-0.934182	-0.766157
Cl118	Cl	0.500878	-0.434182	-0.266157
H119	H	0.253339	-0.596435	-0.000001
H120	H	0.753339	-0.096435	0.499999
Cl121	Cl	0.228916	-1.178974	-0.541190
Cl122	Cl	0.728916	-0.678974	-0.041190
Cl123	Cl	0.000901	-0.934146	-0.541231
Cl124	Cl	0.500901	-0.434146	-0.041231
Cl125	Cl	0.290207	-0.781621	-0.000010
Cl126	Cl	0.790207	-0.281621	0.499990
Cl127	Cl	0.000884	-0.934157	-0.458794
Cl128	Cl	0.500884	-0.434157	0.041206
H129	H	-0.018488	-0.804444	0.000017
H130	H	0.481512	-0.304444	0.500017
Cl131	Cl	0.228921	-1.178969	-0.458756
Cl132	Cl	0.728921	-0.678969	0.041244
H133	H	0.206544	-1.154972	-0.744059
H134	H	0.706544	-0.654972	-0.244059
H135	H	-0.026493	-0.347429	0.000022
H136	H	0.473507	0.152571	0.500022
