data_functionalizedCrystal
_audit_creation_method	'MofGen! by Chris Wilmer'
_symmetry_space_group_name_H-M	'P1'
_symmetry_Int_Tables_number	1
_symmetry_cell_setting	triclinic
loop_
_symmetry_equiv_pos_as_xyz
  x,y,z
_cell_length_a	6.817900
_cell_length_b	12.000032
_cell_length_c	10.797392
_cell_angle_alpha	86.192356
_cell_angle_beta	82.358088
_cell_angle_gamma	119.142083
loop_
_atom_site_label
_atom_site_type_symbol
_atom_site_fract_x
_atom_site_fract_y
_atom_site_fract_z
V1	V	-4.044191	-0.172148	0.390992
O2	O	-3.942087	0.013101	0.381385
O3	O	-4.081461	-0.345984	0.390399
O4	O	-3.964215	-0.167381	0.560568
O5	O	-4.060145	-0.166738	0.210039
V6	V	-4.520810	-0.150240	0.369096
O7	O	-4.320595	-0.220204	0.439023
O8	O	-4.694604	-0.102184	0.321064
O9	O	-4.260334	0.023596	0.369688
O10	O	-4.740312	-0.335489	0.378703
O11	O	-4.622254	-0.155649	0.550049
O12	O	-4.377580	-0.155007	0.199520
C13	C	-3.948325	-0.388428	0.384768
C14	C	-4.059874	-0.530528	0.385414
C15	C	-3.934557	-0.587766	0.379713
C16	C	-4.049845	-0.734634	0.380380
C17	C	-3.798764	-0.160600	0.601833
C18	C	-3.815225	-0.157853	0.740476
C19	C	-3.997531	-0.162617	0.808395
C20	C	-4.014548	-0.159778	0.951689
C21	C	-4.056816	0.066033	0.375316
C22	C	-3.924504	0.208132	0.374679
C23	C	-4.213342	-0.161795	1.158248
C24	C	-4.196875	-0.164543	1.019606
H25	H	-4.252510	-0.590252	0.390776
H26	H	-4.141004	-0.168790	0.760456
H27	H	-3.871048	-0.153588	0.999620
H28	H	-4.340374	-0.170729	0.971677
H29	H	-3.671738	-0.151664	0.788411
H30	H	-3.741916	-0.528039	0.374331
H31	H	-4.242490	-0.794353	0.385743
H32	H	-3.731855	-0.732148	0.369299
