data_functionalizedCrystal
_audit_creation_method	'MofGen! by Chris Wilmer'
_symmetry_space_group_name_H-M	'P1'
_symmetry_Int_Tables_number	1
_symmetry_cell_setting	triclinic
loop_
_symmetry_equiv_pos_as_xyz
  x,y,z
_cell_length_a	18.050591
_cell_length_b	18.050588
_cell_length_c	21.295412
_cell_angle_alpha	90.025584
_cell_angle_beta	90.025510
_cell_angle_gamma	90.022644
loop_
_atom_site_label
_atom_site_type_symbol
_atom_site_fract_x
_atom_site_fract_y
_atom_site_fract_z
Zn1	Zn	-1.135297	0.295811	-0.356088
Zn2	Zn	-1.135201	0.420004	-0.250824
Zn3	Zn	-1.011113	0.295817	-0.250816
Zn4	Zn	-1.011061	0.419949	-0.356039
O5	O	-1.073168	0.357895	-0.303442
O6	O	-1.239209	0.312306	-0.342148
O7	O	-1.118722	0.403556	-0.162733
O8	O	-1.027648	0.191892	-0.264799
O9	O	-1.239138	0.403550	-0.264811
O10	O	-1.118885	0.191887	-0.342141
O11	O	-1.027555	0.312317	-0.162728
O12	O	-0.907181	0.312263	-0.264751
O13	O	-1.027560	0.403456	-0.444135
O14	O	-0.907143	0.403462	-0.342057
O15	O	-1.118835	0.312253	-0.444171
O16	O	-1.118672	0.523921	-0.264763
O17	O	-1.027467	0.523881	-0.342064
C18	C	-0.880216	0.357858	-0.303398
C19	C	-0.797670	0.357860	-0.303395
C20	C	-0.598218	0.308198	-0.261443
C21	C	-0.548797	0.375933	-0.245951
C22	C	-0.646540	0.357875	-0.303416
C23	C	-0.548880	0.290156	-0.318900
C24	C	-0.500555	0.357883	-0.303436
C25	C	-0.598205	0.425645	-0.287894
C26	C	-0.598292	0.339822	-0.360870
C27	C	-0.548893	0.407604	-0.345399
C28	C	-0.730638	0.357869	-0.303403
C29	C	-0.416458	0.357896	-0.303449
C30	C	-1.073202	0.357847	-0.467632
C31	C	-1.073217	0.357827	-0.537600
C32	C	-1.073074	0.550848	-0.303423
C33	C	-1.073101	0.633393	-0.303436
C34	C	-0.266873	0.357921	-0.303475
C35	C	-0.349419	0.357899	-0.303459
C36	C	-1.073283	0.164190	-0.303475
C37	C	-1.073332	0.081644	-0.303488
C38	C	-1.023582	0.882224	-0.345473
C39	C	-1.091299	0.832762	-0.360929
C40	C	-1.073256	0.930514	-0.303471
C41	C	-1.005466	0.832894	-0.288027
C42	C	-1.073176	0.784529	-0.303455
C43	C	-1.141009	0.882139	-0.318957
C44	C	-1.055131	0.882275	-0.246028
C45	C	-1.122894	0.832836	-0.261463
C46	C	-1.073300	1.014612	-0.303482
C47	C	-1.073139	0.700432	-0.303445
C48	C	-1.120814	0.310220	-1.037078
C49	C	-1.120809	0.310238	-0.971336
C50	C	-1.073281	0.357729	-0.938440
C51	C	-1.025769	0.405219	-0.971292
C52	C	-1.025782	0.405205	-1.037033
N53	N	-1.008251	0.363435	-0.835203
N54	N	-1.008241	0.363445	-0.772752
C55	C	-1.073242	0.357775	-0.740365
N56	N	-1.138254	0.352082	-0.772789
N57	N	-1.138263	0.352069	-0.835247
C58	C	-1.073263	0.357750	-0.867155
C59	C	-1.120748	0.310311	-0.636235
C60	C	-1.120744	0.310334	-0.570492
C61	C	-1.025698	0.405312	-0.570449
C62	C	-1.025709	0.405293	-0.636192
C63	C	-1.073233	0.357788	-0.669081
C64	C	-1.073177	0.357890	-0.139890
C65	C	-1.073306	0.357701	-0.069923
H66	H	-0.527372	0.449665	-0.380903
C67	C	-0.627629	0.319192	-0.426502
H68	H	-0.656558	0.358858	-0.442555
H69	H	-0.657347	0.275884	-0.423611
H70	H	-0.587058	0.310120	-0.453843
H71	H	-1.106600	0.811015	-0.409500
C72	C	-0.966955	0.911529	-0.393498
H73	H	-0.979931	0.894574	-0.434288
H74	H	-0.918948	0.893946	-0.382935
H75	H	-0.967067	0.964154	-0.392908
C76	C	-1.173061	0.257998	-0.935199
H77	H	-1.201360	0.229700	-0.964203
H78	H	-1.205401	0.286407	-0.909550
H79	H	-1.144648	0.225644	-0.909559
H80	H	-0.987073	0.443888	-0.944504
H81	H	-0.527057	0.391210	-0.197372
C82	C	-1.173006	0.258103	-0.534363
H83	H	-1.201304	0.229806	-0.563368
H84	H	-1.205347	0.286519	-0.508720
H85	H	-1.144603	0.225747	-0.508717
H86	H	-0.987019	0.443954	-0.662934
H87	H	-0.987003	0.443983	-0.543666
H88	H	-1.159515	0.271541	-1.063853
C89	C	-0.627347	0.503036	-0.270134
H90	H	-0.679977	0.502554	-0.270214
H91	H	-0.610064	0.538353	-0.299769
H92	H	-0.609989	0.515940	-0.229452
C93	C	-0.973515	0.457431	-1.073163
H94	H	-0.945205	0.485717	-1.044159
H95	H	-1.001908	0.489786	-1.098812
H96	H	-0.941174	0.429004	-1.098804
H97	H	-1.198320	0.903682	-0.332069
C98	C	-0.519612	0.212788	-0.336586
H99	H	-0.536510	0.177553	-0.306715
H100	H	-0.466991	0.213453	-0.336844
H101	H	-0.537295	0.199621	-0.377107
C102	C	-1.173023	0.258065	-0.672419
H103	H	-1.166219	0.264849	-0.716277
H104	H	-1.222915	0.268942	-0.661658
H105	H	-1.162174	0.208166	-0.661650
C106	C	-1.179656	0.803709	-0.213475
H107	H	-1.154917	0.774779	-0.182674
H108	H	-1.215438	0.774027	-0.234417
H109	H	-1.203624	0.844353	-0.193723
C110	C	-0.627485	0.251515	-0.213448
H111	H	-0.610536	0.264469	-0.172652
H112	H	-0.609872	0.203528	-0.224039
H113	H	-0.680111	0.251594	-0.214035
C114	C	-1.034433	0.911685	-0.180435
H115	H	-0.986255	0.894857	-0.169529
H116	H	-1.069197	0.894042	-0.150486
H117	H	-1.035056	0.964309	-0.180830
H118	H	-0.948171	0.811258	-0.274971
