data_functionalizedCrystal
_audit_creation_method	'MofGen! by Chris Wilmer'
_symmetry_space_group_name_H-M	'P1'
_symmetry_Int_Tables_number	1
_symmetry_cell_setting	triclinic
loop_
_symmetry_equiv_pos_as_xyz
  x,y,z
_cell_length_a	10.654550
_cell_length_b	10.654551
_cell_length_c	9.130313
_cell_angle_alpha	90.001552
_cell_angle_beta	89.996220
_cell_angle_gamma	84.485132
loop_
_atom_site_label
_atom_site_type_symbol
_atom_site_fract_x
_atom_site_fract_y
_atom_site_fract_z
O1	O	1.667835	0.176393	-0.121910
O2	O	1.302356	0.193199	-0.121885
O3	O	1.493498	0.002057	-0.121899
O4	O	1.476693	0.367535	-0.121896
O5	O	1.493496	0.002062	0.121700
O6	O	1.302354	0.193204	0.121713
O7	O	1.667832	0.176398	0.121689
Cu8	Cu	1.485093	0.184802	0.143944
Cu9	Cu	1.485096	0.184796	-0.144140
O10	O	1.476691	0.367540	0.121703
C11	C	1.255557	0.191968	-0.000083
C12	C	1.116114	0.188276	-0.000074
C13	C	1.036629	0.300817	-0.000095
C14	C	0.905608	0.297341	-0.000120
C15	C	0.933570	0.068771	-0.000110
C16	C	1.064589	0.072249	-0.000074
C17	C	1.088154	0.416844	-0.000094
C18	C	1.008667	0.529395	-0.000116
C19	C	0.877647	0.525918	-0.000142
C20	C	0.826112	0.409891	-0.000145
C21	C	1.492263	-0.044739	-0.000103
C22	C	1.488570	-0.184182	-0.000112
C23	C	1.486839	-0.249696	-0.132895
C24	C	1.483359	-0.380717	-0.132888
C25	C	1.483346	-0.380697	0.132696
C26	C	1.486817	-0.249678	0.132688
C27	C	1.488592	-0.184201	-0.265696
C28	C	1.486863	-0.249716	-0.398490
C29	C	1.483382	-0.380736	-0.398483
C30	C	1.481632	-0.446241	-0.265682
C31	C	1.714632	0.177629	-0.000117
C32	C	1.854075	0.181321	-0.000135
C33	C	1.477926	0.414336	-0.000097
C34	C	1.481619	0.553779	-0.000097
N35	N	1.485100	0.184805	0.346566
N36	N	1.485098	0.184782	-0.346763
C37	C	1.569760	0.100196	0.423212
C38	C	1.569756	0.100181	0.576549
C39	C	1.400430	0.269395	0.576581
C40	C	1.400428	0.269403	0.423246
C41	C	1.654431	0.015599	0.346532
C42	C	1.739099	-0.069016	0.423178
C43	C	1.739095	-0.069031	0.576515
C44	C	1.654425	0.015569	0.653206
H45	H	1.194836	0.419687	-0.000080
C46	C	1.654436	0.015619	0.177868
H47	H	1.591894	0.078132	0.143201
H48	H	1.636566	-0.064810	0.143159
H49	H	1.734856	0.033577	0.143189
H50	H	1.481961	-0.434073	-0.506609
C51	C	1.832220	-0.162103	0.660822
H52	H	1.882650	-0.212475	0.593189
H53	H	1.786599	-0.214814	0.720636
H54	H	1.884890	-0.116428	0.720638
C55	C	0.876890	-0.058849	-0.000129
H56	H	0.942995	-0.125379	-0.000101
H57	H	0.826384	-0.064957	-0.085092
H58	H	0.826340	-0.064953	0.084815
H59	H	1.654420	0.015541	0.778063
H60	H	1.331490	0.338298	0.360841
H61	H	1.050636	0.623860	-0.000101
H62	H	1.331496	0.338274	0.639032
H63	H	0.719425	0.407069	-0.000143
H64	H	0.812931	0.617562	-0.000145
H65	H	1.478779	-0.552925	-0.265687
H66	H	1.129308	-0.019392	-0.000062
C67	C	1.492593	-0.040105	-0.265709
H68	H	1.493434	-0.010484	-0.363814
H69	H	1.566533	-0.019542	-0.216662
H70	H	1.420313	-0.001395	-0.216675
H71	H	1.488276	-0.196371	-0.506611
H72	H	1.481921	-0.434042	0.240816
C73	C	1.488723	-0.177607	0.278746
H74	H	1.487200	-0.235379	0.357838
H75	H	1.416968	-0.117556	0.284260
H76	H	1.563195	-0.135438	0.284257
H77	H	1.808028	-0.137901	0.360729
