data_functionalizedCrystal
_audit_creation_method	'MofGen! by Chris Wilmer'
_symmetry_space_group_name_H-M	'P1'
_symmetry_Int_Tables_number	1
_symmetry_cell_setting	triclinic
loop_
_symmetry_equiv_pos_as_xyz
  x,y,z
_cell_length_a	16.109301
_cell_length_b	15.186229
_cell_length_c	16.109301
_cell_angle_alpha	90.005167
_cell_angle_beta	96.538519
_cell_angle_gamma	89.999362
loop_
_atom_site_label
_atom_site_type_symbol
_atom_site_fract_x
_atom_site_fract_y
_atom_site_fract_z
O1	O	1.103131	-0.073176	-0.106866
O2	O	0.861069	-0.073190	-0.120165
O3	O	0.988749	-0.073174	0.007515
O4	O	0.975450	-0.073192	-0.234547
O5	O	0.988741	0.073284	0.007517
O6	O	0.861060	0.073267	-0.120164
O7	O	1.103122	0.073282	-0.106864
Zn8	Zn	0.982090	0.096528	-0.113514
Zn9	Zn	0.982101	-0.096436	-0.113516
O10	O	0.975441	0.073265	-0.234545
C11	C	0.830090	0.000037	-0.119626
C12	C	0.737794	0.000032	-0.118011
C13	C	0.988206	0.000056	0.038491
C14	C	0.986591	0.000057	0.130786
C15	C	0.515522	0.000036	-0.190018
C16	C	0.428801	0.000042	-0.188494
C17	C	0.448676	0.000050	-0.037006
C18	C	0.535394	0.000051	-0.038530
C19	C	0.568815	0.000039	-0.115039
C20	C	0.395376	0.000045	-0.111990
C21	C	0.301350	0.000051	-0.110337
C22	C	0.662847	0.000035	-0.116693
C23	C	1.134101	0.000053	-0.107404
C24	C	1.226397	0.000052	-0.109019
N25	N	0.982088	0.228220	-0.113511
N26	N	0.982109	-0.228129	-0.113512
C27	C	1.038644	0.453950	-0.056994
C28	C	1.038647	0.546140	-0.056992
C29	C	0.925547	0.546135	-0.170032
C30	C	0.925541	0.453947	-0.170030
C31	C	0.982094	0.407857	-0.113511
C32	C	0.982103	0.592235	-0.113512
C33	C	0.982105	0.692191	-0.113510
C34	C	0.982091	0.307894	-0.113512
C35	C	0.975984	0.000034	-0.265521
C36	C	0.977600	0.000027	-0.357816
C37	C	1.058599	0.000047	0.353059
C38	C	1.057075	0.000040	0.439779
C39	C	0.905586	0.000034	0.419905
C40	C	0.907111	0.000035	0.333186
C41	C	0.983620	0.000046	0.299766
C42	C	0.980571	0.000038	0.473205
C43	C	0.978918	0.000030	0.567231
C44	C	0.985273	0.000052	0.205734
H45	H	0.542730	0.000034	-0.252317
Br46	Br	0.848800	0.608688	-0.246735
H47	H	0.421454	0.000065	0.025285
Br48	Br	0.848783	0.391384	-0.246731
H49	H	1.120897	0.000054	0.325851
H50	H	1.118130	0.000039	0.483168
H51	H	0.843295	0.000027	0.447127
H52	H	1.084694	0.583667	-0.010969
Br53	Br	0.805346	0.000022	0.260853
H54	H	0.578788	0.000056	0.022530
Br55	Br	1.115394	0.391403	0.019711
H56	H	0.385413	0.000041	-0.249550
