data_functionalizedCrystal
_audit_creation_method	'MofGen! by Chris Wilmer'
_symmetry_space_group_name_H-M	'P1'
_symmetry_Int_Tables_number	1
_symmetry_cell_setting	triclinic
loop_
_symmetry_equiv_pos_as_xyz
  x,y,z
_cell_length_a	18.215407
_cell_length_b	18.215405
_cell_length_c	18.215398
_cell_angle_alpha	89.976051
_cell_angle_beta	90.017408
_cell_angle_gamma	89.982358
loop_
_atom_site_label
_atom_site_type_symbol
_atom_site_fract_x
_atom_site_fract_y
_atom_site_fract_z
Zn1	Zn	-1.125084	-0.293096	-0.416083
Zn2	Zn	-0.625084	0.206904	0.083917
Zn3	Zn	-1.124999	-0.416162	-0.293020
Zn4	Zn	-0.624999	0.083838	0.206980
Zn5	Zn	-1.002017	-0.293104	-0.293035
Zn6	Zn	-0.502017	0.206896	0.206965
Zn7	Zn	-1.001988	-0.416116	-0.416049
Zn8	Zn	-0.501988	0.083884	0.083951
O9	O	-1.063522	-0.354620	-0.354547
O10	O	-0.563522	0.145380	0.145453
O11	O	-1.228057	-0.309437	-0.399766
O12	O	-0.728057	0.190563	0.100234
O13	O	-1.108662	-0.399861	-0.190038
O14	O	-0.608662	0.100139	0.309962
O15	O	-1.018390	-0.190119	-0.309378
O16	O	-0.518390	0.309881	0.190622
O17	O	-1.227995	-0.399853	-0.309352
O18	O	-0.727995	0.100147	0.190648
O19	O	-1.108806	-0.190113	-0.399781
O20	O	-0.608806	0.309887	0.100219
O21	O	-1.018308	-0.309451	-0.190049
O22	O	-0.518308	0.190549	0.309951
O23	O	-0.899029	-0.309406	-0.309345
O24	O	-0.399029	0.190594	0.190655
O25	O	-1.018341	-0.399775	-0.519038
O26	O	-0.518341	0.100225	-0.019038
O27	O	-0.899008	-0.399783	-0.399723
O28	O	-0.399008	0.100217	0.100277
O29	O	-1.108778	-0.309392	-0.519063
O30	O	-0.608778	0.190608	-0.019063
O31	O	-1.108634	-0.519140	-0.309320
O32	O	-0.608634	-0.019140	0.190680
O33	O	-1.018259	-0.519106	-0.399709
O34	O	-0.518259	-0.019106	0.100291
C35	C	-0.872316	-0.354591	-0.354532
C36	C	-0.372316	0.145409	0.145468
C37	C	-0.790517	-0.354596	-0.354544
C38	C	-0.290517	0.145404	0.145456
C39	C	-0.602354	-0.307608	-0.401695
C40	C	-0.102354	0.192392	0.098305
C41	C	-0.525496	-0.307612	-0.401697
C42	C	-0.025496	0.192388	0.098303
C43	C	-0.525442	-0.401620	-0.307404
C44	C	-0.025442	0.098380	0.192596
C45	C	-0.602299	-0.401612	-0.307399
C46	C	-0.102299	0.098388	0.192601
C47	C	-0.640754	-0.354607	-0.354549
C48	C	-0.140754	0.145393	0.145451
C49	C	-0.487037	-0.354619	-0.354556
C50	C	0.012963	0.145381	0.145444
C51	C	-0.403704	-0.354624	-0.354557
C52	C	0.096296	0.145376	0.145443
C53	C	-0.724093	-0.354601	-0.354546
C54	C	-0.224093	0.145399	0.145454
C55	C	-1.063454	-0.545826	-0.354525
C56	C	-0.563454	-0.045826	0.145475
C57	C	-1.063492	-0.627625	-0.354540
C58	C	-0.563492	-0.127625	0.145460
C59	C	-1.063566	-0.354577	-0.546500
C60	C	-0.563566	0.145423	-0.046500
C61	C	-1.063584	-0.354559	-0.628299
C62	C	-0.563584	0.145441	-0.128299
C63	C	-0.255475	-0.354641	-0.354560
C64	C	0.244525	0.145359	0.145440
C65	C	-0.337274	-0.354630	-0.354561
C66	C	0.162726	0.145370	0.145439
C67	C	-1.110616	-0.892622	-0.401685
C68	C	-0.610616	-0.392622	0.098315
C69	C	-1.110591	-0.815763	-0.401674
C70	C	-0.610591	-0.315763	0.098326
C71	C	-1.016523	-0.815877	-0.307451
C72	C	-0.516523	-0.315877	0.192549
C73	C	-1.016551	-0.892734	-0.307459
C74	C	-0.516551	-0.392734	0.192541
C75	C	-1.063597	-0.931104	-0.354580
C76	C	-0.563597	-0.431104	0.145420
C77	C	-1.063543	-0.777388	-0.354561
C78	C	-0.563543	-0.277388	0.145439
C79	C	-1.063516	-0.694055	-0.354548
C80	C	-0.563516	-0.194055	0.145452
C81	C	-1.063625	-1.014443	-0.354592
C82	C	-0.563625	-0.514443	0.145408
C83	C	-1.063611	-0.162667	-0.354585
C84	C	-0.563611	0.337333	0.145415
C85	C	-1.063648	-0.080868	-0.354601
C86	C	-0.563648	0.419132	0.145399
C87	C	-1.110665	-0.401545	-0.893355
C88	C	-0.610665	0.098455	-0.393355
C89	C	-1.110654	-0.401570	-0.816496
C90	C	-0.610654	0.098430	-0.316496
C91	C	-1.016559	-0.307432	-0.816491
C92	C	-0.516559	0.192568	-0.316491
C93	C	-1.016567	-0.307411	-0.893348
C94	C	-0.516567	0.192589	-0.393348
C95	C	-1.063624	-0.354466	-0.931778
C96	C	-0.563624	0.145534	-0.431778
C97	C	-1.063605	-0.354513	-0.778062
C98	C	-0.563605	0.145487	-0.278062
C99	C	-1.063593	-0.354540	-0.694729
C100	C	-0.563593	0.145460	-0.194729
C101	C	-1.063636	-0.354440	-1.015117
C102	C	-0.563636	0.145560	-0.515117
C103	C	-1.063521	-0.354609	-0.163340
C104	C	-0.563521	0.145391	0.336660
C105	C	-1.063645	-0.354419	-0.081542
C106	C	-0.563645	0.145581	0.418458
H107	H	-0.633565	-0.439886	-0.269002
H108	H	-0.133565	0.060114	0.230998
C109	C	-1.162368	-0.934830	-0.453509
C110	C	-0.662368	-0.434830	0.046491
H111	H	-1.155648	-0.986116	-0.446774
H112	H	-0.655648	-0.486116	0.053226
H113	H	-1.211816	-0.922206	-0.442784
H114	H	-0.711816	-0.422206	0.057216
H115	H	-1.151556	-0.922215	-0.502947
H116	H	-0.651556	-0.422215	-0.002947
C117	C	-1.162309	-0.773431	-0.453489
C118	C	-0.662309	-0.273431	0.046511
H119	H	-1.155562	-0.722162	-0.446732
H120	H	-0.655562	-0.222162	0.053268
H121	H	-1.151511	-0.786007	-0.502927
H122	H	-0.651511	-0.286007	-0.002927
H123	H	-1.211770	-0.786002	-0.442764
H124	H	-0.711770	-0.286002	0.057236
H125	H	-0.978257	-0.269072	-0.924633
H126	H	-0.478257	0.230928	-0.424633
H127	H	-0.978218	-0.784628	-0.269087
H128	H	-0.478218	-0.284628	0.230913
H129	H	-0.978262	-0.924067	-0.269097
H130	H	-0.478262	-0.424067	0.230903
C131	C	-1.162398	-0.453356	-0.774230
C132	C	-0.662398	0.046644	-0.274230
H133	H	-1.155650	-0.446637	-0.722952
H134	H	-0.655650	0.053363	-0.222952
H135	H	-1.211851	-0.442587	-0.786835
H136	H	-0.711851	0.057413	-0.286835
H137	H	-1.151604	-0.502800	-0.786821
H138	H	-0.651604	-0.002800	-0.286821
H139	H	-1.148982	-0.439861	-0.924643
H140	H	-0.648982	0.060139	-0.424643
C141	C	-0.483260	-0.255916	-0.453562
C142	C	0.016740	0.244084	0.046438
H143	H	-0.517172	-0.227927	-0.481644
H144	H	-0.017172	0.272073	0.018356
H145	H	-0.453274	-0.223815	-0.425471
H146	H	0.046726	0.276185	0.074529
H147	H	-0.453284	-0.284119	-0.485583
H148	H	0.046716	0.215881	0.014417
H149	H	-0.633662	-0.269331	-0.440086
H150	H	-0.133662	0.230669	0.059914
C151	C	-0.964807	-0.255668	-0.774216
C152	C	-0.464807	0.244332	-0.274216
H153	H	-0.971545	-0.262417	-0.722939
H154	H	-0.471545	0.237583	-0.222939
H155	H	-0.915356	-0.266427	-0.786798
H156	H	-0.415356	0.233573	-0.286798
H157	H	-0.975606	-0.206217	-0.786823
H158	H	-0.475606	0.293783	-0.286823
H159	H	-0.494123	-0.439891	-0.269017
H160	H	0.005877	0.060109	0.230983
