data_functionalizedCrystal
_audit_creation_method	'MofGen! by Chris Wilmer'
_symmetry_space_group_name_H-M	'P1'
_symmetry_Int_Tables_number	1
_symmetry_cell_setting	triclinic
loop_
_symmetry_equiv_pos_as_xyz
  x,y,z
_cell_length_a	18.101398
_cell_length_b	18.050590
_cell_length_c	18.101390
_cell_angle_alpha	89.966356
_cell_angle_beta	89.989901
_cell_angle_gamma	90.014109
loop_
_atom_site_label
_atom_site_type_symbol
_atom_site_fract_x
_atom_site_fract_y
_atom_site_fract_z
Zn1	Zn	1.132188	-0.295719	-0.418547
Zn2	Zn	1.382188	-0.045719	-0.168547
Zn3	Zn	1.632188	0.204281	0.081453
Zn4	Zn	1.882188	0.454281	0.331453
Zn5	Zn	1.132110	-0.419925	-0.294704
Zn6	Zn	1.382110	-0.169925	-0.044704
Zn7	Zn	1.632110	0.080075	0.205296
Zn8	Zn	1.882110	0.330075	0.455296
Zn9	Zn	1.008346	-0.295744	-0.294740
Zn10	Zn	1.258346	-0.045744	-0.044740
Zn11	Zn	1.508346	0.204256	0.205260
Zn12	Zn	1.758346	0.454256	0.455260
Zn13	Zn	1.008325	-0.419862	-0.418524
Zn14	Zn	1.258325	-0.169862	-0.168524
Zn15	Zn	1.508325	0.080138	0.081476
Zn16	Zn	1.758325	0.330138	0.331476
O17	O	1.070242	-0.357812	-0.356628
O18	O	1.320242	-0.107812	-0.106628
O19	O	1.570242	0.142188	0.143372
O20	O	1.820242	0.392188	0.393372
O21	O	1.235811	-0.312211	-0.402113
O22	O	1.485811	-0.062211	-0.152113
O23	O	1.735811	0.187789	0.097887
O24	O	1.985811	0.437789	0.347887
O25	O	1.115669	-0.403488	-0.191076
O26	O	1.365669	-0.153488	0.058924
O27	O	1.615669	0.096512	0.308924
O28	O	1.865669	0.346512	0.558924
O29	O	1.024816	-0.191816	-0.311187
O30	O	1.274816	0.058184	-0.061187
O31	O	1.524816	0.308184	0.188813
O32	O	1.774816	0.558184	0.438813
O33	O	1.235754	-0.403465	-0.311126
O34	O	1.485754	-0.153465	-0.061126
O35	O	1.735754	0.096535	0.188874
O36	O	1.985754	0.346535	0.438874
O37	O	1.115802	-0.191798	-0.402148
O38	O	1.365802	0.058202	-0.152148
O39	O	1.615802	0.308202	0.097852
O40	O	1.865802	0.558202	0.347852
O41	O	1.024740	-0.312253	-0.191102
O42	O	1.274740	-0.062253	0.058898
O43	O	1.524740	0.187747	0.308898
O44	O	1.774740	0.437747	0.558898
O45	O	0.904711	-0.312192	-0.311165
O46	O	1.154711	-0.062192	-0.061165
O47	O	1.404711	0.187808	0.188835
O48	O	1.654711	0.437808	0.438835
O49	O	1.024779	-0.403358	-0.522160
O50	O	1.274779	-0.153358	-0.272160
O51	O	1.524779	0.096642	-0.022160
O52	O	1.774779	0.346642	0.227840
O53	O	0.904695	-0.403382	-0.402109
O54	O	1.154695	-0.153382	-0.152109
O55	O	1.404695	0.096618	0.097891
O56	O	1.654695	0.346618	0.347891
O57	O	1.115781	-0.312151	-0.522177
O58	O	1.365781	-0.062151	-0.272177
O59	O	1.615781	0.187849	-0.022177
O60	O	1.865781	0.437849	0.227823
O61	O	1.115648	-0.523841	-0.311104
O62	O	1.365648	-0.273841	-0.061104
O63	O	1.615648	-0.023841	0.188896
O64	O	1.865648	0.226159	0.438896
O65	O	1.024704	-0.523795	-0.402074
O66	O	1.274704	-0.273795	-0.152074
O67	O	1.524704	-0.023795	0.097926
O68	O	1.774704	0.226205	0.347926
C69	C	0.877832	-0.357783	-0.356639
C70	C	1.127832	-0.107783	-0.106639
C71	C	1.377832	0.142217	0.143361
C72	C	1.627832	0.392217	0.393361
C73	C	0.795518	-0.357789	-0.356661
C74	C	1.045518	-0.107789	-0.106661
C75	C	1.295518	0.142211	0.143339
C76	C	1.545518	0.392211	0.393339
C77	C	0.496427	-0.357832	-0.356630
C78	C	0.746427	-0.107832	-0.106630
C79	C	0.996427	0.142168	0.143370
C80	C	1.246427	0.392168	0.393370
C81	C	0.527767	-0.415484	-0.413567
C82	C	0.777767	-0.165484	-0.163567
C83	C	1.027767	0.084516	0.086433
C84	C	1.277767	0.334516	0.336433
C85	C	0.613385	-0.415303	-0.413801
C86	C	0.863385	-0.165303	-0.163801
C87	C	1.113385	0.084697	0.086199
C88	C	1.363385	0.334697	0.336199
C89	C	0.644809	-0.357811	-0.356645
C90	C	0.894809	-0.107811	-0.106645
C91	C	1.144809	0.142189	0.143355
C92	C	1.394809	0.392189	0.393355
C93	C	0.613738	-0.279588	-0.377974
C94	C	0.863738	-0.029588	-0.127974
C95	C	1.113738	0.220412	0.122026
C96	C	1.363738	0.470412	0.372026
C97	C	0.528093	-0.279934	-0.378379
C98	C	0.778093	-0.029934	-0.128379
C99	C	1.028093	0.220066	0.121621
C100	C	1.278093	0.470066	0.371621
C101	C	0.527978	-0.377715	-0.278227
C102	C	0.777978	-0.127715	-0.028227
C103	C	1.027978	0.122285	0.221773
C104	C	1.277978	0.372285	0.471773
C105	C	0.613628	-0.379431	-0.278646
C106	C	0.863628	-0.129431	-0.028646
C107	C	1.113628	0.120569	0.221354
C108	C	1.363628	0.370569	0.471354
C109	C	0.728669	-0.357795	-0.356653
C110	C	0.978669	-0.107795	-0.106653
C111	C	1.228669	0.142205	0.143347
C112	C	1.478669	0.392205	0.393347
C113	C	0.412567	-0.357844	-0.356624
C114	C	0.662567	-0.107844	-0.106624
C115	C	0.912567	0.142156	0.143376
C116	C	1.162567	0.392156	0.393376
C117	C	1.070185	-0.550765	-0.356599
C118	C	1.320185	-0.300765	-0.106599
C119	C	1.570185	-0.050765	0.143401
C120	C	1.820185	0.199235	0.393401
C121	C	1.070229	-0.633310	-0.356611
C122	C	1.320229	-0.383310	-0.106611
C123	C	1.570229	-0.133310	0.143389
C124	C	1.820229	0.116690	0.393389
C125	C	1.119787	-0.832759	-0.307211
C126	C	1.369787	-0.582759	-0.057211
C127	C	1.619787	-0.332759	0.192789
C128	C	1.869787	-0.082759	0.442789
C129	C	1.137877	-0.882087	-0.374798
C130	C	1.387877	-0.632087	-0.124798
C131	C	1.637877	-0.382087	0.125202
C132	C	1.887877	-0.132087	0.375202
C133	C	1.070271	-0.784441	-0.356641
C134	C	1.320271	-0.534441	-0.106641
C135	C	1.570271	-0.284441	0.143359
C136	C	1.820271	-0.034441	0.393359
C137	C	1.052256	-0.882195	-0.289084
C138	C	1.302256	-0.632195	-0.039084
C139	C	1.552256	-0.382195	0.210916
C140	C	1.802256	-0.132195	0.460916
C141	C	1.070313	-0.930426	-0.356663
C142	C	1.320313	-0.680426	-0.106663
C143	C	1.570313	-0.430426	0.143337
C144	C	1.820313	-0.180426	0.393337
C145	C	1.088395	-0.832681	-0.424263
C146	C	1.338395	-0.582681	-0.174263
C147	C	1.588395	-0.332681	0.075737
C148	C	1.838395	-0.082681	0.325737
C149	C	1.002743	-0.832785	-0.338504
C150	C	1.252743	-0.582785	-0.088504
C151	C	1.502743	-0.332785	0.161496
C152	C	1.752743	-0.082785	0.411496
C153	C	1.020807	-0.882090	-0.406138
C154	C	1.270807	-0.632090	-0.156138
C155	C	1.520807	-0.382090	0.093862
C156	C	1.770807	-0.132090	0.343862
C157	C	1.070249	-0.700342	-0.356627
C158	C	1.320249	-0.450342	-0.106627
C159	C	1.570249	-0.200342	0.143373
C160	C	1.820249	0.049658	0.393373
C161	C	1.070335	-1.014522	-0.356685
C162	C	1.320335	-0.764522	-0.106685
C163	C	1.570335	-0.514522	0.143315
C164	C	1.820335	-0.264522	0.393315
C165	C	1.263404	-0.357842	-0.356619
C166	C	1.513404	-0.107842	-0.106619
C167	C	1.763404	0.142158	0.143381
C168	C	2.013404	0.392158	0.393381
C169	C	1.345718	-0.357855	-0.356614
C170	C	1.595718	-0.107855	-0.106614
C171	C	1.845718	0.142145	0.143386
C172	C	2.095718	0.392145	0.393386
C173	C	1.070286	-0.357745	-0.549790
C174	C	1.320286	-0.107745	-0.299790
C175	C	1.570286	0.142255	-0.049790
C176	C	1.820286	0.392255	0.200210
C177	C	1.070305	-0.357716	-0.632105
C178	C	1.320305	-0.107716	-0.382105
C179	C	1.570305	0.142284	-0.132105
C180	C	1.820305	0.392284	0.117895
C181	C	1.070320	-0.164107	-0.356674
C182	C	1.320320	0.085893	-0.106674
C183	C	1.570320	0.335893	0.143326
C184	C	1.820320	0.585893	0.393326
C185	C	1.070353	-0.081561	-0.356694
C186	C	1.320353	0.168439	-0.106694
C187	C	1.570353	0.418439	0.143306
C188	C	1.820353	0.668439	0.393306
C189	C	1.070345	-0.357669	-0.931196
C190	C	1.320345	-0.107669	-0.681196
C191	C	1.570345	0.142331	-0.431196
C192	C	1.820345	0.392331	-0.181196
C193	C	1.127790	-0.300486	-0.899881
C194	C	1.377790	-0.050486	-0.649881
C195	C	1.627790	0.199514	-0.399881
C196	C	1.877790	0.449514	-0.149881
C197	C	1.127610	-0.300274	-0.814263
C198	C	1.377610	-0.050274	-0.564263
C199	C	1.627610	0.199726	-0.314263
C200	C	1.877610	0.449726	-0.064263
C201	C	1.070326	-0.357692	-0.782813
C202	C	1.320326	-0.107692	-0.532813
C203	C	1.570326	0.142308	-0.282813
C204	C	1.820326	0.392308	-0.032813
C205	C	0.992305	-0.336423	-0.813900
C206	C	1.242305	-0.086423	-0.563900
C207	C	1.492305	0.163577	-0.313900
C208	C	1.742305	0.413577	-0.063900
C209	C	0.992648	-0.335995	-0.899545
C210	C	1.242648	-0.085995	-0.649545
C211	C	1.492648	0.164005	-0.399545
C212	C	1.742648	0.414005	-0.149545
C213	C	1.090235	-0.436269	-0.899604
C214	C	1.340235	-0.186269	-0.649604
C215	C	1.590235	0.063731	-0.399604
C216	C	1.840235	0.313731	-0.149604
C217	C	1.091947	-0.435868	-0.813953
C218	C	1.341947	-0.185868	-0.563953
C219	C	1.591947	0.064132	-0.313953
C220	C	1.841947	0.314132	-0.063953
C221	C	1.070310	-0.357707	-0.698954
C222	C	1.320310	-0.107707	-0.448954
C223	C	1.570310	0.142293	-0.198954
C224	C	1.820310	0.392293	0.051046
C225	C	1.070356	-0.357653	-1.015055
C226	C	1.320356	-0.107653	-0.765055
C227	C	1.570356	0.142347	-0.515055
C228	C	1.820356	0.392347	-0.265055
C229	C	1.070241	-0.357826	-0.164218
C230	C	1.320241	-0.107826	0.085782
C231	C	1.570241	0.142174	0.335782
C232	C	1.820241	0.392174	0.585782
C233	C	1.070366	-0.357646	-0.081904
C234	C	1.320366	-0.107646	0.168096
C235	C	1.570366	0.142354	0.418096
C236	C	1.820366	0.392354	0.668096
H237	H	0.634092	-0.235469	-0.337798
H238	H	0.884092	0.014531	-0.087798
H239	H	1.134092	0.264531	0.162202
H240	H	1.384092	0.514531	0.412202
Cl241	Cl	1.028705	-0.915773	-0.200864
Cl242	Cl	1.278705	-0.665773	0.049136
Cl243	Cl	1.528705	-0.415773	0.299136
Cl244	Cl	1.778705	-0.165773	0.549136
H245	H	0.945635	-0.811111	-0.323129
H246	H	1.195635	-0.561111	-0.073129
H247	H	1.445635	-0.311111	0.176871
H248	H	1.695635	-0.061111	0.426871
H249	H	0.635199	-0.262420	-0.434667
H250	H	0.885199	-0.012420	-0.184667
H251	H	1.135199	0.237580	0.065333
H252	H	1.385199	0.487580	0.315333
Cl253	Cl	0.924427	-0.398750	-0.782457
Cl254	Cl	1.174427	-0.148750	-0.532457
Cl255	Cl	1.424427	0.101250	-0.282457
Cl256	Cl	1.674427	0.351250	-0.032457
Cl257	Cl	1.025637	-0.502050	-0.930866
Cl258	Cl	1.275637	-0.252050	-0.680866
Cl259	Cl	1.525637	-0.002050	-0.430866
Cl260	Cl	1.775637	0.247950	-0.180866
H261	H	1.053151	-0.480764	-0.792542
H262	H	1.303151	-0.230764	-0.542542
H263	H	1.553151	0.019236	-0.292542
H264	H	1.803151	0.269236	-0.042542
Cl265	Cl	1.216935	-0.320827	-0.781810
Cl266	Cl	1.466935	-0.070827	-0.531810
Cl267	Cl	1.716935	0.179173	-0.281810
Cl268	Cl	1.966935	0.429173	-0.031810
Cl269	Cl	0.494616	-0.464269	-0.248294
Cl270	Cl	0.744616	-0.214269	0.001706
Cl271	Cl	0.994616	0.035731	0.251706
Cl272	Cl	1.244616	0.285731	0.501706
Cl273	Cl	0.644983	-0.468307	-0.253813
Cl274	Cl	0.894983	-0.218307	-0.003813
Cl275	Cl	1.144983	0.031693	0.246187
Cl276	Cl	1.394983	0.281693	0.496187
Cl277	Cl	0.645041	-0.394990	-0.503490
Cl278	Cl	0.895041	-0.144990	-0.253490
Cl279	Cl	1.145041	0.105010	-0.003490
Cl280	Cl	1.395041	0.355010	0.246510
Cl281	Cl	0.965802	-0.248698	-0.780816
Cl282	Cl	1.215802	0.001302	-0.530816
Cl283	Cl	1.465802	0.251302	-0.280816
Cl284	Cl	1.715802	0.501302	-0.030816
Cl285	Cl	0.646648	-0.319305	-0.209629
Cl286	Cl	0.896648	-0.069305	0.040371
Cl287	Cl	1.146648	0.180695	0.290371
Cl288	Cl	1.396648	0.430695	0.540371
Cl289	Cl	0.924310	-0.397487	-0.931530
Cl290	Cl	1.174310	-0.147487	-0.681530
Cl291	Cl	1.424310	0.102513	-0.431530
Cl292	Cl	1.674310	0.352513	-0.181530
H293	H	0.508128	-0.263071	-0.435695
H294	H	0.758128	-0.013071	-0.185695
H295	H	1.008128	0.236929	0.064305
H296	H	1.258128	0.486929	0.314305
H297	H	1.103593	-0.811025	-0.481453
H298	H	1.353593	-0.561025	-0.231453
H299	H	1.603593	-0.311025	0.018547
H300	H	1.853593	-0.061025	0.268547
H301	H	0.507361	-0.235440	-0.338810
H302	H	0.757361	0.014560	-0.088810
H303	H	1.007361	0.264560	0.161190
H304	H	1.257361	0.514560	0.411190
H305	H	0.978951	-0.903614	-0.447997
H306	H	1.228951	-0.653614	-0.197997
H307	H	1.478951	-0.403614	0.052003
H308	H	1.728951	-0.153614	0.302003
H309	H	0.507710	-0.335722	-0.235804
H310	H	0.757710	-0.085722	0.014196
H311	H	1.007710	0.164278	0.264196
H312	H	1.257710	0.414278	0.514196
H313	H	1.146131	-0.455634	-0.921239
H314	H	1.396131	-0.205634	-0.671239
H315	H	1.646131	0.044366	-0.421239
H316	H	1.896131	0.294366	-0.171239
H317	H	1.195002	-0.903745	-0.390152
H318	H	1.445002	-0.653745	-0.140152
H319	H	1.695002	-0.403745	0.109848
H320	H	1.945002	-0.153745	0.359848
Cl321	Cl	1.180597	-0.460630	-0.782588
Cl322	Cl	1.430597	-0.210630	-0.532588
Cl323	Cl	1.680597	0.039370	-0.282588
Cl324	Cl	1.930597	0.289370	-0.032588
H325	H	0.507164	-0.473680	-0.400348
H326	H	0.757164	-0.223680	-0.150348
H327	H	1.007164	0.026320	0.099652
H328	H	1.257164	0.276320	0.349652
H329	H	1.161676	-0.811098	-0.265452
H330	H	1.411676	-0.561098	-0.015452
H331	H	1.661676	-0.311098	0.234548
H332	H	1.911676	-0.061098	0.484548
H333	H	0.634393	-0.473310	-0.400433
H334	H	0.884393	-0.223310	-0.150433
H335	H	1.134393	0.026690	0.099567
H336	H	1.384393	0.276690	0.349567
H337	H	0.506254	-0.402495	-0.471322
H338	H	0.756254	-0.152495	-0.221322
H339	H	1.006254	0.097505	0.028678
H340	H	1.256254	0.347505	0.278678
Cl341	Cl	1.217407	-0.320791	-0.931678
Cl342	Cl	1.467407	-0.070791	-0.681678
Cl343	Cl	1.717407	0.179209	-0.431678
Cl344	Cl	1.967407	0.429209	-0.181678
H345	H	1.114443	-0.242046	-0.793793
H346	H	1.364443	0.007954	-0.543793
H347	H	1.614443	0.257954	-0.293793
H348	H	1.864443	0.507954	-0.043793
Cl349	Cl	1.107722	-0.211087	-0.933136
Cl350	Cl	1.357722	0.038913	-0.683136
Cl351	Cl	1.607722	0.288913	-0.433136
Cl352	Cl	1.857722	0.538913	-0.183136
H353	H	0.975789	-0.278539	-0.919539
H354	H	1.225789	-0.028539	-0.669539
H355	H	1.475789	0.221461	-0.419539
H356	H	1.725789	0.471461	-0.169539
