data_functionalizedCrystal
_audit_creation_method	'MofGen! by Chris Wilmer'
_symmetry_space_group_name_H-M	'P1'
_symmetry_Int_Tables_number	1
_symmetry_cell_setting	triclinic
loop_
_symmetry_equiv_pos_as_xyz
  x,y,z
_cell_length_a	10.723024
_cell_length_b	17.038272
_cell_length_c	9.198806
_cell_angle_alpha	89.996565
_cell_angle_beta	89.996352
_cell_angle_gamma	87.789713
loop_
_atom_site_label
_atom_site_type_symbol
_atom_site_fract_x
_atom_site_fract_y
_atom_site_fract_z
O1	O	1.667337	0.109720	-0.120885
O2	O	2.167337	0.609720	0.379115
O3	O	1.305156	0.120222	-0.120890
O4	O	1.805156	0.620222	0.379110
O5	O	1.484094	0.001144	-0.120876
O6	O	1.984094	0.501144	0.379124
O7	O	1.488399	0.228799	-0.120899
O8	O	1.988399	0.728799	0.379101
O9	O	1.484079	0.001144	0.120909
O10	O	1.984079	0.501144	0.620909
O11	O	1.305141	0.120222	0.120895
O12	O	1.805141	0.620222	0.620895
O13	O	1.667322	0.109720	0.120900
O14	O	2.167322	0.609720	0.620900
Cu15	Cu	1.486230	0.114971	0.142975
Cu16	Cu	1.986230	0.614971	0.642975
Cu17	Cu	1.486248	0.114971	-0.142964
Cu18	Cu	1.986248	0.614971	0.357036
O19	O	1.488384	0.228798	0.120886
O20	O	1.988384	0.728798	0.620886
C21	C	1.258578	0.119458	0.000002
C22	C	1.758578	0.619458	0.500002
C23	C	1.119813	0.117171	0.000000
C24	C	1.619813	0.617171	0.500000
C25	C	1.050993	0.183801	-0.000007
C26	C	1.550993	0.683801	0.499993
C27	C	0.907571	0.181440	-0.000009
C28	C	1.407571	0.681440	0.499991
C29	C	1.480171	-0.028006	0.000016
C30	C	1.980171	0.471994	0.500016
C31	C	1.468489	-0.114864	0.000016
C32	C	1.968489	0.385136	0.500016
C33	C	1.575744	-0.164385	0.000019
C34	C	2.075744	0.335615	0.500019
C35	C	1.564760	-0.245996	0.000005
C36	C	2.064760	0.254004	0.500005
C37	C	1.446520	-0.278084	-0.000002
C38	C	1.946520	0.221916	0.499998
C39	C	1.339256	-0.228557	-0.000009
C40	C	1.839256	0.271443	0.499991
C41	C	1.350241	-0.146947	-0.000006
C42	C	1.850241	0.353053	0.499994
C43	C	1.407711	-0.524057	-0.000022
C44	C	1.907711	-0.024057	0.499978
C45	C	1.396734	-0.605673	-0.000021
C46	C	1.896734	-0.105673	0.499979
C47	C	1.622239	-0.623107	-0.000010
C48	C	2.122239	-0.123107	0.499990
C49	C	1.633214	-0.541495	0.000002
C50	C	2.133214	-0.041495	0.500002
C51	C	1.525950	-0.491974	-0.000013
C52	C	2.025950	0.008026	0.499987
C53	C	1.435289	-0.361504	-0.000011
C54	C	1.935289	0.138496	0.499989
C55	C	1.537182	-0.408556	-0.000014
C56	C	2.037182	0.091444	0.499986
C57	C	1.713900	0.110484	0.000005
C58	C	2.213900	0.610484	0.500005
C59	C	1.852666	0.112771	-0.000003
C60	C	2.352666	0.612771	0.499997
C61	C	1.492307	0.257948	-0.000009
C62	C	1.992307	0.757948	0.499991
C63	C	1.503989	0.344806	-0.000018
C64	C	2.003989	0.844806	0.499982
N65	N	1.486226	0.114970	0.344089
N66	N	1.986226	0.614970	0.844089
N67	N	1.486261	0.114966	-0.344078
N68	N	1.986261	0.614966	0.155922
C69	C	1.561337	0.064752	0.416291
C70	C	2.061337	0.564752	0.916291
C71	C	1.561356	0.064749	0.583704
C72	C	2.061356	0.564749	1.083704
H73	H	0.911814	0.055727	-0.000005
H74	H	1.411814	0.555727	0.499995
O75	O	1.760750	-0.506891	0.000012
O76	O	2.260750	-0.006891	0.500012
H77	H	1.750368	-0.441823	0.000031
H78	H	2.250368	0.058177	0.500031
O79	O	1.401072	0.171915	0.573679
O80	O	1.901072	0.671915	1.073679
H81	H	1.423703	0.232962	0.602781
H82	H	1.923703	0.732962	1.102781
O83	O	1.057231	0.039286	0.000017
O84	O	1.557231	0.539286	0.500017
H85	H	0.998178	0.034944	-0.098534
H86	H	1.498178	0.534944	0.401466
H87	H	1.672028	-0.138265	0.000033
H88	H	2.172028	0.361735	0.500033
H89	H	1.421931	0.157959	0.406212
H90	H	1.921931	0.657959	0.906212
H91	H	1.652100	-0.286314	0.000011
H92	H	2.152100	0.213686	0.500011
H93	H	0.848415	0.238480	-0.000021
H94	H	1.348415	0.738480	0.499979
O95	O	1.737928	-0.676515	-0.000003
O96	O	2.237928	-0.176515	0.499997
H97	H	1.710431	-0.738655	-0.000017
H98	H	2.210431	-0.238655	0.499983
O99	O	1.269198	-0.640287	-0.000045
O100	O	1.769198	-0.140287	0.499955
H101	H	1.196454	-0.592143	-0.000071
H102	H	1.696454	-0.092143	0.499929
O103	O	1.664713	-0.373954	-0.000013
O104	O	2.164713	0.126046	0.499987
H105	H	1.675101	-0.337197	0.098541
H106	H	2.175101	0.162803	0.598541
H107	H	1.320369	-0.483747	-0.000034
H108	H	1.820369	0.016253	0.499966
O109	O	1.211720	-0.263160	-0.000001
O110	O	1.711720	0.236840	0.499999
H111	H	1.222098	-0.328228	0.000018
H112	H	1.722098	0.171772	0.500018
H113	H	1.098254	0.242594	-0.000005
H114	H	1.598254	0.742594	0.499995
H115	H	1.262902	-0.106627	-0.000008
H116	H	1.762902	0.393373	0.499992
H117	H	1.339017	-0.387640	-0.000014
H118	H	1.839017	0.112360	0.499986
H119	H	1.625624	0.021757	0.354170
H120	H	2.125624	0.521757	0.854170
O121	O	1.646541	0.007793	0.665933
O122	O	2.146541	0.507793	1.165933
H123	H	1.633182	0.016725	0.784521
H124	H	2.133182	0.516725	1.284521
