data_functionalizedCrystal
_audit_creation_method	'MofGen! by Chris Wilmer'
_symmetry_space_group_name_H-M	'P1'
_symmetry_Int_Tables_number	1
_symmetry_cell_setting	triclinic
loop_
_symmetry_equiv_pos_as_xyz
  x,y,z
_cell_length_a	10.723023
_cell_length_b	15.995292
_cell_length_c	9.798715
_cell_angle_alpha	90.000045
_cell_angle_beta	89.996449
_cell_angle_gamma	83.968082
loop_
_atom_site_label
_atom_site_type_symbol
_atom_site_fract_x
_atom_site_fract_y
_atom_site_fract_z
O1	O	1.655653	0.117435	-0.113477
O2	O	2.155653	0.617435	0.386523
O3	O	1.292354	0.128676	-0.113479
O4	O	1.792354	0.628676	0.386521
O5	O	1.483972	0.001222	-0.113480
O6	O	1.983972	0.501222	0.386520
O7	O	1.464035	0.244889	-0.113476
O8	O	1.964035	0.744889	0.386524
O9	O	1.483958	0.001221	0.113502
O10	O	1.983958	0.501221	0.613502
O11	O	1.292340	0.128676	0.113503
O12	O	1.792340	0.628676	0.613503
O13	O	1.655639	0.117434	0.113506
O14	O	2.155639	0.617434	0.613506
Zn15	Zn	1.473987	0.123055	0.149543
Zn16	Zn	1.973987	0.623055	0.649543
Zn17	Zn	1.474006	0.123055	-0.149516
Zn18	Zn	1.974006	0.623055	0.350484
O19	O	1.464020	0.244889	0.113506
O20	O	1.964020	0.744889	0.613506
C21	C	1.245858	0.127858	0.000011
C22	C	1.745858	0.627858	0.500011
C23	C	1.107335	0.125411	0.000010
C24	C	1.607335	0.625411	0.500010
C25	C	1.045585	0.124320	-0.117574
C26	C	1.545585	0.624320	0.382426
C27	C	0.902415	0.121791	-0.117578
C28	C	1.402415	0.621791	0.382422
C29	C	1.483154	-0.029979	0.000008
C30	C	1.983154	0.470021	0.500008
C31	C	1.480721	-0.122946	-0.000003
C32	C	1.980721	0.377054	0.499997
C33	C	1.471778	-0.460735	0.000010
C34	C	1.971778	0.039265	0.500010
C35	C	1.610083	-0.436629	0.000518
C36	C	2.110083	0.063371	0.500518
C37	C	1.612711	-0.339938	0.000001
C38	C	2.112711	0.160062	0.500001
C39	C	1.476215	-0.293154	0.000005
C40	C	1.976215	0.206846	0.500005
C41	C	1.407077	-0.322652	-0.129610
C42	C	1.907077	0.177348	0.370390
C43	C	1.405412	-0.419452	-0.129713
C44	C	1.905412	0.080548	0.370287
C45	C	1.402572	-0.419326	0.128408
C46	C	1.902572	0.080674	0.628408
C47	C	1.407697	-0.322804	0.130116
C48	C	1.907697	0.177196	0.630116
C49	C	1.478716	-0.198444	-0.000003
C50	C	1.978716	0.301556	0.499997
C51	C	1.469273	-0.555446	0.000008
C52	C	1.969273	-0.055446	0.500008
C53	C	1.702135	0.118252	0.000012
C54	C	2.202135	0.618252	0.500012
C55	C	1.840657	0.120700	0.000004
C56	C	2.340657	0.620700	0.500004
C57	C	1.464839	0.276089	0.000016
C58	C	1.964839	0.776089	0.500016
C59	C	1.467272	0.369056	0.000017
C60	C	1.967272	0.869056	0.500017
N61	N	1.473983	0.123054	0.353642
N62	N	1.973983	0.623054	0.853642
N63	N	1.474019	0.123050	-0.353616
N64	N	1.974019	0.623050	0.146384
C65	C	1.554442	0.069304	0.421419
C66	C	2.054442	0.569304	0.921419
C67	C	1.554462	0.069301	0.578582
C68	C	2.054462	0.569301	1.078582
H69	H	1.054208	0.124477	0.100675
H70	H	1.554208	0.624477	0.600675
H71	H	1.623350	0.023286	0.636866
H72	H	2.123350	0.523286	1.136866
Cl73	Cl	1.696280	-0.310079	0.143469
Cl74	Cl	2.196280	0.189921	0.643469
Cl75	Cl	1.253872	-0.272789	0.142207
Cl76	Cl	1.753872	0.227211	0.642207
Cl77	Cl	1.469367	-0.462632	0.280086
Cl78	Cl	1.969367	0.037368	0.780086
Cl79	Cl	1.485410	-0.293686	0.278164
Cl80	Cl	1.985410	0.206314	0.778164
H81	H	1.098711	0.125263	-0.218239
H82	H	1.598711	0.625263	0.281761
Cl83	Cl	1.245398	-0.441830	0.129764
Cl84	Cl	1.745398	0.058170	0.629764
H85	H	1.405110	0.169067	0.411967
H86	H	1.905110	0.669067	0.911967
Cl87	Cl	1.692387	-0.479381	0.144030
Cl88	Cl	2.192387	0.020619	0.644030
H89	H	1.663102	-0.465342	-0.091912
H90	H	2.163102	0.034658	0.408088
H91	H	0.849312	0.120850	-0.218246
H92	H	1.349312	0.620850	0.281754
H93	H	0.893754	0.121634	0.100678
H94	H	1.393754	0.621634	0.600678
Cl95	Cl	1.696816	-0.311033	-0.143703
Cl96	Cl	2.196816	0.188967	0.356297
H97	H	1.304006	-0.434585	-0.135584
H98	H	1.804006	0.065415	0.364416
Cl99	Cl	1.660494	-0.001934	0.331380
Cl100	Cl	2.160494	0.498066	0.831380
H101	H	1.405136	0.169073	0.588108
H102	H	1.905136	0.669073	1.088108
Cl103	Cl	1.479366	-0.460434	-0.279299
Cl104	Cl	1.979366	0.039566	0.220701
Cl105	Cl	1.252003	-0.274338	-0.137060
Cl106	Cl	1.752003	0.225662	0.362940
H107	H	1.455100	-0.302316	-0.226070
H108	H	1.955100	0.197684	0.273930
