data_functionalizedCrystal
_audit_creation_method	'MofGen! by Chris Wilmer'
_symmetry_space_group_name_H-M	'P1'
_symmetry_Int_Tables_number	1
_symmetry_cell_setting	triclinic
loop_
_symmetry_equiv_pos_as_xyz
  x,y,z
_cell_length_a	18.050591
_cell_length_b	18.050589
_cell_length_c	19.077271
_cell_angle_alpha	87.676607
_cell_angle_beta	92.286692
_cell_angle_gamma	90.027061
loop_
_atom_site_label
_atom_site_type_symbol
_atom_site_fract_x
_atom_site_fract_y
_atom_site_fract_z
Zn1	Zn	1.118444	-0.278823	-0.397897
Zn2	Zn	1.123338	-0.408007	-0.280209
Zn3	Zn	0.999246	-0.283832	-0.280223
Zn4	Zn	0.994212	-0.402974	-0.397876
O5	O	1.058810	-0.343409	-0.339051
O6	O	1.223018	-0.295969	-0.382289
O7	O	1.111032	-0.395737	-0.181720
O8	O	1.015117	-0.179242	-0.295847
O9	O	1.226613	-0.390880	-0.295824
O10	O	1.102691	-0.175562	-0.382302
O11	O	1.019862	-0.304507	-0.181730
O12	O	0.894654	-0.299627	-0.295826
O13	O	1.006537	-0.382302	-0.496370
O14	O	0.890956	-0.387160	-0.382265
O15	O	1.097810	-0.291089	-0.496385
O16	O	1.106151	-0.511264	-0.295803
O17	O	1.011283	-0.507567	-0.382252
C18	C	0.865858	-0.343391	-0.339045
C19	C	0.783312	-0.343401	-0.339060
C20	C	0.532499	-0.391106	-0.386001
C21	C	0.584590	-0.411907	-0.321761
C22	C	0.486192	-0.343424	-0.339058
C23	C	0.581183	-0.322647	-0.403296
C24	C	0.632177	-0.343414	-0.339062
C25	C	0.537196	-0.364261	-0.274784
C26	C	0.533783	-0.274968	-0.356362
C27	C	0.585853	-0.295744	-0.292077
C28	C	0.402093	-0.343431	-0.339057
C29	C	0.716273	-0.343407	-0.339056
C30	C	1.058721	-0.536362	-0.339039
C31	C	1.058750	-0.618907	-0.339058
C32	C	1.007210	-0.816374	-0.386053
C33	C	0.991831	-0.868537	-0.321830
C34	C	1.058822	-0.770036	-0.339067
C35	C	1.074237	-0.864955	-0.403297
C36	C	1.058891	-0.916021	-0.339082
C37	C	1.043410	-0.821113	-0.274810
C38	C	1.125845	-0.817526	-0.356321
C39	C	1.110494	-0.869668	-0.292054
C40	C	1.058781	-0.685939	-0.339060
C41	C	1.058933	-1.000117	-0.339082
C42	C	1.252516	-0.343427	-0.339057
C43	C	1.335061	-0.343435	-0.339060
C44	C	1.051066	-0.335576	-0.522629
C45	C	1.047766	-0.332238	-0.600859
C46	C	1.058919	-0.149702	-0.339078
C47	C	1.058966	-0.067156	-0.339090
C48	C	1.024097	-0.308355	-1.041212
C49	C	1.027201	-0.311489	-0.967707
C50	C	1.076216	-0.360558	-0.930948
C51	C	1.122136	-0.406492	-0.967699
C52	C	1.119035	-0.403354	-1.041203
C53	C	1.090584	-0.375033	-0.711114
C54	C	1.093680	-0.378169	-0.637605
C55	C	0.998746	-0.283165	-0.637618
C56	C	0.995646	-0.280034	-0.711123
C57	C	1.041568	-0.325965	-0.747867
N58	N	1.079389	-0.363764	-0.855814
N59	N	1.038399	-0.322755	-0.823000
C60	C	1.066567	-0.351158	-0.156187
C61	C	1.070011	-0.354287	-0.077958
H62	H	0.600595	-0.305078	-0.457619
H63	H	1.156424	-0.440755	-1.071120
H64	H	1.162048	-0.446442	-0.937764
H65	H	0.961360	-0.245770	-0.607693
H66	H	0.609079	-0.255419	-0.252335
H67	H	0.509141	-0.431468	-0.425648
H68	H	0.606883	-0.469795	-0.307121
H69	H	0.517876	-0.381900	-0.220446
H70	H	0.511473	-0.217095	-0.371020
H71	H	1.182478	-0.795128	-0.370932
H72	H	0.963504	-0.793040	-0.425730
H73	H	0.935185	-0.890935	-0.307249
H74	H	0.984181	-0.268399	-1.071136
H75	H	1.030333	-0.801855	-0.220482
H76	H	1.154172	-0.892868	-0.252280
H77	H	1.087248	-0.884304	-0.457610
H78	H	0.989812	-0.274087	-0.937792
H79	H	1.133612	-0.418115	-0.607678
H80	H	0.955729	-0.240080	-0.741047
H81	H	1.127975	-0.412435	-0.741022
