data_functionalizedCrystal
_audit_creation_method	'MofGen! by Chris Wilmer'
_symmetry_space_group_name_H-M	'P1'
_symmetry_Int_Tables_number	1
_symmetry_cell_setting	triclinic
loop_
_symmetry_equiv_pos_as_xyz
  x,y,z
_cell_length_a	15.298068
_cell_length_b	16.120484
_cell_length_c	15.296720
_cell_angle_alpha	101.986518
_cell_angle_beta	88.354818
_cell_angle_gamma	103.029391
loop_
_atom_site_label
_atom_site_type_symbol
_atom_site_fract_x
_atom_site_fract_y
_atom_site_fract_z
Zn1	Zn	1.237597	-0.252306	-0.738453
Zn2	Zn	1.737597	0.247694	-0.238453
Zn3	Zn	1.255735	-0.366214	-0.596990
Zn4	Zn	1.755735	0.133786	-0.096990
Zn5	Zn	1.116993	-0.244065	-0.566257
Zn6	Zn	1.616993	0.255935	-0.066257
Zn7	Zn	1.080990	-0.413761	-0.720103
Zn8	Zn	1.580990	0.086239	-0.220103
O9	O	1.172829	-0.319086	-0.655451
O10	O	1.672829	0.180914	-0.155451
O11	O	1.363608	-0.250967	-0.740228
O12	O	1.863608	0.249033	-0.240228
O13	O	1.259988	-0.326663	-0.469325
O14	O	1.759988	0.173337	0.030675
O15	O	1.140468	-0.126470	-0.583917
O16	O	1.640468	0.373530	-0.083917
O17	O	1.376933	-0.334654	-0.636296
O18	O	1.876933	0.165346	-0.136296
O19	O	1.229075	-0.132525	-0.710428
O20	O	1.729075	0.367475	-0.210428
O21	O	1.158055	-0.236921	-0.446746
O22	O	1.658055	0.263079	0.053254
O23	O	0.988612	-0.283025	-0.566124
O24	O	1.488612	0.216975	-0.066124
O25	O	1.079106	-0.415691	-0.846125
O26	O	1.579106	0.084309	-0.346125
O27	O	0.962161	-0.407700	-0.679154
O28	O	1.462161	0.092300	-0.179154
O29	O	1.194165	-0.297071	-0.859606
O30	O	1.694165	0.202929	-0.359606
O31	O	1.225078	-0.491209	-0.618503
O32	O	1.725078	0.008791	-0.118503
O33	O	1.096693	-0.526142	-0.708954
O34	O	1.596693	-0.026142	-0.208954
C35	C	0.943337	-0.349629	-0.617313
C36	C	1.443337	0.150371	-0.117313
C37	C	0.845154	-0.362719	-0.601020
C38	C	1.345154	0.137281	-0.101020
C39	C	0.540558	-0.225740	-0.771914
C40	C	1.040558	0.274260	-0.271914
C41	C	0.632804	-0.213445	-0.787227
C42	C	1.132804	0.286555	-0.287227
C43	C	0.685896	-0.250762	-0.740677
C44	C	1.185896	0.249238	-0.240677
C45	C	0.646733	-0.300378	-0.678810
C46	C	1.146733	0.199622	-0.178810
C47	C	0.554477	-0.312680	-0.663500
C48	C	1.054477	0.187320	-0.163500
C49	C	0.699815	-0.337702	-0.632263
C50	C	1.199815	0.162298	-0.132263
C51	C	0.660652	-0.387317	-0.570396
C52	C	1.160652	0.112683	-0.070396
C53	C	0.568404	-0.399617	-0.555089
C54	C	1.068404	0.100383	-0.055089
C55	C	0.515312	-0.362300	-0.601639
C56	C	1.015312	0.137700	-0.101639
C57	C	0.792071	-0.325399	-0.647573
C58	C	1.292071	0.174601	-0.147573
C59	C	0.805990	-0.412339	-0.539159
C60	C	1.305990	0.087661	-0.039159
C61	C	0.713744	-0.424634	-0.523846
C62	C	1.213744	0.075366	-0.023846
C63	C	1.158967	-0.539451	-0.665095
C64	C	1.658967	-0.039451	-0.165095
C65	C	1.153113	-0.633718	-0.669264
C66	C	1.653113	-0.133718	-0.169264
C67	C	1.142426	-0.806307	-0.676895
C68	C	1.642426	-0.306307	-0.176895
C69	C	1.203387	-0.831007	-0.634047
C70	C	1.703387	-0.331007	-0.134047
C71	C	1.197441	-0.927041	-0.638293
C72	C	1.697441	-0.427041	-0.138293
C73	C	1.148371	-0.710265	-0.672650
C74	C	1.648371	-0.210265	-0.172650
C75	C	1.403216	-0.288426	-0.693737
C76	C	1.903216	0.211574	-0.193737
C77	C	1.501394	-0.275360	-0.710053
C78	C	2.001394	0.224640	-0.210053
C79	C	1.130597	-0.362604	-0.885806
C80	C	1.630597	0.137396	-0.385806
C81	C	1.112600	-0.381149	-0.983970
C82	C	1.612600	0.118851	-0.483970
C83	C	1.186764	-0.097862	-0.645791
C84	C	1.686764	0.402138	-0.145791
C85	C	1.192703	-0.003589	-0.641675
C86	C	1.692703	0.496411	-0.141675
C87	C	1.301497	-0.186392	-1.288756
C88	C	1.801497	0.313608	-0.788756
C89	C	1.318411	-0.168970	-1.196527
C90	C	1.818411	0.331030	-0.696527
C91	C	1.266960	-0.222012	-1.143384
C92	C	1.766960	0.277988	-0.643384
C93	C	1.198591	-0.292482	-1.182478
C94	C	1.698591	0.207518	-0.682478
C95	C	1.181680	-0.309911	-1.274717
C96	C	1.681680	0.190089	-0.774717
C97	C	1.147143	-0.345531	-1.129344
C98	C	1.647143	0.154469	-0.629344
C99	C	1.078774	-0.416000	-1.168438
C100	C	1.578774	0.084000	-0.668438
C101	C	1.061865	-0.433425	-1.260668
C102	C	1.561865	0.066575	-0.760668
C103	C	1.113317	-0.380382	-1.313812
C104	C	1.613317	0.119618	-0.813812
C105	C	1.164054	-0.328102	-1.037105
C106	C	1.664054	0.171898	-0.537105
C107	C	1.044237	-0.451620	-1.023065
C108	C	1.544237	0.048380	-0.523065
C109	C	1.027323	-0.469043	-1.115294
C110	C	1.527323	0.030957	-0.615294
C111	C	1.214951	-0.275670	-0.425997
C112	C	1.714951	0.224330	0.074003
C113	C	1.233134	-0.256864	-0.327851
C114	C	1.733134	0.243136	0.172149
H115	H	0.761008	-0.240744	-0.753146
H116	H	1.261008	0.259256	-0.253146
H117	H	1.085774	-0.857282	-0.716763
H118	H	1.585774	-0.357282	-0.216763
H119	H	1.374079	-0.111595	-1.164704
H120	H	1.874079	0.388405	-0.664704
H121	H	0.497322	-0.195368	-0.809814
H122	H	0.997322	0.304632	-0.309814
H123	H	1.219720	-0.270725	-1.005284
H124	H	1.719720	0.229275	-0.505284
H125	H	1.006202	-0.490812	-1.292497
H126	H	1.506202	0.009188	-0.792497
H127	H	1.099549	-0.394564	-1.388913
H128	H	1.599549	0.105436	-0.888913
H129	H	0.971656	-0.526420	-1.147138
H130	H	1.471656	-0.026420	-0.647138
H131	H	1.343386	-0.143217	-1.332034
H132	H	1.843386	0.356783	-0.832034
O133	O	0.994389	-0.503157	-0.971376
O134	O	1.494389	-0.003157	-0.471376
C135	C	1.051007	-0.541180	-0.928788
C136	C	1.551007	-0.041180	-0.428788
H137	H	1.122363	-0.499748	-0.924793
H138	H	1.622363	0.000252	-0.424793
H139	H	1.026206	-0.545076	-0.858444
H140	H	1.526206	-0.045076	-0.358444
H141	H	1.050234	-0.609459	-0.968686
H142	H	1.550234	-0.109459	-0.468686
O143	O	0.857690	-0.448500	-0.493982
O144	O	1.357690	0.051500	0.006018
C145	C	0.947507	-0.427019	-0.520775
C146	C	1.447507	0.072981	-0.020775
H147	H	0.958893	-0.365412	-0.549038
H148	H	1.458893	0.134588	-0.049038
H149	H	0.994330	-0.415500	-0.460678
H150	H	1.494330	0.084500	0.039322
H151	H	0.961928	-0.482772	-0.574274
H152	H	1.461928	0.017228	-0.074274
H153	H	1.280735	-0.207823	-1.068287
H154	H	1.780735	0.292177	-0.568287
O155	O	0.830125	-0.277336	-0.707768
O156	O	1.330125	0.222664	-0.207768
C157	C	0.870041	-0.329345	-0.775691
C158	C	1.370041	0.170655	-0.275691
H159	H	0.837072	-0.400869	-0.779343
H160	H	1.337072	0.099131	-0.279343
H161	H	0.860547	-0.311482	-0.842548
H162	H	1.360547	0.188518	-0.342548
H163	H	0.944778	-0.317741	-0.760109
H164	H	1.444778	0.182259	-0.260109
O165	O	0.670710	-0.165189	-0.847315
O166	O	1.170710	0.334811	-0.347315
C167	C	0.604069	-0.134905	-0.885133
C168	C	1.104069	0.365095	-0.385133
H169	H	0.545119	-0.133853	-0.837919
H170	H	1.045119	0.366147	-0.337919
H171	H	0.633170	-0.066340	-0.896163
H172	H	1.133170	0.433660	-0.396163
H173	H	0.580030	-0.180029	-0.951894
H174	H	1.080030	0.319971	-0.451894
O175	O	0.425670	-0.374345	-0.586910
O176	O	0.925670	0.125655	-0.086910
C177	C	0.377979	-0.416318	-0.667368
C178	C	0.877979	0.083682	-0.167368
H179	H	0.422138	-0.453150	-0.714262
H180	H	0.922138	0.046850	-0.214262
H181	H	0.314876	-0.463993	-0.652514
H182	H	0.814876	0.036007	-0.152514
H183	H	0.358358	-0.365754	-0.700389
H184	H	0.858358	0.134246	-0.200389
H185	H	1.260042	-0.780028	-0.594174
H186	H	1.760042	-0.280028	-0.094174
H187	H	0.536519	-0.440025	-0.504720
H188	H	1.036519	0.059975	-0.004720
H189	H	0.681843	-0.465033	-0.473474
H190	H	1.181843	0.034967	0.026526
