data_functionalizedCrystal
_audit_creation_method	'MofGen! by Chris Wilmer'
_symmetry_space_group_name_H-M	'P1'
_symmetry_Int_Tables_number	1
_symmetry_cell_setting	triclinic
loop_
_symmetry_equiv_pos_as_xyz
  x,y,z
_cell_length_a	18.215407
_cell_length_b	12.827892
_cell_length_c	18.215399
_cell_angle_alpha	89.975972
_cell_angle_beta	89.982632
_cell_angle_gamma	90.012645
loop_
_atom_site_label
_atom_site_type_symbol
_atom_site_fract_x
_atom_site_fract_y
_atom_site_fract_z
Zn1	Zn	1.125121	-0.416115	-0.416088
Zn2	Zn	1.125051	-0.590874	-0.293030
Zn3	Zn	1.002054	-0.416140	-0.293040
Zn4	Zn	1.002041	-0.590807	-0.416060
O5	O	1.063567	-0.503484	-0.354554
O6	O	1.228096	-0.439315	-0.399771
O7	O	1.108711	-0.567734	-0.190047
O8	O	1.018414	-0.269901	-0.309379
O9	O	1.228044	-0.567710	-0.309361
O10	O	1.108831	-0.269882	-0.399781
O11	O	1.018346	-0.439358	-0.190054
O12	O	0.899068	-0.439292	-0.309352
O13	O	1.018392	-0.567595	-0.519048
O14	O	0.899058	-0.567619	-0.399734
O15	O	1.108819	-0.439250	-0.519068
O16	O	1.108698	-0.737101	-0.309334
O17	O	1.018323	-0.737052	-0.399724
C18	C	0.872360	-0.503452	-0.354541
C19	C	0.790562	-0.503463	-0.354553
C20	C	0.602394	-0.436746	-0.401704
C21	C	0.525535	-0.436755	-0.401707
C22	C	0.525492	-0.570252	-0.307417
C23	C	0.602349	-0.570237	-0.307412
C24	C	0.640798	-0.503485	-0.354559
C25	C	0.487082	-0.503509	-0.354567
C26	C	0.403748	-0.503519	-0.354570
C27	C	0.724137	-0.503473	-0.354556
C28	C	1.063521	-0.774994	-0.354541
C29	C	1.063569	-0.891147	-0.354559
C30	C	1.018838	-0.942942	-0.399254
C31	C	1.018887	-1.062992	-0.399275
C32	C	1.255520	-0.503517	-0.354568
C33	C	1.337318	-0.503531	-0.354573
C34	C	1.063612	-0.503412	-0.546507
C35	C	1.063631	-0.503381	-0.628306
C36	C	1.063632	-0.230914	-0.354584
C37	C	1.063660	-0.114761	-0.354597
C38	C	1.110733	-0.436489	-0.816512
C39	C	1.110742	-0.436459	-0.893371
C40	C	1.016580	-0.570112	-0.893338
C41	C	1.016569	-0.570136	-0.816481
C42	C	1.063649	-0.503327	-0.778070
C43	C	1.063670	-0.503272	-0.931786
C44	C	1.063679	-0.503239	-1.015120
C45	C	1.063639	-0.503357	-0.694731
C46	C	1.063564	-0.503480	-0.163348
C47	C	1.063688	-0.503217	-0.081550
H48	H	0.494270	-0.382407	-0.440096
O49	O	1.114344	-0.950130	-0.303889
H50	H	1.147099	-0.893927	-0.271141
H51	H	1.149081	-0.382032	-0.924667
O52	O	0.643865	-0.364746	-0.452550
H53	H	0.678876	-0.311522	-0.419668
H54	H	0.980503	-0.898411	-0.437502
H55	H	1.149067	-0.382086	-0.785240
O56	O	0.965803	-0.642171	-0.934766
H57	H	0.973724	-0.630932	-0.994669
O58	O	0.484022	-0.642247	-0.256567
H59	H	0.449020	-0.695488	-0.289444
H60	H	0.978222	-0.624562	-0.785180
O61	O	0.643780	-0.642219	-0.256558
H62	H	0.604133	-0.688648	-0.223781
O63	O	0.968149	-1.121980	-0.449960
H64	H	0.976142	-1.207014	-0.442015
H65	H	1.101961	-1.070226	-0.316332
