data_functionalizedCrystal
_audit_creation_method	'MofGen! by Chris Wilmer'
_symmetry_space_group_name_H-M	'P1'
_symmetry_Int_Tables_number	1
_symmetry_cell_setting	triclinic
loop_
_symmetry_equiv_pos_as_xyz
  x,y,z
_cell_length_a	19.077115
_cell_length_b	12.827892
_cell_length_c	19.076929
_cell_angle_alpha	87.724508
_cell_angle_beta	90.078973
_cell_angle_gamma	92.286054
loop_
_atom_site_label
_atom_site_type_symbol
_atom_site_fract_x
_atom_site_fract_y
_atom_site_fract_z
Zn1	Zn	1.058294	0.505528	-0.440443
Zn2	Zn	1.062952	0.673562	-0.322950
Zn3	Zn	0.945515	0.491538	-0.318237
Zn4	Zn	0.940769	0.672923	-0.435703
O5	O	1.001882	0.585888	-0.379333
O6	O	1.157244	0.533940	-0.428813
O7	O	1.051309	0.643829	-0.223993
O8	O	0.960512	0.347161	-0.334460
O9	O	1.160666	0.657394	-0.342491
O10	O	1.043370	0.357439	-0.424244
O11	O	0.965029	0.510097	-0.220531
O12	O	0.846553	0.509477	-0.329864
O13	O	0.952423	0.656306	-0.534664
O14	O	0.843067	0.642740	-0.416165
O15	O	1.038768	0.533321	-0.538146
O16	O	1.046707	0.819711	-0.337895
O17	O	0.956940	0.819241	-0.420735
C18	C	0.819314	0.574522	-0.371989
C19	C	0.741209	0.569686	-0.368864
C20	C	0.301757	0.534954	-0.346456
C21	C	0.375144	0.539504	-0.349396
C22	C	0.410041	0.611268	-0.395726
C23	C	0.371547	0.678479	-0.439124
C24	C	0.298161	0.673923	-0.436187
C25	C	0.629329	0.632340	-0.409324
C26	C	0.702720	0.636894	-0.412257
C27	C	0.706312	0.497917	-0.322530
C28	C	0.632925	0.493372	-0.319594
C29	C	0.594437	0.560579	-0.362994
N30	N	0.485055	0.615923	-0.398731
N31	N	0.519425	0.555918	-0.359992
C32	C	1.001832	0.857395	-0.379328
C33	C	1.001874	0.973552	-0.379352
C34	C	1.046341	1.025540	-0.338412
C35	C	1.046386	1.145594	-0.338435
C36	C	1.185164	0.597299	-0.386707
C37	C	1.263268	0.602162	-0.389849
C38	C	0.994547	0.596303	-0.562614
C39	C	0.991421	0.600741	-0.640717
C40	C	1.001945	1.313323	-0.379363
C41	C	1.001956	1.197173	-0.379397
C42	C	0.969005	0.632655	-1.080162
C43	C	0.971939	0.628469	-1.006775
C44	C	1.018365	0.562351	-0.971899
C45	C	1.061854	0.500407	-1.010412
C46	C	1.058916	0.504587	-1.083797
C47	C	1.031971	0.542977	-0.752616
C48	C	1.034908	0.538803	-0.679226
C49	C	0.944992	0.666865	-0.675594
C50	C	0.942060	0.671044	-0.748980
C51	C	0.985547	0.609096	-0.787487
N52	N	1.021367	0.558074	-0.896886
N53	N	0.982540	0.613368	-0.862498
C54	C	1.009230	0.575441	-0.196767
C55	C	1.012492	0.570717	-0.118670
H56	H	0.406479	0.484781	-0.314058
O57	O	0.923944	0.697027	-1.113961
C58	C	0.939999	0.801115	-1.096643
H59	H	0.969146	0.801928	-1.044448
H60	H	0.974461	0.840920	-1.139394
C61	C	0.835815	0.858949	-1.154589
C62	C	0.871608	0.859948	-1.090480
H63	H	0.793628	0.895243	-1.150790
H64	H	0.824999	0.788824	-1.166259
H65	H	0.864540	0.892118	-1.190209
H66	H	0.842886	0.826768	-1.054864
H67	H	0.882417	0.930069	-1.078804
H68	H	1.099652	0.446567	-0.982010
H69	H	1.067385	0.492540	-0.783960
O70	O	1.091801	1.199088	-0.296705
C71	C	1.081742	1.307047	-0.306026
H72	H	1.056481	1.323484	-0.359307
H73	H	1.046046	1.333428	-0.262820
C74	C	1.184121	1.346948	-0.237159
C75	C	1.153101	1.367137	-0.302602
H76	H	1.228137	1.384016	-0.235043
H77	H	1.190897	1.274214	-0.230876
H78	H	1.154368	1.368933	-0.201161
H79	H	1.182850	1.345141	-0.338598
H80	H	1.146332	1.439869	-0.308891
H81	H	0.604517	0.434942	-0.281862
H82	H	1.084382	0.981172	-0.303346
H83	H	0.731131	0.695333	-0.449988
O84	O	0.956469	1.144012	-0.421238
C85	C	0.915182	1.215289	-0.459344
H86	H	0.913902	1.291356	-0.430524
H87	H	0.938735	1.231428	-0.513773
C88	C	0.841569	1.075167	-0.501771
C89	C	0.839991	1.168591	-0.466371
H90	H	0.795188	1.046361	-0.506109
H91	H	0.869386	1.027145	-0.476101
H92	H	0.861199	1.088629	-0.547125
H93	H	0.820369	1.155126	-0.421015
H94	H	0.812169	1.216610	-0.492033
H95	H	0.273349	0.476517	-0.308728
H96	H	0.909587	0.717298	-0.644233
O97	O	0.743780	0.432781	-0.280347
C98	C	0.788016	0.492217	-0.236579
H99	H	0.798012	0.573557	-0.261709
H100	H	0.761805	0.498856	-0.183359
C101	C	0.845961	0.338396	-0.195848
C102	C	0.858244	0.438296	-0.226716
H103	H	0.889281	0.305133	-0.189761
H104	H	0.816157	0.298351	-0.225333
H105	H	0.824118	0.343942	-0.151502
H106	H	0.880079	0.432747	-0.271065
H107	H	0.888054	0.478338	-0.197238
O108	O	0.929793	0.688692	-0.969301
C109	C	0.971472	0.756284	-0.928462
H110	H	1.025173	0.722122	-0.919604
H111	H	0.978043	0.835814	-0.957047
C112	C	0.869626	0.810789	-0.868082
C113	C	0.935580	0.768827	-0.857198
H114	H	0.847485	0.818532	-0.824124
H115	H	0.841545	0.765255	-0.895598
H116	H	0.875111	0.877060	-0.891904
H117	H	0.930094	0.702553	-0.833384
H118	H	0.963660	0.814351	-0.829676
H119	H	0.598001	0.687069	-0.444661
H120	H	1.072713	0.484956	-0.650832
H121	H	1.094325	0.454147	-1.115150
H122	H	0.399966	0.736906	-0.476850
H123	H	0.963840	1.017923	-0.414423
H124	H	0.266824	0.728648	-0.471524
H125	H	0.904256	0.724885	-0.777372
