data_functionalizedCrystal
_audit_creation_method	'MofGen! by Chris Wilmer'
_symmetry_space_group_name_H-M	'P1'
_symmetry_Int_Tables_number	1
_symmetry_cell_setting	triclinic
loop_
_symmetry_equiv_pos_as_xyz
  x,y,z
_cell_length_a	10.686220
_cell_length_b	14.908178
_cell_length_c	10.686551
_cell_angle_alpha	97.435690
_cell_angle_beta	89.691918
_cell_angle_gamma	97.932243
loop_
_atom_site_label
_atom_site_type_symbol
_atom_site_fract_x
_atom_site_fract_y
_atom_site_fract_z
Zn1	Zn	1.953096	-0.221918	0.545917
Zn2	Zn	1.922619	-0.386673	0.323932
Zn3	Zn	1.725201	-0.245203	0.350507
Zn4	Zn	1.729209	-0.384828	0.549847
O5	O	1.832531	-0.309656	0.442551
O6	O	2.125371	-0.234800	0.503704
O7	O	1.881999	-0.378424	0.151131
O8	O	1.766509	-0.114731	0.385906
O9	O	2.102980	-0.355845	0.340613
O10	O	1.933943	-0.097623	0.529473
O11	O	1.736957	-0.274487	0.170656
O12	O	1.549415	-0.272698	0.389716
O13	O	1.773340	-0.352701	0.725651
O14	O	1.552359	-0.375280	0.536170
O15	O	1.937829	-0.233012	0.722765
O16	O	1.885886	-0.513812	0.344423
O17	O	1.743788	-0.512457	0.510402
C18	C	1.505170	-0.326316	0.466254
C19	C	1.365124	-0.333464	0.476422
C20	C	1.812001	-0.546160	0.424980
C21	C	1.803336	-0.647329	0.417497
C22	C	1.961296	-0.819469	0.553114
C23	C	1.953160	-0.914526	0.546087
C24	C	1.778923	-0.932502	0.396423
C25	C	1.787059	-0.837445	0.403450
C26	C	1.878250	-0.780931	0.481797
C27	C	1.886391	-0.685873	0.488816
C28	C	1.712149	-0.703850	0.339161
C29	C	1.704013	-0.798907	0.332133
C30	C	2.161171	-0.292931	0.418756
C31	C	2.301218	-0.285804	0.408616
C32	C	1.859431	-0.290053	0.771206
C33	C	1.870895	-0.281699	0.911259
C34	C	1.853179	-0.072224	0.460215
C35	C	1.861977	0.028955	0.467743
C36	C	1.805814	-0.329113	0.115174
C37	C	1.794617	-0.337197	-0.024877
H38	H	1.960646	-0.639860	0.552606
H39	H	1.720547	-0.391104	0.922654
C40	C	1.970975	-0.208871	0.982135
C41	C	1.982695	-0.200333	1.126884
C42	C	2.082773	-0.127506	1.197760
C43	C	2.171132	-0.063218	1.123888
C44	C	2.159415	-0.071754	0.979131
C45	C	2.059337	-0.144581	0.908255
H46	H	1.917283	-0.247925	1.181576
H47	H	2.091446	-0.121187	1.304919
H48	H	2.245216	-0.009307	1.176355
H49	H	2.224827	-0.024162	0.924439
H50	H	2.050664	-0.150899	0.801096
H51	H	2.020779	-0.945898	0.604167
H52	H	1.353645	-0.239533	0.342784
H53	H	2.035555	-0.773454	0.616897
C54	C	1.294302	-0.395984	0.565359
C55	C	1.149560	-0.403293	0.575749
C56	C	1.078739	-0.465812	0.664684
C57	C	1.152659	-0.521021	0.743230
C58	C	1.297410	-0.513713	0.732843
C59	C	1.368231	-0.451194	0.643908
H60	H	1.094832	-0.362423	0.517602
H61	H	0.971585	-0.471222	0.672373
H62	H	1.100233	-0.567301	0.809065
H63	H	1.352138	-0.554584	0.790990
H64	H	1.475385	-0.445785	0.636219
H65	H	1.629766	-0.844933	0.268349
C66	C	1.678628	-0.994682	0.310247
C67	C	1.678433	-0.989674	0.167220
C68	C	1.578142	-1.051857	0.081040
C69	C	1.478046	-1.119048	0.137887
C70	C	1.478236	-1.124058	0.280922
C71	C	1.578527	-1.061875	0.367102
H72	H	1.752534	-0.939933	0.125132
H73	H	1.578002	-1.048148	-0.024843
H74	H	1.403804	-1.165079	0.074092
H75	H	1.404135	-1.173799	0.323010
H76	H	1.578668	-1.065584	0.472985
C77	C	1.620798	-0.661459	0.260697
C78	C	1.629750	-0.556901	0.268410
C79	C	1.538409	-0.514509	0.189940
C80	C	1.438115	-0.576675	0.103756
C81	C	1.429159	-0.681240	0.096039
C82	C	1.520500	-0.723632	0.174510
H83	H	1.703997	-0.510876	0.332212
H84	H	1.545040	-0.437103	0.195653
H85	H	1.370499	-0.545295	0.045668
H86	H	1.354912	-0.727265	0.032238
H87	H	1.513869	-0.801037	0.168796
