data_functionalizedCrystal
_audit_creation_method	'MofGen! by Chris Wilmer'
_symmetry_space_group_name_H-M	'P1'
_symmetry_Int_Tables_number	1
_symmetry_cell_setting	triclinic
loop_
_symmetry_equiv_pos_as_xyz
  x,y,z
_cell_length_a	19.288864
_cell_length_b	17.699083
_cell_length_c	17.766277
_cell_angle_alpha	90.006111
_cell_angle_beta	90.023245
_cell_angle_gamma	83.209630
loop_
_atom_site_label
_atom_site_type_symbol
_atom_site_fract_x
_atom_site_fract_y
_atom_site_fract_z
O1	O	0.921465	0.094416	0.062837
O2	O	1.421465	0.594416	0.562837
O3	O	0.719219	0.107153	0.062786
O4	O	1.219219	0.607153	0.562786
O5	O	0.826056	-0.009413	0.062806
O6	O	1.326056	0.490587	0.562806
O7	O	0.814628	0.210982	0.062817
O8	O	1.314628	0.710982	0.562817
O9	O	0.826037	-0.009416	-0.062382
O10	O	1.326037	0.490584	0.437618
O11	O	0.719200	0.107149	-0.062403
O12	O	1.219200	0.607149	0.437597
O13	O	0.921446	0.094413	-0.062351
O14	O	1.421446	0.594413	0.437649
Cu15	Cu	0.820321	0.100781	-0.073808
Cu16	Cu	1.320321	0.600781	0.426192
Cu17	Cu	0.820344	0.100785	0.074242
Cu18	Cu	1.320344	0.600785	0.574242
O19	O	0.814609	0.210978	-0.062372
O20	O	1.314609	0.710978	0.437628
C21	C	0.693333	0.106741	0.000185
C22	C	1.193333	0.606741	0.500185
C23	C	0.616228	0.105511	0.000165
C24	C	1.116228	0.605511	0.500165
C25	C	0.571613	0.173906	0.000180
C26	C	1.071613	0.673906	0.500180
C27	C	0.499164	0.172751	0.000188
C28	C	0.999164	0.672751	0.500188
C29	C	0.471334	0.103196	0.000197
C30	C	0.971334	0.603196	0.500197
C31	C	0.515959	0.034791	0.000177
C32	C	1.015959	0.534791	0.500177
C33	C	0.588406	0.035949	0.000162
C34	C	1.088406	0.535949	0.500162
C35	C	0.363014	0.048519	0.044079
C36	C	0.863014	0.548519	0.544079
C37	C	0.290568	0.047364	0.044099
C38	C	0.790568	0.547364	0.544099
C39	C	0.247884	0.099622	0.000242
C40	C	0.747884	0.599622	0.500242
C41	C	0.277654	0.153048	-0.043625
C42	C	0.777654	0.653048	0.456375
C43	C	0.350101	0.154205	-0.043641
C44	C	0.850101	0.654205	0.456359
C45	C	0.392779	0.101932	0.000213
C46	C	0.892779	0.601932	0.500213
C47	C	0.124712	0.166769	0.000265
C48	C	0.624712	0.666769	0.500265
C49	C	0.052262	0.165610	0.000269
C50	C	0.552262	0.665610	0.500269
C51	C	0.069059	0.027649	0.000265
C52	C	0.569059	0.527649	0.500265
C53	C	0.141507	0.028809	0.000254
C54	C	0.641507	0.528809	0.500254
C55	C	0.169329	0.098371	0.000258
C56	C	0.669329	0.598371	0.500258
C57	C	0.825637	-0.037611	0.000212
C58	C	1.325637	0.462389	0.500212
C59	C	0.824409	-0.121627	0.000211
C60	C	1.324409	0.378373	0.500211
C61	C	0.887120	-0.170336	0.000226
C62	C	1.387120	0.329664	0.500226
C63	C	0.885961	-0.249278	0.000232
C64	C	1.385961	0.250722	0.500232
C65	C	0.822091	-0.279509	0.000219
C66	C	1.322091	0.220491	0.500219
C67	C	0.759375	-0.230794	0.000206
C68	C	1.259375	0.269206	0.500206
C69	C	0.760535	-0.151854	0.000205
C70	C	1.260535	0.348146	0.500205
C71	C	0.754699	-0.549150	0.000211
C72	C	1.254699	-0.049150	0.500211
C73	C	0.753545	-0.628097	0.000210
C74	C	1.253545	-0.128097	0.500210
C75	C	0.880126	-0.646575	0.000238
C76	C	1.380126	-0.146575	0.500238
C77	C	0.881285	-0.567635	0.000237
C78	C	1.381285	-0.067635	0.500237
C79	C	0.818570	-0.518926	0.000229
C80	C	1.318570	-0.018926	0.500229
C81	C	0.819827	-0.433329	0.000223
C82	C	1.319827	0.066671	0.500223
C83	C	0.820834	-0.365105	0.000219
C84	C	1.320834	0.134895	0.500219
C85	C	0.947332	0.094824	0.000251
C86	C	1.447332	0.594824	0.500251
C87	C	1.024437	0.096054	0.000276
C88	C	1.524437	0.596054	0.500276
C89	C	0.815028	0.239176	0.000224
C90	C	1.315028	0.739176	0.500224
C91	C	0.816257	0.323193	0.000230
C92	C	1.316257	0.823193	0.500230
N93	N	0.820311	0.100777	-0.177938
N94	N	1.320311	0.600777	0.322062
C95	C	0.862352	0.146569	-0.217305
C96	C	1.362352	0.646569	0.282695
C97	C	0.862363	0.146567	-0.296107
C98	C	1.362363	0.646567	0.203893
C99	C	0.820320	0.100782	-0.335539
C100	C	1.320320	0.600782	0.164461
C101	C	0.778275	0.054981	-0.296162
C102	C	1.278275	0.554981	0.203838
C103	C	0.778271	0.054979	-0.217362
C104	C	1.278271	0.554979	0.282638
C105	C	0.757705	0.098868	-0.460414
C106	C	1.257705	0.598868	0.039586
C107	C	0.757708	0.098875	-0.539213
C108	C	1.257708	0.598875	-0.039213
C109	C	0.820334	0.100784	-0.578585
C110	C	1.320334	0.600784	-0.078585
C111	C	0.882958	0.102702	-0.539149
C112	C	1.382958	0.602702	-0.039149
C113	C	0.882954	0.102699	-0.460348
C114	C	1.382954	0.602699	0.039652
C115	C	0.820320	0.100779	-0.420984
C116	C	1.320320	0.600779	0.079016
C117	C	0.862391	0.146576	-0.703398
C118	C	1.362391	0.646576	-0.203398
C119	C	0.862403	0.146568	-0.782201
C120	C	1.362403	0.646568	-0.282201
C121	C	0.778309	0.054987	-0.782255
C122	C	1.278309	0.554987	-0.282255
C123	C	0.778303	0.054990	-0.703453
C124	C	1.278303	0.554990	-0.203453
C125	C	0.820343	0.100789	-0.664029
C126	C	1.320343	0.600789	-0.164029
N127	N	0.820360	0.100782	0.178372
N128	N	1.320360	0.600782	0.678372
H129	H	0.242902	0.195601	-0.079339
H130	H	0.742902	0.695601	0.420661
H131	H	0.744034	0.017689	-0.185310
H132	H	1.244034	0.517689	0.314690
H133	H	0.706703	0.097318	-0.428364
H134	H	1.206703	0.597318	0.071636
H135	H	0.703632	-0.509501	0.000204
H136	H	1.203632	-0.009501	0.500204
H137	H	0.374336	0.197704	-0.079362
H138	H	0.874336	0.697704	0.420638
C139	C	0.602213	0.250421	0.000170
C140	C	1.102213	0.750421	0.500170
H141	H	0.565261	0.290990	0.000173
H142	H	1.065261	0.790990	0.500173
H143	H	0.630153	0.253747	0.043817
H144	H	1.130153	0.753747	0.543817
H145	H	0.630097	0.253737	-0.043501
H146	H	1.130097	0.753737	0.456499
H147	H	0.707371	-0.255414	0.000199
H148	H	1.207371	0.244586	0.500199
H149	H	0.493296	-0.021841	0.000195
H150	H	0.993296	0.478159	0.500195
C151	C	0.951835	0.104797	-0.416971
C152	C	1.451835	0.604797	0.083029
H153	H	0.989137	0.105929	-0.451700
H154	H	1.489137	0.605929	0.048300
H155	H	0.948538	0.148988	-0.386223
H156	H	1.448538	0.648988	0.113777
H157	H	0.960331	0.060753	-0.386236
H158	H	1.460331	0.560753	0.113764
C159	C	0.155319	0.243282	0.000261
C160	C	0.655319	0.743282	0.500261
H161	H	0.118368	0.283852	0.000261
H162	H	0.618368	0.783852	0.500261
H163	H	0.183253	0.246604	0.043913
H164	H	0.683253	0.746604	0.543913
H165	H	0.183209	0.246599	-0.043405
H166	H	0.683209	0.746599	0.456595
H167	H	0.896644	0.183855	-0.814253
H168	H	1.396644	0.683855	-0.314253
H169	H	0.933295	-0.543025	0.000245
H170	H	1.433295	-0.043025	0.500245
H171	H	0.397762	0.005962	0.079797
H172	H	0.897762	0.505962	0.579797
C173	C	0.908636	0.196943	-0.660025
C174	C	1.408636	0.696943	-0.160025
H175	H	0.902605	0.190392	-0.607456
H176	H	1.402605	0.690392	-0.107456
H177	H	0.956184	0.182750	-0.672914
H178	H	1.456184	0.682750	-0.172914
H179	H	0.895638	0.248769	-0.672942
H180	H	1.395638	0.748769	-0.172942
C181	C	0.637485	-0.039289	0.000154
C182	C	1.137485	0.460711	0.500154
H183	H	0.610538	-0.080881	0.000164
H184	H	1.110538	0.419119	0.500164
H185	H	0.666076	-0.041708	-0.043505
H186	H	1.166076	0.458292	0.456495
H187	H	0.666114	-0.041700	0.043813
H188	H	1.166114	0.458300	0.543813
H189	H	0.744065	0.017705	-0.671400
H190	H	1.244065	0.517705	-0.171400
H191	H	0.046401	-0.028984	0.000319
H192	H	0.546401	0.471016	0.500319
H193	H	0.015936	0.221308	0.000277
H194	H	0.515936	0.721308	0.500277
H195	H	0.462831	0.228448	0.000199
H196	H	0.962831	0.728448	0.500199
H197	H	0.701531	-0.652707	0.000197
H198	H	1.201531	-0.152707	0.500197
C199	C	0.732061	0.004625	-0.825620
C200	C	1.232061	0.504625	-0.325620
H201	H	0.738082	0.011187	-0.878190
H202	H	1.238082	0.511187	-0.378190
H203	H	0.745053	-0.047198	-0.812706
H204	H	1.245053	0.452802	-0.312706
H205	H	0.684511	0.018826	-0.812729
H206	H	1.184511	0.518826	-0.312729
C207	C	0.957378	-0.137089	0.000241
C208	C	1.457378	0.362911	0.500241
H209	H	0.994559	-0.177408	0.000258
H210	H	1.494559	0.322592	0.500258
H211	H	0.960457	-0.106683	-0.043414
H212	H	1.460457	0.393317	0.456586
H213	H	0.960467	-0.106676	0.043904
H214	H	1.460467	0.393324	0.543904
C215	C	0.190586	-0.046427	0.000249
C216	C	0.690586	0.453573	0.500249
H217	H	0.163638	-0.088018	0.000262
H218	H	0.663638	0.411982	0.500262
H219	H	0.219175	-0.048846	-0.043411
H220	H	0.719175	0.451154	0.456589
H221	H	0.219218	-0.048838	0.043906
H222	H	0.719218	0.451162	0.543906
C223	C	0.257824	-0.011395	0.092354
C224	C	0.757824	0.488605	0.592354
H225	H	0.208564	-0.004594	0.086091
H226	H	0.708564	0.495406	0.586091
H227	H	0.275781	-0.061282	0.076929
H228	H	0.775781	0.438718	0.576929
H229	H	0.268919	-0.004549	0.143820
H230	H	0.768919	0.495451	0.643820
C231	C	0.688830	0.096734	-0.582586
C232	C	1.188830	0.596734	-0.082586
H233	H	0.651535	0.095573	-0.547853
H234	H	1.151535	0.595573	-0.047853
H235	H	0.680305	0.140760	-0.613335
H236	H	1.180305	0.640760	-0.113335
H237	H	0.692155	0.052527	-0.613319
H238	H	1.192155	0.552527	-0.113319
H239	H	0.744044	0.017702	-0.328272
H240	H	1.244044	0.517702	0.171728
C241	C	0.954941	-0.302858	0.000256
C242	C	1.454941	0.197142	0.500256
H243	H	0.945106	-0.354202	0.000267
H244	H	1.445106	0.145798	0.500267
H245	H	0.981134	-0.293729	-0.043392
H246	H	1.481134	0.206271	0.456608
H247	H	0.981138	-0.293706	0.043926
H248	H	1.481138	0.206294	0.543926
C249	C	0.949113	-0.700156	0.000260
C250	C	1.449113	-0.200156	0.500260
H251	H	0.939279	-0.751500	0.000268
H252	H	1.439279	-0.251500	0.500268
H253	H	0.975302	-0.691022	-0.043390
H254	H	1.475302	-0.191022	0.456610
H255	H	0.975313	-0.691007	0.043928
H256	H	1.475313	-0.191007	0.543928
C257	C	0.691555	-0.098270	0.000189
C258	C	1.191555	0.401730	0.500189
H259	H	0.701392	-0.046927	0.000198
H260	H	1.201392	0.453073	0.500198
H261	H	0.665349	-0.107412	-0.043471
H262	H	1.165349	0.392588	0.456529
H263	H	0.665370	-0.107408	0.043846
H264	H	1.165370	0.392592	0.543846
C265	C	0.908600	0.196939	-0.173943
C266	C	1.408600	0.696939	0.326057
H267	H	0.933644	0.224206	-0.208680
H268	H	1.433644	0.724206	0.291320
H269	H	0.880077	0.231849	-0.143211
H270	H	1.380077	0.731849	0.356789
H271	H	0.940622	0.165829	-0.143194
H272	H	1.440622	0.665829	0.356806
C273	C	0.951853	0.104785	-0.582447
C274	C	1.451853	0.604785	-0.082447
H275	H	0.942891	0.104498	-0.635025
H276	H	1.442891	0.604498	-0.135025
H277	H	0.971693	0.149680	-0.569524
H278	H	1.471693	0.649680	-0.069524
H279	H	0.983474	0.061445	-0.569513
H280	H	1.483474	0.561445	-0.069513
C281	C	0.908607	0.196940	-0.339423
C282	C	1.408607	0.696940	0.160577
H283	H	0.902591	0.190378	-0.392000
H284	H	1.402591	0.690378	0.108000
H285	H	0.895609	0.248762	-0.326509
H286	H	1.395609	0.748762	0.173491
H287	H	0.956157	0.182745	-0.326490
H288	H	1.456157	0.682745	0.173510
