data_functionalizedCrystal
_audit_creation_method	'MofGen! by Chris Wilmer'
_symmetry_space_group_name_H-M	'P1'
_symmetry_Int_Tables_number	1
_symmetry_cell_setting	triclinic
loop_
_symmetry_equiv_pos_as_xyz
  x,y,z
_cell_length_a	12.759395
_cell_length_b	16.120484
_cell_length_c	12.759387
_cell_angle_alpha	92.863831
_cell_angle_beta	89.982006
_cell_angle_gamma	92.925231
loop_
_atom_site_label
_atom_site_type_symbol
_atom_site_fract_x
_atom_site_fract_y
_atom_site_fract_z
Zn1	Zn	1.584969	-0.331868	-0.615139
Zn2	Zn	2.084969	0.168132	-0.115139
Zn3	Zn	1.575921	-0.471304	-0.448352
Zn4	Zn	2.075921	0.028696	0.051648
Zn5	Zn	1.409269	-0.331909	-0.439482
Zn6	Zn	1.909269	0.168091	0.060518
Zn7	Zn	1.400321	-0.471241	-0.623990
Zn8	Zn	1.900321	0.028759	-0.123990
O9	O	1.492620	-0.401580	-0.531741
O10	O	1.992620	0.098420	-0.031741
O11	O	1.730789	-0.350374	-0.593023
O12	O	2.230789	0.149626	-0.093023
O13	O	1.553773	-0.452856	-0.300157
O14	O	2.053773	0.047144	0.199843
O15	O	1.440107	-0.215238	-0.455367
O16	O	1.940107	0.284762	0.044633
O17	O	1.724142	-0.452816	-0.470485
O18	O	2.224142	0.047184	0.029515
O19	O	1.569194	-0.215208	-0.584422
O20	O	2.069194	0.284792	-0.084422
O21	O	1.431334	-0.350443	-0.293640
O22	O	1.931334	0.149557	0.206360
O23	O	1.261062	-0.350382	-0.463950
O24	O	1.761062	0.149618	0.036050
O25	O	1.424856	-0.452710	-0.769835
O26	O	1.924856	0.047290	-0.269835
O27	O	1.254487	-0.452749	-0.599507
O28	O	1.754487	0.047251	-0.099507
O29	O	1.560517	-0.350313	-0.763332
O30	O	2.060517	0.149687	-0.263332
O31	O	1.545096	-0.587961	-0.479067
O32	O	2.045096	-0.087961	0.020933
O33	O	1.416083	-0.587915	-0.608108
O34	O	1.916083	-0.087915	-0.108108
C35	C	1.219654	-0.401564	-0.531727
C36	C	1.719654	0.098436	-0.031727
C37	C	1.102876	-0.401577	-0.531747
C38	C	1.602876	0.098423	-0.031747
C39	C	1.109768	-0.295076	-0.659574
C40	C	1.609768	0.204924	-0.159574
C41	C	1.058352	-0.241835	-0.723497
C42	C	1.558352	0.258165	-0.223497
C43	C	0.948629	-0.241850	-0.723511
C44	C	1.448629	0.258150	-0.223511
C45	C	0.890320	-0.295109	-0.659593
C46	C	1.390320	0.204891	-0.159593
C47	C	0.941735	-0.348350	-0.595670
C48	C	1.441735	0.151650	-0.095670
C49	C	1.051461	-0.348331	-0.595666
C50	C	1.551461	0.151669	-0.095666
C51	C	0.934844	-0.454845	-0.467840
C52	C	1.434844	0.045155	0.032160
C53	C	1.044566	-0.454836	-0.467830
C54	C	1.544566	0.045164	0.032170
C55	C	0.876535	-0.508105	-0.403922
C56	C	1.376535	-0.008105	0.096078
C57	C	0.927950	-0.561350	-0.340003
C58	C	1.427950	-0.061350	0.159997
C59	C	1.037679	-0.561334	-0.339993
C60	C	1.537679	-0.061334	0.160007
C61	C	1.095982	-0.508076	-0.403907
C62	C	1.595982	-0.008076	0.096093
C63	C	1.478665	-0.618188	-0.545534
C64	C	1.978665	-0.118188	-0.045534
C65	C	1.472792	-0.710853	-0.551469
C66	C	1.972792	-0.210853	-0.051469
C67	C	1.462074	-0.880514	-0.562328
C68	C	1.962074	-0.380514	-0.062328
C69	C	1.523355	-0.921806	-0.501172
C70	C	2.023355	-0.421806	-0.001172
C71	C	1.517391	-1.016211	-0.507213
C72	C	2.017391	-0.516211	-0.007213
C73	C	1.468036	-0.786100	-0.556287
C74	C	1.968036	-0.286100	-0.056287
C75	C	1.766652	-0.401598	-0.531756
C76	C	2.266652	0.098402	-0.031756
C77	C	1.883429	-0.401605	-0.531762
C78	C	2.383429	0.098395	-0.031762
C79	C	1.492698	-0.401500	-0.805769
C80	C	1.992698	0.098500	-0.305769
C81	C	1.492731	-0.401466	-0.922544
C82	C	1.992731	0.098534	-0.422544
C83	C	1.506658	-0.184127	-0.517918
C84	C	2.006658	0.315873	-0.017918
C85	C	1.512640	-0.091462	-0.512027
C86	C	2.012640	0.408538	-0.012027
C87	C	1.634064	-0.294781	-1.135212
C88	C	2.134064	0.205219	-0.635212
C89	C	1.704681	-0.241484	-1.076966
C90	C	2.204681	0.258516	-0.576966
C91	C	1.704650	-0.241512	-0.967246
C92	C	2.204650	0.258488	-0.467246
C93	C	1.633996	-0.294844	-0.915770
C94	C	2.133996	0.205156	-0.415770
C95	C	1.563379	-0.348141	-0.974017
C96	C	2.063379	0.151859	-0.474017
C97	C	1.563416	-0.348106	-1.083739
C98	C	2.063416	0.151894	-0.583739
C99	C	1.422114	-0.454762	-0.980791
C100	C	1.922114	0.045238	-0.480791
C101	C	1.422139	-0.454732	-1.090511
C102	C	1.922139	0.045268	-0.590511
C103	C	1.351460	-0.508095	-0.929316
C104	C	1.851460	-0.008095	-0.429316
C105	C	1.280837	-0.561389	-0.987562
C106	C	1.780837	-0.061389	-0.487562
C107	C	1.280870	-0.561358	-1.097289
C108	C	1.780870	-0.061358	-0.597289
C109	C	1.351522	-0.508029	-1.148757
C110	C	1.851522	-0.008029	-0.648757
C111	C	1.492607	-0.401600	-0.258775
C112	C	1.992607	0.098400	0.241225
C113	C	1.492793	-0.401400	-0.141986
C114	C	1.992793	0.098600	0.358014
H115	H	1.105840	-0.198471	-0.775535
H116	H	1.605840	0.301529	-0.275535
Cl117	Cl	1.634092	-0.294727	-1.273146
Cl118	Cl	2.134092	0.205273	-0.773146
Cl119	Cl	1.633971	-0.294888	-0.777836
Cl120	Cl	2.133971	0.205112	-0.277836
Cl121	Cl	1.611267	-0.866925	-0.413325
Cl122	Cl	2.111267	-0.366925	0.086675
H123	H	0.906768	-0.198492	-0.775555
H124	H	1.406768	0.301508	-0.275555
H125	H	1.351550	-0.507993	-1.238096
H126	H	1.851550	-0.007993	-0.738096
Cl127	Cl	1.374160	-0.935396	-0.650161
Cl128	Cl	1.874160	-0.435396	-0.150161
H129	H	1.762208	-0.198064	-1.118889
H130	H	2.262208	0.301936	-0.618889
Cl131	Cl	1.793431	-0.174515	-0.894018
Cl132	Cl	2.293431	0.325485	-0.394018
H133	H	1.351444	-0.508117	-0.839976
H134	H	1.851444	-0.008117	-0.339976
H135	H	1.199110	-0.295055	-0.659564
H136	H	1.699110	0.204945	-0.159564
H137	H	1.223321	-0.604811	-0.945643
H138	H	1.723321	-0.104811	-0.445643
H139	H	1.223369	-0.604762	-1.144707
H140	H	1.723369	-0.104762	-0.644707
H141	H	0.800979	-0.295110	-0.659601
H142	H	1.300979	0.204890	-0.159601
H143	H	0.787193	-0.508111	-0.403935
H144	H	1.287193	-0.008111	0.096065
H145	H	0.880466	-0.604706	-0.287962
H146	H	1.380466	-0.104706	0.212038
H147	H	1.079535	-0.604686	-0.287935
H148	H	1.579535	-0.104686	0.212065
H149	H	1.185325	-0.508054	-0.403899
H150	H	1.685325	-0.008054	0.096101
