data_functionalizedCrystal
_audit_creation_method	'MofGen! by Chris Wilmer'
_symmetry_space_group_name_H-M	'P1'
_symmetry_Int_Tables_number	1
_symmetry_cell_setting	triclinic
loop_
_symmetry_equiv_pos_as_xyz
  x,y,z
_cell_length_a	10.489741
_cell_length_b	23.532407
_cell_length_c	9.565339
_cell_angle_alpha	90.005411
_cell_angle_beta	89.994586
_cell_angle_gamma	83.693926
loop_
_atom_site_label
_atom_site_type_symbol
_atom_site_fract_x
_atom_site_fract_y
_atom_site_fract_z
O1	O	1.691370	0.080341	0.116190
O2	O	1.319924	0.087883	0.116213
O3	O	1.516848	0.001255	0.116175
O4	O	1.494446	0.166970	0.116228
O5	O	1.516856	0.001257	-0.116345
O6	O	1.319932	0.087886	-0.116307
O7	O	1.691379	0.080344	-0.116330
Zn8	Zn	1.505657	0.084115	-0.153236
Zn9	Zn	1.505645	0.084112	0.153119
O10	O	1.494454	0.166972	-0.116293
C11	C	1.272415	0.087315	-0.000045
C12	C	1.130842	0.085611	-0.000037
C13	C	1.516282	-0.019964	-0.000089
C14	C	1.514566	-0.083192	-0.000099
C15	C	1.064535	0.030491	-0.000067
C16	C	0.971538	0.056528	0.114582
C17	C	0.971580	0.056544	-0.114664
C18	C	1.039710	0.111670	0.114708
C19	C	1.039762	0.111678	-0.114642
C20	C	0.946792	0.137754	0.000036
C21	C	1.620344	-0.481594	-0.000029
C22	C	1.618751	-0.541005	-0.000019
O23	O	1.716808	-0.577100	0.000027
N24	N	1.501680	-0.564407	-0.000012
C25	C	1.386194	-0.528395	-0.000002
O26	O	1.286470	-0.553755	0.000005
C27	C	1.387789	-0.468985	-0.000003
C28	C	1.504868	-0.445587	-0.000024
C29	C	1.737414	-0.458195	-0.000048
C30	C	1.739007	-0.398788	-0.000062
C31	C	1.623530	-0.362781	-0.000056
C32	C	1.506460	-0.386180	-0.000037
C33	C	1.272305	-0.432974	0.000017
C34	C	1.273909	-0.373561	0.000017
C35	C	1.390988	-0.350162	-0.000003
C36	C	1.392576	-0.290766	-0.000045
N37	N	1.509648	-0.267364	-0.000051
C38	C	1.625125	-0.303371	-0.000057
C39	C	1.382854	-0.653160	0.000002
C40	C	1.381258	-0.712568	-0.000008
C41	C	1.613816	-0.725174	-0.000021
C42	C	1.615410	-0.665765	-0.000022
C43	C	1.499926	-0.629758	-0.000005
C44	C	1.628461	-0.178612	-0.000086
C45	C	1.630043	-0.119200	-0.000105
C46	C	1.397486	-0.106599	-0.000084
C47	C	1.395903	-0.166006	-0.000072
C48	C	1.511401	-0.202012	-0.000068
O49	O	1.294571	-0.254636	-0.000084
O50	O	1.724833	-0.278003	-0.000046
C51	C	1.738887	0.080912	-0.000070
C52	C	1.880460	0.082616	-0.000069
C53	C	1.495021	0.188191	-0.000026
C54	C	1.496736	0.251419	-0.000006
N55	N	1.505674	0.084117	-0.362316
C56	C	1.596773	0.044057	-0.453499
C57	C	1.481661	0.032524	-0.546666
C58	C	1.620741	0.095614	-0.546704
C59	C	1.390504	0.072558	-0.453431
C60	C	1.529659	0.135670	-0.453461
C61	C	1.414463	0.124158	-0.546586
N62	N	1.505639	0.084105	0.362198
H63	H	1.115731	-0.014820	0.000062
H64	H	1.707843	-0.754503	-0.000020
H65	H	1.293156	0.062780	-0.412633
H66	H	1.337325	0.158033	-0.587201
H67	H	1.550007	0.179260	-0.412489
Cl68	Cl	0.924847	0.020521	0.264216
H69	H	1.069760	0.134972	0.211745
Cl70	Cl	1.771000	0.110634	-0.609968
Cl71	Cl	0.868149	0.207784	0.000150
H72	H	1.070037	0.134982	-0.211562
H73	H	1.461349	-0.011079	-0.587608
H74	H	0.941381	0.033213	-0.211592
Cl75	Cl	1.234067	-0.741976	-0.000009
Cl76	Cl	1.715606	-0.008271	-0.390386
H77	H	1.725387	-0.100152	-0.000125
Cl78	Cl	1.773660	-0.223868	-0.000083
Cl79	Cl	1.882605	-0.503452	-0.000058
H80	H	1.710746	-0.646718	-0.000038
Cl81	Cl	1.886200	-0.369382	-0.000047
Cl82	Cl	1.252324	-0.061322	-0.000074
H83	H	1.288807	-0.623845	0.000004
H84	H	1.176967	-0.452014	0.000042
H85	H	1.179865	-0.344246	0.000033
Cl86	Cl	1.248717	-0.195422	-0.000073
