data_functionalizedCrystal
_audit_creation_method	'MofGen! by Chris Wilmer'
_symmetry_space_group_name_H-M	'P1'
_symmetry_Int_Tables_number	1
_symmetry_cell_setting	triclinic
loop_
_symmetry_equiv_pos_as_xyz
  x,y,z
_cell_length_a	12.837943
_cell_length_b	14.853567
_cell_length_c	11.295483
_cell_angle_alpha	94.104625
_cell_angle_beta	85.461227
_cell_angle_gamma	89.231935
loop_
_atom_site_label
_atom_site_type_symbol
_atom_site_fract_x
_atom_site_fract_y
_atom_site_fract_z
O1	O	1.382763	0.228927	-0.098984
O2	O	1.080941	0.217348	-0.098992
O3	O	1.239915	0.092592	-0.098991
O4	O	1.223790	0.353684	-0.098985
O5	O	1.225952	0.103530	0.099059
O6	O	1.066978	0.228287	0.099059
O7	O	1.368800	0.239866	0.099067
Cu8	Cu	1.216614	0.235075	0.117146
Cu9	Cu	1.233127	0.222139	-0.117072
O10	O	1.209827	0.364623	0.099066
C11	C	1.035334	0.218906	0.000032
C12	C	0.920240	0.207240	0.000029
C13	C	0.679482	0.347487	0.000049
C14	C	0.571341	0.336530	0.000047
C15	C	0.595813	0.174369	0.000030
C16	C	0.703954	0.185327	0.000032
C17	C	0.745785	0.271888	0.000040
C18	C	0.853929	0.282844	0.000034
C19	C	0.878399	0.120685	0.000026
C20	C	0.770257	0.109728	0.000023
C21	C	1.232203	0.064410	0.000030
C22	C	1.230014	-0.035860	0.000020
C23	C	1.126324	-0.457187	0.000040
C24	C	1.315188	-0.462449	0.000045
C25	C	1.317247	-0.368241	0.000038
C26	C	1.223843	-0.318502	0.000034
C27	C	1.128380	-0.362970	0.000037
C28	C	1.412707	-0.323764	0.000047
C29	C	1.414770	-0.229551	0.000042
C30	C	1.321366	-0.179810	0.000029
C31	C	1.225899	-0.224285	0.000030
C32	C	1.132495	-0.174546	0.000026
C33	C	1.037028	-0.219019	0.000019
C34	C	1.034976	-0.313230	0.000024
C35	C	1.323418	-0.085599	0.000024
C36	C	1.134551	-0.080329	0.000023
C37	C	1.414408	0.238308	0.000040
C38	C	1.529502	0.249974	0.000036
C39	C	1.217539	0.392804	0.000042
C40	C	1.219728	0.493073	0.000044
N41	N	1.205008	0.244174	0.281883
N42	N	1.244742	0.213033	-0.281808
C43	C	1.328293	0.147484	0.531173
C44	C	1.319529	0.154367	0.655836
C45	C	1.178712	0.264819	0.655876
C46	C	1.187475	0.257935	0.531212
C47	C	1.262270	0.199267	0.468865
C48	C	1.271038	0.192389	0.344199
C49	C	1.130216	0.302836	0.344241
C50	C	1.121452	0.309719	0.468904
H51	H	0.736183	0.039252	0.000031
H52	H	1.058490	-0.039837	0.000014
H53	H	1.401145	-0.049393	0.000038
N54	N	0.949912	0.039137	0.000004
H55	H	1.024768	0.059210	0.000002
H56	H	0.931182	0.005864	0.073418
N57	N	0.936285	-0.165367	0.000045
H58	H	0.952080	-0.098937	0.000057
H59	H	0.899852	-0.184727	-0.073371
N60	N	1.059005	0.358700	0.277039
H61	H	1.075907	0.345441	0.188604
H62	H	0.983911	0.343139	0.298841
H63	H	0.887985	0.353327	0.000043
H64	H	1.331942	0.144621	0.293437
H65	H	1.389201	0.099720	0.480409
N66	N	0.550684	0.081015	0.000055
H67	H	0.472115	0.085551	0.000067
H68	H	0.580091	0.043458	-0.073362
N69	N	0.932015	-0.361195	0.000021
H70	H	0.944888	-0.428425	0.000031
H71	H	0.885964	-0.339518	0.073440
N72	N	1.517731	-0.181586	0.000049
H73	H	1.576588	-0.227393	0.000054
H74	H	1.527875	-0.146673	-0.073375
N75	N	0.499843	0.418082	0.000090
H76	H	0.518485	0.451397	-0.073314
H77	H	0.425008	0.397956	0.000143
H78	H	1.373291	0.112199	0.706564
N79	N	1.023360	-0.505147	0.000026
H80	H	1.036225	-0.572377	0.000026
H81	H	0.977307	-0.483472	0.073445
N82	N	0.724602	0.440845	0.000041
H83	H	0.695260	0.478443	0.073458
H84	H	0.803166	0.436238	-0.000005
N85	N	1.415919	-0.516099	0.000063
H86	H	1.424449	-0.559366	-0.073349
H87	H	1.476648	-0.473574	0.000107
H88	H	1.488750	-0.364268	0.000062
N89	N	1.098034	0.328080	0.723131
H90	H	1.102500	0.324576	0.811559
H91	H	1.111626	0.391880	0.701354
H92	H	1.060553	0.357483	0.519682
