data_functionalizedCrystal
_audit_creation_method	'MofGen! by Chris Wilmer'
_symmetry_space_group_name_H-M	'P1'
_symmetry_Int_Tables_number	1
_symmetry_cell_setting	triclinic
loop_
_symmetry_equiv_pos_as_xyz
  x,y,z
_cell_length_a	14.044191
_cell_length_b	14.044190
_cell_length_c	10.065875
_cell_angle_alpha	99.589132
_cell_angle_beta	80.446775
_cell_angle_gamma	93.191777
loop_
_atom_site_label
_atom_site_type_symbol
_atom_site_fract_x
_atom_site_fract_y
_atom_site_fract_z
O1	O	1.289956	0.217353	-0.113453
O2	O	1.789956	0.717353	0.386547
O3	O	1.013285	0.209039	-0.113470
O4	O	1.513285	0.709039	0.386530
O5	O	1.147461	0.074863	-0.113435
O6	O	1.647461	0.574863	0.386565
O7	O	1.155780	0.351529	-0.113488
O8	O	1.655780	0.851529	0.386512
O9	O	1.121885	0.100560	0.113547
O10	O	1.621885	0.600560	0.613547
O11	O	0.987709	0.234736	0.113513
O12	O	1.487709	0.734736	0.613513
O13	O	1.264380	0.243051	0.113529
O14	O	1.764380	0.743051	0.613529
Zn15	Zn	1.121983	0.242974	0.149559
Zn16	Zn	1.621983	0.742974	0.649559
Zn17	Zn	1.155681	0.209116	-0.149500
Zn18	Zn	1.655681	0.709116	0.350500
O19	O	1.130203	0.377227	0.113494
O20	O	1.630203	0.877227	0.613494
C21	C	0.964875	0.218251	0.000020
C22	C	1.464875	0.718251	0.500020
C23	C	0.858732	0.207403	0.000015
C24	C	1.358732	0.707403	0.500015
C25	C	1.131036	0.052090	0.000060
C26	C	1.631036	0.552090	0.500060
C27	C	1.120187	-0.054052	0.000071
C28	C	1.620187	0.445948	0.500071
C29	C	0.613275	0.264504	0.000017
C30	C	1.113275	0.764504	0.500017
C31	C	0.664397	0.187589	0.000030
C32	C	1.164397	0.687589	0.500030
C33	C	0.772535	0.198616	0.000021
C34	C	1.272535	0.698616	0.500021
C35	C	0.505127	0.253478	0.000026
C36	C	1.005127	0.753478	0.500026
C37	C	1.177293	-0.299515	0.000021
C38	C	1.677293	0.200485	0.500021
C39	C	1.100376	-0.248391	0.000026
C40	C	1.600376	0.251609	0.500026
C41	C	1.111402	-0.140251	0.000051
C42	C	1.611402	0.359749	0.500051
C43	C	1.166270	-0.407665	-0.000004
C44	C	1.666270	0.092335	0.499996
C45	C	1.312790	0.233839	0.000036
C46	C	1.812790	0.733839	0.500036
C47	C	1.418934	0.244685	0.000032
C48	C	1.918934	0.744685	0.500032
C49	C	1.146629	0.399999	-0.000004
C50	C	1.646629	0.899999	0.499996
C51	C	1.157478	0.506141	-0.000024
C52	C	1.657478	1.006141	0.499976
N53	N	1.098993	0.266081	0.353659
N54	N	1.598993	0.766081	0.853659
N55	N	1.178679	0.186002	-0.353599
N56	N	1.678679	0.686002	0.146401
C57	C	1.147675	0.217149	0.421450
C58	C	1.647675	0.717149	0.921450
C59	C	1.129989	0.234941	0.578613
C60	C	1.629989	0.734941	1.078613
H61	H	0.626961	0.113447	-0.000052
H62	H	1.126961	0.613447	0.499948
O63	O	1.057447	0.307906	0.655826
O64	O	1.557447	0.807906	1.155826
H65	H	0.985007	0.286548	0.628514
H66	H	1.485007	0.786548	1.128514
O67	O	0.662869	0.362695	-0.000005
O68	O	1.162869	0.862695	0.499995
H69	H	0.652279	0.391546	-0.092523
H70	H	1.152279	0.891546	0.407477
H71	H	1.026245	-0.285838	0.000014
H72	H	1.526245	0.214162	0.500014
H73	H	1.233451	0.130930	0.588094
H74	H	1.733451	0.630930	1.088094
H75	H	1.251418	-0.262070	0.000040
H76	H	1.751418	0.237930	0.500040
O77	O	1.220202	0.144177	0.344228
O78	O	1.720202	0.644177	0.844228
H79	H	1.222701	0.141643	0.232904
H80	H	1.722701	0.641643	0.732904
O81	O	1.026440	0.339027	0.430881
O82	O	1.526440	0.839027	0.930881
H83	H	1.023940	0.341561	0.542204
H84	H	1.523940	0.841561	1.042204
