data_functionalizedCrystal
_audit_creation_method	'MofGen! by Chris Wilmer'
_symmetry_space_group_name_H-M	'P1'
_symmetry_Int_Tables_number	1
_symmetry_cell_setting	triclinic
loop_
_symmetry_equiv_pos_as_xyz
  x,y,z
_cell_length_a	18.215405
_cell_length_b	18.215407
_cell_length_c	18.215399
_cell_angle_alpha	89.979405
_cell_angle_beta	90.026474
_cell_angle_gamma	89.978057
loop_
_atom_site_label
_atom_site_type_symbol
_atom_site_fract_x
_atom_site_fract_y
_atom_site_fract_z
Zn1	Zn	-0.292993	-1.125087	0.416138
Zn2	Zn	-0.042993	-0.875087	0.666138
Zn3	Zn	0.207007	-0.625087	0.916138
Zn4	Zn	0.457007	-0.375087	1.166138
Zn5	Zn	-0.416065	-1.125001	0.293075
Zn6	Zn	-0.166065	-0.875001	0.543075
Zn7	Zn	0.083935	-0.625001	0.793075
Zn8	Zn	0.333935	-0.375001	1.043075
Zn9	Zn	-0.293016	-1.002019	0.293084
Zn10	Zn	-0.043016	-0.752019	0.543084
Zn11	Zn	0.206984	-0.502019	0.793084
Zn12	Zn	0.456984	-0.252019	1.043084
Zn13	Zn	-0.416023	-1.001991	0.416099
Zn14	Zn	-0.166023	-0.751991	0.666099
Zn15	Zn	0.083977	-0.501991	0.916099
Zn16	Zn	0.333977	-0.251991	1.166099
O17	O	-0.354524	-1.063525	0.354599
O18	O	-0.104524	-0.813525	0.604599
O19	O	0.145476	-0.563525	0.854599
O20	O	0.395476	-0.313525	1.104599
O21	O	-0.309327	-1.228060	0.399827
O22	O	-0.059327	-0.978060	0.649827
O23	O	0.190673	-0.728060	0.899827
O24	O	0.440673	-0.478060	1.149827
O25	O	-0.399769	-1.108663	0.190092
O26	O	-0.149769	-0.858663	0.440092
O27	O	0.100231	-0.608663	0.690092
O28	O	0.350231	-0.358663	0.940092
O29	O	-0.190029	-1.018392	0.309428
O30	O	0.059971	-0.768392	0.559428
O31	O	0.309971	-0.518392	0.809428
O32	O	0.559971	-0.268392	1.059428
O33	O	-0.399747	-1.227997	0.309413
O34	O	-0.149747	-0.977997	0.559413
O35	O	0.100253	-0.727997	0.809413
O36	O	0.350253	-0.477997	1.059413
O37	O	-0.190012	-1.108809	0.399835
O38	O	0.059988	-0.858809	0.649835
O39	O	0.309988	-0.608809	0.899835
O40	O	0.559988	-0.358809	1.149835
O41	O	-0.309366	-1.018309	0.190099
O42	O	-0.059366	-0.768309	0.440099
O43	O	0.190634	-0.518309	0.690099
O44	O	0.440634	-0.268309	0.940099
O45	O	-0.309325	-0.899031	0.309389
O46	O	-0.059325	-0.649031	0.559389
O47	O	0.190675	-0.399031	0.809389
O48	O	0.440675	-0.149031	1.059389
O49	O	-0.399675	-1.018344	0.519088
O50	O	-0.149675	-0.768344	0.769088
O51	O	0.100325	-0.518344	1.019088
O52	O	0.350325	-0.268344	1.269088
O53	O	-0.399697	-0.899011	0.399767
O54	O	-0.149697	-0.649011	0.649767
O55	O	0.100303	-0.399011	0.899767
O56	O	0.350303	-0.149011	1.149767
O57	O	-0.309286	-1.108782	0.519117
O58	O	-0.059286	-0.858782	0.769117
O59	O	0.190714	-0.608782	1.019117
O60	O	0.440714	-0.358782	1.269117
O61	O	-0.519043	-1.108636	0.309374
O62	O	-0.269043	-0.858636	0.559374
O63	O	-0.019043	-0.608636	0.809374
O64	O	0.230957	-0.358636	1.059374
O65	O	-0.519012	-1.018261	0.399759
O66	O	-0.269012	-0.768261	0.649759
O67	O	-0.019012	-0.518261	0.899759
O68	O	0.230988	-0.268261	1.149759
C69	C	-0.354510	-0.872318	0.354575
C70	C	-0.104510	-0.622318	0.604575
C71	C	0.145490	-0.372318	0.854575
C72	C	0.395490	-0.122318	1.104575
C73	C	-0.354521	-0.790519	0.354583
C74	C	-0.104521	-0.540519	0.604583
C75	C	0.145479	-0.290519	0.854583
C76	C	0.395479	-0.040519	1.104583
C77	C	-0.401650	-0.602334	0.401581
C78	C	-0.151650	-0.352334	0.651581
C79	C	0.098350	-0.102334	0.901581
C80	C	0.348350	0.147666	1.151581
C81	C	-0.401652	-0.525475	0.401589
C82	C	-0.151652	-0.275475	0.651589
C83	C	0.098348	-0.025475	0.901589
C84	C	0.348348	0.224525	1.151589
C85	C	-0.307402	-0.525467	0.307620
C86	C	-0.057402	-0.275467	0.557620
C87	C	0.192598	-0.025467	0.807620
C88	C	0.442598	0.224533	1.057620
C89	C	-0.307397	-0.602324	0.307616
C90	C	-0.057397	-0.352324	0.557616
C91	C	0.192603	-0.102324	0.807616
C92	C	0.442603	0.147676	1.057616
C93	C	-0.354526	-0.640756	0.354595
C94	C	-0.104526	-0.390756	0.604595
C95	C	0.145474	-0.140756	0.854595
C96	C	0.395474	0.109244	1.104595
C97	C	-0.354532	-0.487040	0.354608
C98	C	-0.104532	-0.237040	0.604608
C99	C	0.145468	0.012960	0.854608
C100	C	0.395468	0.262960	1.104608
C101	C	-0.354533	-0.403706	0.354616
C102	C	-0.104533	-0.153706	0.604616
C103	C	0.145467	0.096294	0.854616
C104	C	0.395467	0.346294	1.104616
C105	C	-0.354524	-0.724095	0.354588
C106	C	-0.104524	-0.474095	0.604588
C107	C	0.145476	-0.224095	0.854588
C108	C	0.395476	0.025905	1.104588
C109	C	-0.545730	-1.063456	0.354577
C110	C	-0.295730	-0.813456	0.604577
C111	C	-0.045730	-0.563456	0.854577
C112	C	0.204270	-0.313456	1.104577
C113	C	-0.627529	-1.063495	0.354593
C114	C	-0.377529	-0.813495	0.604593
C115	C	-0.127529	-0.563495	0.854593
C116	C	0.122471	-0.313495	1.104593
C117	C	-0.892520	-1.110619	0.401740
C118	C	-0.642520	-0.860619	0.651740
C119	C	-0.392520	-0.610619	0.901740
C120	C	-0.142520	-0.360619	1.151740
C121	C	-0.815662	-1.110594	0.401728
C122	C	-0.565662	-0.860594	0.651728
C123	C	-0.315662	-0.610594	0.901728
C124	C	-0.065662	-0.360594	1.151728
C125	C	-0.815787	-1.016525	0.307501
C126	C	-0.565787	-0.766525	0.557501
C127	C	-0.315787	-0.516525	0.807501
C128	C	-0.065787	-0.266525	1.057501
C129	C	-0.892644	-1.016553	0.307509
C130	C	-0.642644	-0.766553	0.557509
C131	C	-0.392644	-0.516553	0.807509
C132	C	-0.142644	-0.266553	1.057509
C133	C	-0.931009	-1.063599	0.354633
C134	C	-0.681009	-0.813599	0.604633
C135	C	-0.431009	-0.563599	0.854633
C136	C	-0.181009	-0.313599	1.104633
C137	C	-0.777293	-1.063546	0.354613
C138	C	-0.527293	-0.813546	0.604613
C139	C	-0.277293	-0.563546	0.854613
C140	C	-0.027293	-0.313546	1.104613
C141	C	-0.693959	-1.063519	0.354601
C142	C	-0.443959	-0.813519	0.604601
C143	C	-0.193959	-0.563519	0.854601
C144	C	0.056041	-0.313519	1.104601
C145	C	-1.014348	-1.063628	0.354644
C146	C	-0.764348	-0.813628	0.604644
C147	C	-0.514348	-0.563628	0.854644
C148	C	-0.264348	-0.313628	1.104644
C149	C	-0.162571	-1.063613	0.354637
C150	C	0.087429	-0.813613	0.604637
C151	C	0.337429	-0.563613	0.854637
C152	C	0.587429	-0.313613	1.104637
C153	C	-0.080772	-1.063651	0.354653
C154	C	0.169228	-0.813651	0.604653
C155	C	0.419228	-0.563651	0.854653
C156	C	0.669228	-0.313651	1.104653
C157	C	-0.354473	-1.063569	0.546552
C158	C	-0.104473	-0.813569	0.796552
C159	C	0.145527	-0.563569	1.046552
C160	C	0.395527	-0.313569	1.296552
C161	C	-0.354452	-1.063588	0.628351
C162	C	-0.104452	-0.813588	0.878351
C163	C	0.145548	-0.563588	1.128351
C164	C	0.395548	-0.313588	1.378351
C165	C	-0.354537	-0.255477	0.354620
C166	C	-0.104537	-0.005477	0.604620
C167	C	0.145463	0.244523	0.854620
C168	C	0.395463	0.494523	1.104620
C169	C	-0.354536	-0.337276	0.354620
C170	C	-0.104536	-0.087276	0.604620
C171	C	0.145464	0.162724	0.854620
C172	C	0.395464	0.412724	1.104620
C173	C	-0.354522	-1.063522	0.163393
C174	C	-0.104522	-0.813522	0.413393
C175	C	0.145478	-0.563522	0.663393
C176	C	0.395478	-0.313522	0.913393
C177	C	-0.354336	-1.063646	0.081594
C178	C	-0.104336	-0.813646	0.331594
C179	C	0.145664	-0.563646	0.581594
C180	C	0.395664	-0.313646	0.831594
C181	C	-0.307342	-1.110696	0.816561
C182	C	-0.057342	-0.860696	1.066561
C183	C	0.192658	-0.610696	1.316561
C184	C	0.442658	-0.360696	1.566561
C185	C	-0.307321	-1.110705	0.893420
C186	C	-0.057321	-0.860705	1.143420
C187	C	0.192679	-0.610705	1.393420
C188	C	0.442679	-0.360705	1.643420
C189	C	-0.401448	-1.016533	0.893379
C190	C	-0.151448	-0.766533	1.143379
C191	C	0.098552	-0.516533	1.393379
C192	C	0.348552	-0.266533	1.643379
C193	C	-0.401465	-1.016521	0.816521
C194	C	-0.151465	-0.766521	1.066521
C195	C	0.098535	-0.516521	1.316521
C196	C	0.348535	-0.266521	1.566521
C197	C	-0.354413	-1.063607	0.778115
C198	C	-0.104413	-0.813607	1.028115
C199	C	0.145587	-0.563607	1.278115
C200	C	0.395587	-0.313607	1.528115
C201	C	-0.354375	-1.063627	0.931831
C202	C	-0.104375	-0.813627	1.181831
C203	C	0.145625	-0.563627	1.431831
C204	C	0.395625	-0.313627	1.681831
C205	C	-0.354352	-1.063637	1.015164
C206	C	-0.104352	-0.813637	1.265164
C207	C	0.145648	-0.563637	1.515164
C208	C	0.395648	-0.313637	1.765164
C209	C	-0.354435	-1.063597	0.694776
C210	C	-0.104435	-0.813597	0.944776
C211	C	0.145565	-0.563597	1.194776
C212	C	0.395565	-0.313597	1.444776
H213	H	-0.440024	-0.633623	0.439837
H214	H	-0.190024	-0.383623	0.689837
H215	H	0.059976	-0.133623	0.939837
H216	H	0.309976	0.116377	1.189837
H217	H	-0.268990	-1.149049	0.924720
H218	H	-0.018990	-0.899049	1.174720
H219	H	0.231010	-0.649049	1.424720
H220	H	0.481010	-0.399049	1.674720
O221	O	-0.256589	-1.161477	0.775140
O222	O	-0.006589	-0.911477	1.025140
O223	O	0.243411	-0.661477	1.275140
O224	O	0.493411	-0.411477	1.525140
H225	H	-0.289537	-1.198906	0.740131
H226	H	-0.039537	-0.948906	0.990131
H227	H	0.210463	-0.698906	1.240131
H228	H	0.460463	-0.448906	1.490131
H229	H	-0.439757	-0.978199	0.924658
H230	H	-0.189757	-0.728199	1.174658
H231	H	0.060243	-0.478199	1.424658
H232	H	0.310243	-0.228199	1.674658
O233	O	-0.934165	-0.965836	0.256700
O234	O	-0.684165	-0.715836	0.506700
O235	O	-0.434165	-0.465836	0.756700
O236	O	-0.184165	-0.215836	1.006700
H237	H	-0.894577	-0.933109	0.223939
H238	H	-0.644577	-0.683109	0.473939
H239	H	-0.394577	-0.433109	0.723939
H240	H	-0.144577	-0.183109	0.973939
H241	H	-0.439795	-0.978170	0.785217
H242	H	-0.189795	-0.728170	1.035217
H243	H	0.060205	-0.478170	1.285217
H244	H	0.310205	-0.228170	1.535217
O245	O	-0.774146	-1.161308	0.452535
O246	O	-0.524146	-0.911308	0.702535
O247	O	-0.274146	-0.661308	0.952535
O248	O	-0.024146	-0.411308	1.202535
H249	H	-0.739130	-1.198761	0.419624
H250	H	-0.489130	-0.948761	0.669624
H251	H	-0.239130	-0.698761	0.919624
H252	H	0.010870	-0.448761	1.169624
O253	O	-0.256568	-0.643776	0.256938
O254	O	-0.006568	-0.393776	0.506938
O255	O	0.243432	-0.143776	0.756938
O256	O	0.493432	0.106224	1.006938
H257	H	-0.289462	-0.678772	0.219446
H258	H	-0.039462	-0.428772	0.469446
H259	H	0.210538	-0.178772	0.719446
H260	H	0.460538	0.071228	0.969446
H261	H	-0.440025	-0.494196	0.439851
H262	H	-0.190025	-0.244196	0.689851
H263	H	0.059975	0.005804	0.939851
H264	H	0.309975	0.255804	1.189851
O265	O	-0.256596	-0.484017	0.256926
O266	O	-0.006596	-0.234017	0.506926
O267	O	0.243404	0.015983	0.756926
O268	O	0.493404	0.265983	1.006926
H269	H	-0.264528	-0.424118	0.264809
H270	H	-0.014528	-0.174118	0.514809
H271	H	0.235472	0.075882	0.764809
H272	H	0.485472	0.325882	1.014809
O273	O	-0.774409	-0.965781	0.256678
O274	O	-0.524409	-0.715781	0.506678
O275	O	-0.274409	-0.465781	0.756678
O276	O	-0.024409	-0.215781	1.006678
H277	H	-0.739408	-0.928298	0.289574
H278	H	-0.489408	-0.678298	0.539574
H279	H	-0.239408	-0.428298	0.789574
H280	H	0.010592	-0.178298	1.039574
O281	O	-0.933904	-1.161365	0.452556
O282	O	-0.683904	-0.911365	0.702556
O283	O	-0.433904	-0.661365	0.952556
O284	O	-0.183904	-0.411365	1.202556
H285	H	-0.894224	-1.194061	0.485305
H286	H	-0.644224	-0.944061	0.735305
H287	H	-0.394224	-0.694061	0.985305
H288	H	-0.144224	-0.444061	1.235305
