data_functionalizedCrystal
_audit_creation_method	'MofGen! by Chris Wilmer'
_symmetry_space_group_name_H-M	'P1'
_symmetry_Int_Tables_number	1
_symmetry_cell_setting	triclinic
loop_
_symmetry_equiv_pos_as_xyz
  x,y,z
_cell_length_a	14.044202
_cell_length_b	13.101039
_cell_length_c	14.044220
_cell_angle_alpha	86.332523
_cell_angle_beta	93.190789
_cell_angle_gamma	93.662388
loop_
_atom_site_label
_atom_site_type_symbol
_atom_site_fract_x
_atom_site_fract_y
_atom_site_fract_z
O1	O	-1.281976	-0.085167	-0.225388
O2	O	-0.948642	0.248166	0.107946
O3	O	-0.615309	0.581500	0.441279
O4	O	-1.005304	-0.085180	-0.217072
O5	O	-0.671971	0.248153	0.116261
O6	O	-0.338638	0.581486	0.449595
O7	O	-1.139487	-0.085164	-0.082895
O8	O	-0.806153	0.248169	0.250439
O9	O	-0.472820	0.581503	0.583772
O10	O	-1.147793	-0.085184	-0.359565
O11	O	-0.814460	0.248150	-0.026232
O12	O	-0.481127	0.581483	0.307101
O13	O	-1.129861	0.085265	-0.092539
O14	O	-0.796527	0.418598	0.240794
O15	O	-0.463194	0.751931	0.574128
O16	O	-0.995678	0.085248	-0.226717
O17	O	-0.662345	0.418582	0.106617
O18	O	-0.329012	0.751915	0.439950
O19	O	-1.272350	0.085262	-0.235032
O20	O	-0.939016	0.418595	0.098301
O21	O	-0.605683	0.751928	0.431634
Zn22	Zn	-1.132486	0.112314	-0.232406
Zn23	Zn	-0.799152	0.445647	0.100928
Zn24	Zn	-0.465819	0.778981	0.434261
Zn25	Zn	-1.145168	-0.112233	-0.219699
Zn26	Zn	-0.811835	0.221100	0.113635
Zn27	Zn	-0.478502	0.554434	0.446968
O28	O	-1.138167	0.085245	-0.369210
O29	O	-0.804834	0.418578	-0.035876
O30	O	-0.471501	0.751912	0.297457
C31	C	-0.964869	0.000032	-0.218257
C32	C	-0.631536	0.333366	0.115076
C33	C	-0.298203	0.666699	0.448409
C34	C	-0.858727	0.000028	-0.207409
C35	C	-0.525393	0.333361	0.125924
C36	C	-0.192060	0.666694	0.459258
N37	N	-1.123837	0.265562	-0.241078
N38	N	-0.790504	0.598895	0.092255
N39	N	-0.457170	0.932228	0.425589
N40	N	-1.153824	-0.265480	-0.211020
N41	N	-0.820491	0.067853	0.122314
N42	N	-0.487157	0.401186	0.455647
C43	C	-0.613268	0.000033	-0.264508
C44	C	-0.279935	0.333367	0.068826
C45	C	0.053399	0.666700	0.402159
C46	C	-0.664393	0.000037	-0.187592
C47	C	-0.331060	0.333370	0.145741
C48	C	0.002274	0.666704	0.479074
C49	C	-0.772530	0.000032	-0.198621
C50	C	-0.439197	0.333365	0.134712
C51	C	-0.105864	0.666698	0.468046
C52	C	-0.505121	0.000039	-0.253481
C53	C	-0.171788	0.333372	0.079853
C54	C	0.161546	0.666705	0.413186
C55	C	-0.312785	0.000046	-0.233845
C56	C	0.020548	0.333379	0.099489
C57	C	0.353882	0.666713	0.432822
C58	C	-0.418928	0.000043	-0.244687
C59	C	-0.085595	0.333376	0.088647
C60	C	0.247738	0.666710	0.421980
C61	C	-1.131038	0.000051	-0.052095
C62	C	-0.797705	0.333384	0.281238
C63	C	-0.464371	0.666717	0.614572
C64	C	-1.120193	0.000051	0.054048
C65	C	-0.786860	0.333385	0.387381
C66	C	-0.453527	0.666718	0.720715
C67	C	-1.112071	0.474603	-0.252886
C68	C	-0.778738	0.807936	0.080448
C69	C	-0.445404	1.141269	0.413781
C70	C	-1.165587	0.525485	-0.199215
C71	C	-0.832254	0.858818	0.134118
C72	C	-0.498920	1.192152	0.467452
C73	C	-1.159040	0.641803	-0.205785
C74	C	-0.825707	0.975136	0.127549
C75	C	-0.492374	1.308469	0.460882
C76	C	-1.118617	0.358275	-0.246317
C77	C	-0.785283	0.691608	0.087017
C78	C	-0.451950	1.024941	0.420350
C79	C	-1.146616	0.000028	-0.400009
C80	C	-0.813283	0.333361	-0.066676
C81	C	-0.479950	0.666695	0.266657
C82	C	-1.157461	0.000021	-0.506152
C83	C	-0.824128	0.333354	-0.172819
C84	C	-0.490795	0.666687	0.160515
C85	C	-1.100368	0.000036	0.248387
C86	C	-0.767035	0.333369	0.581721
C87	C	-0.433701	0.666702	0.915054
C88	C	-1.177282	0.000036	0.299515
C89	C	-0.843949	0.333370	0.632848
C90	C	-0.510616	0.666703	0.966181
C91	C	-1.166251	0.000028	0.407652
C92	C	-0.832918	0.333361	0.740985
C93	C	-0.499585	0.666694	1.074318
C94	C	-1.111398	0.000045	0.140240
C95	C	-0.778064	0.333378	0.473574
C96	C	-0.444731	0.666711	0.806907
H97	H	-0.626953	-0.000030	-0.113456
H98	H	-0.293620	0.333304	0.219878
H99	H	0.039713	0.666637	0.553211
N100	N	-1.232803	0.467480	-0.131826
N101	N	-0.899470	0.800813	0.201507
N102	N	-0.566136	1.134146	0.534840
H103	H	-1.267610	0.517646	-0.096925
H104	H	-0.934277	0.850979	0.236408
H105	H	-0.600943	1.184313	0.569741
H106	H	-1.195086	0.422965	-0.084093
H107	H	-0.861753	0.756298	0.249240
H108	H	-0.528419	1.089632	0.582573
H109	H	-1.251420	-0.000029	0.262077
H110	H	-0.918086	0.333304	0.595410
H111	H	-0.584753	0.666638	0.928743
H112	H	-0.650710	0.000025	-0.338634
H113	H	-0.317376	0.333358	-0.005301
H114	H	0.015957	0.666692	0.328032
N115	N	-1.044871	0.532604	-0.320283
N116	N	-0.711538	0.865937	0.013050
N117	N	-0.378205	1.199270	0.346384
H118	H	-1.049664	0.608679	-0.315481
H119	H	-0.716331	0.942012	0.017853
H120	H	-0.382998	1.275345	0.351186
H121	H	-1.062779	0.513913	-0.387890
H122	H	-0.729445	0.847246	-0.054556
H123	H	-0.396112	1.180579	0.278777
H124	H	-1.026240	0.000030	0.285827
H125	H	-0.692907	0.333363	0.619160
H126	H	-0.359574	0.666696	0.952494
