data_functionalizedCrystal
_audit_creation_method	'MofGen! by Chris Wilmer'
_symmetry_space_group_name_H-M	'P1'
_symmetry_Int_Tables_number	1
_symmetry_cell_setting	triclinic
loop_
_symmetry_equiv_pos_as_xyz
  x,y,z
_cell_length_a	12.827893
_cell_length_b	12.594516
_cell_length_c	12.827885
_cell_angle_alpha	90.028054
_cell_angle_beta	90.019272
_cell_angle_gamma	90.016213
loop_
_atom_site_label
_atom_site_type_symbol
_atom_site_fract_x
_atom_site_fract_y
_atom_site_fract_z
Zn1	Zn	1.597665	-0.423686	0.590861
Zn2	Zn	1.597557	-0.601702	0.416127
Zn3	Zn	1.422906	-0.423738	0.416135
Zn4	Zn	1.422889	-0.601623	0.590827
O5	O	1.510254	-0.512687	0.503487
O6	O	1.743887	-0.447311	0.567693
O7	O	1.574351	-0.578150	0.269892
O8	O	1.446140	-0.274786	0.439330
O9	O	1.743807	-0.578099	0.439317
O10	O	1.574535	-0.274747	0.567701
O11	O	1.446036	-0.447400	0.269898
O12	O	1.276668	-0.447324	0.439297
O13	O	1.446112	-0.577965	0.737067
O14	O	1.276656	-0.578016	0.567642
O15	O	1.574519	-0.447235	0.737093
O16	O	1.574335	-0.750637	0.439283
O17	O	1.446007	-0.750580	0.567635
C18	C	1.238744	-0.512668	0.503468
C19	C	1.122591	-0.512685	0.503484
C20	C	1.070846	-0.448082	0.567108
C21	C	0.950795	-0.448098	0.567126
C22	C	1.510186	-0.789228	0.503477
C23	C	1.510252	-0.907534	0.503508
C24	C	1.440448	-0.976794	0.573269
C25	C	1.414986	-1.047663	0.477914
C26	C	1.535809	-1.047464	0.598879
C27	C	1.484740	-0.976844	0.408102
C28	C	1.605607	-0.976639	0.529132
C29	C	1.580182	-1.047476	0.433711
C30	C	1.782824	-0.512708	0.503508
C31	C	1.898978	-0.512717	0.503517
C32	C	1.510325	-0.512585	0.776058
C33	C	1.510356	-0.512542	0.892211
C34	C	1.510352	-0.235067	0.503521
C35	C	1.510393	-0.116761	0.503535
C36	C	1.510244	-0.512712	0.231978
C37	C	1.510416	-0.512456	0.115825
C38	C	1.573902	-0.447840	0.944008
C39	C	1.573935	-0.447793	1.064059
H40	H	0.906295	-0.392793	0.621600
H41	H	0.943471	-0.568034	0.449049
N42	N	1.642110	-0.378372	0.888154
N43	N	1.605289	-0.310622	0.827237
H44	H	1.653460	-0.261557	0.787791
N45	N	1.654307	-1.086159	0.359626
N46	N	1.644776	-1.063319	0.265288
H47	H	1.697123	-1.090640	0.212962
H48	H	1.463087	-0.945951	0.327436
H49	H	1.456012	-0.567857	1.071287
H50	H	1.078016	-0.568004	0.449025
N51	N	1.706666	-0.937485	0.556358
N52	N	1.745546	-0.960032	0.642921
H53	H	1.816920	-0.932379	0.662161
H54	H	1.557369	-1.078485	0.679523
H55	H	1.455969	-0.567894	0.936742
N56	N	1.126770	-0.378676	0.635413
N57	N	1.224212	-0.378758	0.635298
H58	H	1.263709	-0.329737	0.683540
N59	N	1.366257	-0.937867	0.647167
N60	N	1.271910	-0.960680	0.637481
H61	H	1.219510	-0.933188	0.689666
H62	H	1.628343	-0.392403	1.108603
H63	H	1.334412	-1.078883	0.456263
