data_functionalizedCrystal
_audit_creation_method	'MofGen! by Chris Wilmer'
_symmetry_space_group_name_H-M	'P1'
_symmetry_Int_Tables_number	1
_symmetry_cell_setting	triclinic
loop_
_symmetry_equiv_pos_as_xyz
  x,y,z
_cell_length_a	15.944545
_cell_length_b	10.540539
_cell_length_c	9.616153
_cell_angle_alpha	90.000094
_cell_angle_beta	89.992189
_cell_angle_gamma	95.989168
loop_
_atom_site_label
_atom_site_type_symbol
_atom_site_fract_x
_atom_site_fract_y
_atom_site_fract_z
O1	O	1.115506	-0.163669	-0.115669
O2	O	0.871076	-0.183861	-0.115665
O3	O	0.998868	0.011018	-0.115665
O4	O	0.987715	-0.358548	-0.115669
O5	O	0.998850	0.011013	0.115626
O6	O	0.871059	-0.183865	0.115627
O7	O	1.115489	-0.163673	0.115622
Zn8	Zn	0.993271	-0.173770	0.152347
Zn9	Zn	0.993294	-0.173764	-0.152390
O10	O	0.987697	-0.358552	0.115623
C11	C	0.839769	-0.183026	-0.000018
C12	C	0.746507	-0.180518	-0.000017
C13	C	1.146797	-0.164508	-0.000027
C14	C	1.240058	-0.167017	-0.000038
C15	C	0.998023	0.058307	-0.000022
C16	C	0.995520	0.199221	-0.000030
C17	C	1.511455	-0.295308	-0.000031
C18	C	1.460500	-0.233459	0.114013
C19	C	1.575755	-0.175964	-0.000021
C20	C	1.460529	-0.233422	-0.114022
C21	C	1.410815	-0.171575	-0.000032
C22	C	1.526028	-0.114146	0.114117
C23	C	1.526061	-0.114127	-0.114021
C24	C	1.475138	-0.052190	0.000051
C25	C	1.670772	-0.178496	-0.000014
C26	C	1.315801	-0.169033	-0.000029
C27	C	0.988543	-0.405841	-0.000024
C28	C	0.991045	-0.546755	-0.000025
N29	N	0.993261	-0.173773	0.360321
C30	C	0.899633	0.381339	-0.000547
C31	C	0.902170	0.234755	-0.000026
C32	C	1.040435	0.261489	0.132048
C33	C	1.037249	0.407990	0.132160
C34	C	1.039168	0.408539	-0.130862
C35	C	1.040028	0.261569	-0.132608
N36	N	0.993311	-0.173751	-0.360364
C37	C	0.924693	-0.277676	0.580692
C38	C	0.924843	-0.278060	0.419524
C39	C	1.081081	-0.202708	0.418769
C40	C	1.080707	-0.203442	0.579987
C41	C	0.974885	-0.040585	0.580234
C42	C	0.972869	-0.041478	0.419008
H43	H	1.527717	-0.398091	0.000074
H44	H	1.019535	0.039480	0.378713
H45	H	1.108088	0.238277	-0.140585
C46	C	1.130256	0.473590	-0.132071
N47	N	1.198860	0.522594	-0.132972
C48	C	1.421879	-0.301535	-0.244269
N49	N	1.392771	-0.352846	-0.342367
H50	H	1.004040	0.435735	0.230892
C51	C	0.998262	0.203373	0.264836
N52	N	0.966491	0.159602	0.364848
H53	H	0.859592	-0.260820	0.380011
H54	H	0.859237	-0.260717	0.619504
C55	C	0.998358	0.450605	-0.266103
N56	N	0.967611	0.482286	-0.367959
H57	H	1.097555	-0.298721	0.378377
C58	C	1.042469	0.063896	0.631737
N59	N	1.093374	0.142582	0.670538
H60	H	1.431864	-0.283864	0.210425
H61	H	0.866566	0.192512	0.094811
C62	C	0.854417	0.176546	-0.127927
N63	N	0.818444	0.132708	-0.224262
C64	C	0.885588	-0.011814	0.367413
N65	N	0.819847	0.010525	0.328545
H66	H	0.936382	-0.375940	0.621189
H67	H	1.007164	0.220264	-0.230316
H68	H	0.862764	0.409437	-0.095262
C69	C	1.151750	-0.103177	0.366954
N70	N	1.204977	-0.028209	0.327924
C71	C	1.564534	-0.046116	0.244513
N72	N	1.593537	0.005118	0.342730
C73	C	1.151832	-0.105106	0.632662
N74	N	1.205412	-0.031057	0.672331
H75	H	0.862900	0.411043	0.093639
H76	H	1.104385	0.456875	0.138150
H77	H	0.936687	-0.376883	0.380943
H78	H	1.459034	0.050671	0.000119
H79	H	1.108989	0.240071	0.136958
H80	H	1.554706	-0.063761	-0.210438
C81	C	1.102461	-0.334652	0.630768
N82	N	1.118840	-0.433486	0.669010
C83	C	0.890182	-0.003023	0.635219
N84	N	0.826379	0.025253	0.676633
