data_functionalizedCrystal
_audit_creation_method	'MofGen! by Chris Wilmer'
_symmetry_space_group_name_H-M	'P1'
_symmetry_Int_Tables_number	1
_symmetry_cell_setting	triclinic
loop_
_symmetry_equiv_pos_as_xyz
  x,y,z
_cell_length_a	12.645331
_cell_length_b	12.645330
_cell_length_c	21.395355
_cell_angle_alpha	89.985534
_cell_angle_beta	89.979929
_cell_angle_gamma	90.013057
loop_
_atom_site_label
_atom_site_type_symbol
_atom_site_fract_x
_atom_site_fract_y
_atom_site_fract_z
Zn1	Zn	1.620790	-0.422151	-0.354204
Zn2	Zn	2.120790	0.077849	0.145796
Zn3	Zn	1.620681	-0.599400	-0.249434
Zn4	Zn	2.120681	-0.099400	0.250566
Zn5	Zn	1.443498	-0.422152	-0.249449
Zn6	Zn	1.943498	0.077848	0.250551
Zn7	Zn	1.443502	-0.599374	-0.354182
Zn8	Zn	1.943502	-0.099374	0.145818
O9	O	1.532118	-0.510769	-0.301817
O10	O	2.032118	-0.010769	0.198183
O11	O	1.769123	-0.445673	-0.340309
O12	O	2.269123	0.054327	0.159691
O13	O	1.597130	-0.575899	-0.161758
O14	O	2.097130	-0.075899	0.338242
O15	O	1.467060	-0.273805	-0.263360
O16	O	1.967060	0.226195	0.236640
O17	O	1.769043	-0.575897	-0.263335
O18	O	2.269043	-0.075897	0.236665
O19	O	1.597316	-0.273803	-0.340324
O20	O	2.097316	0.226197	0.159676
O21	O	1.466955	-0.445676	-0.161769
O22	O	1.966955	0.054324	0.338231
O23	O	1.295151	-0.445651	-0.263339
O24	O	1.795151	0.054349	0.236661
O25	O	1.467067	-0.575853	-0.441863
O26	O	1.967067	-0.075853	0.058137
O27	O	1.295154	-0.575855	-0.340287
O28	O	1.795154	-0.075855	0.159713
O29	O	1.597319	-0.445648	-0.441879
O30	O	2.097319	0.054352	0.058121
O31	O	1.597134	-0.747743	-0.263314
O32	O	2.097134	-0.247743	0.236686
O33	O	1.466961	-0.747724	-0.340272
O34	O	1.966961	-0.247724	0.159728
C35	C	1.256688	-0.510751	-0.301813
C36	C	1.756688	-0.010751	0.198187
C37	C	1.138858	-0.510768	-0.301825
C38	C	1.638858	-0.010768	0.198175
C39	C	1.094013	-0.592819	-0.350162
C40	C	1.594013	-0.092819	0.149838
C41	C	0.971453	-0.593156	-0.350018
C42	C	1.471453	-0.093156	0.149982
C43	C	0.970903	-0.540582	-0.235714
C44	C	1.470903	-0.040582	0.264286
C45	C	1.093501	-0.541162	-0.235994
C46	C	1.593501	-0.041162	0.264006
C47	C	1.093703	-0.398729	-0.319022
C48	C	1.593703	0.101271	0.180978
C49	C	0.971098	-0.399349	-0.320478
C50	C	1.471098	0.100651	0.179522
C51	C	1.532065	-0.786199	-0.301803
C52	C	2.032065	-0.286199	0.198197
C53	C	1.532139	-0.904029	-0.301817
C54	C	2.032139	-0.404029	0.198183
C55	C	1.613899	-1.071561	-0.253305
C56	C	2.113899	-0.571561	0.246695
C57	C	1.614165	-0.949000	-0.253423
C58	C	2.114165	-0.449000	0.246577
C59	C	1.562443	-0.948435	-0.367861
C60	C	2.062443	-0.448435	0.132139
C61	C	1.563092	-1.071033	-0.367603
C62	C	2.063092	-0.571033	0.132397
C63	C	1.420043	-1.071351	-0.284938
C64	C	1.920043	-0.571351	0.215062
C65	C	1.420580	-0.948746	-0.283456
C66	C	1.920580	-0.448746	0.216544
C67	C	1.808623	-0.510788	-0.301823
C68	C	2.308623	-0.010788	0.198177
C69	C	1.926453	-0.510796	-0.301825
C70	C	2.426453	-0.010796	0.198175
C71	C	1.532206	-0.510748	-0.465241
C72	C	2.032206	-0.010748	0.034759
C73	C	1.532243	-0.510738	-0.534882
C74	C	2.032243	-0.010738	-0.034882
C75	C	1.532200	-0.234264	-0.301846
C76	C	2.032200	0.265736	0.198154
C77	C	1.532235	-0.116434	-0.301858
C78	C	2.032235	0.383566	0.198142
C79	C	1.600063	-0.442938	-0.567604
C80	C	2.100063	0.057062	-0.067604
C81	C	1.600061	-0.442892	-0.633040
C82	C	2.100061	0.057108	-0.133040
C83	C	1.532251	-0.510666	-0.665750
C84	C	2.032251	-0.010666	-0.165750
C85	C	1.464419	-0.578472	-0.633020
C86	C	1.964419	-0.078472	-0.133020
C87	C	1.464414	-0.578508	-0.567586
C88	C	1.964414	-0.078508	-0.067586
C89	C	1.523862	-0.606119	-0.769420
C90	C	2.023862	-0.106119	-0.269420
C91	C	1.523874	-0.606084	-0.834853
C92	C	2.023874	-0.106084	-0.334853
C93	C	1.532258	-0.510554	-0.867571
C94	C	2.032258	-0.010554	-0.367571
C95	C	1.540653	-0.415055	-0.834848
C96	C	2.040653	0.084945	-0.334848
C97	C	1.540648	-0.415092	-0.769414
C98	C	2.040648	0.084908	-0.269414
C99	C	1.532248	-0.510634	-0.736703
C100	C	2.032248	-0.010634	-0.236703
C101	C	1.600080	-0.442698	-0.971246
C102	C	2.100080	0.057302	-0.471246
C103	C	1.600071	-0.442651	-1.036683
C104	C	2.100071	0.057349	-0.536683
C105	C	1.464433	-0.578240	-1.036662
C106	C	1.964433	-0.078240	-0.536662
C107	C	1.464437	-0.578278	-0.971227
C108	C	1.964437	-0.078278	-0.471227
C109	C	1.532266	-0.510508	-0.938523
C110	C	2.032266	-0.010508	-0.438523
C111	C	1.532091	-0.510714	-0.139030
C112	C	2.032091	-0.010714	0.360970
C113	C	1.532259	-0.510424	-0.069389
C114	C	2.032259	-0.010424	0.430611
H115	H	1.123533	-0.574455	-0.399327
H116	H	1.623533	-0.074455	0.100673
Cl117	Cl	1.379176	-0.663433	-1.077778
Cl118	Cl	1.879176	-0.163433	-0.577778
Cl119	Cl	1.685327	-0.357736	-0.526494
Cl120	Cl	2.185327	0.142264	-0.026494
Cl121	Cl	1.379177	-0.663522	-0.930087
Cl122	Cl	1.879177	-0.163522	-0.430087
H123	H	1.516752	-0.683891	-0.742787
H124	H	2.016752	-0.183891	-0.242787
Cl125	Cl	1.741509	-1.119004	-0.270389
Cl126	Cl	2.241509	-0.619004	0.229611
H127	H	1.122704	-0.337603	-0.283820
H128	H	1.622704	0.162397	0.216180
H129	H	1.397730	-0.919731	-0.234854
H130	H	1.897730	-0.419731	0.265146
H131	H	1.595204	-0.918979	-0.204453
H132	H	2.095204	-0.418979	0.295547
Cl133	Cl	1.473401	-0.903474	-0.425211
Cl134	Cl	1.973401	-0.403474	0.074789
Cl135	Cl	1.685342	-0.357499	-0.930130
Cl136	Cl	2.185342	0.142501	-0.430130
Cl137	Cl	1.585001	-1.117166	-0.177475
Cl138	Cl	2.085001	-0.617166	0.322525
H139	H	1.697262	-0.919596	-0.264615
H140	H	2.197262	-0.419596	0.235385
H141	H	1.645099	-1.099550	-0.381936
H142	H	2.145099	-0.599550	0.118064
Cl143	Cl	1.379149	-0.663751	-0.526447
Cl144	Cl	1.879149	-0.163751	-0.026447
Cl145	Cl	1.475238	-1.116865	-0.425354
Cl146	Cl	1.975238	-0.616865	0.074646
Cl147	Cl	1.685355	-0.357424	-1.077820
Cl148	Cl	2.185355	0.142576	-0.577820
Cl149	Cl	1.687627	-0.900914	-0.390361
Cl150	Cl	2.187627	-0.400914	0.109639
H151	H	1.359196	-1.100372	-0.320301
H152	H	1.859196	-0.600372	0.179699
Cl153	Cl	1.513331	-0.726138	-0.875984
Cl154	Cl	2.013331	-0.226138	-0.375984
H155	H	1.409204	-0.633650	-0.659657
H156	H	1.909204	-0.133650	-0.159657
H157	H	1.655286	-0.387675	-0.659688
H158	H	2.155286	0.112325	-0.159688
H159	H	0.941402	-0.574578	-0.399031
H160	H	1.441402	-0.074578	0.100969
H161	H	1.547481	-0.337266	-0.861486
H162	H	2.047481	0.162734	-0.361486
Cl163	Cl	1.321565	-0.901503	-0.334053
Cl164	Cl	1.821565	-0.401503	0.165947
Cl165	Cl	1.141542	-0.720273	-0.332765
Cl166	Cl	1.641542	-0.220273	0.167235
Cl167	Cl	1.377496	-1.119199	-0.211880
Cl168	Cl	1.877496	-0.619199	0.288120
H169	H	0.942102	-0.676186	-0.338609
H170	H	1.442102	-0.176186	0.161391
H171	H	1.547481	-0.337333	-0.742774
H172	H	2.047481	0.162667	-0.242774
H173	H	1.122072	-0.623046	-0.221459
H174	H	1.622072	-0.123046	0.278541
H175	H	0.941753	-0.482654	-0.198710
H176	H	1.441753	0.017346	0.301290
H177	H	1.123165	-0.483952	-0.198744
H178	H	1.623165	0.016048	0.301256
H179	H	1.124659	-0.371508	-0.366418
H180	H	1.624659	0.128492	0.133582
Cl181	Cl	0.926252	-0.364651	-0.395596
Cl182	Cl	1.426252	0.135349	0.104404
Cl183	Cl	0.923796	-0.299981	-0.270134
Cl184	Cl	1.423796	0.200019	0.229866
Cl185	Cl	0.923466	-0.665627	-0.212886
Cl186	Cl	1.423466	-0.165627	0.287114
