data_functionalizedCrystal
_audit_creation_method	'MofGen! by Chris Wilmer'
_symmetry_space_group_name_H-M	'P1'
_symmetry_Int_Tables_number	1
_symmetry_cell_setting	triclinic
loop_
_symmetry_equiv_pos_as_xyz
  x,y,z
_cell_length_a	8.559649
_cell_length_b	16.992695
_cell_length_c	16.053802
_cell_angle_alpha	87.258926
_cell_angle_beta	87.781545
_cell_angle_gamma	99.776556
loop_
_atom_site_label
_atom_site_type_symbol
_atom_site_fract_x
_atom_site_fract_y
_atom_site_fract_z
O1	O	2.123027	0.030075	-0.069415
O2	O	1.662955	-0.010109	-0.069420
O3	O	1.891146	0.124014	-0.069411
O4	O	1.894836	-0.104048	-0.069424
O5	O	1.878582	0.116659	0.069448
O6	O	1.650391	-0.017465	0.069438
O7	O	2.110463	0.022720	0.069444
Zn8	Zn	1.878433	0.001460	0.091488
Zn9	Zn	1.894986	0.011151	-0.091464
O10	O	1.882272	-0.111404	0.069434
C11	C	1.597532	-0.016833	0.000009
C12	C	1.421310	-0.025897	0.000007
N13	N	1.867147	-0.005153	0.216348
C14	C	1.880119	0.149263	0.000018
C15	C	1.865961	0.235455	0.000018
C16	C	2.175886	0.029443	0.000013
C17	C	2.352109	0.038508	0.000009
C18	C	1.893299	-0.136653	0.000004
C19	C	1.907458	-0.222844	-0.000002
C20	C	2.002568	0.293921	0.000020
C21	C	1.989256	0.374907	0.000012
C22	C	1.839335	0.397424	0.000008
C23	C	1.702718	0.338950	0.000003
C24	C	1.716032	0.257967	0.000005
C25	C	1.784155	0.637699	-0.000004
C26	C	1.770851	0.718689	-0.000004
C27	C	2.057391	0.754641	0.000004
C28	C	2.070691	0.673654	0.000011
C29	C	1.934074	0.615188	0.000002
N30	N	1.825724	0.480203	0.000002
N31	N	1.947687	0.532410	0.000001
N32	N	1.906283	0.017770	-0.216324
C33	C	1.964283	0.051901	0.260045
C34	C	1.956404	0.047269	0.347452
C35	C	1.851396	-0.014421	0.391159
C36	C	1.754250	-0.071478	0.347455
C37	C	1.762122	-0.066842	0.260050
C38	C	1.817009	-0.034650	0.652567
C39	C	1.809147	-0.039284	0.739978
C40	C	2.011300	0.079465	0.739969
C41	C	2.019169	0.084093	0.652563
C42	C	1.922017	0.027038	0.608866
N43	N	1.843344	-0.019159	0.480502
N44	N	1.930062	0.031780	0.519524
H45	H	1.427680	0.100583	0.000009
H46	H	2.104675	0.134326	0.616978
N47	N	2.232397	0.649374	-0.000013
H48	H	2.220102	0.589199	-0.000016
H49	H	2.288001	0.668653	0.051458
N50	N	1.321217	-0.108131	-0.000007
H51	H	1.205294	-0.103171	-0.000009
H52	H	1.341116	-0.140843	0.051468
H53	H	2.124650	0.275596	0.000029
H54	H	2.100497	0.422508	0.000016
N55	N	2.116080	0.141000	0.787098
H56	H	2.095164	0.128705	0.849100
H57	H	2.092094	0.195913	0.771831
N58	N	2.204726	0.817704	0.000013
H59	H	2.210249	0.854829	-0.051463
H60	H	2.301638	0.791092	0.000048
N61	N	1.609143	0.742978	-0.000010
H62	H	1.524616	0.693652	-0.000018
H63	H	1.602052	0.778523	-0.051486
N64	N	1.636810	0.574646	-0.000011
H65	H	1.539820	0.601202	-0.000010
H66	H	1.631432	0.537538	0.051466
N67	N	1.695901	-0.105830	0.787123
H68	H	1.635551	-0.141272	0.746179
H69	H	1.618741	-0.082169	0.823409
N70	N	1.541014	0.363232	-0.000008
H71	H	1.553306	0.423406	-0.000005
H72	H	1.476121	0.338500	0.051468
H73	H	1.737906	-0.081108	0.616997
H74	H	1.604791	0.210363	0.000003
N75	N	2.077552	0.118435	0.212907
H76	H	2.137888	0.153875	0.253856
H77	H	2.015726	0.151121	0.176655
H78	H	2.035498	0.093727	0.383030
N79	N	1.640978	-0.138012	0.394591
H80	H	1.650731	-0.132294	0.456593
H81	H	1.667709	-0.191306	0.379300
N82	N	1.657346	-0.128375	0.212914
H83	H	1.589630	-0.168159	0.253864
H84	H	1.725699	-0.157215	0.176633
