data_functionalizedCrystal
_audit_creation_method	'MofGen! by Chris Wilmer'
_symmetry_space_group_name_H-M	'P1'
_symmetry_Int_Tables_number	1
_symmetry_cell_setting	triclinic
loop_
_symmetry_equiv_pos_as_xyz
  x,y,z
_cell_length_a	13.339070
_cell_length_b	12.376457
_cell_length_c	13.185408
_cell_angle_alpha	82.611482
_cell_angle_beta	83.801397
_cell_angle_gamma	104.410245
loop_
_atom_site_label
_atom_site_type_symbol
_atom_site_fract_x
_atom_site_fract_y
_atom_site_fract_z
O1	O	1.227960	0.094046	0.491204
O2	O	0.951481	0.094039	0.424908
O3	O	1.137088	0.094036	0.313641
O4	O	1.042354	0.094050	0.602471
O5	O	1.090713	-0.093976	0.341409
O6	O	0.905107	-0.093972	0.452676
O7	O	1.181586	-0.093965	0.518972
Zn8	Zn	1.035983	-0.123819	0.490233
Zn9	Zn	1.097084	0.123893	0.453648
O10	O	0.995979	-0.093962	0.630239
C11	C	0.893653	0.000033	0.427593
C12	C	0.790439	0.000030	0.394212
N13	N	0.994291	-0.292877	0.515203
C14	C	0.354989	0.000061	0.653763
C15	C	0.451964	0.000067	0.685128
C16	C	0.536587	0.000057	0.612402
C17	C	0.524227	0.000042	0.508305
C18	C	0.427245	0.000045	0.476935
C19	C	0.608843	0.000042	0.435574
C20	C	0.596483	0.000027	0.331477
C21	C	0.499509	0.000029	0.300112
C22	C	0.414886	0.000038	0.372838
C23	C	0.705825	0.000039	0.466944
C24	C	0.778080	0.000023	0.290116
C25	C	0.681105	0.000017	0.258751
C26	C	1.235573	-0.647867	0.370688
C27	C	1.264748	-0.529527	0.353210
C28	C	1.197136	-0.470359	0.393707
C29	C	1.100344	-0.529541	0.451685
C30	C	1.071169	-0.647892	0.469172
C31	C	1.032733	-0.470385	0.492190
C32	C	0.935941	-0.529567	0.550168
C33	C	0.906770	-0.647906	0.567651
C34	C	0.974382	-0.707075	0.527155
C35	C	1.061908	-0.352034	0.474703
C36	C	0.897504	-0.352059	0.573186
C37	C	0.868329	-0.470399	0.590664
C38	C	1.239414	0.000044	0.516287
C39	C	1.342631	0.000054	0.549667
C40	C	1.123505	0.000030	0.289803
C41	C	1.152112	0.000032	0.177398
N42	N	1.138786	0.292951	0.428672
C43	C	1.253966	0.000032	0.138346
C44	C	1.280850	0.000043	0.032736
C45	C	1.205879	0.000045	-0.033833
C46	C	1.104020	0.000037	0.005219
C47	C	1.077137	0.000035	0.110839
C48	C	1.029049	0.000047	-0.061340
C49	C	0.927191	0.000039	-0.022288
C50	C	0.900312	0.000036	0.083322
C51	C	0.975282	0.000035	0.149890
C52	C	1.055933	0.000049	-0.166960
C53	C	0.879103	0.000052	-0.194467
C54	C	0.852220	0.000041	-0.088857
C55	C	1.009563	0.000046	0.654078
C56	C	0.980958	0.000052	0.766481
H57	H	0.715876	0.000046	0.551701
H58	H	1.227774	0.000054	-0.119825
H59	H	0.817375	0.000044	0.115112
O60	O	1.301264	-0.705223	0.331184
C61	C	1.320334	-0.676347	0.222568
H62	H	1.305475	-0.590424	0.199071
H63	H	1.405079	-0.672302	0.193648
H64	H	1.265871	-0.742963	0.187155
O65	O	1.154940	0.000202	-0.204789
C66	C	1.226172	0.097587	-0.185009
H67	H	1.189518	0.130050	-0.117033
H68	H	1.300731	0.075686	-0.165573
H69	H	1.245868	0.165772	-0.256424
O70	O	1.379820	-0.000006	-0.005019
C71	C	1.440233	0.000016	0.076375
H72	H	1.386371	-0.035579	0.152883
H73	H	1.496369	-0.054570	0.063539
H74	H	1.486810	0.090213	0.078521
O75	O	1.225506	-0.355405	0.376907
C76	C	1.228170	-0.315851	0.472460
H77	H	1.239388	-0.384037	0.533663
H78	H	1.295872	-0.236669	0.464516
H79	H	1.151406	-0.294862	0.496466
O80	O	0.753221	-0.000005	-0.051080
C81	C	0.692815	0.000029	-0.132477
H82	H	0.729108	-0.035566	-0.198478
H83	H	0.609748	-0.054551	-0.103519
H84	H	0.690741	0.090230	-0.161252
H85	H	0.462022	0.000088	0.769883
O86	O	0.949263	-0.000131	0.252528
C87	C	0.964741	-0.097528	0.309712
H88	H	1.023842	-0.129985	0.261656
H89	H	0.995635	-0.075645	0.383897
H90	H	0.887263	-0.165711	0.329823
H91	H	1.343556	-0.481345	0.306006
O92	O	0.669098	-0.000187	0.157649
C93	C	0.690777	-0.097549	0.125898
H94	H	0.679510	-0.165605	0.196302
H95	H	0.635322	-0.130233	0.069996
H96	H	0.775025	-0.075538	0.085722
H97	H	1.314993	0.000016	0.192557
O98	O	1.155852	-0.294641	0.418198
C99	C	1.160642	-0.323655	0.318160
H100	H	1.077923	-0.356179	0.299822
H101	H	1.204359	-0.245867	0.259319
H102	H	1.203518	-0.392377	0.314444
H103	H	0.950627	-0.803436	0.541382
O104	O	0.812719	-0.705520	0.623845
C105	C	0.752878	-0.773973	0.562513
H106	H	0.807195	-0.791701	0.497581
H107	H	0.706127	-0.857192	0.612379
H108	H	0.696923	-0.728381	0.527984
O109	O	0.774279	-0.528021	0.646857
C110	C	0.714444	-0.596472	0.585519
H111	H	0.768765	-0.614187	0.520584
H112	H	0.667700	-0.679697	0.635379
H113	H	0.658483	-0.550885	0.550996
O114	O	0.630801	-0.000093	0.642765
C115	C	0.658979	-0.097490	0.619160
H116	H	0.616178	-0.129959	0.554256
H117	H	0.747021	-0.075601	0.593445
H118	H	0.636524	-0.165665	0.690688
H119	H	0.818056	0.000056	-0.248669
H120	H	0.842449	-0.303885	0.606165
H121	H	0.286087	0.000078	0.712964
O122	O	0.320770	0.000188	0.342225
C123	C	0.332198	0.097573	0.268890
H124	H	0.417187	0.130036	0.230541
H125	H	0.279673	0.075673	0.207679
H126	H	0.308974	0.165759	0.309148
H127	H	0.489454	0.000029	0.215348
H128	H	0.846984	0.000020	0.230895
