data_functionalizedCrystal
_audit_creation_method	'MofGen! by Chris Wilmer'
_symmetry_space_group_name_H-M	'P1'
_symmetry_Int_Tables_number	1
_symmetry_cell_setting	triclinic
loop_
_symmetry_equiv_pos_as_xyz
  x,y,z
_cell_length_a	12.645330
_cell_length_b	12.759395
_cell_length_c	12.759387
_cell_angle_alpha	89.978972
_cell_angle_beta	89.970586
_cell_angle_gamma	90.018453
loop_
_atom_site_label
_atom_site_type_symbol
_atom_site_fract_x
_atom_site_fract_y
_atom_site_fract_z
Zn1	Zn	-0.421962	1.606247	-0.594030
Zn2	Zn	0.078038	2.106247	-0.094030
Zn3	Zn	-0.599264	1.606128	-0.418354
Zn4	Zn	-0.099264	2.106128	0.081646
Zn5	Zn	-0.422017	1.430545	-0.418365
Zn6	Zn	0.077983	1.930545	0.081635
Zn7	Zn	-0.599186	1.430528	-0.593992
Zn8	Zn	-0.099186	1.930528	-0.093992
O9	O	-0.510607	1.518362	-0.506185
O10	O	-0.010607	2.018362	-0.006185
O11	O	-0.445491	1.753252	-0.570737
O12	O	0.054509	2.253252	-0.070737
O13	O	-0.575808	1.582794	-0.271335
O14	O	-0.075808	2.082794	0.228665
O15	O	-0.273663	1.453909	-0.441688
O16	O	0.226337	1.953909	0.058312
O17	O	-0.575754	1.753165	-0.441670
O18	O	-0.075754	2.253165	0.058330
O19	O	-0.273622	1.582996	-0.570748
O20	O	0.226378	2.082996	-0.070748
O21	O	-0.445585	1.453794	-0.271342
O22	O	0.054415	1.953794	0.228658
O23	O	-0.445510	1.283522	-0.441651
O24	O	0.054490	1.783522	0.058349
O25	O	-0.575621	1.453880	-0.741018
O26	O	-0.075621	1.953880	-0.241018
O27	O	-0.575675	1.283509	-0.570683
O28	O	-0.075675	1.783509	-0.070683
O29	O	-0.445415	1.582980	-0.741046
O30	O	0.054585	2.082980	-0.241046
O31	O	-0.747601	1.582778	-0.441633
O32	O	-0.247601	2.082778	0.058367
O33	O	-0.747544	1.453765	-0.570673
O34	O	-0.247544	1.953765	-0.070673
C35	C	-0.510591	1.245395	-0.506165
C36	C	-0.010591	1.745395	-0.006165
C37	C	-0.510609	1.128618	-0.506181
C38	C	-0.010609	1.628618	-0.006181
C39	C	-0.375209	0.909274	-0.640831
C40	C	0.124791	1.409274	-0.140831
C41	C	-0.307486	0.964185	-0.708127
C42	C	0.192514	1.464185	-0.208127
C43	C	-0.307468	1.073907	-0.708108
C44	C	0.192532	1.573907	-0.208108
C45	C	-0.375182	1.128719	-0.640790
C46	C	0.124818	1.628719	-0.140790
C47	C	-0.442905	1.073808	-0.573494
C48	C	0.057095	1.573808	-0.073494
C49	C	-0.442913	0.964084	-0.573518
C50	C	0.057087	1.464084	-0.073518
C51	C	-0.578332	1.073706	-0.438886
C52	C	-0.078332	1.573706	0.061114
C53	C	-0.578346	0.963985	-0.438897
C54	C	-0.078346	1.463985	0.061103
C55	C	-0.646046	1.128519	-0.371567
C56	C	-0.146046	1.628519	0.128433
C57	C	-0.713765	1.073607	-0.304265
C58	C	-0.213765	1.573607	0.195735
C59	C	-0.713780	0.963879	-0.304285
C60	C	-0.213780	1.463879	0.195715
C61	C	-0.646069	0.909073	-0.371602
C62	C	-0.146069	1.409073	0.128398
C63	C	-0.786037	1.518285	-0.506171
C64	C	-0.286037	2.018285	-0.006171
C65	C	-0.903867	1.518349	-0.506199
C66	C	-0.403867	2.018349	-0.006199
C67	C	-1.071439	1.437522	-0.587629
C68	C	-0.571439	1.937522	-0.087629
C69	C	-0.948880	1.437108	-0.587367
C70	C	-0.448880	1.937108	-0.087367
C71	C	-0.948470	1.488373	-0.395477
C72	C	-0.448470	1.988373	0.104523
C73	C	-1.071069	1.487880	-0.395972
C74	C	-0.571069	1.987880	0.104028
C75	C	-1.070953	1.629646	-0.534594
C76	C	-0.570953	2.129646	-0.034594
C77	C	-0.948346	1.628964	-0.537015
C78	C	-0.448346	2.128964	-0.037015
C79	C	-0.234102	1.518468	-0.506223
C80	C	0.265898	2.018468	-0.006223
C81	C	-0.116272	1.518513	-0.506239
C82	C	0.383728	2.018513	-0.006239
C83	C	-0.510503	1.518441	-0.780219
C84	C	-0.010503	2.018441	-0.280219
C85	C	-0.510459	1.518475	-0.896996
C86	C	-0.010459	2.018475	-0.396996
C87	C	-0.510625	1.792395	-0.506207
C88	C	-0.010625	2.292395	-0.006207
C89	C	-0.510632	1.909172	-0.506216
C90	C	-0.010632	2.409172	-0.006216
C91	C	-0.374885	1.652916	-0.897044
C92	C	0.125115	2.152916	-0.397044
C93	C	-0.307082	1.720151	-0.951930
C94	C	0.192918	2.220151	-0.451930
C95	C	-0.307043	1.720176	-1.061651
C96	C	0.192957	2.220176	-0.561651
C97	C	-0.374812	1.652958	-1.116490
C98	C	0.125188	2.152958	-0.616490
C99	C	-0.442616	1.585723	-1.061605
C100	C	0.057384	2.085723	-0.561605
C101	C	-0.442649	1.585707	-0.951881
C102	C	0.057351	2.085707	-0.451881
C103	C	-0.578183	1.451278	-1.061556
C104	C	-0.078183	1.951278	-0.561556
C105	C	-0.578229	1.451256	-0.951835
C106	C	-0.078229	1.951256	-0.451835
C107	C	-0.645953	1.384059	-1.116395
C108	C	-0.145953	1.884059	-0.616395
C109	C	-0.713763	1.316828	-1.061510
C110	C	-0.213763	1.816828	-0.561510
C111	C	-0.713799	1.316806	-0.951782
C112	C	-0.213799	1.816806	-0.451782
C113	C	-0.646032	1.384021	-0.896950
C114	C	-0.146032	1.884021	-0.396950
C115	C	-0.510634	1.518344	-0.233218
C116	C	-0.010634	2.018344	0.266782
C117	C	-0.510380	1.518513	-0.116442
C118	C	-0.010380	2.018513	0.383558
H119	H	-0.768898	1.118244	-0.249465
H120	H	-0.268898	1.618244	0.250535
O121	O	-0.910143	1.327984	-0.562457
O122	O	-0.410143	1.827984	-0.062457
H123	H	-0.978976	1.275304	-0.550543
H124	H	-0.478976	1.775304	-0.050543
H125	H	-1.100844	1.456104	-0.669998
H126	H	-0.600844	1.956104	-0.169998
H127	H	-0.917699	1.692484	-0.482052
H128	H	-0.417699	2.192484	0.017948
O129	O	-0.375152	1.247062	-0.640769
O130	O	0.124848	1.747062	-0.140769
H131	H	-0.396660	1.276035	-0.719971
H132	H	0.103340	1.776035	-0.219971
H133	H	-1.099763	1.406640	-0.371951
H134	H	-0.599763	1.906640	0.128049
O135	O	-0.786842	1.244331	-1.120661
O136	O	-0.286842	1.744331	-0.620661
H137	H	-0.833996	1.197571	-1.064066
H138	H	-0.333996	1.697571	-0.564066
H139	H	-0.252324	1.118616	-0.762908
H140	H	0.247676	1.618616	-0.262908
O141	O	-0.646018	1.246862	-0.371526
O142	O	-0.146018	1.746862	0.128474
H143	H	-0.587539	1.275839	-0.429616
H144	H	-0.087539	1.775839	0.070384
O145	O	-0.786819	0.904652	-0.231696
O146	O	-0.286819	1.404652	0.268304
H147	H	-0.833890	0.961204	-0.184881
H148	H	-0.333890	1.461204	0.315119
H149	H	-0.375194	0.819933	-0.640830
H150	H	0.124806	1.319933	-0.140830
O151	O	-0.909710	1.658914	-0.644947
O152	O	-0.409710	2.158914	-0.144947
H153	H	-0.978552	1.670879	-0.697535
H154	H	-0.478552	2.170879	-0.197535
H155	H	-1.101790	1.656990	-0.613960
H156	H	-0.601790	2.156990	-0.113960
O157	O	-1.109591	1.709635	-0.456250
O158	O	-0.609591	2.209635	0.043750
H159	H	-1.160793	1.670491	-0.397377
H160	H	-0.660793	2.170491	0.102623
H161	H	-0.252357	0.919545	-0.762938
H162	H	0.247643	1.419545	-0.262938
H163	H	-0.374919	1.652912	-0.807703
H164	H	0.125081	2.152912	-0.307703
H165	H	-0.646061	0.819732	-0.371612
H166	H	-0.146061	1.319732	0.128388
H167	H	-0.645912	1.384081	-1.205737
H168	H	-0.145912	1.884081	-0.705737
H169	H	-0.918719	1.455863	-0.669467
H170	H	-0.418719	1.955863	-0.169467
H171	H	-1.102343	1.355647	-0.569084
H172	H	-0.602343	1.855647	-0.069084
O173	O	-1.110373	1.562607	-0.312895
O174	O	-0.610373	2.062607	0.187105
H175	H	-1.041812	1.598931	-0.272540
H176	H	-0.541812	2.098931	0.227460
H177	H	-0.919316	1.545493	-0.333179
H178	H	-0.419316	2.045493	0.166821
H179	H	-0.917862	1.407980	-0.371022
H180	H	-0.417862	1.907980	0.128978
O181	O	-0.786910	1.244267	-0.892584
O182	O	-0.286910	1.744267	-0.392584
H183	H	-0.834019	1.197532	-0.949154
H184	H	-0.334019	1.697532	-0.449154
H185	H	-0.646060	1.384014	-0.807608
H186	H	-0.146060	1.884014	-0.307608
H187	H	-0.251903	1.774877	-0.907268
H188	H	0.248097	2.274877	-0.407268
O189	O	-0.233919	1.792694	-1.120860
O190	O	0.266081	2.292694	-0.620860
H191	H	-0.186806	1.839436	-1.064299
H192	H	0.313194	2.339436	-0.564299
H193	H	-0.374766	1.652975	-1.205831
H194	H	0.125234	2.152975	-0.705831
