data_functionalizedCrystal
_audit_creation_method	'MofGen! by Chris Wilmer'
_symmetry_space_group_name_H-M	'P1'
_symmetry_Int_Tables_number	1
_symmetry_cell_setting	triclinic
loop_
_symmetry_equiv_pos_as_xyz
  x,y,z
_cell_length_a	14.519709
_cell_length_b	14.853567
_cell_length_c	12.996460
_cell_angle_alpha	89.997651
_cell_angle_beta	90.000034
_cell_angle_gamma	83.657537
loop_
_atom_site_label
_atom_site_type_symbol
_atom_site_fract_x
_atom_site_fract_y
_atom_site_fract_z
O1	O	-1.223821	-0.118181	0.085424
O2	O	-0.955338	-0.132098	0.085454
O3	O	-1.096751	0.006088	0.085441
O4	O	-1.082408	-0.256366	0.085437
O5	O	-1.096736	0.006095	-0.085692
O6	O	-0.955323	-0.132090	-0.085679
O7	O	-1.223806	-0.118173	-0.085710
Cu8	Cu	-1.089563	-0.125131	-0.101321
Cu9	Cu	-1.089581	-0.125140	0.101065
O10	O	-1.082393	-0.256359	-0.085697
C11	C	-0.920971	-0.131446	-0.000109
C12	C	-0.818591	-0.129502	-0.000097
C13	C	-1.096094	0.039680	-0.000122
C14	C	-1.094146	0.139765	-0.000113
C15	C	-1.258173	-0.118826	-0.000145
C16	C	-1.360553	-0.120769	-0.000150
C17	C	-0.443698	-0.122347	-0.000143
C18	C	-0.548005	-0.124334	-0.000130
C19	C	-0.631141	-0.125924	-0.000119
C20	C	-0.735455	-0.127912	-0.000108
C21	C	-1.083050	-0.289952	-0.000131
C22	C	-1.084998	-0.390036	-0.000133
N23	N	-1.089558	-0.125124	-0.243668
C24	C	-1.001911	0.552334	-0.000122
C25	C	-1.169913	0.573550	-0.000141
C26	C	-1.171744	0.479516	-0.000135
C27	C	-1.088658	0.421886	-0.000125
C28	C	-1.003740	0.458291	-0.000120
C29	C	-1.256661	0.443104	-0.000151
C30	C	-1.258495	0.349064	-0.000146
C31	C	-1.175408	0.291433	-0.000128
C32	C	-1.090486	0.327843	-0.000122
C33	C	-1.007400	0.270213	-0.000111
C34	C	-0.922478	0.306621	-0.000098
C35	C	-0.920653	0.400660	-0.000101
C36	C	-1.177233	0.197394	-0.000124
C37	C	-1.009229	0.176170	-0.000108
C38	C	-1.089580	-0.125141	-0.663482
C39	C	-1.089571	-0.125139	-0.546677
C40	C	-1.089569	-0.125133	-0.453579
C41	C	-1.089559	-0.125130	-0.336766
N42	N	-1.089594	-0.125140	0.243412
H43	H	-0.854829	0.259687	-0.000096
O44	O	-0.829063	0.439925	-0.000109
H45	H	-0.841753	0.514998	-0.000131
H46	H	-0.941568	0.129253	-0.000095
O47	O	-0.910318	0.591593	-0.000120
H48	H	-0.922999	0.666666	-0.000131
H49	H	-1.327644	0.319429	-0.000156
H50	H	-1.237558	0.620477	-0.000158
H51	H	-1.324305	0.490032	-0.000169
H52	H	-1.246375	0.167755	-0.000142
