data_functionalizedCrystal
_audit_creation_method	'MofGen! by Chris Wilmer'
_symmetry_space_group_name_H-M	'P1'
_symmetry_Int_Tables_number	1
_symmetry_cell_setting	triclinic
loop_
_symmetry_equiv_pos_as_xyz
  x,y,z
_cell_length_a	15.297475
_cell_length_b	18.050589
_cell_length_c	15.296720
_cell_angle_alpha	80.353020
_cell_angle_beta	88.382886
_cell_angle_gamma	80.331321
loop_
_atom_site_label
_atom_site_type_symbol
_atom_site_fract_x
_atom_site_fract_y
_atom_site_fract_z
Zn1	Zn	1.253324	-0.577978	0.726619
Zn2	Zn	1.278573	-0.684914	0.580139
Zn3	Zn	1.132208	-0.536258	0.554858
Zn4	Zn	1.106800	-0.677614	0.701267
O5	O	1.192726	-0.619191	0.640721
O6	O	1.379249	-0.612678	0.728378
O7	O	1.280357	-0.650790	0.454210
O8	O	1.148341	-0.437882	0.577673
O9	O	1.397799	-0.691244	0.620759
O10	O	1.237325	-0.468533	0.703865
O11	O	1.172823	-0.541573	0.435637
O12	O	1.006262	-0.534494	0.553090
O13	O	1.105037	-0.678802	0.827205
O14	O	0.987595	-0.638348	0.660656
O15	O	1.212688	-0.605600	0.845831
O16	O	1.255720	-0.787856	0.596176
O17	O	1.129519	-0.782493	0.685169
C18	C	0.965146	-0.581102	0.601379
C19	C	0.867783	-0.564828	0.584569
C20	C	0.554614	-0.735511	0.760865
C21	C	0.646092	-0.750806	0.776656
C22	C	0.701519	-0.704313	0.728636
C23	C	0.665459	-0.642522	0.664822
C24	C	0.573973	-0.627228	0.649024
C25	C	0.720878	-0.596030	0.616795
C26	C	0.684818	-0.534239	0.552980
C27	C	0.593341	-0.518948	0.537186
C28	C	0.537914	-0.565441	0.585206
C29	C	0.812364	-0.611324	0.632593
C30	C	0.831723	-0.503041	0.520751
C31	C	0.740245	-0.487746	0.504960
C32	C	1.192623	-0.812124	0.640688
C33	C	1.192654	-0.894678	0.640717
C34	C	1.124087	-1.091246	0.689101
C35	C	1.116577	-1.127707	0.605486
C36	C	1.192738	-1.045824	0.640743
C37	C	1.200290	-1.156454	0.724374
C38	C	1.192816	-1.191825	0.640775
C39	C	1.185193	-1.081185	0.557079
C40	C	1.268934	-1.109941	0.676028
C41	C	1.261463	-1.146377	0.592364
C42	C	1.192690	-0.961717	0.640726
C43	C	1.192866	-1.275930	0.640784
C44	C	1.421195	-0.657429	0.680217
C45	C	1.518555	-0.673724	0.697047
C46	C	1.153212	-0.646040	0.869189
C47	C	1.136373	-0.657482	0.966549
C48	C	1.192850	-0.425511	0.640777
C49	C	1.192903	-0.342976	0.640801
C50	C	1.232137	-0.592401	0.413150
C51	C	1.249146	-0.580779	0.315820
C52	C	1.313107	-0.537292	1.279781
C53	C	1.328934	-0.526544	1.188308
C54	C	1.280795	-0.559277	1.132864
C55	C	1.216827	-0.602761	1.168902
C56	C	1.201004	-0.613514	1.260385
C57	C	1.168692	-0.635500	1.113467
C58	C	1.104724	-0.678984	1.149505
C59	C	1.088904	-0.689735	1.240979
C60	C	1.137042	-0.657002	1.296423
C61	C	1.184515	-0.624746	1.021984
C62	C	1.072411	-0.700969	1.002587
C63	C	1.056585	-0.711717	1.094061
H64	H	0.563986	-0.468640	0.485215
C65	C	1.354812	-1.098970	0.715903
C66	C	1.407992	-1.170052	0.741493
C67	C	1.487102	-1.159977	0.778251
H68	H	1.385439	-1.068313	0.673128
H69	H	1.341774	-1.074584	0.766269
H70	H	1.421032	-1.194427	0.691134
H71	H	1.377393	-1.200720	0.784278
H72	H	1.474064	-1.135592	0.828618
H73	H	1.517721	-1.129319	0.735471
H74	H	1.523191	-1.208205	0.795626
C75	C	1.046642	-1.059195	0.743658
C76	C	1.053928	-1.098704	0.830784
C77	C	0.982596	-1.069204	0.881059
H78	H	1.047385	-1.006702	0.743810
H79	H	0.992565	-1.064890	0.718515
H80	H	1.107991	-1.093001	0.855921
H81	H	1.053174	-1.151195	0.830660
H82	H	0.928519	-1.074900	0.855916
H83	H	0.983345	-1.016712	0.881204
H84	H	0.987525	-1.096011	0.940177
C85	C	0.701063	-0.420767	0.435554
C86	C	0.658258	-0.447355	0.370244
C87	C	0.622164	-0.385678	0.306288
H88	H	0.659536	-0.386399	0.462855
H89	H	0.747151	-0.395268	0.409158
H90	H	0.612175	-0.472842	0.396638
H91	H	0.699767	-0.481715	0.342920
H92	H	0.668252	-0.360179	0.279892
H93	H	0.580640	-0.351314	0.333597
H94	H	0.593123	-0.403710	0.261963
C95	C	0.800838	-0.720756	0.745790
C96	C	0.827250	-0.657783	0.773496
C97	C	0.918740	-0.672899	0.789300
H98	H	0.814490	-0.764175	0.790689
H99	H	0.831333	-0.730295	0.692805
H100	H	0.796765	-0.648254	0.826474
H101	H	0.813621	-0.614357	0.728609
H102	H	0.949235	-0.682438	0.736316
H103	H	0.932384	-0.716320	0.834198
H104	H	0.936674	-0.630173	0.808093
H105	H	1.293685	-0.550524	1.058383
C106	C	1.176470	-1.037863	0.462713
C107	C	1.096977	-1.047012	0.425903
C108	C	1.088914	-1.007122	0.338974
H109	H	1.176413	-0.985297	0.463165
H110	H	1.224979	-1.057177	0.428257
H111	H	1.048481	-1.027695	0.460350
H112	H	1.097016	-1.099569	0.425428
H113	H	1.137422	-1.026435	0.304517
H114	H	1.088859	-0.954558	0.339434
H115	H	1.034982	-1.013329	0.313984
H116	H	0.876853	-0.465184	0.481648
H117	H	1.319563	-1.170350	0.551426
H118	H	1.206647	-1.189082	0.795088
C119	C	1.253839	-0.577395	0.982893
C120	C	1.230949	-0.503347	1.001859
C121	C	1.294785	-0.459697	0.965855
H122	H	1.310129	-0.599778	1.008026
H123	H	1.256368	-0.575622	0.920462
H124	H	1.228430	-0.505123	1.064278
H125	H	1.174669	-0.480942	0.976726
H126	H	1.297314	-0.457924	0.903424
H127	H	1.351072	-0.482087	0.990991
H128	H	1.279259	-0.409449	0.978712
H129	H	1.124160	-0.665750	1.370909
H130	H	1.033214	-0.727625	0.957445
H131	H	1.036824	-0.725149	1.270319
H132	H	1.381018	-0.491142	1.158973
H133	H	1.352300	-0.510650	1.324932
H134	H	1.004502	-0.747121	1.123416
H135	H	0.841715	-0.661635	0.684552
H136	H	0.463423	-0.552990	0.572354
H137	H	0.675446	-0.801118	0.828613
C138	C	1.030691	-1.138936	0.565848
C139	C	0.986706	-1.185351	0.628635
C140	C	0.907589	-1.195717	0.592155
H141	H	0.993926	-1.090897	0.549475
H142	H	1.043629	-1.162536	0.514886
H143	H	0.973765	-1.161750	0.679581
H144	H	1.023445	-1.233398	0.645014
H145	H	0.920527	-1.219318	0.541193
H146	H	0.870832	-1.147675	0.575783
H147	H	0.877739	-1.227216	0.634748
C148	C	0.494286	-0.785874	0.812932
C149	C	0.406452	-0.759244	0.785450
C150	C	0.350852	-0.805618	0.833405
H151	H	0.511374	-0.836758	0.802633
H152	H	0.499053	-0.784500	0.874411
H153	H	0.401690	-0.760626	0.723986
H154	H	0.389338	-0.708367	0.795751
H155	H	0.355618	-0.804244	0.894883
H156	H	0.367947	-0.856500	0.823102
H157	H	0.291250	-0.787552	0.814771
