data_functionalizedCrystal
_audit_creation_method	'MofGen! by Chris Wilmer'
_symmetry_space_group_name_H-M	'P1'
_symmetry_Int_Tables_number	1
_symmetry_cell_setting	triclinic
loop_
_symmetry_equiv_pos_as_xyz
  x,y,z
_cell_length_a	10.654550
_cell_length_b	6.394989
_cell_length_c	9.730223
_cell_angle_alpha	89.998443
_cell_angle_beta	89.996251
_cell_angle_gamma	94.508693
loop_
_atom_site_label
_atom_site_type_symbol
_atom_site_fract_x
_atom_site_fract_y
_atom_site_fract_z
O1	O	1.670942	-0.293432	-0.114394
O2	O	1.305759	-0.321390	-0.114371
O3	O	1.493534	-0.003422	-0.114383
O4	O	1.483167	-0.611400	-0.114381
O5	O	1.493532	-0.003430	0.114197
O6	O	1.305757	-0.321398	0.114209
O7	O	1.670940	-0.293440	0.114186
Zn8	Zn	1.488348	-0.307420	0.150490
Zn9	Zn	1.488351	-0.307410	-0.150674
O10	O	1.483165	-0.611408	0.114199
C11	C	1.258939	-0.319341	-0.000078
C12	C	1.119430	-0.313199	-0.000069
C13	C	1.041927	-0.500414	-0.000089
C14	C	0.910845	-0.494630	-0.000112
C15	C	0.934782	-0.114402	-0.000103
C16	C	1.065861	-0.120188	-0.000070
C17	C	1.028107	-0.719936	-0.000100
C18	C	0.897025	-0.714152	-0.000124
C19	C	1.717760	-0.295489	-0.000109
C20	C	1.857269	-0.301631	-0.000127
C21	C	1.491483	0.074425	-0.000098
C22	C	1.485219	0.310751	-0.000099
N23	N	1.488355	-0.307426	0.356026
N24	N	1.488353	-0.307387	-0.356210
C25	C	1.571524	-0.166678	0.427947
C26	C	1.571521	-0.166653	0.571830
C27	C	1.405175	-0.448142	0.571859
C28	C	1.405174	-0.448156	0.427979
C29	C	1.667567	-0.004169	0.427931
C30	C	1.667563	-0.004143	0.571814
H31	H	0.852055	-0.780498	0.098561
N32	N	1.315446	-0.599940	0.350419
H33	H	1.332238	-0.748451	0.375465
H34	H	1.328097	-0.578421	0.248376
N35	N	1.315458	-0.599917	0.649465
H36	H	1.328074	-0.578549	0.751527
H37	H	1.332303	-0.748363	0.624328
H38	H	1.759289	-0.055053	0.383299
N39	N	1.625058	0.196880	0.630932
H40	H	1.604519	0.293991	0.553669
H41	H	1.694593	0.266794	0.689363
H42	H	1.644423	0.156414	0.388878
N43	N	1.795897	-0.051555	0.623550
H44	H	1.853167	-0.072745	0.542858
H45	H	1.787738	-0.183189	0.681265
H46	H	0.891149	0.042742	-0.000125
N47	N	1.149442	0.081750	-0.000038
H48	H	1.204386	0.087851	-0.084756
H49	H	1.204254	0.087695	0.084769
N50	N	1.068178	-0.833679	0.126605
H51	H	0.991514	-0.880252	0.183131
H52	H	1.127002	-0.736444	0.183061
N53	N	1.076342	-0.812542	-0.130802
H54	H	1.136478	-0.705523	-0.177919
H55	H	1.003168	-0.853044	-0.193887
N56	N	0.842882	-0.823686	-0.126838
H57	H	0.864978	-0.974405	-0.126892
H58	H	0.879102	-0.750315	-0.211554
