data_functionalizedCrystal
_audit_creation_method	'MofGen! by Chris Wilmer'
_symmetry_space_group_name_H-M	'P1'
_symmetry_Int_Tables_number	1
_symmetry_cell_setting	triclinic
loop_
_symmetry_equiv_pos_as_xyz
  x,y,z
_cell_length_a	12.759401
_cell_length_b	12.759400
_cell_length_c	12.759393
_cell_angle_alpha	89.969548
_cell_angle_beta	90.020566
_cell_angle_gamma	89.987219
loop_
_atom_site_label
_atom_site_type_symbol
_atom_site_fract_x
_atom_site_fract_y
_atom_site_fract_z
Zn1	Zn	-1.606267	-0.418266	-0.594010
Zn2	Zn	-1.106267	0.081734	-0.094010
Zn3	Zn	-1.606159	-0.593981	-0.418330
Zn4	Zn	-1.106159	-0.093981	0.081670
Zn5	Zn	-1.430566	-0.418311	-0.418346
Zn6	Zn	-0.930566	0.081689	0.081654
Zn7	Zn	-1.430558	-0.593898	-0.593969
Zn8	Zn	-0.930558	-0.093898	-0.093969
O9	O	-1.518388	-0.506114	-0.506164
O10	O	-1.018388	-0.006114	-0.006164
O11	O	-1.753274	-0.441591	-0.570716
O12	O	-1.253274	0.058409	-0.070716
O13	O	-1.582824	-0.570732	-0.271311
O14	O	-1.082824	-0.070732	0.228689
O15	O	-1.453922	-0.271284	-0.441672
O16	O	-0.953922	0.228716	0.058328
O17	O	-1.753194	-0.570688	-0.441645
O18	O	-1.253194	-0.070688	0.058355
O19	O	-1.583009	-0.271251	-0.570732
O20	O	-1.083009	0.228749	-0.070732
O21	O	-1.453817	-0.441669	-0.271323
O22	O	-0.953817	0.058331	0.228677
O23	O	-1.283544	-0.441587	-0.441632
O24	O	-0.783544	0.058413	0.058368
O25	O	-1.453909	-0.570546	-0.740995
O26	O	-0.953909	-0.070546	-0.240995
O27	O	-1.283538	-0.570590	-0.570661
O28	O	-0.783538	-0.070590	-0.070661
O29	O	-1.583001	-0.441510	-0.741026
O30	O	-1.083001	0.058490	-0.241026
O31	O	-1.582816	-0.740991	-0.441605
O32	O	-1.082816	-0.240991	0.058395
O33	O	-1.453803	-0.740930	-0.570646
O34	O	-0.953803	-0.240930	-0.070646
C35	C	-1.245420	-0.506085	-0.506145
C36	C	-0.745420	-0.006085	-0.006145
C37	C	-1.128644	-0.506098	-0.506161
C38	C	-0.628644	-0.006098	-0.006161
C39	C	-1.518326	-0.779081	-0.506142
C40	C	-1.018326	-0.279081	-0.006142
C41	C	-1.518395	-0.895858	-0.506168
C42	C	-1.018395	-0.395858	-0.006168
C43	C	-1.073824	-0.438997	-0.573472
C44	C	-0.573824	0.061003	-0.073472
C45	C	-0.964100	-0.439003	-0.573477
C46	C	-0.464100	0.060997	-0.073477
C47	C	-0.964025	-0.573222	-0.438859
C48	C	-0.464025	-0.073222	0.061141
C49	C	-1.073747	-0.573210	-0.438849
C50	C	-0.573747	-0.073210	0.061151
C51	C	-0.792421	-0.506134	-0.506180
C52	C	-0.292421	-0.006134	-0.006180
C53	C	-0.909197	-0.506117	-0.506176
C54	C	-0.409197	-0.006117	-0.006176
C55	C	-1.585711	-1.060448	-0.439084
C56	C	-1.085711	-0.560448	0.060916
C57	C	-1.585648	-0.950724	-0.439051
C58	C	-1.085648	-0.450724	0.060949
C59	C	-1.451194	-0.950722	-0.573314
C60	C	-0.951194	-0.450722	-0.073314
C61	C	-1.451252	-1.060444	-0.573341
C62	C	-0.951252	-0.560444	-0.073341
C63	C	-1.518466	-0.506013	-0.780197
C64	C	-1.018466	-0.006013	-0.280197
C65	C	-1.518500	-0.505970	-0.896974
C66	C	-1.018500	-0.005970	-0.396974
C67	C	-1.518478	-0.232081	-0.506209
C68	C	-1.018478	0.267919	-0.006209
C69	C	-1.518517	-0.115304	-0.506228
C70	C	-1.018517	0.384696	-0.006228
C71	C	-1.585723	-0.438770	-0.951853
C72	C	-1.085723	0.061230	-0.451853
C73	C	-1.585741	-0.438725	-1.061578
C74	C	-1.085741	0.061275	-0.561578
C75	C	-1.451309	-0.573088	-1.061533
C76	C	-0.951309	-0.073088	-0.561533
C77	C	-1.451287	-0.573128	-0.951811
C78	C	-0.951287	-0.073128	-0.451811
C79	C	-1.518370	-0.506139	-0.233196
C80	C	-1.018370	-0.006139	0.266804
C81	C	-1.518540	-0.505886	-0.116420
C82	C	-1.018540	-0.005886	0.383580
H83	H	-1.118517	-0.384347	-0.628278
H84	H	-0.618517	0.115653	-0.128278
H85	H	-1.640362	-0.906063	-0.384376
H86	H	-1.140362	-0.406063	0.115624
H87	H	-1.640479	-0.384003	-1.106256
H88	H	-1.140479	0.115997	-0.606256
H89	H	-1.640450	-0.384083	-0.907208
H90	H	-1.140450	0.115917	-0.407208
H91	H	-0.919470	-0.384361	-0.628286
H92	H	-0.419470	0.115639	-0.128286
H93	H	-1.396430	-0.906043	-0.627958
H94	H	-0.896430	-0.406043	-0.127958
H95	H	-1.396530	-1.105109	-0.628020
H96	H	-0.896530	-0.605109	-0.128020
C97	C	-1.134058	-0.647023	-0.364807
C98	C	-0.634058	-0.147023	0.135193
H99	H	-1.207266	-0.637394	-0.374435
H100	H	-0.707266	-0.137394	0.125565
H101	H	-1.116080	-0.717636	-0.380057
H102	H	-0.616080	-0.217636	0.119943
H103	H	-1.116047	-0.631556	-0.294241
H104	H	-0.616047	-0.131556	0.205759
C105	C	-0.903640	-0.647049	-0.364829
C106	C	-0.403640	-0.147049	0.135171
H107	H	-0.952007	-0.687004	-0.324733
H108	H	-0.452007	-0.187004	0.175267
H109	H	-0.860852	-0.692879	-0.404943
H110	H	-0.360852	-0.192879	0.095057
H111	H	-0.860822	-0.606805	-0.319121
H112	H	-0.360822	-0.106805	0.180879
C113	C	-1.377338	-0.647049	-0.891434
C114	C	-0.877338	-0.147049	-0.391434
H115	H	-1.386945	-0.637443	-0.818235
H116	H	-0.886945	-0.137443	-0.318235
H117	H	-1.392688	-0.717637	-0.909402
H118	H	-0.892688	-0.217637	-0.409402
H119	H	-1.306753	-0.631648	-0.909408
H120	H	-0.806753	-0.131648	-0.409408
H121	H	-1.396589	-0.627768	-1.106195
H122	H	-0.896589	-0.127768	-0.606195
H123	H	-1.640482	-1.105112	-0.384435
H124	H	-1.140482	-0.605112	0.115565
