data_functionalizedCrystal
_audit_creation_method	'MofGen! by Chris Wilmer'
_symmetry_space_group_name_H-M	'P1'
_symmetry_Int_Tables_number	1
_symmetry_cell_setting	triclinic
loop_
_symmetry_equiv_pos_as_xyz
  x,y,z
_cell_length_a	11.169417
_cell_length_b	13.032868
_cell_length_c	11.169409
_cell_angle_alpha	82.856498
_cell_angle_beta	89.979747
_cell_angle_gamma	82.786971
loop_
_atom_site_label
_atom_site_type_symbol
_atom_site_fract_x
_atom_site_fract_y
_atom_site_fract_z
Zn1	Zn	1.774155	0.415916	-0.739131
Zn2	Zn	1.748483	0.590704	-0.563914
Zn3	Zn	1.573429	0.415981	-0.538475
Zn4	Zn	1.547902	0.590621	-0.764547
O5	O	1.660992	0.503306	-0.651517
O6	O	1.938698	0.439110	-0.715897
O7	O	1.725201	0.567589	-0.392598
O8	O	1.621482	0.269736	-0.543810
O9	O	1.919837	0.567526	-0.587165
O10	O	1.768954	0.269688	-0.691230
O11	O	1.596589	0.439220	-0.373909
O12	O	1.402094	0.439139	-0.568455
O13	O	1.577976	0.567384	-0.929117
O14	O	1.383340	0.567446	-0.734549
O15	O	1.744202	0.439029	-0.910443
O16	O	1.700450	0.736930	-0.611811
O17	O	1.553084	0.736869	-0.759216
C18	C	1.349170	0.503291	-0.651501
C19	C	1.215767	0.503311	-0.651526
C20	C	1.621244	0.774817	-0.691058
C21	C	1.604349	0.890971	-0.708014
C22	C	1.669795	0.942751	-0.642695
C23	C	1.652335	1.062802	-0.660219
C24	C	1.974032	0.503320	-0.651533
C25	C	2.107431	0.503327	-0.651541
C26	C	1.700889	1.230734	-0.611834
C27	C	1.717790	1.114580	-0.594891
C28	C	1.661105	0.503190	-0.964542
C29	C	1.661154	0.503140	-1.097935
C30	C	1.660960	0.503345	-0.339698
C31	C	1.661187	0.503100	-0.206263
H32	H	1.583378	1.107344	-0.729123
O33	O	1.512992	0.949961	-0.799268
H34	H	1.513604	1.034996	-0.798701
H35	H	1.786757	1.070040	-0.525995
H36	H	1.738757	0.898208	-0.573804
