data_functionalizedCrystal
_audit_creation_method	'MofGen! by Chris Wilmer'
_symmetry_space_group_name_H-M	'P1'
_symmetry_Int_Tables_number	1
_symmetry_cell_setting	triclinic
loop_
_symmetry_equiv_pos_as_xyz
  x,y,z
_cell_length_a	17.019282
_cell_length_b	17.019294
_cell_length_c	16.098538
_cell_angle_alpha	88.846036
_cell_angle_beta	91.140572
_cell_angle_gamma	83.655696
loop_
_atom_site_label
_atom_site_type_symbol
_atom_site_fract_x
_atom_site_fract_y
_atom_site_fract_z
O1	O	1.046637	0.100374	-0.001363
O2	O	1.546637	0.600374	0.498637
O3	O	0.817840	0.112321	-0.018637
O4	O	1.317840	0.612321	0.481363
O5	O	0.938205	-0.008053	-0.001364
O6	O	1.438205	0.491947	0.498636
O7	O	0.926272	0.220748	-0.018636
O8	O	1.426272	0.720748	0.481364
O9	O	0.931174	-0.001049	0.136142
O10	O	1.431174	0.498951	0.636142
O11	O	0.810808	0.119325	0.118869
O12	O	1.310808	0.619325	0.618869
O13	O	1.039606	0.107378	0.136142
O14	O	1.539606	0.607378	0.636142
Zn15	Zn	0.924091	0.114464	0.149338
Zn16	Zn	1.424091	0.614464	0.649338
Zn17	Zn	0.933355	0.105235	-0.031832
Zn18	Zn	1.433355	0.605235	0.468168
O19	O	0.919241	0.227752	0.118870
O20	O	1.419241	0.727752	0.618870
C21	C	0.785040	0.115234	0.048058
C22	C	1.285040	0.615234	0.548058
C23	C	0.697785	0.113468	0.041924
C24	C	1.197785	0.613468	0.541924
C25	C	0.652964	0.116455	0.113998
C26	C	1.152964	0.616455	0.613998
C27	C	0.570980	0.114784	0.108238
C28	C	1.070980	0.614784	0.608238
C29	C	0.533817	0.110132	0.030402
C30	C	1.033817	0.610132	0.530402
C31	C	0.578644	0.107142	-0.041678
C32	C	1.078644	0.607142	0.458322
C33	C	0.660628	0.108808	-0.035917
C34	C	1.160628	0.608808	0.464083
C35	C	0.286472	0.104906	0.009257
C36	C	0.786472	0.604906	0.509257
C37	C	0.204482	0.103243	0.003500
C38	C	0.704482	0.603243	0.503500
C39	C	0.196823	0.110884	0.153417
C40	C	0.696823	0.610884	0.653417
C41	C	0.278808	0.112554	0.159171
C42	C	0.778808	0.612554	0.659171
C43	C	0.323629	0.109560	0.087092
C44	C	0.823629	0.609560	0.587092
C45	C	0.450016	0.108426	0.024512
C46	C	0.950016	0.608426	0.524512
C47	C	0.407429	0.111260	0.092983
C48	C	0.907429	0.611260	0.592983
C49	C	0.934098	-0.033835	0.069446
C50	C	1.434098	0.466165	0.569446
C51	C	0.932328	-0.121091	0.075574
C52	C	1.432328	0.378909	0.575574
C53	C	0.935330	-0.165898	0.003500
C54	C	1.435330	0.334102	0.503500
C55	C	0.933661	-0.247884	0.009260
C56	C	1.433661	0.252116	0.509260
C57	C	0.928995	-0.285062	0.087096
C58	C	1.428995	0.214938	0.587096
C59	C	0.925990	-0.240249	0.159176
C60	C	1.425990	0.259751	0.659176
C61	C	0.927653	-0.158264	0.153415
C62	C	1.427653	0.341736	0.653415
C63	C	0.923777	-0.532412	0.108242
C64	C	1.423777	-0.032412	0.608242
C65	C	0.922116	-0.614404	0.113999
C66	C	1.422116	-0.114404	0.613999
C67	C	0.929786	-0.622033	-0.035918
C68	C	1.429786	-0.122033	0.464082
C69	C	0.931453	-0.540046	-0.041673
C70	C	1.431453	-0.040046	0.458327
C71	C	0.928444	-0.495240	0.030407
C72	C	1.428444	0.004760	0.530407
C73	C	0.927292	-0.368865	0.092987
C74	C	1.427292	0.131135	0.592987
C75	C	0.930142	-0.411438	0.024516
C76	C	1.430142	0.088562	0.524516
C77	C	1.072405	0.104465	0.069446
C78	C	1.572405	0.604465	0.569446
C79	C	1.159661	0.106230	0.075575
C80	C	1.659661	0.606230	0.575575
C81	C	0.923348	0.253533	0.048058
C82	C	1.423348	0.753533	0.548058
C83	C	0.925119	0.340790	0.041924
C84	C	1.425119	0.840790	0.541924
N85	N	0.917774	0.120761	0.272982
N86	N	1.417774	0.620761	0.772982
N87	N	0.939678	0.098932	-0.155475
N88	N	1.439678	0.598932	0.344525
C89	C	0.968881	0.069688	0.323898
C90	C	1.468881	0.569688	0.823898
C91	C	0.964469	0.074101	0.410454
C92	C	1.464469	0.574101	0.910454
C93	C	0.908955	0.129591	0.446092
C94	C	1.408955	0.629591	0.946092
C95	C	0.857842	0.180666	0.395169
C96	C	1.357842	0.680666	0.895169
C97	C	0.862251	0.176249	0.308615
C98	C	1.362251	0.676249	0.808615
C99	C	0.892974	0.145590	0.707047
C100	C	1.392974	0.645590	1.207047
C101	C	0.888571	0.150005	0.793608
C102	C	1.388571	0.650005	1.293608
C103	C	0.995198	0.043438	0.808888
C104	C	1.495198	0.543438	1.308888
C105	C	0.999604	0.039028	0.722331
C106	C	1.499604	0.539028	1.222331
C107	C	0.948489	0.090101	0.671416
C108	C	1.448489	0.590101	1.171416
C109	C	0.904446	0.134105	0.534566
C110	C	1.404446	0.634105	1.034566
C111	C	0.952995	0.085583	0.582944
C112	C	1.452995	0.585583	1.082944
H113	H	0.160322	0.113319	0.212100
H114	H	0.660322	0.613319	0.712100
H115	H	0.534491	0.117203	0.166930
H116	H	1.034491	0.617203	0.666930
Br117	Br	0.920952	-0.419327	0.198619
Br118	Br	1.420952	0.080673	0.698619
Br119	Br	0.399579	0.102070	-0.081117
Br120	Br	0.899579	0.602070	0.418883
Br121	Br	1.033826	0.004783	0.479558
Br122	Br	1.533826	0.504783	0.979558
Br123	Br	0.721458	0.104747	-0.133736
Br124	Br	1.221458	0.604747	0.366264
Br125	Br	0.937791	-0.489596	-0.147311
Br126	Br	1.437791	0.010404	0.352689
Br127	Br	0.915792	-0.664861	0.219642
Br128	Br	1.415792	-0.164861	0.719642
Br129	Br	1.044232	-0.005619	0.275543
Br130	Br	1.544232	0.494381	0.775543
H131	H	0.859246	0.179287	0.563589
H132	H	1.359246	0.679287	1.063589
Br133	Br	0.936476	-0.360980	-0.081116
Br134	Br	1.436476	0.139020	0.418884
Br135	Br	0.933871	-0.682845	-0.133735
Br136	Br	1.433871	-0.182845	0.366265
H137	H	0.851356	0.187177	0.665599
H138	H	1.351356	0.687177	1.165599
H139	H	0.921342	-0.495943	0.166936
H140	H	1.421342	0.004057	0.666936
Br141	Br	0.782493	0.255971	0.443531
Br142	Br	1.282493	0.755971	0.943531
H143	H	0.922186	-0.270526	0.222552
H144	H	1.422186	0.229474	0.722552
Br145	Br	1.074949	-0.036277	0.673964
Br146	Br	1.574949	0.463723	1.173964
H147	H	0.925197	-0.121782	0.212105
H148	H	1.425197	0.378218	0.712105
H149	H	1.036812	0.001856	0.850351
H150	H	1.536812	0.501856	1.350351
Br151	Br	0.941671	-0.115450	-0.102140
Br152	Br	1.441671	0.384550	0.397860
Br153	Br	0.457866	0.117569	0.198615
Br154	Br	0.957866	0.617569	0.698615
H155	H	0.683215	0.120250	0.177380
H156	H	1.183215	0.620250	0.677380
H157	H	0.843362	0.195195	0.822619
H158	H	1.343362	0.695195	1.322619
H159	H	0.820633	0.217838	0.267159
H160	H	1.320633	0.717838	0.767159
H161	H	0.548381	0.103349	-0.105054
H162	H	1.048381	0.603349	0.394946
Br163	Br	0.329236	0.118877	0.264810
Br164	Br	0.829236	0.618877	0.764810
Br165	Br	0.154047	0.096935	-0.102142
Br166	Br	0.654047	0.596935	0.397858
H167	H	0.322956	0.102466	-0.049436
H168	H	0.822956	0.602466	0.450564
H169	H	0.936110	-0.284362	-0.049431
H170	H	1.436110	0.215638	0.450569
H171	H	0.998193	0.040400	0.553925
H172	H	1.498193	0.540400	1.053925
