data_functionalizedCrystal
_audit_creation_method	'MofGen! by Chris Wilmer'
_symmetry_space_group_name_H-M	'P1'
_symmetry_Int_Tables_number	1
_symmetry_cell_setting	triclinic
loop_
_symmetry_equiv_pos_as_xyz
  x,y,z
_cell_length_a	27.732048
_cell_length_b	23.532355
_cell_length_c	22.610064
_cell_angle_alpha	90.008169
_cell_angle_beta	90.003306
_cell_angle_gamma	82.735077
loop_
_atom_site_label
_atom_site_type_symbol
_atom_site_fract_x
_atom_site_fract_y
_atom_site_fract_z
O1	O	0.058554	0.755162	0.049110
O2	O	0.558554	1.255162	0.549110
O3	O	0.067070	0.589276	0.049130
O4	O	0.567070	1.089276	0.549130
O5	O	-0.007578	0.677371	0.049108
O6	O	0.492422	1.177371	0.549108
O7	O	0.133202	0.667067	0.049132
O8	O	0.633202	1.167067	0.549132
O9	O	-0.007569	0.677347	-0.049261
O10	O	0.492431	1.177347	0.450739
O11	O	0.067079	0.589252	-0.049239
O12	O	0.567079	1.089252	0.450761
O13	O	0.058562	0.755137	-0.049259
O14	O	0.558562	1.255137	0.450741
Zn15	Zn	0.062822	0.672191	-0.064867
Zn16	Zn	0.562822	1.172191	0.435133
Zn17	Zn	0.062811	0.672223	0.064739
Zn18	Zn	0.562811	1.172223	0.564739
O19	O	0.133210	0.667043	-0.049237
O20	O	0.633210	1.167043	0.450763
C21	C	0.066862	0.568048	-0.000052
C22	C	0.566862	1.068048	0.499948
C23	C	0.066222	0.504831	-0.000045
C24	C	0.566222	1.004831	0.499955
C25	C	0.062205	0.112812	-0.053692
C26	C	0.562205	0.612812	0.446308
C27	C	0.061596	0.053414	-0.053694
C28	C	0.561596	0.553414	0.446306
O29	O	0.061269	0.022684	-0.099296
O30	O	0.561269	0.522684	0.400704
N31	N	0.061289	0.023720	-0.000073
N32	N	0.561289	0.523720	0.499927
C33	C	0.061587	0.053427	0.053554
C34	C	0.561587	0.553427	0.553554
O35	O	0.061270	0.022716	0.099162
O36	O	0.561270	0.522716	0.599162
C37	C	0.062192	0.112825	0.053555
C38	C	0.562192	0.612825	0.553555
C39	C	0.062504	0.142515	-0.000069
C40	C	0.562504	0.642515	0.499931
C41	C	0.062516	0.142503	-0.107311
C42	C	0.562516	0.642503	0.392689
C43	C	0.063126	0.201896	-0.107309
C44	C	0.563126	0.701896	0.392691
C45	C	0.063424	0.231600	-0.053686
C46	C	0.563424	0.731600	0.446314
C47	C	0.063114	0.201909	-0.000066
C48	C	0.563114	0.701909	0.499934
C49	C	0.062486	0.142532	0.107181
C50	C	0.562486	0.642532	0.607181
C51	C	0.063091	0.201934	0.107179
C52	C	0.563091	0.701934	0.607179
C53	C	0.063403	0.231624	0.053554
C54	C	0.563403	0.731624	0.553554
C55	C	0.064022	0.291006	0.053559
C56	C	0.564022	0.791006	0.553559
N57	N	0.064329	0.320701	-0.000062
N58	N	0.564329	0.820701	0.499938
C59	C	0.064030	0.290997	-0.053685
C60	C	0.564030	0.790997	0.446315
C61	C	0.060314	-0.071312	0.053546
C62	C	0.560314	0.428688	0.553546
C63	C	0.059712	-0.130709	0.053545
C64	C	0.559712	0.369291	0.553545
C65	C	0.059721	-0.130718	-0.053703
C66	C	0.559721	0.369282	0.446297
C67	C	0.060326	-0.071320	-0.053701
C68	C	0.560326	0.428680	0.446299
C69	C	0.060621	-0.041617	-0.000075
C70	C	0.560621	0.458383	0.499925
C71	C	0.065311	0.415729	-0.053675
C72	C	0.565311	0.915729	0.446325
C73	C	0.065923	0.475127	-0.053668
C74	C	0.565923	0.975127	0.446332
C75	C	0.065912	0.475132	0.053580
C76	C	0.565912	0.975132	0.553580
C77	C	0.065303	0.415738	0.053573
C78	C	0.565303	0.915738	0.553573
C79	C	0.065001	0.386038	-0.000059
C80	C	0.565001	0.886038	0.499941
O81	O	0.064348	0.321774	0.099138
O82	O	0.564348	0.821774	0.599138
O83	O	0.064341	0.321717	-0.099285
O84	O	0.564341	0.821717	0.400715
C85	C	-0.025580	0.677143	-0.000078
C86	C	0.474420	1.177143	0.499922
C87	C	-0.079236	0.676491	-0.000083
C88	C	0.420764	1.176491	0.499917
C89	C	-0.417985	0.724449	-0.000058
C90	C	0.082015	1.224449	0.499942
C91	C	-0.619648	0.722033	-0.000049
C92	C	-0.119648	1.222033	0.499951
O93	O	-0.650843	0.765887	-0.000029
O94	O	-0.150843	1.265887	0.499971
N95	N	-0.638844	0.669796	-0.000044
N96	N	-0.138844	1.169796	0.499956
C97	C	-0.607621	0.618160	-0.000036
C98	C	-0.107621	1.118160	0.499964
O99	O	-0.628575	0.573674	-0.000025
O100	O	-0.128575	1.073674	0.499975
C101	C	-0.405959	0.620577	-0.000041
C102	C	0.094041	1.120577	0.499959
C103	C	-0.386766	0.672817	-0.000052
C104	C	0.113234	1.172817	0.499948
C105	C	-0.398792	0.776685	-0.000069
C106	C	0.101208	1.276685	0.499931
C107	C	-0.348379	0.777289	-0.000074
C108	C	0.151621	1.277289	0.499926
C109	C	-0.317160	0.725657	-0.000069
C110	C	0.182840	1.225657	0.499931
C111	C	-0.336353	0.673421	-0.000058
C112	C	0.163647	1.173421	0.499942
C113	C	-0.374736	0.568942	-0.000029
C114	C	0.125264	1.068942	0.499971
C115	C	-0.324318	0.569551	-0.000029
C116	C	0.175682	1.069551	0.499971
C117	C	-0.305125	0.621791	-0.000040
C118	C	0.194875	1.121791	0.499960
C119	C	-0.254721	0.622392	-0.000057
C120	C	0.245279	1.122392	0.499943
N121	N	-0.235525	0.674629	-0.000063
N122	N	0.264475	1.174629	0.499937
C123	C	-0.266744	0.726261	-0.000069
C124	C	0.233256	1.226261	0.499931
C125	C	-0.713496	0.616895	-0.000035
C126	C	-0.213496	1.116895	0.499965
C127	C	-0.763912	0.616290	-0.000035
C128	C	-0.263912	1.116290	0.499965
C129	C	-0.775936	0.720163	-0.000047
C130	C	-0.275936	1.220163	0.499953
C131	C	-0.725520	0.720767	-0.000051
C132	C	-0.225520	1.220767	0.499949
C133	C	-0.694301	0.669131	-0.000041
C134	C	-0.194301	1.169131	0.499959
C135	C	-0.160873	0.727525	-0.000080
C136	C	0.339127	1.227525	0.499920
C137	C	-0.110456	0.728124	-0.000088
C138	C	0.389544	1.228124	0.499912
C139	C	-0.098436	0.624251	-0.000073
C140	C	0.401564	1.124251	0.499927
C141	C	-0.148849	0.623652	-0.000068
C142	C	0.351151	1.123652	0.499932
C143	C	-0.180067	0.675293	-0.000070
C144	C	0.319933	1.175293	0.499930
O145	O	-0.223497	0.578561	-0.000071
O146	O	0.276503	1.078561	0.499929
O147	O	-0.245780	0.770740	-0.000067
O148	O	0.254220	1.270740	0.499933
C149	C	-0.468398	0.723846	-0.000053
C150	C	0.031602	1.223846	0.499947
C151	C	-0.487591	0.671610	-0.000042
C152	C	0.012409	1.171610	0.499958
C153	C	-0.456372	0.619978	-0.000036
C154	C	0.043628	1.119978	0.499964
C155	C	-0.538007	0.671006	-0.000042
C156	C	-0.038007	1.171006	0.499958
C157	C	-0.569226	0.722638	-0.000047
C158	C	-0.069226	1.222638	0.499953
C159	C	-0.550030	0.774875	-0.000053
C160	C	-0.050030	1.274875	0.499947
C161	C	-0.499617	0.775478	-0.000058
C162	C	0.000383	1.275478	0.499942
C163	C	-0.475568	0.567741	-0.000030
C164	C	0.024432	1.067741	0.499970
C165	C	-0.525981	0.567142	-0.000026
C166	C	-0.025981	1.067142	0.499974
C167	C	-0.557200	0.618774	-0.000031
C168	C	-0.057200	1.118774	0.499969
C169	C	0.151213	0.667271	-0.000050
C170	C	0.651213	1.167271	0.499950
C171	C	0.204869	0.667923	-0.000041
C172	C	0.704869	1.167923	0.499959
C173	C	0.058771	0.776366	-0.000075
C174	C	0.558771	1.276366	0.499925
C175	C	0.059411	0.839583	-0.000078
C176	C	0.559411	1.339583	0.499922
N177	N	0.062829	0.672173	-0.153320
N178	N	0.562829	1.172173	0.346680
C179	C	0.033644	0.637927	-0.438162
C180	C	0.533644	1.137927	0.061838
C181	C	0.033646	0.637921	-0.376242
C182	C	0.533646	1.137921	0.123758
O183	O	0.008834	0.608780	-0.344218
O184	O	0.508834	1.108780	0.155782
N185	N	0.062814	0.672196	-0.345272
N186	N	0.562814	1.172196	0.154728
C187	C	0.091977	0.706484	-0.376225
C188	C	0.591977	1.206484	0.123775
O189	O	0.116786	0.735637	-0.344197
O190	O	0.616786	1.235637	0.155803
C191	C	0.091972	0.706492	-0.438144
C192	C	0.591972	1.206492	0.061856
C193	C	0.062806	0.672210	-0.469111
C194	C	0.562806	1.172210	0.030889
C195	C	0.004480	0.603648	-0.469129
C196	C	0.504480	1.103648	0.030871
C197	C	0.004479	0.603653	-0.531044
C198	C	0.504479	1.103653	-0.031044
C199	C	0.033641	0.637936	-0.561993
C200	C	0.533641	1.137936	-0.061993
C201	C	0.062805	0.672215	-0.531026
C202	C	0.562805	1.172215	-0.031026
C203	C	0.121132	0.740782	-0.469096
C204	C	0.621132	1.240782	0.030904
C205	C	0.121124	0.740787	-0.531019
C206	C	0.621124	1.240787	-0.031019
C207	C	0.091958	0.706505	-0.561986
C208	C	0.591958	1.206505	-0.061986
C209	C	0.091965	0.706503	-0.623891
C210	C	0.591965	1.206503	-0.123891
N211	N	0.062798	0.672228	-0.654861
N212	N	0.562798	1.172228	-0.154861
C213	C	0.033636	0.637944	-0.623912
C214	C	0.533636	1.137944	-0.123912
C215	C	0.091985	0.706465	-0.246191
C216	C	0.591985	1.206465	0.253809
C217	C	0.091994	0.706454	-0.184274
C218	C	0.591994	1.206454	0.315726
C219	C	0.033662	0.637892	-0.184295
C220	C	0.533662	1.137892	0.315705
C221	C	0.033657	0.637900	-0.246214
C222	C	0.533657	1.137900	0.253786
C223	C	0.062818	0.672189	-0.277161
C224	C	0.562818	1.172189	0.222839
C225	C	0.033635	0.637957	-0.753939
C226	C	0.533635	1.137957	-0.253939
C227	C	0.033637	0.637963	-0.815860
C228	C	0.533637	1.137963	-0.315860
C229	C	0.091967	0.706527	-0.815834
C230	C	0.591967	1.206527	-0.315834
C231	C	0.091966	0.706518	-0.753918
C232	C	0.591966	1.206518	-0.253918
C233	C	0.062797	0.672232	-0.722972
C234	C	0.562797	1.172232	-0.222972
O235	O	0.116764	0.735631	-0.655954
O236	O	0.616764	1.235631	-0.155954
O237	O	0.008826	0.608801	-0.655947
O238	O	0.508826	1.108801	-0.155947
N239	N	0.062800	0.672246	0.153191
N240	N	0.562800	1.172246	0.653191
H241	H	0.062271	0.118325	-0.150980
H242	H	0.562271	0.618325	0.349020
H243	H	-0.424206	0.818733	-0.000071
H244	H	0.075794	1.318733	0.499929
H245	H	-0.332757	0.819828	-0.000081
H246	H	0.167243	1.319828	0.499919
H247	H	-0.801363	0.762204	-0.000052
H248	H	-0.301363	1.262204	0.499948
C249	C	-0.547086	0.509670	-0.000013
C250	C	-0.047086	1.009670	0.499987
N251	N	-0.562982	0.466383	0.000002
N252	N	-0.062982	0.966383	0.500002
H253	H	0.144870	0.768711	-0.556213
H254	H	0.644870	1.268711	-0.056213
H255	H	-0.390354	0.526402	-0.000016
H256	H	0.109646	1.026402	0.499984
H257	H	0.060580	-0.047150	-0.097367
H258	H	0.560580	0.452850	0.402633
H259	H	-0.186286	0.769576	-0.000079
H260	H	0.313714	1.269576	0.499921
H261	H	-0.164477	0.581114	-0.000075
H262	H	0.335523	1.081114	0.499925
C263	C	-0.289980	0.512745	-0.000019
C264	C	0.210020	1.012745	0.499981
N265	N	-0.264117	0.469960	-0.000014
N266	N	0.235883	0.969960	0.499986
C267	C	0.063417	0.234603	0.166173
C268	C	0.563417	0.734603	0.666173
N269	N	0.063664	0.259208	0.210608
N270	N	0.563664	0.759208	0.710608
C271	C	0.124082	0.744162	-0.150217
C272	C	0.624082	1.244162	0.349783
N273	N	0.148249	0.772569	-0.124568
N274	N	0.648249	1.272569	0.375432
H275	H	0.065069	0.391553	-0.097347
H276	H	0.565069	0.891553	0.402653
H277	H	0.009887	0.610044	-0.841071
H278	H	0.509887	1.110044	-0.341071
H279	H	0.059476	-0.154913	-0.097366
H280	H	0.559476	0.345087	0.402634
H281	H	-0.073008	0.582213	-0.000071
H282	H	0.426992	1.082213	0.499929
C283	C	0.059374	-0.163362	0.112536
C284	C	0.559374	0.336638	0.612536
N285	N	0.059115	-0.187954	0.156970
N286	N	0.559115	0.312046	0.656970
C287	C	-0.704413	0.778235	-0.000059
C288	C	-0.204413	1.278235	0.499941
N289	N	-0.688518	0.821522	-0.000063
N290	N	-0.188518	1.321522	0.499937
C291	C	0.066263	0.507784	-0.112661
C292	C	0.566263	1.007784	0.387339
N293	N	0.066518	0.532379	-0.157094
N294	N	0.566518	1.032379	0.342906
C295	C	0.060645	-0.038645	0.112543
C296	C	0.560645	0.461355	0.612543
N297	N	0.060893	-0.014043	0.156979
N298	N	0.560893	0.485957	0.656979
C299	C	0.062136	0.109887	0.166174
C300	C	0.562136	0.609887	0.666174
N301	N	0.061868	0.085300	0.210610
N302	N	0.561868	0.585300	0.710610
C303	C	0.001570	0.600191	-0.280271
C304	C	0.501570	1.100191	0.219729
N305	N	-0.022601	0.571788	-0.305920
N306	N	0.477399	1.071788	0.194080
C307	C	0.064966	0.383076	0.112562
C308	C	0.564966	0.883076	0.612562
N309	N	0.064707	0.358481	0.156994
N310	N	0.564707	0.858481	0.656994
H311	H	-0.483996	0.818017	-0.000067
H312	H	0.016004	1.318017	0.499933
H313	H	-0.094832	0.770666	-0.000099
H314	H	0.405168	1.270666	0.499901
C315	C	0.066238	0.507817	0.112562
C316	C	0.566238	1.007817	0.612562
N317	N	0.066478	0.532439	0.156987
N318	N	0.566478	1.032439	0.656987
H319	H	-0.779534	0.573751	-0.000036
H320	H	-0.279534	1.073751	0.499964
H321	H	-0.688082	0.574844	-0.000027
H322	H	-0.188082	1.074844	0.499973
H323	H	0.115736	0.734385	-0.271385
H324	H	0.615736	1.234385	0.228615
C325	C	0.153213	0.778501	-0.435046
C326	C	0.653213	1.278501	0.064954
N327	N	0.177376	0.806915	-0.409401
N328	N	0.677376	1.306915	0.090599
C329	C	0.124042	0.744238	-0.849889
C330	C	0.624042	1.244238	-0.349889
N331	N	0.148198	0.772647	-0.875542
N332	N	0.648198	1.272647	-0.375542
C333	C	-0.584381	0.831670	-0.000058
C334	C	-0.084381	1.331670	0.499942
N335	N	-0.610257	0.874446	-0.000058
N336	N	-0.110257	1.374446	0.499942
H337	H	-0.450153	0.525695	-0.000024
H338	H	0.049847	1.025695	0.499976
C339	C	0.001550	0.600236	-0.719908
C340	C	0.501550	1.100236	-0.219908
N341	N	-0.022614	0.571821	-0.694276
N342	N	0.477386	1.071821	-0.194276
H343	H	-0.019273	0.575739	-0.556252
H344	H	0.480727	1.075739	-0.056252
C345	C	-0.027601	0.565927	-0.435095
C346	C	0.472399	1.065927	0.064905
N347	N	-0.051763	0.537510	-0.409464
N348	N	0.448237	1.037510	0.090536
H349	H	0.009917	0.609976	-0.159085
H350	H	0.509917	1.109976	0.340915
H351	H	0.063376	0.226066	-0.150975
H352	H	0.563376	0.726066	0.349025
C353	C	0.124053	0.744226	-0.719854
C354	C	0.624053	1.244226	-0.219854
N355	N	0.148218	0.772633	-0.694200
N356	N	0.648218	1.272633	-0.194200
