data_functionalizedCrystal
_audit_creation_method	'MofGen! by Chris Wilmer'
_symmetry_space_group_name_H-M	'P1'
_symmetry_Int_Tables_number	1
_symmetry_cell_setting	triclinic
loop_
_symmetry_equiv_pos_as_xyz
  x,y,z
_cell_length_a	14.853567
_cell_length_b	8.559649
_cell_length_c	7.088929
_cell_angle_alpha	95.344185
_cell_angle_beta	83.784574
_cell_angle_gamma	76.706797
loop_
_atom_site_label
_atom_site_type_symbol
_atom_site_fract_x
_atom_site_fract_y
_atom_site_fract_z
O1	O	-1.171395	-0.224970	-0.158849
O2	O	-0.907195	-0.249820	-0.158881
O3	O	-1.062571	-0.004844	-0.158860
O4	O	-1.016018	-0.469946	-0.158870
O5	O	-1.083341	0.027968	0.159118
O6	O	-0.927965	-0.217008	0.159097
O7	O	-1.192164	-0.192157	0.159129
Cu8	Cu	-1.061961	-0.201586	0.188147
Cu9	Cu	-1.037398	-0.240391	-0.187899
O10	O	-1.036788	-0.437133	0.159108
C11	C	-1.076484	0.071084	0.000125
C12	C	-1.086984	0.248440	0.000116
C13	C	-0.884070	-0.232289	0.000104
C14	C	-0.784221	-0.228916	0.000091
C15	C	-1.215289	-0.209689	0.000140
C16	C	-1.315137	-0.213063	0.000139
C17	C	-0.382866	-0.069130	0.000137
C18	C	-0.341229	-0.360165	0.000130
C19	C	-0.435040	-0.363338	0.000123
C20	C	-0.502769	-0.219405	0.000121
C21	C	-0.476686	-0.072299	0.000126
C22	C	-0.461129	-0.510444	0.000100
C23	C	-0.554945	-0.513623	0.000092
C24	C	-0.622677	-0.369686	0.000103
C25	C	-0.596589	-0.222574	0.000109
C26	C	-0.664318	-0.078641	0.000107
C27	C	-0.638234	0.068474	0.000127
C28	C	-0.544418	0.071637	0.000137
C29	C	-0.716492	-0.372849	0.000093
C30	C	-0.758139	-0.081810	0.000096
C31	C	-1.022875	-0.513062	0.000118
C32	C	-1.012374	-0.690419	0.000115
N33	N	-1.079243	-0.174292	0.452637
N34	N	-1.020124	-0.267673	-0.452389
H35	H	-0.813280	0.035401	0.000101
H36	H	-1.158901	0.331788	0.000140
H37	H	-1.140523	-0.077528	0.534301
H38	H	-0.737727	-0.492628	0.000081
H39	H	-0.693390	0.185663	0.000113
H40	H	-0.523173	0.191415	0.000199
H41	H	-0.405977	-0.627628	0.000082
H42	H	-0.361624	0.050648	0.000161
H43	H	-0.958854	-0.364442	0.465956
H44	H	-0.286078	-0.477351	0.000115
H45	H	-0.576174	-0.633412	0.000075
H46	H	-0.940464	0.226244	0.000112
