data_functionalizedCrystal
_audit_creation_method	'MofGen! by Chris Wilmer'
_symmetry_space_group_name_H-M	'P1'
_symmetry_Int_Tables_number	1
_symmetry_cell_setting	triclinic
loop_
_symmetry_equiv_pos_as_xyz
  x,y,z
_cell_length_a	12.827893
_cell_length_b	12.645330
_cell_length_c	12.827885
_cell_angle_alpha	89.971022
_cell_angle_beta	89.980728
_cell_angle_gamma	90.017662
loop_
_atom_site_label
_atom_site_type_symbol
_atom_site_fract_x
_atom_site_fract_y
_atom_site_fract_z
Zn1	Zn	1.597653	-0.421989	-0.590855
Zn2	Zn	1.597540	-0.599290	-0.416117
Zn3	Zn	1.422894	-0.422040	-0.416128
Zn4	Zn	1.422873	-0.599211	-0.590817
O5	O	1.510240	-0.510632	-0.503479
O6	O	1.743874	-0.445520	-0.567686
O7	O	1.574335	-0.575832	-0.269883
O8	O	1.446133	-0.273686	-0.439326
O9	O	1.743791	-0.575782	-0.439308
O10	O	1.574527	-0.273648	-0.567697
O11	O	1.446023	-0.445608	-0.269891
O12	O	1.276655	-0.445531	-0.439290
O13	O	1.446096	-0.575647	-0.737058
O14	O	1.276639	-0.575697	-0.567633
O15	O	1.574506	-0.445443	-0.737086
O16	O	1.574314	-0.747626	-0.439271
O17	O	1.445986	-0.747568	-0.567623
C18	C	1.238730	-0.510612	-0.503459
C19	C	1.122577	-0.510629	-0.503476
C20	C	1.070812	-0.575140	-0.566886
C21	C	0.950762	-0.575159	-0.566904
C22	C	1.510164	-0.786062	-0.503465
C23	C	1.510227	-0.903892	-0.503493
C24	C	1.429829	-1.071464	-0.584488
C25	C	1.429418	-0.948904	-0.584228
C26	C	1.480414	-0.948494	-0.393362
C27	C	1.479923	-1.071093	-0.393854
C28	C	1.620929	-1.070979	-0.531736
C29	C	1.620251	-0.948372	-0.534144
C30	C	1.782810	-0.510654	-0.503500
C31	C	1.898963	-0.510663	-0.503509
C32	C	1.510311	-0.510531	-0.776050
C33	C	1.510341	-0.510487	-0.892203
C34	C	1.510345	-0.234127	-0.503517
C35	C	1.510390	-0.116297	-0.503533
C36	C	1.573890	-0.446045	-0.944001
C37	C	1.573923	-0.445999	-1.064052
C38	C	1.510229	-0.510657	-0.231969
C39	C	1.510401	-0.510402	-0.115817
H40	H	0.906245	-0.630392	-0.621189
C41	C	1.370758	-1.109858	-0.361583
N42	N	1.288530	-1.139051	-0.337280
C43	C	1.436894	-0.584941	-1.055648
N44	N	1.381527	-0.641082	-1.010321
H45	H	1.642733	-0.919216	-0.615195
C46	C	1.647423	-0.371460	-1.124227
N47	N	1.702784	-0.315312	-1.169554
H48	H	1.455953	-0.565617	-0.936733
H49	H	1.680949	-1.099972	-0.472773
H50	H	1.115371	-0.630352	-0.621164
C51	C	0.959093	-0.436040	-0.430165
N52	N	1.004391	-0.379832	-0.374925
C53	C	1.318690	-0.909407	-0.559062
N54	N	1.235280	-0.879658	-0.540132
C55	C	1.557163	-0.909102	-0.309644
N56	N	1.614970	-0.879427	-0.246589
C57	C	1.454612	-0.908157	-0.694550
N58	N	1.473585	-0.877471	-0.777651
C59	C	1.454787	-1.111198	-0.695173
N60	N	1.473586	-1.141136	-0.778543
C61	C	1.319807	-1.113196	-0.559561
N62	N	1.236939	-1.144627	-0.540780
C63	C	1.372382	-0.907154	-0.360504
N64	N	1.291010	-0.876019	-0.335761
H65	H	1.078018	-0.455408	-0.449206
C66	C	1.555741	-1.111167	-0.309580
N67	N	1.612839	-1.141347	-0.246099
H68	H	1.648124	-1.101818	-0.610678
C69	C	1.705610	-0.906975	-0.460285
N70	N	1.769900	-0.875797	-0.404644
C71	C	1.647357	-0.371552	-0.883848
N72	N	1.702695	-0.315442	-0.838541
