data_functionalizedCrystal
_audit_creation_method	'MofGen! by Chris Wilmer'
_symmetry_space_group_name_H-M	'P1'
_symmetry_Int_Tables_number	1
_symmetry_cell_setting	triclinic
loop_
_symmetry_equiv_pos_as_xyz
  x,y,z
_cell_length_a	21.395364
_cell_length_b	18.101390
_cell_length_c	21.395361
_cell_angle_alpha	89.962880
_cell_angle_beta	90.045659
_cell_angle_gamma	89.980642
loop_
_atom_site_label
_atom_site_type_symbol
_atom_site_fract_x
_atom_site_fract_y
_atom_site_fract_z
Zn1	Zn	0.957827	-0.418712	-0.249165
Zn2	Zn	1.291161	-0.085379	0.084169
Zn3	Zn	1.624494	0.247955	0.417502
Zn4	Zn	0.957739	-0.294862	-0.353953
Zn5	Zn	1.291072	0.038472	-0.020620
Zn6	Zn	1.624406	0.371805	0.312714
Zn7	Zn	0.853052	-0.294885	-0.249221
Zn8	Zn	1.186385	0.038449	0.084113
Zn9	Zn	1.519718	0.371782	0.417446
Zn10	Zn	0.853011	-0.418662	-0.353936
Zn11	Zn	1.186345	-0.085328	-0.020602
Zn12	Zn	1.519678	0.248005	0.312731
O13	O	0.905407	-0.356780	-0.301569
O14	O	1.238741	-0.023447	0.031765
O15	O	1.572074	0.309887	0.365098
O16	O	1.045493	-0.402295	-0.263049
O17	O	1.378827	-0.068961	0.070284
O18	O	1.712160	0.264372	0.403618
O19	O	0.943832	-0.191232	-0.340091
O20	O	1.277165	0.142102	-0.006757
O21	O	1.610499	0.475435	0.326576
O22	O	0.867004	-0.311342	-0.161535
O23	O	1.200337	0.021992	0.171798
O24	O	1.533671	0.355325	0.505131
O25	O	1.045429	-0.311302	-0.340036
O26	O	1.378762	0.022031	-0.006703
O27	O	1.712095	0.355365	0.326630
O28	O	0.943982	-0.402317	-0.161494
O29	O	1.277316	-0.068984	0.171839
O30	O	1.610649	0.264350	0.505172
O31	O	0.866919	-0.191249	-0.263144
O32	O	1.200252	0.142085	0.070189
O33	O	1.533585	0.475418	0.403522
O34	O	0.765368	-0.311293	-0.263128
O35	O	1.098702	0.022041	0.070206
O36	O	1.432035	0.355374	0.403539
O37	O	0.866935	-0.522301	-0.340007
O38	O	1.200269	-0.188968	-0.006674
O39	O	1.533602	0.144365	0.326660
O40	O	0.765339	-0.402231	-0.340061
O41	O	1.098672	-0.068898	-0.006728
O42	O	1.432005	0.264436	0.326605
O43	O	0.943943	-0.522338	-0.263032
O44	O	1.277276	-0.189005	0.070301
O45	O	1.610610	0.144328	0.403635
O46	O	0.943793	-0.311253	-0.441629
O47	O	1.277126	0.022080	-0.108295
O48	O	1.610460	0.355414	0.225038
O49	O	0.866850	-0.402208	-0.441616
O50	O	1.200183	-0.068875	-0.108283
O51	O	1.533517	0.264458	0.225051
C52	C	0.742620	-0.356759	-0.301599
C53	C	1.075953	-0.023426	0.031734
C54	C	1.409286	0.309907	0.365068
C55	C	0.672978	-0.356768	-0.301627
C56	C	1.006312	-0.023435	0.031706
C57	C	1.339645	0.309899	0.365040
C58	C	0.640321	-0.404221	-0.261605
C59	C	0.973655	-0.070888	0.071728
C60	C	1.306988	0.262446	0.405061
C61	C	0.574886	-0.404224	-0.261589
C62	C	0.908219	-0.070890	0.071745
C63	C	1.241553	0.262443	0.405078
C64	C	0.542110	-0.356781	-0.301605
C65	C	0.875443	-0.023448	0.031728
C66	C	1.208777	0.309885	0.365062
C67	C	0.574775	-0.309319	-0.341630
C68	C	0.908108	0.024014	-0.008296
C69	C	1.241442	0.357348	0.325037
C70	C	0.640209	-0.309312	-0.341641
C71	C	0.973543	0.024021	-0.008307
C72	C	1.306876	0.357354	0.325026
C73	C	0.438386	-0.350824	-0.358031
C74	C	0.771720	-0.017490	-0.024698
C75	C	1.105053	0.315843	0.308636
C76	C	0.372953	-0.350836	-0.358021
C77	C	0.706287	-0.017502	-0.024688
C78	C	1.039620	0.315831	0.308646
C79	C	0.340289	-0.356798	-0.301571
C80	C	0.673623	-0.023465	0.031763
C81	C	1.006956	0.309869	0.365096
C82	C	0.373067	-0.362764	-0.245128
C83	C	0.706400	-0.029430	0.088205
C84	C	1.039733	0.303903	0.421538
C85	C	0.438501	-0.362757	-0.245139
C86	C	0.771834	-0.029424	0.088194
C87	C	1.105167	0.303910	0.421527
C88	C	0.471158	-0.356783	-0.301597
C89	C	0.804491	-0.023450	0.031736
C90	C	1.137824	0.309884	0.365069
C91	C	0.236680	-0.404256	-0.261527
C92	C	0.570013	-0.070923	0.071806
C93	C	0.903346	0.262410	0.405139
C94	C	0.171243	-0.404254	-0.261509
C95	C	0.504576	-0.070921	0.071824
C96	C	0.837910	0.262413	0.405157
C97	C	0.171134	-0.309353	-0.341556
C98	C	0.504467	0.023980	-0.008223
C99	C	0.837800	0.357313	0.325111
C100	C	0.236569	-0.309352	-0.341568
C101	C	0.569902	0.023981	-0.008235
C102	C	0.903236	0.357315	0.325098
C103	C	0.269338	-0.356807	-0.301555
C104	C	0.602671	-0.023474	0.031779
C105	C	0.936005	0.309859	0.365112
C106	C	0.905445	-0.549942	-0.301511
C107	C	1.238778	-0.216609	0.031822
C108	C	1.572111	0.116725	0.365155
C109	C	0.905460	-0.632256	-0.301487
C110	C	1.238794	-0.298923	0.031846
C111	C	1.572127	0.034411	0.365180
C112	C	0.905494	-0.931347	-0.301448
C113	C	1.238828	-0.598014	0.031885
C114	C	1.572161	-0.264681	0.365219
C115	C	0.954105	-0.900045	-0.253188
C116	C	1.287438	-0.566712	0.080146
C117	C	1.620772	-0.233379	0.413479
C118	C	0.953953	-0.814427	-0.253009
C119	C	1.287287	-0.481094	0.080325
C120	C	1.620620	-0.147760	0.413658
C121	C	0.905478	-0.782965	-0.301467
C122	C	1.238811	-0.449631	0.031866
C123	C	1.572145	-0.116298	0.365199
C124	C	0.839472	-0.814040	-0.283546
C125	C	1.172806	-0.480707	0.049788
C126	C	1.506139	-0.147373	0.383121
C127	C	0.839763	-0.899685	-0.283184
C128	C	1.173097	-0.566352	0.050150
C129	C	1.506430	-0.233019	0.383483
C130	C	0.922308	-0.899754	-0.367754
C131	C	1.255641	-0.566420	-0.034421
C132	C	1.588974	-0.233087	0.298913
C133	C	0.923756	-0.814104	-0.367415
C134	C	1.257090	-0.480770	-0.034082
C135	C	1.590423	-0.147437	0.299251
C136	C	0.905465	-0.699105	-0.301479
C137	C	1.238798	-0.365772	0.031854
C138	C	1.572131	-0.032438	0.365187
C139	C	0.905503	-1.015207	-0.301434
C140	C	1.238836	-0.681873	0.031899
C141	C	1.572170	-0.348540	0.365232
C142	C	1.068831	-0.356801	-0.301538
C143	C	1.402164	-0.023468	0.031795
C144	C	1.735497	0.309865	0.365128
C145	C	1.138472	-0.356810	-0.301526
C146	C	1.471805	-0.023477	0.031808
C147	C	1.805139	0.309856	0.365141
C148	C	0.905325	-0.356739	-0.464356
C149	C	1.238658	-0.023405	-0.131023
C150	C	1.571991	0.309928	0.202310
C151	C	0.905347	-0.356746	-0.533997
C152	C	1.238680	-0.023413	-0.200664
C153	C	1.572013	0.309921	0.132669
C154	C	0.905406	-0.164369	-0.301580
C155	C	1.238740	0.168964	0.031753
C156	C	1.572073	0.502297	0.365086
C157	C	0.905512	-0.082056	-0.301428
C158	C	1.238845	0.251278	0.031905
C159	C	1.572179	0.584611	0.365239
C160	C	0.945446	-0.309434	-0.566696
C161	C	1.278780	0.023899	-0.233363
C162	C	1.612113	0.357233	0.099970
C163	C	0.945475	-0.309451	-0.632132
C164	C	1.278809	0.023883	-0.298798
C165	C	1.612142	0.357216	0.034535
C166	C	0.905394	-0.356771	-0.664866
C167	C	1.238727	-0.023438	-0.331532
C168	C	1.572060	0.309895	0.001801
C169	C	0.865291	-0.404092	-0.632159
C170	C	1.198624	-0.070759	-0.298826
C171	C	1.531958	0.262574	0.034508
C172	C	0.865268	-0.404080	-0.566725
C173	C	1.198601	-0.070746	-0.233391
C174	C	1.531934	0.262587	0.099942
C175	C	0.848979	-0.362575	-0.768594
C176	C	1.182312	-0.029241	-0.435261
C177	C	1.515645	0.304092	-0.101928
C178	C	0.849001	-0.362582	-0.834027
C179	C	1.182334	-0.029249	-0.500694
C180	C	1.515668	0.304084	-0.167361
C181	C	0.905467	-0.356815	-0.866686
C182	C	1.238800	-0.023481	-0.533353
C183	C	1.572133	0.309852	-0.200020
C184	C	0.961911	-0.351024	-0.833905
C185	C	1.295245	-0.017691	-0.500571
C186	C	1.628578	0.315642	-0.167238
C187	C	0.961888	-0.351012	-0.768470
C188	C	1.295221	-0.017678	-0.435137
C189	C	1.628555	0.315655	-0.101804
C190	C	0.905415	-0.356791	-0.735818
C191	C	1.238748	-0.023457	-0.402485
C192	C	1.572082	0.309876	-0.069151
C193	C	0.945601	-0.309518	-0.970338
C194	C	1.278935	0.023815	-0.637005
C195	C	1.612268	0.357148	-0.303671
C196	C	0.945632	-0.309540	-1.035774
C197	C	1.278965	0.023793	-0.702441
C198	C	1.612298	0.357127	-0.369108
C199	C	0.865442	-0.404178	-1.035800
C200	C	1.198775	-0.070845	-0.702467
C201	C	1.532108	0.262489	-0.369134
C202	C	0.865417	-0.404160	-0.970365
C203	C	1.198750	-0.070827	-0.637032
C204	C	1.532084	0.262506	-0.303698
C205	C	0.905496	-0.356826	-0.937638
C206	C	1.238829	-0.023493	-0.604304
C207	C	1.572163	0.309840	-0.270971
C208	C	0.905507	-0.356838	-0.138145
C209	C	1.238841	-0.023504	0.195188
C210	C	1.572174	0.309829	0.528521
C211	C	0.905550	-0.356862	-0.068504
C212	C	1.238883	-0.023529	0.264829
C213	C	1.572217	0.309805	0.598163
H214	H	0.666998	-0.442862	-0.229023
H215	H	1.000331	-0.109529	0.104311
H216	H	1.333665	0.223804	0.437644
N217	N	0.791292	-0.368441	-0.735242
N218	N	1.124625	-0.035108	-0.401908
N219	N	1.457958	0.298225	-0.068575
N220	N	0.774892	-0.318113	-0.698790
N221	N	1.108225	0.015220	-0.365456
N222	N	1.441559	0.348553	-0.032123
H223	H	0.734151	-0.322253	-0.675236
H224	H	1.067484	0.011081	-0.341903
H225	H	1.400818	0.344414	-0.008570
H226	H	0.263159	-0.270713	-0.374161
H227	H	0.596492	0.062620	-0.040828
H228	H	0.929825	0.395953	0.292506
H229	H	0.263362	-0.442893	-0.228942
H230	H	0.596695	-0.109560	0.104392
H231	H	0.930029	0.223774	0.437725
N232	N	0.824459	-0.452496	-0.936962
N233	N	1.157792	-0.119162	-0.603629
N234	N	1.491126	0.214171	-0.270296
N235	N	0.828587	-0.520836	-0.944221
N236	N	1.161921	-0.187503	-0.610887
N237	N	1.495254	0.145830	-0.277554
H238	H	0.799661	-0.554979	-0.920631
H239	H	1.132994	-0.221646	-0.587297
H240	H	1.466328	0.111688	-0.253964
N241	N	0.339488	-0.344734	-0.415679
N242	N	0.672821	-0.011401	-0.082345
N243	N	1.006155	0.321932	0.250988
N244	N	0.346747	-0.289148	-0.449595
N245	N	0.680080	0.044185	-0.116262
N246	N	1.013413	0.377518	0.217071
H247	H	0.323115	-0.284838	-0.490319
H248	H	0.656448	0.048495	-0.156986
H249	H	0.989781	0.381829	0.176348
N250	N	0.471992	-0.368849	-0.187496
N251	N	0.805325	-0.035515	0.145837
N252	N	1.138659	0.297818	0.479171
N253	N	0.508536	-0.421761	-0.178783
N254	N	0.841869	-0.088427	0.154551
N255	N	1.175202	0.244906	0.487884
H256	H	0.532190	-0.426061	-0.138071
H257	H	0.865524	-0.092727	0.195262
H258	H	1.198857	0.240606	0.528595
H259	H	0.144448	-0.270725	-0.374138
H260	H	0.477782	0.062609	-0.040805
H261	H	0.811115	0.395942	0.292529
H262	H	0.144655	-0.442895	-0.228915
H263	H	0.477988	-0.109562	0.104418
H264	H	0.811322	0.223772	0.437751
N265	N	0.824312	-0.452410	-0.533312
N266	N	1.157645	-0.119077	-0.199978
N267	N	1.490978	0.214257	0.133355
N268	N	0.846323	-0.499614	-0.496739
N269	N	1.179656	-0.166281	-0.163406
N270	N	1.512989	0.167053	0.169928
H271	H	0.817398	-0.533749	-0.473139
H272	H	1.150731	-0.200415	-0.139806
H273	H	1.484064	0.132918	0.193528
N274	N	0.792806	-0.788457	-0.326281
N275	N	1.126139	-0.455124	0.007052
N276	N	1.459473	-0.121791	0.340385
N277	N	0.783030	-0.720747	-0.332355
N278	N	1.116363	-0.387414	0.000978
N279	N	1.449696	-0.054080	0.334312
H280	H	0.750073	-0.702676	-0.362538
H281	H	1.083406	-0.369343	-0.029205
H282	H	1.416740	-0.036010	0.304129
N283	N	0.471738	-0.344722	-0.415703
N284	N	0.805072	-0.011389	-0.082370
N285	N	1.138405	0.321945	0.250964
N286	N	0.442469	-0.339400	-0.466091
N287	N	0.775802	-0.006067	-0.132758
N288	N	1.109135	0.327267	0.200576
H289	H	0.466022	-0.335088	-0.506821
H290	H	0.799355	-0.001755	-0.173488
H291	H	1.132689	0.331578	0.159846
H292	H	0.548085	-0.270691	-0.374211
H293	H	0.881418	0.062643	-0.040877
H294	H	1.214752	0.395976	0.292456
N295	N	0.821259	-0.787179	-0.223411
N296	N	1.154593	-0.453846	0.109922
N297	N	1.487926	-0.120512	0.443255
N298	N	0.769827	-0.805736	-0.200620
N299	N	1.103160	-0.472403	0.132713
N300	N	1.436493	-0.139069	0.466047
H301	H	0.756966	-0.786769	-0.158148
H302	H	1.090299	-0.453435	0.175185
H303	H	1.423633	-0.120102	0.508519
H304	H	0.978238	-0.270978	-0.943690
H305	H	1.311572	0.062355	-0.610357
H306	H	1.644905	0.395688	-0.277024
H307	H	1.007847	-0.346299	-0.741781
H308	H	1.341180	-0.012965	-0.408448
H309	H	1.674513	0.320368	-0.075114
N310	N	0.339701	-0.368863	-0.187466
N311	N	0.673034	-0.035529	0.145867
N312	N	1.006368	0.297804	0.479200
N313	N	0.281278	-0.368867	-0.187462
N314	N	0.614612	-0.035534	0.145872
N315	N	0.947945	0.297800	0.479205
H316	H	0.257710	-0.373178	-0.146740
H317	H	0.591044	-0.039845	0.186593
H318	H	0.924377	0.293489	0.519927
N319	N	0.673561	-0.260831	-0.382526
N320	N	1.006895	0.072503	-0.049193
N321	N	1.340228	0.405836	0.284141
N322	N	0.644294	-0.218468	-0.418249
N323	N	0.977627	0.114865	-0.084915
N324	N	1.310960	0.448198	0.248418
H325	H	0.667849	-0.184227	-0.447125
H326	H	1.001182	0.149106	-0.113792
H327	H	1.334516	0.482440	0.219541
H328	H	0.978132	-0.270924	-0.658760
H329	H	1.311465	0.062410	-0.325427
H330	H	1.644798	0.395743	0.007906
N331	N	0.541528	-0.452716	-0.220713
N332	N	0.874861	-0.119383	0.112620
N333	N	1.208194	0.213950	0.445953
N334	N	0.570793	-0.495090	-0.184998
N335	N	0.904127	-0.161757	0.148335
N336	N	1.237460	0.171576	0.481668
H337	H	0.547237	-0.529345	-0.156135
H338	H	0.880570	-0.196012	0.177198
H339	H	1.213903	0.137321	0.510532
N340	N	1.015361	-0.788071	-0.267055
N341	N	1.348694	-0.454738	0.066278
N342	N	1.682027	-0.121404	0.399611
N343	N	1.043816	-0.748513	-0.228548
N344	N	1.377149	-0.415179	0.104786
N345	N	1.710483	-0.081846	0.438119
H346	H	1.087190	-0.729904	-0.238462
H347	H	1.420523	-0.396570	0.094871
H348	H	1.753857	-0.063237	0.428205
H349	H	1.003210	-0.920646	-0.264270
H350	H	1.336543	-0.587313	0.069063
H351	H	1.669876	-0.253980	0.402397
H352	H	0.969595	-0.921396	-0.384076
H353	H	1.302928	-0.588063	-0.050743
H354	H	1.636262	-0.254730	0.282591
N355	N	0.940315	-0.927070	-0.191911
N356	N	1.273648	-0.593736	0.141422
N357	N	1.606981	-0.260403	0.474756
N358	N	0.894841	-0.969282	-0.183629
N359	N	1.228174	-0.635949	0.149705
N360	N	1.561508	-0.302616	0.483038
H361	H	0.885098	-0.988369	-0.140352
H362	H	1.218432	-0.655035	0.192981
H363	H	1.551765	-0.321702	0.526314
H364	H	0.942824	-0.793959	-0.203888
H365	H	1.276157	-0.460625	0.129446
H366	H	1.609491	-0.127292	0.462779
N367	N	0.791345	-0.368484	-0.867508
N368	N	1.124679	-0.035150	-0.534175
N369	N	1.458012	0.298183	-0.200842
N370	N	0.749744	-0.320755	-0.860279
N371	N	1.083077	0.012578	-0.526946
N372	N	1.416411	0.345911	-0.193612
H373	H	0.709022	-0.324923	-0.883923
H374	H	1.042356	0.008410	-0.550590
H375	H	1.375689	0.341744	-0.217257
H376	H	0.832657	-0.442623	-0.658815
H377	H	1.165991	-0.109289	-0.325482
H378	H	1.499324	0.224044	0.007852
N379	N	0.821878	-0.924763	-0.222380
N380	N	1.155211	-0.591430	0.110953
N381	N	1.488544	-0.258096	0.444286
N382	N	0.809269	-0.879012	-0.180507
N383	N	1.142602	-0.545679	0.152826
N384	N	1.475935	-0.212346	0.486160
H385	H	0.796637	-0.896719	-0.137562
H386	H	1.129970	-0.563386	0.195771
H387	H	1.463303	-0.230052	0.529104
H388	H	0.802313	-0.920390	-0.316806
H389	H	1.135646	-0.587057	0.016527
H390	H	1.468979	-0.253724	0.349861
H391	H	0.972331	-0.793792	-0.380930
H392	H	1.305664	-0.460459	-0.047596
H393	H	1.638997	-0.127126	0.285737
H394	H	0.886905	-0.920001	-0.403713
H395	H	1.220239	-0.586667	-0.070379
H396	H	1.553572	-0.253334	0.262954
H397	H	0.890925	-0.792683	-0.405303
H398	H	1.224259	-0.459350	-0.071970
H399	H	1.557592	-0.126017	0.261363
N400	N	0.986389	-0.261081	-0.533277
N401	N	1.319722	0.072252	-0.199944
N402	N	1.653056	0.405586	0.133390
N403	N	1.022191	-0.218841	-0.562486
N404	N	1.355524	0.114492	-0.229153
N405	N	1.688857	0.447825	0.104181
H406	H	1.051108	-0.184692	-0.538883
H407	H	1.384441	0.148642	-0.205550
H408	H	1.717774	0.481975	0.127784
H409	H	1.007891	-0.346328	-0.860494
H410	H	1.341225	-0.012995	-0.527161
H411	H	1.674558	0.320339	-0.193828
N412	N	0.986606	-0.261213	-1.069168
N413	N	1.319940	0.072120	-0.735835
N414	N	1.653273	0.405453	-0.402502
N415	N	1.022388	-0.218961	-1.039936
N416	N	1.355721	0.114372	-0.706603
N417	N	1.689055	0.447705	-0.373270
H418	H	1.051329	-0.184831	-1.063521
H419	H	1.384662	0.148503	-0.730187
H420	H	1.717996	0.481836	-0.396854
H421	H	0.832809	-0.442711	-1.062452
H422	H	1.166142	-0.109378	-0.729118
H423	H	1.499476	0.223956	-0.395785
