data_functionalizedCrystal
_audit_creation_method	'MofGen! by Chris Wilmer'
_symmetry_space_group_name_H-M	'P1'
_symmetry_Int_Tables_number	1
_symmetry_cell_setting	triclinic
loop_
_symmetry_equiv_pos_as_xyz
  x,y,z
_cell_length_a	29.839134
_cell_length_b	29.839131
_cell_length_c	16.625539
_cell_angle_alpha	90.037107
_cell_angle_beta	89.970864
_cell_angle_gamma	89.966655
loop_
_atom_site_label
_atom_site_type_symbol
_atom_site_fract_x
_atom_site_fract_y
_atom_site_fract_z
Zn1	Zn	0.686744	0.178948	-0.456109
Zn2	Zn	1.186744	0.678948	0.043891
Zn3	Zn	0.686670	0.254076	-0.321251
Zn4	Zn	1.186670	0.754076	0.178749
Zn5	Zn	0.611620	0.178951	-0.321261
Zn6	Zn	1.111620	0.678951	0.178739
Zn7	Zn	0.611575	0.254042	-0.456013
Zn8	Zn	1.111575	0.754042	0.043987
O9	O	0.649152	0.216504	-0.388659
O10	O	1.149152	0.716504	0.111341
O11	O	0.749601	0.188926	-0.438256
O12	O	1.249601	0.688926	0.061744
O13	O	0.676703	0.244127	-0.208420
O14	O	1.176703	0.744127	0.291580
O15	O	0.621635	0.116084	-0.339194
O16	O	1.121635	0.616084	0.160806
O17	O	0.749547	0.244123	-0.339177
O18	O	1.249547	0.744123	0.160823
O19	O	0.676828	0.116081	-0.438266
O20	O	1.176828	0.616081	0.061734
O21	O	0.621564	0.188933	-0.208428
O22	O	1.121564	0.688933	0.291572
O23	O	0.548747	0.188900	-0.339100
O24	O	1.048747	0.688900	0.160900
O25	O	0.621558	0.244065	-0.568858
O26	O	1.121558	0.744065	-0.068858
O27	O	0.548714	0.244068	-0.438102
O28	O	1.048714	0.744068	0.061898
O29	O	0.676784	0.188893	-0.568929
O30	O	1.176784	0.688893	-0.068929
O31	O	0.676660	0.316939	-0.339083
O32	O	1.176660	0.816939	0.160917
O33	O	0.621487	0.316914	-0.438092
O34	O	1.121487	0.816914	0.061908
C35	C	0.532430	0.216481	-0.388592
C36	C	1.032430	0.716481	0.111408
C37	C	0.482495	0.216482	-0.388583
C38	C	0.982495	0.716482	0.111417
C39	C	0.649073	0.333227	-0.388594
C40	C	1.149073	0.833227	0.111406
C41	C	0.649080	0.383161	-0.388593
C42	C	1.149080	0.883161	0.111407
C43	C	0.125913	0.187736	-0.337214
C44	C	0.625913	0.687736	0.162786
C45	C	0.313586	0.187723	-0.337165
C46	C	0.813586	0.687723	0.162835
O47	O	0.337854	0.163244	-0.293415
O48	O	0.837854	0.663244	0.206585
N49	N	0.337050	0.216489	-0.388623
N50	N	0.837050	0.716489	0.111377
C51	C	0.313593	0.245258	-0.440101
C52	C	0.813593	0.745258	0.059899
O53	O	0.337857	0.269722	-0.483874
O54	O	0.837857	0.769722	0.016126
C55	C	0.125921	0.245268	-0.440153
C56	C	0.625921	0.745268	0.059847
C57	C	0.102459	0.216504	-0.388686
C58	C	0.602459	0.716504	0.111314
C59	C	0.102451	0.158973	-0.285752
C60	C	0.602451	0.658973	0.214248
C61	C	0.055535	0.158978	-0.285761
C62	C	0.555535	0.658978	0.214239
C63	C	0.032082	0.187746	-0.337233
C64	C	0.532082	0.687746	0.162767
C65	C	0.055544	0.216509	-0.388696
C66	C	0.555544	0.716509	0.111304
C67	C	0.102465	0.274035	-0.491635
C68	C	0.602465	0.774035	0.008365
C69	C	0.055544	0.274034	-0.491645
C70	C	0.555544	0.774034	0.008355
C71	C	0.032082	0.245269	-0.440177
C72	C	0.532082	0.745269	0.059823
C73	C	-0.014825	0.245282	-0.440177
C74	C	0.485175	0.745282	0.059823
N75	N	-0.038289	0.216516	-0.388719
N76	N	0.461711	0.716516	0.111281
C77	C	-0.014836	0.187748	-0.337247
C78	C	0.485164	0.687748	0.162753
C79	C	0.412124	0.245252	-0.440069
C80	C	0.912124	0.745252	0.059931
C81	C	0.459042	0.245250	-0.440055
C82	C	0.959042	0.745250	0.059945
C83	C	0.459031	0.187714	-0.337120
C84	C	0.959031	0.687714	0.162880
C85	C	0.412112	0.187718	-0.337130
C86	C	0.912112	0.687718	0.162870
C87	C	0.388660	0.216485	-0.388611
C88	C	0.888660	0.716485	0.111389
C89	C	-0.113362	0.187761	-0.337271
C90	C	0.386638	0.687761	0.162729
C91	C	-0.160281	0.187770	-0.337283
C92	C	0.339719	0.687770	0.162717
C93	C	-0.160267	0.245305	-0.440220
C94	C	0.339733	0.745305	0.059780
C95	C	-0.113351	0.245297	-0.440206
C96	C	0.386649	0.745297	0.059794
C97	C	-0.089900	0.216522	-0.388729
C98	C	0.410100	0.716522	0.111271
O99	O	-0.039123	0.269745	-0.483911
O100	O	0.460877	0.769745	0.016089
O101	O	-0.039108	0.163281	-0.293494
O102	O	0.460892	0.663281	0.206506
C103	C	0.172828	0.187730	-0.337204
C104	C	0.672828	0.687730	0.162796
C105	C	0.196290	0.216493	-0.388667
C106	C	0.696290	0.716493	0.111333
C107	C	0.172837	0.245261	-0.440139
C108	C	0.672837	0.745261	0.059861
C109	C	0.243208	0.216491	-0.388653
C110	C	0.743208	0.716491	0.111347
C111	C	0.266662	0.187723	-0.337181
C112	C	0.766662	0.687723	0.162819
C113	C	0.243197	0.158957	-0.285723
C114	C	0.743197	0.658957	0.214277
C115	C	0.196282	0.158962	-0.285732
C116	C	0.696282	0.658962	0.214268
C117	C	0.196301	0.274027	-0.491597
C118	C	0.696301	0.774027	0.008403
C119	C	0.243216	0.274020	-0.491582
C120	C	0.743216	0.774020	0.008418
C121	C	0.266670	0.245252	-0.440110
C122	C	0.766670	0.745252	0.059890
C123	C	0.677840	0.692768	-0.440331
C124	C	1.177840	1.192768	0.059669
C125	C	0.677871	0.880441	-0.440384
C126	C	1.177871	1.380441	0.059616
O127	O	0.702280	0.904675	-0.484317
O128	O	1.202280	1.404675	0.015683
N129	N	0.649164	0.903946	-0.388765
N130	N	1.149164	1.403946	0.111235
C131	C	0.620445	0.880530	-0.337133
C132	C	1.120445	1.380530	0.162867
O133	O	0.596025	0.904829	-0.293235
O134	O	1.096025	1.404829	0.206765
C135	C	0.620412	0.692858	-0.337085
C136	C	1.120412	1.192858	0.162915
C137	C	0.649124	0.669355	-0.388701
C138	C	1.149124	1.169355	0.111299
C139	C	0.706550	0.669266	-0.491943
C140	C	1.206550	1.169266	0.008057
C141	C	0.706544	0.622350	-0.491927
C142	C	1.206544	1.122350	0.008073
C143	C	0.677828	0.598937	-0.440297
C144	C	1.177828	1.098937	0.059703
C145	C	0.649118	0.622440	-0.388684
C146	C	1.149118	1.122440	0.111316
C147	C	0.591691	0.669443	-0.285457
C148	C	1.091691	1.169443	0.214543
C149	C	0.591684	0.622522	-0.285451
C150	C	1.091684	1.122522	0.214549
C151	C	0.620396	0.599019	-0.337068
C152	C	1.120396	1.099019	0.162932
C153	C	0.620395	0.552112	-0.337038
C154	C	1.120395	1.052112	0.162962
N155	N	0.649103	0.528607	-0.388656
N156	N	1.149103	1.028607	0.111344
C157	C	0.677819	0.552020	-0.440286
C158	C	1.177819	1.052020	0.059714
C159	C	0.620465	0.979061	-0.337161
C160	C	1.120465	1.479061	0.162839
C161	C	0.620474	1.025979	-0.337172
C162	C	1.120474	1.525979	0.162828
C163	C	0.677900	1.025887	-0.440424
C164	C	1.177900	1.525887	0.059576
C165	C	0.677893	0.978968	-0.440408
C166	C	1.177893	1.478968	0.059592
C167	C	0.649172	0.955556	-0.388780
C168	C	1.149172	1.455556	0.111220
C169	C	0.677804	0.453494	-0.440246
C170	C	1.177804	0.953494	0.059754
C171	C	0.677796	0.406574	-0.440222
C172	C	1.177796	0.906574	0.059778
C173	C	0.620368	0.406670	-0.336974
C174	C	1.120368	0.906670	0.163026
C175	C	0.620377	0.453586	-0.336994
C176	C	1.120377	0.953586	0.163006
C177	C	0.649097	0.476996	-0.388637
C178	C	1.149097	0.976996	0.111363
O179	O	0.595996	0.527849	-0.293134
O180	O	1.095996	1.027849	0.206866
O181	O	0.702228	0.527713	-0.484190
O182	O	1.202228	1.027713	0.015810
C183	C	0.677847	0.739684	-0.440348
C184	C	1.177847	1.239684	0.059652
C185	C	0.649137	0.763186	-0.388735
C186	C	1.149137	1.263186	0.111265
C187	C	0.620421	0.739774	-0.337105
C188	C	1.120421	1.239774	0.162895
C189	C	0.649146	0.810104	-0.388746
C190	C	1.149146	1.310104	0.111254
C191	C	0.677862	0.833517	-0.440375
C192	C	1.177862	1.333517	0.059625
C193	C	0.706569	0.810012	-0.491994
C194	C	1.206569	1.310012	0.008006
C195	C	0.706563	0.763097	-0.491977
C196	C	1.206563	1.263097	0.008023
C197	C	0.591713	0.763278	-0.285486
C198	C	1.091713	1.263278	0.214514
C199	C	0.591722	0.810194	-0.285507
C200	C	1.091722	1.310194	0.214493
C201	C	0.620439	0.833607	-0.337136
C202	C	1.120439	1.333607	0.162864
C203	C	0.766331	0.216528	-0.388726
C204	C	1.266331	0.716528	0.111274
C205	C	0.816265	0.216538	-0.388755
C206	C	1.316265	0.716538	0.111245
C207	C	0.649174	0.216475	-0.598968
C208	C	1.149174	0.716475	-0.098968
C209	C	0.649184	0.216462	-0.688589
C210	C	1.149184	0.716462	-0.188589
C211	C	0.649221	1.099326	-0.388748
C212	C	1.149221	1.599326	0.111252
C213	C	0.649190	1.049392	-0.388801
C214	C	1.149190	1.549392	0.111199
C215	C	0.649191	0.216452	-0.761371
C216	C	1.149191	0.716452	-0.261371
C217	C	0.649202	0.216435	-0.852680
C218	C	1.149202	0.716435	-0.352680
C219	C	0.649212	0.216420	-0.925456
C220	C	1.149212	0.716420	-0.425456
C221	C	0.649223	0.216403	-1.016771
C222	C	1.149223	0.716403	-0.516771
C223	C	0.649156	0.216501	-0.179168
C224	C	1.149156	0.716501	0.320832
C225	C	0.649234	0.216388	-0.089547
C226	C	1.149234	0.716388	0.410453
H227	H	-0.094273	0.164327	-0.295357
H228	H	0.405727	0.664327	0.204643
N229	N	0.562392	0.834191	-0.232766
N230	N	1.062392	1.334191	0.267234
N231	N	0.536756	0.813276	-0.186675
N232	N	1.036756	1.313276	0.313325
H233	H	0.516039	0.830222	-0.149431
H234	H	1.016039	1.330222	0.350569
H235	H	0.597098	1.045110	-0.295132
H236	H	1.097098	1.545110	0.204868
N237	N	0.482998	0.274643	-0.492619
N238	N	0.982998	0.774643	0.007381
N239	N	0.462046	0.300325	-0.538570
N240	N	0.962046	0.800325	-0.038570
H241	H	0.478962	0.321084	-0.575698
H242	H	0.978962	0.821084	-0.075698
H243	H	0.036451	0.297459	-0.533570
H244	H	0.536451	0.797459	-0.033570
H245	H	0.393033	0.268679	-0.481992
H246	H	0.893033	0.768679	0.018008
N247	N	-0.184229	0.274694	-0.492786
N248	N	0.315771	0.774694	0.007214
N249	N	-0.210436	0.303303	-0.464326
N250	N	0.289564	0.803303	0.035674
H251	H	-0.227361	0.324058	-0.501454
H252	H	0.272639	0.824058	-0.001454
N253	N	0.126416	0.303422	-0.544212
N254	N	0.626416	0.803422	-0.044212
N255	N	0.105461	0.329100	-0.590165
N256	N	0.605461	0.829100	-0.090165
H257	H	0.122375	0.349856	-0.627303
H258	H	0.622375	0.849856	-0.127303
N259	N	0.267166	0.129577	-0.233145
N260	N	0.767166	0.629577	0.266855
N261	N	0.309057	0.129582	-0.233150
N262	N	0.809057	0.629582	0.266850
H263	H	0.325988	0.108832	-0.196021
H264	H	0.825988	0.608832	0.303979
H265	H	0.177183	0.135539	-0.243823
H266	H	0.677183	0.635539	0.256177
H267	H	0.729943	0.743964	-0.534008
H268	H	1.229943	1.243964	-0.034008
N269	N	-0.089390	0.274689	-0.492769
N270	N	0.410610	0.774689	0.007231
N271	N	-0.110338	0.300376	-0.538717
N272	N	0.389662	0.800376	-0.038717
H273	H	-0.093419	0.321133	-0.575845
H274	H	0.406581	0.821133	-0.075845
H275	H	-0.179382	0.164346	-0.295370
H276	H	0.320618	0.664346	0.204630
N277	N	0.483000	0.158331	-0.284544
N278	N	0.983000	0.658331	0.215456
N279	N	0.524890	0.158337	-0.284547
N280	N	1.024890	0.658337	0.215453
H281	H	0.541821	0.137585	-0.247421
H282	H	1.041821	0.637585	0.252579
H283	H	0.701282	1.044957	-0.482462
H284	H	1.201282	1.544957	0.017538
N285	N	0.267172	0.303412	-0.544158
N286	N	0.767172	0.803412	-0.044158
N287	N	0.246220	0.329094	-0.590109
N288	N	0.746220	0.829094	-0.090109
H289	H	0.263137	0.349849	-0.627243
H290	H	0.763137	0.849849	-0.127243
N291	N	0.031580	0.129592	-0.233183
N292	N	0.531580	0.629592	0.266817
N293	N	0.052534	0.103911	-0.187234
N294	N	0.552534	0.603911	0.312766
H295	H	0.035619	0.083155	-0.150098
H296	H	0.535619	0.583155	0.349902
H297	H	0.729952	0.829083	-0.534030
H298	H	1.229952	1.329083	-0.034030
H299	H	0.596989	0.387600	-0.294935
H300	H	1.096989	0.887600	0.205065
H301	H	0.568329	0.744219	-0.243444
H302	H	1.068329	1.244219	0.256556
N303	N	0.172355	0.303416	-0.544186
N304	N	0.672355	0.803416	-0.044186
N305	N	0.193315	0.329095	-0.590125
N306	N	0.693315	0.829095	-0.090125
H307	H	0.176405	0.349854	-0.627267
H308	H	0.676405	0.849854	-0.127267
N309	N	0.707132	0.382575	-0.492951
N310	N	1.207132	0.882575	0.007049
N311	N	0.732768	0.403488	-0.539044
N312	N	1.232768	0.903488	-0.039044
H313	H	0.753486	0.386540	-0.576283
H314	H	1.253486	0.886540	-0.076283
N315	N	0.707141	0.477396	-0.493004
N316	N	1.207141	0.977396	0.006996
N317	N	0.732771	0.456398	-0.539079
N318	N	1.232771	0.956398	-0.039079
H319	H	0.753492	0.473278	-0.576336
H320	H	1.253492	0.973278	-0.076336
H321	H	0.121542	0.135544	-0.243837
H322	H	0.621542	0.635544	0.256163
H323	H	0.729923	0.603217	-0.533959
H324	H	1.229923	1.103217	-0.033959
N325	N	0.735886	0.693170	-0.544696
N326	N	1.235886	1.193170	-0.044696
N327	N	0.761514	0.672171	-0.590772
N328	N	1.261514	1.172171	-0.090772
H329	H	0.782237	0.689050	-0.628029
H330	H	1.282237	1.189050	-0.128029
H331	H	0.393013	0.164294	-0.295224
H332	H	0.893013	0.664294	0.204776
H333	H	0.701273	0.959835	-0.482439
H334	H	1.201273	1.459835	0.017561
H335	H	0.597076	0.960002	-0.295117
H336	H	1.097076	1.460002	0.204883
H337	H	0.568310	0.688570	-0.243425
H338	H	1.068310	1.188570	0.256575
H339	H	0.568295	0.603462	-0.243410
H340	H	1.068295	1.103462	0.256590
H341	H	0.597001	0.472723	-0.294958
H342	H	1.097001	0.972723	0.205042
