data_functionalizedCrystal
_audit_creation_method	'MofGen! by Chris Wilmer'
_symmetry_space_group_name_H-M	'P1'
_symmetry_Int_Tables_number	1
_symmetry_cell_setting	triclinic
loop_
_symmetry_equiv_pos_as_xyz
  x,y,z
_cell_length_a	14.908571
_cell_length_b	14.908308
_cell_length_c	8.497374
_cell_angle_alpha	86.716843
_cell_angle_beta	93.301816
_cell_angle_gamma	90.175053
loop_
_atom_site_label
_atom_site_type_symbol
_atom_site_fract_x
_atom_site_fract_y
_atom_site_fract_z
Zn1	Zn	1.345447	-0.587713	0.823306
Zn2	Zn	1.354073	-0.437393	1.072843
Zn3	Zn	1.203757	-0.428706	0.793003
Zn4	Zn	1.195100	-0.579045	1.070969
O5	O	1.274594	-0.508214	0.940030
O6	O	1.472420	-0.575036	0.869873
O7	O	1.341366	-0.310414	1.023825
O8	O	1.222565	-0.449791	0.576261
O9	O	1.478757	-0.464597	1.053208
O10	O	1.326664	-0.566613	0.598524
O11	O	1.230929	-0.304032	0.818228
O12	O	1.076780	-0.441386	0.816410
O13	O	1.207811	-0.706021	1.050013
O14	O	1.070420	-0.551839	1.020630
O15	O	1.318270	-0.712390	0.868056
O16	O	1.332972	-0.456191	1.293356
O17	O	1.216176	-0.560262	1.291979
C18	C	1.040974	-0.494729	0.915030
C19	C	0.941029	-0.488982	0.904374
C20	C	0.746657	-0.593041	1.097305
C21	C	0.652750	-0.587644	1.087298
C22	C	0.659305	-0.472795	0.874349
C23	C	0.753212	-0.478192	0.884355
C24	C	0.796885	-0.538316	0.995838
C25	C	0.890794	-0.543709	1.005851
C26	C	0.897348	-0.428865	0.792895
C27	C	0.803440	-0.423467	0.782889
C28	C	1.261113	-0.742743	0.962206
C29	C	1.255368	-0.842685	0.971655
C30	C	1.359591	-1.037121	0.799903
C31	C	1.354196	-1.131026	0.808777
C32	C	1.239180	-1.124401	0.998267
C33	C	1.244574	-1.030496	0.989393
C34	C	1.304783	-0.986860	0.890210
C35	C	1.310182	-0.892953	0.881346
C36	C	1.195161	-0.886331	1.070826
C37	C	1.189766	-0.980235	1.079700
C38	C	1.509127	-0.521753	0.965130
C39	C	1.609070	-0.527522	0.975826
C40	C	1.274582	-0.508227	1.349910
C41	C	1.274607	-0.508213	1.528555
C42	C	1.288075	-0.274601	0.917833
C43	C	1.293993	-0.174669	0.907957
H44	H	0.938254	-0.384301	0.710277
C45	C	1.425820	-0.989114	0.690823
H46	H	1.421188	-0.925989	0.698482
H47	H	1.411788	-1.003736	0.584871
H48	H	1.485353	-1.007990	0.721847
H49	H	0.611857	-0.632209	1.169920
C50	C	0.611255	-0.406657	0.751747
H51	H	0.548134	-0.411277	0.760335
H52	H	0.625873	-0.420771	0.648667
H53	H	0.630105	-0.347106	0.770631
H54	H	1.398824	-1.171945	0.735236
C55	C	1.376405	-0.844949	0.772250
H56	H	1.371777	-0.781824	0.779907
H57	H	1.362363	-0.859574	0.666302
H58	H	1.435939	-0.863828	0.803260
H59	H	1.190160	-1.159947	1.079017
C60	C	0.755396	-0.357331	0.660276
H61	H	0.692274	-0.361949	0.668855
H62	H	0.770018	-0.371452	0.557202
H63	H	0.774247	-0.297781	0.679154
H64	H	1.140744	-1.015777	1.160449
C65	C	1.134869	-0.831042	1.170166
H66	H	1.146701	-0.768865	1.150673
H67	H	1.147141	-0.847199	1.279022
H68	H	1.073567	-0.842942	1.142062
H69	H	0.926351	-0.592664	1.096629
C70	C	0.794700	-0.659170	1.219932
H71	H	0.751335	-0.690992	1.278927
H72	H	0.833313	-0.626822	1.289217
H73	H	0.829080	-0.700508	1.167293
