data_functionalizedCrystal
_audit_creation_method	'MofGen! by Chris Wilmer'
_symmetry_space_group_name_H-M	'P1'
_symmetry_Int_Tables_number	1
_symmetry_cell_setting	triclinic
loop_
_symmetry_equiv_pos_as_xyz
  x,y,z
_cell_length_a	16.625539
_cell_length_b	16.959455
_cell_length_c	16.959454
_cell_angle_alpha	89.981743
_cell_angle_beta	89.975083
_cell_angle_gamma	90.024184
loop_
_atom_site_label
_atom_site_type_symbol
_atom_site_fract_x
_atom_site_fract_y
_atom_site_fract_z
Zn1	Zn	-0.456006	-1.208424	-0.314718
Zn2	Zn	0.043994	-0.708424	0.185282
Zn3	Zn	-0.321181	-1.208335	-0.446907
Zn4	Zn	0.178819	-0.708335	0.053093
Zn5	Zn	-0.321178	-1.076240	-0.314742
Zn6	Zn	0.178822	-0.576240	0.185258
Zn7	Zn	-0.455963	-1.076217	-0.446855
Zn8	Zn	0.044037	-0.576217	0.053145
O9	O	-0.388582	-1.142304	-0.380805
O10	O	0.111418	-0.642304	0.119195
O11	O	-0.438141	-1.319023	-0.332265
O12	O	0.061859	-0.819023	0.167735
O13	O	-0.208348	-1.190784	-0.429406
O14	O	0.291652	-0.690784	0.070594
O15	O	-0.339080	-1.093822	-0.204128
O16	O	0.160920	-0.593822	0.295872
O17	O	-0.339086	-1.318957	-0.429384
O18	O	0.160914	-0.818957	0.070616
O19	O	-0.438138	-1.190937	-0.204111
O20	O	0.061862	-0.690937	0.295889
O21	O	-0.208346	-1.093735	-0.332305
O22	O	0.291654	-0.593735	0.167695
O23	O	-0.339038	-0.965627	-0.332255
O24	O	0.160962	-0.465627	0.167745
O25	O	-0.568801	-1.093782	-0.429295
O26	O	-0.068801	-0.593782	0.070705
O27	O	-0.438064	-0.965609	-0.429318
O28	O	0.061936	-0.465609	0.070682
O29	O	-0.568833	-1.190914	-0.332215
O30	O	-0.068833	-0.690914	0.167785
O31	O	-0.339043	-1.190762	-0.557511
O32	O	0.160957	-0.690762	-0.057511
O33	O	-0.438067	-1.093695	-0.557472
O34	O	0.061933	-0.593695	-0.057472
C35	C	-0.388546	-0.936938	-0.380784
C36	C	0.111454	-0.436938	0.119216
C37	C	-0.388550	-0.849081	-0.380794
C38	C	0.111450	-0.349081	0.119206
C39	C	-0.337073	-0.807793	-0.330185
C40	C	0.162927	-0.307793	0.169815
C41	C	-0.440036	-0.807816	-0.431407
C42	C	0.059964	-0.307816	0.068593
C43	C	-0.440044	-0.725270	-0.431415
C44	C	0.059956	-0.225270	0.068585
C45	C	-0.388567	-0.683982	-0.380806
C46	C	0.111433	-0.183982	0.119194
C47	C	-0.337081	-0.725239	-0.330190
C48	C	0.162919	-0.225239	0.169810
C49	C	-0.491535	-0.684007	-0.482025
C50	C	0.008465	-0.184007	0.017975
C51	C	-0.491546	-0.601456	-0.482035
C52	C	0.008454	-0.101456	0.017965
C53	C	-0.440064	-0.560166	-0.431429
C54	C	0.059936	-0.060166	0.068571
C55	C	-0.388576	-0.601428	-0.380811
C56	C	0.111424	-0.101428	0.119189
C57	C	-0.337098	-0.560140	-0.330202
C58	C	0.162902	-0.060140	0.169798
C59	C	-0.285605	-0.601401	-0.279588
C60	C	0.214395	-0.101401	0.220412
C61	C	-0.285600	-0.683949	-0.279584
C62	C	0.214400	-0.183949	0.220416
C63	C	-0.440070	-0.477617	-0.431433
C64	C	0.059930	0.022383	0.068567
C65	C	-0.337107	-0.477586	-0.330207
C66	C	0.162893	0.022414	0.169793
C67	C	-0.598891	-1.142355	-0.380747
C68	C	-0.098891	-0.642355	0.119253
C69	C	-0.688512	-1.142377	-0.380721
C70	C	-0.188512	-0.642377	0.119279
C71	C	-1.016688	-1.142414	-0.380633
C72	C	-0.516688	-0.642414	0.119367
C73	C	-0.925380	-1.142401	-0.380660
C74	C	-0.425380	-0.642401	0.119340
C75	C	-0.852603	-1.142396	-0.380678
C76	C	-0.352603	-0.642396	0.119322
C77	C	-0.761289	-1.142383	-0.380704
C78	C	-0.261289	-0.642383	0.119296
C79	C	-0.179091	-1.142298	-0.380807
C80	C	0.320909	-0.642298	0.119193
C81	C	-0.089471	-1.142430	-0.380609
C82	C	0.410529	-0.642430	0.119391
C83	C	-0.388568	-1.142238	-0.586172
C84	C	0.111432	-0.642238	-0.086172
C85	C	-0.388589	-1.142282	-0.674028
C86	C	0.111411	-0.642282	-0.174028
C87	C	-0.388608	-0.348472	-0.380824
C88	C	0.111392	0.151528	0.119176
C89	C	-0.388593	-0.436329	-0.380824
C90	C	0.111407	0.063671	0.119176
C91	C	-0.440138	-1.091835	-1.045514
C92	C	0.059862	-0.591835	-0.545514
C93	C	-0.337108	-1.192993	-1.045494
C94	C	0.162892	-0.692993	-0.545494
C95	C	-0.337101	-1.192966	-0.962948
C96	C	0.162899	-0.692966	-0.462948
C97	C	-0.388612	-1.142371	-0.921681
C98	C	0.111388	-0.642371	-0.421681
C99	C	-0.440130	-1.091804	-0.962960
C100	C	0.059870	-0.591804	-0.462960
C101	C	-0.285578	-1.243526	-0.921663
C102	C	0.214422	-0.743526	-0.421663
C103	C	-0.285567	-1.243500	-0.839112
C104	C	0.214433	-0.743500	-0.339112
C105	C	-0.337083	-1.192909	-0.797843
C106	C	0.162917	-0.692909	-0.297843
C107	C	-0.388604	-1.142340	-0.839128
C108	C	0.111396	-0.642340	-0.339128
C109	C	-0.440115	-1.091746	-0.797861
C110	C	0.059885	-0.591746	-0.297861
C111	C	-0.491641	-1.041181	-0.839144
C112	C	0.008359	-0.541181	-0.339144
C113	C	-0.491646	-1.041213	-0.921692
C114	C	0.008354	-0.541213	-0.421692
C115	C	-0.337078	-1.192876	-0.715295
C116	C	0.162922	-0.692876	-0.215295
C117	C	-0.440108	-1.091715	-0.715307
C118	C	0.059892	-0.591715	-0.215307
C119	C	-0.388613	-1.142392	-0.174637
C120	C	0.111387	-0.642392	0.325363
C121	C	-0.388627	-1.142430	-0.086781
C122	C	0.111373	-0.642430	0.413219
H123	H	-0.533473	-0.567868	-0.523249
H124	H	-0.033473	-0.067868	-0.023249
H125	H	-0.482091	-1.050668	-1.079130
H126	H	0.017909	-0.550668	-0.579130
F127	F	-0.282289	-1.246836	-1.089415
F128	F	0.217711	-0.746836	-0.589415
H129	H	-0.533578	-0.999983	-0.805535
H130	H	-0.033578	-0.499983	-0.305535
H131	H	-0.481950	-0.841438	-0.472607
H132	H	0.018050	-0.341438	0.027393
H133	H	-0.243634	-1.284711	-0.955268
H134	H	0.256366	-0.784711	-0.455268
H135	H	-0.243613	-1.284673	-0.805504
H136	H	0.256387	-0.784673	-0.305504
H137	H	-0.295186	-0.443975	-0.288996
H138	H	0.204814	0.056025	0.211004
F139	F	-0.230827	-0.557449	-0.225723
F140	F	0.269173	-0.057449	0.274277
H141	H	-0.533447	-0.717630	-0.523226
H142	H	-0.033447	-0.217630	-0.023226
F143	F	-0.546478	-0.987402	-0.965633
F144	F	-0.046478	-0.487402	-0.465633
F145	F	-0.282237	-1.246680	-0.671363
F146	F	0.217763	-0.746680	-0.171363
H147	H	-0.482000	-0.444026	-0.472637
H148	H	0.018000	0.055974	0.027363
H149	H	-0.243677	-0.717551	-0.238376
H150	H	0.256323	-0.217551	0.261624
H151	H	-0.295146	-0.841391	-0.288978
H152	H	0.204854	-0.341391	0.211022
F153	F	-0.494938	-1.037868	-0.671395
F154	F	0.005062	-0.537868	-0.171395
