data_functionalizedCrystal
_audit_creation_method	'MofGen! by Chris Wilmer'
_symmetry_space_group_name_H-M	'P1'
_symmetry_Int_Tables_number	1
_symmetry_cell_setting	triclinic
loop_
_symmetry_equiv_pos_as_xyz
  x,y,z
_cell_length_a	19.288840
_cell_length_b	13.262508
_cell_length_c	18.366186
_cell_angle_alpha	105.912108
_cell_angle_beta	89.983729
_cell_angle_gamma	83.808092
loop_
_atom_site_label
_atom_site_type_symbol
_atom_site_fract_x
_atom_site_fract_y
_atom_site_fract_z
O1	O	0.922009	0.130804	-0.034765
O2	O	0.719834	0.148493	-0.031237
O3	O	0.826012	-0.013163	-0.063262
O4	O	0.815831	0.292460	-0.002741
O5	O	0.825994	-0.013171	0.057836
O6	O	0.719815	0.148485	0.089861
O7	O	0.921991	0.130796	0.086332
Zn8	Zn	0.820900	0.139639	0.107324
Zn9	Zn	0.820924	0.139650	-0.052228
O10	O	0.815813	0.292452	0.118357
C11	C	0.693945	0.147924	0.029204
C12	C	0.616832	0.146229	0.028877
C13	C	0.580634	0.145419	-0.037296
C14	C	0.508180	0.143814	-0.037623
C15	C	0.471927	0.142998	0.028224
C16	C	0.508133	0.143815	0.094407
C17	C	0.580585	0.145430	0.094734
C18	C	0.362276	0.078961	0.066104
C19	C	0.289825	0.077339	0.065773
C20	C	0.248459	0.138021	0.027219
C21	C	0.279553	0.200311	-0.011019
C22	C	0.352006	0.201926	-0.010692
C23	C	0.393364	0.141247	0.027877
C24	C	0.133697	0.135472	-0.039313
C25	C	0.061240	0.133874	-0.039636
C26	C	0.061196	0.133864	0.092394
C27	C	0.133650	0.135473	0.092717
C28	C	0.169897	0.136272	0.026860
C29	C	0.825434	-0.052267	-0.010457
C30	C	0.823730	-0.168773	-0.033532
C31	C	0.818883	-0.497214	0.165474
C32	C	0.820479	-0.387750	0.187155
C33	C	0.821292	-0.333000	0.131985
C34	C	0.820509	-0.387726	0.055130
C35	C	0.818908	-0.497199	0.033448
C36	C	0.821316	-0.332986	-0.000041
C37	C	0.820533	-0.387711	-0.076896
C38	C	0.818932	-0.497174	-0.098575
C39	C	0.818119	-0.551923	-0.043405
C40	C	0.822917	-0.223512	0.021642
C41	C	0.822942	-0.223497	-0.110384
C42	C	0.821346	-0.332961	-0.132065
C43	C	0.947880	0.131364	0.025890
C44	C	1.024993	0.133060	0.026212
C45	C	0.816391	0.331556	0.065551
C46	C	0.818095	0.448062	0.088621
N47	N	0.820889	0.139631	0.216213
N48	N	0.820941	0.139649	-0.161119
C49	C	0.867920	0.068085	0.240140
C50	C	0.867925	0.068080	0.316367
C51	C	0.820905	0.139640	0.368668
C52	C	0.773864	0.211192	0.344733
C53	C	0.773857	0.211188	0.268506
C54	C	0.812078	0.235271	0.508366
C55	C	0.812091	0.235277	0.584592
C56	C	0.820924	0.139653	0.603778
C57	C	0.829760	0.044020	0.546727
C58	C	0.829752	0.044015	0.470500
C59	C	0.820907	0.139652	0.451325
C60	C	0.867963	0.068096	0.710357
C61	C	0.867963	0.068090	0.786585
C62	C	0.773906	0.211211	0.814952
C63	C	0.773903	0.211208	0.738723
C64	C	0.820935	0.139651	0.686431
H65	H	0.478611	0.143153	0.148020
O66	O	0.402440	0.019845	0.103453
C67	C	0.393697	-0.087567	0.072638
H68	H	0.374859	-0.100685	0.012273
H69	H	0.445639	-0.137764	0.072102
H70	H	0.353525	-0.111111	0.108619
H71	H	0.264514	0.026613	0.096904
O72	O	0.822723	-0.226644	0.153011
C73	C	0.763193	-0.177885	0.126442
H74	H	0.720273	-0.232454	0.116799
H75	H	0.744092	-0.100566	0.170200
H76	H	0.777077	-0.161208	0.070847
O77	O	0.818261	-0.550477	-0.173209
C78	C	0.877430	-0.625955	-0.192111
H79	H	0.897208	-0.646410	-0.138846
H80	H	0.862799	-0.700197	-0.234747
H81	H	0.920127	-0.592295	-0.218027
H82	H	0.610057	0.146091	0.148622
H83	H	0.031679	0.133206	0.146009
H84	H	0.821124	-0.343202	0.249729
O85	O	0.820451	-0.386157	-0.206703
C86	C	0.759449	-0.437319	-0.220755
H87	H	0.717934	-0.395808	-0.175071
H88	H	0.739268	-0.434485	-0.278576
H89	H	0.771817	-0.523032	-0.219983
H90	H	0.478702	0.143156	-0.091511
H91	H	0.735618	0.269472	0.857534
H92	H	0.163123	0.136125	0.146601
O93	O	0.823775	-0.170267	0.096266
C94	C	0.884792	-0.119147	0.110351
H95	H	0.905076	-0.106789	0.055484
H96	H	0.872399	-0.039439	0.154085
H97	H	0.926242	-0.169872	0.132875
H98	H	0.823598	-0.178920	-0.155308
H99	H	0.818216	-0.541800	0.210385
H100	H	0.906215	0.009817	0.197564
H101	H	0.816824	-0.641059	-0.061054
O102	O	0.913677	-0.001467	0.339497
C103	C	0.955170	-0.064649	0.276992
H104	H	0.956076	-0.021625	0.231171
H105	H	1.010592	-0.080882	0.295785
H106	H	0.932396	-0.142527	0.253478
O107	O	0.838263	-0.048953	0.565252
C108	C	0.784122	-0.109639	0.534645
H109	H	0.761761	-0.083282	0.484529
H110	H	0.805596	-0.196552	0.514815
H111	H	0.741233	-0.098158	0.579839
H112	H	0.836945	-0.033853	0.424052
O113	O	0.913668	-0.001520	0.659647
C114	C	0.955189	-0.064662	0.697117
H115	H	0.926713	-0.065733	0.751252
H116	H	0.965544	-0.148524	0.658487
H117	H	1.006882	-0.030790	0.711910
H118	H	0.906259	0.009822	0.806064
H119	H	0.735608	0.269472	0.719242
H120	H	0.804901	0.313147	0.631038
O121	O	0.803527	0.328263	0.489866
C122	C	0.795725	0.412668	0.556562
H123	H	0.820066	0.385548	0.605523
H124	H	0.822916	0.480946	0.548045
H125	H	0.737887	0.439763	0.570050
O126	O	0.728093	0.280601	0.395482
C127	C	0.659289	0.263823	0.373552
H128	H	0.658713	0.179791	0.335964
H129	H	0.624473	0.276033	0.426114
H130	H	0.639046	0.322076	0.340845
O131	O	0.615731	0.146245	-0.101322
C132	C	0.568242	0.145158	-0.159805
H133	H	0.513804	0.177227	-0.134106
H134	H	0.584920	0.196568	-0.195795
H135	H	0.567600	0.060802	-0.196804
O136	O	0.382096	0.262532	-0.047837
C137	C	0.330057	0.315728	-0.081955
H138	H	0.277775	0.321998	-0.051161
H139	H	0.344122	0.398223	-0.078381
H140	H	0.326195	0.269980	-0.143911
O141	O	0.728241	0.280842	0.245324
C142	C	0.739815	0.384695	0.284520
H143	H	0.795425	0.384987	0.305513
H144	H	0.731972	0.437402	0.244828
H145	H	0.701407	0.415675	0.334913
H146	H	0.245874	0.249728	-0.042410
H147	H	0.031769	0.133220	-0.093523
O148	O	0.168799	0.136313	-0.103335
C149	C	0.121310	0.135242	-0.161816
H150	H	0.066872	0.167307	-0.136116
H151	H	0.137989	0.186666	-0.197795
H152	H	0.120668	0.050893	-0.198826
