data_functionalizedCrystal
_audit_creation_method	'MofGen! by Chris Wilmer'
_symmetry_space_group_name_H-M	'P1'
_symmetry_Int_Tables_number	1
_symmetry_cell_setting	triclinic
loop_
_symmetry_equiv_pos_as_xyz
  x,y,z
_cell_length_a	17.699083
_cell_length_b	17.699077
_cell_length_c	16.776229
_cell_angle_alpha	89.993415
_cell_angle_beta	90.000201
_cell_angle_gamma	96.718205
loop_
_atom_site_label
_atom_site_type_symbol
_atom_site_fract_x
_atom_site_fract_y
_atom_site_fract_z
O1	O	-0.095691	1.004081	-0.066266
O2	O	0.404309	1.504081	0.433734
O3	O	-0.108149	0.783702	-0.066269
O4	O	0.391851	1.283702	0.433731
O5	O	0.008269	0.900118	-0.066275
O6	O	0.508269	1.400118	0.433725
O7	O	-0.212109	0.887666	-0.066260
O8	O	0.287891	1.387666	0.433740
O9	O	0.008276	0.900103	0.066301
O10	O	0.508276	1.400103	0.566301
O11	O	-0.108142	0.783687	0.066308
O12	O	0.391858	1.283687	0.566308
O13	O	-0.095684	1.004066	0.066310
O14	O	0.404316	1.504066	0.566310
Zn15	Zn	-0.101912	0.893874	0.087358
Zn16	Zn	0.398088	1.393874	0.587358
Zn17	Zn	-0.101921	0.893894	-0.087317
Zn18	Zn	0.398079	1.393894	0.412683
O19	O	-0.212102	0.887650	0.066317
O20	O	0.287898	1.387650	0.566317
C21	C	-0.107700	0.755498	0.000019
C22	C	0.392300	1.255498	0.500019
C23	C	-0.106363	0.671479	0.000018
C24	C	0.393637	1.171479	0.500018
C25	C	-0.105729	0.632003	0.072286
C26	C	0.394271	1.132003	0.572286
C27	C	-0.104461	0.553061	0.072287
C28	C	0.395539	1.053061	0.572287
C29	C	-0.103832	0.513595	0.000018
C30	C	0.396168	1.013595	0.500018
C31	C	-0.104463	0.553076	-0.072256
C32	C	0.395537	1.053076	0.427744
C33	C	-0.105726	0.632018	-0.072256
C34	C	0.394274	1.132018	0.427744
C35	C	-0.099370	0.234713	-0.072258
C36	C	0.400630	0.734713	0.427742
C37	C	-0.098110	0.155766	-0.072252
C38	C	0.401890	0.655766	0.427748
C39	C	-0.098105	0.155756	0.072285
C40	C	0.401895	0.655756	0.572285
C41	C	-0.099367	0.234698	0.072285
C42	C	0.400633	0.734698	0.572285
C43	C	-0.099995	0.274173	0.000011
C44	C	0.400005	0.774173	0.500011
C45	C	-0.101369	0.359771	0.000011
C46	C	0.398631	0.859771	0.500011
C47	C	-0.102464	0.427997	0.000017
C48	C	0.397536	0.927997	0.500017
C49	C	-0.240303	0.888104	0.000030
C50	C	0.259697	1.388104	0.500030
C51	C	-0.324321	0.889443	0.000036
C52	C	0.175679	1.389443	0.500036
C53	C	-0.372943	0.821109	0.000036
C54	C	0.127057	1.321109	0.500036
C55	C	-0.451887	0.822371	0.000026
C56	C	0.048113	1.322371	0.500026
C57	C	-0.482206	0.891968	0.000023
C58	C	0.017794	1.391968	0.500023
C59	C	-0.433577	0.960307	0.000022
C60	C	0.066423	1.460307	0.500022
C61	C	-0.354636	0.959044	0.000025
C62	C	0.145364	1.459044	0.500025
C63	C	-0.751940	0.965402	0.000006
C64	C	-0.251940	1.465402	0.500006
C65	C	-0.830888	0.966660	0.000005
C66	C	-0.330888	1.466660	0.500005
C67	C	-0.849191	0.828730	0.000007
C68	C	-0.349191	1.328730	0.500007
C69	C	-0.770250	0.827467	0.000010
C70	C	-0.270250	1.327467	0.500010
C71	C	-0.721628	0.895805	0.000005
C72	C	-0.221628	1.395805	0.500005
C73	C	-0.636029	0.894436	0.000013
C74	C	-0.136029	1.394436	0.500013
C75	C	-0.567804	0.893338	0.000020
C76	C	-0.067804	1.393338	0.500020
C77	C	0.036470	0.899664	0.000009
C78	C	0.536470	1.399664	0.500009
C79	C	0.120488	0.898326	-0.000002
C80	C	0.620488	1.398326	0.499998
C81	C	-0.096133	1.032271	0.000021
C82	C	0.403867	1.532271	0.500021
C83	C	-0.097470	1.116289	0.000017
C84	C	0.402530	1.616289	0.500017
N85	N	-0.101905	0.893866	0.206570
N86	N	0.398095	1.393866	0.706570
N87	N	-0.101922	0.893909	-0.206528
N88	N	0.398078	1.393909	0.293472
C89	C	-0.050376	0.945430	0.248284
C90	C	0.449624	1.445430	0.748284
C91	C	-0.050376	0.945434	0.331736
C92	C	0.449624	1.445434	0.831736
C93	C	-0.101908	0.893877	0.373473
C94	C	0.398092	1.393877	0.873473
C95	C	-0.153439	0.842307	0.331753
C96	C	0.346561	1.342307	0.831753
C97	C	-0.153435	0.842300	0.248302
C98	C	0.346565	1.342300	0.748302
C99	C	-0.153454	0.842334	0.668300
C100	C	0.346546	1.342334	1.168300
C101	C	-0.153455	0.842347	0.751756
C102	C	0.346545	1.342347	1.251756
C103	C	-0.050394	0.945469	0.751734
C104	C	0.449606	1.445469	1.251734
C105	C	-0.050390	0.945462	0.668283
C106	C	0.449610	1.445462	1.168283
C107	C	-0.101919	0.893889	0.626570
C108	C	0.398081	1.393889	1.126570
C109	C	-0.101918	0.893885	0.536082
C110	C	0.398082	1.393885	1.036082
C111	C	-0.101913	0.893885	0.463959
C112	C	0.398087	1.393885	0.963959
H113	H	-0.106247	0.664130	0.131135
H114	H	0.393753	1.164130	0.631135
H115	H	-0.008434	0.987460	0.785705
H116	H	0.491566	1.487460	1.285705
C117	C	-0.256491	0.825723	0.845600
C118	C	0.243509	1.325723	1.345600
C119	C	-0.210100	0.785666	0.797634
C120	C	0.289900	1.285666	1.297634
H121	H	-0.291461	0.790732	0.873918
H122	H	0.208539	1.290732	1.373918
H123	H	-0.225804	0.856432	0.882382
H124	H	0.274196	1.356432	1.382382
H125	H	-0.283678	0.857163	0.813026
H126	H	0.216322	1.357163	1.313026
H127	H	-0.182909	0.754230	0.830209
H128	H	0.317091	1.254230	1.330209
H129	H	-0.240790	0.754945	0.760848
H130	H	0.259210	1.254945	1.260848
H131	H	-0.097590	0.123606	0.131133
H132	H	0.402410	0.623606	0.631133
H133	H	-0.008417	0.987422	0.365699
H134	H	0.491583	1.487422	0.865699
C135	C	-0.169987	0.739259	0.154482
C136	C	0.330013	1.239259	0.654482
C137	C	-0.210079	0.785619	0.202447
C138	C	0.289921	1.285619	0.702447
H139	H	-0.204957	0.704262	0.126179
H140	H	0.295043	1.204262	0.626179
H141	H	-0.139303	0.769963	0.117687
H142	H	0.360697	1.269963	0.617687
H143	H	-0.138520	0.712102	0.187055
H144	H	0.361480	1.212102	0.687055
H145	H	-0.241542	0.812780	0.169873
H146	H	0.258458	1.312780	0.669873
H147	H	-0.240776	0.754911	0.239247
H148	H	0.259224	1.254911	0.739247
H149	H	-0.712361	1.021048	0.000006
H150	H	-0.212361	1.521048	0.500006
C151	C	-0.098224	0.163702	-0.215133
C152	C	0.401776	0.663702	0.284867
C153	C	-0.097411	0.112383	-0.151696
C154	C	0.402589	0.612383	0.348304
H155	H	-0.097789	0.136919	-0.264174
H156	H	0.402211	0.636919	0.235826
H157	H	-0.142832	0.188637	-0.212132
H158	H	0.357168	0.688637	0.287868
H159	H	-0.054593	0.200349	-0.212122
H160	H	0.445407	0.700349	0.287878
H161	H	-0.141045	0.075740	-0.154704
H162	H	0.358955	0.575740	0.345296
H163	H	-0.052799	0.087437	-0.154698
H164	H	0.447201	0.587437	0.345302
C165	C	-0.255333	0.740408	0.676716
C166	C	0.244667	1.240408	1.176716
C167	C	-0.210099	0.785653	0.622456
C168	C	0.289901	1.285653	1.122456
H169	H	-0.290308	0.705418	0.648410
H170	H	0.209692	1.205418	1.148410
H171	H	-0.223863	0.713250	0.709271
H172	H	0.276137	1.213250	1.209271
H173	H	-0.282516	0.771874	0.709256
H174	H	0.217484	1.271874	1.209256
H175	H	-0.182912	0.754187	0.589919
H176	H	0.317088	1.254187	1.089919
H177	H	-0.241573	0.812813	0.589887
H178	H	0.258427	1.312813	1.089887
C179	C	-0.034707	0.267628	0.195474
C180	C	0.465293	0.767628	0.695474
C181	C	-0.100055	0.278079	0.151724
C182	C	0.399945	0.778079	0.651724
H183	H	-0.035128	0.294414	0.244515
H184	H	0.464872	0.794414	0.744515
H185	H	-0.033871	0.214969	0.205817
H186	H	0.466129	0.714969	0.705817
H187	H	0.009197	0.286426	0.165765
H188	H	0.509197	0.786426	0.665765
H189	H	-0.143959	0.259276	0.181430
H190	H	0.356041	0.759276	0.681430
H191	H	-0.100898	0.330749	0.141383
H192	H	0.399102	0.830749	0.641383
C193	C	-0.546460	1.023490	0.000024
C194	C	-0.046460	1.523490	0.500024
C195	C	-0.466902	1.036810	0.000021
C196	C	0.033098	1.536810	0.500021
H197	H	-0.567031	1.070722	0.000031
H198	H	-0.067031	1.570722	0.500031
H199	H	-0.563154	0.995372	-0.046206
H200	H	-0.063154	1.495372	0.453794
H201	H	-0.563152	0.995353	0.046259
H202	H	-0.063152	1.495353	0.546259
H203	H	-0.450211	1.064942	-0.046217
H204	H	0.049789	1.564942	0.453783
H205	H	-0.450202	1.064940	0.046256
H206	H	0.049798	1.564940	0.546256
C207	C	-0.107659	0.753038	-0.136434
C208	C	0.392341	1.253038	0.363566
C209	C	-0.106423	0.675414	-0.151695
C210	C	0.393577	1.175414	0.348305
H211	H	-0.108082	0.779828	-0.185479
H212	H	0.391918	1.279828	0.314521
H213	H	-0.151982	0.760114	-0.106745
H214	H	0.348018	1.260114	0.393255
H215	H	-0.063743	0.771819	-0.106740
H216	H	0.436257	1.271819	0.393260
H217	H	-0.150342	0.656632	-0.181384
H218	H	0.349658	1.156632	0.318616
H219	H	-0.062096	0.668334	-0.181397
H220	H	0.437904	1.168334	0.318603
C221	C	-0.199214	0.796533	0.459685
C222	C	0.300786	1.296533	0.959685
C223	C	-0.210087	0.785635	0.377628
C224	C	0.289913	1.285635	0.877628
H225	H	-0.234192	0.761549	0.488003
H226	H	0.265808	1.261549	0.988003
H227	H	-0.148718	0.788408	0.473363
H228	H	0.351282	1.288408	0.973363
H229	H	-0.207371	0.847032	0.473339
H230	H	0.292629	1.347032	0.973339
H231	H	-0.201924	0.735138	0.363973
H232	H	0.298076	1.235138	0.863973
H233	H	-0.260595	0.793754	0.363943
H234	H	0.239405	1.293754	0.863943
H235	H	-0.315047	1.014688	0.000023
H236	H	0.184953	1.514688	0.500023
C237	C	-0.462050	0.685903	0.000050
C238	C	0.037950	1.185903	0.500050
C239	C	-0.505333	0.747257	0.000036
C240	C	-0.005333	1.247257	0.500036
H241	H	-0.495047	0.639530	0.000061
H242	H	0.004953	1.139530	0.500061
H243	H	-0.430879	0.688279	-0.046179
H244	H	0.069121	1.188279	0.453821
H245	H	-0.430878	0.688288	0.046286
H246	H	0.069122	1.188288	0.546286
H247	H	-0.536501	0.744876	-0.046204
H248	H	-0.036501	1.244876	0.453796
H249	H	-0.536516	0.744880	0.046269
H250	H	-0.036516	1.244880	0.546269
H251	H	-0.745568	0.770794	0.000017
H252	H	-0.245568	1.270794	0.500017
C253	C	-0.165830	0.314856	-0.156112
C254	C	0.334170	0.814856	0.343888
C255	C	-0.100069	0.278095	-0.151700
C256	C	0.399931	0.778095	0.348300
H257	H	-0.166258	0.341642	-0.205158
H258	H	0.333742	0.841642	0.294842
H259	H	-0.209448	0.278205	-0.153102
H260	H	0.290552	0.778205	0.346898
H261	H	-0.166374	0.349661	-0.113073
H262	H	0.333626	0.849661	0.386927
H263	H	-0.099528	0.243286	-0.194736
H264	H	0.400472	0.743286	0.305264
H265	H	-0.056439	0.314750	-0.154718
H266	H	0.443561	0.814750	0.345282
C267	C	-0.102537	0.432069	-0.136436
C268	C	0.397463	0.932069	0.363564
C269	C	-0.103774	0.509697	-0.151695
C270	C	0.396226	1.009697	0.348305
H271	H	-0.102118	0.405291	-0.185481
H272	H	0.397882	0.905291	0.314519
H273	H	-0.058213	0.424987	-0.106751
H274	H	0.441787	0.924987	0.393249
H275	H	-0.146452	0.413282	-0.106738
H276	H	0.353548	0.913282	0.393262
H277	H	-0.059857	0.528485	-0.181389
H278	H	0.440143	1.028485	0.318611
H279	H	-0.148103	0.516784	-0.181393
H280	H	0.351897	1.016784	0.318607
H281	H	-0.103932	0.520925	0.131135
H282	H	0.396068	1.020925	0.631135
C283	C	-0.859353	0.692256	0.000013
C284	C	-0.359353	1.192256	0.500013
C285	C	-0.902638	0.753608	0.000004
C286	C	-0.402638	1.253608	0.500004
H287	H	-0.892349	0.645881	0.000018
H288	H	-0.392349	1.145881	0.500018
H289	H	-0.828180	0.694637	-0.046214
H290	H	-0.328180	1.194637	0.453786
H291	H	-0.828184	0.694636	0.046252
H292	H	-0.328184	1.194636	0.546252
H293	H	-0.933804	0.751231	-0.046238
H294	H	-0.433804	1.251231	0.453762
H295	H	-0.933824	0.751225	0.046235
H296	H	-0.433824	1.251225	0.546235
C297	C	-0.804870	1.102884	-0.000020
C298	C	-0.304870	1.602884	0.499980
C299	C	-0.864216	1.043167	-0.000009
C300	C	-0.364216	1.543167	0.499991
H301	H	-0.825447	1.150112	-0.000034
H302	H	-0.325447	1.650112	0.499966
H303	H	-0.774463	1.099527	0.046211
H304	H	-0.274463	1.599527	0.546211
H305	H	-0.774458	1.099517	-0.046254
H306	H	-0.274458	1.599517	0.453746
H307	H	-0.894625	1.046530	0.046228
H308	H	-0.394625	1.546530	0.546228
H309	H	-0.894636	1.046525	-0.046245
H310	H	-0.394636	1.546525	0.453755
C311	C	-0.260061	0.757924	0.000047
C312	C	0.239939	1.257924	0.500047
C313	C	-0.339619	0.744605	0.000040
C314	C	0.160381	1.244605	0.500040
H315	H	-0.239492	0.710691	0.000053
H316	H	0.260508	1.210691	0.500053
H317	H	-0.243364	0.786054	-0.046181
H318	H	0.256636	1.286054	0.453819
H319	H	-0.243373	0.786048	0.046284
H320	H	0.256627	1.286048	0.546284
H321	H	-0.356308	0.716485	-0.046200
H322	H	0.143692	1.216485	0.453800
H323	H	-0.356323	0.716463	0.046273
H324	H	0.143677	1.216463	0.546273
H325	H	-0.008416	0.987417	0.214307
H326	H	0.491584	1.487417	0.714307
H327	H	-0.008431	0.987447	0.634304
H328	H	0.491569	1.487447	1.134304
