data_functionalizedCrystal
_audit_creation_method	'MofGen! by Chris Wilmer'
_symmetry_space_group_name_H-M	'P1'
_symmetry_Int_Tables_number	1
_symmetry_cell_setting	triclinic
loop_
_symmetry_equiv_pos_as_xyz
  x,y,z
_cell_length_a	19.805407
_cell_length_b	25.639239
_cell_length_c	25.639233
_cell_angle_alpha	89.981253
_cell_angle_beta	89.985655
_cell_angle_gamma	90.038686
loop_
_atom_site_label
_atom_site_type_symbol
_atom_site_fract_x
_atom_site_fract_y
_atom_site_fract_z
Zn1	Zn	1.034643	-0.208214	-0.295633
Zn2	Zn	1.534643	0.291786	0.204367
Zn3	Zn	1.034544	-0.295633	-0.208197
Zn4	Zn	1.534544	0.204367	0.291803
Zn5	Zn	0.921468	-0.208214	-0.208209
Zn6	Zn	1.421468	0.291786	0.291791
Zn7	Zn	0.921397	-0.295621	-0.295599
Zn8	Zn	1.421397	0.204379	0.204401
O9	O	0.978013	-0.251920	-0.251910
O10	O	1.478013	0.248080	0.248090
O11	O	1.129346	-0.219816	-0.284044
O12	O	1.629346	0.280184	0.215956
O13	O	1.019532	-0.284042	-0.135034
O14	O	1.519532	0.215958	0.364966
O15	O	0.936552	-0.135048	-0.219825
O16	O	1.436552	0.364952	0.280175
O17	O	1.129274	-0.284043	-0.219805
O18	O	1.629274	0.215957	0.280195
O19	O	1.019701	-0.135049	-0.284055
O20	O	1.519701	0.364951	0.215945
O21	O	0.936456	-0.219815	-0.135042
O22	O	1.436456	0.280185	0.364958
O23	O	0.826742	-0.219803	-0.219792
O24	O	1.326742	0.280197	0.280208
O25	O	0.936431	-0.284021	-0.368769
O26	O	1.436431	0.215979	0.131231
O27	O	0.826690	-0.284020	-0.283998
O28	O	1.326690	0.215980	0.216002
O29	O	1.019632	-0.219804	-0.368794
O30	O	1.519632	0.280196	0.131206
O31	O	1.019463	-0.368797	-0.219773
O32	O	1.519463	0.131203	0.280227
O33	O	0.936335	-0.368788	-0.283986
O34	O	1.436335	0.131212	0.216014
C35	C	0.802157	-0.251910	-0.251893
C36	C	1.302157	0.248090	0.248107
C37	C	0.726925	-0.251919	-0.251898
C38	C	1.226925	0.248081	0.248102
C39	C	0.691571	-0.285407	-0.285276
C40	C	1.191571	0.214593	0.214724
C41	C	0.620883	-0.285408	-0.285283
C42	C	1.120883	0.214592	0.214717
C43	C	0.585549	-0.251923	-0.251910
C44	C	1.085549	0.248077	0.248090
C45	C	0.620908	-0.218431	-0.218531
C46	C	1.120908	0.281569	0.281469
C47	C	0.691595	-0.218428	-0.218526
C48	C	1.191595	0.281572	0.281474
C49	C	0.335835	-0.218442	-0.218548
C50	C	0.835835	0.281558	0.281452
C51	C	0.265143	-0.218449	-0.218554
C52	C	0.765143	0.281551	0.281446
C53	C	0.265122	-0.285423	-0.285305
C54	C	0.765122	0.214577	0.214695
C55	C	0.335810	-0.285420	-0.285300
C56	C	0.835810	0.214580	0.214700
C57	C	0.371162	-0.251926	-0.251923
C58	C	0.871162	0.248074	0.248077
C59	C	0.447810	-0.251925	-0.251917
C60	C	0.947810	0.248075	0.248083
C61	C	0.508902	-0.251926	-0.251914
C62	C	1.008902	0.248074	0.248086
C63	C	0.977899	-0.387763	-0.251886
C64	C	1.477899	0.112237	0.248114
C65	C	0.977912	-0.445877	-0.251893
C66	C	1.477912	0.054123	0.248107
C67	C	1.021411	-0.806232	-0.218531
C68	C	1.521411	-0.306232	0.281469
C69	C	1.021437	-0.860837	-0.218538
C70	C	1.521437	-0.360837	0.281462
O71	O	1.058303	-0.889067	-0.190145
O72	O	1.558303	-0.389067	0.309855
N73	N	0.978132	-0.888159	-0.251944
N74	N	1.478132	-0.388159	0.248056
C75	C	0.934802	-0.860875	-0.285350
C76	C	1.434802	-0.360875	0.214650
O77	O	0.897971	-0.889129	-0.313766
O78	O	1.397971	-0.389129	0.186234
C79	C	0.934780	-0.806272	-0.285345
C80	C	1.434780	-0.306272	0.214655
C81	C	0.978083	-0.778952	-0.251933
C82	C	1.478083	-0.278952	0.248067
C83	C	1.064711	-0.778912	-0.185121
C84	C	1.564711	-0.278912	0.314879
C85	C	1.064684	-0.724312	-0.185114
C86	C	1.564684	-0.224312	0.314886
C87	C	1.021356	-0.697031	-0.218516
C88	C	1.521356	-0.197031	0.281484
C89	C	0.978056	-0.724351	-0.251925
C90	C	1.478056	-0.224351	0.248075
C91	C	0.891455	-0.778989	-0.318753
C92	C	1.391455	-0.278989	0.181247
C93	C	0.891436	-0.724382	-0.318746
C94	C	1.391436	-0.224382	0.181254
C95	C	0.934740	-0.697062	-0.285333
C96	C	1.434740	-0.197062	0.214667
C97	C	0.934701	-0.642470	-0.285320
C98	C	1.434701	-0.142470	0.214680
N99	N	0.978006	-0.615148	-0.251913
N100	N	1.478006	-0.115148	0.248087
C101	C	1.021334	-0.642428	-0.218511
C102	C	1.521334	-0.142428	0.281489
C103	C	0.934853	-0.975546	-0.285358
C104	C	1.434853	-0.475546	0.214642
C105	C	0.934872	-1.030148	-0.285361
C106	C	1.434872	-0.530148	0.214639
C107	C	1.021508	-1.030106	-0.218549
C108	C	1.521508	-0.530106	0.281451
C109	C	1.021485	-0.975502	-0.218544
C110	C	1.521485	-0.475502	0.281456
C111	C	0.978159	-0.948223	-0.251951
C112	C	1.478159	-0.448223	0.248049
C113	C	1.021273	-0.527763	-0.218497
C114	C	1.521273	-0.027763	0.281503
C115	C	1.021240	-0.473158	-0.218491
C116	C	1.521240	0.026842	0.281509
C117	C	0.934607	-0.473205	-0.285305
C118	C	1.434607	0.026795	0.214695
C119	C	0.934637	-0.527805	-0.285309
C120	C	1.434637	-0.027805	0.214691
C121	C	0.977976	-0.555083	-0.251904
C122	C	1.477976	-0.055083	0.248096
O123	O	0.897856	-0.614206	-0.313699
O124	O	1.397856	-0.114206	0.186301
O125	O	1.058166	-0.614167	-0.190104
O126	O	1.558166	-0.114167	0.309896
C127	C	1.154556	-0.251931	-0.251927
C128	C	1.654556	0.248069	0.248073
C129	C	1.229788	-0.251935	-0.251934
C130	C	1.729788	0.248065	0.248066
C131	C	0.978035	-0.251911	-0.388283
C132	C	1.478035	0.248089	0.111717
C133	C	0.978044	-0.251907	-0.446397
C134	C	1.478044	0.248093	0.053603
C135	C	0.978146	-0.115547	-0.251945
C136	C	1.478146	0.384453	0.248055
C137	C	0.978202	-0.057433	-0.251960
C138	C	1.478202	0.442567	0.248040
C139	C	1.021422	-0.218370	-0.806779
C140	C	1.521422	0.281630	-0.306779
C141	C	1.021430	-0.218356	-0.861383
C142	C	1.521430	0.281644	-0.361383
O143	O	1.058257	-0.189903	-0.889636
O144	O	1.558257	0.310097	-0.389636
N145	N	0.978119	-0.251785	-0.888680
N146	N	1.478119	0.248215	-0.388680
C147	C	0.934791	-0.285227	-0.861369
C148	C	1.434791	0.214773	-0.361369
O149	O	0.897951	-0.313659	-0.889601
O150	O	1.397951	0.186341	-0.389601
C151	C	0.934780	-0.285238	-0.806766
C152	C	1.434780	0.214762	-0.306766
C153	C	0.978099	-0.251811	-0.779472
C154	C	1.478099	0.248189	-0.279472
C155	C	1.064737	-0.184945	-0.779485
C156	C	1.564737	0.315055	-0.279485
C157	C	1.064730	-0.184960	-0.724884
C158	C	1.564730	0.315040	-0.224884
C159	C	1.021407	-0.218401	-0.697578
C160	C	1.521407	0.281599	-0.197578
C161	C	0.978091	-0.251826	-0.724871
C162	C	1.478091	0.248174	-0.224871
C163	C	0.891449	-0.318677	-0.779456
C164	C	1.391449	0.181323	-0.279456
C165	C	0.891441	-0.318685	-0.724849
C166	C	1.391441	0.181315	-0.224849
C167	C	0.934761	-0.285258	-0.697555
C168	C	1.434761	0.214742	-0.197555
C169	C	0.934761	-0.285282	-0.642964
C170	C	1.434761	0.214718	-0.142964
N171	N	0.978073	-0.251853	-0.615667
N172	N	1.478073	0.248147	-0.115667
C173	C	1.021395	-0.218412	-0.642974
C174	C	1.521395	0.281588	-0.142974
C175	C	0.934817	-0.285200	-0.976040
C176	C	1.434817	0.214800	-0.476040
C177	C	0.934831	-0.285191	-1.030642
C178	C	1.434831	0.214809	-0.530642
C179	C	1.021470	-0.218319	-1.030652
C180	C	1.521470	0.281681	-0.530652
C181	C	1.021459	-0.218331	-0.976049
C182	C	1.521459	0.281669	-0.476049
C183	C	0.978129	-0.251770	-0.948743
C184	C	1.478129	0.248230	-0.448743
C185	C	1.021376	-0.218447	-0.528309
C186	C	1.521376	0.281553	-0.028309
C187	C	1.021367	-0.218467	-0.473704
C188	C	1.521367	0.281533	0.026296
C189	C	0.934726	-0.285337	-0.473698
C190	C	1.434726	0.214663	0.026302
C191	C	0.934738	-0.285319	-0.528299
C192	C	1.434738	0.214681	-0.028299
C193	C	0.978065	-0.251870	-0.555603
C194	C	1.478065	0.248130	-0.055603
O195	O	0.897951	-0.313718	-0.614677
O196	O	1.397951	0.186282	-0.114677
O197	O	1.058223	-0.189980	-0.614736
O198	O	1.558223	0.310020	-0.114736
C199	C	0.978030	-0.251892	-0.116067
C200	C	1.478030	0.248108	0.383933
C201	C	0.978152	-0.251748	-0.057954
C202	C	1.478152	0.248252	0.442046
H203	H	0.592101	-0.312678	-0.312462
H204	H	1.092101	0.187322	0.187538
H205	H	0.899328	-0.450984	-0.312499
H206	H	1.399328	0.049016	0.187501
H207	H	0.856189	-0.801223	-0.345959
H208	H	1.356189	-0.301223	0.154041
C209	C	1.030917	-0.148009	-0.914659
C210	C	1.530917	0.351991	-0.414659
C211	C	1.069069	-0.181581	-0.946050
C212	C	1.569069	0.318419	-0.446050
H213	H	1.060311	-0.125322	-0.896139
H214	H	1.560311	0.374678	-0.396139
H215	H	1.001455	-0.128010	-0.935963
H216	H	1.501455	0.371990	-0.435963
H217	H	1.005120	-0.167930	-0.890578
H218	H	1.505120	0.332070	-0.390578
H219	H	1.094863	-0.161661	-0.970134
H220	H	1.594863	0.338339	-0.470134
H221	H	1.098543	-0.201582	-0.924744
H222	H	1.598543	0.298418	-0.424744
C223	C	0.805811	-0.729912	-0.384795
C224	C	1.305811	-0.229912	0.115205
C225	C	0.843809	-0.694397	-0.355470
C226	C	1.343809	-0.194397	0.144530
H227	H	0.776406	-0.711401	-0.407464
H228	H	1.276406	-0.211401	0.092536
H229	H	0.835296	-0.751176	-0.404813
H230	H	1.335296	-0.251176	0.095187
H231	H	0.779950	-0.751241	-0.361994
H232	H	1.279950	-0.251241	0.138006
H233	H	0.869674	-0.673071	-0.378271
H234	H	1.369674	-0.173071	0.121729
H235	H	0.814320	-0.673124	-0.335450
H236	H	1.314320	-0.173124	0.164550
C237	C	1.059824	-0.188784	-0.390008
C238	C	1.559824	0.311216	0.109992
C239	C	1.068977	-0.181714	-0.443702
C240	C	1.568977	0.318286	0.056298
H241	H	1.089216	-0.166095	-0.371489
H242	H	1.589216	0.333905	0.128511
H243	H	1.014357	-0.181137	-0.381060
H244	H	1.514357	0.318863	0.118940
H245	H	1.069705	-0.223916	-0.381059
H246	H	1.569705	0.276084	0.118941
H247	H	1.059091	-0.146583	-0.452652
H248	H	1.559091	0.353417	0.047348
H249	H	1.114455	-0.189357	-0.452654
H250	H	1.614455	0.310643	0.047346
C251	C	0.357594	-0.311014	-0.373786
C252	C	0.857594	0.188986	0.126214
C253	C	0.374648	-0.322225	-0.321987
C254	C	0.874648	0.177775	0.178013
H255	H	0.381574	-0.333734	-0.396436
H256	H	0.881574	0.166266	0.103564
H257	H	0.310442	-0.315811	-0.378562
H258	H	0.810442	0.184189	0.121438
H259	H	0.369212	-0.275893	-0.381492
H260	H	0.869212	0.224107	0.118508
H261	H	0.363025	-0.357345	-0.314280
H262	H	0.863025	0.142655	0.185720
H263	H	0.421811	-0.317432	-0.317209
H264	H	0.921811	0.182568	0.182791
C265	C	0.843741	-0.292489	-0.914634
C266	C	1.343741	0.207511	-0.414634
C267	C	0.887192	-0.321967	-0.946029
C268	C	1.387192	0.178033	-0.446029
H269	H	0.814337	-0.315189	-0.896112
H270	H	1.314337	0.184811	-0.396112
H271	H	0.869529	-0.272590	-0.890560
H272	H	1.369529	0.227410	-0.390560
H273	H	0.817880	-0.269703	-0.935940
H274	H	1.317880	0.230297	-0.435940
H275	H	0.913056	-0.344751	-0.924722
H276	H	1.413056	0.155249	-0.424722
H277	H	0.861400	-0.341875	-0.970106
H278	H	1.361400	0.158125	-0.470106
H279	H	1.056565	-0.549966	-0.191296
H280	H	1.556565	-0.049966	0.308704
C281	C	0.185660	-0.292796	-0.355634
C282	C	0.685660	0.207204	0.144366
C283	C	0.226260	-0.322235	-0.322000
C284	C	0.726260	0.177765	0.178000
H285	H	0.161673	-0.315523	-0.378288
H286	H	0.661673	0.184477	0.121712
H287	H	0.154503	-0.272859	-0.335759
H288	H	0.654503	0.227141	0.164241
H289	H	0.213272	-0.270047	-0.375670
H290	H	0.713272	0.229953	0.124330
H291	H	0.198647	-0.344981	-0.301961
H292	H	0.698647	0.155019	0.198039
H293	H	0.257420	-0.342181	-0.341876
H294	H	0.757420	0.157819	0.158124
H295	H	0.856149	-0.345911	-0.702619
H296	H	1.356149	0.154089	-0.202619
H297	H	1.056790	-1.052327	-0.191353
H298	H	1.556790	-0.552327	0.308647
H299	H	0.899378	-0.550050	-0.312518
H300	H	1.399378	-0.050050	0.187482
C301	C	1.107022	-0.152354	-0.522820
C302	C	1.607022	0.347646	-0.022820
C303	C	1.069007	-0.181684	-0.558316
C304	C	1.569007	0.318316	-0.058316
H305	H	1.136431	-0.129663	-0.541346
H306	H	1.636431	0.370337	-0.041346
H307	H	1.077547	-0.132360	-0.501523
H308	H	1.577547	0.367640	-0.001523
H309	H	1.132878	-0.175151	-0.501522
H310	H	1.632878	0.324849	-0.001522
H311	H	1.043146	-0.158887	-0.579612
H312	H	1.543146	0.341113	-0.079612
H313	H	1.098486	-0.201680	-0.579622
H314	H	1.598486	0.298320	-0.079622
C315	C	0.357569	-0.192838	-0.130060
C316	C	0.857569	0.307162	0.369940
C317	C	0.374686	-0.181628	-0.181858
C318	C	0.874686	0.318372	0.318142
H319	H	0.381559	-0.170110	-0.107409
H320	H	0.881559	0.329890	0.392591
H321	H	0.310419	-0.188051	-0.125293
H322	H	0.810419	0.311949	0.374707
H323	H	0.369133	-0.227955	-0.122349
H324	H	0.869133	0.272045	0.377651
H325	H	0.363117	-0.146512	-0.189571
H326	H	0.863117	0.353488	0.310429
H327	H	0.421847	-0.186410	-0.186628
H328	H	0.921847	0.313590	0.313372
C329	C	1.150330	-0.729772	-0.119084
C330	C	1.650330	-0.229772	0.380916
C331	C	1.112295	-0.694286	-0.148393
C332	C	1.612295	-0.194286	0.351607
H333	H	1.179729	-0.711237	-0.096417
H334	H	1.679729	-0.211237	0.403583
H335	H	1.120866	-0.751096	-0.099064
H336	H	1.620866	-0.251096	0.400936
H337	H	1.176198	-0.751042	-0.141895
H338	H	1.676198	-0.251042	0.358105
H339	H	1.086423	-0.673018	-0.125581
H340	H	1.586423	-0.173018	0.374419
H341	H	1.141762	-0.672952	-0.168414
H342	H	1.641762	-0.172952	0.331586
C343	C	0.858378	-0.407204	-0.796230
C344	C	1.358378	0.092796	-0.296230
C345	C	0.843825	-0.355423	-0.809442
C346	C	1.343825	0.144577	-0.309442
H347	H	0.828970	-0.429890	-0.814738
H348	H	1.328970	0.070110	-0.314738
H349	H	0.903839	-0.414858	-0.805193
H350	H	1.403839	0.085142	-0.305193
H351	H	0.852183	-0.411981	-0.759799
H352	H	1.352183	0.088019	-0.259799
H353	H	0.850025	-0.350644	-0.845873
H354	H	1.350025	0.149356	-0.345873
H355	H	0.798353	-0.347766	-0.800483
H356	H	1.298353	0.152234	-0.300483
C357	C	0.185637	-0.211087	-0.148234
C358	C	0.685637	0.288913	0.351766
C359	C	0.226308	-0.181641	-0.181862
C360	C	0.726308	0.318359	0.318138
H361	H	0.161668	-0.188366	-0.125579
H362	H	0.661668	0.311634	0.374421
H363	H	0.154465	-0.231027	-0.168112
H364	H	0.654465	0.268973	0.331888
H365	H	0.213199	-0.233834	-0.128197
H366	H	0.713199	0.266166	0.371803
H367	H	0.198745	-0.158896	-0.201901
H368	H	0.698745	0.341104	0.298099
H369	H	0.257484	-0.161692	-0.161982
H370	H	0.757484	0.338308	0.338018
C371	C	0.512560	-0.188696	-0.188898
C372	C	1.012560	0.311304	0.311102
C373	C	0.582071	-0.181621	-0.181848
C374	C	1.082071	0.318379	0.318152
H375	H	0.488586	-0.165972	-0.166248
H376	H	0.988586	0.334028	0.333752
H377	H	0.501001	-0.181098	-0.224038
H378	H	1.001001	0.318902	0.275962
H379	H	0.500951	-0.223815	-0.181180
H380	H	1.000951	0.276185	0.318820
H381	H	0.593681	-0.146502	-0.189570
H382	H	1.093681	0.353498	0.310430
H383	H	0.593635	-0.189215	-0.146699
H384	H	1.093635	0.310785	0.353301
C385	C	0.684519	-0.152233	-0.152537
C386	C	1.184519	0.347767	0.347463
C387	C	0.730459	-0.181621	-0.181832
C388	C	1.230459	0.318379	0.318168
H389	H	0.708513	-0.129512	-0.129881
H390	H	1.208513	0.370488	0.370119
H391	H	0.656978	-0.132267	-0.175353
H392	H	1.156978	0.367733	0.324647
H393	H	0.656920	-0.174991	-0.132501
H394	H	1.156920	0.325009	0.367499
H395	H	0.758055	-0.158863	-0.201871
H396	H	1.258055	0.341137	0.298129
H397	H	0.758012	-0.201588	-0.159012
H398	H	1.258012	0.298412	0.340988
H399	H	1.100003	-0.157739	-0.702667
H400	H	1.600003	0.342261	-0.202667
H401	H	1.056744	-0.191089	-1.052895
H402	H	1.556744	0.308911	-0.552895
C403	C	0.849193	-0.351290	-1.025133
C404	C	1.349193	0.148710	-0.525133
C405	C	0.887218	-0.321939	-1.060640
C406	C	1.387218	0.178061	-0.560640
H407	H	0.819793	-0.373973	-1.043652
H408	H	1.319793	0.126027	-0.543652
H409	H	0.878662	-0.371295	-1.003840
H410	H	1.378662	0.128705	-0.503840
H411	H	0.823326	-0.328507	-1.003833
H412	H	1.323326	0.171493	-0.503833
H413	H	0.913088	-0.344722	-1.081937
H414	H	1.413088	0.155278	-0.581937
H415	H	0.857744	-0.301933	-1.081942
H416	H	1.357744	0.198067	-0.581942
H417	H	1.056747	-0.953262	-0.191337
H418	H	1.556747	-0.453262	0.308663
C419	C	0.925265	-0.355631	-0.589708
C420	C	1.425265	0.144369	-0.089708
C421	C	0.887124	-0.322062	-0.558305
C422	C	1.387124	0.177938	-0.058305
H423	H	0.895864	-0.378313	-0.608228
H424	H	1.395864	0.121687	-0.108228
H425	H	0.951060	-0.335711	-0.613784
H426	H	1.451060	0.164289	-0.113784
H427	H	0.954729	-0.375641	-0.568407
H428	H	1.454729	0.124359	-0.068407
H429	H	0.857662	-0.302050	-0.579607
H430	H	1.357662	0.197950	-0.079607
H431	H	0.861317	-0.341984	-0.534227
H432	H	1.361317	0.158016	-0.034227
H433	H	0.899604	-1.052388	-0.312564
H434	H	1.399604	-0.552388	0.187436
C435	C	0.799919	-0.315145	-0.314908
C436	C	1.299919	0.184855	0.185092
C437	C	0.730407	-0.322216	-0.321960
C438	C	1.230407	0.177784	0.178040
H439	H	0.823891	-0.337872	-0.337555
H440	H	1.323891	0.162128	0.162445
H441	H	0.811531	-0.280031	-0.322624
H442	H	1.311531	0.219969	0.177376
H443	H	0.811475	-0.322746	-0.279763
H444	H	1.311475	0.177254	0.220237
H445	H	0.718850	-0.314611	-0.357105
H446	H	1.218850	0.185389	0.142895
H447	H	0.718790	-0.357338	-0.314248
H448	H	1.218790	0.142662	0.185752
C449	C	1.097808	-0.096408	-0.796291
C450	C	1.597808	0.403592	-0.296291
C451	C	1.112367	-0.148183	-0.809492
C452	C	1.612367	0.351817	-0.309492
H453	H	1.127221	-0.073714	-0.814810
H454	H	1.627221	0.426286	-0.314810
H455	H	1.052350	-0.088751	-0.805247
H456	H	1.552350	0.411249	-0.305247
H457	H	1.103991	-0.091645	-0.759862
H458	H	1.603991	0.408355	-0.259862
H459	H	1.106179	-0.152948	-0.845920
H460	H	1.606179	0.347052	-0.345920
H461	H	1.157836	-0.155843	-0.800539
H462	H	1.657836	0.344157	-0.300539
C463	C	1.106883	-0.478609	-0.152451
C464	C	1.606883	0.021391	0.347549
C465	C	1.068845	-0.443128	-0.181763
C466	C	1.568845	0.056872	0.318237
H467	H	1.136274	-0.460070	-0.129781
H468	H	1.636274	0.039930	0.370219
H469	H	1.077420	-0.499938	-0.132434
H470	H	1.577420	0.000062	0.367566
H471	H	1.132759	-0.499875	-0.175260
H472	H	1.632759	0.000125	0.324740
H473	H	1.042965	-0.421864	-0.158955
H474	H	1.542965	0.078136	0.341045
H475	H	1.098311	-0.421790	-0.201782
H476	H	1.598311	0.078210	0.298218
C477	C	1.155848	-0.840198	-0.177963
C478	C	1.655848	-0.340198	0.322037
C479	C	1.112389	-0.808872	-0.148420
C480	C	1.612389	-0.308872	0.351580
H481	H	1.185299	-0.858681	-0.155306
H482	H	1.685299	-0.358681	0.344694
H483	H	1.130069	-0.864305	-0.197832
H484	H	1.630069	-0.364305	0.302168
H485	H	1.181659	-0.818849	-0.200779
H486	H	1.681659	-0.318849	0.299221
H487	H	1.086575	-0.830221	-0.125607
H488	H	1.586575	-0.330221	0.374393
H489	H	1.138172	-0.784762	-0.128542
H490	H	1.638172	-0.284762	0.371458
C491	C	0.849213	-0.981081	-0.351395
C492	C	1.349213	-0.481081	0.148605
C493	C	0.887216	-0.945563	-0.322077
C494	C	1.387216	-0.445563	0.177923
H495	H	0.819802	-0.962572	-0.374061
H496	H	1.319802	-0.462572	0.125939
H497	H	0.878695	-1.002345	-0.371416
H498	H	1.378695	-0.502345	0.128584
H499	H	0.823358	-1.002409	-0.328589
H500	H	1.323358	-0.502409	0.171411
H501	H	0.913074	-0.924237	-0.344882
H502	H	1.413074	-0.424237	0.155118
H503	H	0.857729	-0.924290	-0.302054
H504	H	1.357729	-0.424290	0.197946
C505	C	0.896245	-0.315037	-0.389985
C506	C	1.396245	0.184963	0.110015
C507	C	0.887103	-0.322090	-0.443675
C508	C	1.387103	0.177910	0.056325
H509	H	0.866838	-0.337723	-0.371451
H510	H	1.366838	0.162277	0.128549
H511	H	0.941707	-0.322699	-0.381045
H512	H	1.441707	0.177301	0.118955
H513	H	0.886378	-0.279905	-0.381048
H514	H	1.386378	0.220095	0.118952
H515	H	0.896975	-0.357221	-0.452613
H516	H	1.396975	0.142779	0.047387
H517	H	0.841631	-0.314432	-0.452619
H518	H	1.341631	0.185568	0.047381
