data_functionalizedCrystal
_audit_creation_method	'MofGen! by Chris Wilmer'
_symmetry_space_group_name_H-M	'P1'
_symmetry_Int_Tables_number	1
_symmetry_cell_setting	triclinic
loop_
_symmetry_equiv_pos_as_xyz
  x,y,z
_cell_length_a	12.827893
_cell_length_b	16.120531
_cell_length_c	12.827885
_cell_angle_alpha	92.860433
_cell_angle_beta	90.019272
_cell_angle_gamma	87.067629
loop_
_atom_site_label
_atom_site_type_symbol
_atom_site_fract_x
_atom_site_fract_y
_atom_site_fract_z
Zn1	Zn	1.576455	0.331862	0.611870
Zn2	Zn	2.076455	0.831862	1.111870
Zn3	Zn	1.567435	0.471297	0.445962
Zn4	Zn	2.067435	0.971297	0.945962
Zn5	Zn	1.401694	0.331903	0.437146
Zn6	Zn	1.901694	0.831903	0.937146
Zn7	Zn	1.392772	0.471236	0.620658
Zn8	Zn	1.892772	0.971236	1.120658
O9	O	1.484589	0.401575	0.528909
O10	O	1.984589	0.901575	1.028909
O11	O	1.721494	0.350367	0.589873
O12	O	2.221494	0.850367	1.089873
O13	O	1.545408	0.452849	0.298559
O14	O	2.045408	0.952849	0.798559
O15	O	1.432385	0.215232	0.452956
O16	O	1.932385	0.715232	0.952956
O17	O	1.714867	0.452810	0.467982
O18	O	2.214867	0.952810	0.967982
O19	O	1.560781	0.215202	0.581324
O20	O	2.060781	0.715202	1.081324
O21	O	1.423639	0.350437	0.292082
O22	O	1.923639	0.850437	0.792082
O23	O	1.254275	0.350377	0.461478
O24	O	1.754275	0.850377	0.961478
O25	O	1.417179	0.452705	0.765726
O26	O	1.917179	0.952705	1.265726
O27	O	1.247720	0.452744	0.596303
O28	O	1.747720	0.952744	1.096303
O29	O	1.552130	0.350307	0.759269
O30	O	2.052130	0.850307	1.259269
O31	O	1.536757	0.587955	0.476504
O32	O	2.036757	1.087955	0.976504
O33	O	1.408433	0.587909	0.604852
O34	O	1.908433	1.087909	1.104852
C35	C	1.213080	0.401559	0.528888
C36	C	1.713080	0.901559	1.028888
C37	C	1.096926	0.401573	0.528905
C38	C	1.596926	0.901573	1.028905
C39	C	1.048414	0.350971	0.589326
C40	C	1.548414	0.850971	1.089326
C41	C	0.928363	0.350984	0.589345
C42	C	1.428363	0.850984	1.089345
C43	C	1.470677	0.618182	0.542611
C44	C	1.970677	1.118182	1.042611
C45	C	1.464820	0.710847	0.548508
C46	C	1.964820	1.210847	1.048508
C47	C	1.454135	0.880508	0.559295
C48	C	1.954135	1.380508	1.059295
C49	C	1.515082	0.921800	0.498464
C50	C	2.015082	1.421800	0.998464
C51	C	1.509137	1.016206	0.504466
C52	C	2.009137	1.516206	1.004466
C53	C	1.460079	0.786095	0.553294
C54	C	1.960079	1.286095	1.053294
C55	C	1.757158	0.401591	0.528931
C56	C	2.257158	0.901591	1.028931
C57	C	1.873311	0.401597	0.528940
C58	C	2.373311	0.901597	1.028940
C59	C	1.484665	0.401495	0.801474
C60	C	1.984665	0.901495	1.301474
C61	C	1.484698	0.401460	0.917625
C62	C	1.984698	0.901460	1.417625
C63	C	1.498547	1.184122	0.515157
C64	C	1.998547	1.684122	1.015157
C65	C	1.504400	1.091456	0.509248
C66	C	2.004400	1.591456	1.009248
C67	C	1.484577	0.401594	0.257400
C68	C	1.984577	0.901594	0.757400
C69	C	1.484762	0.401393	0.141235
C70	C	1.984762	0.901393	0.641235
C71	C	1.551483	0.350781	0.966214
C72	C	2.051483	0.850781	1.466214
C73	C	1.551518	0.350745	1.086262
C74	C	2.051518	0.850745	1.586262
H75	H	1.049581	0.444903	0.477189
H76	H	1.549581	0.944903	0.977189
H77	H	1.608631	0.307417	0.918938
H78	H	2.108631	0.807417	1.418938
O79	O	1.582563	0.879268	0.430971
O80	O	2.082563	1.379268	0.930971
C81	C	1.573560	0.793112	0.439934
C82	C	2.073560	1.293112	0.939934
H83	H	1.493624	0.781360	0.473366
H84	H	1.993624	1.281360	0.973366
H85	H	1.582722	0.759994	0.359597
H86	H	2.082722	1.259994	0.859597
H87	H	1.637052	0.768313	0.494082
H88	H	2.137052	1.268313	0.994082
H89	H	0.915035	0.444926	0.477215
H90	H	1.415035	0.944926	0.977215
H91	H	1.608699	0.307359	1.128060
H92	H	2.108699	0.807359	1.628060
O93	O	1.386580	0.923039	0.626703
O94	O	1.886580	1.423039	1.126703
C95	C	1.395623	1.009194	0.617767
C96	C	1.895623	1.509194	1.117767
H97	H	1.429175	1.021005	0.537889
H98	H	1.929175	1.521005	1.037889
H99	H	1.315293	1.042415	0.626842
H100	H	1.815293	1.542415	1.126842
H101	H	1.449711	1.033830	0.681341
H102	H	1.949711	1.533830	1.181341
O103	O	1.416688	0.453202	1.091271
O104	O	1.916688	0.953202	1.591271
C105	C	1.472765	0.507038	1.031562
C106	C	1.972765	1.007038	1.531562
H107	H	1.553863	0.477631	1.013471
H108	H	2.053863	0.977631	1.513471
H109	H	1.429536	0.518176	0.955464
H110	H	1.929536	1.018176	1.455464
H111	H	1.480241	0.568840	1.077467
H112	H	1.980241	1.068840	1.577467
H113	H	1.427540	0.444816	0.964901
H114	H	1.927540	0.944816	1.464901
H115	H	0.886632	0.307664	0.641077
H116	H	1.386632	0.807664	1.141077
O117	O	1.105043	0.299352	0.650994
O118	O	1.605043	0.799352	1.150994
C119	C	1.212302	0.310820	0.637232
C120	C	1.712302	0.810820	1.137232
H121	H	1.222965	0.375136	0.606928
H122	H	1.722965	0.875136	1.106928
H123	H	1.254253	0.305264	0.715123
H124	H	1.754253	0.805264	1.215123
H125	H	1.246421	0.261335	0.578520
H126	H	1.746421	0.761335	1.078520
