data_functionalizedCrystal
_audit_creation_method	'MofGen! by Chris Wilmer'
_symmetry_space_group_name_H-M	'P1'
_symmetry_Int_Tables_number	1
_symmetry_cell_setting	triclinic
loop_
_symmetry_equiv_pos_as_xyz
  x,y,z
_cell_length_a	16.959455
_cell_length_b	16.959454
_cell_length_c	16.959447
_cell_angle_alpha	89.979660
_cell_angle_beta	90.017850
_cell_angle_gamma	90.002390
loop_
_atom_site_label
_atom_site_type_symbol
_atom_site_fract_x
_atom_site_fract_y
_atom_site_fract_z
Zn1	Zn	-1.208499	-0.314776	-0.446983
Zn2	Zn	-1.208455	-0.446968	-0.314828
Zn3	Zn	-1.076321	-0.314796	-0.314818
Zn4	Zn	-1.076332	-0.446904	-0.446964
O5	O	-1.142402	-0.380861	-0.380898
O6	O	-1.319104	-0.332330	-0.429464
O7	O	-1.190905	-0.429470	-0.204216
O8	O	-1.093869	-0.204182	-0.332354
O9	O	-1.319072	-0.429451	-0.332370
O10	O	-1.190979	-0.204167	-0.429455
O11	O	-1.093826	-0.332364	-0.204209
O12	O	-0.965712	-0.332301	-0.332336
O13	O	-1.093887	-0.429342	-0.557578
O14	O	-0.965720	-0.429361	-0.429423
O15	O	-1.190989	-0.332267	-0.557592
O16	O	-1.190915	-0.557571	-0.332352
O17	O	-1.093844	-0.557523	-0.429432
C18	C	-0.937036	-0.380827	-0.380877
C19	C	-0.849179	-0.380831	-0.380887
C20	C	-1.142397	-0.586227	-0.380908
C21	C	-1.142468	-0.674084	-0.380939
C22	C	-1.142444	-0.380795	-0.587067
C23	C	-1.142462	-0.380767	-0.674923
C24	C	-0.477675	-0.330255	-0.330440
C25	C	-0.477732	-0.431481	-0.431381
C26	C	-0.560278	-0.431473	-0.431377
C27	C	-0.601526	-0.380856	-0.380904
C28	C	-0.560228	-0.330247	-0.330434
C29	C	-0.601581	-0.482086	-0.481841
C30	C	-0.684132	-0.482080	-0.481839
C31	C	-0.725382	-0.431459	-0.431368
C32	C	-0.684080	-0.380848	-0.380897
C33	C	-0.725328	-0.330231	-0.330423
C34	C	-0.684027	-0.279615	-0.279955
C35	C	-0.601478	-0.279626	-0.279963
C36	C	-0.807931	-0.431448	-0.431360
C37	C	-0.807881	-0.330223	-0.330417
C38	C	-0.348570	-0.380886	-0.380916
C39	C	-0.436427	-0.380872	-0.380914
C40	C	-1.142428	-0.174693	-0.380906
C41	C	-1.142439	-0.086836	-0.380909
C42	C	-1.193006	-0.045553	-0.431465
C43	C	-1.091878	-0.045566	-0.330360
C44	C	-1.091883	0.036980	-0.330364
C45	C	-1.142450	0.078263	-0.380920
C46	C	-1.193012	0.037001	-0.431473
C47	C	-1.041318	0.078249	-0.279818
C48	C	-1.041321	0.160800	-0.279821
C49	C	-1.091892	0.202085	-0.330374
C50	C	-1.142456	0.160817	-0.380928
C51	C	-1.193023	0.202100	-0.431484
C52	C	-1.243592	0.160834	-0.482034
C53	C	-1.243583	0.078285	-0.482025
C54	C	-1.091901	0.284633	-0.330383
C55	C	-1.193029	0.284654	-0.431491
C56	C	-1.091988	-0.330125	-1.046402
C57	C	-1.193076	-0.431243	-1.046396
C58	C	-1.193062	-0.431261	-0.963851
C59	C	-1.142510	-0.380712	-0.922576
C60	C	-1.091971	-0.330143	-0.963848
C61	C	-1.243594	-0.481834	-0.922572
C62	C	-1.243582	-0.481855	-0.840021
C63	C	-1.193033	-0.431301	-0.798746
C64	C	-1.142493	-0.380730	-0.840023
C65	C	-1.091940	-0.330180	-0.798749
C66	C	-1.041403	-0.279605	-0.840024
C67	C	-1.041422	-0.279589	-0.922573
C68	C	-1.193015	-0.431317	-0.716197
C69	C	-1.091923	-0.330199	-0.716195
C70	C	-1.142405	-0.380869	-0.175532
C71	C	-1.142540	-0.380675	-0.087676
H72	H	-0.717622	-0.238406	-0.238856
C73	C	-1.377448	0.186258	-0.520554
C74	C	-1.299172	0.206214	-0.537610
H75	H	-1.411757	0.214272	-0.554869
H76	H	-1.388997	0.199778	-0.467455
H77	H	-1.384678	0.131188	-0.527785
H78	H	-1.291941	0.261283	-0.530374
H79	H	-1.287620	0.192699	-0.590722
C80	C	-0.996424	0.287331	-0.234934
C81	C	-0.985741	0.206157	-0.224255
H82	H	-0.962108	0.315332	-0.200631
H83	H	-1.049524	0.300844	-0.223367
H84	H	-0.984870	0.300870	-0.288045
H85	H	-0.997301	0.192617	-0.171145
H86	H	-0.932629	0.192639	-0.235817
C87	C	-1.053336	-0.071008	-0.196514
C88	C	-1.036293	-0.090938	-0.274790
H89	H	-1.019014	-0.099018	-0.162207
H90	H	-1.106433	-0.084554	-0.184954
H91	H	-1.046104	-0.015938	-0.189293
H92	H	-1.043530	-0.146008	-0.282013
H93	H	-0.983183	-0.077398	-0.286354
C94	C	-1.288465	-0.048249	-0.526915
C95	C	-1.299157	0.032924	-0.537594
H96	H	-1.322769	-0.076253	-0.561226
H97	H	-1.300022	-0.061790	-0.473813
H98	H	-1.235354	-0.061755	-0.538478
H99	H	-1.352267	0.046431	-0.526025
H100	H	-1.287606	0.046471	-0.590708
H101	H	-1.284743	-0.522998	-0.956184
C102	C	-0.799691	-0.531508	-0.531133
C103	C	-0.853329	-0.487077	-0.486831
H104	H	-0.827719	-0.565848	-0.565384
H105	H	-0.767490	-0.561703	-0.496646
H106	H	-0.767496	-0.497104	-0.561423
H107	H	-0.885520	-0.521481	-0.456537
H108	H	-0.885543	-0.456880	-0.521322
H109	H	-1.000146	0.044630	-0.238660
C110	C	-0.991999	-0.230245	-0.724493
C111	C	-1.036350	-0.274634	-0.670830
H112	H	-0.957687	-0.195947	-0.696485
H113	H	-1.026450	-0.200008	-0.756692
H114	H	-0.961770	-0.264679	-0.756688
H115	H	-1.066583	-0.240201	-0.638638
H116	H	-1.001895	-0.304874	-0.638617
C117	C	-0.996560	-0.234669	-1.049115
C118	C	-0.985872	-0.224004	-0.967944
H119	H	-0.962261	-0.200357	-1.077126
H120	H	-1.049666	-0.223106	-1.062646
H121	H	-0.984986	-0.287776	-1.062623
H122	H	-0.997451	-0.170898	-0.954435
H123	H	-0.932753	-0.235561	-0.954407
C124	C	-1.237976	-0.476117	-1.172935
C125	C	-1.248637	-0.486809	-1.091763
H126	H	-1.272283	-0.510421	-1.200943
H127	H	-1.184874	-0.487673	-1.186446
H128	H	-1.249556	-0.423006	-1.186467
H129	H	-1.237051	-0.539919	-1.078230
H130	H	-1.301752	-0.475259	-1.078246
H131	H	-0.717753	-0.523294	-0.522933
H132	H	-1.284732	-0.523038	-0.806422
C133	C	-1.231568	0.310099	-0.565343
C134	C	-1.248611	0.330032	-0.487067
H135	H	-1.265880	0.338118	-0.599652
H136	H	-1.238808	0.255037	-0.572564
H137	H	-1.178461	0.323637	-0.576900
H138	H	-1.301717	0.316488	-0.475508
H139	H	-1.241379	0.385106	-0.479842
C140	C	-1.292925	-0.531277	-0.724488
C141	C	-1.248555	-0.486907	-0.670828
H142	H	-1.327217	-0.565595	-0.696477
H143	H	-1.258484	-0.561492	-0.756675
H144	H	-1.323174	-0.496832	-0.756694
H145	H	-1.218301	-0.521352	-0.638625
H146	H	-1.283000	-0.456690	-0.638627
H147	H	-0.841460	-0.288999	-0.289319
H148	H	-0.567844	-0.238418	-0.238874
H149	H	-1.050725	0.318229	-0.289229
C150	C	-0.452208	-0.291581	-0.196658
C151	C	-0.432283	-0.274620	-0.274966
H152	H	-0.424187	-0.257230	-0.162413
H153	H	-0.438673	-0.344669	-0.185012
H154	H	-0.507276	-0.284335	-0.189441
H155	H	-0.377215	-0.281872	-0.282185
H156	H	-0.445812	-0.221520	-0.286616
H157	H	-0.567991	-0.523301	-0.522928
C158	C	-0.351216	-0.476437	-0.476206
C159	C	-0.432394	-0.487117	-0.486859
H160	H	-0.323226	-0.510782	-0.510463
H161	H	-0.337676	-0.487945	-0.423087
H162	H	-0.337692	-0.423341	-0.487858
H163	H	-0.445919	-0.540211	-0.475202
H164	H	-0.445939	-0.475614	-0.539991
H165	H	-1.234180	-0.079156	-0.472620
H166	H	-1.050844	-0.288945	-1.080012
H167	H	-1.000240	-0.238451	-0.806408
