data_functionalizedCrystal
_audit_creation_method	'MofGen! by Chris Wilmer'
_symmetry_space_group_name_H-M	'P1'
_symmetry_Int_Tables_number	1
_symmetry_cell_setting	triclinic
loop_
_symmetry_equiv_pos_as_xyz
  x,y,z
_cell_length_a	21.295418
_cell_length_b	18.050589
_cell_length_c	18.050582
_cell_angle_alpha	89.981795
_cell_angle_beta	90.034107
_cell_angle_gamma	89.955964
loop_
_atom_site_label
_atom_site_type_symbol
_atom_site_fract_x
_atom_site_fract_y
_atom_site_fract_z
Zn1	Zn	0.962306	0.295393	0.420315
Zn2	Zn	0.962230	0.419576	0.296135
Zn3	Zn	0.857047	0.295439	0.296098
Zn4	Zn	0.857003	0.419580	0.420242
O5	O	0.909646	0.357497	0.358197
O6	O	1.050385	0.311846	0.403889
O7	O	0.948264	0.403127	0.192205
O8	O	0.871060	0.191508	0.312591
O9	O	1.050330	0.403083	0.312654
O10	O	0.948393	0.191475	0.403853
O11	O	0.870986	0.311924	0.192178
O12	O	0.768952	0.311927	0.312520
O13	O	0.870985	0.403089	0.524176
O14	O	0.768919	0.403133	0.403727
O15	O	0.948350	0.311849	0.524230
O16	O	0.948221	0.523502	0.312582
O17	O	0.870911	0.523504	0.403763
C18	C	0.746095	0.357536	0.358112
C19	C	0.676127	0.357571	0.358093
C20	C	0.909570	0.550449	0.358185
C21	C	0.909596	0.632995	0.358205
C22	C	0.909671	0.357464	0.551903
C23	C	0.909682	0.357450	0.634449
C24	C	0.643260	0.405125	0.405514
C25	C	0.577517	0.405106	0.405547
C26	C	0.544644	0.357542	0.358146
C27	C	0.577519	0.309979	0.310722
C28	C	0.643260	0.309993	0.310695
N29	N	0.441377	0.351735	0.293191
N30	N	0.378926	0.351726	0.293218
C31	C	0.346570	0.357495	0.358225
N32	N	0.379024	0.363288	0.423205
N33	N	0.441481	0.363301	0.423177
C34	C	0.473359	0.357521	0.358170
C35	C	0.242417	0.405031	0.405686
C36	C	0.176673	0.405008	0.405721
C37	C	0.176677	0.309884	0.310889
C38	C	0.242419	0.309904	0.310861
C39	C	0.275285	0.357481	0.358259
C40	C	1.073837	0.357459	0.358284
C41	C	1.143805	0.357442	0.358320
C42	C	0.909740	0.163792	0.358226
C43	C	0.909780	0.081246	0.358238
C44	C	0.867596	0.832474	0.407771
C45	C	0.852255	0.881913	0.339998
C46	C	0.909657	0.784125	0.358214
C47	C	0.925029	0.881768	0.425995
C48	C	0.909716	0.930111	0.358230
C49	C	0.894287	0.832477	0.290405
C50	C	0.967087	0.832328	0.376448
C51	C	0.951768	0.881745	0.308628
C52	C	0.909622	0.700027	0.358206
C53	C	0.909751	1.014207	0.358230
C54	C	0.909658	0.357476	0.165245
C55	C	0.909770	0.357281	0.082700
C56	C	0.867642	0.406999	0.833870
C57	C	0.925074	0.425133	0.883286
C58	C	0.909713	0.357394	0.785579
C59	C	0.852313	0.339238	0.883246
C60	C	0.909738	0.357340	0.931565
C61	C	0.967174	0.375564	0.833908
C62	C	0.894375	0.289637	0.833863
C63	C	0.951846	0.307746	0.883256
C64	C	0.909697	0.357426	0.701481
C65	C	0.909759	0.357307	1.015661
H66	H	0.550752	0.443830	0.444166
O67	O	0.878790	0.221385	0.807847
C68	C	0.824296	0.226809	0.763772
H69	H	0.819351	0.285868	0.742138
H70	H	0.781387	0.212048	0.798492
C71	C	0.835485	0.100356	0.724519
C72	C	0.829415	0.172893	0.697943
H73	H	0.838641	0.067096	0.683915
H74	H	0.872198	0.096701	0.754216
H75	H	0.799726	0.088066	0.753453
H76	H	0.865177	0.185185	0.669018
H77	H	0.792708	0.176549	0.668240
O78	O	0.994296	0.257675	0.909089
C79	C	0.993498	0.257773	0.987193
H80	H	0.946396	0.279872	1.007506
H81	H	1.032898	0.294654	1.008785
C82	C	1.060879	0.151065	0.990956
C83	C	1.003027	0.178202	1.015905
H84	H	1.066760	0.101983	1.008668
H85	H	1.061420	0.151000	0.938336
H86	H	1.093706	0.181806	1.008951
H87	H	0.970201	0.147466	0.997902
H88	H	1.002481	0.178260	1.068523
H89	H	0.881253	0.810915	0.233074
O90	O	0.825160	0.457058	0.808084
C91	C	0.764822	0.438522	0.834285
H92	H	0.769332	0.403582	0.886642
H93	H	0.738699	0.405641	0.790046
C94	C	0.722570	0.552805	0.787638
C95	C	0.728109	0.509895	0.851946
H96	H	0.699921	0.596830	0.798529
H97	H	0.763220	0.565292	0.769982
H98	H	0.700802	0.525396	0.750777
H99	H	0.749882	0.537301	0.888802
H100	H	0.687461	0.497414	0.869608
O101	O	0.940465	0.493507	0.909156
C102	C	0.895990	0.545671	0.883983
H103	H	0.850166	0.516153	0.870100
H104	H	0.914689	0.574515	0.832320
C105	C	0.940333	0.639818	0.962077
C106	C	0.884049	0.603564	0.945032
H107	H	0.932969	0.675531	0.999733
H108	H	0.970299	0.604675	0.979035
H109	H	0.955910	0.663848	0.919020
H110	H	0.868478	0.579527	0.988086
H111	H	0.854081	0.638704	0.928083
H112	H	1.015741	0.390962	0.812325
H113	H	0.803760	0.323905	0.904919
H114	H	0.550750	0.271251	0.272129
O115	O	0.675155	0.451256	0.451668
C116	C	0.659145	0.435136	0.525717
H117	H	0.641125	0.375808	0.529573
H118	H	0.620966	0.474969	0.545073
C119	C	0.739705	0.516730	0.570512
C120	C	0.717578	0.443860	0.575249
H121	H	0.775748	0.522114	0.601068
H122	H	0.750490	0.527593	0.520624
H123	H	0.707884	0.549916	0.586641
H124	H	0.749397	0.410676	0.559112
H125	H	0.706800	0.432991	0.625136
O126	O	0.675093	0.263778	0.264554
C127	C	0.631985	0.221774	0.222738
H128	H	0.585094	0.252175	0.220136
H129	H	0.625065	0.165407	0.250032
C130	C	0.715180	0.173631	0.146900
C131	C	0.657588	0.210973	0.143699
H132	H	0.730973	0.166965	0.098146
H133	H	0.744223	0.201927	0.175074
H134	H	0.709405	0.126662	0.169649
H135	H	0.663365	0.257944	0.120959
H136	H	0.628546	0.182684	0.115519
O137	O	1.024960	0.806355	0.394996
C138	C	1.040961	0.831439	0.466518
H139	H	0.996341	0.845364	0.498493
H140	H	1.071524	0.883058	0.461882
C141	C	1.132232	0.753200	0.468442
C142	C	1.077429	0.770296	0.507716
H143	H	1.154730	0.715486	0.493854
H144	H	1.121454	0.736302	0.420255
H145	H	1.157694	0.796220	0.464581
H146	H	1.051965	0.727278	0.511569
H147	H	1.088204	0.787185	0.555905
O148	O	0.274251	0.451261	0.451803
C149	C	0.231140	0.493238	0.493661
H150	H	0.184304	0.462811	0.496302
H151	H	0.224079	0.549604	0.466376
C152	C	0.314377	0.541422	0.569428
C153	C	0.256854	0.504049	0.572677
H154	H	0.330239	0.548094	0.618168
H155	H	0.343422	0.513144	0.541227
H156	H	0.308485	0.588390	0.546688
H157	H	0.262748	0.457079	0.595409
H158	H	0.227811	0.532319	0.600885
H159	H	0.149914	0.443730	0.444341
H160	H	0.831973	0.810839	0.449621
O161	O	0.144654	0.263767	0.264849
C162	C	0.079581	0.273945	0.275046
H163	H	0.070579	0.331280	0.299299
H164	H	0.060980	0.229930	0.314652
C165	C	0.056840	0.196650	0.170130
C166	C	0.045784	0.267072	0.199913
H167	H	0.035992	0.192407	0.123787
H168	H	0.100682	0.189791	0.163262
H169	H	0.041340	0.159979	0.203143
H170	H	0.061292	0.303741	0.166905
H171	H	0.001944	0.273938	0.206774
O172	O	0.274321	0.263794	0.264683
C173	C	0.258171	0.279907	0.190645
H174	H	0.240048	0.339226	0.186803
H175	H	0.220028	0.240055	0.171317
C176	C	0.338797	0.198351	0.145791
C177	C	0.316543	0.271211	0.141071
H178	H	0.374803	0.192984	0.115210
H179	H	0.349676	0.187493	0.195672
H180	H	0.307006	0.165150	0.129685
H181	H	0.348332	0.304410	0.157185
H182	H	0.305671	0.282074	0.091192
O183	O	0.794309	0.907864	0.321722
C184	C	0.750070	0.882752	0.374088
H185	H	0.775068	0.868833	0.428200
H186	H	0.725627	0.831124	0.351960
C187	C	0.670296	0.960958	0.321624
C188	C	0.700998	0.943869	0.388087
H189	H	0.640024	0.998656	0.330257
H190	H	0.700100	0.977875	0.286342
H191	H	0.649932	0.917930	0.303190
H192	H	0.721368	0.986894	0.406515
H193	H	0.671197	0.926960	0.423373
O194	O	0.994225	0.907525	0.258640
C195	C	0.994139	0.985629	0.259609
H196	H	0.975394	1.005961	0.315148
H197	H	0.962887	1.007262	0.213074
C198	C	1.084604	0.989285	0.180288
C199	C	1.061587	1.014257	0.248505
H200	H	1.126208	1.006946	0.173435
H201	H	1.084661	0.936665	0.179633
H202	H	1.058555	1.007315	0.141517
H203	H	1.087631	0.996220	0.287275
H204	H	1.061536	1.066875	0.249166
O205	O	0.940441	0.907511	0.494426
C206	C	0.895930	0.882423	0.546482
H207	H	0.871943	0.830467	0.524436
H208	H	0.859282	0.927461	0.556146
C209	C	0.958679	0.928177	0.647147
C210	C	0.929221	0.864360	0.620072
H211	H	0.979213	0.917038	0.692543
H212	H	0.988666	0.945082	0.612077
H213	H	0.928133	0.965702	0.655194
H214	H	0.959767	0.826839	0.612017
H215	H	0.899239	0.847448	0.655143
