data_functionalizedCrystal
_audit_creation_method	'MofGen! by Chris Wilmer'
_symmetry_space_group_name_H-M	'P1'
_symmetry_Int_Tables_number	1
_symmetry_cell_setting	triclinic
loop_
_symmetry_equiv_pos_as_xyz
  x,y,z
_cell_length_a	25.639242
_cell_length_b	12.759400
_cell_length_c	25.639233
_cell_angle_alpha	89.986745
_cell_angle_beta	90.022166
_cell_angle_gamma	89.989788
loop_
_atom_site_label
_atom_site_type_symbol
_atom_site_fract_x
_atom_site_fract_y
_atom_site_fract_z
Zn1	Zn	0.799312	0.418519	0.295762
Zn2	Zn	1.299312	0.918519	0.795762
Zn3	Zn	0.799272	0.594182	0.208335
Zn4	Zn	1.299272	1.094182	0.708335
Zn5	Zn	0.711889	0.418504	0.208326
Zn6	Zn	1.211889	0.918504	0.708326
Zn7	Zn	0.711870	0.594143	0.295725
Zn8	Zn	1.211870	1.094143	0.795725
O9	O	0.755586	0.506337	0.252037
O10	O	1.255586	1.006337	0.752037
O11	O	0.872472	0.441844	0.284184
O12	O	1.372472	0.941844	0.784184
O13	O	0.787672	0.570888	0.135169
O14	O	1.287672	1.070888	0.635169
O15	O	0.723510	0.271485	0.219937
O16	O	1.223510	0.771485	0.719937
O17	O	0.872443	0.570903	0.219952
O18	O	1.372443	1.070903	0.719952
O19	O	0.787740	0.271496	0.284176
O20	O	1.287740	0.771496	0.784176
O21	O	0.723471	0.441818	0.135162
O22	O	1.223471	0.941818	0.635162
O23	O	0.638721	0.441780	0.219901
O24	O	1.138721	0.941780	0.719901
O25	O	0.723479	0.570836	0.368895
O26	O	1.223479	1.070836	0.868895
O27	O	0.638708	0.570822	0.284112
O28	O	1.138708	1.070822	0.784112
O29	O	0.787722	0.441806	0.368922
O30	O	1.287722	0.941806	0.868922
O31	O	0.787654	0.741198	0.219915
O32	O	1.287654	1.241198	0.719915
O33	O	0.723440	0.741169	0.284120
O34	O	1.223440	1.241169	0.784120
C35	C	0.755555	0.779305	0.252026
C36	C	1.255555	1.279305	0.752026
C37	C	0.755589	0.896081	0.252039
C38	C	1.255589	1.396081	0.752039
C39	C	0.619743	0.506296	0.252002
C40	C	1.119743	1.006296	0.752002
C41	C	0.561629	0.506303	0.251999
C42	C	1.061629	1.006303	0.751999
C43	C	0.755603	0.506319	0.388410
C44	C	1.255603	1.006319	0.888410
C45	C	0.755610	0.506311	0.446524
C46	C	1.255610	1.006311	0.946524
C47	C	0.201268	0.573641	0.285440
C48	C	0.701268	1.073641	0.785440
C49	C	0.146664	0.573648	0.285448
C50	C	0.646664	1.073648	0.785448
O51	O	0.118429	0.630849	0.313852
O52	O	0.618429	1.130849	0.813852
N53	N	0.119347	0.506366	0.252071
N54	N	0.619347	1.006366	0.752071
C55	C	0.146637	0.439066	0.218687
C56	C	0.646637	0.939066	0.718687
O57	O	0.118388	0.381838	0.190298
O58	O	0.618388	0.881838	0.690298
C59	C	0.201240	0.439055	0.218682
C60	C	0.701240	0.939055	0.718682
C61	C	0.228554	0.506349	0.252058
C62	C	0.728554	1.006349	0.752058
C63	C	0.228582	0.640929	0.318814
C64	C	0.728582	1.140929	0.818814
C65	C	0.283183	0.640923	0.318805
C66	C	0.783183	1.140923	0.818805
C67	C	0.310469	0.573631	0.285422
C68	C	0.810469	1.073631	0.785422
C69	C	0.283155	0.506344	0.252049
C70	C	0.783155	1.006344	0.752049
C71	C	0.228529	0.371751	0.185301
C72	C	0.728529	0.871751	0.685301
C73	C	0.283136	0.371745	0.185299
C74	C	0.783136	0.871745	0.685299
C75	C	0.310451	0.439039	0.218675
C76	C	0.810451	0.939039	0.718675
C77	C	0.365042	0.439046	0.218657
C78	C	0.865042	0.939046	0.718657
N79	N	0.392359	0.506327	0.252034
N80	N	0.892359	1.006327	0.752034
C81	C	0.365073	0.573620	0.285417
C82	C	0.865073	1.073620	0.785417
C83	C	0.031966	0.439093	0.218701
C84	C	0.531966	0.939093	0.718701
C85	C	-0.022636	0.439109	0.218704
C86	C	0.477364	0.939109	0.718704
C87	C	-0.022605	0.573689	0.285466
C88	C	0.477395	1.073689	0.785466
C89	C	0.031998	0.573678	0.285460
C90	C	0.531998	1.073678	0.785460
C91	C	0.059283	0.506375	0.252079
C92	C	0.559283	1.006375	0.752079
C93	C	0.479738	0.573604	0.285395
C94	C	0.979738	1.073604	0.785395
C95	C	0.534343	0.573596	0.285381
C96	C	1.034343	1.073596	0.785381
C97	C	0.534308	0.439012	0.218621
C98	C	1.034308	0.939012	0.718621
C99	C	0.479707	0.439024	0.218633
C100	C	0.979707	0.939024	0.718633
C101	C	0.452423	0.506323	0.252024
C102	C	0.952423	1.006323	0.752024
O103	O	0.393312	0.381870	0.190270
O104	O	0.893312	0.881870	0.690270
O105	O	0.393328	0.630829	0.313806
O106	O	0.893328	1.130829	0.813806
C107	C	0.891959	0.506380	0.252073
C108	C	1.391959	1.006380	0.752073
C109	C	0.950073	0.506398	0.252088
C110	C	1.450073	1.006398	0.752088
C111	C	0.755631	0.232304	0.252059
C112	C	1.255631	0.732304	0.752059
C113	C	0.755651	0.115527	0.252069
C114	C	1.255651	0.615527	0.752069
C115	C	0.789063	0.950923	0.218644
C116	C	1.289063	1.450923	0.718644
C117	C	0.789095	1.060647	0.218661
C118	C	1.289095	1.560647	0.718661
C119	C	0.722176	1.060678	0.285467
C120	C	1.222176	1.560678	0.785467
C121	C	0.722147	0.950956	0.285453
C122	C	1.222147	1.450956	0.785453
C123	C	0.822505	0.896049	0.185230
C124	C	1.322505	1.396049	0.685230
C125	C	0.855981	0.950891	0.151832
C126	C	1.355981	1.450891	0.651832
C127	C	0.856013	1.060615	0.151848
C128	C	1.356013	1.560615	0.651848
C129	C	0.822570	1.115497	0.185262
C130	C	1.322570	1.615497	0.685262
C131	C	0.755599	0.506280	0.116195
C132	C	1.255599	1.006280	0.616195
C133	C	0.755693	0.505992	0.058081
C134	C	1.255693	1.005992	0.558081
C135	C	0.789104	0.438925	0.806907
C136	C	1.289104	0.938925	1.306907
C137	C	0.789110	0.438896	0.861512
C138	C	1.289110	0.938896	1.361512
O139	O	0.817546	0.381727	0.889765
O140	O	1.317546	0.881727	1.389765
N141	N	0.755668	0.506065	0.888807
N142	N	1.255668	1.006065	1.388807
C143	C	0.722212	0.573259	0.861495
C144	C	1.222212	1.073259	1.361495
O145	O	0.693767	0.630387	0.889726
O146	O	1.193767	1.130387	1.389726
C147	C	0.722204	0.573282	0.806892
C148	C	1.222204	1.073282	1.306892
C149	C	0.755652	0.506117	0.779599
C150	C	1.255652	1.006117	1.279599
C151	C	0.822549	0.371765	0.779615
C152	C	1.322549	0.871765	1.279615
C153	C	0.822543	0.371796	0.725014
C154	C	1.322543	0.871796	1.225014
C155	C	0.789092	0.438987	0.697706
C156	C	1.289092	0.938987	1.197706
C157	C	0.755647	0.506147	0.724999
C158	C	1.255647	1.006147	1.224999
C159	C	0.688746	0.640470	0.779581
C160	C	1.188746	1.140470	1.279581
C161	C	0.688740	0.640487	0.724974
C162	C	1.188740	1.140487	1.224974
C163	C	0.722189	0.573321	0.697681
C164	C	1.222189	1.073321	1.197681
C165	C	0.722189	0.573369	0.643090
C166	C	1.222189	1.073369	1.143090
N167	N	0.755632	0.506201	0.615795
N168	N	1.255632	1.006201	1.115795
C169	C	0.789083	0.439010	0.643103
C170	C	1.289083	0.939010	1.143103
C171	C	0.722233	0.573204	0.976166
C172	C	1.222233	1.073204	1.476166
C173	C	0.722244	0.573187	1.030768
C174	C	1.222244	1.073187	1.530768
C175	C	0.789141	0.438823	1.030781
C176	C	1.289141	0.938823	1.530781
C177	C	0.789132	0.438846	0.976178
C178	C	1.289132	0.938846	1.476178
C179	C	0.755675	0.506036	0.948870
C180	C	1.255675	1.006036	1.448870
C181	C	0.789069	0.439080	0.528438
C182	C	1.289069	0.939080	1.028438
C183	C	0.789061	0.439120	0.473832
C184	C	1.289061	0.939120	0.973832
C185	C	0.722162	0.573480	0.473824
C186	C	1.222162	1.073480	0.973824
C187	C	0.722171	0.573444	0.528425
C188	C	1.222171	1.073444	1.028425
C189	C	0.755626	0.506236	0.555730
C190	C	1.255626	1.006236	1.055730
O191	O	0.693767	0.630507	0.614802
O192	O	1.193767	1.130507	1.114802
O193	O	0.817519	0.381881	0.614866
O194	O	1.317519	0.881881	1.114866
H195	H	0.556580	0.628398	0.312560
H196	H	1.056580	1.128398	0.812560
H197	H	0.457530	0.628403	0.312586
H198	H	0.957530	1.128403	0.812586
H199	H	0.694890	0.906303	0.312647
H200	H	1.194890	1.406303	0.812647
C201	C	-0.052627	0.647701	0.322191
C202	C	0.447373	1.147701	0.822191
H203	H	-0.089058	0.638056	0.317415
H204	H	0.410942	1.138056	0.817415
H205	H	-0.043690	0.718271	0.314483
H206	H	0.456310	1.218271	0.814483
H207	H	-0.043661	0.632416	0.357334
H208	H	0.456339	1.132416	0.857334
H209	H	0.849780	0.317101	0.702798
H210	H	1.349780	0.817101	1.202798
C211	C	0.822473	0.775357	0.185213
C212	C	1.322473	1.275357	0.685213
H213	H	0.847186	0.750528	0.160533
H214	H	1.347186	1.250528	0.660533
H215	H	0.788732	0.750594	0.176136
H216	H	1.288732	1.250594	0.676136
H217	H	0.831491	0.750490	0.218960
H218	H	1.331491	1.250490	0.718960
C219	C	-0.052676	0.365093	0.181987
C220	C	0.447324	0.865093	0.681987
H221	H	-0.028600	0.325013	0.162109
H222	H	0.471400	0.825013	0.662109
H223	H	-0.073992	0.405209	0.159173
H224	H	0.426008	0.905209	0.659173
H225	H	-0.073961	0.319370	0.202032
H226	H	0.426039	0.819370	0.702032
H227	H	0.661490	0.695191	0.702743
H228	H	1.161490	1.195191	1.202743
H229	H	0.816301	0.384425	0.451613
H230	H	1.316301	0.884425	0.951613
H231	H	0.849790	0.317044	0.801843
H232	H	1.349790	0.817044	1.301843
C233	C	0.198493	0.297704	0.148600
C234	C	0.698493	0.797704	0.648600
H235	H	0.162064	0.307334	0.153380
H236	H	0.662064	0.807334	0.653380
H237	H	0.207460	0.227147	0.156326
H238	H	0.707460	0.727147	0.656326
H239	H	0.207421	0.312956	0.113452
H240	H	0.707421	0.812956	0.613452
H241	H	0.694929	0.628188	0.451580
H242	H	1.194929	1.128188	0.951580
H243	H	0.822603	1.204842	0.185277
H244	H	1.322603	1.704842	0.685277
H245	H	0.816309	0.384349	0.550663
H246	H	1.316309	0.884349	1.050663
C247	C	0.685383	0.647330	0.558447
C248	C	1.185383	1.147330	1.058447
H249	H	0.665459	0.687348	0.534361
H250	H	1.165459	1.187348	1.034361
H251	H	0.705375	0.693099	0.579758
H252	H	1.205375	1.193099	1.079758
H253	H	0.662607	0.607113	0.579737
H254	H	1.162607	1.107113	1.079737
C255	C	0.313147	0.297709	0.148578
C256	C	0.813147	0.797709	0.648578
H257	H	0.289056	0.257642	0.128702
H258	H	0.789056	0.757642	0.628702
H259	H	0.334461	0.251991	0.168615
H260	H	0.834461	0.751991	0.668615
H261	H	0.334433	0.337828	0.125755
H262	H	0.834433	0.837828	0.625755
C263	C	0.061976	0.365067	0.181973
C264	C	0.561976	0.865067	0.681973
H265	H	0.037883	0.325010	0.162094
H266	H	0.537883	0.825010	0.662094
H267	H	0.083289	0.319340	0.202005
H268	H	0.583289	0.819340	0.702005
H269	H	0.083261	0.405191	0.159152
H270	H	0.583261	0.905191	0.659152
H271	H	0.694947	1.105371	0.312671
H272	H	1.194947	1.605371	0.812671
C273	C	0.198576	0.714959	0.355537
C274	C	0.698576	1.214959	0.855537
H275	H	0.222671	0.755028	0.375407
H276	H	0.722671	1.255028	0.875407
H277	H	0.177286	0.674853	0.378358
H278	H	0.677286	1.174853	0.878358
H279	H	0.177266	0.760690	0.335498
H280	H	0.677266	1.260690	0.835498
C281	C	0.313224	0.714962	0.355509
C282	C	0.813224	1.214962	0.855509
H283	H	0.349653	0.705342	0.350722
H284	H	0.849653	1.205342	0.850722
H285	H	0.304297	0.699713	0.390655
H286	H	0.804297	1.199713	0.890655
H287	H	0.304259	0.785525	0.347782
H288	H	0.804259	1.285525	0.847782
C289	C	0.825919	0.364954	0.946161
C290	C	1.325919	0.864954	1.446161
H291	H	0.845839	0.324933	0.970250
H292	H	1.345839	0.824933	1.470250
H293	H	0.848692	0.405149	0.924862
H294	H	1.348692	0.905149	1.424862
H295	H	0.805919	0.319172	0.924860
H296	H	1.305919	0.819172	1.424860
C297	C	0.825939	0.364916	1.060827
C298	C	1.325939	0.864916	1.560827
H299	H	0.821148	0.374522	1.097255
H300	H	1.321148	0.874522	1.597255
H301	H	0.861064	0.380308	1.051888
H302	H	1.361064	0.880308	1.551888
H303	H	0.818297	0.294320	1.051880
H304	H	1.318297	0.794320	1.551880
C305	C	0.685454	0.647076	1.060784
C306	C	1.185454	1.147076	1.560784
H307	H	0.665530	0.687088	1.036695
H308	H	1.165530	1.187088	1.536695
H309	H	0.705446	0.692851	1.082092
H310	H	1.205446	1.192851	1.582092
H311	H	0.662678	0.606863	1.082076
H312	H	1.162678	1.106863	1.582076
H313	H	0.694988	0.627924	0.953935
H314	H	1.194988	1.127924	1.453935
C315	C	0.062039	0.647692	0.322177
C316	C	0.562039	1.147692	0.822177
H317	H	0.037963	0.687762	0.342060
H318	H	0.537963	1.187762	0.842060
H319	H	0.083330	0.693407	0.302140
H320	H	0.583330	1.193407	0.802140
H321	H	0.083349	0.607559	0.344995
H322	H	0.583349	1.107559	0.844995
H323	H	0.457467	0.384230	0.191455
H324	H	0.957467	0.884230	0.691455
C325	C	0.564329	0.364991	0.181906
C326	C	1.064329	0.864991	0.681906
H327	H	0.600760	0.374623	0.186688
H328	H	1.100760	0.874623	0.686688
H329	H	0.555366	0.380250	0.146762
H330	H	1.055366	0.880250	0.646762
H331	H	0.555390	0.294422	0.189627
H332	H	1.055390	0.794422	0.689627
H333	H	0.883213	0.906201	0.124631
H334	H	1.383213	1.406201	0.624631
C335	C	0.892834	1.120939	0.115114
C336	C	1.392834	1.620939	0.615114
H337	H	0.912743	1.072540	0.095211
H338	H	1.412743	1.572540	0.595211
H339	H	0.915615	1.163689	0.135141
H340	H	1.415615	1.663689	0.635141
H341	H	0.872856	1.163792	0.092317
H342	H	1.372856	1.663792	0.592317
C343	C	0.651947	0.714343	0.809590
C344	C	1.151947	1.214343	1.309590
H345	H	0.632022	0.754346	0.785499
H346	H	1.132022	1.254346	1.285499
H347	H	0.671933	0.760128	0.830899
H348	H	1.171933	1.260128	1.330899
H349	H	0.629174	0.674124	0.830881
H350	H	1.129174	1.174124	1.330881
