data_functionalizedCrystal
_audit_creation_method	'MofGen! by Chris Wilmer'
_symmetry_space_group_name_H-M	'P1'
_symmetry_Int_Tables_number	1
_symmetry_cell_setting	triclinic
loop_
_symmetry_equiv_pos_as_xyz
  x,y,z
_cell_length_a	16.176319
_cell_length_b	19.288864
_cell_length_c	19.288857
_cell_angle_alpha	83.134677
_cell_angle_beta	90.004272
_cell_angle_gamma	89.982449
loop_
_atom_site_label
_atom_site_type_symbol
_atom_site_fract_x
_atom_site_fract_y
_atom_site_fract_z
O1	O	0.069016	-0.921346	-0.086637
O2	O	0.402349	-0.588013	0.246697
O3	O	0.735682	-0.254680	0.580030
O4	O	0.068959	-0.719085	-0.098325
O5	O	0.402293	-0.385752	0.235008
O6	O	0.735626	-0.052419	0.568341
O7	O	0.068979	-0.826063	0.008650
O8	O	0.402313	-0.492730	0.341983
O9	O	0.735646	-0.159396	0.675316
O10	O	0.068996	-0.814369	-0.193612
O11	O	0.402329	-0.481035	0.139722
O12	O	0.735662	-0.147702	0.473055
O13	O	-0.068514	-0.826053	0.008630
O14	O	0.264819	-0.492719	0.341964
O15	O	0.598153	-0.159386	0.675297
O16	O	-0.068534	-0.719075	-0.098345
O17	O	0.264800	-0.385742	0.234989
O18	O	0.598133	-0.052409	0.568322
O19	O	-0.068478	-0.921336	-0.086656
O20	O	0.264856	-0.588003	0.246677
O21	O	0.598189	-0.254669	0.580011
Cu22	Cu	-0.081060	-0.820205	-0.092502
Cu23	Cu	0.252273	-0.486871	0.240831
Cu24	Cu	0.585607	-0.153538	0.574165
Cu25	Cu	0.081542	-0.820217	-0.092479
Cu26	Cu	0.414875	-0.486884	0.240854
Cu27	Cu	0.748208	-0.153550	0.574187
O28	O	-0.068497	-0.814359	-0.193631
O29	O	0.264836	-0.481025	0.139702
O30	O	0.598169	-0.147692	0.473036
C31	C	0.000206	-0.693204	-0.097959
C32	C	0.333539	-0.359871	0.235374
C33	C	0.666872	-0.026537	0.568708
C34	C	0.000184	-0.616100	-0.096830
C35	C	0.333517	-0.282767	0.236503
C36	C	0.666851	0.050566	0.569837
N37	N	-0.195425	-0.820201	-0.092518
N38	N	0.137908	-0.486868	0.240816
N39	N	0.471242	-0.153535	0.574149
C40	C	-0.760831	-0.778233	-0.050443
C41	C	-0.427498	-0.444900	0.282890
C42	C	-0.094164	-0.111567	0.616224
C43	C	-0.674284	-0.778232	-0.050448
C44	C	-0.340951	-0.444899	0.282885
C45	C	-0.007617	-0.111565	0.616218
C46	C	-0.631000	-0.820220	-0.092473
C47	C	-0.297667	-0.486887	0.240860
C48	C	0.035666	-0.153553	0.574193
C49	C	-0.674269	-0.862217	-0.134490
C50	C	-0.340935	-0.528884	0.198843
C51	C	-0.007602	-0.195550	0.532177
C52	C	-0.760814	-0.862222	-0.134480
C53	C	-0.427481	-0.528888	0.198853
C54	C	-0.094147	-0.195555	0.532186
C55	C	-0.325240	-0.862200	-0.134529
C56	C	0.008093	-0.528867	0.198804
C57	C	0.341426	-0.195533	0.532137
C58	C	-0.238689	-0.862190	-0.134537
C59	C	0.094645	-0.528857	0.198796
C60	C	0.427978	-0.195524	0.532129
C61	C	-0.238710	-0.778210	-0.050497
C62	C	0.094623	-0.444877	0.282836
C63	C	0.427956	-0.111544	0.616169
C64	C	-0.325256	-0.778215	-0.050488
C65	C	0.008078	-0.444882	0.282846
C66	C	0.341411	-0.111548	0.616179
C67	C	-0.368516	-0.820215	-0.092501
C68	C	-0.035183	-0.486881	0.240832
C69	C	0.298150	-0.153548	0.574165
C70	C	-0.462360	-0.820217	-0.092494
C71	C	-0.129027	-0.486883	0.240839
C72	C	0.204306	-0.153550	0.574173
C73	C	-0.537158	-0.820215	-0.092485
C74	C	-0.203825	-0.486881	0.240849
C75	C	0.129509	-0.153548	0.574182
N76	N	0.195907	-0.820226	-0.092458
N77	N	0.529240	-0.486893	0.240875
N78	N	0.862574	-0.153559	0.574209
C79	C	0.000232	-0.825683	0.034517
C80	C	0.333565	-0.492349	0.367850
C81	C	0.666898	-0.159016	0.701183
C82	C	0.000229	-0.824556	0.111620
C83	C	0.333562	-0.491222	0.444954
C84	C	0.666896	-0.157889	0.778287
C85	C	0.000278	-0.947218	-0.087022
C86	C	0.333611	-0.613884	0.246311
C87	C	0.666945	-0.280551	0.579644
C88	C	0.000305	-1.024321	-0.088151
C89	C	0.333639	-0.690988	0.245182
C90	C	0.666972	-0.357655	0.578515
C91	C	0.000202	-0.571402	-0.159598
C92	C	0.333535	-0.238069	0.173735
C93	C	0.666869	0.095264	0.507069
C94	C	0.000211	-0.498955	-0.158537
C95	C	0.333544	-0.165622	0.174796
C96	C	0.666878	0.167711	0.508129
C97	C	0.000219	-0.471209	-0.094705
C98	C	0.333552	-0.137876	0.238628
C99	C	0.666885	0.195457	0.571962
C100	C	0.000196	-0.515917	-0.031929
C101	C	0.333529	-0.182584	0.301405
C102	C	0.666862	0.150749	0.634738
C103	C	0.000178	-0.588363	-0.032991
C104	C	0.333512	-0.255029	0.300342
C105	C	0.666845	0.078304	0.633676
C106	C	0.048412	-0.362952	-0.044519
C107	C	0.381746	-0.029619	0.288814
C108	C	0.715079	0.303714	0.622148
C109	C	0.048435	-0.290508	-0.043459
C110	C	0.381768	0.042825	0.289874
C111	C	0.715101	0.376159	0.623208
C112	C	0.000268	-0.247764	-0.091425
C113	C	0.333602	0.085569	0.241908
C114	C	0.666935	0.418903	0.575241
C115	C	-0.047910	-0.277472	-0.140463
C116	C	0.285424	0.055862	0.192870
C117	C	0.618757	0.389195	0.526203
C118	C	-0.047927	-0.349917	-0.141526
C119	C	0.285406	-0.016584	0.191807
C120	C	0.618740	0.316749	0.525141
C121	C	0.000237	-0.392656	-0.093546
C122	C	0.333570	-0.059322	0.239787
C123	C	0.666904	0.274011	0.573121
C124	C	0.000295	-0.124510	-0.153048
C125	C	0.333628	0.208823	0.180286
C126	C	0.666962	0.542157	0.513619
C127	C	0.000299	-0.052062	-0.151984
C128	C	0.333632	0.281271	0.181349
C129	C	0.666966	0.614605	0.514682
C130	C	0.000292	-0.069026	-0.025374
C131	C	0.333625	0.264308	0.307960
C132	C	0.666959	0.597641	0.641293
C133	C	0.000280	-0.141472	-0.026439
C134	C	0.333613	0.191861	0.306894
C135	C	0.666946	0.525195	0.640228
C136	C	0.000285	-0.169210	-0.090278
C137	C	0.333619	0.164124	0.243056
C138	C	0.666952	0.497457	0.576389
C139	C	0.000252	-0.814739	-0.219498
C140	C	0.333585	-0.481406	0.113835
C141	C	0.666919	-0.148072	0.447169
C142	C	0.000260	-0.815866	-0.296602
C143	C	0.333593	-0.482533	0.036732
C144	C	0.666927	-0.149199	0.370065
C145	C	0.075177	-0.824035	0.147842
C146	C	0.408510	-0.490702	0.481175
C147	C	0.741843	-0.157369	0.814508
C148	C	0.075182	-0.822967	0.220288
C149	C	0.408516	-0.489633	0.553621
C150	C	0.741849	-0.156300	0.886954
C151	C	0.000236	-0.822432	0.256512
C152	C	0.333570	-0.489099	0.589845
C153	C	0.666903	-0.155766	0.923178
C154	C	-0.074721	-0.822949	0.220281
C155	C	0.258612	-0.489615	0.553614
C156	C	0.591946	-0.156282	0.886948
C157	C	-0.074725	-0.824010	0.147836
C158	C	0.258609	-0.490677	0.481169
C159	C	0.591942	-0.157344	0.814502
C160	C	-0.057166	-0.861430	0.376735
C161	C	0.276168	-0.528096	0.710068
C162	C	0.609501	-0.194763	1.043402
C163	C	-0.057159	-0.860372	0.449180
C164	C	0.276174	-0.527039	0.782513
C165	C	0.609508	-0.193706	1.115846
C166	C	0.000245	-0.819155	0.479957
C167	C	0.333578	-0.485821	0.813291
C168	C	0.666912	-0.152488	1.146624
C169	C	0.057656	-0.779003	0.438282
C170	C	0.390989	-0.445670	0.771616
C171	C	0.724322	-0.112337	1.104949
C172	C	0.057652	-0.780065	0.365837
C173	C	0.390985	-0.446732	0.699170
C174	C	0.724319	-0.113398	1.032504
C175	C	0.000232	-0.821281	0.335067
C176	C	0.333566	-0.487947	0.668400
C177	C	0.666899	-0.154614	1.001733
C178	C	0.075204	-0.817474	0.594733
C179	C	0.408537	-0.484141	0.928066
C180	C	0.741871	-0.150808	1.261399
C181	C	0.075207	-0.816401	0.667179
C182	C	0.408540	-0.483068	1.000513
C183	C	0.741873	-0.149735	1.333846
C184	C	-0.074699	-0.816391	0.667172
C185	C	0.258635	-0.483057	1.000506
C186	C	0.591968	-0.149724	1.333839
C187	C	-0.074699	-0.817457	0.594726
C188	C	0.258634	-0.484123	0.928059
C189	C	0.591967	-0.150790	1.261393
C190	C	0.000254	-0.818002	0.558511
C191	C	0.333588	-0.484668	0.891844
C192	C	0.666921	-0.151335	1.225178
H193	H	-0.796066	-0.744038	-0.016225
H194	H	-0.462733	-0.410705	0.317108
H195	H	-0.129400	-0.077372	0.650442
Cl196	Cl	-0.379664	-0.725425	0.002343
Cl197	Cl	-0.046331	-0.392092	0.335676
Cl198	Cl	0.287002	-0.058759	0.669009
H199	H	-0.203477	-0.744014	-0.016285
H200	H	0.129856	-0.410681	0.317048
H201	H	0.463190	-0.077347	0.650381
Cl202	Cl	0.000318	0.004132	-0.230901
Cl203	Cl	0.333651	0.337465	0.102433
Cl204	Cl	0.666984	0.670798	0.435766
H205	H	0.104400	-0.745440	0.463340
H206	H	0.437733	-0.412107	0.796673
H207	H	0.771066	-0.078773	1.130006
H208	H	-0.639064	-0.744040	-0.016233
H209	H	-0.305730	-0.410706	0.317100
H210	H	0.027603	-0.077373	0.650433
H211	H	-0.796037	-0.896417	-0.168693
H212	H	-0.462704	-0.563083	0.164640
H213	H	-0.129370	-0.229750	0.497974
H214	H	-0.203450	-0.896384	-0.168761
H215	H	0.129884	-0.563051	0.164573
H216	H	0.463217	-0.229717	0.497906
H217	H	-0.360453	-0.896398	-0.168740
H218	H	-0.027119	-0.563065	0.164593
H219	H	0.306214	-0.229732	0.497927
Cl220	Cl	0.000205	-0.606269	-0.239853
Cl221	Cl	0.333538	-0.272935	0.093481
Cl222	Cl	0.666872	0.060398	0.426814
Cl223	Cl	0.000294	-0.159384	-0.233300
Cl224	Cl	0.333627	0.173950	0.100033
Cl225	Cl	0.666960	0.507283	0.433366
Cl226	Cl	-0.619855	-0.915006	-0.187318
Cl227	Cl	-0.286522	-0.581672	0.146015
Cl228	Cl	0.046812	-0.248339	0.479348
Cl229	Cl	0.169436	-0.815742	0.712715
Cl230	Cl	0.502769	-0.482409	1.046048
Cl231	Cl	0.836102	-0.149076	1.379381
Cl232	Cl	-0.168918	-0.815715	0.712704
Cl233	Cl	0.164415	-0.482381	1.046037
Cl234	Cl	0.497749	-0.149048	1.379370
Cl235	Cl	0.169429	-0.818154	0.549201
Cl236	Cl	0.502762	-0.484821	0.882534
Cl237	Cl	0.836096	-0.151487	1.215868
Cl238	Cl	0.000232	-0.442753	-0.237452
Cl239	Cl	0.333565	-0.109420	0.095881
Cl240	Cl	0.666899	0.223914	0.429215
H241	H	-0.087158	-0.374102	-0.181452
H242	H	0.246175	-0.040769	0.151881
H243	H	0.579509	0.292564	0.485215
H244	H	-0.087132	-0.242671	-0.179522
H245	H	0.246201	0.090663	0.153812
H246	H	0.579535	0.423996	0.487145
H247	H	0.000349	-0.046436	0.026600
H248	H	0.333683	0.286897	0.359933
H249	H	0.667016	0.620231	0.693266
Cl250	Cl	-0.168925	-0.818110	0.549188
Cl251	Cl	0.164408	-0.484777	0.882522
Cl252	Cl	0.497742	-0.151444	1.215855
H253	H	0.000270	-0.177867	0.024674
H254	H	0.333603	0.155467	0.358007
H255	H	0.666936	0.488800	0.691340
Cl256	Cl	-0.129329	-0.910850	0.501564
Cl257	Cl	0.204005	-0.577517	0.834897
Cl258	Cl	0.537338	-0.244183	1.168230
H259	H	0.087667	-0.266326	-0.003532
H260	H	0.421001	0.067008	0.329801
H261	H	0.754334	0.400341	0.663134
Cl262	Cl	0.108970	-0.416681	0.015788
Cl263	Cl	0.442303	-0.083348	0.349121
Cl264	Cl	0.775637	0.249986	0.682455
Cl265	Cl	0.000200	-0.481038	0.048318
Cl266	Cl	0.333534	-0.147705	0.381651
Cl267	Cl	0.666867	0.185629	0.714985
H268	H	-0.103917	-0.894993	0.351682
H269	H	0.229416	-0.561660	0.685016
H270	H	0.562750	-0.228327	1.018349
Cl271	Cl	0.000156	-0.644558	0.045924
Cl272	Cl	0.333490	-0.311225	0.379257
Cl273	Cl	0.666823	0.022109	0.712591
Cl274	Cl	-0.168952	-0.824664	0.102298
Cl275	Cl	0.164381	-0.491330	0.435631
Cl276	Cl	0.497714	-0.157997	0.768964
Cl277	Cl	-0.168939	-0.822271	0.265818
Cl278	Cl	0.164395	-0.488938	0.599151
Cl279	Cl	0.497728	-0.155605	0.932485
H280	H	0.136216	-0.822539	0.249784
H281	H	0.469549	-0.489205	0.583117
H282	H	0.802882	-0.155872	0.916451
Cl283	Cl	0.169404	-0.824716	0.102317
Cl284	Cl	0.502737	-0.491383	0.435650
Cl285	Cl	0.836071	-0.158049	0.768984
H286	H	0.104396	-0.747371	0.331908
H287	H	0.437730	-0.414038	0.665241
H288	H	0.771063	-0.080705	0.998575
