data_functionalizedCrystal
_audit_creation_method	'MofGen! by Chris Wilmer'
_symmetry_space_group_name_H-M	'P1'
_symmetry_Int_Tables_number	1
_symmetry_cell_setting	triclinic
loop_
_symmetry_equiv_pos_as_xyz
  x,y,z
_cell_length_a	16.974800
_cell_length_b	14.519709
_cell_length_c	16.053833
_cell_angle_alpha	92.874189
_cell_angle_beta	96.540498
_cell_angle_gamma	83.534829
loop_
_atom_site_label
_atom_site_type_symbol
_atom_site_fract_x
_atom_site_fract_y
_atom_site_fract_z
O1	O	1.049379	0.117550	0.001500
O2	O	0.818523	0.131757	-0.014106
O3	O	0.940072	-0.009584	-0.005882
O4	O	0.927830	0.258891	-0.006724
O5	O	0.946048	-0.002640	0.133380
O6	O	0.824498	0.138701	0.125155
O7	O	1.055355	0.124494	0.140762
Zn8	Zn	0.940875	0.132700	0.155069
Zn9	Zn	0.933002	0.123551	-0.028414
O10	O	0.933805	0.265835	0.132537
C11	C	0.791965	0.134562	0.053527
C12	C	0.703930	0.132563	0.047576
C13	C	0.665834	0.135406	0.120694
C14	C	0.583117	0.133513	0.115105
C15	C	0.538498	0.128783	0.036397
C16	C	0.576601	0.125936	-0.036726
C17	C	0.659316	0.127823	-0.031136
C18	C	0.290765	0.122728	0.011539
C19	C	0.208043	0.120845	0.005954
C20	C	0.214566	0.128420	0.157785
C21	C	0.297282	0.130311	0.163369
C22	C	0.335378	0.127460	0.090246
N23	N	0.453948	0.126850	0.030682
N24	N	0.419928	0.129386	0.095961
C25	C	0.942489	-0.040472	0.063711
C26	C	0.940780	-0.142853	0.063595
C27	C	0.934485	-0.517751	0.063148
C28	C	0.936233	-0.413442	0.063273
C29	C	0.937632	-0.330305	0.063373
C30	C	0.939381	-0.225990	0.063496
C31	C	1.081912	0.121689	0.073126
C32	C	1.169947	0.123688	0.079072
C33	C	0.931388	0.296723	0.062943
C34	C	0.933097	0.399104	0.063053
N35	N	0.946255	0.138943	0.280292
N36	N	0.927629	0.117301	-0.153636
C37	C	0.973918	0.171179	0.805789
C38	C	0.970160	0.166805	0.718129
C39	C	0.920115	0.108548	0.671045
C40	C	0.873820	0.054667	0.711625
C41	C	0.877575	0.059047	0.799283
C42	C	0.903715	0.089442	0.408530
C43	C	0.899965	0.085064	0.320866
C44	C	0.996304	0.197205	0.327377
C45	C	1.000058	0.201575	0.415036
C46	C	0.953760	0.147698	0.455608
N47	N	0.916273	0.104073	0.581443
N48	N	0.957598	0.152178	0.545209
H49	H	0.183539	0.130739	0.217318
O50	O	1.022550	0.227850	0.851395
C51	C	1.062613	0.274449	0.796782
H52	H	1.027116	0.276617	0.732076
H53	H	1.124406	0.236164	0.791671
C54	C	1.114454	0.371476	0.910912
C55	C	1.070852	0.374146	0.831440
H56	H	1.119540	0.432973	0.932291
H57	H	1.087465	0.340080	0.947707
H58	H	1.165944	0.339568	0.906642
H59	H	1.019361	0.406043	0.835712
H60	H	1.097833	0.405550	0.794646
H61	H	0.321773	0.120403	-0.048004
O62	O	0.546002	0.136387	0.186068
C63	C	0.489483	0.215329	0.186784
H64	H	0.471307	0.238369	0.119835
H65	H	0.516747	0.273806	0.225985
C66	C	0.437795	0.163143	0.307278
C67	C	0.415465	0.191438	0.225049
H68	H	0.392139	0.148409	0.330885
H69	H	0.475875	0.109960	0.306798
H70	H	0.460516	0.211879	0.339935
H71	H	0.392755	0.142698	0.192391
H72	H	0.377380	0.244612	0.225524
O73	O	0.825255	-0.002052	0.665987
C74	C	0.848034	-0.094532	0.688887
H75	H	0.881509	-0.095222	0.754614
H76	H	0.888416	-0.130847	0.642433
C77	C	0.732032	-0.144717	0.607140
C78	C	0.773141	-0.145564	0.687870
H79	H	0.685835	-0.176199	0.606509
H80	H	0.716686	-0.082412	0.591708
H81	H	0.765692	-0.174978	0.568437
H82	H	0.739484	-0.115294	0.726569
H83	H	0.788479	-0.207866	0.703307
O84	O	0.851425	0.028479	0.275003
C85	C	0.858035	0.036177	0.188934
H86	H	0.917614	0.062050	0.181035
H87	H	0.807302	0.087324	0.160677
C88	C	0.780131	-0.091234	0.153458
C89	C	0.853310	-0.059464	0.143756
H90	H	0.777214	-0.150228	0.125588
H91	H	0.775675	-0.096419	0.211444
H92	H	0.737862	-0.048603	0.129911
H93	H	0.895578	-0.102088	0.167312
H94	H	0.857774	-0.054288	0.085773
H95	H	0.702156	0.139265	0.184786
O96	O	1.048682	0.258252	0.460643
C97	C	1.088748	0.304855	0.406034
H98	H	1.053254	0.307021	0.341325
H99	H	1.150542	0.266573	0.400927
C100	C	1.140578	0.401885	0.520167
C101	C	1.096980	0.404553	0.440693
H102	H	1.145660	0.463382	0.541547
H103	H	1.113588	0.370486	0.556959
H104	H	1.192069	0.369979	0.515901
H105	H	1.045487	0.436447	0.444962
H106	H	1.123962	0.435959	0.403902
H107	H	0.540266	0.122078	-0.100812
H108	H	1.007855	0.210678	0.685098
H109	H	0.866019	0.045569	0.441553
O110	O	0.164822	0.116214	-0.070574
C111	C	0.216179	0.114129	-0.133917
H112	H	0.279340	0.087400	-0.107463
H113	H	0.215762	0.187089	-0.157219
C114	C	0.109947	0.082230	-0.239855
C115	C	0.187522	0.049393	-0.207367
H116	H	0.092269	0.042302	-0.285165
H117	H	0.075346	0.083638	-0.197181
H118	H	0.109610	0.143030	-0.259268
H119	H	0.187856	-0.011401	-0.187946
H120	H	0.222123	0.047974	-0.250040
O121	O	1.041190	0.249512	0.287829
C122	C	1.027162	0.233141	0.200364
H123	H	0.966557	0.206080	0.184327
H124	H	1.075764	0.179500	0.178856
C125	C	1.102489	0.357511	0.175239
C126	C	1.028050	0.324281	0.155541
H127	H	1.103040	0.413728	0.147589
H128	H	1.111943	0.368538	0.234166
H129	H	1.142983	0.312802	0.157314
H130	H	0.987559	0.368985	0.173475
H131	H	1.018589	0.313263	0.096616
H132	H	0.839880	0.015175	0.832317
O133	O	0.696272	0.125229	-0.102187
C134	C	0.665192	0.202255	-0.150350
H135	H	0.638157	0.259729	-0.107891
H136	H	0.617155	0.180759	-0.200795
C137	C	0.765858	0.167208	-0.244321
C138	C	0.732659	0.237800	-0.192171
H139	H	0.807472	0.189132	-0.270122
H140	H	0.786795	0.115311	-0.211875
H141	H	0.725819	0.149300	-0.286351
H142	H	0.772694	0.255699	-0.150136
H143	H	0.711729	0.289701	-0.224611
H144	H	0.333606	0.134159	0.227461
