data_functionalizedCrystal
_audit_creation_method	'MofGen! by Chris Wilmer'
_symmetry_space_group_name_H-M	'P1'
_symmetry_Int_Tables_number	1
_symmetry_cell_setting	triclinic
loop_
_symmetry_equiv_pos_as_xyz
  x,y,z
_cell_length_a	11.792241
_cell_length_b	11.792241
_cell_length_c	10.268362
_cell_angle_alpha	89.994572
_cell_angle_beta	89.999626
_cell_angle_gamma	84.193416
loop_
_atom_site_label
_atom_site_type_symbol
_atom_site_fract_x
_atom_site_fract_y
_atom_site_fract_z
O1	O	1.506909	0.155569	-0.108174
O2	O	2.006909	0.655569	0.391826
O3	O	1.176568	0.171602	-0.108205
O4	O	1.676568	0.671602	0.391795
O5	O	1.349755	-0.001585	-0.108180
O6	O	1.849755	0.498415	0.391820
O7	O	1.333722	0.328756	-0.108199
O8	O	1.833722	0.828756	0.391801
O9	O	1.349740	-0.001593	0.108421
O10	O	1.849740	0.498407	0.608421
O11	O	1.176553	0.171594	0.108396
O12	O	1.676553	0.671594	0.608396
O13	O	1.506894	0.155561	0.108426
O14	O	2.006894	0.655561	0.608426
Cu15	Cu	1.341722	0.163577	0.128188
Cu16	Cu	1.841722	0.663577	0.628188
Cu17	Cu	1.341740	0.163586	-0.127967
Cu18	Cu	1.841740	0.663586	0.372033
O19	O	1.333707	0.328748	0.108401
O20	O	1.833707	0.828748	0.608401
C21	C	1.134269	0.170591	0.000092
C22	C	1.634269	0.670591	0.500092
C23	C	1.008255	0.167576	0.000080
C24	C	1.508255	0.667576	0.500080
C25	C	0.777543	0.162034	0.000118
C26	C	1.277543	0.662034	0.500118
C27	C	0.905928	0.165113	0.000097
C28	C	1.405928	0.665113	0.500097
C29	C	1.348740	-0.043880	0.000120
C30	C	1.848740	0.456120	0.500120
C31	C	1.345726	-0.169894	0.000119
C32	C	1.845726	0.330106	0.500119
C33	C	1.340183	-0.400606	0.000096
C34	C	1.840183	0.099394	0.500096
C35	C	1.343262	-0.272221	0.000108
C36	C	1.843262	0.227779	0.500108
C37	C	1.549192	0.156572	0.000127
C38	C	2.049192	0.656572	0.500127
C39	C	1.675206	0.159587	0.000130
C40	C	2.175206	0.659587	0.500130
C41	C	1.334721	0.371043	0.000099
C42	C	1.834721	0.871043	0.500099
C43	C	1.337736	0.497057	0.000092
C44	C	1.837736	0.997057	0.500092
N45	N	1.341717	0.163571	0.308354
N46	N	1.841717	0.663571	0.808354
N47	N	1.341753	0.163584	-0.308133
N48	N	1.841753	0.663584	0.191867
C49	C	1.341734	0.163583	0.574025
C50	C	1.841734	0.663583	1.074025
C51	C	1.341721	0.163580	0.426187
C52	C	1.841721	0.663580	0.926187
