data_functionalizedCrystal
_audit_creation_method	'MofGen! by Chris Wilmer'
_symmetry_space_group_name_H-M	'P1'
_symmetry_Int_Tables_number	1
_symmetry_cell_setting	triclinic
loop_
_symmetry_equiv_pos_as_xyz
  x,y,z
_cell_length_a	12.827893
_cell_length_b	12.594516
_cell_length_c	12.827879
_cell_angle_alpha	89.937804
_cell_angle_beta	89.958406
_cell_angle_gamma	90.011786
loop_
_atom_site_label
_atom_site_type_symbol
_atom_site_fract_x
_atom_site_fract_y
_atom_site_fract_z
Zn1	Zn	1.597926	-0.423350	-0.590850
Zn2	Zn	1.597763	-0.601467	-0.416110
Zn3	Zn	1.423099	-0.423503	-0.416123
Zn4	Zn	1.423163	-0.601287	-0.590810
O5	O	1.510488	-0.512402	-0.503473
O6	O	1.744140	-0.446989	-0.567681
O7	O	1.574498	-0.577999	-0.269875
O8	O	1.446332	-0.274537	-0.439323
O9	O	1.744020	-0.577851	-0.439301
O10	O	1.574776	-0.274425	-0.567694
O11	O	1.446173	-0.447250	-0.269885
O12	O	1.276872	-0.447075	-0.439285
O13	O	1.446441	-0.577544	-0.737052
O14	O	1.276919	-0.577692	-0.567627
O15	O	1.574838	-0.446815	-0.737081
O16	O	1.574560	-0.750389	-0.439262
O17	O	1.446283	-0.750257	-0.567614
C18	C	1.238978	-0.512381	-0.503453
C19	C	1.122825	-0.512398	-0.503470
C20	C	1.071091	-0.577133	-0.566879
C21	C	0.951041	-0.577152	-0.566898
C22	C	1.510439	-0.788943	-0.503455
C23	C	1.510514	-0.907248	-0.503482
C24	C	1.580365	-0.976535	-0.433746
C25	C	1.605940	-1.047173	-0.529128
C26	C	1.485070	-1.047409	-0.408162
C27	C	1.536138	-0.976328	-0.598913
C28	C	1.415223	-0.976558	-0.477884
C29	C	1.440762	-1.047164	-0.573330
C30	C	1.783058	-0.512423	-0.503494
C31	C	1.899211	-0.512432	-0.503503
C32	C	1.510665	-0.512142	-0.776044
C33	C	1.510741	-0.512032	-0.892197
C34	C	1.510565	-0.234781	-0.503514
C35	C	1.510598	-0.116476	-0.503532
C36	C	1.510371	-0.512584	-0.231963
C37	C	1.510498	-0.512394	-0.115810
C38	C	1.447489	-0.577460	-0.063739
C39	C	1.447619	-0.577266	0.056311
H40	H	1.078239	-0.456986	-0.449200
O41	O	1.383165	-0.644202	-0.116623
C42	C	1.443116	-0.712534	-0.179711
H43	H	1.525470	-0.718487	-0.146887
H44	H	1.405880	-0.794721	-0.180777
H45	H	1.446475	-0.679653	-0.262482
O46	O	1.370451	-1.083889	-0.643928
C47	C	1.397694	-1.047447	-0.744279
H48	H	1.484387	-1.027628	-0.746339
H49	H	1.380170	-1.111965	-0.804019
H50	H	1.350556	-0.973281	-0.763628
H51	H	0.906551	-0.632577	-0.621182
H52	H	1.334625	-0.945514	-0.456175
O53	O	1.383379	-0.643881	0.109679
C54	C	1.406879	-0.749858	0.083297
H55	H	1.490335	-0.754691	0.053079
H56	H	1.398390	-0.802326	0.155278
H57	H	1.350915	-0.778255	0.020204
H58	H	0.943694	-0.457012	-0.449209
O59	O	1.459468	-1.084526	-0.311892
C60	C	1.533294	-1.048562	-0.238604
H61	H	1.573065	-0.973966	-0.269584
H62	H	1.492330	-1.029616	-0.161957
H63	H	1.594183	-1.113019	-0.225008
H64	H	1.564691	-0.456327	0.063031
O65	O	1.574859	-0.445609	-0.063025
C66	C	1.551305	-0.339717	-0.089882
H67	H	1.467781	-0.334978	-0.119815
H68	H	1.559960	-0.287014	-0.018212
H69	H	1.607127	-0.311533	-0.153333
O70	O	1.124226	-0.643123	-0.631782
C71	C	1.097703	-0.619973	-0.736000
H72	H	1.067636	-0.534980	-0.741450
H73	H	1.169575	-0.629093	-0.787537
H74	H	1.034453	-0.677126	-0.763288
O75	O	1.650984	-0.939575	-0.363572
C76	C	1.751387	-0.975576	-0.390972
H77	H	1.753352	-0.995313	-0.477659
H78	H	1.810980	-0.910824	-0.373580
H79	H	1.771020	-1.049701	-0.343834
H80	H	1.686562	-1.078194	-0.550807
H81	H	1.557613	-0.945241	-0.679615
