data_functionalizedCrystal
_audit_creation_method	'MofGen! by Chris Wilmer'
_symmetry_space_group_name_H-M	'P1'
_symmetry_Int_Tables_number	1
_symmetry_cell_setting	triclinic
loop_
_symmetry_equiv_pos_as_xyz
  x,y,z
_cell_length_a	18.101398
_cell_length_b	18.101397
_cell_length_c	15.296720
_cell_angle_alpha	99.641375
_cell_angle_beta	99.671158
_cell_angle_gamma	90.016023
loop_
_atom_site_label
_atom_site_type_symbol
_atom_site_fract_x
_atom_site_fract_y
_atom_site_fract_z
Zn1	Zn	1.059706	-0.367326	-0.509833
Zn2	Zn	1.559706	0.132674	-0.009833
Zn3	Zn	1.081069	-0.469749	-0.358971
Zn4	Zn	1.581069	0.030251	0.141029
Zn5	Zn	0.957302	-0.345923	-0.359019
Zn6	Zn	1.457302	0.154077	0.140981
Zn7	Zn	0.935844	-0.491116	-0.509800
Zn8	Zn	1.435844	0.008884	-0.009800
O9	O	1.008481	-0.418528	-0.434405
O10	O	1.508481	0.081472	0.065595
O11	O	1.166174	-0.380928	-0.489814
O12	O	1.666174	0.119072	0.010186
O13	O	1.082572	-0.435423	-0.232739
O14	O	1.582572	0.064577	0.267261
O15	O	0.970927	-0.245134	-0.379059
O16	O	1.470927	0.254866	0.120941
O17	O	1.181869	-0.456177	-0.378976
O18	O	1.681869	0.043823	0.121024
O19	O	1.046162	-0.260859	-0.489861
O20	O	1.546162	0.239141	0.010139
O21	O	0.991641	-0.344449	-0.232774
O22	O	1.491641	0.155551	0.267226
O23	O	0.850822	-0.365168	-0.379027
O24	O	1.350822	0.134832	0.120973
O25	O	0.934353	-0.492595	-0.636042
O26	O	1.434353	0.007405	-0.136042
O27	O	0.835057	-0.471841	-0.489805
O28	O	1.335057	0.028159	0.010195
O29	O	1.025355	-0.401647	-0.636067
O30	O	1.525355	0.098353	-0.136067
O31	O	1.061765	-0.576211	-0.378944
O32	O	1.561765	-0.076211	0.121056
O33	O	0.955068	-0.591910	-0.489758
O34	O	1.455068	-0.091910	0.010242
C35	C	0.816068	-0.418501	-0.434418
C36	C	1.316068	0.081499	0.065582
C37	C	0.733750	-0.418510	-0.434445
C38	C	1.233750	0.081490	0.065555
C39	C	0.434665	-0.418549	-0.434407
C40	C	0.934665	0.081451	0.065593
C41	C	0.456144	-0.485892	-0.503761
C42	C	0.956144	0.014108	-0.003761
C43	C	0.541722	-0.485752	-0.504046
C44	C	1.041722	0.014248	-0.004046
C45	C	0.583045	-0.418530	-0.434426
C46	C	1.083045	0.081470	0.065574
C47	C	0.548282	-0.344218	-0.460410
C48	C	1.048282	0.155782	0.039590
C49	C	0.462567	-0.344633	-0.460903
C50	C	0.962567	0.155367	0.039097
C51	C	0.479791	-0.424806	-0.338901
C52	C	0.979791	0.075194	0.161099
C53	C	0.565369	-0.426590	-0.339412
C54	C	1.065369	0.073410	0.160588
C55	C	0.666903	-0.418515	-0.434435
C56	C	1.166903	0.081485	0.065565
C57	C	0.350806	-0.418559	-0.434400
C58	C	0.850806	0.081441	0.065600
C59	C	1.008423	-0.610933	-0.434362
C60	C	1.508423	-0.110933	0.065638
C61	C	1.008462	-0.693248	-0.434373
C62	C	1.508462	-0.193248	0.065627
C63	C	1.008545	-0.992351	-0.434455
C64	C	1.508545	-0.492351	0.065545
C65	C	1.075543	-0.951091	-0.364548
C66	C	1.575543	-0.451091	0.135452
C67	C	1.075715	-0.865499	-0.364729
C68	C	1.575715	-0.365499	0.135271
C69	C	1.008504	-0.843963	-0.434414
C70	C	1.508504	-0.343963	0.065586
C71	C	1.016145	-0.888474	-0.529498
C72	C	1.516145	-0.388474	-0.029498
C73	C	1.016640	-0.974065	-0.529117
C74	C	1.516640	-0.474065	-0.029117
C75	C	0.933638	-0.957396	-0.410102
C76	C	1.433638	-0.457396	0.089898
C77	C	0.934327	-0.871445	-0.407979
C78	C	1.434327	-0.371445	0.092021
C79	C	1.008479	-0.760101	-0.434396
C80	C	1.508479	-0.260101	0.065604
C81	C	1.008571	-1.076214	-0.434480
C82	C	1.508571	-0.576214	0.065520
C83	C	1.201644	-0.418556	-0.434393
C84	C	1.701644	0.081444	0.065607
C85	C	1.283959	-0.418568	-0.434388
C86	C	1.783959	0.081432	0.065612
C87	C	0.975078	-0.451892	-0.669702
C88	C	1.475078	0.048108	-0.169702
C89	C	0.960843	-0.466109	-0.769971
C90	C	1.460843	0.033891	-0.269971
C91	C	1.008555	-0.225376	-0.434469
C92	C	1.508555	0.274624	0.065531
C93	C	1.008587	-0.143065	-0.434496
C94	C	1.508587	0.356935	0.065504
C95	C	1.110243	-0.316784	-1.052664
C96	C	1.610243	0.183216	-0.552664
C97	C	1.123622	-0.303428	-0.958456
C98	C	1.623622	0.196572	-0.458456
C99	C	1.082928	-0.344097	-0.911330
C100	C	1.582928	0.155903	-0.411330
C101	C	1.028854	-0.398125	-0.958422
C102	C	1.528854	0.101875	-0.458422
C103	C	1.015478	-0.411487	-1.052639
C104	C	1.515478	0.088513	-0.552639
C105	C	0.988163	-0.438800	-0.911305
C106	C	1.488163	0.061200	-0.411305
C107	C	0.934089	-0.492828	-0.958396
C108	C	1.434089	0.007172	-0.458396
C109	C	0.920715	-0.506187	-1.052604
C110	C	1.420715	-0.006187	-0.552604
C111	C	0.961409	-0.465518	-1.099730
C112	C	1.461409	0.034482	-0.599730
C113	C	1.001539	-0.425437	-0.817088
C114	C	1.501539	0.074563	-0.317088
C115	C	0.906774	-0.520140	-0.817062
C116	C	1.406774	-0.020140	-0.317062
C117	C	0.893395	-0.533497	-0.911270
C118	C	1.393395	-0.033497	-0.411270
C119	C	1.041796	-0.385242	-0.200024
C120	C	1.541796	0.114758	0.299976
C121	C	1.056174	-0.370816	-0.099756
C122	C	1.556174	0.129184	0.400244
H123	H	0.432678	-0.337737	-0.530722
H124	H	0.932678	0.162263	-0.030722
H125	H	0.969242	-1.002440	-0.582998
H126	H	1.469242	-0.502440	-0.082998
F127	F	0.926472	-0.831973	-0.316521
F128	F	1.426472	-0.331973	0.183479
H129	H	1.093824	-0.333218	-0.834622
H130	H	1.593824	0.166782	-0.334622
F131	F	0.953542	-0.871796	-0.599410
F132	F	1.453542	-0.371796	-0.099410
F133	F	0.835848	-0.590997	-0.961399
F134	F	1.335848	-0.090997	-0.461399
F135	F	0.947176	-0.479734	-1.199999
F136	F	1.447176	0.020266	-0.699999
H137	H	1.143374	-0.283682	-1.091043
H138	H	1.643374	0.216318	-0.591043
H139	H	1.069805	-0.869951	-0.550478
H140	H	1.569805	-0.369951	-0.050478
H141	H	1.167651	-0.259439	-0.920121
H142	H	1.667651	0.240561	-0.420121
H143	H	0.924076	-0.969379	-0.341970
H144	H	1.424076	-0.469379	0.158030
F145	F	0.863465	-0.563430	-0.766912
F146	F	1.363465	-0.063430	-0.266912
F147	F	1.059087	-0.367938	-0.766980
F148	F	1.559087	0.132062	-0.266980
H149	H	0.882818	-0.856757	-0.455169
H150	H	1.382818	-0.356757	0.044831
H151	H	1.072519	-0.961691	-0.293833
H152	H	1.572519	-0.461691	0.206167
F153	F	0.572202	-0.558344	-0.482789
F154	F	1.072202	-0.058344	0.017211
H155	H	0.461545	-0.477359	-0.315288
H156	H	0.961545	0.022641	0.184712
H157	H	0.466870	-0.375589	-0.287226
H158	H	0.966870	0.124411	0.212774
F159	F	0.863175	-0.563700	-1.102720
F160	F	1.363175	-0.063700	-0.602720
H161	H	0.437829	-0.541637	-0.487657
H162	H	0.937829	-0.041637	0.012343
F163	F	0.868608	-0.993332	-0.476651
F164	F	1.368608	-0.493332	0.023349
H165	H	0.424631	-0.482936	-0.574116
H166	H	0.924631	0.017064	-0.074116
H167	H	0.552164	-0.482687	-0.574810
H168	H	1.052164	0.017313	-0.074810
H169	H	0.448688	-0.293416	-0.412705
H170	H	0.948688	0.206584	0.087295
H171	H	0.559927	-0.336911	-0.529470
H172	H	1.059927	0.163089	-0.029470
F173	F	0.583982	-0.277622	-0.396448
F174	F	1.083982	0.222378	0.103552
H175	H	1.131476	-0.847248	-0.380841
H176	H	1.631476	-0.347248	0.119159
H177	H	1.131013	-0.974826	-0.380475
H178	H	1.631013	-0.474826	0.119525
F179	F	0.595551	-0.497982	-0.313801
F180	F	1.095551	0.002018	0.186199
H181	H	0.594502	-0.380022	-0.284962
H182	H	1.094502	0.119978	0.215038
H183	H	1.072501	-0.834524	-0.294225
H184	H	1.572501	-0.334524	0.205775
H185	H	1.070992	-0.996918	-0.549748
H186	H	1.570992	-0.496918	-0.049748
