data_functionalizedCrystal
_audit_creation_method	'MofGen! by Chris Wilmer'
_symmetry_space_group_name_H-M	'P1'
_symmetry_Int_Tables_number	1
_symmetry_cell_setting	triclinic
loop_
_symmetry_equiv_pos_as_xyz
  x,y,z
_cell_length_a	10.723024
_cell_length_b	14.519709
_cell_length_c	9.798715
_cell_angle_alpha	89.995905
_cell_angle_beta	89.996609
_cell_angle_gamma	84.074007
loop_
_atom_site_label
_atom_site_type_symbol
_atom_site_fract_x
_atom_site_fract_y
_atom_site_fract_z
O1	O	1.655978	0.129347	-0.113485
O2	O	1.292710	0.141728	-0.113490
O3	O	1.483975	0.001349	-0.113475
O4	O	1.464712	0.269727	-0.113500
O5	O	1.483961	0.001348	0.113507
O6	O	1.292695	0.141728	0.113492
O7	O	1.655963	0.129347	0.113497
Zn8	Zn	1.474327	0.135537	0.149533
Zn9	Zn	1.474346	0.135538	-0.149526
O10	O	1.464698	0.269727	0.113482
C11	C	1.246211	0.140827	0.000000
C12	C	1.107682	0.138132	-0.000001
C13	C	1.031965	0.216681	-0.000009
C14	C	0.888788	0.213896	-0.000011
C15	C	1.483070	-0.033016	0.000016
C16	C	1.480380	-0.135411	0.000017
C17	C	1.470476	-0.510357	-0.000019
C18	C	1.473227	-0.406035	-0.000009
C19	C	1.475428	-0.322887	0.000000
C20	C	1.478179	-0.218559	0.000008
C21	C	1.702462	0.130248	0.000003
C22	C	1.840991	0.132944	-0.000004
C23	C	1.465603	0.304091	-0.000012
C24	C	1.468293	0.406486	-0.000022
N25	N	1.474323	0.135537	0.353632
N26	N	1.474359	0.135532	-0.353626
C27	C	1.554633	0.076335	0.421415
C28	C	1.554653	0.076332	0.578578
H29	H	1.066508	0.068822	-0.000030
H30	H	1.405577	0.186216	0.411951
O31	O	0.811232	0.294148	-0.000262
C32	C	0.834043	0.345860	-0.117805
H33	H	0.878502	0.297489	-0.199964
H34	H	0.900335	0.399727	-0.091228
C35	C	0.654751	0.454335	-0.070208
C36	C	0.709346	0.394923	-0.171122
H37	H	0.577833	0.484603	-0.103095
H38	H	0.639384	0.419498	0.008985
H39	H	0.710006	0.499216	-0.048071
H40	H	0.654098	0.350037	-0.193245
H41	H	0.724701	0.429754	-0.250321
H42	H	1.073139	0.285991	-0.000008
O43	O	1.636499	0.015865	0.351673
C44	C	1.569278	-0.041294	0.269023
H45	H	1.471781	-0.005051	0.247804
H46	H	1.560508	-0.109538	0.323965
C47	C	1.759147	-0.105016	0.159248
C48	C	1.639402	-0.060498	0.133177
H49	H	1.802404	-0.116867	0.075454
H50	H	1.804436	-0.066510	0.214934
H51	H	1.751822	-0.161882	0.205037
H52	H	1.646729	-0.003629	0.087406
H53	H	1.594115	-0.098996	0.077480
O54	O	1.636627	0.015734	0.647960
C55	C	1.615793	-0.075650	0.613183
H56	H	1.567761	-0.075826	0.509411
H57	H	1.553429	-0.104399	0.693588
C58	C	1.801155	-0.136186	0.734215
C59	C	1.742171	-0.136403	0.606755
H60	H	1.879109	-0.173663	0.730255
H61	H	1.815190	-0.074619	0.757650
H62	H	1.749172	-0.160141	0.801206
H63	H	1.794146	-0.112437	0.539770
H64	H	1.728148	-0.197968	0.583308
O65	O	0.918540	0.052688	-0.000239
C66	C	0.895744	0.000977	-0.117773
H67	H	0.851295	0.049349	-0.199942
H68	H	0.829449	-0.052890	-0.091189
C69	C	1.075031	-0.107497	-0.070153
C70	C	1.020448	-0.048085	-0.171079
H71	H	1.151953	-0.137764	-0.103033
H72	H	1.090388	-0.072661	0.009034
H73	H	1.019773	-0.152378	-0.048009
H74	H	1.075699	-0.003198	-0.193209
H75	H	1.005104	-0.082915	-0.250272
H76	H	1.405604	0.186222	0.588092
