data_functionalizedCrystal
_audit_creation_method	'MofGen! by Chris Wilmer'
_symmetry_space_group_name_H-M	'P1'
_symmetry_Int_Tables_number	1
_symmetry_cell_setting	triclinic
loop_
_symmetry_equiv_pos_as_xyz
  x,y,z
_cell_length_a	10.908878
_cell_length_b	19.188924
_cell_length_c	10.065875
_cell_angle_alpha	98.757069
_cell_angle_beta	83.443480
_cell_angle_gamma	71.613377
loop_
_atom_site_label
_atom_site_type_symbol
_atom_site_fract_x
_atom_site_fract_y
_atom_site_fract_z
O1	O	1.723318	-0.120358	-0.113457
O2	O	2.223318	0.379642	0.386543
O3	O	1.349147	-0.065801	-0.113470
O4	O	1.849147	0.434199	0.386530
O5	O	1.547032	-0.195970	-0.113447
O6	O	2.047032	0.304030	0.386553
O7	O	1.525433	0.009811	-0.113480
O8	O	2.025433	0.509811	0.386520
O9	O	1.509298	-0.171066	0.113538
O10	O	2.009298	0.328934	0.613538
O11	O	1.311413	-0.040897	0.113515
O12	O	1.811413	0.459103	0.613515
O13	O	1.685584	-0.095454	0.113527
O14	O	2.185584	0.404546	0.613527
Zn15	Zn	1.492507	-0.064222	0.149560
Zn16	Zn	1.992507	0.435778	0.649560
Zn17	Zn	1.542224	-0.097033	-0.149502
Zn18	Zn	2.042224	0.402967	0.350498
O19	O	1.487698	0.034715	0.113505
O20	O	1.987698	0.534715	0.613505
C21	C	1.282410	-0.048250	0.000021
C22	C	1.782410	0.451750	0.500021
C23	C	1.139772	-0.033066	0.000017
C24	C	1.639772	0.466934	0.500017
C25	C	1.091076	-0.088470	0.000025
C26	C	1.591076	0.411530	0.500025
C27	C	0.943652	-0.072778	0.000021
C28	C	1.443652	0.427222	0.500021
C29	C	1.527467	-0.209449	0.000047
C30	C	2.027467	0.290551	0.500047
C31	C	1.525370	-0.286713	0.000050
C32	C	2.025370	0.213287	0.500050
C33	C	1.544961	-0.336575	-0.123679
C34	C	2.044961	0.163425	0.376321
C35	C	1.542976	-0.409172	-0.123690
C36	C	2.042976	0.090828	0.376310
C37	C	1.521424	-0.431907	0.000036
C38	C	2.021424	0.068093	0.500036
C39	C	1.501823	-0.382034	0.123782
C40	C	2.001823	0.117966	0.623782
C41	C	1.503796	-0.309437	0.123789
C42	C	2.003796	0.190563	0.623789
N43	N	1.576137	-0.549481	0.092125
N44	N	2.076137	-0.049481	0.592125
N45	N	1.574267	-0.618447	0.092110
N46	N	2.074267	-0.118447	0.592110
C47	C	1.515474	-0.650637	0.000023
C48	C	2.015474	-0.150637	0.500023
N49	N	1.458642	-0.611261	-0.092070
N50	N	1.958642	-0.111261	0.407930
N51	N	1.460519	-0.542291	-0.092058
N52	N	1.960519	-0.042291	0.407942
C53	C	1.519281	-0.510625	0.000043
C54	C	2.019281	-0.010625	0.500043
C55	C	1.532911	-0.779217	-0.123726
C56	C	2.032911	-0.279217	0.376274
C57	C	1.530917	-0.851812	-0.123732
C58	C	2.030917	-0.351812	0.376268
C59	C	1.489776	-0.824675	0.123744
C60	C	1.989776	-0.324675	0.623744
C61	C	1.491759	-0.752079	0.123746
C62	C	1.991759	-0.252079	0.623746
C63	C	1.513333	-0.729355	0.000007
C64	C	2.013333	-0.229355	0.500007
C65	C	1.752322	-0.113005	0.000034
C66	C	2.252322	0.386995	0.500034
C67	C	1.894961	-0.128190	0.000029
C68	C	2.394961	0.371810	0.500029
C69	C	1.507265	0.048194	0.000008
C70	C	2.007265	0.548194	0.500008
C71	C	1.509362	0.125457	-0.000004
C72	C	2.009362	0.625457	0.499996
N73	N	1.458586	-0.041830	0.353661
N74	N	1.958586	0.458170	0.853661
N75	N	1.576155	-0.119431	-0.353604
N76	N	2.076155	0.380569	0.146396
C77	C	1.530414	-0.089246	0.421449
C78	C	2.030414	0.410754	0.921449
C79	C	1.504317	-0.072009	0.578613
C80	C	2.004317	0.427991	1.078613
H81	H	1.562525	-0.318079	-0.224437
H82	H	2.062525	0.181921	0.275563
H83	H	0.876206	-0.013724	0.000005
H84	H	1.376206	0.486276	0.500005
H85	H	0.962408	-0.187246	0.000029
H86	H	1.462408	0.312754	0.500029
Br87	Br	1.711163	-0.208240	0.549220
Br88	Br	2.211163	0.291760	1.049220
Br89	Br	1.027364	0.065358	-0.000016
Br90	Br	1.527364	0.565358	0.499984
Br91	Br	1.472557	-0.412884	0.291698
Br92	Br	1.972557	0.087116	0.791698
H93	H	1.550471	-0.760713	-0.224482
H94	H	2.050471	-0.260713	0.275518
H95	H	1.558922	-0.449776	-0.224448
H96	H	2.058922	0.050224	0.275552
H97	H	1.158528	-0.147521	0.000028
H98	H	1.658528	0.352479	0.500028
Br99	Br	1.477200	-0.241761	0.291721
Br100	Br	1.977200	0.258239	0.791721
H101	H	1.611224	-0.142604	0.363134
H102	H	2.111224	0.357396	0.863134
H103	H	1.546864	-0.892410	-0.224491
H104	H	2.046864	-0.392410	0.275509
Br105	Br	1.460513	-0.855520	0.291662
Br106	Br	1.960513	-0.355520	0.791662
Br107	Br	1.465163	-0.684403	0.291674
Br108	Br	1.965163	-0.184403	0.791674
Br109	Br	1.369600	0.016924	0.675794
Br110	Br	1.869600	0.516924	1.175794
Br111	Br	1.323875	0.047099	0.450848
Br112	Br	1.823875	0.547099	0.950848
