data_functionalizedCrystal
_audit_creation_method	'MofGen! by Chris Wilmer'
_symmetry_space_group_name_H-M	'P1'
_symmetry_Int_Tables_number	1
_symmetry_cell_setting	triclinic
loop_
_symmetry_equiv_pos_as_xyz
  x,y,z
_cell_length_a	14.519709
_cell_length_b	14.853567
_cell_length_c	13.330367
_cell_angle_alpha	90.000844
_cell_angle_beta	90.001938
_cell_angle_gamma	83.657537
loop_
_atom_site_label
_atom_site_type_symbol
_atom_site_fract_x
_atom_site_fract_y
_atom_site_fract_z
O1	O	-1.223824	-0.118179	-0.083284
O2	O	-0.955341	-0.132096	-0.083314
O3	O	-1.096754	0.006090	-0.083301
O4	O	-1.082411	-0.256364	-0.083297
O5	O	-1.096733	0.006093	0.083546
O6	O	-0.955321	-0.132093	0.083533
O7	O	-1.223803	-0.118175	0.083563
Cu8	Cu	-1.089560	-0.125134	0.098783
Cu9	Cu	-1.089584	-0.125137	-0.098533
O10	O	-1.082390	-0.256361	0.083550
C11	C	-1.096094	0.039680	0.000119
C12	C	-1.094146	0.139765	0.000110
C13	C	-0.920971	-0.131446	0.000106
C14	C	-0.818591	-0.129502	0.000094
C15	C	-1.258173	-0.118826	0.000141
C16	C	-1.360553	-0.120769	0.000146
C17	C	-0.443698	-0.122347	0.000140
C18	C	-0.548005	-0.124334	0.000127
C19	C	-0.631141	-0.125924	0.000116
C20	C	-0.735455	-0.127912	0.000105
C21	C	-1.083050	-0.289952	0.000128
C22	C	-1.084998	-0.390036	0.000130
N23	N	-1.089550	-0.125131	0.237564
C24	C	-1.001911	0.552334	0.000119
C25	C	-1.169913	0.573550	0.000138
C26	C	-1.171744	0.479516	0.000132
C27	C	-1.088658	0.421886	0.000122
C28	C	-1.003740	0.458291	0.000117
C29	C	-1.256661	0.443104	0.000147
C30	C	-1.258495	0.349064	0.000143
C31	C	-1.175408	0.291433	0.000125
C32	C	-1.090486	0.327843	0.000119
C33	C	-1.007400	0.270213	0.000108
C34	C	-0.922478	0.306621	0.000095
C35	C	-0.920653	0.400660	0.000099
C36	C	-1.177233	0.197394	0.000121
C37	C	-1.009229	0.176170	0.000106
N38	N	-1.089602	-0.125133	-0.237315
C39	C	-1.026964	-0.186302	0.710181
C40	C	-1.152229	-0.063966	0.710161
C41	C	-1.152219	-0.063963	0.605142
C42	C	-1.089581	-0.125132	0.552639
C43	C	-1.026953	-0.186303	0.605153
C44	C	-1.214852	-0.002799	0.552620
C45	C	-1.214844	-0.002795	0.447595
C46	C	-1.152201	-0.063959	0.395089
C47	C	-1.089571	-0.125132	0.447611
C48	C	-1.026933	-0.186301	0.395107
C49	C	-0.964297	-0.247470	0.447626
C50	C	-0.964310	-0.247468	0.552648
C51	C	-1.152188	-0.063962	0.290068
C52	C	-1.026922	-0.186302	0.290079
H53	H	-0.854829	0.259687	0.000093
H54	H	-0.851513	0.430312	0.000089
H55	H	-0.913300	-0.297278	0.404866
C56	C	-0.896421	-0.313842	0.609850
C57	C	-0.909860	-0.300767	0.713061
C58	C	-0.847349	-0.361904	0.765790
H59	H	-0.834817	-0.303980	0.592777
H60	H	-0.906519	-0.374052	0.592691
H61	H	-0.899754	-0.240571	0.730213
H62	H	-0.971450	-0.310636	0.730164
H63	H	-0.857447	-0.422114	0.748631
H64	H	-0.785750	-0.352037	0.748709
H65	H	-0.856464	-0.353047	0.835824
H66	H	-1.265854	0.046998	0.595371
C67	C	-0.959019	-0.252862	0.233132
C68	C	-0.974099	-0.341487	0.258662
C69	C	-0.911573	-0.402826	0.206214
H70	H	-0.897422	-0.243056	0.250308
H71	H	-0.967987	-0.244168	0.163053
H72	H	-0.965124	-0.350177	0.328726
H73	H	-1.035683	-0.351322	0.241484
H74	H	-0.920541	-0.394132	0.136135
H75	H	-0.849981	-0.393011	0.223393
H76	H	-0.921802	-0.462964	0.223522
C77	C	-1.220178	0.002591	0.767039
C78	C	-1.205115	0.091213	0.741482
C79	C	-1.267697	0.152555	0.793855
H80	H	-1.211275	-0.006047	0.837122
H81	H	-1.281758	-0.007268	0.749803
H82	H	-1.143549	0.101069	0.758724
H83	H	-1.214025	0.099880	0.671408
H84	H	-1.329277	0.142696	0.776619
H85	H	-1.258788	0.143909	0.863935
H86	H	-1.257490	0.212692	0.776515
H87	H	-1.265845	0.047013	0.404840
H88	H	-0.932770	0.581982	0.000105
C89	C	-1.350598	0.309364	0.000194
C90	C	-1.334421	0.214675	0.000207
C91	C	-1.419244	0.178072	0.000263
H92	H	-1.384887	0.329041	-0.057970
H93	H	-1.384818	0.329079	0.058405
H94	H	-1.300216	0.194969	-0.057997
H95	H	-1.300146	0.194973	0.058367
H96	H	-1.453463	0.197786	0.058474
H97	H	-1.453526	0.197755	-0.057902
H98	H	-1.408279	0.113822	0.000282
C99	C	-1.220226	0.002542	0.233228
C100	C	-1.275073	0.056121	0.301687
C101	C	-1.337754	0.117407	0.249365
H102	H	-1.258733	-0.029870	0.192246
H103	H	-1.187028	0.040198	0.192289
H104	H	-1.308269	0.018470	0.342609
H105	H	-1.236591	0.088553	0.342672
H106	H	-1.304556	0.155063	0.208426
H107	H	-1.376254	0.084987	0.208384
H108	H	-1.374969	0.153773	0.295806
H109	H	-0.975964	-0.236103	0.752945
H110	H	-0.941568	0.129253	0.000093
H111	H	-1.324305	0.490032	0.000165
H112	H	-1.246375	0.167755	0.000138
H113	H	-1.237558	0.620477	0.000154
