data_functionalizedCrystal
_audit_creation_method	'MofGen! by Chris Wilmer'
_symmetry_space_group_name_H-M	'P1'
_symmetry_Int_Tables_number	1
_symmetry_cell_setting	triclinic
loop_
_symmetry_equiv_pos_as_xyz
  x,y,z
_cell_length_a	18.215405
_cell_length_b	18.215407
_cell_length_c	18.215399
_cell_angle_alpha	90.017813
_cell_angle_beta	90.030551
_cell_angle_gamma	90.019398
loop_
_atom_site_label
_atom_site_type_symbol
_atom_site_fract_x
_atom_site_fract_y
_atom_site_fract_z
Zn1	Zn	-0.293100	1.125072	0.416063
Zn2	Zn	-0.043100	1.375072	0.666063
Zn3	Zn	0.206900	1.625072	0.916063
Zn4	Zn	0.456900	1.875072	1.166063
Zn5	Zn	-0.416171	1.124980	0.292991
Zn6	Zn	-0.166171	1.374980	0.542991
Zn7	Zn	0.083829	1.624980	0.792991
Zn8	Zn	0.333829	1.874980	1.042991
Zn9	Zn	-0.293111	1.002004	0.293015
Zn10	Zn	-0.043111	1.252004	0.543015
Zn11	Zn	0.206889	1.502004	0.793015
Zn12	Zn	0.456889	1.752004	1.043015
Zn13	Zn	-0.416117	1.001970	0.416020
Zn14	Zn	-0.166117	1.251970	0.666020
Zn15	Zn	0.083883	1.501970	0.916020
Zn16	Zn	0.333883	1.751970	1.166020
O17	O	-0.354625	1.063507	0.354522
O18	O	-0.104625	1.313507	0.604522
O19	O	0.145375	1.563507	0.854522
O20	O	0.395375	1.813507	1.104522
O21	O	-0.309443	1.228044	0.399745
O22	O	-0.059443	1.478044	0.649745
O23	O	0.190557	1.728044	0.899745
O24	O	0.440557	1.978044	1.149745
O25	O	-0.399874	1.108643	0.190010
O26	O	-0.149874	1.358643	0.440010
O27	O	0.100126	1.608643	0.690010
O28	O	0.350126	1.858643	0.940010
O29	O	-0.190125	1.018382	0.309365
O30	O	0.059875	1.268382	0.559365
O31	O	0.309875	1.518382	0.809365
O32	O	0.559875	1.768382	1.059365
O33	O	-0.399863	1.227977	0.309325
O34	O	-0.149863	1.477977	0.559325
O35	O	0.100137	1.727977	0.809325
O36	O	0.350137	1.977977	1.059325
O37	O	-0.190117	1.108799	0.399768
O38	O	0.059883	1.358799	0.649768
O39	O	0.309883	1.608799	0.899768
O40	O	0.559883	1.858799	1.149768
O41	O	-0.309462	1.018293	0.190027
O42	O	-0.059462	1.268293	0.440027
O43	O	0.190538	1.518293	0.690027
O44	O	0.440538	1.768293	0.940027
O45	O	-0.309410	0.899016	0.309324
O46	O	-0.059410	1.149016	0.559324
O47	O	0.190590	1.399016	0.809324
O48	O	0.440590	1.649016	1.059324
O49	O	-0.399771	1.018324	0.519010
O50	O	-0.149771	1.268324	0.769010
O51	O	0.100229	1.518324	1.019010
O52	O	0.350229	1.768324	1.269010
O53	O	-0.399782	0.898991	0.399695
O54	O	-0.149782	1.148991	0.649695
O55	O	0.100218	1.398991	0.899695
O56	O	0.350218	1.648991	1.149695
O57	O	-0.309391	1.108766	0.519042
O58	O	-0.059391	1.358766	0.769042
O59	O	0.190609	1.608766	1.019042
O60	O	0.440609	1.858766	1.269042
O61	O	-0.519148	1.108610	0.309283
O62	O	-0.269148	1.358610	0.559283
O63	O	-0.019148	1.608610	0.809283
O64	O	0.230852	1.858610	1.059283
O65	O	-0.519109	1.018235	0.399672
O66	O	-0.269109	1.268235	0.649672
O67	O	-0.019109	1.518235	0.899672
O68	O	0.230891	1.768235	1.149672
C69	C	-0.354592	0.872300	0.354508
C70	C	-0.104592	1.122300	0.604508
C71	C	0.145408	1.372300	0.854508
C72	C	0.395408	1.622300	1.104508
C73	C	-0.354596	0.790502	0.354519
C74	C	-0.104596	1.040502	0.604519
C75	C	0.145404	1.290502	0.854519
C76	C	0.395404	1.540502	1.104519
C77	C	-0.307634	0.525473	0.401679
C78	C	-0.057634	0.775473	0.651679
C79	C	0.192366	1.025473	0.901679
C80	C	0.442366	1.275473	1.151679
C81	C	-0.307622	0.602332	0.401677
C82	C	-0.057622	0.852332	0.651677
C83	C	0.192378	1.102332	0.901677
C84	C	0.442378	1.352332	1.151677
C85	C	-0.401639	0.602281	0.307381
C86	C	-0.151639	0.852281	0.557381
C87	C	0.098361	1.102281	0.807381
C88	C	0.348361	1.352281	1.057381
C89	C	-0.401654	0.525424	0.307388
C90	C	-0.151654	0.775424	0.557388
C91	C	0.098346	1.025424	0.807388
C92	C	0.348346	1.275424	1.057388
C93	C	-0.354647	0.487022	0.354536
C94	C	-0.104647	0.737022	0.604536
C95	C	0.145353	0.987022	0.854536
C96	C	0.395353	1.237022	1.104536
C97	C	-0.354620	0.640738	0.354527
C98	C	-0.104620	0.890738	0.604527
C99	C	0.145380	1.140738	0.854527
C100	C	0.395380	1.390738	1.104527
C101	C	-0.354608	0.724072	0.354524
C102	C	-0.104608	0.974072	0.604524
C103	C	0.145392	1.224072	0.854524
C104	C	0.395392	1.474072	1.104524
C105	C	-0.354661	0.403683	0.354540
C106	C	-0.104661	0.653683	0.604540
C107	C	0.145339	0.903683	0.854540
C108	C	0.395339	1.153683	1.104540
C109	C	-0.545831	1.063429	0.354487
C110	C	-0.295831	1.313429	0.604487
C111	C	-0.045831	1.563429	0.854487
C112	C	0.204169	1.813429	1.104487
C113	C	-0.627630	1.063463	0.354496
C114	C	-0.377630	1.313463	0.604496
C115	C	-0.127630	1.563463	0.854496
C116	C	0.122370	1.813463	1.104496
C117	C	-0.815820	1.110632	0.307517
C118	C	-0.565820	1.360632	0.557517
C119	C	-0.315820	1.610632	0.807517
C120	C	-0.065820	1.860632	1.057517
C121	C	-0.892679	1.110665	0.307535
C122	C	-0.642679	1.360665	0.557535
C123	C	-0.392679	1.610665	0.807535
C124	C	-0.142679	1.860665	1.057535
C125	C	-0.892677	1.016476	0.401580
C126	C	-0.642677	1.266476	0.651580
C127	C	-0.392677	1.516476	0.901580
C128	C	-0.142677	1.766476	1.151580
C129	C	-0.815820	1.016447	0.401565
C130	C	-0.565820	1.266447	0.651565
C131	C	-0.315820	1.516447	0.901565
C132	C	-0.065820	1.766447	1.151565
C133	C	-0.777393	1.063524	0.354530
C134	C	-0.527393	1.313524	0.604530
C135	C	-0.277393	1.563524	0.854530
C136	C	-0.027393	1.813524	1.104530
C137	C	-0.931109	1.063586	0.354562
C138	C	-0.681109	1.313586	0.604562
C139	C	-0.431109	1.563586	0.854562
C140	C	-0.181109	1.813586	1.104562
C141	C	-1.014443	1.063621	0.354582
C142	C	-0.764443	1.313621	0.604582
C143	C	-0.514443	1.563621	0.854582
C144	C	-0.264443	1.813621	1.104582
C145	C	-0.694054	1.063490	0.354511
C146	C	-0.444054	1.313490	0.604511
C147	C	-0.194054	1.563490	0.854511
C148	C	0.055946	1.813490	1.104511
C149	C	-0.162672	1.063605	0.354574
C150	C	0.087328	1.313605	0.604574
C151	C	0.337328	1.563605	0.854574
C152	C	0.587328	1.813605	1.104574
C153	C	-0.080873	1.063647	0.354596
C154	C	0.169127	1.313647	0.604596
C155	C	0.419127	1.563647	0.854596
C156	C	0.669127	1.813647	1.104596
C157	C	-0.354574	1.063552	0.546475
C158	C	-0.104574	1.313552	0.796475
C159	C	0.145426	1.563552	1.046475
C160	C	0.395426	1.813552	1.296475
C161	C	-0.354552	1.063571	0.628274
C162	C	-0.104552	1.313571	0.878274
C163	C	0.145448	1.563571	1.128274
C164	C	0.395448	1.813571	1.378274
C165	C	-0.354658	1.255460	0.354537
C166	C	-0.104658	1.505460	0.604537
C167	C	0.145342	1.755460	0.854537
C168	C	0.395342	2.005460	1.104537
C169	C	-0.354672	1.337259	0.354543
C170	C	-0.104672	1.587259	0.604543
C171	C	0.145328	1.837259	0.854543
C172	C	0.395328	2.087259	1.104543
C173	C	-0.354622	1.063504	0.163316
C174	C	-0.104622	1.313504	0.413316
C175	C	0.145378	1.563504	0.663316
C176	C	0.395378	1.813504	0.913316
C177	C	-0.354436	1.063628	0.081517
C178	C	-0.104436	1.313628	0.331517
C179	C	0.145564	1.563628	0.581517
C180	C	0.395564	1.813628	0.831517
C181	C	-0.307447	1.110681	0.816486
C182	C	-0.057447	1.360681	1.066486
C183	C	0.192553	1.610681	1.316486
C184	C	0.442553	1.860681	1.566486
C185	C	-0.307426	1.110690	0.893344
C186	C	-0.057426	1.360690	1.143344
C187	C	0.192574	1.610690	1.393344
C188	C	0.442574	1.860690	1.643344
C189	C	-0.401544	1.016513	0.893301
C190	C	-0.151544	1.266513	1.143301
C191	C	0.098456	1.516513	1.393301
C192	C	0.348456	1.766513	1.643301
C193	C	-0.401561	1.016501	0.816443
C194	C	-0.151561	1.266501	1.066443
C195	C	0.098439	1.516501	1.316443
C196	C	0.348439	1.766501	1.566443
C197	C	-0.354514	1.063589	0.778038
C198	C	-0.104514	1.313589	1.028038
C199	C	0.145486	1.563589	1.278038
C200	C	0.395486	1.813589	1.528038
C201	C	-0.354475	1.063610	0.931754
C202	C	-0.104475	1.313610	1.181754
C203	C	0.145525	1.563610	1.431754
C204	C	0.395525	1.813610	1.681754
C205	C	-0.354452	1.063619	1.015088
C206	C	-0.104452	1.313619	1.265088
C207	C	0.145548	1.563619	1.515088
C208	C	0.395548	1.813619	1.765088
C209	C	-0.354535	1.063579	0.694699
C210	C	-0.104535	1.313579	0.944699
C211	C	0.145465	1.563579	1.194699
C212	C	0.395465	1.813579	1.444699
H213	H	-0.269357	0.494209	0.440070
H214	H	-0.019357	0.744209	0.690070
H215	H	0.230643	0.994209	0.940070
H216	H	0.480643	1.244209	1.190070
O217	O	-0.452360	0.483947	0.256530
O218	O	-0.202360	0.733947	0.506530
O219	O	0.047640	0.983947	0.756530
O220	O	0.297640	1.233947	1.006530
H221	H	-0.510132	0.498698	0.269042
H222	H	-0.260132	0.748698	0.519042
H223	H	-0.010132	0.998698	0.769042
H224	H	0.239868	1.248698	1.019042
O225	O	-0.452285	0.965726	0.934725
O226	O	-0.202285	1.215726	1.184725
O227	O	0.047715	1.465726	1.434725
O228	O	0.297715	1.715726	1.684725
H229	H	-0.489729	0.998649	0.969731
H230	H	-0.239729	1.248649	1.219731
H231	H	0.010271	1.498649	1.469731
H232	H	0.260271	1.748649	1.719731
H233	H	-0.923962	1.149026	0.269254
H234	H	-0.673962	1.399026	0.519254
H235	H	-0.423962	1.649026	0.769254
H236	H	-0.173962	1.899026	1.019254
H237	H	-0.923974	0.978146	0.439873
H238	H	-0.673974	1.228146	0.689873
H239	H	-0.423974	1.478146	0.939873
H240	H	-0.173974	1.728146	1.189873
H241	H	-0.784535	1.148966	0.269219
H242	H	-0.534535	1.398966	0.519219
H243	H	-0.284535	1.648966	0.769219
H244	H	-0.034535	1.898966	1.019219
H245	H	-0.439887	0.978148	0.785138
H246	H	-0.189887	1.228148	1.035138
H247	H	0.060113	1.478148	1.285138
H248	H	0.310113	1.728148	1.535138
O249	O	-0.256704	1.161463	0.775058
O250	O	-0.006704	1.411463	1.025058
O251	O	0.243296	1.661463	1.275058
O252	O	0.493296	1.911463	1.525058
H253	H	-0.198940	1.148866	0.789819
H254	H	0.051060	1.398866	1.039819
H255	H	0.301060	1.648866	1.289819
H256	H	0.551060	1.898866	1.539819
O257	O	-0.256666	1.161485	0.934816
O258	O	-0.006666	1.411485	1.184816
O259	O	0.243334	1.661485	1.434816
O260	O	0.493334	1.911485	1.684816
H261	H	-0.223961	1.194228	0.895196
H262	H	0.026039	1.444228	1.145196
H263	H	0.276039	1.694228	1.395196
H264	H	0.526039	1.944228	1.645196
H265	H	-0.269339	0.633636	0.440066
H266	H	-0.019339	0.883636	0.690066
H267	H	0.230661	1.133636	0.940066
H268	H	0.480661	1.383636	1.190066
H269	H	-0.439909	0.633558	0.268994
H270	H	-0.189909	0.883558	0.518994
H271	H	0.060091	1.133558	0.768994
H272	H	0.310091	1.383558	1.018994
O273	O	-0.774365	0.965625	0.452263
O274	O	-0.524365	1.215625	0.702263
O275	O	-0.274365	1.465625	0.952263
O276	O	-0.024365	1.715625	1.202263
H277	H	-0.813997	0.932883	0.484961
H278	H	-0.563997	1.182883	0.734961
H279	H	-0.313997	1.432883	0.984961
H280	H	-0.063997	1.682883	1.234961
