data_functionalizedCrystal
_audit_creation_method	'MofGen! by Chris Wilmer'
_symmetry_space_group_name_H-M	'P1'
_symmetry_Int_Tables_number	1
_symmetry_cell_setting	triclinic
loop_
_symmetry_equiv_pos_as_xyz
  x,y,z
_cell_length_a	27.440280
_cell_length_b	27.440280
_cell_length_c	23.096457
_cell_angle_alpha	60.000256
_cell_angle_beta	90.016954
_cell_angle_gamma	60.007024
loop_
_atom_site_label
_atom_site_type_symbol
_atom_site_fract_x
_atom_site_fract_y
_atom_site_fract_z
Zr1	Zr	0.469564	0.533358	-0.075968
O2	O	0.391741	0.635034	-0.168440
O3	O	0.493411	0.431689	-0.047613
O4	O	0.493401	0.533356	-0.168414
O5	O	0.391770	0.533365	0.047644
O6	O	0.573604	0.533347	-0.168402
O7	O	0.391751	0.533367	-0.047638
O8	O	0.573621	0.351482	0.047690
O9	O	0.391753	0.715230	-0.168448
O10	O	0.563448	0.473497	-0.035519
O11	O	0.503608	0.473503	0.035580
O12	O	0.503597	0.593203	-0.106649
O13	O	0.443756	0.593209	-0.035550
Zr14	Zr	0.597509	0.533341	0.076015
Zr15	Zr	0.597478	0.533343	-0.075949
Zr16	Zr	0.469594	0.533356	0.075996
Zr17	Zr	0.469583	0.661261	-0.075981
Zr18	Zr	0.597490	0.405438	0.076029
O19	O	0.573662	0.635010	0.047660
O20	O	0.573619	0.635013	-0.168413
O21	O	0.391785	0.635031	0.047633
O22	O	0.675331	0.431664	0.168487
O23	O	0.675288	0.431667	-0.047585
O24	O	0.493454	0.431686	0.168460
O25	O	0.675303	0.533333	-0.047596
O26	O	0.573671	0.533342	0.168462
O27	O	0.493469	0.533352	0.168450
O28	O	0.675322	0.533332	0.047686
O29	O	0.493428	0.715218	-0.168433
O30	O	0.573645	0.351481	0.168481
O31	O	0.675320	0.351469	0.168496
O32	O	0.675295	0.351470	0.047705
O33	O	0.391777	0.715228	-0.047657
O34	O	0.493452	0.715216	-0.047642
O35	O	0.563476	0.473495	0.106696
O36	O	0.623316	0.473489	0.035597
O37	O	0.563465	0.593195	-0.035532
O38	O	0.503625	0.593201	0.035567
C39	C	0.533513	0.373362	0.000040
C40	C	0.533505	0.319064	0.000046
C41	C	0.577731	0.040175	0.052530
C42	C	0.577725	0.091197	0.052532
O43	O	0.615314	0.080015	0.097170
N44	N	0.533531	0.160894	0.000032
C45	C	0.489342	0.179569	-0.052479
O46	O	0.451751	0.243536	-0.097135
C47	C	0.489350	0.128547	-0.052484
C48	C	0.533544	0.058850	0.000024
C49	C	0.621922	-0.029519	0.105033
C50	C	0.621926	-0.080537	0.105031
C51	C	0.577740	-0.061862	0.052525
C52	C	0.533549	0.007832	0.000022
C53	C	0.445165	0.147223	-0.104997
C54	C	0.445177	0.096194	-0.104998
C55	C	0.489371	0.026497	-0.052490
C56	C	0.489368	-0.024511	-0.052486
N57	N	0.533562	-0.094208	0.000015
C58	C	0.577748	-0.112883	0.052520
C59	C	0.489328	0.286714	-0.052465
C60	C	0.489317	0.337735	-0.052458
C61	C	0.577701	0.249359	0.052553
C62	C	0.577709	0.198338	0.052548
C63	C	0.533523	0.217017	0.000036
C64	C	0.577755	-0.220022	0.052512
C65	C	0.577754	-0.271041	0.052507
C66	C	0.489372	-0.182661	-0.052505
C67	C	0.489370	-0.131646	-0.052499
C68	C	0.533567	-0.150332	0.000014
O69	O	0.451800	-0.013381	-0.097102
O70	O	0.615338	-0.176851	0.097163
C71	C	0.373535	0.533368	-0.000000
C72	C	0.319232	0.533374	-0.000008
C73	C	0.013776	0.470852	0.037172
C74	C	-0.037242	0.470849	0.037178
O75	O	-0.037060	0.417707	0.068777
N76	N	-0.094001	0.533333	0.000049
C77	C	-0.099740	0.595826	-0.037083
O78	O	-0.152702	0.648974	-0.068664
C79	C	-0.048722	0.595829	-0.037085
C80	C	0.008036	0.533340	0.000041
C81	C	0.070532	0.408369	0.074296
C82	C	0.121546	0.408373	0.074288
C83	C	0.115806	0.470860	0.037157
C84	C	0.059051	0.533344	0.000033
C85	C	-0.054462	0.658321	-0.074213
C86	C	-0.003438	0.658319	-0.074211
C87	C	0.053320	0.595830	-0.037085
C88	C	0.104325	0.595836	-0.037105
N89	N	0.161083	0.533351	0.000024
C90	C	0.166824	0.470864	0.037155
C91	C	-0.206878	0.595815	-0.037076
C92	C	-0.257896	0.595812	-0.037079
C93	C	-0.195394	0.470835	0.037184
C94	C	-0.144377	0.470838	0.037182
C95	C	-0.150120	0.533330	0.000054
C96	C	0.273956	0.470877	0.037136
C97	C	0.324973	0.470886	0.037123
C98	C	0.262467	0.595864	-0.037137
C99	C	0.211455	0.595855	-0.037127
C100	C	0.217203	0.533356	0.000015
O101	O	0.104189	0.648951	-0.068685
O102	O	0.219788	0.417725	0.068738
C103	C	0.693538	0.533330	0.000048
C104	C	0.747840	0.533324	0.000056
C105	C	0.533498	0.533352	-0.190060
C106	C	0.533485	0.533353	-0.254572
C107	C	0.533560	0.693336	0.000007
C108	C	0.533568	0.747634	0.000001
C109	C	0.502247	0.595836	-0.322005
C110	C	0.502262	0.595837	-0.382621
C111	C	0.533508	0.533351	-0.375801
C112	C	0.564753	0.470859	-0.308356
C113	C	0.564742	0.470860	-0.247742
N114	N	0.529189	0.486843	-0.443352
N115	N	0.529197	0.486846	-0.500936
C116	C	0.533544	0.533345	-0.558426
N117	N	0.537873	0.579851	-0.556164
N118	N	0.537862	0.579849	-0.498576
C119	C	0.533524	0.533343	-0.441523
C120	C	0.502321	0.595834	-0.691589
C121	C	0.502340	0.595832	-0.752205
C122	C	0.564828	0.470853	-0.677938
C123	C	0.564812	0.470856	-0.617324
C124	C	0.533555	0.533349	-0.624154
C125	C	0.533574	0.533347	0.190107
C126	C	0.533587	0.533346	0.254620
C127	C	0.693514	0.373343	0.000064
C128	C	0.747809	0.319039	0.000078
C129	C	0.533551	0.373359	0.190124
C130	C	0.533556	0.319060	0.254642
C131	C	0.693552	0.373341	0.190148
C132	C	0.747860	0.319035	0.254674
C133	C	0.373521	0.693358	-0.190100
C134	C	0.319213	0.747663	-0.254627
C135	C	0.373559	0.693355	-0.000017
C136	C	0.319264	0.747660	-0.000030
C137	C	0.533522	0.693339	-0.190076
C138	C	0.533517	0.747638	-0.254595
C139	C	0.742056	0.293541	-0.037044
C140	C	0.793067	0.242523	-0.037045
C141	C	0.849831	0.217001	0.000080
C142	C	0.855583	0.242504	0.037203
C143	C	0.804572	0.293524	0.037200
C144	C	0.564809	0.293557	0.322069
C145	C	0.564812	0.242544	0.382697
C146	C	0.533564	0.217033	0.375896
C147	C	0.502307	0.242541	0.308462
C148	C	0.502301	0.293556	0.247836
C149	C	0.804605	0.293530	0.247864
C150	C	0.855638	0.242511	0.308487
C151	C	0.849925	0.216995	0.375921
C152	C	0.793174	0.242506	0.382730
C153	C	0.742142	0.293527	0.322107
C154	C	0.262468	0.773175	-0.247816
C155	C	0.211435	0.824209	-0.308439
C156	C	0.217148	0.849728	-0.375873
C157	C	0.273899	0.824214	-0.382682
C158	C	0.324931	0.773184	-0.322059
C159	C	0.325017	0.773163	0.037085
C160	C	0.274006	0.824195	0.037070
C161	C	0.217242	0.849719	-0.000058
C162	C	0.211490	0.824214	-0.037178
C163	C	0.262500	0.773186	-0.037166
C164	C	0.564770	0.773133	-0.247771
C165	C	0.564777	0.824146	-0.308387
C166	C	0.533527	0.849667	-0.375826
C167	C	0.502272	0.824166	-0.382648
C168	C	0.502269	0.773151	-0.322033
H169	H	0.453370	-0.074894	-0.095238
Cl170	Cl	0.604098	0.325616	0.330638
H171	H	0.278544	0.844998	-0.437594
H172	H	0.891362	0.175456	0.000078
Cl173	Cl	0.670808	0.325581	0.330682
H174	H	-0.100669	0.709206	-0.104444
Cl175	Cl	0.914085	0.152852	0.452127
H176	H	0.788372	0.221765	-0.067275
Cl177	Cl	0.140125	0.856306	-0.083846
H178	H	0.788531	0.221724	0.437642
Cl179	Cl	0.633271	0.110722	0.118559
Cl180	Cl	0.604073	0.392300	-0.532547
H181	H	0.533573	0.175493	0.425267
Cl182	Cl	0.533535	0.913804	-0.452022
H183	H	0.901807	0.221716	0.067429
Cl184	Cl	0.463011	0.325608	0.163072
H185	H	0.371133	0.752413	-0.327613
Cl186	Cl	0.255270	0.741105	-0.163050
H187	H	0.590228	0.844904	-0.302818
H188	H	0.613680	0.234161	0.095306
H189	H	0.165231	0.844974	-0.302881
Cl190	Cl	0.152987	0.913879	-0.452079
H191	H	0.476829	0.844953	-0.437565
H192	H	0.476816	0.752398	-0.327599
Cl193	Cl	0.633315	-0.358661	0.118523
Cl194	Cl	0.633316	-0.243521	0.118529
H195	H	0.476904	0.646716	-0.807113
H196	H	0.590218	0.752363	-0.192864
H197	H	0.901842	0.221746	0.302930
Cl198	Cl	0.604036	0.392305	-0.299782
H199	H	0.657906	-0.044737	0.147790
Cl200	Cl	0.255257	0.741127	-0.083826
H201	H	0.371232	0.752385	0.067324
H202	H	0.657915	-0.137285	0.147786
Cl203	Cl	0.433749	0.425351	-0.118462
Cl204	Cl	0.433769	0.310208	-0.118482
H205	H	0.278701	0.844952	0.067300
Cl206	Cl	0.811816	0.325567	0.083879
H207	H	0.476866	0.221762	0.302935
Cl208	Cl	0.153120	0.913867	-0.000063
Cl209	Cl	0.281191	0.392306	0.083827
H210	H	-0.211563	0.646707	-0.067314
H211	H	-0.190728	0.419954	0.067416
H212	H	0.165239	0.646738	-0.067367
Cl213	Cl	0.389602	0.234833	-0.171011
H214	H	-0.008121	0.709209	-0.104437
Cl215	Cl	-0.073028	0.392278	0.083859
Cl216	Cl	0.604112	0.210484	0.467462
H217	H	0.409196	0.111412	-0.147763
H218	H	-0.304107	0.646697	-0.067320
H219	H	0.809268	0.314297	0.192961
Cl220	Cl	0.604117	0.392297	-0.669358
Cl221	Cl	0.670702	0.325619	-0.083726
H222	H	0.453395	-0.167466	-0.095252
H223	H	0.371188	0.419998	0.067358
H224	H	0.075216	0.357481	0.104536
Cl225	Cl	0.255262	0.674416	-0.083801
Cl226	Cl	0.462940	0.674399	-0.330594
Cl227	Cl	0.192894	0.329811	0.120970
H228	H	0.476822	0.646721	-0.437535
Cl229	Cl	0.604013	0.392303	-0.162964
H230	H	0.476870	0.646719	-0.697151
