data_functionalizedCrystal
_audit_creation_method	'MofGen! by Chris Wilmer'
_symmetry_space_group_name_H-M	'P1'
_symmetry_Int_Tables_number	1
_symmetry_cell_setting	triclinic
loop_
_symmetry_equiv_pos_as_xyz
  x,y,z
_cell_length_a	12.594517
_cell_length_b	15.297327
_cell_length_c	15.296720
_cell_angle_alpha	72.680778
_cell_angle_beta	99.661004
_cell_angle_gamma	80.293213
loop_
_atom_site_label
_atom_site_type_symbol
_atom_site_fract_x
_atom_site_fract_y
_atom_site_fract_z
Zn1	Zn	1.412481	0.461230	-0.589842
Zn2	Zn	1.412360	0.589852	-0.461236
Zn3	Zn	1.271746	0.434358	-0.434359
Zn4	Zn	1.197209	0.616693	-0.616679
O5	O	1.323449	0.525533	-0.525529
O6	O	1.561404	0.478305	-0.572799
O7	O	1.424850	0.546746	-0.327547
O8	O	1.321659	0.307786	-0.432504
O9	O	1.561316	0.572803	-0.478313
O10	O	1.425056	0.327529	-0.546737
O11	O	1.321542	0.432505	-0.307800
O12	O	1.112918	0.458532	-0.458527
O13	O	1.194622	0.618550	-0.743243
O14	O	1.058157	0.592493	-0.592477
O15	O	1.352781	0.504332	-0.723526
O16	O	1.352575	0.723549	-0.504336
O17	O	1.194505	0.743269	-0.618539
C18	C	1.046919	0.525510	-0.525498
C19	C	0.928607	0.525526	-0.525511
C20	C	1.265463	0.767156	-0.567286
C21	C	1.240746	0.870528	-0.585181
C22	C	1.265401	0.567433	-0.768067
C23	C	1.240664	0.585288	-0.871423
C24	C	0.889100	0.452600	-0.452759
C25	C	0.803437	0.533472	-0.444553
C26	C	0.803458	0.444699	-0.533741
C27	C	0.844502	0.606435	-0.517268
C28	C	0.844534	0.517611	-0.606485
C29	C	0.758881	0.598547	-0.598321
C30	C	1.601058	0.525557	-0.525560
C31	C	1.719359	0.525568	-0.525574
C32	C	1.381686	0.282971	-0.483629
C33	C	1.406503	0.179605	-0.465773
C34	C	1.500466	1.120751	-0.397947
C35	C	1.523690	1.023627	-0.381129
C36	C	1.452956	0.985347	-0.432141
C37	C	1.358994	1.044202	-0.499973
C38	C	1.335764	1.141335	-0.516788
C39	C	1.288254	1.005931	-0.550982
C40	C	1.194292	1.064786	-0.618814
C41	C	1.171067	1.161909	-0.635626
C42	C	1.241800	1.200189	-0.584614
C43	C	1.311484	0.908798	-0.534167
C44	C	1.146782	0.929382	-0.653008
C45	C	1.123559	1.026506	-0.669826
C46	C	1.500324	0.397757	-1.121703
C47	C	1.523571	0.380983	-1.024596
C48	C	1.452846	0.432057	-0.986297
C49	C	1.358870	0.499909	-1.045116
C50	C	1.335625	0.516691	-1.142234
C51	C	1.288148	0.550991	-1.006829
C52	C	1.194171	0.618843	-1.065647
C53	C	1.170930	0.635621	-1.162755
C54	C	1.241655	0.584546	-1.201053
C55	C	1.311393	0.534210	-0.909711
C56	C	1.146694	0.653144	-0.930242
C57	C	1.123447	0.669918	-1.027349
C58	C	1.381348	0.483729	-0.283922
C59	C	1.406354	0.465612	-0.180522
H60	H	0.945300	0.390969	-0.391180
H61	H	1.089183	0.898216	-0.694544
H62	H	0.702856	0.660296	-0.659882
F63	F	1.071422	0.707509	-0.889489
F64	F	0.868547	0.695810	-0.508098
H65	H	0.784890	0.540193	-0.376103
H66	H	0.863118	0.510861	-0.674909
F67	F	0.779251	0.355334	-0.542806
F68	F	1.477855	0.882013	-0.414439
H69	H	1.557902	0.356184	-1.152896
F70	F	1.216921	0.602399	-1.304408
H71	H	1.600089	0.325739	-0.976712
F72	F	1.411482	0.846172	-0.461977
F73	F	1.623692	0.960998	-0.308946
H74	H	1.558042	1.151927	-0.356415
F75	F	1.477590	0.414201	-0.882946
F76	F	1.216821	1.303509	-0.602214
H77	H	1.094547	1.209825	-0.690849
H78	H	1.047054	1.074439	-0.725055
F79	F	1.411406	0.461998	-0.847122
H80	H	1.094415	0.690878	-1.210645
F81	F	1.023434	0.742130	-1.089959
