data_functionalizedCrystal
_audit_creation_method	'MofGen! by Chris Wilmer'
_symmetry_space_group_name_H-M	'P1'
_symmetry_Int_Tables_number	1
_symmetry_cell_setting	triclinic
loop_
_symmetry_equiv_pos_as_xyz
  x,y,z
_cell_length_a	27.732048
_cell_length_b	10.489741
_cell_length_c	8.965430
_cell_angle_alpha	90.000707
_cell_angle_beta	90.001729
_cell_angle_gamma	83.590914
loop_
_atom_site_label
_atom_site_type_symbol
_atom_site_fract_x
_atom_site_fract_y
_atom_site_fract_z
O1	O	0.641885	0.151746	-0.123847
O2	O	0.501237	0.174821	-0.123892
O3	O	0.574761	-0.022455	-0.123859
O4	O	0.568361	0.349022	-0.123879
O5	O	0.574755	-0.022442	0.124220
O6	O	0.501231	0.174834	0.124187
O7	O	0.641879	0.151760	0.124232
Cu8	Cu	0.571554	0.163298	0.146861
Cu9	Cu	0.571562	0.163282	-0.146521
O10	O	0.568354	0.349035	0.124200
C11	C	0.574275	-0.069959	0.000179
C12	C	0.572828	-0.211525	0.000176
C13	C	0.483224	0.174343	0.000142
C14	C	0.429560	0.172885	0.000125
C15	C	0.526047	-0.277609	0.000150
C16	C	0.548143	-0.370696	0.122473
C17	C	0.548160	-0.370684	-0.122113
C18	C	0.594944	-0.302747	0.122600
C19	C	0.594954	-0.302726	-0.122096
C20	C	0.617084	-0.395787	0.000256
C21	C	0.091423	0.280280	0.000184
C22	C	-0.110271	0.274868	0.000198
O23	O	-0.140907	0.373073	0.000257
N24	N	-0.130133	0.157892	0.000201
C25	C	-0.099568	0.042260	0.000211
O26	O	-0.121090	-0.057360	0.000230
C27	C	0.102124	0.047673	0.000208
C28	C	0.121984	0.164657	0.000190
C29	C	0.111282	0.397254	0.000167
C30	C	0.161703	0.398606	0.000155
C31	C	0.192264	0.282983	0.000161
C32	C	0.172404	0.166008	0.000178
C33	C	0.132688	-0.067958	0.000229
C34	C	0.183114	-0.066594	0.000232
C35	C	0.202973	0.050390	0.000213
C36	C	0.253385	0.051737	0.000172
N37	N	0.273247	0.168714	0.000168
C38	C	0.242687	0.284336	0.000163
C39	C	-0.205460	0.039426	0.000210
C40	C	-0.255883	0.038073	0.000208
C41	C	-0.266583	0.270682	0.000197
C42	C	-0.216159	0.272034	0.000188
C43	C	-0.185598	0.156403	0.000206
C44	C	0.348574	0.287166	0.000137
C45	C	0.398999	0.288508	0.000120
C46	C	0.409694	0.055900	0.000138
C47	C	0.359273	0.054557	0.000148
C48	C	0.328714	0.170201	0.000153
O49	O	0.284050	-0.046415	0.000129
O50	O	0.264218	0.383942	0.000177
C51	C	0.041002	0.278928	0.000196
C52	C	0.021143	0.161954	0.000213
C53	C	0.051703	0.046331	0.000218
C54	C	-0.029280	0.160600	0.000211
C55	C	-0.059841	0.276223	0.000205
C56	C	-0.039979	0.393199	0.000202
C57	C	0.010441	0.394551	0.000190
C58	C	0.031841	-0.070646	0.000222
C59	C	-0.018580	-0.071988	0.000232
C60	C	-0.049140	0.043635	0.000226
C61	C	0.659892	0.152237	0.000195
C62	C	0.713556	0.153696	0.000202
C63	C	0.568841	0.396539	0.000158
C64	C	0.570287	0.538105	0.000151
N65	N	0.571553	0.163308	0.353210
N66	N	0.571567	0.163262	-0.352870
C67	C	0.537539	0.254512	0.450501
C68	C	0.581302	0.278399	0.549928
C69	C	0.527809	0.139431	0.549911
C70	C	0.615337	0.187252	0.450448
C71	C	0.561815	0.048235	0.450423
C72	C	0.605609	0.072072	0.549804
H73	H	0.487584	-0.226267	0.000261
N74	N	0.619743	-0.265141	0.252485
N75	N	0.598245	-0.188445	0.343567
H76	H	0.615757	-0.161881	0.435300
H77	H	0.508802	0.331710	0.406900
N78	N	0.523305	-0.408495	0.252185
N79	N	0.480009	-0.365475	0.273965
H80	H	0.462463	-0.392166	0.365569
N81	N	0.665381	-0.459901	0.000363
N82	N	0.693544	-0.442668	0.105487
H83	H	0.727654	-0.487948	0.105569
H84	H	0.614734	-0.272556	-0.225505
N85	N	0.661768	0.212706	0.395912
N86	N	0.698850	0.139143	0.428745
H87	H	0.731641	0.157124	0.390230
N88	N	0.523317	-0.408464	-0.251831
N89	N	0.480022	-0.365432	-0.273602
H90	H	0.462472	-0.392111	-0.365208
H91	H	0.323698	0.381334	0.000146
H92	H	0.207995	-0.160757	0.000248
N93	N	0.591636	0.400458	0.604769
N94	N	0.561635	0.465222	0.686341
H95	H	0.568930	0.551430	0.725068
H96	H	0.415165	0.383774	0.000103
N97	N	0.181976	0.518114	0.000135
N98	N	0.154676	0.621331	0.000130
H99	H	0.168991	0.705741	0.000118
H100	H	0.026606	0.489811	0.000177
N101	N	0.080077	0.515383	0.000171
N102	N	0.097825	0.619805	0.000161
H103	H	0.075789	0.703242	0.000156
N104	N	0.641742	-0.024713	0.604148
N105	N	0.685383	-0.020369	0.571951
H106	H	0.710904	-0.088720	0.610332
N107	N	0.551451	-0.073783	0.395562
N108	N	0.512092	-0.114779	0.427371
H109	H	0.504767	-0.200956	0.388626
N110	N	-0.195883	0.391540	0.000168
N111	N	-0.223181	0.494760	0.000155
H112	H	-0.208865	0.579168	0.000143
H113	H	-0.291474	0.364826	0.000193
N114	N	0.481393	0.114138	0.604729
N115	N	0.444369	0.188300	0.572912
H116	H	0.411586	0.170451	0.611627
H117	H	-0.180582	-0.054740	0.000224
N118	N	-0.276158	-0.081435	0.000193
N119	N	-0.248860	-0.184654	0.000198
H120	H	-0.263176	-0.269062	0.000193
H121	H	-0.034744	-0.167257	0.000235
H122	H	0.116528	-0.163218	0.000245
H123	H	0.343103	-0.040700	0.000142
N124	N	0.440924	-0.062187	0.000164
N125	N	0.470257	-0.087347	0.104742
H126	H	0.492316	-0.170746	0.104772
N127	N	-0.071209	0.511295	0.000188
N128	N	-0.116227	0.510053	0.000198
H129	H	-0.138286	0.593452	0.000195
H130	H	0.056720	-0.164802	0.000230
