data_functionalizedCrystal
_audit_creation_method	'MofGen! by Chris Wilmer'
_symmetry_space_group_name_H-M	'P1'
_symmetry_Int_Tables_number	1
_symmetry_cell_setting	triclinic
loop_
_symmetry_equiv_pos_as_xyz
  x,y,z
_cell_length_a	21.295417
_cell_length_b	21.295418
_cell_length_c	11.169409
_cell_angle_alpha	90.042364
_cell_angle_beta	89.958601
_cell_angle_gamma	89.953681
loop_
_atom_site_label
_atom_site_type_symbol
_atom_site_fract_x
_atom_site_fract_y
_atom_site_fract_z
Zn1	Zn	-0.250292	-0.962347	-0.679189
Zn2	Zn	0.249708	-0.462347	-0.179189
Zn3	Zn	-0.355581	-0.962252	-0.478474
Zn4	Zn	0.144419	-0.462252	0.021526
Zn5	Zn	-0.250358	-0.857073	-0.478445
Zn6	Zn	0.249642	-0.357073	0.021555
Zn7	Zn	-0.355557	-0.857040	-0.679040
Zn8	Zn	0.144443	-0.357040	-0.179040
O9	O	-0.302947	-0.909678	-0.578787
O10	O	0.197053	-0.409678	-0.078787
O11	O	-0.264241	-1.050424	-0.652639
O12	O	0.235759	-0.550424	-0.152639
O13	O	-0.341660	-0.948274	-0.310521
O14	O	0.158340	-0.448274	0.189479
O15	O	-0.162260	-0.871092	-0.505124
O16	O	0.337740	-0.371092	-0.005124
O17	O	-0.341596	-1.050354	-0.505174
O18	O	0.158404	-0.550354	-0.005174
O19	O	-0.162212	-0.948436	-0.652610
O20	O	0.337788	-0.448436	-0.152610
O21	O	-0.264354	-0.870999	-0.310499
O22	O	0.235646	-0.370999	0.189501
O23	O	-0.264331	-0.768979	-0.504979
O24	O	0.235669	-0.268979	-0.004979
O25	O	-0.341556	-0.871035	-0.847010
O26	O	0.158444	-0.371035	-0.347010
O27	O	-0.341620	-0.768955	-0.652356
O28	O	0.158380	-0.268955	-0.152356
O29	O	-0.264218	-0.948404	-0.847119
O30	O	0.235782	-0.448404	-0.347119
O31	O	-0.443667	-0.948242	-0.505030
O32	O	0.056333	-0.448242	-0.005030
O33	O	-0.443649	-0.870943	-0.652385
O34	O	0.056351	-0.370943	-0.152385
C35	C	-0.466499	-0.909596	-0.578721
C36	C	0.033501	-0.409596	-0.078721
C37	C	-0.536467	-0.909618	-0.578732
C38	C	-0.036467	-0.409618	-0.078732
C39	C	-0.302980	-0.746126	-0.578649
C40	C	0.197020	-0.246126	-0.078649
C41	C	-0.303009	-0.676158	-0.578618
C42	C	0.196991	-0.176158	-0.078618
C43	C	-0.302877	-0.909726	-0.891830
C44	C	0.197123	-0.409726	-0.391830
C45	C	-0.302847	-0.909747	-1.025230
C46	C	0.197153	-0.409747	-0.525230
C47	C	-0.569322	-0.949903	-0.502083
C48	C	-0.069322	-0.449903	-0.002083
C49	C	-0.635064	-0.949933	-0.502110
C50	C	-0.135064	-0.449933	-0.002110
C51	C	-0.667949	-0.909666	-0.578774
C52	C	-0.167949	-0.409666	-0.078774
C53	C	-0.635086	-0.869377	-0.655438
C54	C	-0.135086	-0.369377	-0.155438
C55	C	-0.569345	-0.869354	-0.655417
C56	C	-0.069345	-0.369354	-0.155417
N57	N	-0.771229	-0.854598	-0.587877
N58	N	-0.271229	-0.354598	-0.087877
N59	N	-0.833681	-0.854623	-0.587889
N60	N	-0.333681	-0.354623	-0.087889
C61	C	-0.866024	-0.909736	-0.578843
C62	C	-0.366024	-0.409736	-0.078843
N63	N	-0.833556	-0.964825	-0.569759
N64	N	-0.333556	-0.464825	-0.069759
N65	N	-0.771099	-0.964800	-0.569740
N66	N	-0.271099	-0.464800	-0.069740
C67	C	-0.739235	-0.909687	-0.578805
C68	C	-0.239235	-0.409687	-0.078805
C69	C	-0.970164	-0.950057	-0.502219
C70	C	-0.470164	-0.450057	-0.002219
C71	C	-1.035908	-0.950088	-0.502254
C72	C	-0.535908	-0.450088	-0.002254
C73	C	-1.035929	-0.869527	-0.655575
C74	C	-0.535929	-0.369527	-0.155575
C75	C	-0.970187	-0.869502	-0.655546
C76	C	-0.470187	-0.369502	-0.155546
C77	C	-0.937308	-0.909766	-0.578861
C78	C	-0.437308	-0.409766	-0.078861
C79	C	-0.138757	-0.909778	-0.578880
C80	C	0.361243	-0.409778	-0.078880
C81	C	-0.068789	-0.909821	-0.578920
C82	C	0.431211	-0.409821	-0.078920
C83	C	-0.302914	-1.073868	-0.578927
C84	C	0.197086	-0.573868	-0.078927
C85	C	-0.302900	-1.143837	-0.578986
C86	C	0.197100	-0.643837	-0.078986
C87	C	-0.343307	-0.643295	-0.655243
C88	C	0.156693	-0.143295	-0.155243
C89	C	-0.343292	-0.577553	-0.655297
C90	C	0.156708	-0.077553	-0.155297
C91	C	-0.302985	-0.544676	-0.578705
C92	C	0.197015	-0.044676	-0.078705
C93	C	-0.262680	-0.577547	-0.502075
C94	C	0.237320	-0.077547	-0.002075
C95	C	-0.262692	-0.643288	-0.502032
C96	C	0.237308	-0.143288	-0.002032
N97	N	-0.298077	-0.441401	-0.473733
N98	N	0.201923	0.058599	0.026267
N99	N	-0.298069	-0.378950	-0.473777
N100	N	0.201931	0.121050	0.026223
C101	C	-0.302945	-0.346601	-0.578832
C102	C	0.197055	0.153399	-0.078832
N103	N	-0.307841	-0.379063	-0.683843
N104	N	0.192159	0.120937	-0.183843
N105	N	-0.307852	-0.441521	-0.683797
N106	N	0.192148	0.058479	-0.183797
C107	C	-0.302967	-0.473391	-0.578744
C108	C	0.197033	0.026609	-0.078744
C109	C	-0.343228	-0.242453	-0.655521
C110	C	0.156772	0.257547	-0.155521
C111	C	-0.343208	-0.176709	-0.655577
C112	C	0.156792	0.323291	-0.155577
C113	C	-0.262599	-0.176704	-0.502345
C114	C	0.237401	0.323296	-0.002345
C115	C	-0.262616	-0.242447	-0.502300
C116	C	0.237384	0.257553	-0.002300
C117	C	-0.302933	-0.275317	-0.578886
C118	C	0.197067	0.224683	-0.078886
C119	C	-0.302971	-0.909666	-0.266962
C120	C	0.197029	-0.409666	0.233038
C121	C	-0.302824	-0.909768	-0.133563
C122	C	0.197176	-0.409768	0.366437
H123	H	-0.542554	-0.982690	-0.439645
H124	H	-0.042554	-0.482690	0.060355
F125	F	-0.670038	-0.992811	-0.420526
F126	F	-0.170038	-0.492811	0.079474
F127	F	-0.670086	-0.826525	-0.737033
F128	F	-0.170086	-0.326525	-0.237033
F129	F	-0.219799	-0.678264	-0.420474
F130	F	0.280201	-0.178264	0.079526
H131	H	-0.229861	-0.550774	-0.439716
H132	H	0.270139	-0.050774	0.060284
F133	F	-0.386097	-0.141734	-0.737142
F134	F	0.113903	0.358266	-0.237142
F135	F	-0.534378	-0.826474	-0.737001
F136	F	-0.034378	-0.326474	-0.237001
H137	H	-1.062657	-0.982897	-0.439840
H138	H	-0.562657	-0.482897	0.060160
F139	F	-1.070923	-0.826675	-0.737174
F140	F	-0.570923	-0.326675	-0.237174
F141	F	-0.935170	-0.992909	-0.420605
F142	F	-0.435170	-0.492909	0.079395
H143	H	-0.943434	-0.836695	-0.717956
H144	H	-0.443434	-0.336695	-0.217956
H145	H	-0.229804	-0.269204	-0.439898
H146	H	0.270196	0.230796	0.060102
F147	F	-0.386215	-0.678275	-0.736757
F148	F	0.113785	-0.178275	-0.236757
F149	F	-0.386183	-0.542571	-0.736854
F150	F	0.113817	-0.042571	-0.236854
F151	F	-0.219698	-0.141718	-0.420835
F152	F	0.280302	0.358282	0.079165
F153	F	-0.386134	-0.277438	-0.737036
F154	F	0.113866	0.222562	-0.237036
