data_functionalizedCrystal
_audit_creation_method	'MofGen! by Chris Wilmer'
_symmetry_space_group_name_H-M	'P1'
_symmetry_Int_Tables_number	1
_symmetry_cell_setting	triclinic
loop_
_symmetry_equiv_pos_as_xyz
  x,y,z
_cell_length_a	27.731994
_cell_length_b	27.732048
_cell_length_c	26.210047
_cell_angle_alpha	89.999521
_cell_angle_beta	90.002872
_cell_angle_gamma	97.368405
loop_
_atom_site_label
_atom_site_type_symbol
_atom_site_fract_x
_atom_site_fract_y
_atom_site_fract_z
O1	O	0.640948	-0.057385	0.042362
O2	O	0.974282	0.275948	0.375695
O3	O	1.307615	0.609281	0.709028
O4	O	0.500151	-0.066158	0.042379
O5	O	0.833484	0.267175	0.375713
O6	O	1.166818	0.600509	0.709046
O7	O	0.574923	0.008626	0.042360
O8	O	0.908256	0.341959	0.375694
O9	O	1.241589	0.675293	0.709027
O10	O	0.566177	-0.132169	0.042381
O11	O	0.899510	0.201164	0.375714
O12	O	1.232844	0.534497	0.709047
O13	O	0.574908	0.008614	-0.042498
O14	O	0.908242	0.341948	0.290836
O15	O	1.241575	0.675281	0.624169
O16	O	0.500137	-0.066170	-0.042479
O17	O	0.833470	0.267163	0.290855
O18	O	1.166803	0.600497	0.624188
O19	O	0.640934	-0.057397	-0.042496
O20	O	0.974267	0.275936	0.290837
O21	O	1.307601	0.609270	0.624170
Cu22	Cu	0.570534	-0.061784	-0.050236
Cu23	Cu	0.903867	0.271549	0.283098
Cu24	Cu	1.237201	0.604882	0.616431
Cu25	Cu	0.570551	-0.061771	0.050119
Cu26	Cu	0.903884	0.271563	0.383452
Cu27	Cu	1.237218	0.604896	0.716785
O28	O	0.566162	-0.132181	-0.042477
O29	O	0.899496	0.201152	0.290856
O30	O	1.232829	0.534486	0.624189
C31	C	0.482137	-0.065984	-0.000047
C32	C	0.815470	0.267349	0.333286
C33	C	1.148803	0.600683	0.666619
C34	C	0.428480	-0.065442	-0.000041
C35	C	0.761814	0.267892	0.333292
C36	C	1.095147	0.601225	0.666626
C37	C	0.095754	-0.062032	-0.046317
C38	C	0.429087	0.271301	0.287016
C39	C	0.762421	0.604634	0.620349
C40	C	-0.105904	-0.059971	-0.046324
C41	C	0.227429	0.273363	0.287010
C42	C	0.560762	0.606696	0.620343
O43	O	-0.131984	-0.059689	-0.085663
O44	O	0.201350	0.273645	0.247671
O45	O	0.534683	0.606978	0.581004
N46	N	-0.131111	-0.059708	-0.000067
N47	N	0.202222	0.273625	0.333266
N48	N	0.535555	0.606958	0.666599
C49	C	-0.105900	-0.059958	0.046193
C50	C	0.227433	0.273375	0.379527
C51	C	0.560767	0.606709	0.712860
O52	O	-0.131967	-0.059683	0.085537
O53	O	0.201367	0.273651	0.418870
O54	O	0.534700	0.606984	0.752204
C55	C	0.095758	-0.062016	0.046199
C56	C	0.429091	0.271317	0.379532
C57	C	0.762424	0.604650	0.712866
C58	C	0.120961	-0.062283	-0.000060
C59	C	0.454295	0.271050	0.333273
C60	C	0.787628	0.604383	0.666607
C61	C	0.120958	-0.062299	-0.092573
C62	C	0.454291	0.271034	0.240761
C63	C	0.787624	0.604368	0.574094
C64	C	0.171369	-0.062817	-0.092571
C65	C	0.504702	0.270516	0.240763
C66	C	0.838036	0.603850	0.574096
C67	C	0.196576	-0.063068	-0.046313
C68	C	0.529910	0.270265	0.287020
C69	C	0.863243	0.603598	0.620353
C70	C	0.171372	-0.062802	-0.000058
C71	C	0.504706	0.270532	0.333275
C72	C	0.838039	0.603865	0.666609
C73	C	0.120968	-0.062263	0.092459
C74	C	0.454302	0.271071	0.425793
C75	C	0.787635	0.604404	0.759126
C76	C	0.171386	-0.062776	0.092457
C77	C	0.504719	0.270557	0.425790
C78	C	0.838053	0.603891	0.759123
C79	C	0.196590	-0.063043	0.046197
C80	C	0.529923	0.270290	0.379531
C81	C	0.863256	0.603623	0.712864
C82	C	0.246991	-0.063571	0.046201
C83	C	0.580324	0.269763	0.379534
C84	C	0.913658	0.603096	0.712868
N85	N	0.272198	-0.063833	-0.000055
N86	N	0.605531	0.269500	0.333278
N87	N	0.938865	0.602833	0.666612
C88	C	0.246991	-0.063582	-0.046312
C89	C	0.580324	0.269751	0.287021
C90	C	0.913657	0.603085	0.620354
C91	C	-0.211773	-0.058878	0.046187
C92	C	0.121560	0.274455	0.379521
C93	C	0.454893	0.607788	0.712854
C94	C	-0.262188	-0.058365	0.046186
C95	C	0.071146	0.274969	0.379519
C96	C	0.404479	0.608302	0.712853
C97	C	-0.262188	-0.058376	-0.046331
C98	C	0.071145	0.274957	0.287002
C99	C	0.404478	0.608290	0.620335
C100	C	-0.211774	-0.058894	-0.046329
C101	C	0.121560	0.274440	0.287004
C102	C	0.454893	0.607773	0.620337
C103	C	-0.186566	-0.059141	-0.000069
C104	C	0.146767	0.274192	0.333264
C105	C	0.480100	0.607526	0.666598
C106	C	0.352858	-0.064670	-0.046305
C107	C	0.686191	0.268663	0.287029
C108	C	1.019524	0.601996	0.620362
C109	C	0.403273	-0.065190	-0.046298
C110	C	0.736606	0.268143	0.287035
C111	C	1.069940	0.601476	0.620368
C112	C	0.403269	-0.065176	0.046218
C113	C	0.736603	0.268157	0.379552
C114	C	1.069936	0.601491	0.712885
C115	C	0.352858	-0.064659	0.046213
C116	C	0.686191	0.268675	0.379546
C117	C	1.019525	0.602008	0.712879
C118	C	0.327654	-0.064404	-0.000053
C119	C	0.660987	0.268929	0.333280
C120	C	0.994320	0.602263	0.666614
O121	O	0.273102	-0.063848	0.085520
O122	O	0.606435	0.269486	0.418853
O123	O	0.939769	0.602819	0.752186
O124	O	0.273067	-0.063847	-0.085650
O125	O	0.606401	0.269487	0.247684
O126	O	0.939734	0.602820	0.581017
C127	C	0.045343	-0.061514	-0.046319
C128	C	0.378676	0.271819	0.287014
C129	C	0.712009	0.605152	0.620347
C130	C	0.020139	-0.061247	-0.000064
C131	C	0.353472	0.272086	0.333269
C132	C	0.686806	0.605419	0.666603
C133	C	0.045346	-0.061499	0.046193
C134	C	0.378680	0.271835	0.379527
C135	C	0.712013	0.605168	0.712860
C136	C	-0.030275	-0.060734	-0.000065
C137	C	0.303058	0.272600	0.333268
C138	C	0.636391	0.605933	0.666601
C139	C	-0.055483	-0.060482	-0.046323
C140	C	0.277851	0.272851	0.287011
C141	C	0.611184	0.606184	0.620344
C142	C	-0.030276	-0.060745	-0.092579
C143	C	0.303058	0.272588	0.240755
C144	C	0.636391	0.605922	0.574088
C145	C	0.020135	-0.061263	-0.092577
C146	C	0.353469	0.272070	0.240757
C147	C	0.686802	0.605404	0.574090
C148	C	0.020139	-0.061236	0.092449
C149	C	0.353473	0.272097	0.425783
C150	C	0.686806	0.605430	0.759116
C151	C	-0.030272	-0.060719	0.092443
C152	C	0.303061	0.272615	0.425777
C153	C	0.636395	0.605948	0.759110
C154	C	-0.055479	-0.060468	0.046186
C155	C	0.277854	0.272866	0.379519
C156	C	0.611187	0.606199	0.712853
C157	C	0.574732	0.026627	-0.000070
C158	C	0.908065	0.359960	0.333263
C159	C	1.241398	0.693294	0.666597
C160	C	0.574179	0.080282	-0.000074
C161	C	0.907512	0.413615	0.333259
C162	C	1.240846	0.746948	0.666592
C163	C	0.658949	-0.057571	-0.000068
C164	C	0.992282	0.275762	0.333265
C165	C	1.325615	0.609095	0.666598
C166	C	0.712605	-0.058114	-0.000071
C167	C	1.045938	0.275220	0.333262
C168	C	1.379272	0.608553	0.666595
C169	C	0.566353	-0.150182	-0.000046
C170	C	0.899687	0.183151	0.333288
C171	C	1.233020	0.516485	0.666621
C172	C	0.566906	-0.203837	-0.000038
C173	C	0.900239	0.129497	0.333295
C174	C	1.233573	0.462830	0.666628
N175	N	0.570526	-0.061794	-0.120820
N176	N	0.903859	0.271539	0.212514
N177	N	1.237192	0.604873	0.545847
C178	C	0.614884	0.419105	-0.000053
C179	C	0.948217	0.752438	0.333280
C180	C	1.281551	1.085771	0.666613
C181	C	0.612833	0.620764	-0.000046
C182	C	0.946166	0.954097	0.333288
C183	C	1.279499	1.287431	0.666621
O184	O	0.650055	0.652027	-0.000028
O185	O	0.983388	0.985360	0.333305
O186	O	1.316721	1.318693	0.666638
N187	N	0.568496	0.639879	-0.000041
N188	N	0.901830	0.973212	0.333293
N189	N	1.235163	1.306546	0.666626
C190	C	0.524670	0.608576	-0.000034
C191	C	0.858003	0.941909	0.333299
C192	C	1.191336	1.275242	0.666633
O193	O	0.486912	0.629462	-0.000024
O194	O	0.820245	0.962795	0.333309
O195	O	1.153578	1.296128	0.666642
C196	C	0.526721	0.406918	-0.000038
C197	C	0.860055	0.740251	0.333296
C198	C	1.193388	1.073584	0.666629
C199	C	0.571061	0.387805	-0.000048
C200	C	0.904394	0.721139	0.333285
C201	C	1.237727	1.054472	0.666619
C202	C	0.659220	0.399992	-0.000063
C203	C	0.992553	0.733325	0.333270
C204	C	1.325886	1.066659	0.666604
C205	C	0.659732	0.349580	-0.000068
C206	C	0.993065	0.682914	0.333266
C207	C	1.326399	1.016247	0.666599
C208	C	0.615908	0.318281	-0.000062
C209	C	0.949242	0.651614	0.333271
C210	C	1.282575	0.984948	0.666604
C211	C	0.571573	0.337394	-0.000053
C212	C	0.904906	0.670727	0.333281
C213	C	1.238239	1.004060	0.666614
C214	C	0.482895	0.375615	-0.000028
C215	C	0.816228	0.708949	0.333306
C216	C	1.149562	1.042282	0.666639
C217	C	0.483412	0.325198	-0.000027
C218	C	0.816745	0.658532	0.333306
C219	C	1.150079	0.991865	0.666639
C220	C	0.527751	0.306086	-0.000037
C221	C	0.861084	0.639419	0.333296
C222	C	1.194418	0.972753	0.666629
C223	C	0.528262	0.255683	-0.000052
C224	C	0.861595	0.589016	0.333281
C225	C	1.194928	0.922349	0.666614
N226	N	0.572598	0.236567	-0.000057
N227	N	0.905931	0.569901	0.333276
N228	N	1.239265	0.903234	0.666609
C229	C	0.616421	0.267867	-0.000062
C230	C	0.949755	0.601200	0.333271
C231	C	1.283088	0.934533	0.666604
C232	C	0.523596	0.714450	-0.000033
C233	C	0.856929	1.047783	0.333300
C234	C	1.190262	1.381116	0.666634
C235	C	0.523083	0.764864	-0.000033
C236	C	0.856416	1.098197	0.333300
C237	C	1.189749	1.431531	0.666634
C238	C	0.611246	0.777049	-0.000044
C239	C	0.944579	1.110382	0.333289
C240	C	1.277913	1.443715	0.666623
C241	C	0.611759	0.726633	-0.000048
C242	C	0.945092	1.059967	0.333286
C243	C	1.278425	1.393300	0.666619
C244	C	0.567932	0.695335	-0.000038
C245	C	0.901265	1.028668	0.333295
C246	C	1.234599	1.362001	0.666628
C247	C	0.617494	0.161998	-0.000073
C248	C	0.950827	0.495331	0.333261
C249	C	1.284161	0.828664	0.666594
C250	C	0.618002	0.111581	-0.000079
C251	C	0.951336	0.444914	0.333254
C252	C	1.284669	0.778248	0.666587
C253	C	0.529839	0.099401	-0.000066
C254	C	0.863173	0.432734	0.333267
C255	C	1.196506	0.766067	0.666601
C256	C	0.529331	0.149813	-0.000062
C257	C	0.862664	0.483146	0.333271
C258	C	1.195997	0.816480	0.666605
C259	C	0.573162	0.181111	-0.000063
C260	C	0.906495	0.514444	0.333270
C261	C	1.239829	0.847778	0.666603
O262	O	0.491060	0.224391	-0.000064
O263	O	0.824393	0.557725	0.333269
O264	O	1.157727	0.891058	0.666603
O265	O	0.654174	0.246971	-0.000061
O266	O	0.987507	0.580305	0.333272
O267	O	1.320841	0.913638	0.666606
C268	C	0.614372	0.469517	-0.000049
C269	C	0.947705	0.802850	0.333285
C270	C	1.281038	1.136183	0.666618
C271	C	0.570036	0.488629	-0.000039
C272	C	0.903369	0.821963	0.333294
C273	C	1.236703	1.155296	0.666628
C274	C	0.526213	0.457330	-0.000034
C275	C	0.859546	0.790663	0.333300
C276	C	1.192879	1.123997	0.666633
C277	C	0.569523	0.539043	-0.000039
C278	C	0.902856	0.872377	0.333294
C279	C	1.236190	1.205710	0.666628
C280	C	0.613346	0.570343	-0.000044
C281	C	0.946680	0.903676	0.333289
C282	C	1.280013	1.237009	0.666623
C283	C	0.657683	0.551228	-0.000049
C284	C	0.991016	0.884561	0.333284
C285	C	1.324349	1.217894	0.666618
C286	C	0.658195	0.500816	-0.000054
C287	C	0.991528	0.834149	0.333280
C288	C	1.324862	1.167482	0.666613
C289	C	0.481876	0.476445	-0.000029
C290	C	0.815209	0.809778	0.333305
C291	C	1.148543	1.143112	0.666638
C292	C	0.481367	0.526857	-0.000025
C293	C	0.814701	0.860191	0.333309
C294	C	1.148034	1.193524	0.666642
C295	C	0.525191	0.558157	-0.000030
C296	C	0.858524	0.891490	0.333304
C297	C	1.191858	1.224823	0.666637
C298	C	0.603656	-0.028664	-0.473342
C299	C	0.936990	0.304670	-0.140009
C300	C	1.270323	0.638003	0.193325
C301	C	0.603667	-0.028657	-0.687001
C302	C	0.937000	0.304676	-0.353667
C303	C	1.270334	0.638010	-0.020334
O304	O	0.631818	-0.000491	-0.714630
O305	O	0.965151	0.332843	-0.381297
O306	O	1.298484	0.666176	-0.047963
N307	N	0.570554	-0.061760	-0.713714
N308	N	0.903887	0.271573	-0.380380
N309	N	1.237220	0.604907	-0.047047
C310	C	0.537433	-0.094865	-0.687008
C311	C	0.870766	0.238468	-0.353675
C312	C	1.204100	0.571802	-0.020342
O313	O	0.509265	-0.123018	-0.714632
O314	O	0.842598	0.210316	-0.381299
O315	O	1.175932	0.543649	-0.047965
C316	C	0.537421	-0.094869	-0.473351
C317	C	0.870754	0.238464	-0.140017
C318	C	1.204087	0.571798	0.193316
C319	C	0.570539	-0.061767	-0.446641
C320	C	0.903873	0.271566	-0.113307
C321	C	1.237206	0.604900	0.220026
C322	C	0.636772	0.004436	-0.446632
C323	C	0.970106	0.337769	-0.113299
C324	C	1.303439	0.671103	0.220035
C325	C	0.636771	0.004432	-0.393221
C326	C	0.970104	0.337765	-0.059887
C327	C	1.303438	0.671099	0.273446
C328	C	0.603654	-0.028671	-0.366519
C329	C	0.936987	0.304662	-0.033186
C330	C	1.270321	0.637995	0.300147
C331	C	0.570538	-0.061771	-0.393229
C332	C	0.903871	0.271562	-0.059896
C333	C	1.237205	0.604896	0.273437
C334	C	0.504298	-0.127971	-0.446647
C335	C	0.837631	0.205362	-0.113313
C336	C	1.170965	0.538695	0.220020
C337	C	0.504297	-0.127969	-0.393229
C338	C	0.837630	0.205365	-0.059896
C339	C	1.170964	0.538698	0.273438
C340	C	0.537416	-0.094867	-0.366519
C341	C	0.870749	0.238467	-0.033186
C342	C	1.204083	0.571800	0.300148
C343	C	0.537420	-0.094878	-0.313117
C344	C	0.870753	0.238455	0.020217
C345	C	1.204086	0.571789	0.353550
N346	N	0.570533	-0.061775	-0.286404
N347	N	0.903867	0.271558	0.046930
N348	N	1.237200	0.604892	0.380263
C349	C	0.603650	-0.028672	-0.313105
C350	C	0.936984	0.304662	0.020228
C351	C	1.270317	0.637995	0.353562
C352	C	0.537443	-0.094861	-0.799182
C353	C	0.870776	0.238472	-0.465848
C354	C	1.204109	0.571805	-0.132515
C355	C	0.537446	-0.094861	-0.852596
C356	C	0.870780	0.238473	-0.519263
C357	C	1.204113	0.571806	-0.185929
C358	C	0.603680	-0.028652	-0.852585
C359	C	0.937013	0.304681	-0.519251
C360	C	1.270347	0.638015	-0.185918
C361	C	0.603678	-0.028655	-0.799169
C362	C	0.937012	0.304678	-0.465836
C363	C	1.270345	0.638012	-0.132503
C364	C	0.570556	-0.061758	-0.772469
C365	C	0.903889	0.271575	-0.439136
C366	C	1.237223	0.604909	-0.105802
C367	C	0.603645	-0.028682	-0.200937
C368	C	0.936979	0.304651	0.132396
C369	C	1.270312	0.637984	0.465729
C370	C	0.603643	-0.028690	-0.147521
C371	C	0.936976	0.304643	0.185812
C372	C	1.270309	0.637976	0.519146
C373	C	0.537408	-0.094897	-0.147537
C374	C	0.870741	0.238436	0.185796
C375	C	1.204074	0.571769	0.519130
C376	C	0.537412	-0.094891	-0.200949
C377	C	0.870745	0.238442	0.132385
C378	C	1.204079	0.571775	0.465718
C379	C	0.570533	-0.061780	-0.227647
C380	C	0.903866	0.271554	0.105686
C381	C	1.237199	0.604887	0.439019
O382	O	0.509281	-0.123026	-0.285454
O383	O	0.842614	0.210307	0.047879
O384	O	1.175947	0.543641	0.381212
O385	O	0.631807	-0.000516	-0.285473
O386	O	0.965140	0.332817	0.047861
O387	O	1.298474	0.666151	0.381194
C388	C	0.603658	-0.028660	-0.526754
C389	C	0.936991	0.304673	-0.193420
C390	C	1.270324	0.638007	0.139913
C391	C	0.570542	-0.061760	-0.553464
C392	C	0.903875	0.271574	-0.220130
C393	C	1.237209	0.604907	0.113203
C394	C	0.537425	-0.094863	-0.526762
C395	C	0.870758	0.238470	-0.193429
C396	C	1.204092	0.571804	0.139904
C397	C	0.570546	-0.061759	-0.606878
C398	C	0.903879	0.271574	-0.273545
C399	C	1.237212	0.604907	0.059789
C400	C	0.603663	-0.028656	-0.633579
C401	C	0.936996	0.304678	-0.300246
C402	C	1.270329	0.638011	0.033087
C403	C	0.636776	0.004447	-0.606866
C404	C	0.970109	0.337781	-0.273533
C405	C	1.303443	0.671114	0.059800
C406	C	0.636775	0.004443	-0.553455
C407	C	0.970108	0.337777	-0.220122
C408	C	1.303441	0.671110	0.113212
C409	C	0.504311	-0.127966	-0.553475
C410	C	0.837645	0.205367	-0.220142
C411	C	1.170978	0.538701	0.113192
C412	C	0.504316	-0.127960	-0.606887
C413	C	0.837649	0.205373	-0.273553
C414	C	1.170982	0.538707	0.059780
C415	C	0.537433	-0.094857	-0.633588
C416	C	0.870766	0.238477	-0.300255
C417	C	1.204099	0.571810	0.033079
N418	N	0.570563	-0.061757	0.120703
N419	N	0.903897	0.271576	0.454036
N420	N	1.237230	0.604909	0.787369
H421	H	0.040652	-0.061481	-0.130246
H422	H	0.373985	0.271853	0.203088
H423	H	0.707318	0.605186	0.536421
O424	O	-0.057458	-0.060430	0.142338
O425	O	0.275876	0.272903	0.475672
O426	O	0.609209	0.606236	0.809005
H427	H	-0.075867	-0.027235	0.144537
H428	H	0.257467	0.306099	0.477870
H429	H	0.590800	0.639432	0.811203
H430	H	0.191907	-0.062977	0.130128
H431	H	0.525240	0.270356	0.463462
H432	H	0.858574	0.603689	0.796795
O433	O	0.047324	-0.061511	0.142343
O434	O	0.380657	0.271822	0.475677
O435	O	0.713991	0.605155	0.809010
H436	H	0.021322	-0.061246	0.174503
H437	H	0.354655	0.272088	0.507837
H438	H	0.687988	0.605421	0.841170
O439	O	0.501716	-0.130572	-0.770391
O440	O	0.835049	0.202761	-0.437058
O441	O	1.168383	0.536095	-0.103725
H442	H	0.478367	-0.110394	-0.746064
H443	H	0.811700	0.222939	-0.412730
H444	H	1.145033	0.556273	-0.079397
O445	O	0.665827	0.090966	-0.000082
O446	O	0.999160	0.424299	0.333251
O447	O	1.332494	0.757633	0.666584
H448	H	0.696213	0.121203	-0.000078
H449	H	1.029546	0.454537	0.333256
H450	H	1.362879	0.787870	0.666589
H451	H	0.630646	-0.001698	-0.874334
H452	H	0.963979	0.331635	-0.541000
H453	H	1.297313	0.664968	-0.207667
H454	H	0.510483	-0.121820	-0.874340
H455	H	0.843816	0.211513	-0.541006
H456	H	1.177150	0.544846	-0.207673
H457	H	0.694908	0.425472	-0.000065
H458	H	1.028241	0.758805	0.333268
H459	H	1.361575	1.092138	0.666601
H460	H	0.332335	-0.064449	0.083880
H461	H	0.665668	0.268885	0.417214
H462	H	0.999002	0.602218	0.750547
O463	O	0.659580	0.706020	-0.000049
O464	O	0.992914	1.039353	0.333284
O465	O	1.326247	1.372686	0.666618
H466	H	0.689965	0.736259	-0.000049
H467	H	1.023298	1.069592	0.333285
H468	H	1.356631	1.402925	0.666618
O469	O	0.658515	0.810811	-0.000046
O470	O	0.991848	1.144144	0.333288
O471	O	1.325182	1.477478	0.666621
H472	H	0.650704	0.849076	-0.000040
H473	H	0.984038	1.182410	0.333294
H474	H	1.317371	1.515743	0.666627
O475	O	0.664767	0.195751	-0.000082
O476	O	0.998101	0.529085	0.333251
O477	O	1.331434	0.862418	0.666585
H478	H	0.695679	0.173984	-0.000096
H479	H	1.029012	0.507318	0.333238
H480	H	1.362346	0.840651	0.666571
H481	H	0.694301	0.485260	-0.000062
H482	H	1.027634	0.818593	0.333271
H483	H	1.360967	1.151926	0.666605
O484	O	0.707555	0.328969	-0.000064
O485	O	1.040888	0.662302	0.333270
O486	O	1.374221	0.995635	0.666603
H487	H	0.737937	0.359209	-0.000058
H488	H	1.071271	0.692542	0.333275
H489	H	1.404604	1.025876	0.666608
O490	O	0.639362	0.007021	-0.118717
O491	O	0.972695	0.340354	0.214617
O492	O	1.306029	0.673688	0.547950
H493	H	0.619187	0.030367	-0.094382
H494	H	0.952520	0.363700	0.238951
H495	H	1.285853	0.697034	0.572285
H496	H	0.477324	-0.154925	-0.371492
H497	H	0.810657	0.178409	-0.038159
H498	H	1.143990	0.511742	0.295175
O499	O	0.476323	0.680694	-0.000026
O500	O	0.809656	1.014027	0.333307
O501	O	1.142989	1.347360	0.666640
H502	H	0.474443	0.657431	-0.034611
H503	H	0.807777	0.990765	0.298722
H504	H	1.141110	1.324098	0.632055
O505	O	0.501693	-0.130593	-0.229763
O506	O	0.835027	0.202740	0.103571
O507	O	1.168360	0.536073	0.436904
H508	H	0.478664	-0.153611	-0.202219
H509	H	0.811997	0.179722	0.131114
H510	H	1.145330	0.513055	0.464447
O511	O	0.672489	0.040153	-0.524648
O512	O	1.005822	0.373486	-0.191314
O513	O	1.339155	0.706819	0.142019
H514	H	0.710126	0.034266	-0.534899
H515	H	1.043459	0.367600	-0.201566
H516	H	1.376792	0.700933	0.131768
H517	H	0.486977	0.780420	-0.000034
H518	H	0.820311	1.113754	0.333300
H519	H	1.153644	1.447087	0.666633
O520	O	0.482574	0.065638	-0.000062
O521	O	0.815907	0.398971	0.333271
O522	O	1.149240	0.732305	0.666604
H523	H	0.480707	0.042380	0.034526
H524	H	0.814041	0.375713	0.367859
H525	H	1.147374	0.709047	0.701193
H526	H	0.510445	-0.121851	-0.125788
H527	H	0.843779	0.211482	0.207545
H528	H	1.177112	0.544815	0.540878
O529	O	0.639373	0.007024	-0.229731
O530	O	0.972707	0.340357	0.103603
O531	O	1.306040	0.673690	0.436936
H532	H	0.662402	0.030032	-0.202177
H533	H	0.995735	0.363365	0.131157
H534	H	1.329068	0.696699	0.464490
O535	O	0.435072	0.396222	-0.000015
O536	O	0.768405	0.729556	0.333319
O537	O	1.101738	1.062889	0.666652
H538	H	0.404690	0.365981	-0.000005
H539	H	0.738023	0.699315	0.333329
H540	H	1.071357	1.032648	0.666662
H541	H	0.423802	-0.065383	0.083880
H542	H	0.757135	0.267951	0.417213
H543	H	1.090469	0.601284	0.750547
H544	H	-0.050809	-0.060543	-0.130243
H545	H	0.282525	0.272791	0.203090
H546	H	0.615858	0.606124	0.536424
O547	O	0.468594	-0.163692	-0.475448
O548	O	0.801927	0.169642	-0.142115
O549	O	1.135261	0.502975	0.191218
H550	H	0.445571	-0.186710	-0.447899
H551	H	0.778905	0.146624	-0.114566
H552	H	1.112238	0.479957	0.218768
H553	H	0.447722	0.299716	-0.000019
H554	H	0.781055	0.633050	0.333314
H555	H	1.114389	0.966383	0.666648
O556	O	0.468597	-0.163667	-0.635697
O557	O	0.801930	0.169667	-0.302364
O558	O	1.135264	0.503000	0.030969
H559	H	0.488771	-0.187016	-0.660029
H560	H	0.822104	0.146317	-0.326696
H561	H	1.155438	0.479650	0.006638
H562	H	0.493226	0.165375	-0.000068
H563	H	0.826559	0.498708	0.333266
H564	H	1.159893	0.832041	0.666599
H565	H	0.693365	0.576720	-0.000055
H566	H	1.026699	0.910054	0.333278
H567	H	1.360032	1.243387	0.666611
H568	H	0.445258	0.542413	-0.000021
H569	H	0.778592	0.875747	0.333313
H570	H	1.111925	1.209080	0.666646
H571	H	0.630646	-0.001700	-0.777425
H572	H	0.963979	0.331633	-0.444092
H573	H	1.297313	0.664966	-0.110759
O574	O	0.434607	0.442689	-0.000033
O575	O	0.767941	0.776022	0.333301
O576	O	1.101274	1.109356	0.666634
H577	H	0.403695	0.464456	-0.000034
H578	H	0.737029	0.797789	0.333299
H579	H	1.070362	1.131122	0.666633
H580	H	0.663743	0.031400	-0.628615
H581	H	0.997076	0.364733	-0.295282
H582	H	1.330410	0.698067	0.038051
O583	O	0.325584	-0.064460	-0.096153
O584	O	0.658917	0.268874	0.237181
O585	O	0.992251	0.602207	0.570514
H586	H	0.339738	-0.031627	-0.118417
H587	H	0.673072	0.301706	0.214916
H588	H	1.006405	0.635039	0.548249
O589	O	0.672485	0.040142	-0.364414
O590	O	1.005819	0.373475	-0.031081
O591	O	1.339152	0.706808	0.302252
H592	H	0.695507	0.063162	-0.391962
H593	H	1.028840	0.396495	-0.058629
H594	H	1.362173	0.729829	0.274704
O595	O	0.468594	-0.163675	-0.524679
O596	O	0.801927	0.169658	-0.191345
O597	O	1.135261	0.502991	0.141988
H598	H	0.445574	-0.186693	-0.552232
H599	H	0.778907	0.146640	-0.218899
H600	H	1.112241	0.479973	0.114435
O601	O	0.198547	-0.063101	-0.142467
O602	O	0.531881	0.270233	0.190866
O603	O	0.865214	0.603566	0.524200
H604	H	0.237839	-0.063505	-0.134703
H605	H	0.571173	0.269828	0.198630
H606	H	0.904506	0.603162	0.531964
H607	H	0.663740	0.031395	-0.468368
H608	H	0.997074	0.364728	-0.135034
H609	H	1.330407	0.698062	0.198299
O610	O	0.430454	-0.065479	-0.096196
O611	O	0.763787	0.267854	0.237137
O612	O	1.097121	0.601187	0.570471
H613	H	0.469745	-0.065887	-0.088427
H614	H	0.803078	0.267447	0.244906
H615	H	1.136411	0.600780	0.578239
O616	O	0.093725	-0.062065	-0.142442
O617	O	0.427058	0.271268	0.190892
O618	O	0.760391	0.604602	0.524225
H619	H	0.107916	-0.029223	-0.164672
H620	H	0.441249	0.304111	0.168661
H621	H	0.774583	0.637444	0.501994
O622	O	-0.184590	-0.059184	-0.096222
O623	O	0.148743	0.274149	0.237111
O624	O	0.482076	0.607482	0.570445
H625	H	-0.210593	-0.058924	-0.128385
H626	H	0.122740	0.274410	0.204948
H627	H	0.456073	0.607743	0.538282
H628	H	-0.282721	-0.058173	-0.083996
H629	H	0.050613	0.275160	0.249338
H630	H	0.383946	0.608494	0.582671
H631	H	-0.282705	-0.058155	0.083855
H632	H	0.050628	0.275178	0.417188
H633	H	0.383961	0.608512	0.750521
H634	H	0.100456	-0.062044	0.130128
H635	H	0.433789	0.271289	0.463462
H636	H	0.767123	0.604622	0.796795
O637	O	-0.184589	-0.059151	0.096085
O638	O	0.148745	0.274183	0.429419
O639	O	0.482078	0.607516	0.762752
H640	H	-0.210592	-0.058887	0.128245
H641	H	0.122742	0.274446	0.461578
H642	H	0.456075	0.607780	0.794912
