data_functionalizedCrystal
_audit_creation_method	'MofGen! by Chris Wilmer'
_symmetry_space_group_name_H-M	'P1'
_symmetry_Int_Tables_number	1
_symmetry_cell_setting	triclinic
loop_
_symmetry_equiv_pos_as_xyz
  x,y,z
_cell_length_a	14.971506
_cell_length_b	15.944551
_cell_length_c	13.448316
_cell_angle_alpha	89.992444
_cell_angle_beta	89.992937
_cell_angle_gamma	83.560563
loop_
_atom_site_label
_atom_site_type_symbol
_atom_site_fract_x
_atom_site_fract_y
_atom_site_fract_z
O1	O	1.186818	0.109544	-0.082701
O2	O	0.926406	0.122635	-0.082702
O3	O	1.063723	-0.006178	-0.082692
O4	O	1.049501	0.238357	-0.082710
O5	O	1.063706	-0.006186	0.082691
O6	O	0.926389	0.122627	0.082682
O7	O	1.186801	0.109536	0.082683
Cu8	Cu	1.056593	0.116081	0.097783
Cu9	Cu	1.056614	0.116090	-0.097802
O10	O	1.049484	0.238349	0.082673
C11	C	0.893074	0.122043	-0.000010
C12	C	0.793780	0.120279	-0.000010
C13	C	0.355423	0.189224	-0.000025
C14	C	0.448721	0.190875	-0.000029
C15	C	0.506023	0.115192	-0.000019
C16	C	0.470022	0.037854	-0.000015
C17	C	0.376725	0.036205	-0.000018
C18	C	0.664481	0.041298	-0.000007
C19	C	0.757784	0.042947	-0.000003
C20	C	0.736477	0.195968	-0.000019
C21	C	0.643180	0.194318	-0.000021
C22	C	0.607186	0.116980	-0.000015
C23	C	1.063124	-0.037476	-0.000000
C24	C	1.061354	-0.130724	0.000000
C25	C	0.972008	-0.345672	-0.000014
C26	C	1.013489	-0.406651	0.081531
C27	C	1.058152	-0.301453	-0.000007
C28	C	1.013526	-0.406627	-0.081525
C29	C	1.055052	-0.466369	-0.000019
C30	C	1.099657	-0.361204	0.081604
C31	C	1.099682	-0.361173	-0.081524
C32	C	1.141226	-0.422135	0.000040
C33	C	1.059935	-0.206449	0.000000
C34	C	1.053276	-0.561372	-0.000020
C35	C	1.220133	0.110129	-0.000011
C36	C	1.319427	0.111892	-0.000018
C37	C	1.050083	0.269648	-0.000021
C38	C	1.051853	0.362896	-0.000028
N39	N	1.056585	0.116074	0.235348
N40	N	1.056629	0.116091	-0.235367
C41	C	1.117408	0.059059	0.287392
C42	C	1.117414	0.059058	0.391495
C43	C	1.056600	0.116077	0.443552
C44	C	0.995771	0.173095	0.391500
C45	C	0.995762	0.173091	0.287399
C46	C	0.995796	0.173100	0.608480
C47	C	0.995806	0.173106	0.712589
C48	C	1.117448	0.059068	0.712577
C49	C	1.117439	0.059064	0.608475
C50	C	1.056610	0.116083	0.556431
H51	H	0.516684	-0.023768	-0.000013
C52	C	1.184306	-0.003664	0.230135
C53	C	1.149353	-0.067963	0.158590
C54	C	1.216250	-0.130691	0.101336
C55	C	1.318101	-0.129119	0.115628
C56	C	1.353059	-0.064818	0.187176
C57	C	1.286161	-0.002090	0.244430
H58	H	1.073953	-0.069129	0.148008
H59	H	1.190372	-0.178291	0.048372
H60	H	1.367622	-0.175554	0.073245
H61	H	1.428459	-0.063652	0.197759
H62	H	1.312040	0.045510	0.297395
C63	C	0.964260	-0.433878	0.174660
C64	C	0.924992	-0.367158	0.250279
C65	C	0.875756	-0.394380	0.343404
C66	C	0.865787	-0.488324	0.360909
C67	C	0.905056	-0.555050	0.285288
C68	C	0.954292	-0.527827	0.192163
H69	H	0.932370	-0.297610	0.237323
H70	H	0.846687	-0.344984	0.399384
H71	H	0.829340	-0.508475	0.429846
H72	H	0.897677	-0.624598	0.298245
H73	H	0.983361	-0.577223	0.136184
H74	H	0.946284	0.219536	0.754968
H75	H	0.347420	-0.026767	-0.000014
C76	C	0.875415	-0.300767	0.000090
C77	C	0.811321	-0.315080	0.086478
C78	C	0.714731	-0.270173	0.086587
C79	C	0.682236	-0.210953	0.000308
C80	C	0.746332	-0.196638	-0.086087
C81	C	0.842921	-0.241544	-0.086196
H82	H	0.835375	-0.358920	0.150353
H83	H	0.667284	-0.280771	0.150543
H84	H	0.610735	-0.177711	0.000388
H85	H	0.722278	-0.152797	-0.149962
H86	H	0.890368	-0.230947	-0.150152
H87	H	0.478023	0.253846	-0.000045
H88	H	0.765788	0.258939	-0.000023
C89	C	1.148825	-0.334161	0.174844
C90	C	1.159544	-0.240340	0.192102
C91	C	1.208707	-0.213294	0.285342
C92	C	1.247151	-0.280070	0.361324
C93	C	1.236432	-0.373896	0.344068
C94	C	1.187269	-0.400942	0.250828
H95	H	1.131085	-0.190904	0.135854
H96	H	1.216642	-0.143837	0.298115
H97	H	1.283544	-0.260049	0.430346
H98	H	1.264891	-0.423333	0.400316
H99	H	1.179334	-0.470399	0.238055
H100	H	0.308773	0.250854	-0.000026
C101	C	0.580148	0.277569	-0.000028
C102	C	0.584195	0.340919	-0.085914
C103	C	0.521163	0.424171	-0.085922
C104	C	0.454086	0.444074	-0.000044
C105	C	0.450036	0.380724	0.085848
C106	C	0.513068	0.297471	0.085856
H107	H	0.633852	0.326186	-0.149491
H108	H	0.524161	0.471067	-0.149505
H109	H	0.407426	0.505703	-0.000050
H110	H	0.400379	0.395456	0.149426
H111	H	0.510070	0.250575	0.149440
C112	C	0.820822	-0.040300	0.000002
C113	C	0.816777	-0.103658	0.085879
C114	C	0.879818	-0.186905	0.085884
C115	C	0.946903	-0.206794	0.000010
C116	C	0.950951	-0.143436	-0.085874
C117	C	0.887911	-0.060189	-0.085878
H118	H	0.767114	-0.088935	0.149453
H119	H	0.876821	-0.233807	0.149461
H120	H	0.993570	-0.268419	0.000014
H121	H	1.000615	-0.158158	-0.149448
H122	H	0.890908	-0.013286	-0.149456
C123	C	1.148872	-0.333914	-0.174658
C124	C	1.112721	-0.351522	-0.278900
C125	C	1.161903	-0.324259	-0.372043
C126	C	1.247235	-0.279388	-0.360944
C127	C	1.283391	-0.261778	-0.256698
C128	C	1.234209	-0.289041	-0.163555
H129	H	1.049549	-0.384740	-0.287120
H130	H	1.135137	-0.337295	-0.449213
H131	H	1.283642	-0.259206	-0.429894
H132	H	1.346563	-0.228559	-0.248478
H133	H	1.260974	-0.276004	-0.086385
C134	C	0.964300	-0.433810	-0.174656
C135	C	0.865262	-0.399699	-0.192546
C136	C	0.816029	-0.426879	-0.285672
C137	C	0.865834	-0.488170	-0.360908
C138	C	0.964877	-0.522285	-0.343020
C139	C	1.014110	-0.495105	-0.249894
H140	H	0.828389	-0.354324	-0.136850
H141	H	0.742711	-0.401624	-0.298913
H142	H	0.829389	-0.508290	-0.429845
H143	H	1.001751	-0.567660	-0.398716
H144	H	1.087429	-0.520360	-0.236653
H145	H	0.946260	0.219529	0.566109
H146	H	0.635178	-0.021679	-0.000007
H147	H	1.166940	0.012632	0.433869
C148	C	1.184333	-0.003655	0.551207
C149	C	1.149374	-0.067948	0.479659
C150	C	1.216267	-0.130668	0.422390
C151	C	1.318118	-0.129095	0.436668
C152	C	1.353082	-0.064799	0.508220
C153	C	1.286190	-0.002079	0.565489
H154	H	1.073973	-0.069114	0.469086
H155	H	1.190383	-0.178264	0.369422
H156	H	1.367636	-0.175524	0.394274
H157	H	1.428484	-0.063633	0.518793
H158	H	1.312073	0.045517	0.618457
C159	C	1.184356	-0.003656	0.769824
C160	C	1.149417	-0.067955	0.841409
C161	C	1.216326	-0.130673	0.898663
C162	C	1.318173	-0.129092	0.884331
C163	C	1.353118	-0.064791	0.812742
C164	C	1.286209	-0.002073	0.755489
H165	H	1.074019	-0.069127	0.852022
H166	H	1.190457	-0.178273	0.951658
H167	H	1.367703	-0.175520	0.926714
H168	H	1.428516	-0.063619	0.802130
H169	H	1.312078	0.045527	0.702494
H170	H	0.946251	0.219518	0.433891
H171	H	0.946232	0.219517	0.245025
H172	H	1.212792	-0.455220	0.000086
