data_functionalizedCrystal
_audit_creation_method	'MofGen! by Chris Wilmer'
_symmetry_space_group_name_H-M	'P1'
_symmetry_Int_Tables_number	1
_symmetry_cell_setting	triclinic
loop_
_symmetry_equiv_pos_as_xyz
  x,y,z
_cell_length_a	10.723023
_cell_length_b	10.654550
_cell_length_c	9.730223
_cell_angle_alpha	90.000193
_cell_angle_beta	90.000239
_cell_angle_gamma	95.523775
loop_
_atom_site_label
_atom_site_type_symbol
_atom_site_fract_x
_atom_site_fract_y
_atom_site_fract_z
O1	O	1.657208	-0.176139	-0.114272
O2	O	1.294058	-0.193001	-0.114278
O3	O	1.483983	-0.001830	-0.114270
O4	O	1.467283	-0.367311	-0.114280
O5	O	1.483980	-0.001835	0.114310
O6	O	1.294056	-0.193006	0.114302
O7	O	1.657206	-0.176144	0.114308
Zn8	Zn	1.475630	-0.184576	0.150597
Zn9	Zn	1.475633	-0.184570	-0.150567
O10	O	1.467281	-0.367316	0.114300
C11	C	1.247557	-0.191777	0.000012
C12	C	1.109002	-0.188106	0.000010
C13	C	1.047229	-0.186472	0.118420
C14	C	0.904025	-0.182678	0.118420
C15	C	1.482755	0.044966	0.000019
C16	C	1.479087	0.184408	0.000014
C17	C	1.703707	-0.177369	0.000016
C18	C	1.842262	-0.181039	0.000009
C19	C	1.468508	-0.414111	0.000009
C20	C	1.472177	-0.553554	0.000004
N21	N	1.475638	-0.184580	0.356134
C22	C	1.590911	0.263911	0.000020
C23	C	1.587457	0.394931	0.000010
C24	C	1.360344	0.366933	-0.000006
C25	C	1.363800	0.235915	-0.000006
C26	C	1.722034	0.280077	0.000035
C27	C	1.718579	0.411097	0.000025
N28	N	1.475636	-0.184556	-0.356103
C29	C	1.559758	-0.099958	0.428063
C30	C	1.559755	-0.099942	0.571946
C31	C	1.391507	-0.269182	0.571957
C32	C	1.391505	-0.269190	0.428077
C33	C	1.656899	-0.002252	0.428058
C34	C	1.656895	-0.002237	0.571941
H35	H	0.850901	-0.181280	0.219796
H36	H	0.895376	-0.182452	-0.101372
C37	C	1.864862	-0.048887	0.512744
C38	C	1.786347	-0.031260	0.624673
H39	H	1.944774	-0.066809	0.545302
H40	H	1.873720	0.025557	0.458506
H41	H	1.829346	-0.117382	0.458528
H42	H	1.821859	0.037241	0.678884
H43	H	1.777493	-0.105713	0.678933
H44	H	1.626577	0.088981	0.616558
C45	C	1.138964	0.221407	-0.000029
C46	C	1.240879	0.148524	-0.000020
H47	H	1.063076	0.167452	-0.000029
H48	H	1.142348	0.273087	-0.079735
H49	H	1.142342	0.273095	0.079688
H50	H	1.237506	0.096843	-0.079742
H51	H	1.237493	0.096822	0.079694
C52	C	1.254202	0.555343	-0.000016
C53	C	1.233624	0.423555	-0.000015
H54	H	1.175967	0.590294	-0.000012
H55	H	1.300287	0.582555	-0.079721
H56	H	1.300292	0.582557	0.079702
H57	H	1.187542	0.396341	-0.079738
H58	H	1.187520	0.396332	0.079698
H59	H	1.773321	0.250729	-0.095618
H60	H	1.100361	-0.187875	0.219795
C61	C	1.910047	0.439052	0.129175
C62	C	1.785251	0.467496	0.129164
H63	H	1.951197	0.473867	0.208902
H64	H	1.951199	0.473846	0.049469
H65	H	1.912376	0.350150	0.129186
H66	H	1.782922	0.556399	0.129143
H67	H	1.744088	0.432708	0.208891
H68	H	1.323007	-0.338069	0.630549
C69	C	0.949338	-0.292000	-0.144358
C70	C	1.037291	-0.186208	-0.136853
H71	H	0.905076	-0.290830	-0.228858
H72	H	0.892033	-0.290471	-0.070078
H73	H	0.991263	-0.366447	-0.139248
H74	H	0.995366	-0.111760	-0.141952
H75	H	1.094604	-0.187725	-0.211153
H76	H	1.758207	0.456748	-0.098669
C77	C	1.884843	0.171244	0.102043
C78	C	1.778334	0.232122	0.133373
H79	H	1.919571	0.141677	0.184395
H80	H	1.945005	0.228816	0.057731
H81	H	1.862179	0.101938	0.042770
H82	H	1.801000	0.301434	0.192637
H83	H	1.718160	0.174546	0.177706
H84	H	1.322997	-0.338085	0.369513
H85	H	1.635592	0.094277	0.389006
H86	H	1.747501	-0.032827	0.383432
