data_functionalizedCrystal
_audit_creation_method	'MofGen! by Chris Wilmer'
_symmetry_space_group_name_H-M	'P1'
_symmetry_Int_Tables_number	1
_symmetry_cell_setting	triclinic
loop_
_symmetry_equiv_pos_as_xyz
  x,y,z
_cell_length_a	15.297475
_cell_length_b	18.050590
_cell_length_c	15.296720
_cell_angle_alpha	99.643572
_cell_angle_beta	91.617114
_cell_angle_gamma	80.320920
loop_
_atom_site_label
_atom_site_type_symbol
_atom_site_fract_x
_atom_site_fract_y
_atom_site_fract_z
Zn1	Zn	1.253450	-0.577990	-0.726578
Zn2	Zn	1.753450	-0.077990	-0.226578
Zn3	Zn	1.278722	-0.684928	-0.580090
Zn4	Zn	1.778722	-0.184928	-0.080090
Zn5	Zn	1.132324	-0.536269	-0.554820
Zn6	Zn	1.632324	-0.036269	-0.054820
Zn7	Zn	1.106947	-0.677628	-0.701219
Zn8	Zn	1.606947	-0.177628	-0.201219
O9	O	1.192861	-0.619204	-0.640677
O10	O	1.692861	-0.119204	-0.140677
O11	O	1.379382	-0.612691	-0.728334
O12	O	1.879382	-0.112691	-0.228334
O13	O	1.280498	-0.650803	-0.454164
O14	O	1.780498	-0.150803	0.045836
O15	O	1.148436	-0.437891	-0.577642
O16	O	1.648436	0.062109	-0.077642
O17	O	1.397949	-0.691258	-0.620710
O18	O	1.897949	-0.191258	-0.120710
O19	O	1.237426	-0.468543	-0.703832
O20	O	1.737426	0.031457	-0.203832
O21	O	1.172941	-0.541584	-0.435598
O22	O	1.672941	-0.041584	0.064402
O23	O	1.006378	-0.534505	-0.553052
O24	O	1.506378	-0.034505	-0.053052
O25	O	1.105185	-0.678816	-0.827157
O26	O	1.605185	-0.178816	-0.327157
O27	O	0.987734	-0.638361	-0.660610
O28	O	1.487734	-0.138361	-0.160610
O29	O	1.212819	-0.605613	-0.845788
O30	O	1.712819	-0.105613	-0.345788
O31	O	1.255891	-0.787873	-0.596120
O32	O	1.755891	-0.287873	-0.096120
O33	O	1.129689	-0.782509	-0.685113
O34	O	1.629689	-0.282509	-0.185113
C35	C	0.965272	-0.581114	-0.601338
C36	C	1.465272	-0.081114	-0.101338
C37	C	0.867905	-0.564840	-0.584529
C38	C	1.367905	-0.064840	-0.084529
C39	C	1.192799	-0.812141	-0.640630
C40	C	1.692799	-0.312141	-0.140630
C41	C	1.192848	-0.894697	-0.640653
C42	C	1.692848	-0.394697	-0.140653
C43	C	0.554774	-0.735526	-0.760813
C44	C	1.054774	-0.235526	-0.260813
C45	C	0.646255	-0.750822	-0.776603
C46	C	1.146255	-0.250822	-0.276603
C47	C	0.701672	-0.704328	-0.728586
C48	C	1.201672	-0.204328	-0.228586
C49	C	0.665599	-0.642535	-0.664776
C50	C	1.165599	-0.142535	-0.164776
C51	C	0.574109	-0.627241	-0.648979
C52	C	1.074109	-0.127241	-0.148979
C53	C	0.721008	-0.596043	-0.616753
C54	C	1.221008	-0.096043	-0.116753
C55	C	0.684934	-0.534250	-0.552942
C56	C	1.184934	-0.034250	-0.052942
C57	C	0.593453	-0.518959	-0.537149
C58	C	1.093453	-0.018959	-0.037149
C59	C	0.538037	-0.565453	-0.585166
C60	C	1.038037	-0.065453	-0.085166
C61	C	0.812497	-0.611337	-0.632549
C62	C	1.312497	-0.111337	-0.132549
C63	C	0.831833	-0.503052	-0.520715
C64	C	1.331833	-0.003052	-0.020715
C65	C	0.740351	-0.487756	-0.504925
C66	C	1.240351	0.012244	-0.004925
C67	C	1.261584	-1.097067	-0.592362
C68	C	1.761584	-0.597067	-0.092362
C69	C	1.269139	-1.159389	-0.675998
C70	C	1.769139	-0.659389	-0.175998
C71	C	1.192892	-1.045840	-0.640697
C72	C	1.692892	-0.545840	-0.140697
C73	C	1.185420	-1.130619	-0.557112
C74	C	1.685420	-0.630619	-0.057112
C75	C	1.192937	-1.191836	-0.640732
C76	C	1.692937	-0.691836	-0.140732
C77	C	1.200481	-1.107086	-0.724382
C78	C	1.700481	-0.607086	-0.224382
C79	C	1.116734	-1.078299	-0.605436
C80	C	1.616734	-0.578299	-0.105436
C81	C	1.124248	-1.140600	-0.689122
C82	C	1.624248	-0.640600	-0.189122
C83	C	1.192868	-0.961735	-0.640676
C84	C	1.692868	-0.461735	-0.140676
C85	C	1.192959	-1.275940	-0.640762
C86	C	1.692959	-0.775940	-0.140762
C87	C	1.421338	-0.657443	-0.680170
C88	C	1.921338	-0.157443	-0.180170
C89	C	1.518701	-0.673738	-0.697000
C90	C	2.018701	-0.173738	-0.197000
C91	C	1.153352	-0.646054	-0.869143
C92	C	1.653352	-0.146054	-0.369143
C93	C	1.136516	-0.657496	-0.966502
C94	C	1.636516	-0.157496	-0.466502
C95	C	1.192943	-0.425520	-0.640747
C96	C	1.692943	0.074480	-0.140747
C97	C	1.192978	-0.342983	-0.640776
C98	C	1.692978	0.157017	-0.140776
C99	C	1.313224	-0.537303	-1.279743
C100	C	1.813224	-0.037303	-0.779743
C101	C	1.329048	-0.526555	-1.188271
C102	C	1.829048	-0.026555	-0.688271
C103	C	1.280916	-0.559289	-1.132824
C104	C	1.780916	-0.059289	-0.632824
C105	C	1.216958	-0.602773	-1.168859
C106	C	1.716958	-0.102773	-0.668859
C107	C	1.201138	-0.613527	-1.260341
C108	C	1.701138	-0.113527	-0.760341
C109	C	1.168830	-0.635513	-1.113422
C110	C	1.668830	-0.135513	-0.613422
C111	C	1.104872	-0.678998	-1.149457
C112	C	1.604872	-0.178998	-0.649457
C113	C	1.089053	-0.689749	-1.240930
C114	C	1.589053	-0.189749	-0.740930
C115	C	1.137185	-0.657015	-1.296377
C116	C	1.637185	-0.157015	-0.796377
C117	C	1.184650	-0.624759	-1.021940
C118	C	1.684650	-0.124759	-0.521940
C119	C	1.072564	-0.700984	-1.002538
C120	C	1.572564	-0.200984	-0.502538
C121	C	1.056740	-0.711732	-1.094010
C122	C	1.556740	-0.211732	-0.594010
C123	C	1.232266	-0.592413	-0.413108
C124	C	1.732266	-0.092413	0.086892
C125	C	1.249272	-0.580791	-0.315779
C126	C	1.749272	-0.080791	0.184221
H127	H	0.841859	-0.661649	-0.684505
H128	H	1.341859	-0.161649	-0.184505
H129	H	1.236725	-0.589353	-0.992609
H130	H	1.736725	-0.089353	-0.492609
H131	H	1.319683	-1.077874	-0.551540
H132	H	1.819683	-0.577874	-0.051540
H133	H	1.206743	-1.096403	-0.795131
H134	H	1.706743	-0.596403	-0.295131
H135	H	1.381125	-0.491152	-1.158938
H136	H	1.881125	0.008848	-0.658938
C137	C	0.437398	-0.548621	-0.567813
C138	C	0.937398	-0.048621	-0.067813
N139	N	0.361594	-0.535942	-0.554749
N140	N	0.861594	-0.035942	-0.054749
C141	C	1.045781	-1.166370	-0.744438
C142	C	1.545781	-0.666370	-0.244438
N143	N	0.986682	-1.185780	-0.786104
N144	N	1.486682	-0.685780	-0.286104
H145	H	1.052334	-1.043186	-0.575572
H146	H	1.552334	-0.543186	-0.075572
C147	C	1.176851	-1.145164	-0.461595
C148	C	1.676851	-0.645164	0.038405
N149	N	1.170403	-1.156117	-0.389651
N150	N	1.670403	-0.656117	0.110349
H151	H	0.564087	-0.468650	-0.485181
H152	H	1.064087	0.031350	0.014819
C153	C	1.298318	-0.547457	-1.032201
C154	C	1.798318	-0.047457	-0.532201
N155	N	1.311424	-0.538539	-0.956407
N156	N	1.811424	-0.038539	-0.456407
C157	C	1.366157	-0.501296	-1.340738
C158	C	1.866157	-0.001296	-0.840738
N159	N	1.406027	-0.474172	-1.386681
N160	N	1.906027	0.025828	-0.886681
C161	C	0.700659	-0.419788	-0.434732
C162	C	1.200659	0.080212	0.065268
N163	N	0.670761	-0.368595	-0.381862
N164	N	1.170761	0.131405	0.118138
C165	C	1.356171	-1.206808	-0.716312
C166	C	1.856171	-0.706808	-0.216312
N167	N	1.421726	-1.242523	-0.746670
N168	N	1.921726	-0.742523	-0.246670
H169	H	0.776160	-0.716785	-0.741447
H170	H	1.276160	-0.216785	-0.241447
H171	H	1.033372	-0.727640	-0.957393
H172	H	1.533372	-0.227640	-0.457393
H173	H	1.036982	-0.725165	-1.270267
H174	H	1.536982	-0.225165	-0.770267
C175	C	0.986386	-0.759562	-1.133660
C176	C	1.486386	-0.259562	-0.633660
N177	N	0.933394	-0.795587	-1.163526
N178	N	1.433394	-0.295587	-0.663526
C179	C	0.685930	-0.818793	-0.846790
C180	C	1.185930	-0.318793	-0.346790
N181	N	0.715812	-0.869993	-0.899659
N182	N	1.215812	-0.369993	-0.399659
C183	C	0.892787	-0.451903	-0.467895
C184	C	1.392787	0.048097	0.032105
N185	N	0.938704	-0.413381	-0.428115
N186	N	1.438704	0.086619	0.071885
C187	C	0.493811	-0.786664	-0.813620
C188	C	0.993811	-0.286664	-0.313620
N189	N	0.447892	-0.825185	-0.853398
N190	N	0.947892	-0.325185	-0.353398
C191	C	1.119794	-0.668848	-1.397006
C192	C	1.619794	-0.168848	-0.897006
N193	N	1.106703	-0.677765	-1.472802
N194	N	1.606703	-0.177765	-0.972802
