data_functionalizedCrystal
_audit_creation_method	'MofGen! by Chris Wilmer'
_symmetry_space_group_name_H-M	'P1'
_symmetry_Int_Tables_number	1
_symmetry_cell_setting	triclinic
loop_
_symmetry_equiv_pos_as_xyz
  x,y,z
_cell_length_a	15.944551
_cell_length_b	9.065218
_cell_length_c	15.021413
_cell_angle_alpha	89.991561
_cell_angle_beta	90.001324
_cell_angle_gamma	84.257312
loop_
_atom_site_label
_atom_site_type_symbol
_atom_site_fract_x
_atom_site_fract_y
_atom_site_fract_z
O1	O	0.123153	1.957530	-0.074059
O2	O	0.133255	1.528009	-0.074056
O3	O	0.006018	1.754499	-0.074050
O4	O	0.250390	1.731040	-0.074065
O5	O	0.006032	1.754464	0.074015
O6	O	0.133269	1.527975	0.074008
O7	O	0.123167	1.957496	0.074005
Zn8	Zn	0.128220	1.742730	0.097515
Zn9	Zn	0.128202	1.742775	-0.097566
O10	O	0.250404	1.731006	0.073999
C11	C	-0.025276	1.753508	-0.000017
C12	C	-0.118544	1.750588	-0.000017
C13	C	0.124131	2.012477	-0.000030
C14	C	0.127034	2.176252	-0.000037
C15	C	0.132291	1.473028	-0.000023
C16	C	0.129388	1.309253	-0.000022
C17	C	-0.334518	1.603221	-0.000028
C18	C	-0.395010	1.671636	0.072976
C19	C	-0.289310	1.745306	-0.000024
C20	C	-0.395006	1.671704	-0.073003
C21	C	-0.454262	1.740194	-0.000034
C22	C	-0.348574	1.813761	0.073041
C23	C	-0.348565	1.813809	-0.073005
C24	C	-0.409038	1.882327	0.000017
C25	C	-0.194286	1.748247	-0.000017
C26	C	-0.549285	1.737264	-0.000034
C27	C	0.281698	1.731997	-0.000035
C28	C	0.374966	1.734917	-0.000042
N29	N	0.128232	1.742709	0.230653
N30	N	0.128183	1.742807	-0.230703
C31	C	0.187539	1.638848	0.529665
C32	C	0.111644	1.608996	0.470311
C33	C	0.128198	1.742774	0.587690
C34	C	0.204107	1.772524	0.470302
C35	C	0.128219	1.742738	0.412266
C36	C	0.052264	1.712855	0.529642
C37	C	0.144778	1.876442	0.529638
C38	C	0.068828	1.846646	0.470311
C39	C	0.128187	1.742791	0.688747
C40	C	0.128221	1.742722	0.311210
H41	H	-0.302103	1.485283	0.000046
F42	F	-0.451212	2.036614	0.000067
H43	H	0.158823	1.989461	0.555720
H44	H	-0.327985	1.873868	-0.134728
F45	F	-0.421881	1.593070	0.153650
H46	H	0.237654	1.550917	0.555725
H47	H	0.097627	1.495942	0.444245
H48	H	-0.415545	1.611603	-0.134727
F49	F	0.003178	1.961509	0.436462
H50	H	-0.328123	1.873792	0.134828
F51	F	-0.031653	1.679776	0.563566
H52	H	0.268297	1.797723	0.444252
