data_functionalizedCrystal
_audit_creation_method	'MofGen! by Chris Wilmer'
_symmetry_space_group_name_H-M	'P1'
_symmetry_Int_Tables_number	1
_symmetry_cell_setting	triclinic
loop_
_symmetry_equiv_pos_as_xyz
  x,y,z
_cell_length_a	12.827893
_cell_length_b	16.959453
_cell_length_c	12.827885
_cell_angle_alpha	90.031340
_cell_angle_beta	89.980919
_cell_angle_gamma	89.974054
loop_
_atom_site_label
_atom_site_type_symbol
_atom_site_fract_x
_atom_site_fract_y
_atom_site_fract_z
Zn1	Zn	1.597593	0.314644	-0.590832
Zn2	Zn	1.597455	0.446843	-0.416088
Zn3	Zn	1.422834	0.314682	-0.416106
Zn4	Zn	1.422787	0.446784	-0.590788
O5	O	1.510167	0.380738	-0.503454
O6	O	1.743810	0.332189	-0.567662
O7	O	1.574253	0.429352	-0.269854
O8	O	1.446094	0.204066	-0.439310
O9	O	1.743709	0.429315	-0.439278
O10	O	1.574488	0.204038	-0.567680
O11	O	1.445960	0.332255	-0.269868
O12	O	1.276592	0.332197	-0.439268
O13	O	1.446014	0.429215	-0.737030
O14	O	1.276557	0.429252	-0.567606
O15	O	1.574443	0.332132	-0.737062
O16	O	1.574207	0.557446	-0.439236
O17	O	1.445880	0.557403	-0.567588
C18	C	1.238657	0.380723	-0.503435
C19	C	1.122504	0.380736	-0.503451
C20	C	1.070669	0.428723	-0.439838
C21	C	0.950619	0.428737	-0.439854
C22	C	1.510052	0.586105	-0.503428
C23	C	1.510098	0.673961	-0.503452
C24	C	1.443250	0.715242	-0.570234
C25	C	1.576996	0.715234	-0.436698
C26	C	1.577045	0.797780	-0.436722
C27	C	1.510197	0.839061	-0.503504
C28	C	1.443299	0.797795	-0.570262
C29	C	1.643949	0.839052	-0.369972
C30	C	1.644003	0.921603	-0.369995
C31	C	1.577148	0.962885	-0.436772
C32	C	1.510247	0.921614	-0.503532
C33	C	1.443399	0.962895	-0.570314
C34	C	1.376492	0.921626	-0.637070
C35	C	1.376445	0.839077	-0.637040
C36	C	1.577195	1.045433	-0.436802
C37	C	1.443449	1.045448	-0.570343
C38	C	1.782737	0.380754	-0.503473
C39	C	1.898890	0.380761	-0.503482
C40	C	1.510238	0.380663	-0.776024
C41	C	1.510269	0.380630	-0.892177
C42	C	1.510305	1.174570	-0.503518
C43	C	1.510347	1.086714	-0.503585
C44	C	1.573826	0.332581	-0.943978
C45	C	1.573859	0.332547	-1.064028
C46	C	1.510156	0.380757	-0.231944
C47	C	1.510329	0.380567	-0.115791
H48	H	1.078005	0.339665	-0.557927
C49	C	0.916743	0.562517	-0.388679
C50	C	0.890455	0.484204	-0.366328
H51	H	0.879603	0.596759	-0.343280
H52	H	0.898928	0.574131	-0.458875
H53	H	0.989527	0.569774	-0.379021
H54	H	0.817671	0.476945	-0.375992
H55	H	0.908263	0.472586	-0.296114
C56	C	1.495827	0.486838	-1.015019
C57	C	1.436843	0.436138	-0.952273
H58	H	1.450495	0.521111	-1.052111
H59	H	1.535692	0.456687	-1.063072
H60	H	1.541286	0.517110	-0.972423
H61	H	1.391389	0.405861	-0.994871
H62	H	1.396960	0.466292	-0.904215
H63	H	1.628212	0.291467	-0.899449
H64	H	1.698481	0.955197	-0.315637
H65	H	1.455916	0.421708	-1.071250
C66	C	1.238032	0.473424	-0.380512
C67	C	1.130731	0.484172	-0.366295
H68	H	1.275107	0.507654	-0.335102
H69	H	1.255889	0.485044	-0.450704
H70	H	1.255871	0.420284	-0.365355
H71	H	1.112890	0.537310	-0.381460
H72	H	1.112866	0.472557	-0.296086
C73	C	1.021819	0.369975	-0.643952
C74	C	0.959049	0.325295	-0.577013
H75	H	1.058958	0.335732	-0.689350
H76	H	1.069830	0.400063	-0.604029
H77	H	0.979232	0.404424	-0.683885
H78	H	1.001637	0.290850	-0.537074
H79	H	0.911033	0.295194	-0.616940
C80	C	1.311240	1.037163	-0.702340
C81	C	1.369968	1.090821	-0.643757
H82	H	1.265882	1.065176	-0.747666
H83	H	1.271275	1.005027	-0.656758
H84	H	1.356735	1.004905	-0.742340
H85	H	1.324473	1.123075	-0.603750
H86	H	1.409936	1.122970	-0.689345
C87	C	1.316998	0.712541	-0.696299
C88	C	1.302915	0.793713	-0.710421
H89	H	1.271610	0.684535	-0.741609
H90	H	1.301735	0.699068	-0.626076
H91	H	1.387200	0.698968	-0.711653
H92	H	1.232715	0.807287	-0.695060
H93	H	1.318171	0.807191	-0.780661
H94	H	1.322069	0.955247	-0.691449
C95	C	1.588369	0.226269	-1.186915
C96	C	1.647318	0.277005	-1.124152
H97	H	1.633722	0.191975	-1.224027
H98	H	1.548530	0.256392	-1.234949
H99	H	1.542887	0.196020	-1.144326
H100	H	1.692795	0.307258	-1.166742
H101	H	1.687175	0.246879	-1.076113
H102	H	1.388772	0.681639	-0.624582
C103	C	1.709398	1.037130	-0.304813
C104	C	1.650730	1.090796	-0.363432
H105	H	1.754792	1.065136	-0.259510
H106	H	1.749320	1.004882	-0.350375
H107	H	1.663865	1.004984	-0.264787
H108	H	1.696263	1.122937	-0.403464
H109	H	1.610805	1.123057	-0.317864
H110	H	1.631427	0.681621	-0.382331
H111	H	1.698381	0.805438	-0.315606
