data_functionalizedCrystal
_audit_creation_method	'MofGen! by Chris Wilmer'
_symmetry_space_group_name_H-M	'P1'
_symmetry_Int_Tables_number	1
_symmetry_cell_setting	triclinic
loop_
_symmetry_equiv_pos_as_xyz
  x,y,z
_cell_length_a	11.169417
_cell_length_b	15.297510
_cell_length_c	11.169409
_cell_angle_alpha	99.641876
_cell_angle_beta	90.019824
_cell_angle_gamma	80.290975
loop_
_atom_site_label
_atom_site_type_symbol
_atom_site_fract_x
_atom_site_fract_y
_atom_site_fract_z
Zn1	Zn	1.752150	0.359064	0.761150
Zn2	Zn	1.717239	0.509956	0.595182
Zn3	Zn	1.551423	0.359119	0.560497
Zn4	Zn	1.516660	0.509883	0.795810
O5	O	1.634368	0.434505	0.678160
O6	O	1.915467	0.379088	0.739144
O7	O	1.695181	0.490001	0.422643
O8	O	1.607210	0.232867	0.558093
O9	O	1.889818	0.489948	0.617208
O10	O	1.754683	0.232827	0.705512
O11	O	1.573357	0.379181	0.397160
O12	O	1.378864	0.379110	0.591701
O13	O	1.547960	0.489823	0.959149
O14	O	1.353323	0.489876	0.764584
O15	O	1.720974	0.379016	0.933685
O16	O	1.661472	0.636191	0.650816
O17	O	1.514107	0.636137	0.798217
C18	C	1.322546	0.434492	0.678141
C19	C	1.189143	0.434508	0.678166
C20	C	1.580262	0.668898	0.732067
C21	C	1.557224	0.769172	0.755169
C22	C	1.799452	1.051814	0.513524
C23	C	1.821096	0.957602	0.491812
C24	C	1.755131	0.910490	0.557650
C25	C	1.667516	0.957599	0.645202
C26	C	1.645864	1.051821	0.666910
C27	C	1.601542	0.910496	0.711036
C28	C	1.513928	0.957606	0.798588
C29	C	1.492280	1.051818	0.820292
C30	C	1.558245	1.098930	0.754454
C31	C	1.623195	0.816275	0.689328
C32	C	1.469606	0.816281	0.842714
C33	C	1.447962	0.910493	0.864426
C34	C	1.947407	0.434520	0.678179
C35	C	2.080805	0.434526	0.678187
C36	C	1.634483	0.434405	0.991179
C37	C	1.634532	0.434362	1.124569
C38	C	1.688707	1.199198	0.624080
C39	C	1.711834	1.098924	0.601068
C40	C	1.634337	0.434540	0.366343
C41	C	1.634579	0.434329	0.232895
H42	H	1.694530	0.777926	0.618042
H43	H	1.540630	1.175646	0.772130
H44	H	1.892429	0.919249	0.420526
O45	O	1.870625	1.102624	0.442548
H46	H	1.840862	1.176052	0.472368
H47	H	1.772757	0.833778	0.539965
O48	O	1.397773	1.102635	0.914710
H49	H	1.422485	1.084491	1.004744
O50	O	1.353447	0.961306	0.958838
H51	H	1.349468	1.034734	0.962856
O52	O	1.398452	0.765481	0.913741
H53	H	1.428237	0.692053	0.883949
