data_functionalizedCrystal
_audit_creation_method	'MofGen! by Chris Wilmer'
_symmetry_space_group_name_H-M	'P1'
_symmetry_Int_Tables_number	1
_symmetry_cell_setting	triclinic
loop_
_symmetry_equiv_pos_as_xyz
  x,y,z
_cell_length_a	18.050591
_cell_length_b	18.050589
_cell_length_c	21.395364
_cell_angle_alpha	89.998272
_cell_angle_beta	90.023013
_cell_angle_gamma	90.024227
loop_
_atom_site_label
_atom_site_type_symbol
_atom_site_fract_x
_atom_site_fract_y
_atom_site_fract_z
Zn1	Zn	1.135308	-0.295932	0.354386
Zn2	Zn	1.468641	0.037401	0.687719
Zn3	Zn	1.801974	0.370735	1.021053
Zn4	Zn	1.135214	-0.420072	0.249619
Zn5	Zn	1.468547	-0.086739	0.582952
Zn6	Zn	1.801881	0.246595	0.916286
Zn7	Zn	1.011122	-0.295892	0.249612
Zn8	Zn	1.344456	0.037442	0.582945
Zn9	Zn	1.677789	0.370775	0.916279
Zn10	Zn	1.011075	-0.420076	0.354348
Zn11	Zn	1.344408	-0.086743	0.687681
Zn12	Zn	1.677742	0.246591	1.021015
O13	O	1.073180	-0.357993	0.301991
O14	O	1.406513	-0.024660	0.635325
O15	O	1.739846	0.308674	0.968658
O16	O	1.239220	-0.312415	0.340507
O17	O	1.572553	0.020919	0.673841
O18	O	1.905887	0.354252	1.007174
O19	O	1.118734	-0.403581	0.161940
O20	O	1.452067	-0.070247	0.495273
O21	O	1.785400	0.263086	0.828607
O22	O	1.027655	-0.191972	0.263523
O23	O	1.360988	0.141361	0.596857
O24	O	1.694322	0.474694	0.930190
O25	O	1.239151	-0.403620	0.263535
O26	O	1.572484	-0.070286	0.596869
O27	O	1.905818	0.263047	0.930202
O28	O	1.118893	-0.192002	0.340500
O29	O	1.452227	0.141331	0.673834
O30	O	1.785560	0.474665	1.007167
O31	O	1.027564	-0.312346	0.161935
O32	O	1.360897	0.020987	0.495268
O33	O	1.694231	0.354321	0.828602
O34	O	0.907192	-0.312350	0.263486
O35	O	1.240525	0.020984	0.596820
O36	O	1.573858	0.354317	0.930153
O37	O	1.027574	-0.403626	0.442031
O38	O	1.360907	-0.070293	0.775364
O39	O	1.694241	0.263040	1.108698
O40	O	0.907157	-0.403587	0.340436
O41	O	1.240490	-0.070254	0.673769
O42	O	1.573823	0.263079	1.007102
O43	O	1.118847	-0.312418	0.442059
O44	O	1.452181	0.020915	0.775392
O45	O	1.785514	0.354248	1.108726
O46	O	1.118688	-0.523997	0.263498
O47	O	1.452021	-0.190664	0.596832
O48	O	1.785354	0.142670	0.930165
O49	O	1.027483	-0.524000	0.340443
O50	O	1.360816	-0.190667	0.673776
O51	O	1.694150	0.142667	1.007109
C52	C	0.880228	-0.357965	0.301957
C53	C	1.213561	-0.024632	0.635290
C54	C	1.546894	0.308701	0.968623
C55	C	0.797682	-0.357971	0.301957
C56	C	1.131015	-0.024638	0.635290
C57	C	1.464349	0.308695	0.968623
C58	C	0.598229	-0.308299	0.260208
C59	C	0.931562	0.025035	0.593541
C60	C	1.264895	0.358368	0.926875
C61	C	0.548808	-0.376028	0.244793
C62	C	0.882142	-0.042695	0.578127
C63	C	1.215475	0.290638	0.911460
C64	C	0.646552	-0.357994	0.301985
C65	C	0.979885	-0.024660	0.635318
C66	C	1.313218	0.308673	0.968652
C67	C	0.548890	-0.290288	0.317398
C68	C	0.882224	0.043046	0.650731
C69	C	1.215557	0.376379	0.984065
C70	C	0.500566	-0.358010	0.302011
C71	C	0.833900	-0.024676	0.635344
C72	C	1.167233	0.308657	0.968678
C73	C	0.598218	-0.425759	0.286540
C74	C	0.931552	-0.092426	0.619874
C75	C	1.264885	0.240908	0.953207
C76	C	0.598305	-0.339973	0.359172
C77	C	0.931638	-0.006639	0.692505
C78	C	1.264971	0.326694	1.025838
C79	C	0.548907	-0.407749	0.343779
C80	C	0.882240	-0.074416	0.677112
C81	C	1.215573	0.258918	1.010445
C82	C	0.730650	-0.357984	0.301968
C83	C	1.063983	-0.024650	0.635302
C84	C	1.397316	0.308683	0.968635
C85	C	0.416470	-0.358027	0.302028
C86	C	0.749803	-0.024694	0.635361
C87	C	1.083137	0.308639	0.968695
C88	C	1.073090	-0.550945	0.301981
C89	C	1.406423	-0.217612	0.635314
C90	C	1.739757	0.115722	0.968647
C91	C	1.073120	-0.633491	0.301997
C92	C	1.406453	-0.300157	0.635331
C93	C	1.739786	0.033176	0.968664
C94	C	1.023572	-0.832970	0.343825
C95	C	1.356905	-0.499637	0.677158
C96	C	1.690238	-0.166303	1.010492
C97	C	1.005471	-0.882379	0.286650
C98	C	1.338805	-0.549046	0.619983
C99	C	1.672138	-0.215712	0.953317
C100	C	1.073193	-0.784621	0.302005
C101	C	1.406526	-0.451288	0.635339
C102	C	1.739859	-0.117954	0.968672
C103	C	1.091329	-0.882294	0.359187
C104	C	1.424663	-0.548960	0.692520
C105	C	1.757996	-0.215627	1.025853
C106	C	1.073262	-0.930606	0.302018
C107	C	1.406595	-0.597273	0.635352
C108	C	1.739928	-0.263940	0.968685
C109	C	1.055057	-0.832943	0.244800
C110	C	1.388390	-0.499610	0.578134
C111	C	1.721723	-0.166276	0.911467
C112	C	1.140947	-0.832853	0.317376
C113	C	1.474280	-0.499520	0.650709
C114	C	1.807613	-0.166187	0.984042
C115	C	1.122872	-0.882240	0.260162
C116	C	1.456205	-0.548907	0.593495
C117	C	1.789539	-0.215573	0.926828
C118	C	1.073151	-0.700523	0.301999
C119	C	1.406484	-0.367189	0.635332
C120	C	1.739818	-0.033856	0.968666
C121	C	1.073304	-1.014703	0.302019
C122	C	1.406637	-0.681369	0.635352
C123	C	1.739970	-0.348036	0.968685
C124	C	1.266885	-0.358021	0.302026
C125	C	1.600219	-0.024688	0.635360
C126	C	1.933552	0.308646	0.968693
C127	C	1.349431	-0.358033	0.302041
C128	C	1.682764	-0.024700	0.635375
C129	C	2.016098	0.308633	0.968708
C130	C	1.073216	-0.358027	0.465414
C131	C	1.406549	-0.024694	0.798748
C132	C	1.739883	0.308639	1.132081
C133	C	1.073231	-0.358042	0.535056
C134	C	1.406565	-0.024709	0.868389
C135	C	1.739898	0.308625	1.201722
C136	C	1.073290	-0.164287	0.302015
C137	C	1.406623	0.169046	0.635349
C138	C	1.739957	0.502379	0.968682
C139	C	1.073337	-0.081741	0.302026
C140	C	1.406670	0.251592	0.635359
C141	C	1.740004	0.584925	0.968692
C142	C	1.120750	-0.310558	0.567784
C143	C	1.454084	0.022776	0.901118
C144	C	1.787417	0.356109	1.234451
C145	C	1.120739	-0.310546	0.633220
C146	C	1.454072	0.022788	0.966553
C147	C	1.787406	0.356121	1.299886
C148	C	1.073217	-0.358031	0.665924
C149	C	1.406550	-0.024698	0.999257
C150	C	1.739883	0.308636	1.332591
C151	C	1.025689	-0.405518	0.633187
C152	C	1.359022	-0.072185	0.966521
C153	C	1.692355	0.261148	1.299854
C154	C	1.025696	-0.405524	0.567753
C155	C	1.359029	-0.072191	0.901087
C156	C	1.692363	0.261143	1.234420
C157	C	1.067305	-0.424931	0.769595
C158	C	1.400639	-0.091598	1.102928
C159	C	1.733972	0.241736	1.436261
C160	C	1.067303	-0.424927	0.835027
C161	C	1.400637	-0.091593	1.168361
C162	C	1.733970	0.241740	1.501694
C163	C	1.073190	-0.358014	0.867745
C164	C	1.406523	-0.024680	1.201078
C165	C	1.739856	0.308653	1.534411
C166	C	1.079094	-0.291103	0.835021
C167	C	1.412427	0.042231	1.168354
C168	C	1.745761	0.375564	1.501688
C169	C	1.079101	-0.291108	0.769587
C170	C	1.412435	0.042225	1.102920
C171	C	1.745768	0.375559	1.436254
C172	C	1.073203	-0.358030	0.736876
C173	C	1.406536	-0.024697	1.070210
C174	C	1.739870	0.308637	1.403543
C175	C	1.120699	-0.310512	0.971426
C176	C	1.454032	0.022821	1.304759
C177	C	1.787366	0.356154	1.638093
C178	C	1.120683	-0.310499	1.036863
C179	C	1.454016	0.022834	1.370196
C180	C	1.787349	0.356168	1.703529
C181	C	1.025636	-0.405478	1.036829
C182	C	1.358969	-0.072145	1.370162
C183	C	1.692303	0.261188	1.703496
C184	C	1.025649	-0.405485	0.971394
C185	C	1.358982	-0.072152	1.304727
C186	C	1.692315	0.261182	1.638060
C187	C	1.073184	-0.358003	0.938696
C188	C	1.406517	-0.024670	1.272029
C189	C	1.739851	0.308664	1.605363
C190	C	1.073147	-0.357981	1.139204
C191	C	1.406481	-0.024648	1.472537
C192	C	1.739814	0.308686	1.805870
C193	C	1.073159	-0.357984	1.069562
C194	C	1.406492	-0.024650	1.402896
C195	C	1.739826	0.308683	1.736229
H196	H	0.527068	-0.391283	0.196443
H197	H	0.860402	-0.057949	0.529776
H198	H	1.193735	0.275384	0.863110
H199	H	0.948206	-0.904150	0.273662
H200	H	1.281540	-0.570817	0.606995
H201	H	1.614873	-0.237483	0.940328
H202	H	1.159456	-0.271893	0.541166
H203	H	1.492790	0.061440	0.874499
H204	H	1.826123	0.394773	1.207833
H205	H	0.620062	-0.324698	0.407507
H206	H	0.953396	0.008636	0.740841
H207	H	1.286729	0.341969	1.074174
F208	F	1.177761	-0.910340	0.213893
F209	F	1.511095	-0.577007	0.547226
F210	F	1.844428	-0.243673	0.880559
F211	F	0.975053	-0.456011	1.071631
F212	F	1.308387	-0.122677	1.404964
F213	F	1.641720	0.210656	1.738298
H214	H	1.039678	-0.811356	0.196435
H215	H	1.373011	-0.478022	0.529768
H216	H	1.706345	-0.144689	0.863102
H217	H	1.062313	-0.479406	0.742962
H218	H	1.395647	-0.146073	1.076295
H219	H	1.728980	0.187261	1.409628
H220	H	1.159401	-0.271846	0.944802
H221	H	1.492734	0.061488	1.278136
H222	H	1.826068	0.394821	1.611469
H223	H	0.986958	-0.444156	0.944746
H224	H	1.320291	-0.110823	1.278079
H225	H	1.653625	0.222510	1.611412
F226	F	0.520563	-0.215440	0.334422
F227	F	0.853896	0.117893	0.667755
F228	F	1.187230	0.451226	1.001089
F229	F	1.061026	-0.496139	0.869848
F230	F	1.394359	-0.162806	1.203182
F231	F	1.727693	0.170528	1.536515
H232	H	0.986997	-0.444190	0.541106
H233	H	1.320330	-0.110857	0.874439
H234	H	1.653664	0.222476	1.207773
H235	H	0.981547	-0.811335	0.379140
H236	H	1.314880	-0.478001	0.712473
H237	H	1.648214	-0.144668	1.045807
F238	F	1.171270	-0.259965	1.071695
F239	F	1.504603	0.073368	1.405028
F240	F	1.837937	0.406701	1.738361
H241	H	1.159433	-0.271874	0.659873
H242	H	1.492766	0.061459	0.993206
H243	H	1.826100	0.394792	1.326539
H244	H	1.106642	-0.903971	0.407539
H245	H	1.439975	-0.570637	0.740872
H246	H	1.773309	-0.237304	1.074206
F247	F	0.520776	-0.462749	0.389972
F248	F	0.854110	-0.129416	0.723305
F249	F	1.187443	0.203917	1.056639
F250	F	1.085362	-0.219883	0.869836
F251	F	1.418695	0.113450	1.203169
F252	F	1.752029	0.446784	1.536502
H253	H	1.083907	-0.236627	0.742946
H254	H	1.417240	0.096706	1.076279
H255	H	1.750573	0.430040	1.409613
H256	H	1.198198	-0.811085	0.330391
H257	H	1.531532	-0.477751	0.663725
H258	H	1.864865	-0.144418	0.997058
F259	F	0.975110	-0.456053	0.667994
F260	F	1.308443	-0.122720	1.001328
F261	F	1.641776	0.210613	1.334661
H262	H	0.619885	-0.266318	0.224840
H263	H	0.953218	0.067015	0.558174
H264	H	1.286552	0.400348	0.891507
H265	H	0.619796	-0.483041	0.273461
H266	H	0.953130	-0.149707	0.606795
H267	H	1.286463	0.183626	0.940128
