data_functionalizedCrystal
_audit_creation_method	'MofGen! by Chris Wilmer'
_symmetry_space_group_name_H-M	'P1'
_symmetry_Int_Tables_number	1
_symmetry_cell_setting	triclinic
loop_
_symmetry_equiv_pos_as_xyz
  x,y,z
_cell_length_a	21.295418
_cell_length_b	12.594517
_cell_length_c	12.594509
_cell_angle_alpha	90.021507
_cell_angle_beta	90.040503
_cell_angle_gamma	90.022451
loop_
_atom_site_label
_atom_site_type_symbol
_atom_site_fract_x
_atom_site_fract_y
_atom_site_fract_z
Zn1	Zn	0.962440	-0.423277	0.602435
Zn2	Zn	0.962392	-0.601282	0.424472
Zn3	Zn	0.857169	-0.423367	0.424405
Zn4	Zn	0.857177	-0.601263	0.602344
O5	O	0.909795	-0.512297	0.513414
O6	O	1.050523	-0.446860	0.578894
O7	O	0.948411	-0.577727	0.275518
O8	O	0.871151	-0.274409	0.448031
O9	O	1.050488	-0.577640	0.448146
O10	O	0.948493	-0.274343	0.578829
O11	O	0.871104	-0.447014	0.275468
O12	O	0.769081	-0.446995	0.447943
O13	O	0.871163	-0.577607	0.751302
O14	O	0.769086	-0.577694	0.578673
O15	O	0.948500	-0.446841	0.751369
O16	O	0.948418	-0.750225	0.448057
O17	O	0.871117	-0.750211	0.578739
C18	C	0.909780	-0.788838	0.513419
C19	C	0.909832	-0.907144	0.513456
C20	C	0.746243	-0.512353	0.513291
C21	C	0.676275	-0.512403	0.513264
C22	C	0.909837	-0.512212	0.791035
C23	C	0.909856	-0.512175	0.909341
C24	C	0.643427	-0.580548	0.581234
C25	C	0.577685	-0.580522	0.581282
C26	C	0.544792	-0.512362	0.513341
C27	C	0.577648	-0.444203	0.445366
C28	C	0.643389	-0.444224	0.445328
N29	N	0.441517	-0.504052	0.420245
N30	N	0.379066	-0.504038	0.420284
C31	C	0.346718	-0.512294	0.513454
N32	N	0.379180	-0.520584	0.606584
N33	N	0.441637	-0.520602	0.606544
C34	C	0.473507	-0.512331	0.513375
C35	C	0.242585	-0.580414	0.581481
C36	C	0.176841	-0.580380	0.581531
C37	C	0.176805	-0.444067	0.445606
C38	C	0.242547	-0.444095	0.445566
C39	C	0.275433	-0.512274	0.513502
C40	C	1.073985	-0.512242	0.513538
C41	C	1.143953	-0.512218	0.513590
C42	C	0.909826	-0.234676	0.513432
C43	C	0.909840	-0.116371	0.513440
C44	C	0.951901	-0.047082	0.584586
C45	C	0.967282	0.023684	0.487494
C46	C	0.894479	0.023662	0.610537
C47	C	0.925250	-0.047163	0.416298
C48	C	0.852421	-0.047192	0.539406
C49	C	0.867779	0.023542	0.442248
C50	C	0.909788	-0.512306	0.236873
C51	C	0.909892	-0.512042	0.118568
C52	C	0.867819	-0.583209	1.049321
C53	C	0.852419	-0.486152	0.978502
C54	C	0.925227	-0.609223	0.978588
C55	C	0.894462	-0.414932	1.049307
C56	C	0.967297	-0.538069	1.049400
C57	C	0.951919	-0.440944	0.978612
H58	H	0.670199	-0.636063	0.636555
F59	F	0.821300	-0.661700	1.089907
H60	H	0.269292	-0.388609	0.390212
F61	F	0.277587	-0.652970	0.653789
H62	H	0.803857	-0.464188	0.947361
F63	F	0.821287	0.063837	0.363526
H64	H	0.150098	-0.635870	0.636886
H65	H	0.550935	-0.636013	0.636635
H66	H	0.881421	-0.332780	1.080242
F67	F	0.998432	-0.087621	0.663118
F68	F	0.788974	-0.087917	0.568149
H69	H	0.550862	-0.388705	0.390050
F70	F	1.030745	0.064377	0.458787
H71	H	0.670133	-0.388729	0.389979
F72	F	0.942294	-0.087651	0.308944
F73	F	0.141803	-0.371520	0.373303
H74	H	0.881491	0.054774	0.692643
F75	F	0.998405	-0.362267	0.938286
H76	H	1.015845	-0.560062	1.080563
H77	H	0.938214	-0.691352	0.947524
