data_functionalizedCrystal
_audit_creation_method	'MofGen! by Chris Wilmer'
_symmetry_space_group_name_H-M	'P1'
_symmetry_Int_Tables_number	1
_symmetry_cell_setting	triclinic
loop_
_symmetry_equiv_pos_as_xyz
  x,y,z
_cell_length_a	12.645331
_cell_length_b	21.295416
_cell_length_c	12.645323
_cell_angle_alpha	89.968481
_cell_angle_beta	90.022676
_cell_angle_gamma	89.970690
loop_
_atom_site_label
_atom_site_type_symbol
_atom_site_fract_x
_atom_site_fract_y
_atom_site_fract_z
Zn1	Zn	1.620638	0.250621	0.599397
Zn2	Zn	1.620481	0.355896	0.422117
Zn3	Zn	1.443353	0.250643	0.422142
Zn4	Zn	1.443295	0.355855	0.599332
O5	O	1.531942	0.303254	0.510747
O6	O	1.768964	0.264595	0.575897
O7	O	1.596942	0.341960	0.273773
O8	O	1.466960	0.162550	0.445693
O9	O	1.768849	0.341939	0.445650
O10	O	1.597211	0.162535	0.575922
O11	O	1.466807	0.264631	0.273791
O12	O	1.294998	0.264591	0.445629
O13	O	1.466862	0.341869	0.747688
O14	O	1.294956	0.341890	0.575811
O15	O	1.597155	0.264555	0.747736
O16	O	1.596887	0.443980	0.445587
O17	O	1.466709	0.443950	0.575786
C18	C	1.256512	0.303239	0.510716
C19	C	1.138682	0.303247	0.510728
C20	C	0.971109	0.254395	0.429283
C21	C	1.093669	0.254521	0.428924
C22	C	1.094137	0.369560	0.480201
C23	C	0.971539	0.369293	0.479645
C24	C	0.971539	0.286418	0.623016
C25	C	1.094145	0.284937	0.622392
C26	C	1.531804	0.466805	0.510700
C27	C	1.531841	0.536773	0.510716
C28	C	1.599685	0.569635	0.442993
C29	C	1.599735	0.635377	0.443021
C30	C	1.531923	0.668256	0.510762
C31	C	1.464074	0.635386	0.578498
C32	C	1.464034	0.569645	0.578475
N33	N	1.439187	0.771521	0.518840
N34	N	1.439229	0.833972	0.518856
C35	C	1.532042	0.866331	0.510837
N36	N	1.624815	0.833879	0.502780
N37	N	1.624772	0.771421	0.502759
C38	C	1.531960	0.739541	0.510795
C39	C	1.599946	0.970478	0.443141
C40	C	1.599998	1.036221	0.443177
C41	C	1.464327	1.036229	0.578648
C42	C	1.464285	0.970487	0.578618
C43	C	1.532093	0.937615	0.510859
C44	C	1.808447	0.303269	0.510778
C45	C	1.926277	0.303276	0.510792
C46	C	1.532020	0.303205	0.787252
C47	C	1.532053	0.303184	0.905083
C48	C	1.532111	1.139063	0.510835
C49	C	1.532186	1.069095	0.510920
C50	C	1.531925	0.303257	0.235317
C51	C	1.532097	0.303100	0.117488
C52	C	1.449833	0.351594	1.072617
C53	C	1.450048	0.351833	0.950057
C54	C	1.643746	0.321189	0.949599
C55	C	1.643295	0.321492	1.072197
C56	C	1.503637	0.236500	1.072293
C57	C	1.501144	0.236899	0.949687
H58	H	0.942888	0.383589	0.397603
H59	H	1.366763	0.340435	1.102092
H60	H	1.409118	1.062998	0.633809
F61	F	1.474098	0.415719	1.112948
F62	F	1.131937	0.269082	0.320224
F63	F	1.674829	0.385129	1.109584
H64	H	1.706665	0.287705	1.101882
H65	H	1.123267	0.236138	0.645412
F66	F	1.391822	0.534671	0.650558
F67	F	1.474653	0.416362	0.911723
H68	H	1.706681	0.286986	0.920470
F69	F	1.573749	0.187177	0.909685
F70	F	1.581952	0.189276	1.110224
F71	F	0.931181	0.224317	0.659301
H72	H	0.941880	0.406946	0.536423
F73	F	1.671865	0.534654	0.370889
H74	H	1.668287	0.369365	0.918901
H75	H	1.655251	1.062976	0.388031
H76	H	1.655163	0.943712	0.387971
H77	H	1.123788	0.205348	0.448060
H78	H	1.418948	0.223321	0.920590
F79	F	1.134195	0.328079	0.706020
F80	F	1.399034	0.215049	1.112688
F81	F	0.933644	0.332953	0.702396
H82	H	1.409036	0.943729	0.633760
F83	F	1.341791	0.337104	0.910711
F84	F	1.391907	0.670379	0.650596
H85	H	0.940257	0.265413	0.346610
F86	F	1.132233	0.418436	0.555366
F87	F	1.134194	0.388568	0.374116
F88	F	1.671946	0.670358	0.370937
F89	F	0.932623	0.189927	0.454024
