data_functionalizedCrystal
_audit_creation_method	'MofGen! by Chris Wilmer'
_symmetry_space_group_name_H-M	'P1'
_symmetry_Int_Tables_number	1
_symmetry_cell_setting	triclinic
loop_
_symmetry_equiv_pos_as_xyz
  x,y,z
_cell_length_a	14.853567
_cell_length_b	14.853559
_cell_length_c	13.930277
_cell_angle_alpha	89.997639
_cell_angle_beta	89.995144
_cell_angle_gamma	83.633192
loop_
_atom_site_label
_atom_site_type_symbol
_atom_site_fract_x
_atom_site_fract_y
_atom_site_fract_z
O1	O	1.196365	0.117704	-0.079773
O2	O	0.933905	0.131725	-0.079786
O3	O	1.072150	-0.006516	-0.079779
O4	O	1.058120	0.255945	-0.079781
O5	O	1.072130	-0.006519	0.079883
O6	O	0.933886	0.131722	0.079875
O7	O	1.196346	0.117701	0.079888
Zn8	Zn	1.065113	0.124711	0.105232
Zn9	Zn	1.065138	0.124715	-0.105130
O10	O	1.058101	0.255942	0.079881
C11	C	0.900307	0.131089	0.000043
C12	C	0.800223	0.129185	0.000038
C13	C	1.071506	-0.040106	0.000051
C14	C	1.069605	-0.140190	0.000045
C15	C	1.229944	0.118338	0.000057
C16	C	1.330027	0.120242	0.000056
C17	C	1.061552	-0.563363	-0.086987
C18	C	1.061530	-0.563361	0.087082
C19	C	1.063324	-0.469328	0.087083
C20	C	1.064230	-0.422308	0.000048
C21	C	1.063342	-0.469321	-0.086989
C22	C	1.064202	-0.422307	0.174118
C23	C	1.065995	-0.328268	0.174123
C24	C	1.066907	-0.281247	0.087086
C25	C	1.066021	-0.328266	0.000046
C26	C	1.066927	-0.281245	-0.086990
C27	C	1.066047	-0.328264	-0.174031
C28	C	1.064255	-0.422300	-0.174026
C29	C	1.068699	-0.187210	0.087081
C30	C	1.068717	-0.187203	-0.086992
C31	C	1.742559	0.210408	0.000038
C32	C	1.763845	0.046174	0.000040
C33	C	1.669811	0.044384	0.000045
C34	C	1.612147	0.125607	0.000046
C35	C	1.648516	0.208620	0.000040
C36	C	1.633434	-0.038627	0.000041
C37	C	1.539395	-0.040421	0.000045
C38	C	1.481729	0.040803	0.000052
C39	C	1.518104	0.123819	0.000048
C40	C	1.460440	0.205042	0.000048
C41	C	1.496812	0.288060	0.000051
C42	C	1.590850	0.289844	0.000047
C43	C	1.387692	0.039019	0.000056
C44	C	1.366397	0.203255	0.000051
C45	C	1.058745	0.289532	0.000049
C46	C	1.060646	0.389616	0.000048
N47	N	1.065102	0.124708	0.248798
N48	N	1.065156	0.124711	-0.248696
C49	C	1.003921	0.185904	0.701064
C50	C	1.126380	0.063519	0.701040
C51	C	1.126369	0.063516	0.600544
C52	C	1.065134	0.124709	0.550304
C53	C	1.003910	0.185905	0.600559
C54	C	1.187598	0.002328	0.550282
C55	C	1.187591	0.002323	0.449780
C56	C	1.126351	0.063512	0.399537
C57	C	1.065123	0.124710	0.449798
C58	C	1.003888	0.185903	0.399558
C59	C	0.942656	0.247097	0.449817
C60	C	0.942670	0.247094	0.550316
C61	C	1.126337	0.063515	0.299038
C62	C	1.003878	0.185904	0.299053
H63	H	1.069459	-0.148926	-0.157867
O64	O	1.310293	0.282098	-0.000079
C65	C	1.191816	0.375425	-0.082829
C66	C	1.255285	0.286094	-0.082790
H67	H	1.147340	0.378694	-0.149703
H68	H	1.147188	0.378705	-0.016058
H69	H	1.233988	0.435045	-0.082780
H70	H	1.213185	0.226424	-0.082872
H71	H	1.299917	0.282893	-0.149555
H72	H	1.449850	0.354191	0.000046
O73	O	1.060708	-0.608893	-0.171621
C74	C	1.060794	-0.598940	-0.344276
C75	C	1.061792	-0.547272	-0.248498
H76	H	1.061651	-0.549140	-0.406456
H77	H	1.123003	-0.651129	-0.348722
H78	H	0.996917	-0.634804	-0.348551
H79	H	1.125627	-0.511354	-0.244159
H80	H	0.999541	-0.495135	-0.244093
H81	H	0.954009	0.235732	0.258153
H82	H	1.060787	-0.601650	0.157943
H83	H	1.680391	-0.104755	0.000036
H84	H	1.810800	-0.019954	0.000034
H85	H	1.066778	-0.289967	-0.244895
H86	H	0.954064	0.235725	0.741987
H87	H	1.176240	0.013702	0.741949
O88	O	1.626332	0.370402	0.000007
C89	C	1.761772	0.445935	0.000064
C90	C	1.721704	0.354644	0.000087
H91	H	1.838885	0.433227	0.000149
H92	H	1.738104	0.486099	-0.066767
H93	H	1.737979	0.486073	0.066870
H94	H	1.745479	0.314433	-0.066674
H95	H	1.745368	0.314549	0.066962
O96	O	1.246972	-0.057329	0.401106
C97	C	1.299529	-0.214082	0.370729
C98	C	1.232219	-0.146569	0.425830
H99	H	1.287637	-0.286247	0.390714
H100	H	1.289090	-0.203779	0.290230
H101	H	1.371742	-0.202192	0.390502
H102	H	1.159979	-0.158418	0.406138
H103	H	1.242737	-0.156889	0.506316
O104	O	1.063241	-0.467869	-0.258621
C105	C	0.984557	-0.486574	-0.407323
C106	C	0.985630	-0.434872	-0.311572
H107	H	0.921805	-0.459929	-0.450152
H108	H	1.047899	-0.476270	-0.450348
H109	H	0.983146	-0.561855	-0.392319
H110	H	0.987009	-0.359575	-0.326488
H111	H	0.922292	-0.445251	-0.268576
O112	O	1.185845	0.003993	0.250366
C113	C	1.307356	-0.117352	0.260953
C114	C	1.239995	-0.050002	0.316193
H115	H	1.351167	-0.161011	0.314151
H116	H	1.268427	-0.162529	0.213941
H117	H	1.352386	-0.078324	0.213862
H118	H	1.194949	-0.088956	0.363337
H119	H	1.278980	-0.004825	0.363144
O120	O	1.063383	-0.468127	0.258573
C121	C	1.060625	-0.613003	0.335712
C122	C	1.061553	-0.561219	0.239996
H123	H	1.059126	-0.688274	0.320726
H124	H	1.124037	-0.602744	0.378627
H125	H	0.997953	-0.586309	0.378652
H126	H	1.124183	-0.587880	0.196979
H127	H	0.998100	-0.571477	0.197154
O128	O	1.066898	-0.282744	0.258755
C129	C	1.066649	-0.292670	0.431411
C130	C	1.065637	-0.344339	0.335635
H131	H	1.065610	-0.342444	0.493593
H132	H	1.130549	-0.256853	0.435826
H133	H	1.004465	-0.240441	0.435713
H134	H	1.127778	-0.396612	0.331268
H135	H	1.001697	-0.380094	0.331261
O136	O	1.069573	-0.141679	0.171707
C137	C	1.069257	-0.151592	0.344362
C138	C	1.068295	-0.203270	0.248588
H139	H	1.068204	-0.201364	0.406545
H140	H	1.133146	-0.115760	0.348805
H141	H	1.007061	-0.099375	0.348635
H142	H	1.130447	-0.255531	0.244250
H143	H	1.004365	-0.239040	0.244186
O144	O	1.504216	-0.121138	0.000093
C145	C	1.535262	-0.283848	0.000044
C146	C	1.575224	-0.192501	0.000007
H147	H	1.592652	-0.341569	-0.000046
H148	H	1.491802	-0.288852	0.066884
H149	H	1.491736	-0.288744	-0.066753
H150	H	1.618790	-0.187543	0.066759
H151	H	1.618631	-0.187536	-0.066876
H152	H	0.892802	0.296925	0.408900
O153	O	1.778035	0.290969	-0.000002
C154	C	1.913464	0.366519	0.000064
C155	C	1.873408	0.275221	0.000086
H156	H	1.990578	0.353819	0.000155
H157	H	1.889797	0.406678	-0.066770
H158	H	1.889662	0.406656	0.066866
H159	H	1.897192	0.235010	-0.066671
H160	H	1.897071	0.235131	0.066964
H161	H	0.892818	0.296917	0.591243
O162	O	1.352508	-0.041692	0.000091
C163	C	1.383550	-0.204402	0.000014
C164	C	1.423514	-0.113056	-0.000004
H165	H	1.440939	-0.262125	-0.000083
H166	H	1.340088	-0.209416	0.066849
H167	H	1.340027	-0.209287	-0.066787
H168	H	1.467078	-0.108110	0.066752
H169	H	1.466925	-0.108082	-0.066883
H170	H	1.237459	-0.047490	0.591191
