data_functionalizedCrystal
_audit_creation_method	'MofGen! by Chris Wilmer'
_symmetry_space_group_name_H-M	'P1'
_symmetry_Int_Tables_number	1
_symmetry_cell_setting	triclinic
loop_
_symmetry_equiv_pos_as_xyz
  x,y,z
_cell_length_a	18.215405
_cell_length_b	12.759401
_cell_length_c	12.759393
_cell_angle_alpha	90.020473
_cell_angle_beta	89.962950
_cell_angle_gamma	89.973590
loop_
_atom_site_label
_atom_site_type_symbol
_atom_site_fract_x
_atom_site_fract_y
_atom_site_fract_z
Zn1	Zn	-0.292915	-1.606187	-0.593976
Zn2	Zn	0.207085	-1.106187	-0.093976
Zn3	Zn	-0.416000	-1.606048	-0.418278
Zn4	Zn	0.084000	-1.106048	0.081722
Zn5	Zn	-0.292955	-1.430487	-0.418311
Zn6	Zn	0.207045	-0.930487	0.081689
Zn7	Zn	-0.415947	-1.430447	-0.593915
Zn8	Zn	0.084053	-0.930447	-0.093915
O9	O	-0.354454	-1.518292	-0.506120
O10	O	0.145546	-1.018292	-0.006120
O11	O	-0.309247	-1.753190	-0.570681
O12	O	0.190753	-1.253190	-0.070681
O13	O	-0.399717	-1.582719	-0.271261
O14	O	0.100283	-1.082719	0.228739
O15	O	-0.189965	-1.453869	-0.441653
O16	O	0.310035	-0.953869	0.058347
O17	O	-0.399678	-1.753088	-0.441596
O18	O	0.100322	-1.253088	0.058404
O19	O	-0.189936	-1.582955	-0.570714
O20	O	0.310064	-1.082955	-0.070714
O21	O	-0.309316	-1.453735	-0.271286
O22	O	0.190684	-0.953735	0.228714
O23	O	-0.309265	-1.283461	-0.441594
O24	O	0.190735	-0.783461	0.058406
O25	O	-0.399588	-1.453800	-0.740944
O26	O	0.100412	-0.953800	-0.240944
O27	O	-0.399627	-1.283431	-0.570609
O28	O	0.100373	-0.783431	-0.070609
O29	O	-0.309196	-1.582916	-0.740989
O30	O	0.190804	-1.082916	-0.240989
O31	O	-0.518977	-1.582679	-0.441537
O32	O	-0.018977	-1.082679	0.058463
O33	O	-0.518939	-1.453665	-0.570577
O34	O	-0.018939	-0.953665	-0.070577
C35	C	-0.354445	-1.245325	-0.506099
C36	C	0.145555	-0.745325	-0.006099
C37	C	-0.354459	-1.128548	-0.506115
C38	C	0.145541	-0.628548	-0.006115
C39	C	-0.545661	-1.518181	-0.506070
C40	C	-0.045661	-1.018181	-0.006070
C41	C	-0.627459	-1.518230	-0.506083
C42	C	-0.127459	-1.018230	-0.006083
C43	C	-0.354382	-1.518369	-0.780154
C44	C	0.145618	-1.018369	-0.280154
C45	C	-0.354351	-1.518401	-0.896930
C46	C	0.145649	-1.018401	-0.396930
C47	C	-0.815649	-1.585565	-0.439016
C48	C	-0.315649	-1.085565	0.060984
C49	C	-0.892508	-1.585612	-0.439041
C50	C	-0.392508	-1.085612	0.060959
C51	C	-0.892507	-1.451154	-0.573300
C52	C	-0.392507	-0.951154	-0.073300
C53	C	-0.815650	-1.451113	-0.573279
C54	C	-0.315650	-0.951113	-0.073279
C55	C	-0.777223	-1.518317	-0.506131
C56	C	-0.277223	-1.018317	-0.006131
C57	C	-0.930939	-1.518405	-0.506178
C58	C	-0.430939	-1.018405	-0.006178
C59	C	-1.014273	-1.518455	-0.506206
C60	C	-0.514273	-1.018455	-0.006206
C61	C	-0.693884	-1.518268	-0.506104
C62	C	-0.193884	-1.018268	-0.006104
C63	C	-0.162501	-1.518432	-0.506194
C64	C	0.337499	-1.018432	-0.006194
C65	C	-0.080702	-1.518492	-0.506225
C66	C	0.419298	-1.018492	-0.006225
C67	C	-0.354464	-1.792326	-0.506142
C68	C	0.145536	-1.292326	-0.006142
C69	C	-0.354468	-1.909102	-0.506151
C70	C	0.145532	-1.409102	-0.006151
C71	C	-0.401582	-1.073698	-0.573188
C72	C	0.098418	-0.573698	-0.073188
C73	C	-0.401585	-0.963974	-0.573209
C74	C	0.098415	-0.463974	-0.073209
C75	C	-0.307340	-0.963960	-0.439076
C76	C	0.192660	-0.463960	0.060924
C77	C	-0.307334	-1.073682	-0.439061
C78	C	0.192666	-0.573682	0.060939
C79	C	-0.307249	-1.585659	-1.061549
C80	C	0.192751	-1.085659	-0.561549
C81	C	-0.307277	-1.585639	-0.951825
C82	C	0.192723	-1.085639	-0.451825
C83	C	-0.401404	-1.451187	-0.951766
C84	C	0.098596	-0.951187	-0.451766
C85	C	-0.401379	-1.451214	-1.061488
C86	C	0.098621	-0.951214	-0.561488
C87	C	-0.354473	-1.518277	-0.233153
C88	C	0.145527	-1.018277	0.266847
C89	C	-0.354297	-1.518448	-0.116377
C90	C	0.145703	-1.018448	0.383623
H91	H	-0.784363	-1.640289	-0.384341
H92	H	-0.284363	-1.140289	0.115659
Br93	Br	-0.243387	-0.889492	-0.348077
Br94	Br	0.256613	-0.389492	0.151923
H95	H	-0.439953	-1.118367	-0.627791
H96	H	0.060047	-0.618367	-0.127791
H97	H	-0.268956	-1.118342	-0.384442
H98	H	0.231044	-0.618342	0.115558
H99	H	-0.439736	-1.396446	-0.907063
H100	H	0.060264	-0.896446	-0.407063
Br101	Br	-0.944655	-1.676888	-0.347958
Br102	Br	-0.444655	-1.176888	0.152042
Br103	Br	-0.465243	-1.360003	-1.135905
Br104	Br	0.034757	-0.860003	-0.635905
H105	H	-0.923804	-1.396437	-0.627968
H106	H	-0.423804	-0.896437	-0.127968
H107	H	-0.268911	-1.640404	-1.106236
H108	H	0.231089	-1.140404	-0.606236
Br109	Br	-0.763495	-1.359850	-0.664380
Br110	Br	-0.263495	-0.859850	-0.164380
Br111	Br	-0.465537	-0.889539	-0.664245
Br112	Br	0.034463	-0.389539	-0.164245
H113	H	-0.268966	-1.640369	-0.907188
H114	H	0.231034	-1.140369	-0.407188
