data_functionalizedCrystal
_audit_creation_method	'MofGen! by Chris Wilmer'
_symmetry_space_group_name_H-M	'P1'
_symmetry_Int_Tables_number	1
_symmetry_cell_setting	triclinic
loop_
_symmetry_equiv_pos_as_xyz
  x,y,z
_cell_length_a	14.044191
_cell_length_b	14.044220
_cell_length_c	14.048226
_cell_angle_alpha	89.992807
_cell_angle_beta	89.996146
_cell_angle_gamma	93.190327
loop_
_atom_site_label
_atom_site_type_symbol
_atom_site_fract_x
_atom_site_fract_y
_atom_site_fract_z
O1	O	1.277175	0.230202	-0.079119
O2	O	1.000503	0.221889	-0.079131
O3	O	1.134686	0.087710	-0.079116
O4	O	1.142992	0.364382	-0.079134
O5	O	1.134668	0.087700	0.079206
O6	O	1.000484	0.221879	0.079191
O7	O	1.277157	0.230192	0.079202
Zn8	Zn	1.138818	0.226034	0.104333
Zn9	Zn	1.138842	0.226047	-0.104262
O10	O	1.142973	0.364372	0.079187
C11	C	0.964872	0.218248	0.000029
C12	C	0.858728	0.207401	0.000024
C13	C	1.131041	0.052083	0.000045
C14	C	1.120197	-0.054060	0.000046
C15	C	0.613270	0.264501	0.000030
C16	C	0.664395	0.187585	0.000033
C17	C	0.772532	0.198613	0.000028
C18	C	0.505123	0.253474	0.000035
C19	C	1.100370	-0.248398	0.000032
C20	C	1.177285	-0.299526	0.000032
C21	C	1.166253	-0.407663	0.000024
C22	C	1.111400	-0.140252	0.000040
C23	C	1.312788	0.233834	0.000041
C24	C	1.418931	0.244681	0.000039
C25	C	1.146618	0.399998	0.000024
C26	C	1.157463	0.506142	0.000017
N27	N	1.138808	0.226025	0.246694
N28	N	1.138858	0.226050	-0.246622
C29	C	1.198247	0.166639	0.296519
C30	C	1.198254	0.166639	0.396177
C31	C	1.138825	0.226031	0.446008
C32	C	1.079379	0.285419	0.396176
C33	C	1.079369	0.285414	0.296520
C34	C	1.079408	0.285429	0.603890
C35	C	1.079419	0.285436	0.703553
C36	C	1.198292	0.166654	0.703547
C37	C	1.198282	0.166648	0.603891
C38	C	1.138837	0.226038	0.554066
H39	H	0.626952	0.113452	-0.000029
C40	C	0.663846	0.364641	0.000009
H41	H	0.730945	0.359008	-0.000003
H42	H	0.645908	0.398352	0.055212
H43	H	0.645906	0.398337	-0.055215
C44	C	1.000229	-0.298971	0.000035
H45	H	1.005860	-0.366070	0.000040
H46	H	0.966522	-0.281023	-0.055170
H47	H	0.966529	-0.281039	0.055257
C48	C	1.277434	-0.248953	0.000057
H49	H	1.271809	-0.181854	0.000073
H50	H	1.311156	-0.266881	-0.055146
H51	H	1.311114	-0.266912	0.055282
C52	C	1.263618	0.101305	0.241713
H53	H	1.299011	0.065931	0.285664
H54	H	1.306259	0.139027	0.202822
H55	H	1.225904	0.058632	0.202854
C56	C	1.263646	0.101324	0.450980
H57	H	1.299048	0.065963	0.407029
H58	H	1.225959	0.058653	0.489872
H59	H	1.306293	0.139068	0.489838
H60	H	1.246677	0.118292	0.563319
H61	H	1.030966	0.333771	0.255954
C62	C	1.263672	0.101318	0.758349
H63	H	1.255160	0.109815	0.824838
H64	H	1.328264	0.117111	0.742008
H65	H	1.247911	0.036714	0.742026
C66	C	1.013984	0.350699	0.758366
H67	H	0.978551	0.386041	0.714421
H68	H	1.051632	0.393389	0.797258
H69	H	0.971367	0.312905	0.797225
H70	H	1.030998	0.333787	0.563326
H71	H	1.030987	0.333774	0.436754
