data_functionalizedCrystal
_audit_creation_method	'MofGen! by Chris Wilmer'
_symmetry_space_group_name_H-M	'P1'
_symmetry_Int_Tables_number	1
_symmetry_cell_setting	triclinic
loop_
_symmetry_equiv_pos_as_xyz
  x,y,z
_cell_length_a	10.723022
_cell_length_b	16.109304
_cell_length_c	14.586319
_cell_angle_alpha	90.001538
_cell_angle_beta	90.003833
_cell_angle_gamma	83.964932
loop_
_atom_site_label
_atom_site_type_symbol
_atom_site_fract_x
_atom_site_fract_y
_atom_site_fract_z
O1	O	1.655645	0.116602	0.076228
O2	O	1.292345	0.127765	0.076231
O3	O	1.483973	0.001212	0.076230
O4	O	1.464017	0.243156	0.076229
O5	O	1.483958	0.001209	-0.076251
O6	O	1.292329	0.127762	-0.076250
O7	O	1.655630	0.116599	-0.076253
Cu8	Cu	1.473978	0.122180	-0.090174
Cu9	Cu	1.473996	0.122184	0.090152
O10	O	1.464001	0.243153	-0.076252
C11	C	1.245848	0.126952	-0.000009
C12	C	1.107326	0.124522	-0.000008
C13	C	1.059731	0.051543	-0.000007
C14	C	0.916562	0.049030	-0.000006
C15	C	1.483157	-0.029770	-0.000008
C16	C	1.480731	-0.122079	-0.000002
C17	C	1.702126	0.117413	-0.000011
C18	C	1.840649	0.119843	-0.000006
C19	C	1.475136	-0.334448	0.083112
C20	C	1.472846	-0.421181	0.083111
C21	C	1.472835	-0.421182	-0.083132
C22	C	1.475116	-0.334449	-0.083130
C23	C	1.476273	-0.291085	-0.000006
C24	C	1.471701	-0.464551	-0.000008
C25	C	1.469218	-0.558591	-0.000010
C26	C	1.478755	-0.197038	-0.000004
C27	C	1.464818	0.274134	-0.000012
C28	C	1.467243	0.366443	-0.000012
N29	N	1.473975	0.122177	-0.217006
C30	C	1.558861	0.066158	-0.548000
C31	C	1.558858	0.066158	-0.452019
C32	C	1.389120	0.178206	-0.452029
C33	C	1.389130	0.178209	-0.548008
C34	C	1.473999	0.122180	-0.595991
C35	C	1.473986	0.122178	-0.404031
C36	C	1.473982	0.122178	-0.299963
C37	C	1.474005	0.122180	-0.700065
N38	N	1.474010	0.122181	0.216984
H39	H	0.881625	0.182330	-0.000012
C40	C	1.295757	0.239829	-0.399247
C41	C	1.153672	0.237575	-0.412465
C42	C	1.060303	0.299198	-0.359687
C43	C	1.109019	0.363076	-0.293689
C44	C	1.251111	0.365332	-0.280468
C45	C	1.344480	0.303709	-0.333246
H46	H	1.117603	0.190287	-0.461323
H47	H	0.955117	0.297528	-0.369475
H48	H	1.039902	0.408693	-0.254619
H49	H	1.287180	0.412620	-0.231610
H50	H	1.449666	0.305380	-0.323458
C51	C	1.652224	0.004535	-0.600782
C52	C	1.745593	-0.057072	-0.547987
C53	C	1.838962	-0.118696	-0.600766
C54	C	1.838962	-0.118712	-0.706339
C55	C	1.745589	-0.057102	-0.759140
C56	C	1.652220	0.004521	-0.706362
H57	H	1.745596	-0.057063	-0.469830
H58	H	1.908083	-0.164303	-0.561678
H59	H	1.908079	-0.164329	-0.745409
H60	H	1.745585	-0.057112	-0.837298
H61	H	1.583099	0.050128	-0.745449
C62	C	1.295775	0.239836	-0.600807
C63	C	1.202411	0.301459	-0.548034
C64	C	1.109065	0.363086	-0.600834
C65	C	1.109084	0.363089	-0.706407
C66	C	1.202452	0.301464	-0.759187
C67	C	1.295797	0.239838	-0.706387
H68	H	1.202394	0.301459	-0.469876
H69	H	1.039948	0.408705	-0.561762
H70	H	1.039984	0.408709	-0.745493
H71	H	1.202469	0.301465	-0.837344
H72	H	1.364914	0.194219	-0.745458
H73	H	1.042081	0.185142	-0.000004
C74	C	0.861207	-0.035388	-0.000005
C75	C	0.891291	-0.097505	0.079174
C76	C	0.835934	-0.181926	0.079175
C77	C	0.750492	-0.204230	-0.000004
C78	C	0.720404	-0.142111	-0.079189
C79	C	0.775761	-0.057690	-0.079190
H80	H	0.954543	-0.080995	0.137792
H81	H	0.858207	-0.227910	0.137793
H82	H	0.709514	-0.266723	-0.000003
H83	H	0.657152	-0.158621	-0.137806
H84	H	0.753488	-0.011706	-0.137808
C85	C	1.476368	-0.286743	-0.174566
C86	C	1.478871	-0.191340	-0.174562
C87	C	1.480117	-0.143633	-0.265992
C88	C	1.478860	-0.191329	-0.357426
C89	C	1.476357	-0.286737	-0.357433
C90	C	1.475111	-0.334444	-0.266003
H91	H	1.479802	-0.156027	-0.106874
H92	H	1.481970	-0.073005	-0.265986
H93	H	1.479782	-0.156013	-0.425108
H94	H	1.475426	-0.322050	-0.425122
H95	H	1.473258	-0.405072	-0.266009
C96	C	1.476396	-0.286745	0.174546
C97	C	1.475138	-0.334447	0.265973
C98	C	1.476394	-0.286747	0.357410
C99	C	1.478907	-0.191344	0.357420
C100	C	1.480166	-0.143637	0.265989
C101	C	1.478910	-0.191337	0.174552
H102	H	1.473277	-0.405074	0.265969
H103	H	1.475462	-0.322063	0.425093
H104	H	1.479837	-0.156034	0.425107
H105	H	1.482027	-0.073010	0.265993
H106	H	1.479841	-0.156021	0.106869
C107	C	1.471601	-0.468880	0.174543
C108	C	1.580214	-0.465780	0.243113
C109	C	1.578968	-0.513478	0.334549
C110	C	1.469108	-0.564274	0.357415
C111	C	1.360486	-0.567376	0.288843
C112	C	1.361732	-0.519678	0.197407
H113	H	1.661547	-0.428176	0.226188
H114	H	1.659378	-0.511181	0.385311
H115	H	1.468185	-0.599583	0.425102
H116	H	1.279153	-0.604980	0.305769
H117	H	1.281323	-0.521974	0.146646
H118	H	1.627961	0.020541	-0.412947
C119	C	1.471554	-0.468891	-0.174561
C120	C	1.363557	-0.448145	-0.243123
C121	C	1.362270	-0.495856	-0.334551
C122	C	1.468978	-0.564313	-0.357418
C123	C	1.576982	-0.585063	-0.288854
C124	C	1.578270	-0.537352	-0.197425
H125	H	1.284558	-0.397465	-0.226197
H126	H	1.282317	-0.480495	-0.385307
H127	H	1.468025	-0.599631	-0.425099
H128	H	1.655981	-0.635742	-0.305780
H129	H	1.658222	-0.552713	-0.146670
H130	H	1.124976	-0.009077	-0.000003
