data_functionalizedCrystal
_audit_creation_method	'MofGen! by Chris Wilmer'
_symmetry_space_group_name_H-M	'P1'
_symmetry_Int_Tables_number	1
_symmetry_cell_setting	triclinic
loop_
_symmetry_equiv_pos_as_xyz
  x,y,z
_cell_length_a	12.759401
_cell_length_b	17.640280
_cell_length_c	17.637464
_cell_angle_alpha	92.150542
_cell_angle_beta	101.198104
_cell_angle_gamma	78.802151
loop_
_atom_site_label
_atom_site_type_symbol
_atom_site_fract_x
_atom_site_fract_y
_atom_site_fract_z
Zn1	Zn	1.611762	-0.389096	-0.368309
Zn2	Zn	1.679944	-0.490416	-0.215677
Zn3	Zn	1.463328	-0.363454	-0.241331
Zn4	Zn	1.477077	-0.516042	-0.342637
O5	O	1.558028	-0.439752	-0.291989
O6	O	1.767828	-0.402544	-0.348069
O7	O	1.673989	-0.452119	-0.112806
O8	O	1.448729	-0.260594	-0.279655
O9	O	1.817920	-0.476983	-0.235931
O10	O	1.557784	-0.279434	-0.372945
O11	O	1.514842	-0.358840	-0.131654
O12	O	1.318131	-0.383688	-0.254762
O13	O	1.472163	-0.520658	-0.452317
O14	O	1.328232	-0.495794	-0.329192
O15	O	1.571116	-0.427392	-0.471177
O16	O	1.687322	-0.600077	-0.211039
O17	O	1.538276	-0.618904	-0.304316
C18	C	1.285061	-0.439740	-0.291975
C19	C	1.168286	-0.439756	-0.291984
C20	C	1.621714	-0.637046	-0.252124
C21	C	1.649050	-0.721454	-0.235095
C22	C	1.118752	-0.498188	-0.330648
C23	C	1.009026	-0.498194	-0.330662
C24	C	0.998378	-0.381333	-0.253343
C25	C	1.108100	-0.381325	-0.253333
C26	C	1.350730	-1.048153	-0.421630
C27	C	1.376424	-1.127463	-0.405605
C28	C	1.531687	-1.107813	-0.308573
C29	C	1.506010	-1.028500	-0.324593
C30	C	1.415529	-0.998677	-0.381122
C31	C	1.570809	-0.979024	-0.284085
C32	C	1.545129	-0.899718	-0.300101
C33	C	1.454651	-0.869889	-0.356625
C34	C	1.389850	-0.919371	-0.397137
C35	C	1.661284	-1.008848	-0.227553
C36	C	1.726083	-0.959372	-0.187044
C37	C	1.700409	-0.880066	-0.203064
C38	C	1.609931	-0.850236	-0.259588
C39	C	1.765210	-0.830583	-0.162551
C40	C	1.739531	-0.751277	-0.178567
C41	C	1.584251	-0.770930	-0.275604
C42	C	1.832061	-0.439765	-0.292002
C43	C	1.948837	-0.439771	-0.292008
C44	C	1.515568	-0.479743	-0.490073
C45	C	1.497474	-0.496785	-0.574485
C46	C	1.494117	-0.241691	-0.332025
C47	C	1.466883	-0.157290	-0.349086
C48	C	1.420458	-0.569360	-0.683642
C49	C	1.437466	-0.553341	-0.604325
C50	C	1.540504	-0.456230	-0.623956
C51	C	1.523509	-0.472244	-0.703275
C52	C	1.463485	-0.528809	-0.733112
C53	C	1.566536	-0.431692	-0.752745
C54	C	1.549538	-0.447702	-0.832058
C55	C	1.489513	-0.504264	-0.861901
C56	C	1.446487	-0.544819	-0.812425
C57	C	1.626554	-0.375123	-0.722908
C58	C	1.669581	-0.334572	-0.772377
C59	C	1.652590	-0.350586	-0.851691
C60	C	1.592565	-0.407147	-0.881534
C61	C	1.695616	-0.310030	-0.901168
C62	C	1.678618	-0.326040	-0.980481
C63	C	1.575567	-0.423157	-0.960847
C64	C	1.600365	-0.399861	-0.094685
C65	C	1.618593	-0.382606	-0.010317
H66	H	1.167751	-0.545765	-0.362122
H67	H	0.968700	-0.545774	-0.362148
H68	H	1.277058	-1.023872	-0.467667
F69	F	1.160819	-0.319127	-0.212184
F70	F	0.934316	-0.319150	-0.212209
H71	H	1.510580	-0.746649	-0.321641
F72	F	1.759468	-0.249815	-0.869406
H73	H	1.640395	-0.362092	-0.658325
H74	H	1.682191	-1.073425	-0.214517
H75	H	1.718450	-0.288515	-0.748074
F76	F	1.808490	-0.698617	-0.135448
H77	H	1.589373	-0.410172	-0.599652
H78	H	1.838873	-0.854876	-0.116520
H79	H	1.475665	-0.517292	-0.926485
F80	F	1.427481	-0.785511	-0.373808
F81	F	1.511688	-0.483365	-0.992605
H82	H	1.397617	-0.590885	-0.836718
F83	F	1.293558	-0.887629	-0.457308
H84	H	1.371588	-0.615426	-0.707935
H85	H	1.713649	-0.293016	-1.020761
F86	F	1.391665	-0.596505	-0.551677
H87	H	1.323661	-1.167747	-0.438605
F88	F	1.627981	-1.139562	-0.248414
H89	H	1.799750	-0.983665	-0.141017
