data_functionalizedCrystal
_audit_creation_method	'MofGen! by Chris Wilmer'
_symmetry_space_group_name_H-M	'P1'
_symmetry_Int_Tables_number	1
_symmetry_cell_setting	triclinic
loop_
_symmetry_equiv_pos_as_xyz
  x,y,z
_cell_length_a	16.992694
_cell_length_b	27.731996
_cell_length_c	16.053802
_cell_angle_alpha	92.537600
_cell_angle_beta	87.249047
_cell_angle_gamma	86.644806
loop_
_atom_site_label
_atom_site_type_symbol
_atom_site_fract_x
_atom_site_fract_y
_atom_site_fract_z
O1	O	1.042446	0.100542	-0.069343
O2	O	0.814176	0.099418	-0.069367
O3	O	0.935421	0.029889	-0.069336
O4	O	0.921201	0.170070	-0.069374
O5	O	0.928748	0.033700	0.069521
O6	O	0.807503	0.103228	0.069490
O7	O	1.035773	0.104352	0.069515
Zn8	Zn	0.920578	0.104395	0.091549
Zn9	Zn	0.929371	0.099375	-0.091401
O10	O	0.914528	0.173881	0.069484
C11	C	0.781645	0.099877	0.000059
C12	C	0.694655	0.095563	0.000050
C13	C	0.643898	0.137186	0.000040
C14	C	0.562161	0.133130	0.000052
C15	C	0.531183	0.087450	0.000069
C16	C	0.581946	0.045824	0.000083
C17	C	0.663681	0.049880	0.000076
C18	C	0.287793	0.070637	0.000096
C19	C	0.206052	0.066584	0.000100
C20	C	0.186272	0.153891	0.000072
C21	C	0.268009	0.157943	0.000060
C22	C	0.318765	0.116317	0.000078
N23	N	0.447635	0.083303	0.000080
N24	N	0.402311	0.120464	0.000073
C25	C	0.931792	0.013774	0.000095
C26	C	0.930912	-0.039920	0.000104
C27	C	0.929015	-0.374953	-0.075629
C28	C	0.925674	-0.576756	-0.075644
O29	O	0.928302	-0.604614	-0.140017
N30	N	0.921622	-0.599915	0.000047
C31	C	0.918399	-0.572619	0.075746
O32	O	0.914867	-0.596946	0.140125
C33	C	0.921734	-0.370816	0.075760
C34	C	0.925795	-0.347661	0.000065
C35	C	0.933075	-0.351798	-0.151318
C36	C	0.933914	-0.301350	-0.151313
C37	C	0.930694	-0.274058	-0.075620
C38	C	0.926634	-0.297213	0.000070
C39	C	0.918506	-0.343521	0.151459
C40	C	0.919338	-0.293067	0.151456
C41	C	0.923399	-0.269912	0.075760
C42	C	0.924254	-0.219474	0.075768
N43	N	0.928306	-0.196315	0.000077
C44	C	0.931526	-0.223608	-0.075616
C45	C	0.916650	-0.678568	0.075733
C46	C	0.915817	-0.729018	0.075730
C47	C	0.923091	-0.733153	-0.075660
C48	C	0.923929	-0.682702	-0.075656
C49	C	0.920702	-0.655410	0.000043
C50	C	0.933290	-0.117664	-0.075601
C51	C	0.934132	-0.067212	-0.075590
C52	C	0.926854	-0.063082	0.075800
C53	C	0.926016	-0.113530	0.075789
C54	C	0.929231	-0.140820	0.000082
O55	O	0.921619	-0.191586	0.140107
O56	O	0.935040	-0.199270	-0.139986
C57	C	0.928176	-0.425401	-0.075633
C58	C	0.924116	-0.448556	0.000056
C59	C	0.920896	-0.421264	0.075750
C60	C	0.923284	-0.499007	0.000053
C61	C	0.926504	-0.526299	-0.075641
C62	C	0.930557	-0.503141	-0.151331
C63	C	0.931396	-0.452693	-0.151327
C64	C	0.916843	-0.444422	0.151440
C65	C	0.916005	-0.494870	0.151429
C66	C	0.919225	-0.522162	0.075736
C67	C	1.068304	0.103893	0.000087
C68	C	1.155295	0.108207	0.000090
C69	C	0.918157	0.189995	0.000050
C70	C	0.919038	0.243689	0.000036
N71	N	0.914583	0.107821	0.216408
N72	N	0.935372	0.095945	-0.216260
C73	C	0.966192	0.078249	0.260115
C74	C	0.962005	0.080650	0.347521
C75	C	0.906214	0.112627	0.391217
C76	C	0.854600	0.142200	0.347504
C77	C	0.858783	0.139796	0.260100
C78	C	0.887941	0.123115	0.652622
C79	C	0.883764	0.125518	0.740033
C80	C	0.991169	0.063967	0.740043
C81	C	0.995350	0.061567	0.652637
C82	C	0.943733	0.091139	0.608932
N83	N	0.901935	0.115083	0.480560
N84	N	0.948009	0.088680	0.519590
H85	H	0.180833	0.029384	0.000114
H86	H	0.934702	-0.433845	-0.212966
H87	H	0.705008	0.015986	0.000084
H88	H	0.914025	-0.656351	0.137380
H89	H	0.838329	0.151559	0.775607
O90	O	1.055538	0.027084	0.605513
H91	H	1.049785	0.030387	0.537392
H92	H	0.925714	-0.755383	-0.137293
O93	O	0.914118	-0.368488	0.233102
H94	H	0.912007	-0.341026	0.285728
O95	O	0.342532	0.025743	0.000115
H96	H	0.307257	-0.006702	0.000121
H97	H	0.669113	0.174384	0.000025
O98	O	0.915867	-0.263630	0.233104
H99	H	0.912911	-0.288211	0.285732
O100	O	0.548533	-0.003445	0.000106
H101	H	0.597562	-0.031707	0.000122
O102	O	0.938501	-0.042236	-0.157235
H103	H	0.940588	-0.069692	-0.209868
O104	O	0.934023	-0.532581	-0.232976
H105	H	0.932750	-0.571551	-0.220252
H106	H	0.520837	0.167025	0.000043
O107	O	1.046836	0.032074	0.787187
H108	H	1.086338	0.009438	0.742117
H109	H	0.922716	-0.132384	0.137426
O110	O	0.923379	-0.033641	0.157440
H111	H	0.924636	0.005330	0.144718
O112	O	0.832279	0.155013	0.605487
H113	H	0.792790	0.177656	0.650559
H114	H	1.004029	0.056570	0.383106
H115	H	0.935904	-0.139878	-0.137249
O116	O	0.938273	-0.276377	-0.232956
H117	H	0.940359	-0.303837	-0.285584
H118	H	0.809169	0.168235	0.383087
H119	H	0.293226	0.195140	0.000037
H120	H	0.816757	0.163876	0.224515
H121	H	0.144938	0.187781	0.000059
H122	H	0.935695	-0.374014	-0.212960
H123	H	0.912704	-0.513718	0.213074
H124	H	0.914222	-0.422206	0.213080
O125	O	0.928296	-0.657727	-0.157297
H126	H	0.930389	-0.685185	-0.209927
O127	O	0.911444	-0.753992	0.157372
H128	H	0.909337	-0.726533	0.210002
O129	O	1.026364	0.043757	0.212985
H130	H	1.061541	0.023594	0.258065
