data_functionalizedCrystal
_audit_creation_method	'MofGen! by Chris Wilmer'
_symmetry_space_group_name_H-M	'P1'
_symmetry_Int_Tables_number	1
_symmetry_cell_setting	triclinic
loop_
_symmetry_equiv_pos_as_xyz
  x,y,z
_cell_length_a	10.654545
_cell_length_b	12.811442
_cell_length_c	9.130313
_cell_angle_alpha	84.565185
_cell_angle_beta	89.996934
_cell_angle_gamma	84.264069
loop_
_atom_site_label
_atom_site_type_symbol
_atom_site_fract_x
_atom_site_fract_y
_atom_site_fract_z
O1	O	1.667083	0.147403	-0.141358
O2	O	1.301531	0.161454	-0.143230
O3	O	1.493497	0.001704	-0.122004
O4	O	1.475117	0.307153	-0.162584
O5	O	1.493484	0.001699	0.121595
O6	O	1.301518	0.161449	0.100369
O7	O	1.667070	0.147398	0.102241
Cu8	Cu	1.484293	0.154423	0.123548
Cu9	Cu	1.484308	0.154429	-0.164537
O10	O	1.475103	0.307149	0.081015
C11	C	1.254732	0.160421	-0.021294
C12	C	1.115304	0.157337	-0.020887
C13	C	1.049800	0.155883	0.112093
C14	C	0.918796	0.152968	0.112480
C15	C	0.918810	0.152966	-0.153105
C16	C	1.049814	0.155873	-0.153489
C17	C	1.492459	-0.037410	0.004988
C18	C	1.489367	-0.153950	0.020462
C19	C	1.485009	-0.318214	0.175054
C20	C	1.487909	-0.208714	0.160519
C21	C	1.487923	-0.208694	-0.105069
C22	C	1.485023	-0.318194	-0.090534
C23	C	1.483569	-0.372951	0.049533
C24	C	1.480678	-0.482454	0.064067
C25	C	1.480683	-0.482431	-0.201519
C26	C	1.483583	-0.372931	-0.216055
C27	C	1.713869	0.148431	-0.019698
C28	C	1.853297	0.151515	-0.020115
C29	C	1.476142	0.346262	-0.045981
C30	C	1.479233	0.462802	-0.061464
N31	N	1.484291	0.154419	0.326171
N32	N	1.484320	0.154425	-0.367159
C33	C	1.569322	0.083711	0.412218
C34	C	1.569334	0.083712	0.565554
C35	C	1.399279	0.225136	0.546783
C36	C	1.399262	0.225130	0.393450
H37	H	0.865468	0.151784	0.220765
F38	F	1.659833	0.008453	0.657128
F39	F	0.849103	0.151388	-0.294219
H40	H	1.103149	0.157055	-0.261784
H41	H	1.479513	-0.527009	-0.303728
F42	F	1.479135	-0.540729	0.213135
H43	H	1.489104	-0.164092	-0.219104
F44	F	1.483479	-0.376494	0.324120
F45	F	1.308793	0.300391	0.618396
F46	F	1.308751	0.300386	0.301866
H47	H	1.638556	0.026133	0.357444
F48	F	1.489438	-0.150462	0.294116
H49	H	1.484764	-0.328333	-0.330093
H50	H	1.103118	0.157075	0.220066
