data_functionalizedCrystal
_audit_creation_method	'MofGen! by Chris Wilmer'
_symmetry_space_group_name_H-M	'P1'
_symmetry_Int_Tables_number	1
_symmetry_cell_setting	triclinic
loop_
_symmetry_equiv_pos_as_xyz
  x,y,z
_cell_length_a	6.817900
_cell_length_b	15.301126
_cell_length_c	10.992410
_cell_angle_alpha	93.551656
_cell_angle_beta	108.764651
_cell_angle_gamma	104.177575
loop_
_atom_site_label
_atom_site_type_symbol
_atom_site_fract_x
_atom_site_fract_y
_atom_site_fract_z
V1	V	-4.090843	-0.124759	-0.400984
O2	O	-4.073501	0.005995	-0.392949
O3	O	-4.045418	-0.247376	-0.398628
O4	O	-4.068795	-0.122840	-0.575690
O5	O	-4.049962	-0.119403	-0.214660
V6	V	-4.570670	-0.109119	-0.378651
O7	O	-4.360207	-0.159066	-0.449972
O8	O	-4.751504	-0.074812	-0.329662
O9	O	-4.392889	0.013498	-0.381007
O10	O	-4.705409	-0.239873	-0.386686
O11	O	-4.728948	-0.114475	-0.564974
O12	O	-4.369512	-0.111038	-0.203944
C13	C	-3.890289	-0.277267	-0.392402
C14	C	-3.934612	-0.377508	-0.391640
C15	C	-4.138640	-0.429194	-0.397705
C16	C	-4.180278	-0.523382	-0.396997
C17	C	-4.017879	-0.565880	-0.390214
C18	C	-3.813835	-0.514188	-0.384153
C19	C	-3.772205	-0.420003	-0.384870
C20	C	-3.900616	-0.710499	-0.382654
C21	C	-3.942247	-0.804689	-0.381934
C22	C	-4.308689	-0.813877	-0.394781
C23	C	-4.267059	-0.719692	-0.395499
C24	C	-4.063016	-0.668006	-0.389434
C25	C	-3.920108	-0.118408	-0.618261
C26	C	-3.983385	-0.117650	-0.761087
C27	C	-3.851803	-0.110746	-0.956188
C28	C	-3.786035	-0.111908	-0.807709
C29	C	-4.164721	-0.206559	-0.838469
C30	C	-4.229182	-0.205773	-0.987033
C31	C	-4.139246	-0.033613	-0.948462
C32	C	-4.068616	-0.033192	-0.799448
C33	C	-4.211358	0.043384	-0.387229
C34	C	-4.146276	0.143624	-0.387999
C35	C	-4.181539	-0.115473	-0.161367
C36	C	-4.097501	-0.116226	-0.018540
H37	H	-4.474820	-0.855963	-0.399700
Br38	Br	-4.487441	-0.662011	-0.404665
H39	H	-4.107195	-0.269265	-0.813060
H40	H	-3.717564	-0.172090	-0.783082
Br41	Br	-4.530097	-0.218636	-1.058132
H42	H	-4.048998	0.033902	-0.968610
H43	H	-4.270884	-0.394598	-0.403216
Br44	Br	-3.721862	-0.862370	-0.372760
Br45	Br	-3.623704	-0.640354	-0.374435
Br46	Br	-4.413054	-0.218917	-0.790514
Br47	Br	-3.676546	-0.003360	-0.986989
H48	H	-3.815729	-0.170104	-1.004367
H49	H	-3.937701	0.032579	-0.746884
Br50	Br	-4.183693	-0.310032	-1.064488
H51	H	-3.681614	-0.548798	-0.378638
Br52	Br	-3.495305	-0.349857	-0.376652
Br53	Br	-3.558530	-0.005372	-0.718465
H54	H	-4.210925	-0.032148	-0.766933
H55	H	-4.346416	-0.565461	-0.401938
Br56	Br	-4.436549	-0.038995	-1.016550
