data_functionalizedCrystal
_audit_creation_method	'MofGen! by Chris Wilmer'
_symmetry_space_group_name_H-M	'P1'
_symmetry_Int_Tables_number	1
_symmetry_cell_setting	triclinic
loop_
_symmetry_equiv_pos_as_xyz
  x,y,z
_cell_length_a	13.635800
_cell_length_b	13.563541
_cell_length_c	9.514088
_cell_angle_alpha	76.247526
_cell_angle_beta	118.843545
_cell_angle_gamma	75.295376
loop_
_atom_site_label
_atom_site_type_symbol
_atom_site_fract_x
_atom_site_fract_y
_atom_site_fract_z
V1	V	2.138298	-0.155855	0.569810
O2	O	2.099645	0.005460	0.488791
O3	O	2.142084	-0.307083	0.633402
O4	O	2.155401	-0.154348	0.787533
O5	O	2.086237	-0.148332	0.333592
V6	V	2.371133	-0.136455	0.533358
O7	O	2.288507	-0.198411	0.649770
O8	O	2.446023	-0.093898	0.453397
O9	O	2.255743	0.014773	0.469766
O10	O	2.468484	-0.297770	0.614377
O11	O	2.481892	-0.143978	0.769575
O12	O	2.242427	-0.137962	0.315634
V13	V	2.638298	-0.155855	0.569810
O14	O	2.599645	0.005460	0.488791
O15	O	2.642084	-0.307083	0.633402
O16	O	2.655401	-0.154348	0.787533
O17	O	2.586237	-0.148332	0.333592
V18	V	2.871133	-0.136455	0.533358
O19	O	2.788507	-0.198411	0.649770
O20	O	2.946023	-0.093898	0.453397
O21	O	2.755743	0.014773	0.469766
O22	O	2.968484	-0.297770	0.614377
O23	O	2.981892	-0.143978	0.769575
O24	O	2.742427	-0.137962	0.315634
C25	C	2.070057	-0.343921	0.641827
C26	C	2.114072	-0.467558	0.695272
C27	C	2.033112	-0.750214	0.228420
C28	C	1.991750	-0.634050	0.178202
C29	C	2.022328	-0.592421	0.307465
C30	C	2.094273	-0.666967	0.486955
C31	C	2.135631	-0.783142	0.537177
C32	C	2.124847	-0.625349	0.616222
C33	C	2.196792	-0.699895	0.795712
C34	C	2.238145	-0.816058	0.845925
C35	C	2.207567	-0.857687	0.716662
C36	C	2.083489	-0.509175	0.566000
C37	C	2.186008	-0.542103	0.874757
C38	C	2.227370	-0.658266	0.924975
C39	C	2.087042	-0.149091	0.838435
C40	C	2.141852	-0.148860	1.016868
C41	C	2.159442	0.051606	0.461339
C42	C	2.105048	0.175241	0.407905
C43	C	2.142456	-0.143222	0.264726
C44	C	2.077263	-0.143448	0.086289
C45	C	2.570057	-0.343921	0.641827
C46	C	2.614072	-0.467558	0.695272
C47	C	2.587042	-0.149091	0.838435
C48	C	2.641852	-0.148860	1.016868
C49	C	2.659442	0.051606	0.461339
C50	C	2.605048	0.175241	0.407905
C51	C	2.642456	-0.143222	0.264726
C52	C	2.577263	-0.143448	0.086289
C53	C	2.728417	-0.531321	0.730921
C54	C	2.769797	-0.647495	0.781165
C55	C	2.696825	-0.699900	0.795745
C56	C	2.582471	-0.636129	0.760096
C57	C	2.541097	-0.519959	0.709866
C58	C	2.663197	0.239004	0.372260
C59	C	2.612091	0.355176	0.322025
C60	C	2.502841	0.407582	0.307448
C61	C	2.444687	0.343811	0.343092
C62	C	2.495788	0.227642	0.393314
H63	H	2.024911	-0.448490	0.419858
H64	H	2.241250	-0.952276	0.757542
C65	C	1.952099	-0.233409	0.949518
C66	C	1.946017	-0.137466	0.982292
H67	H	1.871071	-0.229718	0.885309
H68	H	2.004069	-0.298748	1.058948
H69	H	1.985263	-0.236816	0.882040
H70	H	1.912862	-0.134063	1.049782
H71	H	1.894028	-0.072109	0.872844
H72	H	2.480038	-0.139003	1.009223
C73	C	2.322005	-0.159939	1.021453
C74	C	2.273122	-0.154882	1.120913
H75	H	2.403048	-0.163667	1.085696
H76	H	2.270059	-0.094579	0.912052
H77	H	2.326079	-0.225014	0.999186
H78	H	2.269039	-0.089803	1.143169
H79	H	2.325081	-0.220249	1.230347
H80	H	2.210906	-0.508210	0.980014
C81	C	2.394465	-0.336835	0.623475
C82	C	2.415392	-0.449872	0.670652
H83	H	2.316860	-0.293574	0.599277
H84	H	2.393388	-0.309613	0.520833
H85	H	2.458949	-0.330659	0.718339
H86	H	2.350913	-0.456050	0.575783
H87	H	2.416459	-0.477102	0.773306
C88	C	2.917748	-0.554255	0.756823
C89	C	2.808646	-0.473734	0.714905
H90	H	2.967285	-0.518708	0.746950
H91	H	2.897199	-0.588799	0.677226
H92	H	2.962760	-0.609856	0.874736
H93	H	2.763629	-0.418137	0.596986
H94	H	2.829193	-0.439172	0.794504
H95	H	2.355730	0.386498	0.331214
H96	H	2.461244	0.502175	0.266552
C97	C	2.753456	-0.878754	1.007544
C98	C	2.742317	-0.827598	0.850957
H99	H	2.781552	-0.957589	1.041630
H100	H	2.674916	-0.848293	0.988394
H101	H	2.811472	-0.865088	1.098813
H102	H	2.684293	-0.841257	0.759684
H103	H	2.820868	-0.858069	0.870097
H104	H	2.448433	0.175733	0.422349
H105	H	2.008217	-0.784120	0.123193
C106	C	1.974089	-0.489682	-0.047459
C107	C	1.912677	-0.552116	-0.019083
H108	H	1.925265	-0.439095	-0.169261
H109	H	2.052259	-0.539325	-0.014719
H110	H	1.986371	-0.448268	0.022341
H111	H	1.900403	-0.593537	-0.088873
H112	H	1.834484	-0.502466	-0.051842
C113	C	2.849678	-0.251218	1.282205
C114	C	2.773117	-0.154871	1.120916
H115	H	2.930711	-0.254924	1.346443
H116	H	2.853768	-0.316280	1.259926
H117	H	2.816486	-0.247779	1.349645
H118	H	2.806304	-0.158314	1.053470
H119	H	2.769031	-0.089793	1.143191
C120	C	2.916409	-0.830611	0.867487
C121	C	2.895485	-0.717574	0.820310
H122	H	2.994003	-0.873870	0.891655
H123	H	2.851918	-0.836785	0.772655
H124	H	2.917516	-0.857841	0.970169
H125	H	2.894369	-0.690341	0.717621
H126	H	2.959992	-0.711394	0.915151
C127	C	2.079334	-0.440358	0.329523
C128	C	1.976876	-0.464734	0.252277
H129	H	2.051273	-0.361527	0.295454
H130	H	2.129658	-0.464200	0.290593
H131	H	2.126546	-0.478805	0.454917
H132	H	1.929669	-0.426294	0.126882
H133	H	1.926532	-0.440880	0.291198
C134	C	2.335331	-0.836936	1.146077
C135	C	2.317219	-0.898000	1.043220
H136	H	2.384153	-0.887525	1.267878
H137	H	2.257155	-0.787300	1.113333
H138	H	2.376988	-0.794582	1.126796
H139	H	2.275554	-0.940347	1.062491
H140	H	2.395409	-0.947656	1.075977
C141	C	2.472014	-0.744662	0.658753
C142	C	2.502261	-0.693743	0.776108
H143	H	2.422489	-0.780226	0.668626
H144	H	2.546039	-0.799251	0.687187
H145	H	2.426982	-0.689036	0.540853
H146	H	2.547301	-0.749371	0.894010
H147	H	2.428223	-0.639149	0.747686
C148	C	2.823502	0.261939	0.346337
C149	C	2.783280	0.181419	0.388256
H150	H	2.897629	0.226394	0.356192
H151	H	2.839105	0.296476	0.425945
H152	H	2.761052	0.317547	0.228430
H153	H	2.845727	0.125816	0.506169
H154	H	2.767683	0.146864	0.308647
H155	H	2.659461	0.407083	0.293012
H156	H	2.285951	-0.718978	1.071118
