data_functionalizedCrystal
_audit_creation_method	'MofGen! by Chris Wilmer'
_symmetry_space_group_name_H-M	'P1'
_symmetry_Int_Tables_number	1
_symmetry_cell_setting	triclinic
loop_
_symmetry_equiv_pos_as_xyz
  x,y,z
_cell_length_a	12.594509
_cell_length_b	12.594517
_cell_length_c	12.594516
_cell_angle_alpha	90.015853
_cell_angle_beta	90.026199
_cell_angle_gamma	90.021327
loop_
_atom_site_label
_atom_site_type_symbol
_atom_site_fract_x
_atom_site_fract_y
_atom_site_fract_z
Zn1	Zn	-0.601875	-1.627267	0.423716
Zn2	Zn	-0.423903	-1.627158	0.601726
Zn3	Zn	-0.423904	-1.449271	0.423761
Zn4	Zn	-0.601833	-1.449253	0.601652
O5	O	-0.512879	-1.538237	0.512714
O6	O	-0.578284	-1.776198	0.447341
O7	O	-0.274957	-1.603522	0.578169
O8	O	-0.447530	-1.472936	0.274809
O9	O	-0.447528	-1.776118	0.578124
O10	O	-0.578285	-1.603709	0.274776
O11	O	-0.274958	-1.472830	0.447419
O12	O	-0.447489	-1.300323	0.447347
O13	O	-0.750784	-1.472905	0.577998
O14	O	-0.578213	-1.300310	0.578042
O15	O	-0.750815	-1.603691	0.447269
O16	O	-0.447488	-1.603505	0.750662
O17	O	-0.578212	-1.472799	0.750608
C18	C	-0.512847	-1.261696	0.512692
C19	C	-0.512859	-1.143391	0.512709
C20	C	-0.512868	-1.538167	0.789255
C21	C	-0.512899	-1.538235	0.907560
C22	C	-0.790500	-1.538308	0.512620
C23	C	-0.908805	-1.538339	0.512581
C24	C	-0.978042	-1.467227	0.583644
C25	C	-1.048833	-1.564347	0.609650
C26	C	-1.048813	-1.441294	0.486510
C27	C	-0.978038	-1.635510	0.538638
C28	C	-0.978012	-1.512391	0.415453
C29	C	-1.048772	-1.609579	0.441422
C30	C	-0.236338	-1.538227	0.512730
C31	C	-0.118033	-1.538403	0.512470
C32	C	-0.512911	-1.815858	0.512736
C33	C	-0.512924	-1.934163	0.512745
C34	C	-0.441894	-1.074114	0.441526
C35	C	-0.415718	-1.003303	0.538615
C36	C	-0.539054	-1.003403	0.415668
C37	C	-0.486632	-1.074138	0.609849
C38	C	-0.610013	-1.074244	0.486836
C39	C	-0.583874	-1.003465	0.583991
C40	C	-0.512912	-1.538336	0.235093
C41	C	-0.512927	-1.538378	0.116787
C42	C	-0.583950	-1.467137	0.976822
C43	C	-0.486827	-1.441204	1.047688
C44	C	-0.610039	-1.564265	1.047494
C45	C	-0.415725	-1.512250	0.976867
C46	C	-0.539002	-1.635357	0.976667
C47	C	-0.441812	-1.609460	1.047500
H48	H	-0.946986	-1.407136	0.643833
C49	C	-0.720998	-1.593936	1.089403
H50	H	-0.771379	-1.543299	1.065189
H51	H	-0.720060	-1.594413	1.164820
H52	H	-0.740017	-1.662394	1.064030
C53	C	-0.568838	-1.746215	0.934529
H54	H	-0.637900	-1.764562	0.958678
H55	H	-0.519066	-1.796922	0.959806
H56	H	-0.567978	-1.745552	0.859108
C57	C	-0.665006	-1.385780	0.934889
H58	H	-0.717050	-1.421246	0.893322
H59	H	-0.629526	-1.334546	0.892417
H60	H	-0.698460	-1.351367	0.993067
C61	C	-1.090832	-1.594071	0.720548
H62	H	-1.132316	-1.656904	0.715701
H63	H	-1.133395	-1.537826	0.747225
H64	H	-1.032673	-1.605843	0.767134
C65	C	-0.936225	-1.746461	0.568443
H66	H	-0.860796	-1.745755	0.568320
H67	H	-0.961023	-1.797001	0.518214
H68	H	-0.961047	-1.765068	0.637184
H69	H	-1.079902	-1.359198	0.464506
H70	H	-0.464772	-1.359136	1.078906
C71	C	-0.360729	-1.116033	0.360290
H72	H	-0.291754	-1.091740	0.378865
H73	H	-0.378636	-1.090775	0.291516
H74	H	-0.361710	-1.191457	0.360394
C75	C	-1.090474	-1.690944	0.360178
H76	H	-1.066109	-1.759842	0.378833
H77	H	-1.065153	-1.673078	0.291429
H78	H	-1.165899	-1.690123	0.360172
H79	H	-0.333584	-0.972144	0.560522
H80	H	-0.381669	-1.669647	1.078338
C81	C	-0.935947	-1.482659	0.304590
H82	H	-0.960136	-1.413627	0.286209
H83	H	-0.961218	-1.532493	0.253892
H84	H	-0.860525	-1.483489	0.305283
H85	H	-0.464413	-1.105080	0.691955
C86	C	-0.304734	-1.482447	0.935139
H87	H	-0.305412	-1.482538	0.859709
H88	H	-0.254230	-1.532681	0.959902
H89	H	-0.286099	-1.413714	0.960048
H90	H	-0.643914	-0.972639	0.644273
C91	C	-0.720931	-1.116381	0.457203
H92	H	-0.739416	-1.092207	0.388182
H93	H	-0.771547	-1.091141	0.507075
H94	H	-0.720251	-1.191803	0.458042
C95	C	-0.568956	-0.961432	0.304786
H96	H	-0.518441	-0.985635	0.254289
H97	H	-0.569403	-0.886016	0.305747
H98	H	-0.637466	-0.986777	0.285906
