data_functionalizedCrystal
_audit_creation_method	'MofGen! by Chris Wilmer'
_symmetry_space_group_name_H-M	'P1'
_symmetry_Int_Tables_number	1
_symmetry_cell_setting	triclinic
loop_
_symmetry_equiv_pos_as_xyz
  x,y,z
_cell_length_a	14.908783
_cell_length_b	21.295417
_cell_length_c	14.908308
_cell_angle_alpha	93.260635
_cell_angle_beta	89.788727
_cell_angle_gamma	93.321081
loop_
_atom_site_label
_atom_site_type_symbol
_atom_site_fract_x
_atom_site_fract_y
_atom_site_fract_z
Zn1	Zn	1.345261	-0.220173	-0.587798
Zn2	Zn	1.845261	0.279827	-0.087798
Zn3	Zn	1.353817	-0.319050	-0.437424
Zn4	Zn	1.853817	0.180950	0.062576
Zn5	Zn	1.203574	-0.219492	-0.428769
Zn6	Zn	1.703574	0.280508	0.071231
Zn7	Zn	1.194840	-0.331104	-0.579044
Zn8	Zn	1.694840	0.168896	-0.079044
O9	O	1.274373	-0.272455	-0.508259
O10	O	1.774373	0.227545	-0.008259
O11	O	1.472225	-0.228530	-0.575136
O12	O	1.972225	0.271470	-0.075136
O13	O	1.341124	-0.300514	-0.310453
O14	O	1.841124	0.199486	0.189547
O15	O	1.222444	-0.131491	-0.449907
O16	O	1.722444	0.368509	0.050093
O17	O	1.478511	-0.301174	-0.464657
O18	O	1.978511	0.198826	0.035343
O19	O	1.326540	-0.131992	-0.566744
O20	O	1.826540	0.368008	-0.066744
O21	O	1.230741	-0.227369	-0.304095
O22	O	1.730741	0.272631	0.195905
O23	O	1.076587	-0.239057	-0.441418
O24	O	1.576587	0.260943	0.058582
O25	O	1.207557	-0.321719	-0.706027
O26	O	1.707557	0.178281	-0.206027
O27	O	1.070170	-0.321058	-0.551824
O28	O	1.570170	0.178942	-0.051824
O29	O	1.318071	-0.240218	-0.712459
O30	O	1.818071	0.259782	-0.212459
O31	O	1.332654	-0.408740	-0.456168
O32	O	1.832654	0.091260	0.043832
O33	O	1.215854	-0.417596	-0.560216
O34	O	1.715854	0.082404	-0.060216
C35	C	1.040752	-0.281292	-0.494732
C36	C	1.540752	0.218708	0.005268
C37	C	0.940807	-0.285089	-0.488967
C38	C	1.440807	0.214911	0.011033
C39	C	0.746441	-0.216696	-0.593351
C40	C	1.246441	0.283304	-0.093351
C41	C	0.652533	-0.220261	-0.587937
C42	C	1.152533	0.279739	-0.087937
C43	C	0.659082	-0.295781	-0.472721
C44	C	1.159082	0.204219	0.027279
C45	C	0.752990	-0.292216	-0.478135
C46	C	1.252990	0.207784	0.021865
C47	C	0.796666	-0.252672	-0.538453
C48	C	1.296666	0.247328	-0.038453
C49	C	0.890575	-0.249111	-0.543871
C50	C	1.390575	0.250889	-0.043871
C51	C	0.897123	-0.324627	-0.428651
C52	C	1.397123	0.175373	0.071349
C53	C	0.803215	-0.328192	-0.423237
C54	C	1.303215	0.171808	0.076763
C55	C	1.274258	-0.436009	-0.508202
C56	C	1.774258	0.063991	-0.008202
C57	C	1.274289	-0.505976	-0.508213
C58	C	1.774289	-0.005976	-0.008213
C59	C	1.335155	-0.534211	-0.454097
C60	C	1.835155	-0.034211	0.045903
C61	C	1.335196	-0.599953	-0.454120
C62	C	1.835196	-0.099953	0.045880
C63	C	1.274356	-0.637457	-0.508248
C64	C	1.774356	-0.137457	-0.008248
C65	C	1.213486	-0.609215	-0.562374
C66	C	1.713486	-0.109215	-0.062374
C67	C	1.213453	-0.543474	-0.562357
C68	C	1.713453	-0.043474	-0.062357
N69	N	1.195300	-0.743994	-0.510548
N70	N	1.695300	-0.243994	-0.010548
N71	N	1.195335	-0.806445	-0.510559
N72	N	1.695335	-0.306445	-0.010559
C73	C	1.274454	-0.835530	-0.508305
C74	C	1.774454	-0.335530	-0.008305
N75	N	1.353539	-0.799805	-0.506021
N76	N	1.853539	-0.299805	-0.006021
N77	N	1.353504	-0.737349	-0.506005
N78	N	1.853504	-0.237349	-0.006005
C79	C	1.274386	-0.708742	-0.508273
C80	C	1.774386	-0.208742	-0.008273
C81	C	1.335369	-0.935050	-0.454211
C82	C	1.835369	-0.435050	0.045789
C83	C	1.335411	-1.000793	-0.454240
C84	C	1.835411	-0.500793	0.045760
C85	C	1.213693	-1.010054	-0.562489
C86	C	1.713693	-0.510054	-0.062489
C87	C	1.213658	-0.944312	-0.562466
C88	C	1.713658	-0.444312	-0.062466
C89	C	1.274495	-0.906814	-0.508322
C90	C	1.774495	-0.406814	-0.008322
C91	C	1.508906	-0.263583	-0.521838
C92	C	2.008906	0.236417	-0.021838
C93	C	1.608850	-0.259803	-0.527625
C94	C	2.108850	0.240197	-0.027625
C95	C	1.260885	-0.282389	-0.742780
C96	C	1.760885	0.217611	-0.242780
C97	C	1.255138	-0.286622	-0.842719
C98	C	1.755138	0.213378	-0.342719
C99	C	1.274512	-0.108262	-0.508337
C100	C	1.774512	0.391738	-0.008337
C101	C	1.274571	-0.038293	-0.508370
C102	C	1.774571	0.461707	-0.008370
C103	C	1.359412	-0.209696	-1.037213
C104	C	1.859412	0.290304	-0.537213
C105	C	1.354015	-0.213671	-1.131115
C106	C	1.854015	0.286329	-0.631115
C107	C	1.238941	-0.298545	-1.124425
C108	C	1.738941	0.201455	-0.624425
C109	C	1.244339	-0.294569	-1.030524
C110	C	1.744339	0.205431	-0.530524
C111	C	1.304577	-0.250144	-0.986921
C112	C	1.804577	0.249856	-0.486921
C113	C	1.309979	-0.246172	-0.893018
C114	C	1.809979	0.253828	-0.393018
C115	C	1.194901	-0.331042	-0.886330
C116	C	1.694901	0.168958	-0.386330
C117	C	1.189503	-0.335018	-0.980231
C118	C	1.689503	0.164982	-0.480231
C119	C	1.287860	-0.262512	-0.274653
C120	C	1.787860	0.237488	0.225347
C121	C	1.293782	-0.258095	-0.174725
C122	C	1.793782	0.241905	0.325275
H123	H	1.384694	-0.503682	-0.410012
H124	H	1.884694	-0.003682	0.089988
Br125	Br	0.743933	-0.381851	-0.341376
Br126	Br	1.243933	0.118149	0.158624
H127	H	0.938026	-0.353927	-0.383956
H128	H	1.438026	0.146073	0.116044
H129	H	1.150252	-0.363980	-0.845371
H130	H	1.650252	0.136020	-0.345371
Br131	Br	1.130844	-0.505153	-0.635807
Br132	Br	1.630844	-0.005153	-0.135807
H133	H	0.926134	-0.216914	-0.592986
H134	H	1.426134	0.283086	-0.092986
H135	H	1.398665	-0.180732	-1.172060
H136	H	1.898665	0.319268	-0.672060
H137	H	1.384763	-0.622946	-0.410053
H138	H	1.884763	-0.122946	0.089947
H139	H	1.164159	-1.040589	-0.606566
H140	H	1.664159	-0.540589	-0.106566
H141	H	0.782002	-0.184501	-0.642469
H142	H	1.282002	0.315499	-0.142469
H143	H	0.611643	-0.190964	-0.632639
H144	H	1.111643	0.309036	-0.132639
Br145	Br	1.107752	-0.395304	-1.039414
Br146	Br	1.607752	0.104696	-0.539414
Br147	Br	0.599793	-0.349432	-0.390854
Br148	Br	1.099793	0.150568	0.109146
H149	H	1.163951	-0.639755	-0.606447
H150	H	1.663951	-0.139755	-0.106447
H151	H	1.384908	-0.904517	-0.410126
H152	H	1.884908	-0.404517	0.089874
H153	H	1.384980	-1.023780	-0.410175
H154	H	1.884980	-0.523780	0.089825
Br155	Br	1.131049	-0.905990	-0.635910
Br156	Br	1.631049	-0.405990	-0.135910
Br157	Br	1.441175	-0.149415	-0.978035
Br158	Br	1.941175	0.350585	-0.478035
Br159	Br	1.391734	-0.185885	-0.833844
Br160	Br	1.891734	0.314115	-0.333844
H161	H	1.189897	-0.334713	-1.159943
H162	H	1.689897	0.165287	-0.659943
