data_functionalizedCrystal
_audit_creation_method	'MofGen! by Chris Wilmer'
_symmetry_space_group_name_H-M	'P1'
_symmetry_Int_Tables_number	1
_symmetry_cell_setting	triclinic
loop_
_symmetry_equiv_pos_as_xyz
  x,y,z
_cell_length_a	19.805407
_cell_length_b	16.625545
_cell_length_c	16.625525
_cell_angle_alpha	89.907739
_cell_angle_beta	89.939673
_cell_angle_gamma	90.022874
loop_
_atom_site_label
_atom_site_type_symbol
_atom_site_fract_x
_atom_site_fract_y
_atom_site_fract_z
Zn1	Zn	1.035024	-0.320547	-0.455894
Zn2	Zn	1.034856	-0.455541	-0.321062
Zn3	Zn	0.921754	-0.320720	-0.321076
Zn4	Zn	0.921804	-0.455335	-0.455854
O5	O	0.978360	-0.388036	-0.388471
O6	O	1.129718	-0.338468	-0.438019
O7	O	1.019762	-0.437816	-0.208231
O8	O	0.936829	-0.207865	-0.338983
O9	O	1.129595	-0.437648	-0.338958
O10	O	1.020048	-0.207738	-0.438034
O11	O	0.936667	-0.338763	-0.208242
O12	O	0.827044	-0.338563	-0.338944
O13	O	0.936913	-0.437297	-0.568692
O14	O	0.827081	-0.437464	-0.437964
O15	O	1.020096	-0.338269	-0.568722
O16	O	1.019810	-0.568347	-0.338919
O17	O	0.936751	-0.568195	-0.437950
C18	C	0.802504	-0.388011	-0.388452
C19	C	0.727272	-0.388019	-0.388463
C20	C	0.691992	-0.336468	-0.440122
C21	C	0.621304	-0.336472	-0.440125
C22	C	0.585896	-0.388033	-0.388472
C23	C	0.621180	-0.439587	-0.336807
C24	C	0.691867	-0.439578	-0.336801
C25	C	0.336107	-0.439623	-0.336832
C26	C	0.265415	-0.439629	-0.336844
C27	C	0.265543	-0.336517	-0.440157
C28	C	0.336230	-0.336508	-0.440150
C29	C	0.371509	-0.388059	-0.388482
C30	C	0.448157	-0.388053	-0.388478
C31	C	0.509249	-0.388044	-0.388480
C32	C	0.978286	-0.597527	-0.388446
C33	C	0.978317	-0.687148	-0.388462
C34	C	0.978343	-0.759930	-0.388478
C35	C	0.978382	-0.851239	-0.388496
C36	C	0.978417	-0.924015	-0.388506
C37	C	0.978456	-1.015330	-0.388523
C38	C	1.154902	-0.388062	-0.388492
C39	C	1.230134	-0.388073	-0.388500
C40	C	0.978529	-0.387740	-0.598781
C41	C	0.978601	-0.387615	-0.688402
C42	C	0.978452	-0.177727	-0.388515
C43	C	0.978491	-0.088106	-0.388533
C44	C	0.978230	-0.388272	-0.178980
C45	C	0.978289	-0.388171	-0.089359
C46	C	0.978348	-0.388077	-0.016577
C47	C	0.978421	-0.387950	0.074731
C48	C	0.978475	-0.387845	0.147507
C49	C	0.978546	-0.387720	0.238821
H50	H	0.365056	-0.294525	-0.482214
O51	O	0.370442	-0.489744	-0.286761
C52	C	0.411348	-0.541839	-0.332571
H53	H	0.422011	-0.513407	-0.393721
H54	H	0.384095	-0.601593	-0.341334
C55	C	0.465346	-0.591356	-0.213061
C56	C	0.478447	-0.556431	-0.288165
H57	H	0.506735	-0.600361	-0.185669
H58	H	0.437786	-0.556261	-0.182198
H59	H	0.442634	-0.641147	-0.220375
H60	H	0.501152	-0.506637	-0.280850
H61	H	0.506014	-0.591518	-0.319026
H62	H	0.592582	-0.294495	-0.482193
H63	H	0.236811	-0.294539	-0.482224
H64	H	0.592346	-0.481564	-0.294747
H65	H	0.720591	-0.481556	-0.294734
O66	O	0.231093	-0.489827	-0.286701
C67	C	0.248350	-0.570193	-0.304183
H68	H	0.299704	-0.571867	-0.335165
H69	H	0.208601	-0.597364	-0.345594
C70	C	0.188448	-0.616957	-0.187432
C71	C	0.251525	-0.619014	-0.225480
H72	H	0.190403	-0.647075	-0.138886
H73	H	0.176819	-0.562814	-0.175656
H74	H	0.155330	-0.639599	-0.221950
H75	H	0.284639	-0.596364	-0.190966
H76	H	0.263159	-0.673155	-0.237249
O77	O	0.726280	-0.286307	-0.490327
C78	C	0.679979	-0.240822	-0.535937
H79	H	0.629561	-0.238031	-0.502918
H80	H	0.672510	-0.270361	-0.597122
C81	C	0.769523	-0.158434	-0.588265
C82	C	0.707601	-0.155000	-0.547707
H83	H	0.786562	-0.105496	-0.595529
H84	H	0.800717	-0.189080	-0.557539
H85	H	0.763291	-0.183053	-0.639248
H86	H	0.713836	-0.130391	-0.496721
H87	H	0.676408	-0.124348	-0.578425
