data_functionalizedCrystal
_audit_creation_method	'MofGen! by Chris Wilmer'
_symmetry_space_group_name_H-M	'P1'
_symmetry_Int_Tables_number	1
_symmetry_cell_setting	triclinic
loop_
_symmetry_equiv_pos_as_xyz
  x,y,z
_cell_length_a	19.077236
_cell_length_b	18.101395
_cell_length_c	19.077174
_cell_angle_alpha	92.274090
_cell_angle_beta	85.294282
_cell_angle_gamma	92.323924
loop_
_atom_site_label
_atom_site_type_symbol
_atom_site_fract_x
_atom_site_fract_y
_atom_site_fract_z
Zn1	Zn	1.093709	-0.267388	-0.441976
Zn2	Zn	1.088881	-0.386454	-0.324089
Zn3	Zn	0.971091	-0.267400	-0.319359
Zn4	Zn	0.975771	-0.395965	-0.437194
O5	O	1.032363	-0.329302	-0.380655
O6	O	1.191722	-0.279197	-0.430319
O7	O	1.069277	-0.366685	-0.224812
O8	O	0.987418	-0.163763	-0.335646
O9	O	1.188175	-0.366674	-0.343708
O10	O	1.077506	-0.163755	-0.425733
O11	O	0.982737	-0.279217	-0.221336
O12	O	0.873058	-0.288439	-0.331009
O13	O	0.995395	-0.382885	-0.536478
O14	O	0.876497	-0.382896	-0.417582
O15	O	1.082044	-0.288420	-0.539992
O16	O	1.073815	-0.491350	-0.339071
O17	O	0.990713	-0.498338	-0.422168
C18	C	0.849198	-0.336702	-0.373264
C19	C	0.770839	-0.339886	-0.370118
C20	C	0.735877	-0.295915	-0.413803
C21	C	0.662250	-0.298903	-0.410842
C22	C	0.623588	-0.345866	-0.364199
C23	C	0.658556	-0.389839	-0.320509
C24	C	0.732181	-0.386846	-0.323467
C25	C	0.403195	-0.359688	-0.350505
C26	C	0.329565	-0.362679	-0.347552
C27	C	0.333265	-0.271742	-0.437884
C28	C	0.406891	-0.268757	-0.440841
C29	C	0.441852	-0.312726	-0.397149
N30	N	0.548331	-0.348924	-0.361172
N31	N	0.517109	-0.309665	-0.400172
C32	C	1.032268	-0.521715	-0.380630
C33	C	1.032293	-0.604029	-0.380646
C34	C	1.032449	-0.903115	-0.380690
C35	C	0.980295	-0.876218	-0.433113
C36	C	0.980030	-0.790603	-0.432932
C37	C	1.032371	-0.754735	-0.380669
C38	C	1.009277	-0.783684	-0.305563
C39	C	1.008940	-0.869356	-0.305876
C40	C	1.107790	-0.869213	-0.402723
C41	C	1.107416	-0.783646	-0.404335
C42	C	1.032329	-0.670877	-0.380652
C43	C	1.032490	-0.986973	-0.380701
C44	C	1.216244	-0.321874	-0.388075
C45	C	1.294603	-0.318708	-0.391237
C46	C	1.039780	-0.336712	-0.564529
C47	C	1.042940	-0.339870	-0.642886
C48	C	1.032478	-0.136137	-0.380695
C49	C	1.032528	-0.053821	-0.380713
C50	C	0.999370	-0.295814	-0.677888
C51	C	1.002338	-0.298788	-0.751512
C52	C	1.048879	-0.345814	-0.790133
C53	C	1.092450	-0.389875	-0.755126
C54	C	1.089479	-0.386904	-0.681503
C55	C	1.062592	-0.359584	-1.010516
C56	C	1.065562	-0.362549	-1.084144
C57	C	0.975448	-0.271463	-1.080525
C58	C	0.972484	-0.268494	-1.006901
C59	C	1.016053	-0.312557	-0.971900
N60	N	1.051914	-0.348853	-0.865389
N61	N	1.013013	-0.309522	-0.896646
C62	C	1.025016	-0.321865	-0.197497
C63	C	1.021992	-0.318493	-0.119146
H64	H	0.994824	-0.771267	-0.488528
N65	N	0.446376	-0.220768	-0.488475
N66	N	0.486472	-0.170867	-0.465401
H67	H	0.514358	-0.136974	-0.499043
N68	N	0.619077	-0.437820	-0.272864
N69	N	0.650305	-0.477076	-0.233864
H70	H	0.622425	-0.510966	-0.200214
H71	H	0.304792	-0.235943	-0.473455
H72	H	0.298089	-0.400925	-0.309569
H73	H	1.103464	-0.400844	-1.115587
N74	N	0.940781	-0.758783	-0.282242
N75	N	0.912851	-0.776090	-0.223303
H76	H	0.864473	-0.758506	-0.206835
H77	H	0.934583	-0.230202	-0.975461
N78	N	1.107099	-0.404598	-0.974781
N79	N	1.148650	-0.446580	-1.009274
H80	H	1.180086	-0.478374	-0.984035
H81	H	1.130342	-0.428168	-0.786576
N82	N	1.133986	-0.431916	-0.645757
N83	N	1.175537	-0.473902	-0.680246
H84	H	1.206969	-0.505696	-0.655002
H85	H	0.953778	-0.890952	-0.287560
N86	N	0.438890	-0.404607	-0.305873
N87	N	0.404359	-0.446537	-0.264235
H88	H	0.429570	-0.478265	-0.232712
H89	H	0.767350	-0.257675	-0.451787
H90	H	0.633787	-0.263099	-0.446416
H91	H	0.961476	-0.257516	-0.646448
H92	H	0.760646	-0.422651	-0.287894
N93	N	0.998750	-0.904165	-0.503071
N94	N	0.999458	-0.972409	-0.515843
H95	H	1.012511	-0.992143	-0.565252
N96	N	0.910747	-0.905461	-0.414722
N97	N	0.899425	-0.946025	-0.363174
H98	H	0.850308	-0.966680	-0.350183
H99	H	0.966855	-0.262916	-0.780007
H100	H	0.924246	-0.771906	-0.418100
H101	H	1.045117	-0.886832	-0.265323
H102	H	1.045937	-0.760064	-0.265308
H103	H	1.124778	-0.764889	-0.459624
N104	N	1.133470	-0.898034	-0.470453
N105	N	1.096551	-0.943917	-0.503309
H106	H	1.114681	-0.964275	-0.551145
N107	N	0.930951	-0.226449	-1.116279
N108	N	0.957441	-0.179910	-1.158371
H109	H	0.926013	-0.148117	-1.183621
N110	N	1.159036	-0.752740	-0.360221
N111	N	1.141276	-0.708710	-0.310396
H112	H	1.177730	-0.686885	-0.279233
H113	H	1.146682	-0.886208	-0.364578
