data_functionalizedCrystal
_audit_creation_method	'MofGen! by Chris Wilmer'
_symmetry_space_group_name_H-M	'P1'
_symmetry_Int_Tables_number	1
_symmetry_cell_setting	triclinic
loop_
_symmetry_equiv_pos_as_xyz
  x,y,z
_cell_length_a	11.792241
_cell_length_b	12.996460
_cell_length_c	11.792241
_cell_angle_alpha	89.999579
_cell_angle_beta	95.806584
_cell_angle_gamma	90.002031
loop_
_atom_site_label
_atom_site_type_symbol
_atom_site_fract_x
_atom_site_fract_y
_atom_site_fract_z
O1	O	1.506912	0.085467	-0.155560
O2	O	1.756912	0.335467	0.094440
O3	O	2.006912	0.585467	0.344440
O4	O	2.256912	0.835467	0.594440
O5	O	1.176571	0.085491	-0.171593
O6	O	1.426571	0.335491	0.078407
O7	O	1.676571	0.585491	0.328407
O8	O	1.926571	0.835491	0.578407
O9	O	1.349758	0.085472	0.001594
O10	O	1.599758	0.335472	0.251594
O11	O	1.849758	0.585472	0.501594
O12	O	2.099758	0.835472	0.751594
O13	O	1.333725	0.085487	-0.328747
O14	O	1.583725	0.335487	-0.078747
O15	O	1.833725	0.585487	0.171253
O16	O	2.083725	0.835487	0.421253
O17	O	1.349736	-0.085662	0.001584
O18	O	1.599736	0.164338	0.251584
O19	O	1.849736	0.414338	0.501584
O20	O	2.099736	0.664338	0.751584
O21	O	1.176549	-0.085642	-0.171603
O22	O	1.426549	0.164358	0.078397
O23	O	1.676549	0.414358	0.328397
O24	O	1.926549	0.664358	0.578397
O25	O	1.506890	-0.085666	-0.155570
O26	O	1.756890	0.164334	0.094430
O27	O	2.006890	0.414334	0.344430
O28	O	2.256890	0.664334	0.594430
Cu29	Cu	1.341717	-0.101280	-0.163587
Cu30	Cu	1.591717	0.148720	0.086413
Cu31	Cu	1.841717	0.398720	0.336413
Cu32	Cu	2.091717	0.648720	0.586413
Cu33	Cu	1.341744	0.101105	-0.163576
Cu34	Cu	1.591744	0.351105	0.086424
Cu35	Cu	1.841744	0.601105	0.336424
Cu36	Cu	2.091744	0.851105	0.586424
O37	O	1.333703	-0.085647	-0.328757
O38	O	1.583703	0.164353	-0.078757
O39	O	1.833703	0.414353	0.171243
O40	O	2.083703	0.664353	0.421243
C41	C	1.134269	-0.000073	-0.170591
C42	C	1.384269	0.249927	0.079409
C43	C	1.634269	0.499927	0.329409
C44	C	1.884269	0.749927	0.579409
C45	C	1.008255	-0.000064	-0.167576
C46	C	1.258255	0.249936	0.082424
C47	C	1.508255	0.499936	0.332424
C48	C	1.758255	0.749936	0.582424
N49	N	1.341707	-0.243627	-0.163595
N50	N	1.591707	0.006373	0.086405
N51	N	1.841707	0.256373	0.336405
N52	N	2.091707	0.506373	0.586405
C53	C	0.777543	-0.000093	-0.162034
C54	C	1.027543	0.249907	0.087966
C55	C	1.277543	0.499907	0.337966
C56	C	1.527543	0.749907	0.587966
C57	C	0.905928	-0.000077	-0.165113
C58	C	1.155928	0.249923	0.084887
C59	C	1.405928	0.499923	0.334887
C60	C	1.655928	0.749923	0.584887
C61	C	1.341712	-0.336733	-0.163598
C62	C	1.591712	-0.086733	0.086402
C63	C	1.841712	0.163267	0.336402
C64	C	2.091712	0.413267	0.586402
C65	C	1.341723	-0.453539	-0.163590
C66	C	1.591723	-0.203539	0.086410
C67	C	1.841723	0.046461	0.336410
C68	C	2.091723	0.296461	0.586410
C69	C	1.341737	-0.546637	-0.163578
C70	C	1.591737	-0.296637	0.086422
C71	C	1.841737	-0.046637	0.336422
C72	C	2.091737	0.203363	0.586422
C73	C	1.341749	-0.663449	-0.163572
C74	C	1.591749	-0.413449	0.086428
C75	C	1.841749	-0.163449	0.336428
C76	C	2.091749	0.086551	0.586428
C77	C	1.549192	-0.000100	-0.156572
C78	C	1.799192	0.249900	0.093428
C79	C	2.049192	0.499900	0.343428
C80	C	2.299192	0.749900	0.593428
C81	C	1.675206	-0.000103	-0.159587
C82	C	1.925206	0.249897	0.090413
C83	C	2.175206	0.499897	0.340413
C84	C	2.425206	0.749897	0.590413
C85	C	1.348740	-0.000095	0.043880
C86	C	1.598740	0.249905	0.293880
C87	C	1.848740	0.499905	0.543880
C88	C	2.098740	0.749905	0.793880
C89	C	1.345726	-0.000094	0.169894
C90	C	1.595726	0.249906	0.419894
C91	C	1.845726	0.499906	0.669894
C92	C	2.095726	0.749906	0.919894
N93	N	1.341763	0.243452	-0.163559
N94	N	1.591763	0.493452	0.086441
N95	N	1.841763	0.743452	0.336441
N96	N	2.091763	0.993452	0.586441
C97	C	1.334721	-0.000078	-0.371043
C98	C	1.584721	0.249922	-0.121043
C99	C	1.834721	0.499922	0.128957
C100	C	2.084721	0.749922	0.378957
C101	C	1.337736	-0.000072	-0.497057
C102	C	1.587736	0.249928	-0.247057
C103	C	1.837736	0.499928	0.002943
C104	C	2.087736	0.749928	0.252943
C105	C	1.340183	-0.000076	0.400606
C106	C	1.590183	0.249924	0.650606
C107	C	1.840183	0.499924	0.900606
C108	C	2.090183	0.749924	1.150606
C109	C	1.343262	-0.000086	0.272221
C110	C	1.593262	0.249914	0.522221
C111	C	1.843262	0.499914	0.772221
C112	C	2.093262	0.749914	1.022221
