data_functionalizedCrystal
_audit_creation_method	'MofGen! by Chris Wilmer'
_symmetry_space_group_name_H-M	'P1'
_symmetry_Int_Tables_number	1
_symmetry_cell_setting	triclinic
loop_
_symmetry_equiv_pos_as_xyz
  x,y,z
_cell_length_a	19.288840
_cell_length_b	27.731996
_cell_length_c	17.766277
_cell_angle_alpha	89.987644
_cell_angle_beta	89.983415
_cell_angle_gamma	82.873701
loop_
_atom_site_label
_atom_site_type_symbol
_atom_site_fract_x
_atom_site_fract_y
_atom_site_fract_z
O1	O	0.920972	0.060244	-0.062730
O2	O	1.420972	0.560244	0.437270
O3	O	0.718656	0.068391	-0.062705
O4	O	1.218656	0.568391	0.437295
O5	O	0.826116	-0.006063	-0.062702
O6	O	1.326116	0.493937	0.437298
O7	O	0.813512	0.134697	-0.062733
O8	O	1.313512	0.634697	0.437267
O9	O	0.826098	-0.006066	0.062487
O10	O	1.326098	0.493934	0.562487
O11	O	0.718637	0.068387	0.062484
O12	O	1.218637	0.568387	0.562484
O13	O	0.920953	0.060240	0.062459
O14	O	1.420953	0.560240	0.562459
Cu15	Cu	0.819794	0.064313	0.073902
Cu16	Cu	1.319794	0.564313	0.573902
Cu17	Cu	0.819816	0.064318	-0.074148
Cu18	Cu	1.319816	0.564318	0.425852
O19	O	0.813493	0.134693	0.062456
O20	O	1.313493	0.634693	0.562456
C21	C	0.692772	0.068129	-0.000107
C22	C	1.192772	0.568129	0.499893
C23	C	0.615672	0.067348	-0.000097
C24	C	1.115672	0.567348	0.499903
C25	C	0.579481	0.066975	-0.068339
C26	C	1.079481	0.566975	0.431661
C27	C	0.507039	0.066236	-0.068348
C28	C	1.007039	0.566236	0.431652
C29	C	0.470793	0.065860	-0.000111
C30	C	0.970793	0.565860	0.499889
C31	C	0.506992	0.066236	0.068140
C32	C	1.006992	0.566236	0.568140
C33	C	0.579432	0.066980	0.068147
C34	C	1.079432	0.566980	0.568147
C35	C	0.361649	0.036367	0.052164
C36	C	0.861649	0.536367	0.552164
C37	C	0.289211	0.035620	0.052154
C38	C	0.789211	0.535620	0.552154
C39	C	0.247364	0.063568	-0.000130
C40	C	0.747364	0.563568	0.499870
C41	C	0.277965	0.092256	-0.052417
C42	C	0.777965	0.592256	0.447583
C43	C	0.350404	0.093000	-0.052410
C44	C	0.850404	0.593000	0.447590
C45	C	0.392244	0.065054	-0.000111
C46	C	0.892244	0.565054	0.499889
C47	C	0.132623	0.062394	-0.068387
C48	C	0.632623	0.562394	0.431613
C49	C	0.060179	0.061658	-0.068393
C50	C	0.560179	0.561658	0.431607
C51	C	0.060134	0.061653	0.068097
C52	C	0.560134	0.561653	0.568097
C53	C	0.132576	0.062394	0.068101
C54	C	0.632576	0.562394	0.568101
C55	C	0.168816	0.062762	-0.000143
C56	C	0.668816	0.562762	0.499857
C57	C	0.825848	-0.024073	-0.000105
C58	C	1.325848	0.475927	0.499895
C59	C	0.825068	-0.077731	-0.000097
C60	C	1.325068	0.422269	0.499903
C61	C	0.820172	-0.410460	-0.068374
C62	C	1.320172	0.089540	0.431626
C63	C	0.817210	-0.612127	-0.068386
C64	C	1.317210	-0.112127	0.431614
O65	O	0.816806	-0.638197	-0.126423
O66	O	1.316806	-0.138197	0.373577
N67	N	0.816832	-0.637347	-0.000147
N68	N	1.316832	-0.137347	0.499853
C69	C	0.817190	-0.612147	0.068101
C70	C	1.317190	-0.112147	0.568101
O71	O	0.816793	-0.638225	0.126143
O72	O	1.316793	-0.138225	0.626143
C73	C	0.820146	-0.410481	0.068113
C74	C	1.320146	0.089519	0.568113
C75	C	0.820532	-0.385264	-0.000131
C76	C	1.320532	0.114736	0.499869
C77	C	0.820556	-0.385243	-0.136612
C78	C	1.320556	0.114757	0.363388
C79	C	0.821300	-0.334829	-0.136608
C80	C	1.321300	0.165171	0.363392
C81	C	0.821660	-0.309633	-0.068366
C82	C	1.321660	0.190367	0.431634
C83	C	0.821276	-0.334850	-0.000127
C84	C	1.321276	0.165150	0.499873
C85	C	0.820499	-0.385281	0.136360
C86	C	1.320499	0.114719	0.636360
C87	C	0.821237	-0.334861	0.136357
C88	C	1.321237	0.165139	0.636357
C89	C	0.821622	-0.309644	0.068113
C90	C	1.321622	0.190356	0.568113
C91	C	0.822380	-0.259241	0.068119
C92	C	1.322380	0.240759	0.568119
N93	N	0.822758	-0.234020	-0.000120
N94	N	1.322758	0.265980	0.499880
C95	C	0.822398	-0.259217	-0.068363
C96	C	1.322398	0.240783	0.431637
C97	C	0.815639	-0.718025	0.068090
C98	C	1.315639	-0.218025	0.568090
C99	C	0.814901	-0.768442	0.068087
C100	C	1.314901	-0.268442	0.568087
C101	C	0.814920	-0.768418	-0.068401
C102	C	1.314920	-0.268418	0.431599
C103	C	0.815663	-0.718001	-0.068397
C104	C	1.315663	-0.218001	0.431603
C105	C	0.816017	-0.692805	-0.000150
C106	C	1.316017	-0.192805	0.499850
C107	C	0.823961	-0.153345	-0.068350
C108	C	1.323961	0.346655	0.431650
C109	C	0.824708	-0.102927	-0.068340
C110	C	1.324708	0.397073	0.431660
C111	C	0.824686	-0.102955	0.068148
C112	C	1.324686	0.397045	0.568148
C113	C	0.823942	-0.153369	0.068138
C114	C	1.323942	0.346631	0.568138
C115	C	0.823578	-0.178562	-0.000117
C116	C	1.323578	0.321438	0.499883
O117	O	0.822776	-0.233139	0.126125
O118	O	1.322776	0.266861	0.626125
O119	O	0.822779	-0.233128	-0.126396
O120	O	1.322779	0.266872	0.373604
C121	C	0.819428	-0.460873	-0.068377
C122	C	1.319428	0.039127	0.431623
C123	C	0.819043	-0.486090	-0.000139
C124	C	1.319043	0.013910	0.499861
C125	C	0.819403	-0.460894	0.068104
C126	C	1.319403	0.039106	0.568104
C127	C	0.818305	-0.536507	-0.000142
C128	C	1.318305	-0.036507	0.499858
C129	C	0.817945	-0.561703	-0.068384
C130	C	1.317945	-0.061703	0.431616
C131	C	0.818323	-0.536483	-0.136624
C132	C	1.318323	-0.036483	0.363376
C133	C	0.819068	-0.486070	-0.136620
C134	C	1.319068	0.013930	0.363380
C135	C	0.819025	-0.486114	0.136343
C136	C	1.319025	0.013886	0.636343
C137	C	0.818282	-0.536528	0.136334
C138	C	1.318282	-0.036528	0.636334
C139	C	0.817922	-0.561724	0.068091
C140	C	1.317922	-0.061724	0.568091
C141	C	0.946838	0.060502	-0.000140
C142	C	1.446838	0.560502	0.499860
C143	C	1.023937	0.061283	-0.000156
C144	C	1.523937	0.561283	0.499844
C145	C	0.813761	0.152703	-0.000143
C146	C	1.313761	0.652703	0.499857
C147	C	0.814541	0.206362	-0.000155
C148	C	1.314541	0.706362	0.499845
N149	N	0.819783	0.064310	0.178032
N150	N	1.319783	0.564310	0.678032
N151	N	0.819832	0.064317	-0.178278
N152	N	1.319832	0.564317	0.321722
C153	C	0.867382	0.031358	0.217421
C154	C	1.367382	0.531358	0.717421
C155	C	0.867386	0.031356	0.296222
C156	C	1.367386	0.531356	0.796222
C157	C	0.819798	0.064314	0.335633
C158	C	1.319798	0.564314	0.835633
C159	C	0.772190	0.097268	0.296235
C160	C	1.272190	0.597268	0.796235
C161	C	0.772183	0.097266	0.217435
C162	C	1.272183	0.597266	0.717435
C163	C	0.810212	0.108358	0.460462
C164	C	1.310212	0.608358	0.960462
C165	C	0.810224	0.108360	0.539261
C166	C	1.310224	0.608360	1.039261
C167	C	0.819816	0.064319	0.578679
C168	C	1.319816	0.564319	1.078679
C169	C	0.829411	0.020274	0.539289
C170	C	1.329411	0.520274	1.039289
C171	C	0.829404	0.020272	0.460489
C172	C	1.329404	0.520272	0.960489
C173	C	0.819800	0.064319	0.421079
C174	C	1.319800	0.564319	0.921079
C175	C	0.867422	0.031362	0.703513
C176	C	1.367422	0.531362	1.203513
C177	C	0.867421	0.031359	0.782317
C178	C	1.367421	0.531359	1.282317
C179	C	0.772229	0.097276	0.782328
C180	C	1.272229	0.597276	1.282328
C181	C	0.772226	0.097275	0.703526
C182	C	1.272226	0.597275	1.203526
C183	C	0.819827	0.064318	0.664124
C184	C	1.319827	0.564318	1.164124
H185	H	0.162131	0.062699	-0.123955
H186	H	0.662131	0.562699	0.376045
O187	O	0.820007	-0.409804	0.202612
O188	O	1.320007	0.090196	0.702612
C189	C	0.759376	-0.433331	0.206695
C190	C	1.259376	0.066669	0.706695
H191	H	0.739236	-0.439019	0.147440
H192	H	1.239236	0.060981	0.647440
H193	H	0.772357	-0.470042	0.235608
H194	H	1.272357	0.029958	0.735608
H195	H	0.717507	-0.409956	0.240340
H196	H	1.217507	0.090044	0.740340
O197	O	0.815903	-0.693521	-0.134713
O198	O	1.315903	-0.193521	0.365287
C199	C	0.755555	-0.700245	-0.176219
C200	C	1.255555	-0.200245	0.323781
H201	H	0.713289	-0.710183	-0.136275
H202	H	1.213289	-0.210183	0.363725
H203	H	0.735838	-0.665207	-0.207183
H204	H	1.235838	-0.165207	0.292817
H205	H	0.768740	-0.730779	-0.218760
H206	H	1.268740	-0.230779	0.281240
O207	O	0.818087	-0.560949	-0.202938
O208	O	1.318087	-0.060949	0.297062
C209	C	0.878439	-0.554234	-0.244485
C210	C	1.378439	-0.054234	0.255515
H211	H	0.920712	-0.544309	-0.204572
H212	H	1.420712	-0.044309	0.295428
H213	H	0.898141	-0.589271	-0.275448
H214	H	1.398141	-0.089271	0.224552
H215	H	0.865266	-0.523693	-0.287031
H216	H	1.365266	-0.023693	0.212969
O217	O	0.814649	-0.792970	0.134357
O218	O	1.314649	-0.292970	0.634357
C219	C	0.874387	-0.827759	0.138438
C220	C	1.374387	-0.327759	0.638438
H221	H	0.916688	-0.816487	0.099718
H222	H	1.416688	-0.316487	0.599718
H223	H	0.894558	-0.830224	0.198797
H224	H	1.394558	-0.330224	0.698797
H225	H	0.860221	-0.864696	0.120101
H226	H	1.360221	-0.364696	0.620101
O227	O	0.817782	-0.560984	0.202654
O228	O	1.317782	-0.060984	0.702654
C229	C	0.757781	-0.543036	0.244169
C230	C	1.257781	-0.043036	0.744169
H231	H	0.715938	-0.525250	0.204232
H232	H	1.215938	-0.025250	0.704232
H233	H	0.737077	-0.574304	0.275134
H234	H	1.237077	-0.074304	0.775134
H235	H	0.771810	-0.515041	0.286712
H236	H	1.271810	-0.015041	0.786712
O237	O	0.614633	0.067422	-0.134650
O238	O	1.114633	0.567422	0.365350
C239	C	0.588592	0.109090	-0.176185
C240	C	1.088592	0.609090	0.323815
H241	H	0.562839	0.138140	-0.136264
H242	H	1.062839	0.638140	0.363736
H243	H	0.633440	0.123629	-0.207143
H244	H	1.133440	0.623629	0.292857
H245	H	0.548441	0.099194	-0.218734
H246	H	1.048441	0.599194	0.281266
H247	H	0.375316	0.116361	-0.094982
H248	H	0.875316	0.616361	0.405018
H249	H	0.162043	0.062695	0.123671
H250	H	0.662043	0.562695	0.623671
O251	O	0.825048	-0.078504	-0.134703
O252	O	1.325048	0.421496	0.365297
C253	C	0.824586	-0.111559	-0.194933
C254	C	1.324586	0.388441	0.305067
H255	H	0.802054	-0.145447	-0.174923
H256	H	1.302054	0.354553	0.325077
H257	H	0.791072	-0.093839	-0.242658
H258	H	1.291072	0.406161	0.257342
H259	H	0.880256	-0.122120	-0.215923
H260	H	1.380256	0.377880	0.284077
O261	O	0.025025	0.061224	0.134433
O262	O	0.525025	0.561224	0.634433
C263	C	0.051040	0.019542	0.175949
C264	C	0.551040	0.519542	0.675949
H265	H	0.106421	0.006127	0.156548
H266	H	0.606421	0.506127	0.656548
H267	H	0.051625	0.028979	0.238377
H268	H	0.551625	0.528979	0.738377
H269	H	0.016110	-0.010185	0.166493
H270	H	0.516110	0.489815	0.666493
O271	O	0.801025	0.151132	0.577558
O272	O	1.301025	0.651132	1.077558
C273	C	0.859933	0.154927	0.623128
C274	C	1.359933	0.654927	1.123128
H275	H	0.906961	0.130750	0.599370
H276	H	1.406961	0.630750	1.099370
H277	H	0.871405	0.194271	0.624007
H278	H	1.371405	0.694271	1.124007
H279	H	0.849069	0.142829	0.682858
H280	H	1.349069	0.642829	1.182858
O281	O	0.838695	-0.022554	0.422342
O282	O	1.338695	0.477446	0.922342
C283	C	0.847182	-0.061428	0.474023
C284	C	1.347182	0.438572	0.974023
H285	H	0.822632	-0.048940	0.530203
H286	H	1.322632	0.451060	1.030203
H287	H	0.820536	-0.092877	0.451277
H288	H	1.320536	0.407123	0.951277
H289	H	0.905238	-0.073902	0.482380
H290	H	1.405238	0.426098	0.982380
H291	H	0.819381	-0.465542	-0.192191
H292	H	1.319381	0.034458	0.307809
O293	O	0.725930	0.129223	0.665224
O294	O	1.225930	0.629223	1.165224
C295	C	0.683373	0.103416	0.619654
C296	C	1.183373	0.603416	1.119654
H297	H	0.682618	0.065297	0.643416
H298	H	1.182618	0.565297	1.143416
H299	H	0.627950	0.123243	0.618770
H300	H	1.127950	0.623243	1.118770
H301	H	0.705138	0.100840	0.559926
H302	H	1.205138	0.600840	1.059926
H303	H	0.243893	0.115016	-0.094990
H304	H	0.743893	0.615016	0.405010
H305	H	0.030713	0.061357	-0.123966
H306	H	0.530713	0.561357	0.376034
O307	O	0.800924	0.151187	0.422291
O308	O	1.300924	0.651187	0.922291
C309	C	0.792452	0.190061	0.473952
C310	C	1.292452	0.690061	0.973952
H311	H	0.817008	0.177570	0.530121
H312	H	1.317008	0.677570	1.030121
H313	H	0.819102	0.221507	0.451163
H314	H	1.319102	0.721507	0.951163
H315	H	0.734399	0.202540	0.482347
H316	H	1.234399	0.702540	0.982347
H317	H	0.395716	0.013607	0.094744
H318	H	0.895716	0.513607	0.594744
O319	O	0.471799	0.065956	0.134445
O320	O	0.971799	0.565956	0.634445
C321	C	0.481158	0.107986	0.175962
C322	C	0.981158	0.607986	0.675962
H323	H	0.495256	0.137448	0.136029
H324	H	0.995256	0.637448	0.636029
H325	H	0.430709	0.121544	0.206909
H326	H	0.930709	0.621544	0.706909
H327	H	0.525077	0.098955	0.218520
H328	H	1.025077	0.598955	0.718520
O329	O	0.913688	-0.000586	0.820665
O330	O	1.413688	0.499414	1.320665
C331	C	0.956260	0.025228	0.866207
C332	C	1.456260	0.525228	1.366207
H333	H	0.928173	0.063103	0.878008
H334	H	1.428173	0.563103	1.378008
H335	H	0.967476	0.005032	0.921624
H336	H	1.467476	0.505032	1.421624
H337	H	1.007555	0.028421	0.835819
H338	H	1.507555	0.528421	1.335819
H339	H	0.819319	-0.465605	0.191916
H340	H	1.319319	0.034395	0.691916
O341	O	0.825145	-0.078510	0.134458
O342	O	1.325145	0.421490	0.634458
C343	C	0.885118	-0.096451	0.175997
C344	C	1.385118	0.403549	0.675997
H345	H	0.927000	-0.114224	0.136078
H346	H	1.427000	0.385776	0.636078
H347	H	0.905783	-0.065180	0.206960
H348	H	1.405783	0.434820	0.706960
H349	H	0.871069	-0.124454	0.218543
H350	H	1.371069	0.375546	0.718543
H351	H	0.733442	0.124102	0.328327
H352	H	1.233442	0.624102	0.828327
H353	H	0.837221	-0.015589	0.571382
H354	H	1.337221	0.484411	1.071382
H355	H	0.906139	0.004522	0.185341
H356	H	1.406139	0.504522	0.685341
H357	H	0.906148	0.004521	0.328298
H358	H	1.406148	0.504521	0.828298
O359	O	0.913679	-0.000700	0.665349
O360	O	1.413679	0.499300	1.165349
C361	C	0.955700	-0.029781	0.717017
C362	C	1.455700	0.470219	1.217017
H363	H	0.927233	-0.030275	0.773199
H364	H	1.427233	0.469725	1.273199
H365	H	0.966721	-0.068405	0.694258
H366	H	1.466721	0.431595	1.194258
H367	H	1.007125	-0.014181	0.725372
H368	H	1.507125	0.485819	1.225372
H369	H	0.733479	0.124109	0.814415
H370	H	1.233479	0.624109	1.314415
H371	H	0.477567	0.065933	-0.123921
H372	H	0.977567	0.565933	0.376079
O373	O	0.725920	0.129326	0.179286
O374	O	1.225920	0.629326	0.679286
C375	C	0.683902	0.158407	0.230964
C376	C	1.183902	0.658407	0.730964
H377	H	0.712374	0.158901	0.287125
H378	H	1.212374	0.658901	0.787125
H379	H	0.672877	0.197030	0.208185
H380	H	1.172877	0.697030	0.708185
H381	H	0.632479	0.142805	0.239368
H382	H	1.132479	0.642805	0.739368
H383	H	0.823661	-0.173851	-0.123929
H384	H	1.323661	0.326149	0.376071
H385	H	0.608898	0.067284	0.123720
H386	H	1.108898	0.567284	0.623720
H387	H	0.821611	-0.314302	-0.192180
H388	H	1.321611	0.185698	0.307820
O389	O	0.259582	0.007683	0.102915
O390	O	0.759582	0.507683	0.602915
C391	C	0.287099	-0.041427	0.093051
C392	C	0.787099	0.458573	0.593051
H393	H	0.340230	-0.043523	0.064296
H394	H	0.840230	0.456477	0.564296
H395	H	0.293285	-0.060093	0.150256
H396	H	0.793285	0.439907	0.650256
H397	H	0.250035	-0.060376	0.056626
H398	H	0.750035	0.439624	0.556626
O399	O	0.820241	-0.409642	-0.202976
O400	O	1.320241	0.090358	0.297024
C401	C	0.820720	-0.376562	-0.263194
C402	C	1.320720	0.123438	0.236806
H403	H	0.843237	-0.342680	-0.243173
H404	H	1.343237	0.157320	0.256827
H405	H	0.854254	-0.394260	-0.310929
H406	H	1.354254	0.105740	0.189071
H407	H	0.765056	-0.365998	-0.284175
H408	H	1.265056	0.134002	0.215825
H409	H	0.814628	-0.788941	-0.123966
H410	H	1.314628	-0.288941	0.376034
O411	O	0.816023	-0.693632	0.134457
O412	O	1.316023	-0.193632	0.634457
C413	C	0.815518	-0.726708	0.194678
C414	C	1.315518	-0.226708	0.694678
H415	H	0.836987	-0.764693	0.174653
H416	H	1.336987	-0.264693	0.674653
H417	H	0.849467	-0.715302	0.242402
H418	H	1.349467	-0.215302	0.742402
H419	H	0.759692	-0.726874	0.215675
H420	H	1.259692	-0.226874	0.715675
O421	O	0.821482	-0.310428	0.202701
O422	O	1.321482	0.189572	0.702701
C423	C	0.761100	-0.317132	0.244203
C424	C	1.261100	0.182868	0.744203
H425	H	0.740507	-0.351864	0.224796
H426	H	1.240507	0.148136	0.724796
H427	H	0.774591	-0.320127	0.306634
H428	H	1.274591	0.179873	0.806634
H429	H	0.719378	-0.284825	0.234741
H430	H	1.219378	0.215175	0.734741
O431	O	0.823454	-0.177839	0.134445
O432	O	1.323454	0.322161	0.634445
C433	C	0.763461	-0.159902	0.175981
C434	C	1.263461	0.340098	0.675981
H435	H	0.721608	-0.142108	0.136061
H436	H	1.221608	0.357892	0.636061
H437	H	0.742765	-0.191178	0.206932
H438	H	1.242765	0.308822	0.706932
H439	H	0.777496	-0.131917	0.218536
H440	H	1.277496	0.368083	0.718536
