data_functionalizedCrystal
_audit_creation_method	'MofGen! by Chris Wilmer'
_symmetry_space_group_name_H-M	'P1'
_symmetry_Int_Tables_number	1
_symmetry_cell_setting	triclinic
loop_
_symmetry_equiv_pos_as_xyz
  x,y,z
_cell_length_a	10.723024
_cell_length_b	27.732048
_cell_length_c	9.198806
_cell_angle_alpha	89.991879
_cell_angle_beta	89.996352
_cell_angle_gamma	83.555262
loop_
_atom_site_label
_atom_site_type_symbol
_atom_site_fract_x
_atom_site_fract_y
_atom_site_fract_z
O1	O	1.654382	0.067789	-0.120901
O2	O	1.290961	0.074278	-0.120907
O3	O	1.483959	0.000707	-0.120876
O4	O	1.461385	0.141360	-0.120932
O5	O	1.483944	0.000707	0.120909
O6	O	1.290946	0.074278	0.120878
O7	O	1.654367	0.067789	0.120884
Cu8	Cu	1.472655	0.071033	0.142958
Cu9	Cu	1.472673	0.071033	-0.142981
O10	O	1.461370	0.141360	0.120853
C11	C	1.244474	0.073806	-0.000015
C12	C	1.105978	0.072393	-0.000017
C13	C	1.029292	0.113559	-0.000034
C14	C	0.886149	0.112100	-0.000035
C15	C	1.483478	-0.017303	0.000020
C16	C	1.482051	-0.070967	0.000032
C17	C	1.587117	-0.409130	-0.000040
C18	C	1.581823	-0.610822	-0.000061
O19	O	1.677898	-0.641481	-0.000123
N20	N	1.467383	-0.630656	-0.000061
C21	C	1.354259	-0.600064	-0.000067
O22	O	1.256800	-0.621562	-0.000083
C23	C	1.359554	-0.398373	-0.000057
C24	C	1.474001	-0.378541	-0.000041
C25	C	1.701554	-0.389298	-0.000026
C26	C	1.702877	-0.338877	-0.000013
C27	C	1.589761	-0.308289	-0.000014
C28	C	1.475324	-0.328121	-0.000028
C29	C	1.246432	-0.367781	-0.000072
C30	C	1.247766	-0.317356	-0.000073
C31	C	1.362213	-0.297524	-0.000058
C32	C	1.363531	-0.247113	-0.000016
N33	N	1.477970	-0.227278	-0.000015
C34	C	1.591085	-0.257867	-0.000014
C35	C	1.351487	-0.705956	-0.000069
C36	C	1.350163	-0.756378	-0.000069
C37	C	1.577727	-0.767133	-0.000066
C38	C	1.579050	-0.716709	-0.000055
C39	C	1.465926	-0.686121	-0.000068
C40	C	1.593854	-0.151980	0.000014
C41	C	1.595166	-0.101555	0.000033
C42	C	1.367603	-0.090805	0.000022
C43	C	1.366290	-0.141226	0.000011
C44	C	1.479425	-0.171813	0.000002
O45	O	1.267507	-0.216425	0.000030
O46	O	1.688531	-0.236359	-0.000031
C47	C	1.585794	-0.459550	-0.000053
C48	C	1.471357	-0.479382	-0.000067
C49	C	1.358241	-0.448793	-0.000068
C50	C	1.470033	-0.529804	-0.000067
C51	C	1.583148	-0.560392	-0.000066
C52	C	1.697587	-0.540558	-0.000066
C53	C	1.698910	-0.490138	-0.000053
C54	C	1.243802	-0.468628	-0.000069
C55	C	1.242489	-0.519048	-0.000080
C56	C	1.355604	-0.549637	-0.000079
C57	C	1.700855	0.068261	-0.000011
C58	C	1.839351	0.069674	-0.000019
C59	C	1.461851	0.159370	-0.000047
C60	C	1.463278	0.213034	-0.000068
N61	N	1.472652	0.071033	0.344072
N62	N	1.472687	0.071030	-0.344095
C63	C	1.553692	0.040006	0.416282
C64	C	1.553711	0.040005	0.583694
H65	H	1.065659	0.036068	-0.000039
H66	H	1.069611	0.149884	-0.000040
O67	O	1.390030	0.102790	0.581910
C68	C	1.409689	0.150683	0.619006
H69	H	1.509582	0.151178	0.660920
H70	H	1.395109	0.174868	0.518838
H71	H	1.340274	0.164732	0.707253
O72	O	0.917890	0.027613	-0.000261
C73	C	0.895732	0.000512	-0.125454
H74	H	0.850687	0.025863	-0.212987
H75	H	0.988493	-0.018522	-0.167481
H76	H	0.830102	-0.027719	-0.097130
O77	O	0.807374	0.154100	0.000008
C78	C	0.681991	0.143293	-0.000030
H79	H	0.677851	0.105306	0.045761
H80	H	0.622405	0.170853	0.070151
H81	H	0.644329	0.144983	-0.116030
O82	O	1.389721	0.102674	0.418101
C83	C	1.266232	0.094535	0.381015
H84	H	1.266055	0.055862	0.339089
H85	H	1.203620	0.099905	0.481191
H86	H	1.229164	0.121257	0.292779
O87	O	1.706456	-0.082372	-0.000022
C88	C	1.806006	-0.120186	0.000007
H89	H	1.771702	-0.154548	-0.045776
H90	H	1.885971	-0.109376	-0.070187
H91	H	1.840844	-0.127211	0.116002
H92	H	1.685980	-0.176879	0.000001
H93	H	1.623055	0.013442	0.354167
H94	H	1.793672	-0.414198	-0.000031
O95	O	1.814162	-0.319697	-0.000075
C96	C	1.913702	-0.357515	-0.000042
H97	H	1.879387	-0.391876	-0.045818
H98	H	1.993670	-0.346710	-0.070240
H99	H	1.948541	-0.364540	0.115953
O100	O	1.807436	-0.570297	-0.000326
C101	C	1.813453	-0.599783	-0.125539
H102	H	1.749292	-0.581525	-0.213055
H103	H	1.914070	-0.605116	-0.167577
H104	H	1.781866	-0.636552	-0.097236
H105	H	1.623097	0.013443	0.645792
O106	O	1.690332	-0.697527	-0.000120
C107	C	1.789878	-0.735343	-0.000078
H108	H	1.755569	-0.769706	-0.045845
H109	H	1.869844	-0.724538	-0.070278
H110	H	1.824716	-0.742364	0.115920
H111	H	1.273098	-0.157373	0.000039
O112	O	1.238879	-0.775559	-0.000132
C113	C	1.139333	-0.737743	-0.000100
H114	H	1.173648	-0.703377	-0.045870
H115	H	1.059376	-0.748542	-0.070302
H116	H	1.104481	-0.730731	0.115895
H117	H	1.669830	-0.792046	-0.000064
H118	H	1.259363	-0.681055	-0.000079
H119	H	1.153237	-0.383919	-0.000094
H120	H	1.275507	-0.065891	0.000027
O121	O	1.137793	-0.287693	-0.000277
C122	C	1.068282	-0.296727	-0.125528
H123	H	1.099684	-0.334864	-0.167280
H124	H	0.964145	-0.293536	-0.097376
H125	H	1.084805	-0.269088	-0.213206
O126	O	1.810195	-0.470957	-0.000112
C127	C	1.909735	-0.508776	-0.000078
H128	H	1.875421	-0.543136	-0.045856
H129	H	1.989704	-0.497971	-0.070274
H130	H	1.944572	-0.515800	0.115918
O131	O	1.131384	-0.538366	-0.000290
C132	C	1.123808	-0.567188	-0.125546
H133	H	1.222402	-0.579413	-0.167280
H134	H	1.074704	-0.600368	-0.097409
H135	H	1.068192	-0.545090	-0.213233
O136	O	1.133833	-0.438968	-0.000255
C137	C	1.064309	-0.448003	-0.125495
H138	H	1.095718	-0.486137	-0.167260
H139	H	0.960176	-0.444818	-0.097324
H140	H	1.080810	-0.420360	-0.213171
