data_functionalizedCrystal
_audit_creation_method	'MofGen! by Chris Wilmer'
_symmetry_space_group_name_H-M	'P1'
_symmetry_Int_Tables_number	1
_symmetry_cell_setting	triclinic
loop_
_symmetry_equiv_pos_as_xyz
  x,y,z
_cell_length_a	10.686285
_cell_length_b	10.686154
_cell_length_c	10.686551
_cell_angle_alpha	89.693980
_cell_angle_beta	80.915481
_cell_angle_gamma	89.657472
loop_
_atom_site_label
_atom_site_type_symbol
_atom_site_fract_x
_atom_site_fract_y
_atom_site_fract_z
Zn1	Zn	-0.307990	-1.994023	-0.537206
Zn2	Zn	-0.536577	-1.993922	-0.308711
Zn3	Zn	-0.340287	-1.770420	-0.340869
Zn4	Zn	-0.534009	-1.800171	-0.534692
O5	O	-0.429716	-1.889634	-0.430369
O6	O	-0.325871	-2.168674	-0.494489
O7	O	-0.525130	-1.951781	-0.136235
O8	O	-0.159265	-1.787673	-0.381423
O9	O	-0.493813	-2.168600	-0.326614
O10	O	-0.135536	-1.951953	-0.525671
O11	O	-0.380916	-1.787575	-0.159861
O12	O	-0.378426	-1.599702	-0.378986
O13	O	-0.489436	-1.838379	-0.711768
O14	O	-0.520753	-1.621560	-0.521388
O15	O	-0.323381	-1.980801	-0.713614
O16	O	-0.712974	-1.980629	-0.324177
O17	O	-0.711087	-1.838281	-0.490205
C18	C	-0.757852	-1.912708	-0.403454
C19	C	-0.898219	-1.922697	-0.391974
C20	C	-0.452816	-1.565343	-0.453405
C21	C	-0.462726	-1.426613	-0.463287
C22	C	-0.402519	-1.912920	-0.759800
C23	C	-0.390930	-1.922843	-0.900183
C24	C	-0.100293	-1.866506	-0.457415
C25	C	0.040087	-1.856650	-0.468940
C26	C	-0.406514	-1.215191	-0.407238
C27	C	-0.396598	-1.353920	-0.397362
C28	C	-0.456710	-1.866504	-0.102223
C29	C	-0.467927	-1.856798	0.038148
H30	H	-0.905348	-1.792463	-0.543619
H31	H	-0.542716	-1.792666	-0.907252
C32	C	-1.101330	-2.002873	-0.298958
C33	C	-0.971872	-2.009399	-0.291189
H34	H	-1.146794	-2.056419	-0.236757
H35	H	-1.130488	-1.919258	-0.284558
H36	H	-1.114503	-2.028539	-0.380827
H37	H	-0.958697	-1.983724	-0.209323
H38	H	-0.942704	-2.093032	-0.305581
H39	H	-0.526935	-1.382712	-0.527284
C40	C	-0.297625	-2.002829	-1.103358
C41	C	-0.289956	-2.009427	-0.973889
H42	H	-0.235281	-2.056275	-1.148858
H43	H	-0.379411	-2.028569	-1.116645
H44	H	-0.283361	-1.919169	-1.132377
H45	H	-0.304229	-2.093086	-0.944867
H46	H	-0.208150	-1.983694	-0.960594
C47	C	-0.382450	-1.487394	-0.218640
C48	C	-0.309927	-1.413173	-0.310964
H49	H	-0.328939	-1.523985	-0.165307
H50	H	-0.444975	-1.436970	-0.169314
H51	H	-0.422604	-1.551579	-0.258690
H52	H	-0.269780	-1.348982	-0.270913
H53	H	-0.247380	-1.463600	-0.360296
