data_functionalizedCrystal
_audit_creation_method	'MofGen! by Chris Wilmer'
_symmetry_space_group_name_H-M	'P1'
_symmetry_Int_Tables_number	1
_symmetry_cell_setting	triclinic
loop_
_symmetry_equiv_pos_as_xyz
  x,y,z
_cell_length_a	12.759394
_cell_length_b	12.759395
_cell_length_c	12.594509
_cell_angle_alpha	89.982451
_cell_angle_beta	89.970631
_cell_angle_gamma	90.014682
loop_
_atom_site_label
_atom_site_type_symbol
_atom_site_fract_x
_atom_site_fract_y
_atom_site_fract_z
Zn1	Zn	-0.418239	1.606248	-0.601744
Zn2	Zn	0.081761	2.106248	-0.101744
Zn3	Zn	-0.593949	1.606144	-0.423762
Zn4	Zn	-0.093949	2.106144	0.076238
Zn5	Zn	-0.418284	1.430552	-0.423785
Zn6	Zn	0.081716	1.930552	0.076215
Zn7	Zn	-0.593876	1.430538	-0.601704
Zn8	Zn	-0.093876	1.930538	-0.101704
O9	O	-0.506087	1.518371	-0.512749
O10	O	-0.006087	2.018371	-0.012749
O11	O	-0.441559	1.753255	-0.578142
O12	O	0.058441	2.253255	-0.078142
O13	O	-0.570696	1.582814	-0.274819
O14	O	-0.070696	2.082814	0.225181
O15	O	-0.271257	1.453908	-0.447418
O16	O	0.228743	1.953908	0.052582
O17	O	-0.570653	1.753179	-0.447379
O18	O	-0.070653	2.253179	0.052621
O19	O	-0.271224	1.582991	-0.578164
O20	O	0.228776	2.082991	-0.078164
O21	O	-0.441636	1.453807	-0.274836
O22	O	0.058364	1.953807	0.225164
O23	O	-0.441565	1.283529	-0.447379
O24	O	0.058435	1.783529	0.052621
O25	O	-0.570528	1.453884	-0.750655
O26	O	-0.070528	1.953884	-0.250655
O27	O	-0.570572	1.283519	-0.578095
O28	O	-0.070572	1.783519	-0.078095
O29	O	-0.441488	1.582978	-0.750685
O30	O	0.058512	2.082978	-0.250685
O31	O	-0.740961	1.582800	-0.447340
O32	O	-0.240961	2.082800	0.052660
O33	O	-0.740907	1.453783	-0.578073
O34	O	-0.240907	1.953783	-0.078073
C35	C	-0.506066	1.245403	-0.512736
C36	C	-0.006066	1.745403	-0.012736
C37	C	-0.506083	1.128626	-0.512755
C38	C	-0.006083	1.628626	-0.012755
C39	C	-0.371875	1.128687	-0.649139
C40	C	0.128125	1.628687	-0.149139
C41	C	-0.304784	1.073856	-0.717339
C42	C	0.195216	1.573856	-0.217339
C43	C	-0.304803	0.964135	-0.717352
C44	C	0.195197	1.464135	-0.217352
C45	C	-0.371917	0.909241	-0.649155
C46	C	0.128083	1.409241	-0.149155
C47	C	-0.439008	0.964072	-0.580955
C48	C	0.060992	1.464072	-0.080955
C49	C	-0.438985	1.073796	-0.580952
C50	C	0.061015	1.573796	-0.080952
C51	C	-0.573209	0.964011	-0.444568
C52	C	-0.073209	1.464011	0.055432
C53	C	-0.573198	1.073733	-0.444559
C54	C	-0.073198	1.573733	0.055441
C55	C	-0.640324	0.909118	-0.376372
C56	C	-0.140324	1.409118	0.123628
C57	C	-0.707422	0.963949	-0.308176
C58	C	-0.207422	1.463949	0.191824
C59	C	-0.707401	1.073677	-0.308166
C60	C	-0.207401	1.573677	0.191834
C61	C	-0.640289	1.128564	-0.376359
C62	C	-0.140289	1.628564	0.123641
C63	C	-0.779055	1.518308	-0.512723
C64	C	-0.279055	2.018308	-0.012723
C65	C	-0.895831	1.518377	-0.512748
C66	C	-0.395831	2.018377	-0.012748
C67	C	-0.895834	1.652823	-0.376717
C68	C	-0.395834	2.152823	0.123283
C69	C	-0.950696	1.720073	-0.308715
C70	C	-0.450696	2.220073	0.191285
C71	C	-1.060417	1.720135	-0.308744
C72	C	-0.560417	2.220135	0.191256
C73	C	-1.115279	1.652941	-0.376785
C74	C	-0.615279	2.152941	0.123215
C75	C	-1.060418	1.585691	-0.444787
C76	C	-0.560418	2.085691	0.055213
C77	C	-0.950693	1.585634	-0.444749
C78	C	-0.450693	2.085634	0.055251
C79	C	-1.060415	1.451251	-0.580822
C80	C	-0.560415	1.951251	-0.080822
C81	C	-0.950694	1.451183	-0.580789
C82	C	-0.450694	1.951183	-0.080789
C83	C	-1.115277	1.384058	-0.648863
C84	C	-0.615277	1.884058	-0.148863
C85	C	-1.060415	1.316800	-0.716862
C86	C	-0.560415	1.816800	-0.216862
C87	C	-0.950687	1.316741	-0.716829
C88	C	-0.450687	1.816741	-0.216829
C89	C	-0.895832	1.383932	-0.648792
C90	C	-0.395832	1.883932	-0.148792
C91	C	-0.232054	1.518463	-0.512798
C92	C	0.267946	2.018463	-0.012798
C93	C	-0.115277	1.518502	-0.512819
C94	C	0.384723	2.018502	-0.012819
C95	C	-0.505995	1.518441	-0.790370
C96	C	-0.005995	2.018441	-0.290370
C97	C	-0.505956	1.518471	-0.908675
C98	C	-0.005956	2.018471	-0.408675
C99	C	-0.506109	1.792404	-0.512763
C100	C	-0.006109	2.292404	-0.012763
C101	C	-0.506118	1.909181	-0.512769
C102	C	-0.006118	2.409181	-0.012769
C103	C	-0.576101	1.448279	-0.977913
C104	C	-0.076101	1.948279	-0.477913
C105	C	-0.601771	1.544145	-1.048696
C106	C	-0.101771	2.044145	-0.548696
C107	C	-0.480222	1.422680	-1.048691
C108	C	0.019778	1.922680	-0.548691
C109	C	-0.531677	1.614387	-0.977901
C110	C	-0.031677	2.114387	-0.477901
C111	C	-0.410083	1.492857	-0.977890
C112	C	0.089917	1.992857	-0.477890
C113	C	-0.435717	1.588789	-1.048641
C114	C	0.064283	2.088789	-0.548641
C115	C	-0.506103	1.518361	-0.236208
C116	C	-0.006103	2.018361	0.263792
C117	C	-0.505846	1.518535	-0.117903
C118	C	-0.005846	2.018535	0.382097
H119	H	-0.250165	0.919492	-0.772880
H120	H	0.249835	1.419492	-0.272880
H121	H	-0.371918	0.819900	-0.649164
H122	H	0.128082	1.319900	-0.149164
Cl123	Cl	-0.667822	1.356705	-0.929960
Cl124	Cl	-0.167822	1.856705	-0.429960
Cl125	Cl	-0.881727	1.232198	-0.802330
Cl126	Cl	-0.381727	1.732198	-0.302330
H127	H	-0.640332	0.819777	-0.376385
H128	H	-0.140332	1.319777	0.123615
H129	H	-0.329076	1.471130	-0.946764
H130	H	0.170924	1.971130	-0.446764
H131	H	-0.762057	0.919246	-0.252651
H132	H	-0.262057	1.419246	0.247349
H133	H	-0.682802	1.565845	-1.079798
H134	H	-0.182802	2.065845	-0.579798
H135	H	-0.553489	1.695447	-0.946936
H136	H	-0.053489	2.195447	-0.446936
Cl137	Cl	-0.791746	1.142597	-0.222419
Cl138	Cl	-0.291746	1.642597	0.277581
Cl139	Cl	-0.757895	1.384169	-0.649055
Cl140	Cl	-0.257895	1.884169	-0.149055
Cl141	Cl	-0.640261	1.266500	-0.376356
Cl142	Cl	-0.140261	1.766500	0.123644
H143	H	-0.458502	1.341644	-1.079787
H144	H	0.041498	1.841644	-0.579787
Cl145	Cl	-0.220415	1.142869	-0.803066
Cl146	Cl	0.279585	1.642869	-0.303066
H147	H	-0.376351	1.648244	-1.079501
H148	H	0.123649	2.148244	-0.579501
H149	H	-0.806493	1.652766	-0.376673
H150	H	-0.306493	2.152766	0.123327
H151	H	-0.371848	1.218028	-0.649130
H152	H	0.128152	1.718028	-0.149130
Cl153	Cl	-1.129390	1.804684	-0.223260
Cl154	Cl	-0.629390	2.304684	0.276740
Cl155	Cl	-0.881722	1.804546	-0.223187
Cl156	Cl	-0.381722	2.304546	0.276813
Cl157	Cl	-1.253215	1.652576	-0.376368
Cl158	Cl	-0.753215	2.152576	0.123632
H159	H	-1.204618	1.384117	-0.648886
H160	H	-0.704618	1.884117	-0.148886
H161	H	-1.105093	1.262101	-0.772260
H162	H	-0.605093	1.762101	-0.272260
