data_functionalizedCrystal
_audit_creation_method	'MofGen! by Chris Wilmer'
_symmetry_space_group_name_H-M	'P1'
_symmetry_Int_Tables_number	1
_symmetry_cell_setting	triclinic
loop_
_symmetry_equiv_pos_as_xyz
  x,y,z
_cell_length_a	19.188905
_cell_length_b	19.188925
_cell_length_c	9.130313
_cell_angle_alpha	89.995839
_cell_angle_beta	89.989353
_cell_angle_gamma	83.138552
loop_
_atom_site_label
_atom_site_type_symbol
_atom_site_fract_x
_atom_site_fract_y
_atom_site_fract_z
O1	O	0.926153	0.087084	-0.122040
O2	O	1.426153	0.587084	0.377960
O3	O	0.722839	0.098837	-0.121989
O4	O	1.222839	0.598837	0.378011
O5	O	0.830365	-0.008696	-0.122008
O6	O	1.330365	0.491304	0.377992
O7	O	0.818627	0.194617	-0.122021
O8	O	1.318627	0.694617	0.377979
O9	O	0.830358	-0.008699	0.121591
O10	O	1.330358	0.491301	0.621591
O11	O	0.722832	0.098834	0.121610
O12	O	1.222832	0.598834	0.621610
O13	O	0.926146	0.087081	0.121559
O14	O	1.426146	0.587081	0.621559
Cu15	Cu	0.824488	0.092957	0.143827
Cu16	Cu	1.324488	0.592957	0.643827
Cu17	Cu	0.824497	0.092961	-0.144257
Cu18	Cu	1.324497	0.592961	0.355743
O19	O	0.818620	0.194614	0.121578
O20	O	1.318620	0.694614	0.621578
C21	C	0.829982	-0.034708	-0.000209
C22	C	1.329982	0.465292	0.499791
C23	C	0.828843	-0.112213	-0.000212
C24	C	1.328843	0.387787	0.499788
C25	C	0.696824	0.098458	-0.000183
C26	C	1.196824	0.598458	0.499817
C27	C	0.619319	0.097324	-0.000164
C28	C	1.119319	0.597324	0.499836
C29	C	0.884308	-0.673988	-0.000263
C30	C	1.384308	-0.173988	0.499737
C31	C	0.885384	-0.601165	-0.000249
C32	C	1.385384	-0.101165	0.499751
C33	C	0.822291	-0.556225	-0.000234
C34	C	1.322291	-0.056225	0.499766
C35	C	0.758117	-0.584113	-0.000195
C36	C	1.258117	-0.084113	0.499805
C37	C	0.757043	-0.656935	-0.000193
C38	C	1.257043	-0.156935	0.499807
N39	N	0.776617	-0.435539	-0.083138
N40	N	1.276617	0.064461	0.416862
N41	N	0.777642	-0.366362	-0.083142
N42	N	1.277642	0.133638	0.416858
C43	C	0.825525	-0.336816	-0.000236
C44	C	1.325525	0.163184	0.499764
N45	N	0.872355	-0.379062	0.082657
N46	N	1.372355	0.120938	0.582657
N47	N	0.871332	-0.448246	0.082655
N48	N	1.371332	0.051754	0.582655
C49	C	0.823450	-0.477261	-0.000235
C50	C	1.323450	0.022739	0.499765
C51	C	0.890863	-0.229973	-0.000251
C52	C	1.390863	0.270027	0.499749
C53	C	0.891937	-0.157148	-0.000229
C54	C	1.391937	0.342852	0.499771
C55	C	0.764668	-0.140097	-0.000189
C56	C	1.264668	0.359903	0.499811
C57	C	0.763596	-0.212921	-0.000197
C58	C	1.263596	0.287079	0.499803
C59	C	0.826695	-0.257855	-0.000235
C60	C	1.326695	0.242145	0.499765
C61	C	0.582931	0.096781	-0.132954
C62	C	1.082931	0.596781	0.367046
C63	C	0.510107	0.095708	-0.132972
C64	C	1.010107	0.595708	0.367028
C65	C	0.473676	0.095164	-0.000193
C66	C	0.973676	0.595164	0.499807
C67	C	0.510072	0.095711	0.132614
C68	C	1.010072	0.595711	0.632614
C69	C	0.582894	0.096791	0.132629
C70	C	1.082894	0.596791	0.632629
N71	N	0.364654	0.053734	0.098624
N72	N	0.864654	0.553734	0.598624
N73	N	0.295477	0.052707	0.098602
N74	N	0.795477	0.552707	0.598602
C75	C	0.254270	0.091911	-0.000228
C76	C	0.754270	0.591911	0.499772
N77	N	0.284854	0.132174	-0.099057
N78	N	0.784854	0.632174	0.400943
N79	N	0.354038	0.133198	-0.099038
N80	N	0.854038	0.633198	0.400962
C81	C	0.394714	0.093993	-0.000194
C82	C	0.894714	0.593993	0.499806
C83	C	0.138918	0.090206	-0.133046
C84	C	0.638918	0.590206	0.366954
C85	C	0.066093	0.089137	-0.133059
C86	C	0.566093	0.589137	0.366941
C87	C	0.066060	0.089133	0.132531
C88	C	0.566060	0.589133	0.632531
C89	C	0.138883	0.090209	0.132540
C90	C	0.638883	0.590209	0.632540
C91	C	0.175308	0.090742	-0.000253
C92	C	0.675308	0.590742	0.499747
C93	C	0.952161	0.087461	-0.000250
C94	C	1.452161	0.587461	0.499750
C95	C	1.029666	0.088594	-0.000279
C96	C	1.529666	0.588594	0.499721
C97	C	0.819003	0.220627	-0.000224
C98	C	1.319003	0.720627	0.499776
C99	C	0.820142	0.298131	-0.000231
C100	C	1.320142	0.798131	0.499769
N101	N	0.824487	0.092954	0.346450
N102	N	1.324487	0.592954	0.846450
N103	N	0.824503	0.092958	-0.346880
N104	N	1.324503	0.592958	0.153120
C105	C	0.872116	0.045359	0.423093
C106	C	1.372116	0.545359	0.923093
C107	C	0.872122	0.045359	0.576430
C108	C	1.372122	0.545359	1.076430
C109	C	0.776870	0.140556	0.576466
C110	C	1.276870	0.640556	1.076466
C111	C	0.776861	0.140553	0.423132
C112	C	1.276861	0.640553	0.923132
H113	H	0.935689	-0.710569	-0.000285
H114	H	1.435689	-0.210569	0.499715
H115	H	0.910895	0.006601	0.360662
H116	H	1.410895	0.506601	0.860662
F117	F	0.471298	0.095136	0.273927
F118	F	0.971298	0.595136	0.773927
H119	H	0.738072	0.179311	0.360724
H120	H	1.238072	0.679311	0.860724
H121	H	0.937637	-0.578460	-0.000275
H122	H	1.437637	-0.078460	0.499725
H123	H	0.713296	-0.103508	-0.000164
H124	H	1.213296	0.396492	0.499836
F125	F	0.621693	0.097351	-0.274284
F126	F	1.121693	0.597351	0.225716
H127	H	0.910905	0.006601	0.638829
H128	H	1.410905	0.506601	1.138829
F129	F	0.690969	-0.536284	-0.000173
F130	F	1.190969	-0.036284	0.499827
F131	F	0.471373	0.095130	-0.274310
F132	F	0.971373	0.595130	0.225690
F133	F	0.695301	-0.242595	-0.000175
F134	F	1.195301	0.257405	0.499825
H135	H	0.036398	0.088694	0.240642
H136	H	0.536398	0.588694	0.740642
H137	H	0.168511	0.090646	0.240672
H138	H	0.668511	0.590646	0.740672
H139	H	0.612520	0.097234	0.240765
H140	H	1.112520	0.597234	0.740765
F141	F	0.177686	0.090779	-0.274374
F142	F	0.677686	0.590779	0.225626
F143	F	0.027365	0.088565	-0.274400
F144	F	0.527365	0.588565	0.225600
H145	H	0.942242	-0.266560	-0.000281
H146	H	1.442242	0.233440	0.499719
F147	F	0.688746	-0.686608	-0.000161
F148	F	1.188746	-0.186608	0.499839
F149	F	0.960234	-0.127477	-0.000266
F150	F	1.460234	0.372523	0.499734
F151	F	0.726186	0.191213	0.658087
F152	F	1.226186	0.691213	1.158087
