data_functionalizedCrystal
_audit_creation_method	'MofGen! by Chris Wilmer'
_symmetry_space_group_name_H-M	'P1'
_symmetry_Int_Tables_number	1
_symmetry_cell_setting	triclinic
loop_
_symmetry_equiv_pos_as_xyz
  x,y,z
_cell_length_a	19.805407
_cell_length_b	12.594516
_cell_length_c	19.805399
_cell_angle_alpha	89.979203
_cell_angle_beta	89.980427
_cell_angle_gamma	90.016053
loop_
_atom_site_label
_atom_site_type_symbol
_atom_site_fract_x
_atom_site_fract_y
_atom_site_fract_z
Zn1	Zn	1.034784	-0.423767	-0.382752
Zn2	Zn	1.534784	0.076233	0.117248
Zn3	Zn	1.034720	-0.601760	-0.269577
Zn4	Zn	1.534720	-0.101760	0.230423
Zn5	Zn	0.921599	-0.423796	-0.269576
Zn6	Zn	1.421599	0.076204	0.230424
Zn7	Zn	0.921583	-0.601704	-0.382723
Zn8	Zn	1.421583	-0.101704	0.117277
O9	O	0.978172	-0.512757	-0.326157
O10	O	1.478172	-0.012757	0.173843
O11	O	1.129492	-0.447389	-0.367751
O12	O	1.629492	0.052611	0.132249
O13	O	1.019694	-0.578189	-0.174860
O14	O	1.519694	-0.078189	0.325140
O15	O	0.936647	-0.274846	-0.284601
O16	O	1.436647	0.225154	0.215399
O17	O	1.129445	-0.578160	-0.284602
O18	O	1.629445	-0.078160	0.215398
O19	O	1.019804	-0.274825	-0.367750
O20	O	1.519804	0.225175	0.132250
O21	O	0.936584	-0.447439	-0.174860
O22	O	1.436584	0.052561	0.325140
O23	O	0.826880	-0.447385	-0.284573
O24	O	1.326880	0.052615	0.215427
O25	O	0.936620	-0.578064	-0.477444
O26	O	1.436620	-0.078064	0.022556
O27	O	0.826869	-0.578092	-0.367702
O28	O	1.326869	-0.078092	0.132298
O29	O	1.019788	-0.447335	-0.477464
O30	O	1.519788	0.052665	0.022536
O31	O	1.019678	-0.750698	-0.284574
O32	O	1.519678	-0.250698	0.215426
O33	O	0.936557	-0.750657	-0.367703
O34	O	1.436557	-0.250657	0.132297
C35	C	0.802316	-0.512736	-0.326135
C36	C	1.302316	-0.012736	0.173865
C37	C	0.727084	-0.512753	-0.326142
C38	C	1.227084	-0.012753	0.173858
C39	C	0.691751	-0.580915	-0.369357
C40	C	1.191751	-0.080915	0.130643
C41	C	0.621063	-0.580917	-0.369366
C42	C	1.121063	-0.080917	0.130634
C43	C	0.585708	-0.512762	-0.326157
C44	C	1.085708	-0.012762	0.173843
C45	C	0.621045	-0.444592	-0.282940
C46	C	1.121045	0.055408	0.217060
C47	C	0.691733	-0.444586	-0.282934
C48	C	1.191733	0.055414	0.217066
C49	C	0.335972	-0.444615	-0.282962
C50	C	0.835972	0.055385	0.217038
C51	C	0.265280	-0.444629	-0.282970
C52	C	0.765280	0.055371	0.217030
C53	C	0.265302	-0.580947	-0.369394
C54	C	0.765302	-0.080947	0.130606
C55	C	0.335989	-0.580941	-0.369389
C56	C	0.835989	-0.080941	0.130611
C57	C	0.371321	-0.512768	-0.326175
C58	C	0.871321	-0.012768	0.173825
C59	C	0.447969	-0.512765	-0.326166
C60	C	0.947969	-0.012765	0.173834
C61	C	0.509061	-0.512769	-0.326162
C62	C	1.009061	-0.012769	0.173838
C63	C	0.978127	-0.789298	-0.326150
C64	C	1.478127	-0.289298	0.173850
C65	C	0.978170	-0.907603	-0.326170
C66	C	1.478170	-0.407603	0.173830
C67	C	0.932956	-0.976872	-0.371352
C68	C	1.432956	-0.476872	0.128648
C69	C	0.916467	-1.047728	-0.309590
C70	C	1.416467	-0.547728	0.190410
C71	C	0.994721	-1.047546	-0.387943
C72	C	1.494721	-0.547546	0.112057
C73	C	0.961649	-0.976901	-0.264375
C74	C	1.461649	-0.476901	0.235625
C75	C	1.039931	-0.976712	-0.342770
C76	C	1.539931	-0.476712	0.157230
C77	C	1.023465	-1.047536	-0.280965
C78	C	1.523465	-0.547536	0.219035
C79	C	1.154714	-0.512778	-0.326179
C80	C	1.654714	-0.012778	0.173821
C81	C	1.229946	-0.512787	-0.326189
C82	C	1.729946	-0.012787	0.173811
C83	C	0.978209	-0.512690	-0.502700
C84	C	1.478209	-0.012690	-0.002700
C85	C	0.978226	-0.512661	-0.577932
C86	C	1.478226	-0.012661	-0.077932
C87	C	0.978235	-0.235136	-0.326178
C88	C	1.478235	0.264864	0.173822
C89	C	0.978261	-0.116830	-0.326188
C90	C	1.478261	0.383170	0.173812
C91	C	1.021533	-0.444587	-0.613288
C92	C	1.521533	0.055413	-0.113288
C93	C	1.021539	-0.444556	-0.683976
C94	C	1.521539	0.055444	-0.183976
C95	C	0.978242	-0.512605	-0.719307
C96	C	1.478242	-0.012605	-0.219307
C97	C	0.934931	-0.580683	-0.683947
C98	C	1.434931	-0.080683	-0.183947
C99	C	0.934921	-0.580707	-0.613259
C100	C	1.434921	-0.080707	-0.113259
C101	C	0.934969	-0.580583	-0.969020
C102	C	1.434969	-0.080583	-0.469020
C103	C	0.934984	-0.580556	-1.039712
C104	C	1.434984	-0.080556	-0.539712
C105	C	1.021588	-0.444432	-1.039737
C106	C	1.521588	0.055568	-0.539737
C107	C	1.021578	-0.444457	-0.969050
C108	C	1.521578	0.055543	-0.469050
C109	C	0.978264	-0.512530	-0.933695
C110	C	1.478264	-0.012530	-0.433695
C111	C	0.978256	-0.512561	-0.857046
C112	C	1.478256	-0.012561	-0.357046
C113	C	0.978253	-0.512580	-0.795955
C114	C	1.478253	-0.012580	-0.295955
C115	C	0.978173	-0.512747	-0.150301
C116	C	1.478173	-0.012747	0.349699
C117	C	0.978288	-0.512475	-0.075069
C118	C	1.478288	-0.012475	0.424931
H119	H	0.720532	-0.636419	-0.404541
H120	H	1.220532	-0.136419	0.095459
C121	C	1.069228	-0.369545	-1.078629
C122	C	1.569228	0.130455	-0.578629
H123	H	1.063031	-0.379265	-1.125788
H124	H	1.563031	0.120735	-0.625788
H125	H	1.114699	-0.385136	-1.067052
H126	H	1.614699	0.114864	-0.567052
H127	H	1.059335	-0.298029	-1.067046
H128	H	1.559335	0.201971	-0.567046
H129	H	1.056792	-0.389176	-0.584526
H130	H	1.556792	0.110824	-0.084526
H131	H	0.592298	-0.636423	-0.404556
H132	H	1.092298	-0.136423	0.095444
C133	C	0.374879	-0.655926	-0.416907
C134	C	0.874879	-0.155926	0.083093
H135	H	0.422038	-0.646170	-0.410707
H136	H	0.922038	-0.146170	0.089293
H137	H	0.363322	-0.640460	-0.462405
H138	H	0.863322	-0.140460	0.037595
H139	H	0.363275	-0.727420	-0.406912
H140	H	0.863275	-0.227420	0.093088
C141	C	1.069202	-0.369599	-0.930189
C142	C	1.569202	0.130401	-0.430189
H143	H	1.094991	-0.329043	-0.961370
H144	H	1.594991	0.170957	-0.461370
H145	H	1.098680	-0.410323	-0.902614
H146	H	1.598680	0.089677	-0.402614
H147	H	1.043309	-0.323228	-0.902616
H148	H	1.543309	0.176772	-0.402616
H149	H	0.236496	-0.389122	-0.247783
H150	H	0.736496	0.110878	0.252217
H151	H	1.061740	-1.078369	-0.242720
H152	H	1.561740	-0.578369	0.257280
H153	H	1.056806	-0.389126	-0.712760
H154	H	1.556806	0.110874	-0.212760
C155	C	0.845967	-1.089873	-0.290627
C156	C	1.345967	-0.589873	0.209373
H157	H	0.813860	-1.065686	-0.322766
H158	H	1.313860	-0.565686	0.177234
H159	H	0.833930	-1.064646	-0.247061
H160	H	1.333930	-0.564646	0.252939
H161	H	0.846614	-1.165295	-0.290370
H162	H	1.346614	-0.665295	0.209630
C163	C	0.887350	-0.655406	-1.078575
C164	C	1.387350	-0.155406	-0.578575
H165	H	0.861547	-0.695944	-1.047396
H166	H	1.361547	-0.195944	-0.547396
H167	H	0.913232	-0.701778	-1.106152
H168	H	1.413232	-0.201778	-0.606152
H169	H	0.857875	-0.614662	-1.106148
H170	H	1.357875	-0.114662	-0.606148
C171	C	0.887312	-0.655438	-0.930138
C172	C	1.387312	-0.155438	-0.430138
H173	H	0.861529	-0.695960	-0.961306
H174	H	1.361529	-0.195960	-0.461306
H175	H	0.857831	-0.614705	-0.902571
H176	H	1.357831	-0.114705	-0.402571
H177	H	0.913175	-0.701843	-0.902555
H178	H	1.413175	-0.201843	-0.402555
C179	C	0.942704	-0.935168	-0.193792
C180	C	1.442704	-0.435168	0.306208
H181	H	0.934853	-0.993433	-0.164337
H182	H	1.434853	-0.493433	0.335663
H183	H	0.902962	-0.893238	-0.196872
H184	H	1.402962	-0.393238	0.303128
H185	H	0.978619	-0.893095	-0.176619
H186	H	1.478619	-0.393095	0.323381
H187	H	0.899675	-0.636086	-0.712719
H188	H	1.399675	-0.136086	-0.212719
H189	H	0.364730	-0.389113	-0.247769
H190	H	0.864730	0.110887	0.252231
C191	C	0.887300	-0.655615	-0.574368
C192	C	1.387300	-0.155615	-0.074368
H193	H	0.861524	-0.696154	-0.605532
H194	H	1.361524	-0.196154	-0.105532
H195	H	0.857810	-0.614928	-0.546782
H196	H	1.357810	-0.114928	-0.046782
H197	H	0.913195	-0.702001	-0.546802
H198	H	1.413195	-0.202001	-0.046802
H199	H	0.592254	-0.389094	-0.247761
H200	H	1.092254	0.110906	0.252239
C201	C	0.226436	-0.655927	-0.416937
C202	C	0.726436	-0.155927	0.083063
H203	H	0.179274	-0.646164	-0.410760
H204	H	0.679274	-0.146164	0.089240
H205	H	0.238005	-0.727419	-0.406954
H206	H	0.738005	-0.227419	0.093046
H207	H	0.238045	-0.640436	-0.462431
H208	H	0.738045	-0.140436	0.037569
C209	C	0.730602	-0.369610	-0.235399
C210	C	1.230602	0.130390	0.264601
H211	H	0.777763	-0.379359	-0.241589
H212	H	1.277763	0.120641	0.258411
H213	H	0.718998	-0.385088	-0.189905
H214	H	1.218998	0.114912	0.310095
H215	H	0.719030	-0.298114	-0.245389
H216	H	1.219030	0.201886	0.254611
H217	H	0.894652	-0.945843	-0.409505
H218	H	1.394652	-0.445843	0.090495
H219	H	1.092106	-0.945498	-0.356826
H220	H	1.592106	-0.445498	0.143174
H221	H	1.008682	-1.078577	-0.440176
H222	H	1.508682	-0.578577	0.059824
