data_functionalizedCrystal
_audit_creation_method	'MofGen! by Chris Wilmer'
_symmetry_space_group_name_H-M	'P1'
_symmetry_Int_Tables_number	1
_symmetry_cell_setting	triclinic
loop_
_symmetry_equiv_pos_as_xyz
  x,y,z
_cell_length_a	11.169417
_cell_length_b	19.805399
_cell_length_c	11.169416
_cell_angle_alpha	89.978277
_cell_angle_beta	90.011219
_cell_angle_gamma	89.987406
loop_
_atom_site_label
_atom_site_type_symbol
_atom_site_fract_x
_atom_site_fract_y
_atom_site_fract_z
Zn1	Zn	1.834877	-0.382676	-0.477790
Zn2	Zn	1.834791	-0.269502	-0.678499
Zn3	Zn	1.634188	-0.269509	-0.477831
Zn4	Zn	1.634170	-0.382658	-0.678433
O5	O	1.734506	-0.326086	-0.578138
O6	O	2.002815	-0.367668	-0.504425
O7	O	1.808153	-0.174787	-0.651924
O8	O	1.660853	-0.284532	-0.309876
O9	O	2.002752	-0.284520	-0.651885
O10	O	1.808298	-0.367675	-0.309846
O11	O	1.660770	-0.174792	-0.504495
O12	O	1.466236	-0.284514	-0.504431
O13	O	1.660822	-0.477377	-0.651773
O14	O	1.466223	-0.367643	-0.651813
O15	O	1.808281	-0.477390	-0.504361
O16	O	1.808135	-0.284502	-0.846440
O17	O	1.660740	-0.367637	-0.846391
C18	C	1.422682	-0.326078	-0.578120
C19	C	1.289282	-0.326090	-0.578141
C20	C	1.734559	-0.502629	-0.578055
C21	C	1.734582	-0.577861	-0.578020
C22	C	1.657861	-0.613208	-0.501246
C23	C	1.657878	-0.683896	-0.501222
C24	C	1.734622	-0.719237	-0.577968
C25	C	1.811345	-0.683886	-0.654750
C26	C	1.811322	-0.613198	-0.654778
C27	C	1.811440	-0.968959	-0.654638
C28	C	1.811460	-1.039651	-0.654601
C29	C	1.657996	-1.039657	-0.501082
C30	C	1.657973	-0.968969	-0.501110
C31	C	1.734692	-0.933624	-0.577896
C32	C	1.734671	-0.856976	-0.577922
C33	C	1.734649	-0.795884	-0.577936
C34	C	2.047549	-0.326096	-0.578157
C35	C	2.180949	-0.326099	-0.578166
C36	C	1.734459	-0.326081	-0.889963
C37	C	1.734548	-0.326102	-1.023363
C38	C	1.734523	-0.150230	-0.578135
C39	C	1.734733	-0.074999	-0.577832
C40	C	1.734587	-0.326106	-0.265096
C41	C	1.734621	-0.326115	-0.131696
H42	H	1.595400	-0.712672	-0.438710
N43	N	1.575216	-0.930852	-0.418320
H44	H	1.526617	-0.963970	-0.369677
H45	H	1.519650	-0.901515	-0.467174
H46	H	1.873896	-0.940190	-0.717175
N47	N	1.575091	-0.575099	-0.418456
H48	H	1.489338	-0.587397	-0.437085
H49	H	1.586816	-0.524966	-0.430151
H50	H	1.595525	-1.068443	-0.438562
N51	N	1.894107	-0.721999	-0.737541
H52	H	1.882482	-0.772143	-0.725875
H53	H	1.979825	-0.709648	-0.718881
N54	N	1.894236	-1.077772	-0.737380
H55	H	1.942832	-1.044655	-0.786032
H56	H	1.845370	-1.107097	-0.792897
N57	N	1.894065	-0.575073	-0.737591
H58	H	1.942686	-0.608188	-0.786202
H59	H	1.949613	-0.545748	-0.688758
