data_functionalizedCrystal
_audit_creation_method	'MofGen! by Chris Wilmer'
_symmetry_space_group_name_H-M	'P1'
_symmetry_Int_Tables_number	1
_symmetry_cell_setting	triclinic
loop_
_symmetry_equiv_pos_as_xyz
  x,y,z
_cell_length_a	25.639243
_cell_length_b	25.639239
_cell_length_c	14.908794
_cell_angle_alpha	86.718037
_cell_angle_beta	86.711216
_cell_angle_gamma	90.041410
loop_
_atom_site_label
_atom_site_type_symbol
_atom_site_fract_x
_atom_site_fract_y
_atom_site_fract_z
Zn1	Zn	0.782113	-0.225268	0.510130
Zn2	Zn	1.115446	0.108066	0.843463
Zn3	Zn	1.448780	0.441399	1.176797
Zn4	Zn	0.787097	-0.307632	0.359267
Zn5	Zn	1.120430	0.025701	0.692600
Zn6	Zn	1.453764	0.359035	1.025934
Zn7	Zn	0.699749	-0.220217	0.359283
Zn8	Zn	1.033083	0.113116	0.692616
Zn9	Zn	1.366416	0.446450	1.025949
Zn10	Zn	0.694636	-0.312676	0.510067
Zn11	Zn	1.027970	0.020657	0.843401
Zn12	Zn	1.361303	0.353991	1.176734
O13	O	0.740899	-0.266448	0.434687
O14	O	1.074232	0.066885	0.768020
O15	O	1.407566	0.400219	1.101353
O16	O	0.855939	-0.236196	0.490137
O17	O	1.189272	0.097137	0.823471
O18	O	1.522605	0.430470	1.156804
O19	O	0.779736	-0.291812	0.233028
O20	O	1.113069	0.041522	0.566362
O21	O	1.446403	0.374855	0.899695
O22	O	0.710729	-0.147723	0.379326
O23	O	1.044062	0.185610	0.712659
O24	O	1.377396	0.518944	1.045992
O25	O	0.859600	-0.296709	0.379299
O26	O	1.192934	0.036624	0.712632
O27	O	1.526267	0.369958	1.045965
O28	O	0.771241	-0.151434	0.490153
O29	O	1.104575	0.181900	0.823486
O30	O	1.437908	0.515233	1.156819
O31	O	0.715562	-0.227588	0.233040
O32	O	1.048895	0.105745	0.566373
O33	O	1.382229	0.439078	0.899707
O34	O	0.625907	-0.232479	0.379265
O35	O	0.959240	0.100854	0.712598
O36	O	1.292573	0.434188	1.045932
O37	O	0.702015	-0.305306	0.636316
O38	O	1.035348	0.028028	0.969650
O39	O	1.368681	0.361361	1.302983
O40	O	0.622150	-0.300408	0.490046
O41	O	0.955484	0.032925	0.823379
O42	O	1.288817	0.366258	1.156713
O43	O	0.766283	-0.241087	0.636362
O44	O	1.099617	0.092246	0.969696
O45	O	1.432950	0.425580	1.303029
O46	O	0.774778	-0.381465	0.379238
O47	O	1.108111	-0.048132	0.712571
O48	O	1.441445	0.285201	1.045905
O49	O	0.706848	-0.385171	0.490031
O50	O	1.040181	-0.051838	0.823364
O51	O	1.373514	0.281496	1.156697
C52	C	0.605058	-0.266443	0.434651
C53	C	0.938391	0.066890	0.767984
C54	C	1.271724	0.400223	1.101318
C55	C	0.546943	-0.266455	0.434657
C56	C	0.880277	0.066879	0.767990
C57	C	1.213610	0.400212	1.101324
C58	C	0.740812	-0.402289	0.434645
C59	C	1.074146	-0.068956	0.767979
C60	C	1.407479	0.264377	1.101312
C61	C	0.740822	-0.460404	0.434658
C62	C	1.074156	-0.127070	0.767991
C63	C	1.407489	0.206263	1.101325
C64	C	0.184664	-0.234995	0.492497
C65	C	0.517997	0.098338	0.825830
C66	C	0.851330	0.431672	1.159163
C67	C	0.130059	-0.234995	0.492502
C68	C	0.463393	0.098339	0.825835
C69	C	0.796726	0.431672	1.159169
O70	O	0.100195	-0.208235	0.541635
O71	O	0.433528	0.125098	0.874968
O72	O	0.766861	0.458431	1.208301
N73	N	0.104659	-0.266447	0.434712
N74	N	0.437992	0.066886	0.768045
N75	N	0.771326	0.400219	1.101378
C76	C	0.133867	-0.297899	0.376905
C77	C	0.467200	0.035435	0.710238
C78	C	0.800533	0.368768	1.043572
O79	O	0.107248	-0.324651	0.327750
O80	O	0.440581	0.008682	0.661083
O81	O	0.773914	0.342015	0.994416
C82	C	0.188470	-0.297896	0.376896
C83	C	0.521804	0.035438	0.710229
C84	C	0.855137	0.368771	1.043562
C85	C	0.213867	-0.266445	0.434696
C86	C	0.547201	0.066889	0.768030
C87	C	0.880534	0.400222	1.101363
C88	C	0.210061	-0.203546	0.550292
C89	C	0.543394	0.129787	0.883625
C90	C	0.876728	0.463120	1.216959
C91	C	0.264662	-0.203547	0.550287
C92	C	0.597995	0.129786	0.883621
C93	C	0.931328	0.463119	1.216954
C94	C	0.293865	-0.234997	0.492487
C95	C	0.627199	0.098336	0.825821
C96	C	0.960532	0.431669	1.159154
C97	C	0.268468	-0.266446	0.434692
C98	C	0.601801	0.066887	0.768025
C99	C	0.935135	0.400221	1.101359
C100	C	0.217677	-0.329344	0.319085
C101	C	0.551010	0.003990	0.652419
C102	C	0.884343	0.337323	0.985752
C103	C	0.272284	-0.329338	0.319080
C104	C	0.605617	0.003996	0.652414
C105	C	0.938951	0.337329	0.985747
C106	C	0.297681	-0.297887	0.376881
C107	C	0.631014	0.035447	0.710215
C108	C	0.964348	0.368780	1.043548
C109	C	0.352272	-0.297897	0.376887
C110	C	0.685605	0.035436	0.710220
C111	C	1.018939	0.368770	1.043554
N112	N	0.377672	-0.266444	0.434678
N113	N	0.711006	0.066889	0.768011
N114	N	1.044339	0.400223	1.101344
C115	C	0.348469	-0.234994	0.492478
C116	C	0.681802	0.098339	0.825811
C117	C	1.015136	0.431672	1.159145
C118	C	0.019195	-0.297902	0.376928
C119	C	0.352528	0.035432	0.710262
C120	C	0.685862	0.368765	1.043595
C121	C	-0.035408	-0.297908	0.376942
C122	C	0.297926	0.035426	0.710275
C123	C	0.631259	0.368759	1.043608
C124	C	-0.039211	-0.235003	0.492538
C125	C	0.294122	0.098330	0.825871
C126	C	0.627456	0.431664	1.159204
C127	C	0.015393	-0.235000	0.492528
C128	C	0.348726	0.098333	0.825862
C129	C	0.682059	0.431667	1.159195
C130	C	0.044595	-0.266449	0.434719
C131	C	0.377929	0.066885	0.768052
C132	C	0.711262	0.400218	1.101386
C133	C	0.463134	-0.234999	0.492464
C134	C	0.796468	0.098334	0.825798
C135	C	1.129801	0.431667	1.159131
C136	C	0.517740	-0.235005	0.492457
C137	C	0.851073	0.098329	0.825790
C138	C	1.184407	0.431662	1.159124
C139	C	0.521539	-0.297907	0.376858
C140	C	0.854872	0.035426	0.710191
C141	C	1.188205	0.368759	1.043525
C142	C	0.466938	-0.297904	0.376868
C143	C	0.800271	0.035429	0.710201
C144	C	1.133604	0.368763	1.043535
C145	C	0.437737	-0.266446	0.434674
C146	C	0.771070	0.066887	0.768008
C147	C	1.104404	0.400221	1.101341
O148	O	0.382171	-0.324641	0.327777
O149	O	0.715504	0.008692	0.661110
O150	O	1.048837	0.342026	0.994444
O151	O	0.375095	-0.208241	0.541617
O152	O	0.708428	0.125092	0.874950
O153	O	1.041762	0.458426	1.208283
C154	C	0.776354	-0.818829	0.377095
C155	C	1.109688	-0.485496	0.710429
C156	C	1.443021	-0.152162	1.043762
C157	C	0.776374	-0.873434	0.377107
C158	C	1.109707	-0.540100	0.710441
C159	C	1.443041	-0.206767	1.043774
O160	O	0.806495	-0.900021	0.328120
O161	O	1.139828	-0.566688	0.661454
O162	O	1.473162	-0.233354	0.994787
N163	N	0.740989	-0.902689	0.434747
N164	N	1.074322	-0.569356	0.768080
N165	N	1.407656	-0.236023	1.101413
C166	C	0.705585	-0.877338	0.492384
C167	C	1.038918	-0.544004	0.825717
C168	C	1.372252	-0.210671	1.159050
O169	O	0.675489	-0.907236	0.541412
O170	O	1.008823	-0.573902	0.874745
O171	O	1.342156	-0.240569	1.208079
C172	C	0.705568	-0.822734	0.492376
C173	C	1.038901	-0.489401	0.825709
C174	C	1.372235	-0.156067	1.159042
C175	C	0.740952	-0.793481	0.434726
C176	C	1.074285	-0.460148	0.768060
C177	C	1.407619	-0.126814	1.101393
C178	C	0.811736	-0.789576	0.319452
C179	C	1.145069	-0.456243	0.652785
C180	C	1.478403	-0.122909	0.986118
C181	C	0.811715	-0.734975	0.319439
C182	C	1.145049	-0.401642	0.652772
C183	C	1.478382	-0.068308	0.986105
C184	C	0.776313	-0.709627	0.377069
C185	C	1.109646	-0.376294	0.710403
C186	C	1.442980	-0.042960	1.043736
C187	C	0.740931	-0.738880	0.434713
C188	C	1.074265	-0.405547	0.768047
C189	C	1.407598	-0.072213	1.101380
C190	C	0.670167	-0.797383	0.550017
C191	C	1.003500	-0.464050	0.883350
C192	C	1.336834	-0.130717	1.216683
C193	C	0.670153	-0.742776	0.550004
C194	C	1.003487	-0.409443	0.883337
C195	C	1.336820	-0.076109	1.216671
C196	C	0.705537	-0.713523	0.492355
C197	C	1.038871	-0.380190	0.825688
C198	C	1.372204	-0.046856	1.159021
C199	C	0.705509	-0.658931	0.492331
C200	C	1.038842	-0.325598	0.825664
C201	C	1.372175	0.007736	1.158998
N202	N	0.740894	-0.629675	0.434692
N203	N	1.074227	-0.296342	0.768025
N204	N	1.407560	0.036991	1.101359
C205	C	0.776296	-0.655023	0.377061
C206	C	1.109629	-0.321690	0.710395
C207	C	1.442963	0.011643	1.043728
C208	C	0.705624	-0.992009	0.492398
C209	C	1.038957	-0.658675	0.825731
C210	C	1.372291	-0.325342	1.159064
C211	C	0.705638	-1.046611	0.492402
C212	C	1.038971	-0.713278	0.825735
C213	C	1.372305	-0.379944	1.159069
C214	C	0.776428	-1.042703	0.377127
C215	C	1.109761	-0.709370	0.710460
C216	C	1.443095	-0.376037	1.043793
C217	C	0.776411	-0.988100	0.377118
C218	C	1.109744	-0.654766	0.710452
C219	C	1.443078	-0.321433	1.043785
C220	C	0.741009	-0.962753	0.434759
C221	C	1.074343	-0.629420	0.768092
C222	C	1.407676	-0.296086	1.101425
C223	C	0.776250	-0.540358	0.377038
C224	C	1.109583	-0.207024	0.710371
C225	C	1.442916	0.126309	1.043704
C226	C	0.776224	-0.485752	0.377027
C227	C	1.109558	-0.152418	0.710360
C228	C	1.442891	0.180915	1.043694
C229	C	0.705437	-0.489664	0.492305
C230	C	1.038770	-0.156331	0.825639
C231	C	1.372103	0.177002	1.158972
C232	C	0.705460	-0.544265	0.492313
C233	C	1.038793	-0.210932	0.825646
C234	C	1.372126	0.122401	1.158980
C235	C	0.740871	-0.569610	0.434676
C236	C	1.074204	-0.236277	0.768009
C237	C	1.407537	0.097056	1.101343
O238	O	0.675404	-0.632308	0.541296
O239	O	1.008738	-0.298975	0.874629
O240	O	1.342071	0.034359	1.207962
O241	O	0.806391	-0.625119	0.328050
O242	O	1.139725	-0.291786	0.661383
O243	O	1.473058	0.041548	0.994716
C244	C	0.877271	-0.266453	0.434723
C245	C	1.210604	0.066880	0.768057
C246	C	1.543937	0.400213	1.101390
C247	C	0.935384	-0.266456	0.434739
C248	C	1.268718	0.066878	0.768072
C249	C	1.602051	0.400211	1.101405
C250	C	0.733023	-0.274322	0.669987
C251	C	1.066356	0.059011	1.003321
C252	C	1.399689	0.392344	1.336654
C253	C	0.729666	-0.277678	0.770259
C254	C	1.063000	0.055655	1.103592
C255	C	1.396333	0.388989	1.436925
C256	C	0.740999	-0.130077	0.434748
C257	C	1.074333	0.203256	0.768081
C258	C	1.407666	0.536590	1.101415
C259	C	0.741042	-0.071964	0.434774
C260	C	1.074376	0.261369	0.768107
C261	C	1.407709	0.594703	1.101441
C262	C	0.691476	-0.315836	0.911563
C263	C	1.024809	0.017497	1.244897
C264	C	1.358143	0.350831	1.578230
C265	C	0.694628	-0.312687	0.817350
C266	C	1.027962	0.020646	1.150683
C267	C	1.361295	0.353980	1.484016
C268	C	0.761553	-0.245814	0.817388
C269	C	1.094886	0.087519	1.150721
C270	C	1.428220	0.420852	1.484054
C271	C	0.758400	-0.248963	0.911601
C272	C	1.091734	0.084370	1.244935
C273	C	1.425067	0.417703	1.578268
C274	C	0.723361	-0.283976	0.958686
C275	C	1.056695	0.049357	1.292019
C276	C	1.390028	0.382691	1.625352
C277	C	0.720212	-0.287127	1.052901
C278	C	1.053545	0.046206	1.386234
C279	C	1.386878	0.379539	1.719568
C280	C	0.787133	-0.220252	1.052937
C281	C	1.120466	0.113081	1.386271
C282	C	1.453800	0.446414	1.719604
C283	C	0.790286	-0.217103	0.958724
C284	C	1.123619	0.116230	1.292057
C285	C	1.456952	0.449564	1.625390
C286	C	0.748741	-0.258617	1.200301
C287	C	1.082074	0.074716	1.533635
C288	C	1.415408	0.408050	1.866968
C289	C	0.752098	-0.255264	1.100030
C290	C	1.085431	0.078070	1.433364
C291	C	1.418765	0.411403	1.766697
H292	H	0.538415	-0.209393	0.539529
H293	H	0.871749	0.123940	0.872862
H294	H	1.205082	0.457273	1.206195
F295	F	0.682921	-0.324391	1.103011
F296	F	1.016255	0.008942	1.436344
F297	F	1.349588	0.342275	1.769677
F298	F	0.632510	-0.828505	0.611384
F299	F	0.965843	-0.495172	0.944717
F300	F	1.299177	-0.161839	1.278051
F301	F	0.813886	-0.454621	0.315666
F302	F	1.147220	-0.121288	0.648999
F303	F	1.480553	0.212045	0.982332
F304	F	0.660691	-0.346596	0.767202
F305	F	0.994024	-0.013263	1.100535
F306	F	1.327357	0.320071	1.433868
H307	H	0.840529	-0.711160	0.272498
H308	H	1.173863	-0.377827	0.605832
H309	H	1.507196	-0.044494	0.939165
F310	F	0.432064	-0.201518	0.553988
F311	F	0.765397	0.131815	0.887321
F312	F	1.098731	0.465149	1.220654
F313	F	0.667762	-0.462678	0.553640
F314	F	1.001096	-0.129344	0.886973
F315	F	1.334429	0.203989	1.220306
H316	H	0.790077	-0.217306	0.779035
H317	H	1.123411	0.116027	1.112368
H318	H	1.456744	0.449361	1.445702
H319	H	0.805086	-0.560987	0.330106
H320	H	1.138419	-0.227654	0.663440
H321	H	1.471752	0.105680	0.996773
H322	H	0.285335	-0.177936	0.597353
H323	H	0.618668	0.155397	0.930687
H324	H	0.952002	0.488731	1.264020
F325	F	0.849420	-0.816545	0.258109
F326	F	1.182753	-0.483211	0.591442
F327	F	1.516087	-0.149878	0.924775
H328	H	0.186289	-0.177933	0.597360
H329	H	0.519623	0.155400	0.930693
H330	H	0.852956	0.488734	1.264027
H331	H	0.197008	-0.354954	0.272017
H332	H	0.530341	-0.021620	0.605350
H333	H	0.863675	0.311713	0.938683
F334	F	0.827566	-0.179833	0.908603
F335	F	1.160899	0.153500	1.241937
F336	F	1.494232	0.486833	1.575270
H337	H	0.662949	-0.344348	0.949900
H338	H	0.996282	-0.011015	1.283234
H339	H	1.329616	0.322319	1.616567
F340	F	0.667791	-0.575399	0.553653
F341	F	1.001125	-0.242066	0.886986
F342	F	1.334458	0.091268	1.220319
H343	H	0.036067	-0.209389	0.539593
H344	H	0.369400	0.123945	0.872926
H345	H	0.702734	0.457278	1.206260
H346	H	0.813097	-0.194310	1.091314
H347	H	1.146431	0.139023	1.424648
H348	H	1.479764	0.472357	1.757981
F349	F	0.814071	-0.956971	0.315761
F350	F	1.147405	-0.623638	0.649095
F351	F	1.480738	-0.290305	0.982428
H352	H	0.446258	-0.323520	0.329812
H353	H	0.779592	0.009813	0.663146
H354	H	1.112925	0.343146	0.996479
H355	H	-0.062998	-0.209393	0.539600
H356	H	0.270335	0.123940	0.872933
H357	H	0.603668	0.457273	1.206266
F358	F	0.814106	-1.069690	0.315789
F359	F	1.147439	-0.736357	0.649122
F360	F	1.480772	-0.403023	0.982456
H361	H	-0.056081	-0.323524	0.329884
H362	H	0.277252	0.009809	0.663218
H363	H	0.610585	0.343142	0.996551
F364	F	0.667972	-1.077738	0.553750
F365	F	1.001305	-0.744405	0.887083
F366	F	1.334639	-0.411072	1.220417
H367	H	0.676791	-0.971374	0.539333
H368	H	1.010125	-0.638041	0.872666
H369	H	1.343458	-0.304707	1.205999
F370	F	0.050270	-0.331379	0.315400
F371	F	0.383604	0.001955	0.648733
F372	F	0.716937	0.335288	0.982066
H373	H	0.296058	-0.354947	0.272002
H374	H	0.629392	-0.021614	0.605336
H375	H	0.962725	0.311720	0.938669
H376	H	0.641325	-0.722142	0.596945
H377	H	0.974659	-0.388808	0.930278
H378	H	1.307992	-0.055475	1.263611
H379	H	0.545326	-0.323514	0.329801
H380	H	0.878659	0.009819	0.663134
H381	H	1.211993	0.343153	0.996467
