data_functionalizedCrystal
_audit_creation_method	'MofGen! by Chris Wilmer'
_symmetry_space_group_name_H-M	'P1'
_symmetry_Int_Tables_number	1
_symmetry_cell_setting	triclinic
loop_
_symmetry_equiv_pos_as_xyz
  x,y,z
_cell_length_a	13.101039
_cell_length_b	16.109301
_cell_length_c	16.109301
_cell_angle_alpha	96.538519
_cell_angle_beta	86.640098
_cell_angle_gamma	86.646051
loop_
_atom_site_label
_atom_site_type_symbol
_atom_site_fract_x
_atom_site_fract_y
_atom_site_fract_z
O1	O	0.085153	-1.107703	0.102280
O2	O	0.418486	-0.774370	0.435614
O3	O	0.751819	-0.441037	0.768947
O4	O	0.085169	-0.865642	0.115579
O5	O	0.418503	-0.532309	0.448912
O6	O	0.751836	-0.198976	0.782246
O7	O	0.085150	-0.993322	-0.012101
O8	O	0.418483	-0.659989	0.321233
O9	O	0.751817	-0.326655	0.654566
O10	O	0.085172	-0.980024	0.229960
O11	O	0.418505	-0.646691	0.563293
O12	O	0.751839	-0.313357	0.896627
O13	O	-0.085278	-0.984161	-0.002925
O14	O	0.248055	-0.650828	0.330409
O15	O	0.581388	-0.317494	0.663742
O16	O	-0.085259	-0.856482	0.124755
O17	O	0.248074	-0.523148	0.458088
O18	O	0.581408	-0.189815	0.791422
O19	O	-0.085276	-1.098543	0.111456
O20	O	0.248058	-0.765209	0.444790
O21	O	0.581391	-0.431876	0.778123
Zn22	Zn	-0.112327	-0.976058	0.119563
Zn23	Zn	0.221007	-0.642724	0.452896
Zn24	Zn	0.554340	-0.309391	0.786229
Zn25	Zn	0.112220	-0.988127	0.107473
Zn26	Zn	0.445554	-0.654794	0.440806
Zn27	Zn	0.778887	-0.321461	0.774139
O28	O	-0.085257	-0.970863	0.239136
O29	O	0.248077	-0.637530	0.572469
O30	O	0.581410	-0.304196	0.905803
C31	C	-0.000043	-0.830087	0.119628
C32	C	0.333290	-0.496754	0.452961
C33	C	0.666624	-0.163421	0.786295
C34	C	-0.000037	-0.737792	0.118013
C35	C	0.333296	-0.404459	0.451346
C36	C	0.666630	-0.071126	0.784679
N37	N	-0.265574	-0.967826	0.127813
N38	N	0.067759	-0.634493	0.461146
N39	N	0.401093	-0.301160	0.794480
C40	C	-0.000065	-0.988203	-0.038488
C41	C	0.333269	-0.654870	0.294846
C42	C	0.666602	-0.321536	0.628179
C43	C	-0.000066	-0.986588	-0.130783
C44	C	0.333267	-0.653254	0.202551
C45	C	0.666601	-0.319921	0.535884
C46	C	-0.474615	-0.956627	0.139046
C47	C	-0.141282	-0.623294	0.472379
C48	C	0.192052	-0.289961	0.805712
C49	C	-0.525498	-1.007562	0.087986
C50	C	-0.192165	-0.674228	0.421319
C51	C	0.141168	-0.340895	0.754652
C52	C	-0.641816	-1.001330	0.094236
C53	C	-0.308482	-0.667997	0.427569
C54	C	0.024851	-0.334664	0.760902
C55	C	-0.358287	-0.962858	0.132797
C56	C	-0.024953	-0.629524	0.466130
C57	C	0.308380	-0.296191	0.799463
N58	N	0.265467	-0.996365	0.099216
N59	N	0.598801	-0.663032	0.432549
N60	N	0.932134	-0.329699	0.765882
C61	C	-0.000061	-1.134098	0.107407
C62	C	0.333272	-0.800765	0.440740
C63	C	0.666605	-0.467431	0.774074
C64	C	-0.000061	-1.226393	0.109022
C65	C	0.333273	-0.893060	0.442356
C66	C	0.666606	-0.559727	0.775689
C67	C	-0.000042	-0.515520	0.190021
C68	C	0.333291	-0.182186	0.523354
C69	C	0.666624	0.151147	0.856687
C70	C	-0.000049	-0.428799	0.188497
C71	C	0.333284	-0.095465	0.521830
C72	C	0.666618	0.237868	0.855164
C73	C	-0.000058	-0.448673	0.037009
C74	C	0.333275	-0.115339	0.370342
C75	C	0.666608	0.217994	0.703675
C76	C	-0.000059	-0.535391	0.038534
C77	C	0.333274	-0.202058	0.371867
C78	C	0.666608	0.131275	0.705200
C79	C	-0.000046	-0.568812	0.115042
C80	C	0.333288	-0.235479	0.448375
C81	C	0.666621	0.097854	0.781708
C82	C	-0.000052	-0.395373	0.111993
C83	C	0.333282	-0.062040	0.445326
C84	C	0.666615	0.271294	0.778660
C85	C	-0.000059	-0.301347	0.110340
C86	C	0.333274	0.031987	0.443674
C87	C	0.666608	0.365320	0.777007
C88	C	-0.000040	-0.662845	0.116695
C89	C	0.333293	-0.329511	0.450028
C90	C	0.666626	0.003822	0.783362
C91	C	-0.000055	-1.058596	-0.353056
C92	C	0.333279	-0.725263	-0.019722
C93	C	0.666612	-0.391929	0.313611
C94	C	-0.000046	-1.057072	-0.439777
C95	C	0.333287	-0.723739	-0.106443
C96	C	0.666621	-0.390406	0.226890
C97	C	-0.000040	-0.905584	-0.419903
C98	C	0.333294	-0.572251	-0.086569
C99	C	0.666627	-0.238917	0.246764
C100	C	-0.000041	-0.907109	-0.333184
C101	C	0.333292	-0.573775	0.000149
C102	C	0.666626	-0.240442	0.333483
C103	C	-0.000054	-0.983617	-0.299763
C104	C	0.333280	-0.650284	0.033571
C105	C	0.666613	-0.316950	0.366904
C106	C	-0.000044	-0.980569	-0.473202
C107	C	0.333289	-0.647235	-0.139869
C108	C	0.666623	-0.313902	0.193464
C109	C	-0.000035	-0.978916	-0.567229
C110	C	0.333299	-0.645583	-0.233896
C111	C	0.666632	-0.312249	0.099438
C112	C	-0.000061	-0.985270	-0.205730
C113	C	0.333272	-0.651937	0.127603
C114	C	0.666606	-0.318603	0.460936
C115	C	-0.000040	-0.975982	0.265523
C116	C	0.333294	-0.642649	0.598856
C117	C	0.666627	-0.309316	0.932189
C118	C	-0.000032	-0.977598	0.357818
C119	C	0.333302	-0.644265	0.691151
C120	C	0.666635	-0.310931	1.024484
H121	H	-0.481703	-1.055848	0.039579
H122	H	-0.148370	-0.722515	0.372912
H123	H	0.184963	-0.389181	0.706245
H124	H	-0.000065	-0.578785	-0.022527
H125	H	0.333269	-0.245452	0.310807
H126	H	0.666602	0.087882	0.644140
H127	H	-0.000063	-1.120894	-0.325848
H128	H	0.333270	-0.787561	0.007486
H129	H	0.666604	-0.454227	0.340819
H130	H	-0.518405	-0.908345	0.187451
H131	H	-0.185071	-0.575012	0.520784
H132	H	0.148262	-0.241678	0.854117
C133	C	-0.000068	-1.206962	-0.450704
C134	C	0.333265	-0.873629	-0.117370
C135	C	0.666599	-0.540295	0.215963
C136	C	-0.000054	-1.139492	-0.498356
C137	C	0.333279	-0.806158	-0.165023
C138	C	0.666612	-0.472825	0.168310
H139	H	-0.000079	-1.257845	-0.486870
H140	H	0.333255	-0.924512	-0.153537
H141	H	0.666588	-0.591178	0.179797
H142	H	0.059359	-1.207601	-0.419664
H143	H	0.392692	-0.874268	-0.086330
H144	H	0.726026	-0.540934	0.247003
H145	H	-0.059506	-1.201203	-0.413269
H146	H	0.273827	-0.867869	-0.079936
H147	H	0.607161	-0.534536	0.253397
H148	H	0.059388	-1.145248	-0.535787
H149	H	0.392721	-0.811914	-0.202453
H150	H	0.726054	-0.478581	0.130880
H151	H	-0.059488	-1.138853	-0.529411
H152	H	0.273846	-0.805520	-0.196077
H153	H	0.607179	-0.472187	0.137256
H154	H	-0.000039	-0.542727	0.252319
H155	H	0.333294	-0.209394	0.585652
H156	H	0.666628	0.123939	0.918985
C157	C	-0.000024	-0.417872	0.338386
C158	C	0.333309	-0.084539	0.671720
C159	C	0.666643	0.248795	1.005053
C160	C	-0.000038	-0.370219	0.270916
C161	C	0.333296	-0.036886	0.604249
C162	C	0.666629	0.296447	0.937583
H163	H	-0.000011	-0.381706	0.389269
H164	H	0.333322	-0.048373	0.722603
H165	H	0.666655	0.284961	1.055936
H166	H	-0.059452	-0.448915	0.339031
H167	H	0.273882	-0.115582	0.672364
H168	H	0.607215	0.217751	1.005698
H169	H	0.059413	-0.455303	0.332622
H170	H	0.392746	-0.121969	0.665955
H171	H	0.726080	0.211364	0.999288
H172	H	-0.059479	-0.332793	0.276678
H173	H	0.273854	0.000541	0.610011
H174	H	0.607188	0.333874	0.943344
H175	H	0.059396	-0.339162	0.270272
H176	H	0.392730	-0.005828	0.603606
H177	H	0.726063	0.327505	0.936939
H178	H	-0.000031	-0.843293	-0.447125
H179	H	0.333302	-0.509960	-0.113792
H180	H	0.666635	-0.176627	0.219542
C181	C	-0.000051	-0.324563	-0.032594
C182	C	0.333282	0.008770	0.300739
C183	C	0.666616	0.342103	0.634072
C184	C	-0.000059	-0.411933	-0.047087
C185	C	0.333274	-0.078600	0.286246
C186	C	0.666607	0.254733	0.619580
H187	H	-0.000043	-0.301886	-0.084514
H188	H	0.333290	0.031447	0.248819
H189	H	0.666624	0.364781	0.582152
H190	H	-0.059478	-0.303081	0.001467
H191	H	0.273855	0.030253	0.334801
H192	H	0.607188	0.363586	0.668134
H193	H	0.059386	-0.309471	-0.004919
H194	H	0.392720	0.023862	0.328415
H195	H	0.726053	0.357195	0.661748
H196	H	-0.059501	-0.427025	-0.074757
H197	H	0.273832	-0.093692	0.258576
H198	H	0.607166	0.239641	0.591909
H199	H	0.059374	-0.433424	-0.081162
H200	H	0.392708	-0.100090	0.252171
H201	H	0.726041	0.233243	0.585505
C202	C	-0.000045	-0.757209	-0.322241
C203	C	0.333288	-0.423875	0.011092
C204	C	0.666622	-0.090542	0.344425
C205	C	-0.000043	-0.824685	-0.274596
C206	C	0.333290	-0.491352	0.058737
C207	C	0.666623	-0.158018	0.392070
H208	H	-0.000050	-0.706328	-0.286070
H209	H	0.333283	-0.372994	0.047263
H210	H	0.666617	-0.039661	0.380596
H211	H	0.059383	-0.762955	-0.359672
H212	H	0.392717	-0.429621	-0.026339
H213	H	0.726050	-0.096288	0.306995
H214	H	-0.059482	-0.756576	-0.353284
H215	H	0.273852	-0.423242	-0.019951
H216	H	0.607185	-0.089909	0.313383
H217	H	0.059397	-0.825322	-0.243558
H218	H	0.392731	-0.491988	0.089775
H219	H	0.726064	-0.158655	0.423108
H220	H	-0.059478	-0.818937	-0.237151
H221	H	0.273855	-0.485604	0.096182
H222	H	0.607189	-0.152271	0.429516
