data_functionalizedCrystal
_audit_creation_method	'MofGen! by Chris Wilmer'
_symmetry_space_group_name_H-M	'P1'
_symmetry_Int_Tables_number	1
_symmetry_cell_setting	triclinic
loop_
_symmetry_equiv_pos_as_xyz
  x,y,z
_cell_length_a	19.805407
_cell_length_b	19.120786
_cell_length_c	19.805399
_cell_angle_alpha	87.529549
_cell_angle_beta	89.983114
_cell_angle_gamma	92.465080
loop_
_atom_site_label
_atom_site_type_symbol
_atom_site_fract_x
_atom_site_fract_y
_atom_site_fract_z
Zn1	Zn	1.023227	-0.279637	-0.371216
Zn2	Zn	1.018320	-0.397099	-0.253195
Zn3	Zn	0.910046	-0.279659	-0.258039
Zn4	Zn	0.905180	-0.397059	-0.366344
O5	O	0.964193	-0.338363	-0.312199
O6	O	1.117292	-0.295226	-0.355572
O7	O	1.003941	-0.381546	-0.159120
O8	O	0.929150	-0.181366	-0.277119
O9	O	1.113688	-0.381525	-0.268863
O10	O	1.012303	-0.181349	-0.360269
O11	O	0.924392	-0.295264	-0.162679
O12	O	0.814684	-0.295225	-0.272395
O13	O	0.920856	-0.381456	-0.461708
O14	O	0.811109	-0.381478	-0.351965
O15	O	1.007585	-0.295187	-0.465287
O16	O	0.999222	-0.495384	-0.264138
O17	O	0.916099	-0.495354	-0.347268
C18	C	0.788338	-0.338350	-0.312177
C19	C	0.713105	-0.338361	-0.312183
C20	C	0.956618	-0.520855	-0.304664
C21	C	0.953440	-0.598925	-0.301463
C22	C	0.675915	-0.383341	-0.353543
C23	C	0.605226	-0.383342	-0.353553
C24	C	0.571730	-0.338367	-0.312198
C25	C	0.608926	-0.293382	-0.270837
C26	C	0.679613	-0.293378	-0.270832
C27	C	0.323852	-0.293398	-0.270859
C28	C	0.253159	-0.293407	-0.270866
C29	C	0.249465	-0.383362	-0.353580
C30	C	0.320152	-0.383357	-0.353574
C31	C	0.357342	-0.338371	-0.312216
C32	C	0.433991	-0.338369	-0.312207
C33	C	0.495082	-0.338371	-0.312203
C34	C	0.995208	-0.635534	-0.343286
C35	C	0.992218	-0.708889	-0.340280
C36	C	0.947464	-0.745635	-0.295446
C37	C	0.905691	-0.709021	-0.253621
C38	C	0.908678	-0.635667	-0.256631
C39	C	0.936279	-0.967121	-0.284193
C40	C	0.933297	-1.040480	-0.281184
C41	C	1.019823	-1.040343	-0.367844
C42	C	1.022809	-0.966988	-0.370847
C43	C	0.981034	-0.930380	-0.329025
C44	C	0.944408	-0.820616	-0.292371
C45	C	0.984086	-0.855400	-0.332104
C46	C	1.140736	-0.338377	-0.312220
C47	C	1.215967	-0.338383	-0.312230
C48	C	0.964225	-0.338315	-0.488743
C49	C	0.964239	-0.338294	-0.563976
C50	C	0.971816	-0.155159	-0.319778
C51	C	0.975065	-0.077089	-0.323007
C52	C	0.922830	-0.293362	-0.601173
C53	C	0.922840	-0.293349	-0.671862
C54	C	0.964262	-0.338263	-0.705353
C55	C	1.005673	-0.383200	-0.668151
C56	C	1.005659	-0.383217	-0.597463
C57	C	1.005729	-0.383134	-0.953227
C58	C	1.005741	-0.383113	-1.023920
C59	C	0.922910	-0.293266	-1.027626
C60	C	0.922896	-0.293283	-0.956938
C61	C	0.964304	-0.338222	-0.919742
C62	C	0.964291	-0.338237	-0.843093
C63	C	0.964279	-0.338245	-0.782001
C64	C	0.964203	-0.338361	-0.136343
C65	C	0.964329	-0.338184	-0.061118
H66	H	0.703182	-0.419967	-0.387216
H67	H	0.869248	-0.738945	-0.217120
O68	O	1.046057	-0.426647	-1.056487
C69	C	1.091437	-0.386651	-1.099045
H70	H	1.097918	-0.331339	-1.080029
H71	H	1.070622	-0.384212	-1.152716
C72	C	1.152410	-0.488912	-1.122074
C73	C	1.160375	-0.420977	-1.098715
H74	H	1.194933	-0.510086	-1.121874
H75	H	1.121836	-0.515858	-1.093404
H76	H	1.135062	-0.486869	-1.166798
H77	H	1.177714	-0.423021	-1.053989
H78	H	1.190954	-0.394031	-1.127377
H79	H	1.059252	-0.937071	-0.407354
H80	H	0.574949	-0.419969	-0.387231
O81	O	0.220589	-0.249816	-0.230611
C82	C	0.178023	-0.289754	-0.185195
H83	H	0.197034	-0.345066	-0.178647
H84	H	0.124355	-0.292208	-0.206016
C85	C	0.154994	-0.187415	-0.124347
C86	C	0.178347	-0.255348	-0.116300
H87	H	0.155191	-0.166190	-0.081851
H88	H	0.183670	-0.160507	-0.154947
H89	H	0.110273	-0.189469	-0.141700
H90	H	0.223071	-0.253293	-0.098956
H91	H	0.149679	-0.282255	-0.085696
H92	H	0.874665	-0.605861	-0.222575
O93	O	1.038591	-0.599764	-0.386874
C94	C	1.001752	-0.557353	-0.432305
H95	H	0.950919	-0.546425	-0.408832
H96	H	0.993131	-0.585599	-0.481298
C97	C	1.104256	-0.501056	-0.476288
C98	C	1.041825	-0.487628	-0.447455
H99	H	1.128975	-0.458047	-0.485637
H100	H	1.129076	-0.529631	-0.445683
H101	H	1.097063	-0.524595	-0.517112
H102	H	1.049018	-0.464097	-0.406628
H103	H	1.017007	-0.459048	-0.478055
O104	O	0.895683	-0.931675	-0.243491
C105	C	0.855536	-0.979840	-0.203284
H106	H	0.881135	-1.032106	-0.198830
H107	H	0.803792	-0.987670	-0.227694
C108	C	0.815559	-0.887079	-0.137877
C109	C	0.847002	-0.951271	-0.132401
H110	H	0.810292	-0.869456	-0.094154
H111	H	0.842604	-0.854628	-0.164967
H112	H	0.772442	-0.893613	-0.158221
H113	H	0.890121	-0.944735	-0.112066
H114	H	0.819964	-0.983720	-0.105306
H115	H	0.907971	-0.850542	-0.255865
H116	H	1.020523	-0.825480	-0.368610
H117	H	0.219177	-0.419989	-0.387258
H118	H	1.053833	-1.070157	-0.401894
O119	O	0.882528	-0.249710	-0.568749
C120	C	0.845993	-0.210039	-0.616742
H121	H	0.842465	-0.238797	-0.665939
H122	H	0.872998	-0.156693	-0.626471
C123	C	0.778703	-0.164599	-0.529143
C124	C	0.774365	-0.199923	-0.589566
H125	H	0.734521	-0.158356	-0.512379
H126	H	0.803319	-0.191324	-0.496808
H127	H	0.801210	-0.120148	-0.537259
H128	H	0.751866	-0.244377	-0.581448
H129	H	0.749744	-0.173205	-0.621899
H130	H	0.347422	-0.419983	-0.387247
O131	O	0.359868	-0.249677	-0.230623
C132	C	0.315143	-0.209971	-0.194138
H133	H	0.263564	-0.238747	-0.190561
H134	H	0.309839	-0.156663	-0.221215
C135	C	0.406478	-0.164396	-0.126931
C136	C	0.343129	-0.199741	-0.122534
H137	H	0.423742	-0.158082	-0.082764
H138	H	0.436611	-0.191143	-0.151513
H139	H	0.402050	-0.119976	-0.149499
H140	H	0.347560	-0.244163	-0.099975
H141	H	0.312997	-0.173001	-0.097946
H142	H	0.889118	-0.256764	-0.702145
H143	H	0.889168	-0.256706	-0.929674
H144	H	1.039396	-0.419774	-0.695425
H145	H	1.039383	-0.419799	-0.567178
O146	O	0.882584	-0.249651	-1.063683
C147	C	0.814482	-0.265010	-1.045775
H148	H	0.811949	-0.292024	-0.993333
H149	H	0.790186	-0.301108	-1.084060
C150	C	0.779446	-0.163352	-1.109745
C151	C	0.776334	-0.196526	-1.045333
H152	H	0.755913	-0.121109	-1.109475
H153	H	0.825327	-0.153006	-1.121813
H154	H	0.759200	-0.193442	-1.141643
H155	H	0.796588	-0.166440	-1.013438
H156	H	0.730455	-0.206866	-1.033259
O157	O	0.576460	-0.249727	-0.230571
C158	C	0.593061	-0.264995	-0.162454
H159	H	0.643266	-0.291989	-0.159889
H160	H	0.551774	-0.301080	-0.138113
C161	C	0.537489	-0.163311	-0.127545
C162	C	0.599154	-0.196460	-0.124394
H163	H	0.541244	-0.121036	-0.104066
H164	H	0.526302	-0.153025	-0.173436
H165	H	0.503089	-0.193389	-0.107262
H166	H	0.633551	-0.166385	-0.144684
H167	H	0.610347	-0.206739	-0.078505
O168	O	1.032871	-0.744342	-0.380922
C169	C	1.073009	-0.696180	-0.421141
H170	H	1.077485	-0.643904	-0.395568
H171	H	1.048524	-0.688374	-0.472853
C172	C	1.138386	-0.788938	-0.461178
C173	C	1.143888	-0.724734	-0.429765
H174	H	1.182107	-0.806552	-0.466500
H175	H	1.111343	-0.821387	-0.434083
H176	H	1.117979	-0.782424	-0.504267
H177	H	1.164287	-0.731250	-0.386673
H178	H	1.170936	-0.692287	-0.456852
H179	H	1.039438	-0.419734	-0.922950
H180	H	0.709893	-0.256747	-0.237156
H181	H	0.896849	-1.070396	-0.244675
