data_functionalizedCrystal
_audit_creation_method	'MofGen! by Chris Wilmer'
_symmetry_space_group_name_H-M	'P1'
_symmetry_Int_Tables_number	1
_symmetry_cell_setting	triclinic
loop_
_symmetry_equiv_pos_as_xyz
  x,y,z
_cell_length_a	8.559649
_cell_length_b	12.996460
_cell_length_c	8.559649
_cell_angle_alpha	89.995421
_cell_angle_beta	110.221336
_cell_angle_gamma	90.005498
loop_
_atom_site_label
_atom_site_type_symbol
_atom_site_fract_x
_atom_site_fract_y
_atom_site_fract_z
O1	O	2.126883	0.085551	0.055032
O2	O	2.460217	0.418884	0.388366
O3	O	2.793550	0.752217	0.721699
O4	O	1.651398	0.085555	-0.028749
O5	O	1.984732	0.418888	0.304584
O6	O	2.318065	0.752221	0.637918
O7	O	1.931031	0.085551	0.250884
O8	O	2.264365	0.418885	0.584217
O9	O	2.597698	0.752218	0.917551
O10	O	1.847250	0.085554	-0.224601
O11	O	2.180584	0.418887	0.108733
O12	O	2.513917	0.752221	0.442066
O13	O	1.931007	-0.085583	0.250895
O14	O	2.264341	0.247751	0.584228
O15	O	2.597674	0.581084	0.917561
O16	O	1.651374	-0.085579	-0.028738
O17	O	1.984708	0.247754	0.304595
O18	O	2.318041	0.581088	0.637928
O19	O	2.126859	-0.085583	0.055043
O20	O	2.460192	0.247750	0.388376
O21	O	2.793526	0.581084	0.721710
Cu22	Cu	1.889114	-0.101207	0.013153
Cu23	Cu	2.222448	0.232126	0.346487
Cu24	Cu	2.555781	0.565460	0.679820
Cu25	Cu	1.889143	0.101179	0.013141
Cu26	Cu	2.222476	0.434512	0.346474
Cu27	Cu	2.555810	0.767845	0.679807
O28	O	1.847226	-0.085580	-0.224590
O29	O	2.180559	0.247754	0.108743
O30	O	2.513893	0.581087	0.442076
C31	C	1.591077	-0.000012	-0.035093
C32	C	1.924411	0.333322	0.298241
C33	C	2.257744	0.666655	0.631574
C34	C	1.411378	-0.000010	-0.053992
C35	C	1.744711	0.333323	0.279341
C36	C	2.078045	0.666657	0.612675
N37	N	1.889106	-0.243554	0.013164
N38	N	2.222440	0.089779	0.346498
N39	N	2.555773	0.423113	0.679831
C40	C	1.889141	-0.663368	0.013139
C41	C	2.222474	-0.330035	0.346472
C42	C	2.555807	0.003298	0.679805
C43	C	1.889126	-0.546563	0.013140
C44	C	2.222459	-0.213230	0.346473
C45	C	2.555792	0.120103	0.679807
C46	C	1.889124	-0.453465	0.013150
C47	C	2.222457	-0.120132	0.346484
C48	C	2.555791	0.213202	0.679817
C49	C	1.889108	-0.336652	0.013154
C50	C	2.222441	-0.003319	0.346487
C51	C	2.555774	0.330014	0.679821
C52	C	2.187180	-0.000014	0.061387
C53	C	2.520514	0.333319	0.394720
C54	C	2.853847	0.666652	0.728053
C55	C	2.366879	-0.000009	0.080286
C56	C	2.700213	0.333324	0.413619
C57	C	3.033546	0.666657	0.746953
C58	C	1.937369	-0.000014	0.311198
C59	C	2.270702	0.333320	0.644532
C60	C	2.604035	0.666653	0.977865
C61	C	1.956268	-0.000008	0.490898
C62	C	2.289601	0.333325	0.824231
C63	C	2.622934	0.666658	1.157564
N64	N	1.889166	0.243526	0.013144
N65	N	2.222499	0.576859	0.346477
N66	N	2.555832	0.910192	0.679811
C67	C	1.840889	-0.000012	-0.284904
C68	C	2.174222	0.333321	0.048429
C69	C	2.507556	0.666654	0.381762
C70	C	1.821990	-0.000011	-0.464604
C71	C	2.155323	0.333322	-0.131270
C72	C	2.488657	0.666655	0.202063
H73	H	1.466258	-0.000005	0.209705
H74	H	1.799591	0.333328	0.543039
H75	H	2.132924	0.666662	0.876372
H76	H	1.311990	-0.000004	-0.183420
H77	H	1.645323	0.333330	0.149913
H78	H	1.978656	0.666663	0.483247
H79	H	1.692570	-0.000013	0.436018
H80	H	2.025904	0.333320	0.769351
H81	H	2.359237	0.666653	1.102685
F82	F	2.125442	-0.000022	0.620799
F83	F	2.458775	0.333312	0.954132
F84	F	2.792109	0.666645	1.287466
