data_functionalizedCrystal
_audit_creation_method	'MofGen! by Chris Wilmer'
_symmetry_space_group_name_H-M	'P1'
_symmetry_Int_Tables_number	1
_symmetry_cell_setting	triclinic
loop_
_symmetry_equiv_pos_as_xyz
  x,y,z
_cell_length_a	12.811457
_cell_length_b	11.792241
_cell_length_c	11.892095
_cell_angle_alpha	93.915739
_cell_angle_beta	91.498327
_cell_angle_gamma	84.118185
loop_
_atom_site_label
_atom_site_type_symbol
_atom_site_fract_x
_atom_site_fract_y
_atom_site_fract_z
O1	O	1.390087	0.156591	0.048503
O2	O	1.086807	0.170827	0.017409
O3	O	1.245806	-0.001417	0.033718
O4	O	1.231088	0.328835	0.032194
O5	O	1.232549	0.012922	0.220366
O6	O	1.073550	0.185166	0.204057
O7	O	1.376830	0.170930	0.235150
Zn8	Zn	1.223085	0.180325	0.249238
Zn9	Zn	1.240552	0.161432	0.003322
O10	O	1.217830	0.343174	0.218841
C11	C	1.041352	0.176760	0.106752
C12	C	0.925661	0.173060	0.094892
C13	C	0.693812	0.181720	0.276110
C14	C	0.585110	0.178244	0.264971
C15	C	0.599553	0.162623	0.061477
C16	C	0.708256	0.166099	0.072615
C17	C	0.755380	0.175649	0.179935
C18	C	0.864084	0.179134	0.191073
C19	C	0.878526	0.163505	-0.012420
C20	C	0.769824	0.160028	-0.023559
C21	C	1.238253	-0.036544	0.126947
C22	C	1.235485	-0.162574	0.126662
C23	C	1.230398	-0.393318	0.126122
C24	C	1.233225	-0.264915	0.126422
C25	C	1.422285	0.164997	0.145805
C26	C	1.537976	0.168697	0.157658
C27	C	1.225384	0.378301	0.125610
C28	C	1.228152	0.504331	0.125887
N29	N	1.211172	0.193218	0.417070
N30	N	1.252473	0.148531	-0.164510
C31	C	1.335369	0.058751	0.666457
C32	C	1.327050	0.067771	0.783946
C33	C	1.186209	0.220273	0.769537
C34	C	1.194528	0.211252	0.652049
C35	C	1.269112	0.130490	0.600513
C36	C	1.277436	0.121476	0.483023
C37	C	1.136591	0.273971	0.468616
C38	C	1.128271	0.282991	0.586105
H39	H	0.928667	0.158569	-0.090733
O40	O	1.349771	0.042851	0.433023
C41	C	1.412255	-0.156484	0.403348
C42	C	1.330260	-0.067546	0.459994
H43	H	1.396523	-0.245758	0.425153
H44	H	1.406849	-0.150745	0.308030
H45	H	1.494154	-0.138775	0.434992
H46	H	1.248324	-0.085198	0.428442
H47	H	1.335759	-0.073306	0.555306
H48	H	0.732180	0.189511	0.363494
O49	O	1.113663	0.298733	0.819424
C50	C	0.974862	0.449062	0.792751
C51	C	1.056964	0.360246	0.736108
H52	H	0.929013	0.498836	0.725418
H53	H	0.918574	0.403625	0.842354
H54	H	1.016278	0.510535	0.852435
H55	H	1.015638	0.298748	0.676372
H56	H	1.113246	0.405760	0.686577
O57	O	0.910002	0.188253	0.295260
C58	C	1.035550	0.103078	0.427109
C59	C	0.983653	0.092626	0.309074
H60	H	1.095091	0.025763	0.438324
H61	H	1.077068	0.184309	0.436512
H62	H	0.972844	0.106868	0.493912
H63	H	1.046293	0.088788	0.242200
H64	H	0.942111	0.011408	0.299768
H65	H	1.381002	0.009353	0.837635
H66	H	1.067543	0.348744	0.628078
O67	O	0.525449	0.184207	0.358511
C68	C	0.522607	0.199997	0.561526
C69	C	0.590292	0.193283	0.455682
H70	H	0.575007	0.207312	0.640116
H71	H	0.462288	0.278049	0.560549
H72	H	0.480415	0.119509	0.562264
H73	H	0.632552	0.273713	0.454875
H74	H	0.650548	0.115179	0.456700
H75	H	1.082642	0.332389	0.414911
H76	H	0.561167	0.154828	-0.025898
H77	H	0.731440	0.152247	-0.110936
O78	O	1.407846	-0.019787	0.616567
C79	C	1.546717	-0.170037	0.643258
C80	C	1.464667	-0.081161	0.699900
H81	H	1.592694	-0.219665	0.710609
H82	H	1.505360	-0.231636	0.583657
H83	H	1.602894	-0.124541	0.593568
H84	H	1.408467	-0.126558	0.749649
H85	H	1.506094	-0.019567	0.759437
