data_functionalizedCrystal
_audit_creation_method	'MofGen! by Chris Wilmer'
_symmetry_space_group_name_H-M	'P1'
_symmetry_Int_Tables_number	1
_symmetry_cell_setting	triclinic
loop_
_symmetry_equiv_pos_as_xyz
  x,y,z
_cell_length_a	12.759395
_cell_length_b	13.897449
_cell_length_c	12.759380
_cell_angle_alpha	90.055074
_cell_angle_beta	89.958742
_cell_angle_gamma	89.997535
loop_
_atom_site_label
_atom_site_type_symbol
_atom_site_fract_x
_atom_site_fract_y
_atom_site_fract_z
Zn1	Zn	1.606583	0.383670	-0.594027
Zn2	Zn	1.606444	0.545085	-0.418369
Zn3	Zn	1.430814	0.383806	-0.418367
Zn4	Zn	1.430911	0.544924	-0.594012
O5	O	1.518688	0.464371	-0.506194
O6	O	1.753586	0.405092	-0.570733
O7	O	1.583048	0.523816	-0.271347
O8	O	1.454149	0.248806	-0.441674
O9	O	1.753483	0.523684	-0.441678
O10	O	1.583285	0.248706	-0.570731
O11	O	1.454013	0.405324	-0.271346
O12	O	1.283806	0.405168	-0.441659
O13	O	1.454313	0.523409	-0.741035
O14	O	1.283877	0.523541	-0.570705
O15	O	1.583378	0.404936	-0.741046
O16	O	1.583141	0.680046	-0.441663
O17	O	1.454178	0.679927	-0.570707
C18	C	1.245721	0.464352	-0.506181
C19	C	1.128944	0.464367	-0.506200
C20	C	1.129031	0.341077	-0.640803
C21	C	1.074214	0.279444	-0.708112
C22	C	0.964493	0.279461	-0.708125
C23	C	0.909586	0.341116	-0.640819
C24	C	0.964403	0.402749	-0.573510
C25	C	1.074127	0.402727	-0.573506
C26	C	0.964315	0.526033	-0.438904
C27	C	1.074037	0.526022	-0.438894
C28	C	0.909408	0.587688	-0.371597
C29	C	0.964225	0.649328	-0.304292
C30	C	1.073954	0.649309	-0.304282
C31	C	1.128854	0.587655	-0.371585
C32	C	1.518722	0.212778	-0.506204
C33	C	1.518736	0.105564	-0.506209
C34	C	1.518768	-0.090731	-0.506242
C35	C	1.518753	0.018502	-0.506227
C36	C	1.792721	0.464391	-0.506207
C37	C	1.909498	0.464400	-0.506213
C38	C	1.518683	0.714986	-0.506206
C39	C	1.518777	0.822199	-0.506247
C40	C	1.518565	0.464533	-0.233226
C41	C	1.518691	0.464360	-0.116450
C42	C	1.518872	0.464139	-0.780228
C43	C	1.518950	0.464040	-0.897005
C44	C	1.383346	0.341882	-0.116531
C45	C	1.315733	0.280566	-0.061710
C46	C	1.315857	0.280407	0.048011
C47	C	1.383602	0.341568	0.102915
C48	C	1.451214	0.402884	0.048094
C49	C	1.451082	0.403038	-0.061629
C50	C	1.586563	0.525356	0.048175
C51	C	1.586436	0.525521	-0.061546
C52	C	1.654308	0.586516	0.103079
C53	C	1.721917	0.647838	0.048259
C54	C	1.721790	0.647996	-0.061469
C55	C	1.654048	0.586836	-0.116366
H56	H	0.919511	0.699518	-0.249492
C57	C	1.134244	0.717111	-0.230245
H58	H	1.085826	0.753834	-0.190173
H59	H	1.177010	0.680182	-0.184532
H60	H	1.177079	0.759165	-0.270363
C61	C	1.249544	0.587632	-0.371578
H62	H	1.274390	0.542083	-0.421296
H63	H	1.274395	0.649886	-0.389626
H64	H	1.274308	0.570892	-0.303806
C65	C	1.134608	0.211630	-0.782148
H66	H	1.086245	0.174922	-0.822231
H67	H	1.177453	0.248553	-0.827852
H68	H	1.177371	0.169562	-0.742029
H69	H	1.383234	0.342010	-0.205871
H70	H	1.776853	0.697922	-0.106097
C71	C	1.241219	0.213295	-0.122105
H72	H	1.250819	0.222174	-0.195303
H73	H	1.256102	0.148358	-0.104329
H74	H	1.170759	0.227865	-0.103951
C75	C	1.653842	0.587074	-0.237056
H76	H	1.703785	0.632372	-0.261845
H77	H	1.671464	0.524761	-0.262152
H78	H	1.586123	0.604270	-0.261628
H79	H	1.260806	0.230474	0.092645
C80	C	1.383742	0.341387	0.223605
H81	H	1.333771	0.296113	0.248390
H82	H	1.451437	0.324222	0.248250
H83	H	1.366084	0.403720	0.248632
H84	H	1.777074	0.697626	0.092970
H85	H	0.820067	0.587695	-0.371610
H86	H	0.919861	0.229268	-0.762928
C87	C	1.654443	0.586344	0.223769
H88	H	1.604467	0.541075	0.248557
H89	H	1.722135	0.569176	0.248421
H90	H	1.636790	0.648680	0.248788
H91	H	0.820244	0.341117	-0.640827
C92	C	1.249722	0.341066	-0.640802
H93	H	1.274571	0.295520	-0.690523
H94	H	1.274560	0.403322	-0.658851
H95	H	1.274493	0.324328	-0.573032
