data_functionalizedCrystal
_audit_creation_method	'MofGen! by Chris Wilmer'
_symmetry_space_group_name_H-M	'P1'
_symmetry_Int_Tables_number	1
_symmetry_cell_setting	triclinic
loop_
_symmetry_equiv_pos_as_xyz
  x,y,z
_cell_length_a	9.730217
_cell_length_b	16.109301
_cell_length_c	16.109295
_cell_angle_alpha	83.460334
_cell_angle_beta	89.999867
_cell_angle_gamma	90.001310
loop_
_atom_site_label
_atom_site_type_symbol
_atom_site_fract_x
_atom_site_fract_y
_atom_site_fract_z
O1	O	0.114193	-1.103126	-0.106866
O2	O	0.114214	-0.861064	-0.120165
O3	O	0.114205	-0.988747	0.007516
O4	O	0.114202	-0.975443	-0.234547
O5	O	-0.114375	-0.988743	0.007517
O6	O	-0.114366	-0.861060	-0.120164
O7	O	-0.114387	-1.103122	-0.106865
Zn8	Zn	-0.150668	-0.982091	-0.113514
Zn9	Zn	0.150496	-0.982096	-0.113516
O10	O	-0.114378	-0.975439	-0.234546
C11	C	-0.000073	-0.830087	-0.119626
C12	C	-0.000065	-0.737792	-0.118011
N13	N	-0.356205	-0.982093	-0.113513
C14	C	-0.000082	-0.988207	0.038491
C15	C	-0.000071	-0.986594	0.130787
C16	C	-0.356204	-1.095202	-0.000484
C17	C	-0.428143	-1.151763	0.056028
C18	C	-0.572023	-1.151771	0.056029
C19	C	-0.643966	-1.095212	-0.000487
C20	C	-0.572027	-1.038651	-0.056999
C21	C	-0.428144	-1.038651	-0.056995
C22	C	-0.572029	-0.925539	-0.170023
C23	C	-0.428149	-0.925534	-0.170029
C24	C	-0.643972	-0.868980	-0.226539
C25	C	-0.572033	-0.812422	-0.283056
C26	C	-0.428145	-0.812417	-0.283055
C27	C	-0.356210	-0.868973	-0.226541
N28	N	0.356032	-0.982100	-0.113511
C29	C	-0.000096	-1.134099	-0.107404
C30	C	-0.000096	-1.226394	-0.109019
C31	C	-0.000082	-0.515518	-0.190019
C32	C	-0.000090	-0.428798	-0.188495
C33	C	-0.000083	-0.448675	-0.037006
C34	C	-0.000084	-0.535394	-0.038531
C35	C	-0.000076	-0.568813	-0.115040
C36	C	-0.000084	-0.395374	-0.111991
C37	C	-0.000094	-0.301348	-0.110338
C38	C	-0.000069	-0.662845	-0.116693
C39	C	-0.000027	-1.058606	0.353060
C40	C	-0.000004	-1.057084	0.439780
C41	C	0.000002	-0.905595	0.419906
C42	C	-0.000011	-0.907118	0.333187
C43	C	-0.000033	-0.983626	0.299766
C44	C	0.000003	-0.980580	0.473206
C45	C	0.000028	-0.978929	0.567232
C46	C	-0.000055	-0.985277	0.205734
C47	C	-0.000055	-0.975984	0.734479
C48	C	0.000042	-0.977612	0.642186
H49	H	-0.239049	-1.095208	-0.000485
H50	H	-0.000098	-0.421454	0.025285
Cl51	Cl	-0.337697	-1.222860	0.127077
Cl52	Cl	0.000028	-0.809418	0.461927
H53	H	-0.630596	-1.197824	0.102049
H54	H	-0.000084	-0.578789	0.022530
Cl55	Cl	-0.000080	-0.557527	-0.286201
Cl56	Cl	0.000005	-1.151349	0.506775
H57	H	-0.000012	-0.846056	0.289793
Cl58	Cl	-0.000099	-0.361802	-0.282759
H59	H	-0.761127	-0.868986	-0.226533
Cl60	Cl	-0.000051	-1.154787	0.311048
H61	H	-0.761121	-1.095215	-0.000476
H62	H	-0.630619	-0.766372	-0.329064
H63	H	-0.369579	-0.766355	-0.329071
H64	H	-0.239055	-0.868977	-0.226538
