data_functionalizedCrystal
_audit_creation_method	'MofGen! by Chris Wilmer'
_symmetry_space_group_name_H-M	'P1'
_symmetry_Int_Tables_number	1
_symmetry_cell_setting	triclinic
loop_
_symmetry_equiv_pos_as_xyz
  x,y,z
_cell_length_a	21.395362
_cell_length_b	15.297327
_cell_length_c	21.395355
_cell_angle_alpha	99.659679
_cell_angle_beta	89.956060
_cell_angle_gamma	99.725883
loop_
_atom_site_label
_atom_site_type_symbol
_atom_site_fract_x
_atom_site_fract_y
_atom_site_fract_z
Zn1	Zn	0.914743	-0.358918	-0.397693
Zn2	Zn	1.414743	0.141082	0.102307
Zn3	Zn	0.896524	-0.509774	-0.311034
Zn4	Zn	1.396524	-0.009774	0.188966
Zn5	Zn	0.809953	-0.358960	-0.292899
Zn6	Zn	1.309953	0.141040	0.207101
Zn7	Zn	0.791803	-0.509792	-0.415741
Zn8	Zn	1.291803	-0.009792	0.084259
O9	O	0.853256	-0.434361	-0.354342
O10	O	1.353256	0.065639	0.145658
O11	O	1.000007	-0.378904	-0.386234
O12	O	1.500007	0.121096	0.113766
O13	O	0.885011	-0.489778	-0.220951
O14	O	1.385011	0.010222	0.279049
O15	O	0.839075	-0.232697	-0.291658
O16	O	1.339075	0.267303	0.208342
O17	O	0.986621	-0.489737	-0.322566
O18	O	1.486621	0.010263	0.177434
O19	O	0.916063	-0.232666	-0.368649
O20	O	1.416063	0.267334	0.131351
O21	O	0.821408	-0.378975	-0.207628
O22	O	1.321408	0.121025	0.292372
O23	O	0.719864	-0.378993	-0.309158
O24	O	1.219864	0.121007	0.190842
O25	O	0.808140	-0.489769	-0.501023
O26	O	1.308140	0.010231	-0.001023
O27	O	0.706530	-0.489810	-0.399409
O28	O	1.206530	0.010190	0.100591
O29	O	0.898464	-0.378922	-0.487764
O30	O	1.398464	0.121078	0.012236
O31	O	0.867411	-0.636034	-0.340066
O32	O	1.367411	-0.136034	0.159934
O33	O	0.790473	-0.636048	-0.416993
O34	O	1.290473	-0.136048	0.083007
C35	C	0.690462	-0.434409	-0.354275
C36	C	1.190462	0.065591	0.145725
C37	C	0.620816	-0.434451	-0.354263
C38	C	1.120816	0.065549	0.145737
C39	C	0.825013	-0.668778	-0.382470
C40	C	1.325013	-0.168778	0.117530
C41	C	0.812988	-0.769063	-0.394524
C42	C	1.312988	-0.269063	0.105476
C43	C	0.581167	-0.492229	-0.401206
C44	C	1.081167	0.007771	0.098794
C45	C	0.515734	-0.492207	-0.401232
C46	C	1.015734	0.007793	0.098768
C47	C	0.489952	-0.434416	-0.354304
C48	C	0.989952	0.065584	0.145696
C49	C	0.529610	-0.376627	-0.307357
C50	C	1.029610	0.123373	0.192643
C51	C	0.595042	-0.376644	-0.307337
C52	C	1.095042	0.123356	0.192663
C53	C	0.387100	-0.427148	-0.297026
C54	C	0.887100	0.072852	0.202974
C55	C	0.321669	-0.427137	-0.297046
C56	C	0.821669	0.072863	0.202954
C57	C	0.288138	-0.434357	-0.354366
C58	C	0.788138	0.065643	0.145634
C59	C	0.320045	-0.441608	-0.411670
C60	C	0.820045	0.058392	0.088330
C61	C	0.385477	-0.441625	-0.411650
C62	C	0.885477	0.058375	0.088350
C63	C	0.419003	-0.434390	-0.354321
C64	C	0.919003	0.065610	0.145679
C65	C	0.177539	-0.492115	-0.401340
C66	C	0.677539	0.007885	0.098660
C67	C	0.112106	-0.492086	-0.401366
C68	C	0.612106	0.007914	0.098634
C69	C	0.125983	-0.376510	-0.307486
C70	C	0.625983	0.123490	0.192514
C71	C	0.191415	-0.376534	-0.307465
C72	C	0.691415	0.123466	0.192535
C73	C	0.217189	-0.434341	-0.354392
C74	C	0.717189	0.065659	0.145608
C75	C	0.939459	-1.051594	-0.268402
C76	C	1.439459	-0.551594	0.231598
C77	C	0.950757	-0.957372	-0.257073
C78	C	1.450757	-0.457372	0.242927
C79	C	0.916316	-0.910290	-0.291435
C80	C	1.416316	-0.410290	0.208565
C81	C	0.870575	-0.957440	-0.337127
C82	C	1.370575	-0.457440	0.162873
C83	C	0.859272	-1.051671	-0.348454
C84	C	1.359272	-0.551671	0.151546
C85	C	0.836129	-0.910367	-0.371487
C86	C	1.336129	-0.410367	0.128513
C87	C	0.790387	-0.957517	-0.417179
C88	C	1.290387	-0.457517	0.082821
C89	C	0.779087	-1.051739	-0.428503
C90	C	1.279087	-0.551739	0.071497
C91	C	0.813528	-1.098821	-0.394142
C92	C	1.313528	-0.598821	0.105858
C93	C	0.847431	-0.816135	-0.360160
C94	C	1.347431	-0.316135	0.139840
C95	C	0.767244	-0.816212	-0.440212
C96	C	1.267244	-0.316212	0.059788
C97	C	0.755946	-0.910435	-0.451540
C98	C	1.255946	-0.410435	0.048460
C99	C	1.016685	-0.434314	-0.354409
C100	C	1.516685	0.065686	0.145591
C101	C	1.086328	-0.434294	-0.354438
C102	C	1.586328	0.065706	0.145562
C103	C	0.853310	-0.434343	-0.517763
C104	C	1.353310	0.065657	-0.017763
C105	C	0.853333	-0.434335	-0.587403
C106	C	1.353333	0.065665	-0.087403
C107	C	0.881626	-0.199029	-0.326118
C108	C	1.381626	0.300971	0.173882
C109	C	0.893716	-0.098744	-0.314090
C110	C	1.393716	0.401256	0.185910
C111	C	0.900363	-0.376615	-0.613213
C112	C	1.400363	0.123385	-0.113213
C113	C	0.900367	-0.376576	-0.678643
C114	C	1.400367	0.123424	-0.178643
C115	C	0.853345	-0.434273	-0.718264
C116	C	1.353345	0.065727	-0.218264
C117	C	0.806307	-0.491998	-0.692447
C118	C	1.306307	0.008002	-0.192447
C119	C	0.806301	-0.492029	-0.627017
C120	C	1.306301	0.007971	-0.127017
C121	C	0.838610	-0.515514	-0.831685
C122	C	1.338610	-0.015514	-0.331685
C123	C	0.838620	-0.515485	-0.897115
C124	C	1.338620	-0.015485	-0.397115
C125	C	0.853361	-0.434178	-0.920074
C126	C	1.353361	0.065822	-0.420074
C127	C	0.868104	-0.352898	-0.877594
C128	C	1.368104	0.147102	-0.377594
C129	C	0.868098	-0.352928	-0.812164
C130	C	1.368098	0.147072	-0.312164
C131	C	0.853346	-0.434246	-0.789213
C132	C	1.353346	0.065754	-0.289213
C133	C	0.900398	-0.376411	-1.016830
C134	C	1.400398	0.123589	-0.516830
C135	C	0.900397	-0.376370	-1.082262
C136	C	1.400397	0.123630	-0.582262
C137	C	0.806339	-0.491801	-1.096065
C138	C	1.306339	0.008199	-0.596065
C139	C	0.806338	-0.491833	-1.030634
C140	C	1.306338	0.008167	-0.530634
C141	C	0.853370	-0.434139	-0.991020
C142	C	1.353370	0.065861	-0.491020
C143	C	0.853246	-0.434314	-0.191548
C144	C	1.353246	0.065686	0.308452
C145	C	0.853374	-0.434068	-0.121878
C146	C	1.353374	0.065932	0.378122
H147	H	0.483445	-0.539257	-0.439461
H148	H	0.983445	-0.039257	0.060539
H149	H	0.411453	-0.447526	-0.458309
H150	H	0.911453	0.052474	0.041691
N151	N	0.755578	-0.554299	-0.599179
N152	N	1.255578	-0.054299	-0.099179
H153	H	0.762712	-0.545566	-0.551718
H154	H	1.262712	-0.045566	-0.051718
H155	H	0.712522	-0.540264	-0.608894
H156	H	1.212522	-0.040264	-0.108894
N157	N	0.608965	-0.554575	-0.451818
N158	N	1.108965	-0.054575	0.048182
H159	H	0.573915	-0.591174	-0.481561
H160	H	1.073915	-0.091174	0.018439
H161	H	0.640575	-0.517921	-0.476450
H162	H	1.140575	-0.017921	0.023550
N163	N	0.951100	-0.314321	-0.706486
N164	N	1.451100	0.185679	-0.206486
H165	H	0.975713	-0.350975	-0.738057
H166	H	1.475713	0.149025	-0.238057
H167	H	0.930639	-0.272512	-0.728561
H168	H	1.430639	0.227488	-0.228561
N169	N	0.884000	-0.265271	-0.766347
N170	N	1.384000	0.234729	-0.266347
H171	H	0.893341	-0.213755	-0.790814
H172	H	1.393341	0.286245	-0.290814
H173	H	0.846832	-0.256917	-0.738166
H174	H	1.346832	0.243083	-0.238166
H175	H	0.295694	-0.421238	-0.250386
H176	H	0.795694	0.078762	0.249614
N177	N	0.069337	-0.554414	-0.451997
N178	N	0.569337	-0.054414	0.048003
H179	H	0.046645	-0.517809	-0.476697
H180	H	0.546645	-0.017809	0.023303
H181	H	0.095638	-0.591023	-0.481673
H182	H	0.595638	-0.091023	0.018327
N183	N	0.822720	-0.603150	-0.942925
N184	N	1.322720	-0.103150	-0.442925
H185	H	0.784261	-0.601929	-0.969901
H186	H	1.284261	-0.101929	-0.469901
H187	H	0.859908	-0.611543	-0.971071
H188	H	1.359908	-0.111543	-0.471071
N189	N	0.098188	-0.314179	-0.256866
N190	N	0.598188	0.185821	0.243134
H191	H	0.117373	-0.249738	-0.258935
H192	H	0.617373	0.250262	0.241065
H193	H	0.050722	-0.323008	-0.264029
H194	H	0.550722	0.176992	0.235971
H195	H	0.880108	-0.286690	-0.896285
H196	H	1.380108	0.213310	-0.396285
N197	N	0.283891	-0.449402	-0.473501
N198	N	0.783891	0.050598	0.026499
H199	H	0.237599	-0.448286	-0.464821
H200	H	0.737599	0.051714	0.035179
H201	H	0.301659	-0.397290	-0.495315
H202	H	0.801659	0.102710	0.004685
N203	N	0.951129	-0.314105	-1.110092
N204	N	1.451129	0.185895	-0.610092
H205	H	0.975746	-0.350748	-1.141666
H206	H	1.475746	0.149252	-0.641666
H207	H	0.930667	-0.272291	-1.132160
H208	H	1.430667	0.227709	-0.632160
N209	N	0.822718	-0.603218	-0.806929
N210	N	1.322718	-0.103218	-0.306929
H211	H	0.784251	-0.602039	-0.779609
H212	H	1.284251	-0.102039	-0.279609
H213	H	0.813420	-0.654651	-0.843801
H214	H	1.313420	-0.154651	-0.343801
H215	H	0.508615	-0.329571	-0.269149
H216	H	1.008615	0.170429	0.230851
H217	H	0.884674	-0.777754	-0.322957
H218	H	1.384674	-0.277754	0.177043
N219	N	0.637813	-0.314317	-0.256707
N220	N	1.137813	0.185683	0.243293
H221	H	0.611555	-0.277697	-0.226984
H222	H	1.111555	0.222303	0.273016
H223	H	0.660500	-0.350983	-0.232058
H224	H	1.160500	0.149017	0.267942
N225	N	0.951120	-0.314186	-0.974098
N226	N	1.451120	0.185814	-0.474098
H227	H	0.980912	-0.277607	-1.000379
H228	H	1.480912	0.222393	-0.500379
H229	H	0.930647	-0.272455	-0.941916
H230	H	1.430647	0.227545	-0.441916
N231	N	0.706608	-0.961300	-0.500815
N232	N	1.206608	-0.461300	-0.000815
H233	H	0.663803	-0.944981	-0.489067
H234	H	1.163803	-0.444981	0.010933
H235	H	0.718343	-0.944842	-0.543600
H236	H	1.218343	-0.444842	-0.043600
H237	H	0.768044	-0.538841	-1.009621
H238	H	1.268044	-0.038841	-0.509621
N239	N	0.730096	-0.765436	-0.477275
N240	N	1.230096	-0.265436	0.022725
H241	H	0.737842	-0.781789	-0.524020
H242	H	1.237842	-0.281789	-0.024020
H243	H	0.683373	-0.781927	-0.469416
H244	H	1.183373	-0.281927	0.030584
H245	H	0.967493	-1.089937	-0.240426
H246	H	1.467493	-0.589937	0.259574
H247	H	0.804334	-1.175544	-0.403365
H248	H	1.304334	-0.675544	0.096635
N249	N	0.755617	-0.554026	-1.138789
N250	N	1.255617	-0.054026	-0.638789
H251	H	0.762756	-0.545247	-1.184155
H252	H	1.262756	-0.045247	-0.684155
H253	H	0.757599	-0.618467	-1.135100
H254	H	1.257599	-0.118467	-0.635100
N255	N	0.951087	-0.314389	-0.570487
N256	N	1.451087	0.185611	-0.070487
H257	H	0.980881	-0.277816	-0.596770
H258	H	1.480881	0.222184	-0.096770
H259	H	0.930615	-0.272652	-0.538307
H260	H	1.430615	0.227348	-0.038307
H261	H	0.768020	-0.538973	-0.724710
H262	H	1.268020	-0.038973	-0.224710
N263	N	0.729743	-1.102596	-0.477774
N264	N	1.229743	-0.602596	0.022226
H265	H	0.709638	-1.058475	-0.497823
H266	H	1.209638	-0.558475	0.002177
H267	H	0.750547	-1.141636	-0.511494
H268	H	1.250547	-0.641636	-0.011494
H269	H	0.223698	-0.329489	-0.269237
H270	H	0.723698	0.170511	0.230763
N271	N	0.205344	-0.554456	-0.451952
N272	N	0.705344	-0.054456	0.048048
H273	H	0.170295	-0.591052	-0.481698
H274	H	0.670295	-0.091052	0.018302
H275	H	0.236957	-0.517800	-0.476580
H276	H	0.736957	-0.017800	0.023420
N277	N	0.423263	-0.419355	-0.235198
N278	N	0.923263	0.080645	0.264802
H279	H	0.393122	-0.414768	-0.198901
H280	H	0.893122	0.085232	0.301099
H281	H	0.443764	-0.474324	-0.235905
H282	H	0.943764	0.025676	0.264095
H283	H	0.987999	-0.918986	-0.219871
H284	H	1.487999	-0.418986	0.280129
N285	N	0.928498	-0.808665	-0.279218
N286	N	1.428498	-0.308665	0.220782
H287	H	0.962702	-0.785940	-0.245059
H288	H	1.462702	-0.285940	0.254941
H289	H	0.942698	-0.785994	-0.319509
H290	H	1.442698	-0.285994	0.180491
