data_functionalizedCrystal
_audit_creation_method	'MofGen! by Chris Wilmer'
_symmetry_space_group_name_H-M	'P1'
_symmetry_Int_Tables_number	1
_symmetry_cell_setting	triclinic
loop_
_symmetry_equiv_pos_as_xyz
  x,y,z
_cell_length_a	27.732048
_cell_length_b	27.732064
_cell_length_c	10.065918
_cell_angle_alpha	99.877478
_cell_angle_beta	99.920305
_cell_angle_gamma	82.646039
loop_
_atom_site_label
_atom_site_type_symbol
_atom_site_fract_x
_atom_site_fract_y
_atom_site_fract_z
O1	O	0.647216	0.063766	0.113305
O2	O	0.506426	0.072514	0.113344
O3	O	0.581190	-0.002256	0.113329
O4	O	0.572452	0.138536	0.113320
O5	O	0.568591	-0.014778	-0.113655
O6	O	0.493827	0.059991	-0.113640
O7	O	0.634618	0.051244	-0.113679
Zn8	Zn	0.562222	0.053629	-0.149698
Zn9	Zn	0.578821	0.070128	0.149363
O10	O	0.559853	0.126014	-0.113663
C11	C	0.574706	-0.026524	-0.000159
C12	C	0.574151	-0.080177	-0.000146
C13	C	0.482120	0.066069	-0.000142
C14	C	0.428466	0.065517	-0.000127
C15	C	0.526185	-0.457249	-0.000127
C16	C	0.528231	-0.255589	-0.000126
O17	O	0.491013	-0.224333	-0.000061
N18	N	0.572565	-0.236462	-0.000138
C19	C	0.616390	-0.267753	-0.000142
O20	O	0.654146	-0.246857	-0.000138
C21	C	0.614344	-0.469412	-0.000133
C22	C	0.570007	-0.488537	-0.000135
C23	C	0.481851	-0.476374	-0.000127
C24	C	0.481340	-0.526787	-0.000135
C25	C	0.525162	-0.558074	-0.000143
C26	C	0.569495	-0.538949	-0.000143
C27	C	0.658170	-0.500702	-0.000127
C28	C	0.657654	-0.551119	-0.000122
C29	C	0.613317	-0.570244	-0.000123
C30	C	0.612806	-0.620649	-0.000158
N31	N	0.568472	-0.639776	-0.000146
C32	C	0.524650	-0.608488	-0.000138
C33	C	0.617461	-0.161879	-0.000149
C34	C	0.617973	-0.111465	-0.000154
C35	C	0.529813	-0.099304	-0.000135
C36	C	0.529302	-0.149719	-0.000140
C37	C	0.573128	-0.181006	-0.000137
C38	C	0.523579	-0.714359	-0.000156
C39	C	0.523071	-0.764777	-0.000169
C40	C	0.611231	-0.776933	-0.000180
C41	C	0.611738	-0.726520	-0.000174
C42	C	0.567909	-0.695233	-0.000157
O43	O	0.650004	-0.651933	-0.000208
O44	O	0.486901	-0.629393	-0.000111
C45	C	0.526696	-0.406837	-0.000120
C46	C	0.571030	-0.387712	-0.000119
C47	C	0.614852	-0.418999	-0.000127
C48	C	0.571541	-0.337297	-0.000124
C49	C	0.527719	-0.306010	-0.000116
C50	C	0.483386	-0.325136	-0.000104
C51	C	0.482874	-0.375549	-0.000112
C52	C	0.659185	-0.399872	-0.000139
C53	C	0.659693	-0.349459	-0.000133
C54	C	0.615871	-0.318172	-0.000126
C55	C	0.089649	0.106217	-0.000188
C56	C	-0.112011	0.104166	-0.000200
O57	O	-0.143268	0.141383	-0.000262
N58	N	-0.131137	0.059831	-0.000195
C59	C	-0.099845	0.016006	-0.000196
O60	O	-0.120741	-0.021751	-0.000206
C61	C	0.101814	0.018058	-0.000194
C62	C	0.120938	0.062396	-0.000185
C63	C	0.108774	0.150552	-0.000181
C64	C	0.159186	0.151065	-0.000170
C65	C	0.190475	0.107243	-0.000167
C66	C	0.171350	0.062909	-0.000175
C67	C	0.133104	-0.025768	-0.000205
C68	C	0.183522	-0.025251	-0.000207
C69	C	0.202645	0.019087	-0.000199
C70	C	0.253051	0.019600	-0.000161
N71	N	0.272177	0.063934	-0.000166
C72	C	0.240889	0.107756	-0.000169
C73	C	-0.205719	0.014932	-0.000195
C74	C	-0.256133	0.014419	-0.000193
C75	C	-0.268296	0.102579	-0.000199
C76	C	-0.217880	0.103092	-0.000192
C77	C	-0.186593	0.059267	-0.000200
C78	C	0.346759	0.108830	-0.000146
C79	C	0.397177	0.109339	-0.000130
C80	C	0.409335	0.021179	-0.000130
C81	C	0.358922	0.020670	-0.000139
C82	C	0.327635	0.064499	-0.000152
O83	O	0.284335	-0.017598	-0.000115
O84	O	0.261793	0.145506	-0.000189
C85	C	0.039237	0.105705	-0.000199
C86	C	0.020113	0.061370	-0.000206
C87	C	0.051401	0.017548	-0.000203
C88	C	-0.030302	0.060857	-0.000204
C89	C	-0.061590	0.104679	-0.000207
C90	C	-0.042464	0.149013	-0.000212
C91	C	0.007949	0.149526	-0.000202
C92	C	0.032275	-0.026786	-0.000198
C93	C	-0.018138	-0.027295	-0.000207
C94	C	-0.049427	0.016526	-0.000210
C95	C	0.658924	0.057689	-0.000189
C96	C	0.712578	0.058241	-0.000196
C97	C	0.566337	0.150281	-0.000173
C98	C	0.566893	0.203936	-0.000177
N99	N	0.550896	0.042369	-0.353799
C100	C	0.574878	0.066211	-0.421587
C101	C	0.566166	0.057540	-0.578751
N102	N	0.590151	0.081385	0.353464
H103	H	0.486965	-0.780345	-0.000177
H104	H	-0.271698	-0.021684	-0.000179
H105	H	0.601861	0.093040	-0.363270
H106	H	0.539184	0.030705	-0.637063
O107	O	0.481025	-0.683934	-0.000327
C108	C	0.423889	-0.626473	-0.117961
C109	C	0.472095	-0.660901	-0.117909
H110	H	0.416648	-0.607849	-0.213030
H111	H	0.427178	-0.597296	-0.023032
H112	H	0.392130	-0.648816	-0.117898
H113	H	0.503878	-0.638598	-0.118020
H114	H	0.468764	-0.690078	-0.212830
H115	H	0.617135	0.108217	-0.588226
H116	H	0.208994	-0.060940	-0.000215
H117	H	0.445236	-0.542352	-0.000124
H118	H	0.653151	-0.187349	-0.000148
H119	H	-0.067947	0.184695	-0.000209
H120	H	0.446770	-0.391115	-0.000114
H121	H	0.523917	0.015536	-0.412116
O122	O	0.653839	-0.807265	-0.000239
C123	C	0.741342	-0.814014	-0.000131
C124	C	0.693122	-0.779610	-0.000113
H125	H	0.773116	-0.791667	0.000000
H126	H	0.738070	-0.843155	-0.095142
H127	H	0.748541	-0.832689	0.094843
H128	H	0.685894	-0.760900	-0.095023
H129	H	0.696417	-0.750498	0.094961
O130	O	0.439231	-0.446058	-0.000185
C131	C	0.351739	-0.439330	-0.000111
C132	C	0.399973	-0.473715	-0.000063
H133	H	0.319989	-0.461676	0.000017
H134	H	0.344466	-0.420677	-0.095131
H135	H	0.355063	-0.410172	0.094854
H136	H	0.396686	-0.502900	-0.094963
H137	H	0.407230	-0.492332	0.095021
H138	H	0.493198	-0.165287	-0.000147
O139	O	0.487223	-0.068945	0.000063
C140	C	0.418582	-0.036603	0.117747
C141	C	0.466797	-0.071014	0.117662
H142	H	0.402060	-0.038256	0.212830
H143	H	0.391437	-0.048752	0.022832
H144	H	0.426577	0.002705	0.117679
H145	H	0.458850	-0.110332	0.117778
H146	H	0.493928	-0.058823	0.212568
H147	H	0.694274	-0.485140	-0.000125
O148	O	0.661087	-0.092968	-0.000107
C149	C	0.748470	-0.110369	-0.000196
C150	C	0.699677	-0.131377	-0.000228
H151	H	0.779682	-0.141414	-0.000323
H152	H	0.756221	-0.081848	0.094818
H153	H	0.745621	-0.092293	-0.095166
H154	H	0.702490	-0.149478	0.094678
H155	H	0.691943	-0.159875	-0.095305
H156	H	-0.293780	0.138260	-0.000202
H157	H	0.693344	-0.576590	-0.000111
O158	O	-0.036644	-0.070390	-0.000031
C159	C	-0.035166	-0.139402	0.117578
C160	C	-0.014160	-0.090613	0.117549
H161	H	-0.017004	-0.155762	0.212646
H162	H	-0.027499	-0.166304	0.022648
H163	H	-0.076576	-0.132240	0.117500
H164	H	0.027254	-0.097728	0.117676
H165	H	-0.021865	-0.063727	0.212471
O166	O	0.654784	-0.707871	-0.000001
C167	C	0.713065	-0.651548	0.117654
C168	C	0.664301	-0.672616	0.117594
H169	H	0.720780	-0.623048	0.212734
H170	H	0.710249	-0.633449	0.022736
H171	H	0.744287	-0.682583	0.117575
H172	H	0.633054	-0.641610	0.117721
H173	H	0.667159	-0.690729	0.212504
O174	O	0.440843	-0.294705	0.000148
C175	C	0.396807	-0.224216	0.117729
C176	C	0.445005	-0.258652	0.117618
H177	H	0.400160	-0.195053	0.212679
H178	H	0.365013	-0.246511	0.117823
H179	H	0.389577	-0.205571	0.022699
H180	H	0.452281	-0.277305	0.212633
H181	H	0.476772	-0.236333	0.117453
O182	O	0.702812	-0.330963	-0.000073
C183	C	0.790196	-0.348363	-0.000145
C184	C	0.741402	-0.369372	-0.000197
H185	H	0.821407	-0.379408	-0.000274
H186	H	0.797945	-0.319844	0.094878
H187	H	0.787350	-0.330282	-0.095107
H188	H	0.744212	-0.387477	0.094700
H189	H	0.733670	-0.397866	-0.095283
H190	H	0.694871	-0.425342	-0.000144
O191	O	0.415669	0.152451	-0.000186
C192	C	0.398280	0.239843	-0.000111
C193	C	0.377274	0.191055	-0.000076
H194	H	0.367250	0.271069	0.000007
H195	H	0.416293	0.237080	-0.095121
H196	H	0.426861	0.247502	0.094864
H197	H	0.348675	0.183366	-0.094987
H198	H	0.359293	0.193842	0.094996
H199	H	0.321290	0.144519	-0.000160
O200	O	-0.175336	-0.027642	0.000050
C201	C	-0.143028	-0.096363	0.117619
C202	C	-0.177442	-0.048150	0.117520
H203	H	-0.144727	-0.112963	0.212569
H204	H	-0.103693	-0.088414	0.117705
H205	H	-0.155214	-0.123423	0.022588
H206	H	-0.165301	-0.021067	0.212534
H207	H	-0.216770	-0.056137	0.117363
H208	H	0.057745	-0.062472	-0.000199
O209	O	0.177707	0.194178	0.000011
C210	C	0.189256	0.276167	0.117639
C211	C	0.168257	0.227369	0.117590
H212	H	0.181633	0.303012	0.212706
H213	H	0.171058	0.292595	0.022708
H214	H	0.230660	0.269006	0.117576
H215	H	0.126856	0.234489	0.117701
H216	H	0.186493	0.210955	0.212513
O217	O	0.078347	0.193104	0.000007
C218	C	0.020930	0.250202	0.117673
C219	C	0.055355	0.201994	0.117598
H220	H	0.002340	0.257411	0.212750
H221	H	-0.008280	0.246947	0.022752
H222	H	0.043275	0.281960	0.117613
H223	H	0.033052	0.170212	0.117706
H224	H	0.084566	0.205291	0.212511
H225	H	-0.202314	0.139196	-0.000192
H226	H	0.343352	-0.015433	-0.000127
O227	O	0.114612	-0.068885	-0.000286
C228	C	0.132020	-0.156270	-0.000245
C229	C	0.153024	-0.107472	-0.000177
H230	H	0.163068	-0.187479	-0.000127
H231	H	0.103472	-0.163989	-0.095267
H232	H	0.113971	-0.153460	0.094718
H233	H	0.171099	-0.110246	-0.095076
H234	H	0.181548	-0.099771	0.094908
H235	H	0.434819	-0.014499	-0.000123
O236	O	0.026572	0.192555	-0.000372
C237	C	0.069881	0.237833	-0.117980
C238	C	0.048826	0.189070	-0.117947
H239	H	0.087869	0.235035	-0.213043
H240	H	0.098474	0.245520	-0.023045
H241	H	0.038850	0.269058	-0.117913
H242	H	0.079823	0.157814	-0.118061
H243	H	0.020220	0.181425	-0.212873
