data_functionalizedCrystal
_audit_creation_method	'MofGen! by Chris Wilmer'
_symmetry_space_group_name_H-M	'P1'
_symmetry_Int_Tables_number	1
_symmetry_cell_setting	triclinic
loop_
_symmetry_equiv_pos_as_xyz
  x,y,z
_cell_length_a	17.640112
_cell_length_b	17.640280
_cell_length_c	17.640968
_cell_angle_alpha	65.682561
_cell_angle_beta	87.860920
_cell_angle_gamma	87.815931
loop_
_atom_site_label
_atom_site_type_symbol
_atom_site_fract_x
_atom_site_fract_y
_atom_site_fract_z
Zn1	Zn	1.251359	0.023073	0.189698
Zn2	Zn	1.751359	0.523073	0.689698
Zn3	Zn	1.251298	0.188752	0.024069
Zn4	Zn	1.751298	0.688752	0.524069
Zn5	Zn	1.106797	0.075311	0.076159
Zn6	Zn	1.606797	0.575311	0.576159
Zn7	Zn	1.148399	0.178182	0.179117
Zn8	Zn	1.648399	0.678182	0.679117
O9	O	1.189463	0.116329	0.117261
O10	O	1.689463	0.616329	0.617261
O11	O	1.354914	0.027613	0.150355
O12	O	1.854914	0.527613	0.650355
O13	O	1.214694	0.199989	-0.081425
O14	O	1.714694	0.699989	0.418575
O15	O	1.108588	-0.044008	0.117448
O16	O	1.608588	0.455992	0.617448
O17	O	1.354870	0.149337	0.028669
O18	O	1.854870	0.649337	0.528669
O19	O	1.214797	-0.082386	0.200865
O20	O	1.714797	0.417614	0.700865
O21	O	1.108529	0.116644	-0.043155
O22	O	1.608529	0.616644	0.456845
O23	O	1.008752	0.106394	0.107188
O24	O	1.508752	0.606394	0.607188
O25	O	1.179493	0.131321	0.292925
O26	O	1.679493	0.631321	0.792925
O27	O	1.039317	0.181973	0.182831
O28	O	1.539317	0.681973	0.682831
O29	O	1.255137	0.017364	0.300699
O30	O	1.755137	0.517364	0.800699
O31	O	1.255033	0.299739	0.018409
O32	O	1.755033	0.799739	0.518409
O33	O	1.179434	0.291973	0.132322
O34	O	1.679434	0.791973	0.632322
C35	C	0.997182	0.148705	0.149514
C36	C	1.497182	0.648705	0.649514
C37	C	0.914929	0.162571	0.163327
C38	C	1.414929	0.662571	0.663327
C39	C	1.221764	0.324990	0.068579
C40	C	1.721764	0.824990	0.568579
C41	C	1.235655	0.414238	0.047768
C42	C	1.735655	0.914238	0.547768
C43	C	0.564743	0.010979	0.012337
C44	C	1.064743	0.510979	0.512337
C45	C	0.487458	0.024022	0.025323
C46	C	0.987458	0.524022	0.525323
C47	C	0.519334	0.102905	0.103880
C48	C	1.019334	0.602905	0.603880
C49	C	0.596623	0.089865	0.090904
C50	C	1.096623	0.589865	0.590904
C51	C	0.619321	0.043903	0.045131
C52	C	1.119321	0.543903	0.545131
C53	C	0.651201	0.122789	0.123697
C54	C	1.151201	0.622789	0.623697
C55	C	0.728483	0.109754	0.110718
C56	C	1.228483	0.609754	0.610718
C57	C	0.751188	0.063796	0.064946
C58	C	1.251188	0.563796	0.564946
C59	C	0.696603	0.030868	0.032152
C60	C	1.196603	0.530868	0.532152
C61	C	0.628502	0.168756	0.169465
C62	C	1.128502	0.668756	0.669465
C63	C	0.683080	0.201680	0.202259
C64	C	1.183080	0.701680	0.702259
C65	C	0.760364	0.188640	0.189285
C66	C	1.260364	0.688640	0.689285
C67	C	0.783068	0.142682	0.143512
C68	C	1.283068	0.642682	0.643512
C69	C	0.814949	0.221568	0.222079
C70	C	1.314949	0.721568	0.722079
C71	C	0.892231	0.208534	0.209100
C72	C	1.392231	0.708534	0.709100
C73	C	0.860351	0.129647	0.130533
C74	C	1.360351	0.629647	0.630533
C75	C	1.221962	0.067336	0.326772
C76	C	1.721962	0.567336	0.826772
C77	C	1.235811	0.046458	0.416053
C78	C	1.735811	0.546458	0.916053
C79	C	1.382495	0.083827	0.084882
C80	C	1.882495	0.583827	0.584882
C81	C	1.464754	0.069977	0.071084
C82	C	1.964754	0.569977	0.571084
C83	C	1.157059	-0.093153	0.166147
C84	C	1.657059	0.406847	0.666147
C85	C	1.143250	-0.182422	0.186980
C86	C	1.643250	0.317578	0.686980
C87	C	1.084287	0.687787	0.275600
C88	C	1.584287	1.187787	0.775600
C89	C	1.097337	0.771655	0.256019
C90	C	1.597337	1.271655	0.756019
C91	C	1.176134	0.779643	0.137496
C92	C	1.676134	1.279643	0.637496
C93	C	1.163094	0.695773	0.157069
C94	C	1.663094	1.195773	0.657069
C95	C	1.117169	0.649852	0.226122
C96	C	1.617169	1.149852	0.726122
C97	C	1.195976	0.657837	0.107591
C98	C	1.695976	1.157837	0.607591
C99	C	1.182933	0.573976	0.127160
C100	C	1.682933	1.073976	0.627160
C101	C	1.137009	0.528050	0.196208
C102	C	1.637009	1.028050	0.696208
C103	C	1.104127	0.565990	0.245691
C104	C	1.604127	1.065990	0.745691
C105	C	1.241896	0.703761	0.038535
C106	C	1.741896	1.203761	0.538535
C107	C	1.274778	0.665825	-0.010944
C108	C	1.774778	1.165825	0.489056
C109	C	1.261740	0.581961	0.008629
C110	C	1.761740	1.081961	0.508629
C111	C	1.215815	0.536035	0.077677
C112	C	1.715815	1.036035	0.577677
C113	C	1.294622	0.544020	-0.040854
C114	C	1.794622	1.044020	0.459146
C115	C	1.281579	0.460159	-0.021285
C116	C	1.781579	0.960159	0.478715
C117	C	1.202773	0.452173	0.097246
C118	C	1.702773	0.952173	0.597246
C119	C	1.157124	0.165067	-0.091429
C120	C	1.657124	0.665067	0.408571
C121	C	1.143383	0.185695	-0.180681
C122	C	1.643383	0.685695	0.319319
C123	C	1.084469	0.274453	0.689444
C124	C	1.584469	0.774453	1.189444
C125	C	1.097496	0.254822	0.773337
C126	C	1.597496	0.754822	1.273337
C127	C	1.176258	0.136168	0.781421
C128	C	1.676258	0.636168	1.281421
C129	C	1.163234	0.155787	0.697528
C130	C	1.663234	0.655787	1.197528
C131	C	1.117340	0.224930	0.651546
C132	C	1.617340	0.724930	1.151546
C133	C	1.196105	0.106264	0.659630
C134	C	1.696105	0.606264	1.159630
C135	C	1.183085	0.125884	0.575743
C136	C	1.683085	0.625884	1.075743
C137	C	1.137195	0.195026	0.529754
C138	C	1.637195	0.695026	1.029754
C139	C	1.104320	0.244550	0.567659
C140	C	1.604320	0.744550	1.067659
C141	C	1.242004	0.037124	0.705612
C142	C	1.742004	0.537124	1.205612
C143	C	1.274874	-0.012398	0.667713
C144	C	1.774874	0.487602	1.167713
C145	C	1.261851	0.007218	0.583827
C146	C	1.761851	0.507218	1.083827
C147	C	1.215960	0.076360	0.537838
C148	C	1.715960	0.576360	1.037838
C149	C	1.294725	-0.042306	0.545922
C150	C	1.794725	0.457694	1.045922
C151	C	1.281706	-0.022686	0.462035
C152	C	1.781706	0.477314	0.962035
C153	C	1.202940	0.095980	0.453951
C154	C	1.702940	0.595980	0.953951
H155	H	0.878832	0.092205	0.093275
H156	H	1.378832	0.592205	0.593275
H157	H	0.443020	-0.002799	-0.001378
H158	H	0.943020	0.497201	0.498622
H159	H	1.312167	0.703226	-0.067168
H160	H	1.812167	1.203226	0.432832
F161	F	1.055256	0.517110	0.319191
F162	F	1.555256	1.017110	0.819191
H163	H	1.046897	0.650394	0.331835
H164	H	1.546897	1.150394	0.831835
H165	H	0.814117	0.053186	0.054377
H166	H	1.314117	0.553186	0.554377
H167	H	0.715084	-0.006574	-0.005106
H168	H	1.215084	0.493426	0.494894
F169	F	1.062505	0.307534	0.813669
F170	F	1.562505	0.807534	1.313669
H171	H	1.070568	0.802535	0.296324
H172	H	1.570568	1.302535	0.796324
F173	F	1.343491	0.592904	-0.114346
F174	F	1.843491	1.092904	0.385654
F175	F	1.316569	0.419785	-0.073950
F176	F	1.816569	0.919785	0.426050
H177	H	1.066927	0.300838	0.530225
H178	H	1.566927	0.800838	1.030225
H179	H	0.583224	-0.026463	-0.024921
H180	H	1.083224	0.473537	0.475079
H181	H	0.500842	0.140330	0.141145
H182	H	1.000842	0.640330	0.641145
F183	F	1.154087	0.169566	0.405012
F184	F	1.654087	0.669566	0.905012
F185	F	1.123342	0.215911	0.440472
F186	F	1.623342	0.715911	0.940472
H187	H	1.047076	0.330740	0.652010
H188	H	1.547076	0.830740	1.152010
F189	F	1.225103	0.062585	0.830366
F190	F	1.725103	0.562585	1.330366
H191	H	0.565572	0.179368	0.180031
H192	H	1.065572	0.679368	0.680031
H193	H	1.252605	0.021154	0.773917
H194	H	1.752605	0.521154	1.273917
H195	H	0.664588	0.239106	0.239524
H196	H	1.164588	0.739106	0.739524
H197	H	1.165383	0.414780	0.153481
H198	H	1.665383	0.914780	0.653481
H199	H	1.312244	-0.068693	0.705162
H200	H	1.812244	0.431307	1.205162
H201	H	1.332098	-0.098597	0.583371
H202	H	1.832098	0.401403	1.083371
F203	F	0.790781	0.270499	0.270776
F204	F	1.290781	0.770499	0.770776
F205	F	1.225010	0.828523	0.064008
F206	F	1.725010	1.328523	0.564008
H207	H	1.252515	0.772045	0.022606
H208	H	1.752515	1.272045	0.522606
F209	F	1.123283	0.438740	0.217158
F210	F	1.623283	0.938740	0.717158
H211	H	0.936671	0.235342	0.235805
H212	H	1.436671	0.735342	0.735805
F213	F	1.316693	-0.075391	0.421698
F214	F	1.816693	0.424609	0.921698
