data_functionalizedCrystal
_audit_creation_method	'MofGen! by Chris Wilmer'
_symmetry_space_group_name_H-M	'P1'
_symmetry_Int_Tables_number	1
_symmetry_cell_setting	triclinic
loop_
_symmetry_equiv_pos_as_xyz
  x,y,z
_cell_length_a	9.616153
_cell_length_b	14.971486
_cell_length_c	14.971486
_cell_angle_alpha	96.385871
_cell_angle_beta	90.002466
_cell_angle_gamma	89.998089
loop_
_atom_site_label
_atom_site_type_symbol
_atom_site_fract_x
_atom_site_fract_y
_atom_site_fract_z
O1	O	0.115486	-1.186948	0.116559
O2	O	0.115524	-0.926548	0.130518
O3	O	0.115494	-1.063727	-0.006662
O4	O	0.115516	-1.049769	0.253739
O5	O	-0.115797	-1.063709	-0.006659
O6	O	-0.115767	-0.926529	0.130521
O7	O	-0.115805	-1.186929	0.116562
Zn8	Zn	-0.152509	-1.056726	0.123542
Zn9	Zn	0.152228	-1.056751	0.123538
O10	O	-0.115775	-1.049750	0.253742
C11	C	-0.000117	-0.893214	0.129895
C12	C	-0.000102	-0.793917	0.128024
N13	N	-0.360483	-1.056716	0.123544
C14	C	-0.000151	-1.063094	-0.039985
C15	C	-0.000149	-1.061223	-0.139282
C16	C	-0.580837	-0.983114	0.196683
C17	C	-0.419669	-0.983272	0.196954
C18	C	-0.418944	-1.150069	0.144030
C19	C	-0.580162	-1.149667	0.144547
C20	C	-0.580399	-1.037898	0.029674
C21	C	-0.419172	-1.035747	0.030300
N22	N	0.360202	-1.056769	0.123529
C23	C	-0.000161	-1.220263	0.117185
C24	C	-0.000166	-1.319561	0.119056
C25	C	-0.000098	-0.736691	0.208614
C26	C	-0.000118	-0.643392	0.206850
C27	C	-0.000134	-0.607320	0.124497
C28	C	-0.000143	-0.664552	0.043902
C29	C	-0.000132	-0.757850	0.045666
C30	C	-0.000163	-0.470090	0.040231
C31	C	-0.000171	-0.376786	0.038466
C32	C	-0.000149	-0.355632	0.201415
C33	C	-0.000138	-0.448930	0.203179
C34	C	-0.000144	-0.506156	0.122584
C35	C	-0.000162	-1.141812	-0.196507
C36	C	-0.000148	-1.140049	-0.289807
C37	C	-0.000131	-1.057696	-0.325879
C38	C	-0.000114	-0.977101	-0.268646
C39	C	-0.000118	-0.978865	-0.175349
C40	C	-0.000108	-0.973430	-0.463109
C41	C	-0.000107	-0.971665	-0.556413
C42	C	-0.000138	-1.134614	-0.577567
C43	C	-0.000142	-1.136378	-0.484269
C44	C	-0.000128	-1.055782	-0.427043
C45	C	-0.000127	-1.050384	0.287065
C46	C	-0.000119	-1.052254	0.386362
H47	H	-0.380146	-0.913885	0.184734
Cl48	Cl	-0.000104	-0.571455	0.308168
H49	H	-0.000093	-0.907800	-0.416517
Cl50	Cl	-0.000148	-1.235935	-0.649508
Cl51	Cl	-0.359758	-1.236713	0.063964
H52	H	-0.000150	-0.309033	0.267039
H53	H	-0.000112	-0.478296	0.270239
H54	H	-0.000176	-0.635175	-0.023152
Cl55	Cl	-0.000237	-0.331439	-0.065065
Cl56	Cl	-0.640710	-0.875639	0.178111
Cl57	Cl	-0.000198	-1.245348	-0.151169
H58	H	-0.617747	-1.166280	0.212998
H59	H	-0.000170	-0.516682	-0.025399
H60	H	-0.000091	-0.910047	-0.298024
H61	H	-0.000115	-0.904606	-0.585780
Cl62	Cl	-0.360089	-1.001848	0.304495
Cl63	Cl	-0.000144	-0.829791	-0.055651
H64	H	-0.000107	-0.913240	-0.128756
H65	H	-0.621332	-0.995008	0.265937
H66	H	-0.000161	-1.205673	-0.336396
H67	H	-0.000166	-1.203437	-0.454903
Cl68	Cl	-0.357000	-1.113182	-0.057698
H69	H	-0.619162	-1.206192	0.093371
Cl70	Cl	-0.360183	-0.929722	0.006297
H71	H	-0.378551	-1.167071	0.211703
Cl72	Cl	-0.000069	-0.782030	0.312150
H73	H	-0.621128	-0.971304	0.009999
Cl74	Cl	-0.639266	-1.120822	-0.054379
