data_functionalizedCrystal
_audit_creation_method	'MofGen! by Chris Wilmer'
_symmetry_space_group_name_H-M	'P1'
_symmetry_Int_Tables_number	1
_symmetry_cell_setting	triclinic
loop_
_symmetry_equiv_pos_as_xyz
  x,y,z
_cell_length_a	15.995362
_cell_length_b	15.944545
_cell_length_c	15.021413
_cell_angle_alpha	90.003039
_cell_angle_beta	89.997449
_cell_angle_gamma	96.503224
loop_
_atom_site_label
_atom_site_type_symbol
_atom_site_fract_x
_atom_site_fract_y
_atom_site_fract_z
O1	O	-0.107967	1.114527	0.073964
O2	O	-0.121286	0.869977	0.073977
O3	O	0.007260	0.998932	0.073976
O4	O	-0.236513	0.985572	0.073964
O5	O	0.007272	0.998918	-0.074088
O6	O	-0.121275	0.869963	-0.074087
O7	O	-0.107955	1.114514	-0.074101
Zn8	Zn	-0.114613	0.992236	-0.097602
Zn9	Zn	-0.114628	0.992254	0.097479
O10	O	-0.236502	0.985559	-0.074100
C11	C	-0.120728	0.838676	-0.000054
C12	C	-0.119073	0.745430	-0.000048
C13	C	-0.034449	0.474798	-0.000053
C14	C	-0.075243	0.525372	-0.073061
C15	C	-0.113172	0.409786	-0.000063
C16	C	-0.075275	0.525366	0.072919
C17	C	-0.116067	0.574699	-0.000054
C18	C	-0.153944	0.459132	-0.073131
C19	C	-0.153965	0.459123	0.072915
C20	C	-0.194816	0.509664	-0.000111
C21	C	-0.111501	0.314784	-0.000069
C22	C	-0.117743	0.669699	-0.000055
C23	C	0.038461	0.998371	-0.000052
C24	C	0.131411	0.996710	-0.000042
C25	C	0.469156	0.990744	-0.000025
C26	C	0.421726	0.898902	0.000310
C27	C	0.325036	0.900564	-0.000030
C28	C	0.301597	0.993703	-0.000033
C29	C	0.342679	1.038994	-0.084583
C30	C	0.439314	1.036682	-0.084648
C31	C	0.439659	1.038595	0.083728
C32	C	0.342714	1.038577	0.084840
C33	C	0.206900	0.995380	-0.000040
C34	C	0.563854	0.989069	-0.000023
C35	C	0.732297	0.986109	-0.000055
C36	C	0.639342	0.987737	-0.000016
C37	C	-0.108513	1.145815	-0.000068
C38	C	-0.110168	1.239061	-0.000068
N39	N	-0.114602	0.992230	-0.230740
N40	N	-0.114632	0.992267	0.230616
C41	C	-0.055277	1.052011	0.529607
C42	C	-0.038872	0.976169	0.470245
C43	C	-0.114612	0.992241	0.587653
C44	C	-0.130988	1.068094	0.470273
C45	C	-0.114620	0.992258	0.412229
C46	C	-0.098169	0.916360	0.529598
C47	C	-0.190319	1.008335	0.529631
C48	C	-0.173946	0.932438	0.470296
C49	C	-0.114606	0.992232	0.688710
C50	C	-0.114627	0.992258	0.311174
H51	H	0.440254	0.862198	0.060946
N52	N	-0.240423	0.865431	0.436004
H53	H	-0.270144	0.834801	0.487920
H54	H	-0.213011	0.823918	0.398112
H55	H	0.460195	1.008572	0.147816
N56	N	0.463563	0.992909	-0.168361
H57	H	0.491495	0.941320	-0.151972
H58	H	0.503906	1.032840	-0.204291
N59	N	-0.031188	0.563687	-0.154808
H60	H	-0.033100	0.626785	-0.154502
H61	H	-0.060321	0.538589	-0.209904
N62	N	-0.275093	1.026390	0.564218
H63	H	-0.287408	1.083727	0.542679
H64	H	-0.274558	1.025651	0.631445
H65	H	0.315462	1.005464	0.147389
N66	N	-0.031229	0.563684	0.154670
H67	H	-0.009640	0.517700	0.191488
H68	H	-0.072134	0.593198	0.191179
N69	N	0.287374	0.853405	0.080250
H70	H	0.333578	0.831346	0.116178
H71	H	0.246021	0.804561	0.059984
N72	N	0.447679	0.850478	-0.079551
H73	H	0.490027	0.887773	-0.115945
H74	H	0.396573	0.832161	-0.117241
N75	N	0.288122	0.853084	-0.080452
H76	H	0.301475	0.792719	-0.077849
H77	H	0.313091	0.880821	-0.136345
H78	H	0.033347	0.459145	-0.000121
H79	H	0.471560	1.104111	-0.088484
N80	N	-0.079719	0.831384	0.563969
H81	H	-0.022733	0.819101	0.541840
H82	H	-0.124303	0.786261	0.541884
H83	H	-0.144836	1.132234	0.444214
H84	H	-0.187161	0.430317	-0.134919
H85	H	0.327350	1.106499	0.089943
H86	H	-0.187187	0.430182	0.134636
N87	N	-0.284690	0.530177	-0.000155
H88	H	-0.314310	0.505837	-0.055319
H89	H	-0.285258	0.593450	0.000404
N90	N	0.481721	1.128290	0.084489
H91	H	0.519702	1.137920	0.030875
H92	H	0.516159	1.138326	0.140619
N93	N	0.323980	1.129637	-0.088728
H94	H	0.261109	1.131389	-0.091419
H95	H	0.351044	1.157480	-0.143585
N96	N	0.305088	0.997328	-0.167935
H97	H	0.261458	0.949123	-0.151120
H98	H	0.350952	0.975026	-0.204175
H99	H	-0.005062	1.102492	0.555650
H100	H	0.025148	0.962558	0.444160
