data_functionalizedCrystal
_audit_creation_method	'MofGen! by Chris Wilmer'
_symmetry_space_group_name_H-M	'P1'
_symmetry_Int_Tables_number	1
_symmetry_cell_setting	triclinic
loop_
_symmetry_equiv_pos_as_xyz
  x,y,z
_cell_length_a	10.723024
_cell_length_b	10.654550
_cell_length_c	9.198806
_cell_angle_alpha	90.003282
_cell_angle_beta	89.996604
_cell_angle_gamma	95.523600
loop_
_atom_site_label
_atom_site_type_symbol
_atom_site_fract_x
_atom_site_fract_y
_atom_site_fract_z
O1	O	1.657213	-0.176147	-0.120883
O2	O	1.294064	-0.193008	-0.120888
O3	O	1.483988	-0.001837	-0.120876
O4	O	1.467289	-0.367318	-0.120894
O5	O	1.483974	-0.001836	0.120909
O6	O	1.294049	-0.193006	0.120897
O7	O	1.657199	-0.176146	0.120902
Cu8	Cu	1.475623	-0.184576	0.142977
Cu9	Cu	1.475640	-0.184578	-0.142962
O10	O	1.467275	-0.367317	0.120891
C11	C	1.247557	-0.191780	0.000004
C12	C	1.109002	-0.188109	0.000003
N13	N	1.475620	-0.184574	0.344091
C14	C	1.482755	0.044961	0.000016
C15	C	1.479086	0.184404	0.000014
C16	C	1.034035	-0.295078	-0.000004
C17	C	0.890831	-0.291287	-0.000005
C18	C	1.703706	-0.177373	0.000007
C19	C	1.842261	-0.181045	-0.000001
C20	C	1.468508	-0.414115	-0.000004
C21	C	1.472176	-0.553558	-0.000012
C22	C	1.590911	0.263907	0.000015
C23	C	1.587457	0.394927	-0.000003
C24	C	1.360343	0.366929	-0.000017
C25	C	1.363799	0.235912	-0.000009
N26	N	1.475652	-0.184570	-0.344076
C27	C	1.555561	-0.104133	0.583697
C28	C	1.555545	-0.104134	0.416284
H29	H	1.075871	-0.389466	-0.000000
H30	H	0.826412	-0.382860	-0.000017
O31	O	1.394190	-0.266787	0.581690
C32	C	1.461776	-0.344813	0.493659
H33	H	1.558995	-0.295643	0.470989
H34	H	1.409945	-0.364134	0.386574
H35	H	1.471038	-0.437754	0.552225
O36	O	0.919043	-0.071752	-0.000253
C37	C	0.895753	-0.001331	-0.125454
H38	H	0.851766	-0.067205	-0.212980
H39	H	0.987718	0.048128	-0.167485
H40	H	0.828944	0.072026	-0.097137
H41	H	1.067166	-0.093722	-0.000030
H42	H	1.623992	-0.035270	0.645797
O43	O	1.703003	0.214078	-0.000045
C44	C	1.800960	0.312351	-0.000017
H45	H	1.765205	0.401637	-0.045793
H46	H	1.881379	0.284283	-0.070216
H47	H	1.835506	0.330599	0.115977
H48	H	1.678516	0.459653	-0.000006
O49	O	1.255082	0.158803	-0.000203
C50	C	1.185181	0.182269	-0.125449
H51	H	1.214960	0.281376	-0.167198
H52	H	1.081178	0.173942	-0.097294
H53	H	1.202880	0.110467	-0.213132
O54	O	1.393874	-0.266783	0.417945
C55	C	1.319581	-0.341597	0.318303
H56	H	1.317616	-0.290186	0.209767
H57	H	1.220133	-0.359831	0.362410
H58	H	1.360915	-0.435268	0.302158
H59	H	1.266480	0.408883	-0.000033
H60	H	1.623954	-0.035264	0.354172
