data_functionalizedCrystal
_audit_creation_method	'MofGen! by Chris Wilmer'
_symmetry_space_group_name_H-M	'P1'
_symmetry_Int_Tables_number	1
_symmetry_cell_setting	triclinic
loop_
_symmetry_equiv_pos_as_xyz
  x,y,z
_cell_length_a	12.759395
_cell_length_b	18.101395
_cell_length_c	12.759387
_cell_angle_alpha	90.032811
_cell_angle_beta	90.021028
_cell_angle_gamma	90.031865
loop_
_atom_site_label
_atom_site_type_symbol
_atom_site_fract_x
_atom_site_fract_y
_atom_site_fract_z
Zn1	Zn	1.606149	-0.294776	0.594005
Zn2	Zn	1.605989	-0.418636	0.418319
Zn3	Zn	1.430447	-0.294814	0.418340
Zn4	Zn	1.430389	-0.418581	0.593957
O5	O	1.518244	-0.356702	0.506155
O6	O	1.753149	-0.311212	0.570711
O7	O	1.582661	-0.402249	0.271301
O8	O	1.453845	-0.191176	0.441671
O9	O	1.753032	-0.402212	0.441636
O10	O	1.582933	-0.191148	0.570732
O11	O	1.453691	-0.311278	0.271316
O12	O	1.283418	-0.311226	0.441625
O13	O	1.453747	-0.402119	0.740984
O14	O	1.283376	-0.402157	0.570649
O15	O	1.582877	-0.311160	0.741020
O16	O	1.582604	-0.522261	0.441589
O17	O	1.453592	-0.522222	0.570629
C18	C	1.245276	-0.356690	0.506135
C19	C	1.128499	-0.356703	0.506151
C20	C	1.518103	-0.549112	0.506124
C21	C	1.518139	-0.631426	0.506146
C22	C	0.909187	-0.262114	0.640809
C23	C	0.964114	-0.214804	0.708108
C24	C	1.073836	-0.214792	0.708090
C25	C	1.128632	-0.262096	0.640768
C26	C	1.073705	-0.309406	0.573468
C27	C	0.963981	-0.309412	0.573492
C28	C	1.073572	-0.404013	0.438852
C29	C	0.963851	-0.404023	0.438863
C30	C	1.128369	-0.451317	0.371529
C31	C	1.073442	-0.498624	0.304223
C32	C	0.963713	-0.498634	0.304243
C33	C	0.908923	-0.451333	0.371564
C34	C	1.518370	-0.930517	0.506203
C35	C	1.437387	-0.899198	0.587593
C36	C	1.437002	-0.813580	0.587338
C37	C	1.518255	-0.782135	0.506176
C38	C	1.488272	-0.813294	0.395450
C39	C	1.487750	-0.898939	0.395937
C40	C	1.629513	-0.898858	0.534564
C41	C	1.628859	-0.813207	0.536992
C42	C	1.518192	-0.698275	0.506154
C43	C	1.518430	-1.014377	0.506218
C44	C	1.792277	-0.356714	0.506176
C45	C	1.909054	-0.356719	0.506186
C46	C	1.518323	-0.356629	0.780189
C47	C	1.518357	-0.356598	0.896966
C48	C	1.518413	-0.163540	0.506209
C49	C	1.518486	-0.081226	0.506232
C50	C	1.518225	-0.356721	0.233188
C51	C	1.518395	-0.356543	0.116412
C52	C	1.652829	-0.261888	0.897022
C53	C	1.720080	-0.214522	0.951911
C54	C	1.720105	-0.214495	1.061633
C55	C	1.652871	-0.261838	1.116468
C56	C	1.585620	-0.309204	1.061579
C57	C	1.585604	-0.309227	0.951855
C58	C	1.451144	-0.403909	1.061522
C59	C	1.451122	-0.403941	0.951801
C60	C	1.383910	-0.451252	1.116357
C61	C	1.316662	-0.498623	1.061468
C62	C	1.316641	-0.498648	0.951740
C63	C	1.383872	-0.451307	0.896912
H64	H	0.819846	-0.262104	0.640808
C65	C	1.325689	-0.785988	0.562036
N66	N	1.241838	-0.765207	0.543004
C67	C	1.659432	-0.785658	0.647057
N68	N	1.682463	-0.764895	0.729951
H69	H	1.692388	-0.791797	0.482032
H70	H	0.919486	-0.176292	0.762923
C71	C	1.383852	-0.451329	0.776215
N72	N	1.383837	-0.451342	0.685304
C73	C	1.377989	-0.926021	0.363487
N74	N	1.295314	-0.946416	0.339049
H75	H	1.455761	-0.792510	0.669440
C76	C	1.666437	-0.927956	0.641787
N77	N	1.694236	-0.949872	0.722552
H78	H	1.652825	-0.261912	0.807681
H79	H	1.545401	-0.792927	0.333155
C80	C	0.903302	-0.550680	0.230206
N81	N	0.857804	-0.589880	0.174437
C82	C	1.711025	-0.926224	0.454485
N83	N	1.772412	-0.946841	0.394168
H84	H	1.261920	-0.537161	1.106124
H85	H	1.774819	-0.175975	0.907253
H86	H	1.774860	-0.175921	1.106324
C87	C	1.133725	-0.550651	0.230174
N88	N	1.179134	-0.589836	0.174395
C89	C	1.242656	-0.550755	0.891371
N90	N	1.186930	-0.590003	0.845904
C91	C	1.652903	-0.261806	1.237165
N92	N	1.652931	-0.261785	1.328076
C93	C	1.249329	-0.262082	0.640755
N94	N	1.340240	-0.262070	0.640743
H95	H	1.217710	-0.451308	0.371525
H96	H	1.118557	-0.176269	0.762893
H97	H	1.455960	-0.919740	0.669961
C98	C	0.788226	-0.451340	0.371593
N99	N	0.697316	-0.451346	0.371622
C100	C	1.383948	-0.451227	1.237054
N101	N	1.383983	-0.451213	1.327965
H102	H	1.355506	-0.920786	0.569043
C103	C	1.563965	-0.926934	0.311210
N104	N	1.621363	-0.948017	0.247389
H105	H	1.407887	-0.791912	0.370994
