data_functionalizedCrystal
_audit_creation_method	'MofGen! by Chris Wilmer'
_symmetry_space_group_name_H-M	'P1'
_symmetry_Int_Tables_number	1
_symmetry_cell_setting	triclinic
loop_
_symmetry_equiv_pos_as_xyz
  x,y,z
_cell_length_a	14.044191
_cell_length_b	10.654550
_cell_length_c	9.130313
_cell_angle_alpha	89.996220
_cell_angle_beta	89.997857
_cell_angle_gamma	91.161660
loop_
_atom_site_label
_atom_site_type_symbol
_atom_site_fract_x
_atom_site_fract_y
_atom_site_fract_z
O1	O	-0.133228	1.681227	-0.121909
O2	O	0.366772	2.181227	0.378091
O3	O	-0.145921	1.317024	-0.121884
O4	O	0.354079	1.817024	0.378116
O5	O	-0.001554	1.493654	-0.121899
O6	O	0.498446	1.993654	0.378101
O7	O	-0.277595	1.504597	-0.121894
O8	O	0.222405	2.004597	0.378106
O9	O	-0.001557	1.493652	0.121700
O10	O	0.498443	1.993652	0.621700
O11	O	-0.145925	1.317022	0.121715
O12	O	0.354075	1.817022	0.621715
O13	O	-0.133231	1.681225	0.121690
O14	O	0.366769	2.181225	0.621690
Cu15	Cu	-0.139579	1.499123	0.143945
Cu16	Cu	0.360421	1.999123	0.643945
Cu17	Cu	-0.139574	1.499125	-0.144139
Cu18	Cu	0.360426	1.999125	0.355861
O19	O	-0.277599	1.504595	0.121705
O20	O	0.222401	2.004595	0.621705
C21	C	-0.144991	1.270131	-0.000082
C22	C	0.355009	1.770131	0.499918
C23	C	-0.142203	1.130408	-0.000073
C24	C	0.357797	1.630408	0.499927
C25	C	-0.227204	1.059467	-0.000093
C26	C	0.272796	1.559467	0.499907
C27	C	-0.224578	0.928182	-0.000118
C28	C	0.275422	1.428182	0.499882
C29	C	-0.051942	0.938791	-0.000110
C30	C	0.448058	1.438791	0.499890
C31	C	-0.054569	1.070074	-0.000074
C32	C	0.445431	1.570074	0.499926
C33	C	-0.314837	1.119801	-0.000092
C34	C	0.185163	1.619801	0.499908
C35	C	-0.399846	1.048859	-0.000113
C36	C	0.100154	1.548859	0.499887
C37	C	-0.397220	0.917574	-0.000139
C38	C	0.102780	1.417574	0.499861
C39	C	-0.309586	0.857231	-0.000142
C40	C	0.190414	1.357231	0.499858
C41	C	-0.312943	1.509383	-0.000094
C42	C	0.187057	2.009383	0.499906
C43	C	-0.418263	1.523662	-0.000094
C44	C	0.081737	2.023662	0.499906
C45	C	-0.668055	1.448496	-0.000101
C46	C	-0.168055	1.948496	0.499899
C47	C	-0.611092	1.549747	-0.000106
C48	C	-0.111092	2.049747	0.499894
C49	C	-0.503792	1.535230	-0.000099
C50	C	-0.003792	2.035230	0.499901
C51	C	-0.775365	1.463012	-0.000108
C52	C	-0.275365	1.963012	0.499892
C53	C	0.033790	1.488866	-0.000103
C54	C	0.533790	1.988866	0.499897
C55	C	0.139110	1.474587	-0.000113
C56	C	0.639110	1.974587	0.499887
C57	C	-0.134161	1.728117	-0.000116
C58	C	0.365839	2.228117	0.499884
C59	C	-0.136950	1.867841	-0.000134
C60	C	0.363050	2.367841	0.499866
N61	N	-0.139581	1.499131	0.346567
N62	N	0.360419	1.999131	0.846567
N63	N	-0.139564	1.499127	-0.346762
N64	N	0.360436	1.999127	0.153238
C65	C	-0.075677	1.577367	0.423213
C66	C	0.424323	2.077367	0.923213
C67	C	-0.075666	1.577362	0.576550
C68	C	0.424334	2.077362	1.076550
C69	C	-0.203471	1.420882	0.576582
C70	C	0.296529	1.920882	1.076582
C71	C	-0.203477	1.420881	0.423248
C72	C	0.296523	1.920881	0.923248
C73	C	-0.011782	1.655616	0.346532
C74	C	0.488218	2.155616	0.846532
C75	C	0.052127	1.733859	0.423178
C76	C	0.552127	2.233859	0.923178
C77	C	0.052138	1.733854	0.576515
C78	C	0.552138	2.233854	1.076515
C79	C	-0.011759	1.655607	0.653206
C80	C	0.488241	2.155607	1.153206
H81	H	-0.471194	1.097999	-0.000098
H82	H	0.028806	1.597999	0.499902
Br83	Br	-0.664116	1.712398	-0.000116
Br84	Br	-0.164116	2.212398	0.499884
H85	H	-0.316985	1.226699	-0.000078
H86	H	0.183015	1.726699	0.499922
Br87	Br	-0.512585	0.821299	-0.000148
Br88	Br	-0.012585	1.321299	0.499852
Br89	Br	-0.615028	1.285855	-0.000091
Br90	Br	-0.115028	1.785855	0.499909
H91	H	-0.011738	1.655600	0.778063
H92	H	0.488262	2.155600	1.278063
Br93	Br	-0.306024	0.679057	-0.000149
Br94	Br	0.193976	1.179057	0.499851
Br95	Br	-0.011801	1.655634	0.138433
Br96	Br	0.488199	2.155634	0.638433
Br97	Br	0.138852	1.840031	0.319104
Br98	Br	0.638852	2.340031	0.819104
Br99	Br	0.138878	1.840024	0.680534
Br100	Br	0.638878	2.340024	1.180534
H101	H	-0.255494	1.357177	0.639034
H102	H	0.244506	1.857177	1.139034
H103	H	-0.255513	1.357173	0.360843
H104	H	0.244487	1.857173	0.860843
H105	H	0.014647	1.127836	-0.000062
H106	H	0.514647	1.627836	0.499938
Br107	Br	0.066982	0.856897	-0.000119
Br108	Br	0.566982	1.356897	0.499881
