data_functionalizedCrystal
_audit_creation_method	'MofGen! by Chris Wilmer'
_symmetry_space_group_name_H-M	'P1'
_symmetry_Int_Tables_number	1
_symmetry_cell_setting	triclinic
loop_
_symmetry_equiv_pos_as_xyz
  x,y,z
_cell_length_a	17.699077
_cell_length_b	11.026607
_cell_length_c	16.776229
_cell_angle_alpha	89.996140
_cell_angle_beta	89.993415
_cell_angle_gamma	95.933297
loop_
_atom_site_label
_atom_site_type_symbol
_atom_site_fract_x
_atom_site_fract_y
_atom_site_fract_z
O1	O	1.025153	0.153364	-0.066275
O2	O	1.525153	0.653364	0.433725
O3	O	0.807517	0.173329	-0.066279
O4	O	1.307517	0.673329	0.433721
O5	O	0.898297	-0.013253	-0.066274
O6	O	1.398297	0.486747	0.433726
O7	O	0.934372	0.339945	-0.066280
O8	O	1.434372	0.839945	0.433720
O9	O	0.898280	-0.013264	0.066302
O10	O	1.398280	0.486736	0.566302
O11	O	0.807500	0.173317	0.066298
O12	O	1.307500	0.673317	0.566298
O13	O	1.025136	0.153352	0.066301
O14	O	1.525136	0.653352	0.566301
Zn15	Zn	0.916315	0.163333	0.087349
Zn16	Zn	1.416315	0.663333	0.587349
Zn17	Zn	0.916337	0.163348	-0.087326
Zn18	Zn	1.416337	0.663348	0.412674
O19	O	0.934355	0.339934	0.066297
O20	O	1.434355	0.839934	0.566297
C21	C	0.779213	0.172609	0.000009
C22	C	1.279213	0.672609	0.500009
C23	C	0.694900	0.170466	0.000008
C24	C	1.194900	0.670466	0.500008
C25	C	0.655285	0.169451	0.072276
C26	C	1.155285	0.669451	0.572276
C27	C	0.576063	0.167418	0.072277
C28	C	1.076063	0.667418	0.572277
C29	C	0.536459	0.166410	0.000008
C30	C	1.036459	0.666410	0.500008
C31	C	0.576079	0.167422	-0.072265
C32	C	1.076079	0.667422	0.427735
C33	C	0.655299	0.169446	-0.072266
C34	C	1.155299	0.669446	0.427734
C35	C	0.256594	0.159259	-0.072267
C36	C	0.756594	0.659259	0.427733
C37	C	0.177369	0.157239	-0.072261
C38	C	0.677369	0.657239	0.427739
C39	C	0.177358	0.157231	0.072275
C40	C	0.677358	0.657231	0.572275
C41	C	0.256578	0.159255	0.072275
C42	C	0.756578	0.659255	0.572275
C43	C	0.296192	0.160261	0.000002
C44	C	0.796192	0.660261	0.500002
C45	C	0.382093	0.162462	0.000002
C46	C	0.882093	0.662462	0.500002
C47	C	0.450559	0.164217	0.000008
C48	C	0.950559	0.664217	0.500008
C49	C	0.891634	-0.058450	0.000013
C50	C	1.391634	0.441550	0.500013
C51	C	0.871794	-0.193105	0.000010
C52	C	1.371794	0.306895	0.500010
C53	C	0.926574	-0.267074	0.000009
C54	C	1.426574	0.232926	0.500009
C55	C	0.906070	-0.406247	0.000006
C56	C	1.406070	0.093753	0.500006
C57	C	1.053439	0.154072	0.000012
C58	C	1.553439	0.654072	0.500012
C59	C	1.137752	0.156215	0.000008
C60	C	1.637752	0.656215	0.500008
C61	C	0.941019	0.385131	0.000008
C62	C	1.441019	0.885131	0.500008
C63	C	0.960858	0.519786	0.000006
C64	C	1.460858	1.019786	0.500006
N65	N	0.916305	0.163322	0.206560
N66	N	1.416305	0.663322	0.706560
N67	N	0.916352	0.163349	-0.206538
N68	N	1.416352	0.663349	0.293462
C69	C	0.956523	0.080737	0.248279
C70	C	1.456523	0.580737	0.748279
C71	C	0.956527	0.080736	0.331731
C72	C	1.456527	0.580736	0.831731
C73	C	0.916317	0.163327	0.373463
C74	C	1.416317	0.663327	0.873463
C75	C	0.876094	0.245915	0.331738
C76	C	1.376094	0.745915	0.831738
C77	C	0.876086	0.245909	0.248287
C78	C	1.376086	0.745909	0.748287
C79	C	0.876125	0.245939	0.668285
C80	C	1.376125	0.745939	1.168285
C81	C	0.876138	0.245941	0.751742
C82	C	1.376138	0.745941	1.251742
C83	C	0.956566	0.080766	0.751729
C84	C	1.456566	0.580766	1.251729
C85	C	0.956558	0.080760	0.668278
C86	C	1.456558	0.580760	1.168278
C87	C	0.916332	0.163344	0.626561
C88	C	1.416332	0.663344	1.126561
C89	C	0.916327	0.163342	0.536073
C90	C	1.416327	0.663342	1.036073
C91	C	0.916326	0.163335	0.463950
C92	C	1.416326	0.663335	0.963950
H93	H	0.543827	0.166593	-0.131108
H94	H	1.043827	0.666593	0.368892
H95	H	0.988652	-0.227367	0.000015
H96	H	1.488652	0.272633	0.500015
H97	H	0.687526	0.170281	0.131125
H98	H	1.187526	0.670281	0.631125
C99	C	0.532490	0.166310	0.151772
C100	C	1.032490	0.666310	0.651772
H101	H	0.567424	0.167217	0.194812
H102	H	1.067424	0.667217	0.694812
H103	H	0.497727	0.094812	0.154784
H104	H	0.997727	0.594812	0.654784
H105	H	0.505446	0.236240	0.154770
H106	H	1.005446	0.736240	0.654770
H107	H	0.288821	0.160082	0.131124
H108	H	0.788821	0.660082	0.631124
C109	C	0.822203	-0.459868	0.000004
C110	C	1.322203	0.040132	0.500004
H111	H	0.819424	-0.546374	0.000007
H112	H	1.319424	-0.046374	0.500007
H113	H	0.797728	-0.433154	-0.046227
H114	H	1.297728	0.066846	0.453773
H115	H	0.797719	-0.433173	0.046243
H116	H	1.297719	0.066827	0.546243
H117	H	0.989275	0.013489	0.365699
H118	H	1.489275	0.513489	0.865699
C119	C	1.000786	-0.010092	0.622378
C120	C	1.500786	0.489908	1.122378
H121	H	1.024733	-0.059287	0.659177
H122	H	1.524733	0.440713	1.159177
H123	H	1.038221	0.033472	0.589810
H124	H	1.538221	0.533472	1.089810
H125	H	0.966678	-0.060536	0.589838
H126	H	1.466678	0.439464	1.089838
H127	H	1.022941	-0.440516	-0.000053
H128	H	1.522941	0.059484	0.499947
H129	H	0.809716	-0.232811	0.000003
H130	H	1.309716	0.267189	0.500003
H131	H	0.288838	0.160074	-0.131116
H132	H	0.788838	0.660074	0.368884
C133	C	1.000753	-0.010115	0.202381
C134	C	1.500753	0.489885	0.702381
H135	H	1.024700	-0.059307	0.239183
H136	H	1.524700	0.440693	0.739183
H137	H	1.038190	0.033450	0.169815
H138	H	1.538190	0.533450	0.669815
H139	H	0.966648	-0.060561	0.169841
H140	H	1.466648	0.439439	0.669841
C141	C	1.000805	-0.010088	0.797621
C142	C	1.500805	0.489912	1.297621
H143	H	0.995046	0.001729	0.853298
H144	H	1.495046	0.501729	1.353298
H145	H	1.053094	0.002982	0.783933
H146	H	1.553094	0.502982	1.283933
H147	H	0.981554	-0.091033	0.783950
H148	H	1.481554	0.408967	1.283950
C149	C	0.133787	0.156216	0.151776
C150	C	0.633787	0.656216	0.651776
H151	H	0.080935	0.154885	0.141430
H152	H	0.580935	0.654885	0.641430
H153	H	0.150651	0.227289	0.181423
H154	H	0.650651	0.727289	0.681423
H155	H	0.142888	0.085860	0.181515
H156	H	0.642888	0.585860	0.681515
H157	H	0.843392	0.313198	0.785718
H158	H	1.343392	0.813198	1.285718
C159	C	0.831886	0.336787	0.622406
C160	C	1.331886	0.836787	1.122406
H161	H	0.807949	0.385983	0.659214
H162	H	1.307949	0.885983	1.159214
H163	H	0.794441	0.293220	0.589863
H164	H	1.294441	0.793220	1.089863
H165	H	0.865984	0.387230	0.589843
H166	H	1.365984	0.887230	1.089843
H167	H	0.843350	0.313158	0.365721
H168	H	1.343350	0.813158	0.865721
H169	H	0.843336	0.313157	0.214321
H170	H	1.343336	0.813157	0.714321
H171	H	0.145125	0.156417	-0.131114
H172	H	0.645125	0.656417	0.368886
H173	H	0.687553	0.170276	-0.131114
H174	H	1.187553	0.670276	0.368886
