data_functionalizedCrystal
_audit_creation_method	'MofGen! by Chris Wilmer'
_symmetry_space_group_name_H-M	'P1'
_symmetry_Int_Tables_number	1
_symmetry_cell_setting	triclinic
loop_
_symmetry_equiv_pos_as_xyz
  x,y,z
_cell_length_a	10.654545
_cell_length_b	14.519731
_cell_length_c	9.130313
_cell_angle_alpha	89.994496
_cell_angle_beta	89.996934
_cell_angle_gamma	84.085966
loop_
_atom_site_label
_atom_site_type_symbol
_atom_site_fract_x
_atom_site_fract_y
_atom_site_fract_z
O1	O	1.666611	0.129511	-0.121788
O2	O	1.301014	0.141856	-0.121795
O3	O	1.493492	0.001497	-0.121778
O4	O	1.474133	0.269871	-0.121805
O5	O	1.493479	0.001493	0.121821
O6	O	1.301001	0.141852	0.121804
O7	O	1.666598	0.129507	0.121810
Cu8	Cu	1.483798	0.135679	0.144050
Cu9	Cu	1.483814	0.135684	-0.144034
O10	O	1.474120	0.269867	0.121794
C11	C	1.254218	0.140949	0.000004
C12	C	1.114801	0.138239	0.000002
C13	C	1.049301	0.136962	0.132788
C14	C	0.918306	0.134401	0.132789
C15	C	0.918321	0.134399	-0.132796
C16	C	1.049315	0.136953	-0.132795
C17	C	1.492578	-0.032869	0.000022
C18	C	1.489860	-0.135264	0.000022
C19	C	1.487652	-0.218419	0.000019
C20	C	1.484892	-0.322742	0.000008
C21	C	1.482702	-0.405893	-0.000002
C22	C	1.479942	-0.510222	-0.000010
C23	C	1.713394	0.130415	0.000008
C24	C	1.852812	0.133124	0.000001
C25	C	1.475034	0.304233	-0.000009
C26	C	1.477752	0.406627	-0.000020
N27	N	1.483796	0.135675	0.346672
N28	N	1.483826	0.135681	-0.346657
C29	C	1.569054	0.073550	0.423332
C30	C	1.569066	0.073551	0.576668
C31	C	1.398559	0.197809	0.576673
C32	C	1.398542	0.197803	0.423339
H33	H	0.864982	0.133361	0.240917
H34	H	1.638472	0.022961	0.360913
F35	F	0.848618	0.133012	-0.274119
H36	H	1.102616	0.138009	0.240920
F37	F	1.119029	0.138307	-0.274132
H38	H	1.638489	0.022962	0.639080
H39	H	1.329148	0.248393	0.639111
H40	H	1.329109	0.248393	0.360919
