data_functionalizedCrystal
_audit_creation_method	'MofGen! by Chris Wilmer'
_symmetry_space_group_name_H-M	'P1'
_symmetry_Int_Tables_number	1
_symmetry_cell_setting	triclinic
loop_
_symmetry_equiv_pos_as_xyz
  x,y,z
_cell_length_a	11.026607
_cell_length_b	11.792254
_cell_length_c	10.066323
_cell_angle_alpha	98.856302
_cell_angle_beta	79.309054
_cell_angle_gamma	96.392307
loop_
_atom_site_label
_atom_site_type_symbol
_atom_site_fract_x
_atom_site_fract_y
_atom_site_fract_z
O1	O	1.595645	0.488980	0.113499
O2	O	2.095645	0.988980	0.613499
O3	O	1.241980	0.434788	0.113499
O4	O	1.741980	0.934788	0.613499
O5	O	1.427389	0.298416	0.113489
O6	O	1.927389	0.798416	0.613489
O7	O	1.410237	0.625352	0.113509
O8	O	1.910237	1.125352	0.613509
O9	O	1.462714	0.272273	-0.113486
O10	O	1.962714	0.772273	0.386514
O11	O	1.277305	0.408645	-0.113476
O12	O	1.777305	0.908645	0.386524
O13	O	1.630970	0.462837	-0.113477
O14	O	2.130970	0.962837	0.386523
Zn15	Zn	1.459746	0.431590	-0.149514
Zn16	Zn	1.959746	0.931590	0.350486
Zn17	Zn	1.413204	0.466035	0.149536
Zn18	Zn	1.913204	0.966035	0.649536
O19	O	1.445562	0.599209	-0.113467
O20	O	1.945562	1.099209	0.386533
C21	C	1.214365	0.411719	0.000011
C22	C	1.714365	0.911719	0.500011
C23	C	1.079454	0.381917	0.000011
C24	C	1.579454	0.881917	0.500011
C25	C	1.443971	0.242839	0.000002
C26	C	1.943971	0.742839	0.500002
C27	C	1.440737	0.116185	0.000003
C28	C	1.940737	0.616185	0.500003
C29	C	1.006193	0.464208	0.000017
C30	C	1.506193	0.964208	0.500017
C31	C	0.866754	0.433407	0.000017
C32	C	1.366754	0.933407	0.500017
C33	C	1.438109	0.013327	0.000008
C34	C	1.938109	0.513327	0.500008
C35	C	1.434822	-0.115711	0.000021
C36	C	1.934822	0.384289	0.500021
C37	C	1.658584	0.485906	0.000014
C38	C	2.158584	0.985906	0.500014
C39	C	1.793495	0.515710	0.000023
C40	C	2.293495	1.015710	0.500023
C41	C	1.428979	0.654786	0.000023
C42	C	1.928979	1.154786	0.500023
C43	C	1.432211	0.781442	0.000031
C44	C	1.932211	1.281442	0.500031
N45	N	1.491519	0.408084	-0.353608
N46	N	1.991519	0.908084	0.146392
C47	C	1.424243	0.457854	-0.421412
C48	C	1.924243	0.957854	0.078588
C49	C	1.448727	0.439757	-0.578570
C50	C	1.948727	0.939757	-0.078570
N51	N	1.381441	0.489535	0.353630
N52	N	1.881441	0.989535	0.853630
H53	H	1.046703	0.557462	0.000015
H54	H	1.546703	1.057462	0.500015
C55	C	1.024735	0.255930	0.000004
C56	C	1.524735	0.755930	0.500004
N57	N	0.983522	0.161034	0.000000
N58	N	1.483522	0.661034	0.500000
H59	H	0.833997	0.608971	0.000019
H60	H	1.333997	1.108971	0.500019
C61	C	1.551034	0.364087	-0.657318
C62	C	2.051034	0.864087	-0.157318
N63	N	1.628089	0.307092	-0.716633
N64	N	2.128089	0.807092	-0.216633
C65	C	1.321940	0.533520	-0.342658
C66	C	1.821940	1.033520	0.157342
N67	N	1.244882	0.590511	-0.283343
N68	N	1.744882	1.090511	0.216657
H69	H	1.305716	0.545551	-0.588077
H70	H	1.805716	1.045551	-0.088077
H71	H	1.567248	0.352081	-0.411906
H72	H	2.067248	0.852081	0.088094
H73	H	0.826246	0.340150	0.000047
H74	H	1.326246	0.840150	0.500047
