data_functionalizedCrystal
_audit_creation_method	'MofGen! by Chris Wilmer'
_symmetry_space_group_name_H-M	'P1'
_symmetry_Int_Tables_number	1
_symmetry_cell_setting	triclinic
loop_
_symmetry_equiv_pos_as_xyz
  x,y,z
_cell_length_a	13.101039
_cell_length_b	16.109301
_cell_length_c	16.109301
_cell_angle_alpha	96.538519
_cell_angle_beta	93.359902
_cell_angle_gamma	93.353949
loop_
_atom_site_label
_atom_site_type_symbol
_atom_site_fract_x
_atom_site_fract_y
_atom_site_fract_z
O1	O	-0.085153	-1.107703	0.102280
O2	O	0.248181	-0.774370	0.435614
O3	O	0.581514	-0.441037	0.768947
O4	O	-0.085169	-0.865642	0.115579
O5	O	0.248164	-0.532309	0.448912
O6	O	0.581497	-0.198976	0.782246
O7	O	-0.085150	-0.993322	-0.012101
O8	O	0.248183	-0.659989	0.321233
O9	O	0.581517	-0.326655	0.654566
O10	O	-0.085172	-0.980024	0.229960
O11	O	0.248161	-0.646691	0.563293
O12	O	0.581495	-0.313357	0.896627
O13	O	0.085278	-0.984161	-0.002925
O14	O	0.418612	-0.650828	0.330409
O15	O	0.751945	-0.317494	0.663742
O16	O	0.085259	-0.856482	0.124755
O17	O	0.418592	-0.523148	0.458088
O18	O	0.751926	-0.189815	0.791422
O19	O	0.085276	-1.098543	0.111456
O20	O	0.418609	-0.765209	0.444790
O21	O	0.751942	-0.431876	0.778123
Zn22	Zn	0.112327	-0.976058	0.119563
Zn23	Zn	0.445660	-0.642724	0.452896
Zn24	Zn	0.778993	-0.309391	0.786229
Zn25	Zn	-0.112220	-0.988127	0.107473
Zn26	Zn	0.221113	-0.654794	0.440806
Zn27	Zn	0.554446	-0.321461	0.774139
O28	O	0.085257	-0.970863	0.239136
O29	O	0.418590	-0.637530	0.572469
O30	O	0.751923	-0.304196	0.905803
C31	C	0.000043	-0.830087	0.119628
C32	C	0.333376	-0.496754	0.452961
C33	C	0.666710	-0.163421	0.786295
C34	C	0.000037	-0.737792	0.118013
C35	C	0.333370	-0.404459	0.451346
C36	C	0.666704	-0.071126	0.784679
N37	N	0.265574	-0.967826	0.127813
N38	N	0.598907	-0.634493	0.461146
N39	N	0.932241	-0.301160	0.794480
N40	N	-0.265467	-0.996365	0.099216
N41	N	0.067866	-0.663032	0.432549
N42	N	0.401199	-0.329699	0.765882
C43	C	0.474615	-0.956627	0.139046
C44	C	0.807948	-0.623294	0.472379
C45	C	1.141282	-0.289961	0.805712
C46	C	0.525498	-1.007562	0.087986
C47	C	0.858832	-0.674228	0.421319
C48	C	1.192165	-0.340895	0.754652
C49	C	0.641816	-1.001330	0.094236
C50	C	0.975149	-0.667997	0.427569
C51	C	1.308482	-0.334664	0.760902
C52	C	0.358287	-0.962858	0.132797
C53	C	0.691620	-0.629524	0.466130
C54	C	1.024953	-0.296191	0.799463
C55	C	0.000065	-0.988203	-0.038488
C56	C	0.333398	-0.654870	0.294846
C57	C	0.666731	-0.321536	0.628179
C58	C	0.000066	-0.986588	-0.130783
C59	C	0.333399	-0.653254	0.202551
C60	C	0.666733	-0.319921	0.535884
C61	C	0.000061	-1.134098	0.107407
C62	C	0.333395	-0.800765	0.440740
C63	C	0.666728	-0.467431	0.774074
C64	C	0.000061	-1.226393	0.109022
C65	C	0.333394	-0.893060	0.442356
C66	C	0.666727	-0.559727	0.775689
C67	C	0.000042	-0.515520	0.190021
C68	C	0.333376	-0.182186	0.523354
C69	C	0.666709	0.151147	0.856687
C70	C	0.000049	-0.428799	0.188497
C71	C	0.333382	-0.095465	0.521830
C72	C	0.666716	0.237868	0.855164
C73	C	0.000058	-0.448673	0.037009
C74	C	0.333392	-0.115339	0.370342
C75	C	0.666725	0.217994	0.703675
C76	C	0.000059	-0.535391	0.038534
C77	C	0.333392	-0.202058	0.371867
C78	C	0.666726	0.131275	0.705200
C79	C	0.000046	-0.568812	0.115042
C80	C	0.333379	-0.235479	0.448375
C81	C	0.666712	0.097854	0.781708
C82	C	0.000052	-0.395373	0.111993
C83	C	0.333385	-0.062040	0.445326
C84	C	0.666718	0.271294	0.778660
C85	C	0.000059	-0.301347	0.110340
C86	C	0.333392	0.031987	0.443674
C87	C	0.666726	0.365320	0.777007
C88	C	0.000040	-0.662845	0.116695
C89	C	0.333374	-0.329511	0.450028
C90	C	0.666707	0.003822	0.783362
C91	C	0.000055	-1.058596	-0.353056
C92	C	0.333388	-0.725263	-0.019722
C93	C	0.666721	-0.391929	0.313611
C94	C	0.000046	-1.057072	-0.439777
C95	C	0.333379	-0.723739	-0.106443
C96	C	0.666713	-0.390406	0.226890
C97	C	0.000040	-0.905584	-0.419903
C98	C	0.333373	-0.572251	-0.086569
C99	C	0.666706	-0.238917	0.246764
C100	C	0.000041	-0.907109	-0.333184
C101	C	0.333374	-0.573775	0.000149
C102	C	0.666708	-0.240442	0.333483
C103	C	0.000054	-0.983617	-0.299763
C104	C	0.333387	-0.650284	0.033571
C105	C	0.666720	-0.316950	0.366904
C106	C	0.000044	-0.980569	-0.473202
C107	C	0.333377	-0.647235	-0.139869
C108	C	0.666711	-0.313902	0.193464
C109	C	0.000035	-0.978916	-0.567229
C110	C	0.333368	-0.645583	-0.233896
C111	C	0.666701	-0.312249	0.099438
C112	C	0.000061	-0.985270	-0.205730
C113	C	0.333394	-0.651937	0.127603
C114	C	0.666728	-0.318603	0.460936
C115	C	0.000040	-0.975982	0.265523
C116	C	0.333373	-0.642649	0.598856
C117	C	0.666706	-0.309316	0.932189
C118	C	0.000032	-0.977598	0.357818
C119	C	0.333365	-0.644265	0.691151
C120	C	0.666698	-0.310931	1.024484
H121	H	0.481703	-1.055848	0.039579
H122	H	0.815037	-0.722515	0.372912
H123	H	1.148370	-0.389181	0.706245
H124	H	0.000075	-0.421450	-0.025281
H125	H	0.333409	-0.088117	0.308052
H126	H	0.666742	0.245217	0.641385
Cl127	Cl	0.000046	-0.361805	0.282761
Cl128	Cl	0.333379	-0.028472	0.616094
Cl129	Cl	0.666713	0.304862	0.949427
H130	H	0.000037	-0.846048	-0.289790
H131	H	0.333370	-0.512715	0.043543
H132	H	0.666704	-0.179382	0.376876
H133	H	0.518405	-0.908345	0.187451
H134	H	0.851738	-0.575012	0.520784
H135	H	1.185071	-0.241678	0.854117
H136	H	0.000039	-0.542727	0.252319
H137	H	0.333372	-0.209394	0.585652
H138	H	0.666706	0.123939	0.918985
Cl139	Cl	0.000045	-1.151336	-0.506771
Cl140	Cl	0.333379	-0.818003	-0.173437
Cl141	Cl	0.666712	-0.484670	0.159896
H142	H	0.000065	-0.578785	-0.022527
H143	H	0.333398	-0.245452	0.310807
H144	H	0.666731	0.087882	0.644140
H145	H	0.000063	-1.120894	-0.325848
H146	H	0.333396	-0.787561	0.007486
H147	H	0.666730	-0.454227	0.340819
Cl148	Cl	0.000024	-0.809408	-0.461924
Cl149	Cl	0.333358	-0.476074	-0.128591
Cl150	Cl	0.666691	-0.142741	0.204742
