data_functionalizedCrystal
_audit_creation_method	'MofGen! by Chris Wilmer'
_symmetry_space_group_name_H-M	'P1'
_symmetry_Int_Tables_number	1
_symmetry_cell_setting	triclinic
loop_
_symmetry_equiv_pos_as_xyz
  x,y,z
_cell_length_a	14.519709
_cell_length_b	14.519709
_cell_length_c	15.455322
_cell_angle_alpha	92.669304
_cell_angle_beta	87.319028
_cell_angle_gamma	83.680145
loop_
_atom_site_label
_atom_site_type_symbol
_atom_site_fract_x
_atom_site_fract_y
_atom_site_fract_z
O1	O	1.227897	0.116870	-0.072019
O2	O	1.561231	0.450203	0.261314
O3	O	1.894564	0.783536	0.594647
O4	O	0.959422	0.131105	-0.072046
O5	O	1.292755	0.464438	0.261287
O6	O	1.626089	0.797772	0.594621
O7	O	1.100778	-0.010251	-0.072024
O8	O	1.434111	0.323083	0.261309
O9	O	1.767444	0.656416	0.594642
O10	O	1.086542	0.258225	-0.072041
O11	O	1.419875	0.591559	0.261292
O12	O	1.753209	0.924892	0.594625
O13	O	1.092693	-0.002200	0.072237
O14	O	1.426026	0.331133	0.405570
O15	O	1.759360	0.664467	0.738903
O16	O	0.951338	0.139156	0.072215
O17	O	1.284671	0.472489	0.405548
O18	O	1.618004	0.805822	0.738881
O19	O	1.219813	0.124921	0.072242
O20	O	1.553146	0.458254	0.405575
O21	O	1.886480	0.791587	0.738908
Cu22	Cu	1.084837	0.132773	0.085400
Cu23	Cu	1.418170	0.466107	0.418734
Cu24	Cu	1.751504	0.799440	0.752067
Cu25	Cu	1.094398	0.123252	-0.085205
Cu26	Cu	1.427731	0.456586	0.248128
Cu27	Cu	1.761065	0.789919	0.581462
O28	O	1.078457	0.266276	0.072220
O29	O	1.411791	0.599609	0.405553
O30	O	1.745124	0.932943	0.738886
C31	C	1.096072	-0.040585	0.000106
C32	C	1.429405	0.292748	0.333440
C33	C	1.762738	0.626082	0.666773
C34	C	1.094084	-0.142966	0.000107
C35	C	1.427417	0.190367	0.333440
C36	C	1.760750	0.523700	0.666773
C37	C	0.921020	0.134467	0.000081
C38	C	1.254354	0.467800	0.333414
C39	C	1.587687	0.801133	0.666748
C40	C	0.818639	0.132478	0.000071
C41	C	1.151973	0.465811	0.333404
C42	C	1.485306	0.799144	0.666738
C43	C	0.443741	0.125161	0.000111
C44	C	0.777075	0.458494	0.333444
C45	C	1.110408	0.791827	0.666778
C46	C	0.548050	0.127193	0.000100
C47	C	0.881383	0.460526	0.333433
C48	C	1.214717	0.793859	0.666766
C49	C	0.631187	0.128819	0.000090
C50	C	0.964521	0.462152	0.333424
C51	C	1.297854	0.795486	0.666757
C52	C	0.735502	0.130851	0.000080
C53	C	1.068836	0.464185	0.333414
C54	C	1.402169	0.797518	0.666747
C55	C	1.086765	-0.517863	0.000083
C56	C	1.420099	-0.184530	0.333417
C57	C	1.753432	0.148803	0.666750
C58	C	1.088798	-0.413555	0.000090
C59	C	1.422131	-0.080222	0.333423
C60	C	1.755464	0.253112	0.666757
C61	C	1.090424	-0.330418	0.000096
C62	C	1.423758	0.002915	0.333429
C63	C	1.757091	0.336249	0.666762
C64	C	1.092457	-0.226103	0.000101
C65	C	1.425790	0.107230	0.333434
C66	C	1.759124	0.440563	0.666768
C67	C	1.258215	0.121559	0.000113
C68	C	1.591548	0.454892	0.333446
C69	C	1.924882	0.788225	0.666779
C70	C	1.360596	0.123547	0.000117
C71	C	1.693929	0.456881	0.333450
C72	C	2.027263	0.790214	0.666783
C73	C	1.083163	0.296610	0.000087
C74	C	1.416497	0.629944	0.333421
C75	C	1.749830	0.963277	0.666754
C76	C	1.085152	0.398991	0.000081
C77	C	1.418485	0.732325	0.333415
C78	C	1.751818	1.065658	0.666748
N79	N	1.078119	0.139469	0.205395
N80	N	1.411453	0.472802	0.538728
N81	N	1.744786	0.806136	0.872061
C82	C	1.138193	0.079439	0.250798
C83	C	1.471526	0.412772	0.584132
C84	C	1.804859	0.746105	0.917465
C85	C	1.133121	0.084511	0.341605
C86	C	1.466454	0.417844	0.674939
C87	C	1.799787	0.751178	1.008272
C88	C	1.067979	0.149619	0.387007
C89	C	1.401312	0.482952	0.720341
C90	C	1.734646	0.816286	1.053674
C91	C	1.007899	0.209652	0.341598
C92	C	1.341233	0.542985	0.674931
C93	C	1.674566	0.876319	1.008264
C94	C	1.012968	0.204575	0.250792
C95	C	1.346301	0.537908	0.584125
C96	C	1.679634	0.871241	0.917459
C97	C	1.046104	0.171510	0.658585
C98	C	1.379437	0.504843	0.991919
C99	C	1.712771	0.838176	1.325252
C100	C	1.041042	0.176585	0.749397
C101	C	1.374375	0.509918	1.082731
C102	C	1.707709	0.843251	1.416064
C103	C	1.166263	0.051442	0.749399
C104	C	1.499596	0.384775	1.082732
C105	C	1.832930	0.718109	1.416065
C106	C	1.171329	0.046374	0.658592
C107	C	1.504662	0.379707	0.991925
C108	C	1.837996	0.713041	1.325258
C109	C	1.111246	0.106404	0.613190
C110	C	1.444579	0.439737	0.946523
C111	C	1.777913	0.773070	1.279856
N112	N	1.062795	0.154807	0.479827
N113	N	1.396129	0.488141	0.813160
N114	N	1.729462	0.821474	1.146493
N115	N	1.116426	0.101210	0.520372
N116	N	1.449759	0.434544	0.853705
N117	N	1.783093	0.767877	1.187039
N118	N	1.101115	0.116554	0.794801
N119	N	1.434449	0.449888	1.128134
N120	N	1.767782	0.783221	1.461467
H121	H	1.191241	0.026425	0.213838
H122	H	1.524575	0.359758	0.547171
H123	H	1.857908	0.693092	0.880505
F124	F	1.197056	0.020619	0.389927
F125	F	1.530390	0.353953	0.723261
F126	F	1.863723	0.687286	1.056594
F127	F	1.230201	-0.012444	0.797724
F128	F	1.563534	0.320889	1.131057
F129	F	1.896868	0.654223	1.464391
H130	H	1.224372	-0.006642	0.621627
H131	H	1.557706	0.326691	0.954960
H132	H	1.891039	0.660025	1.288294
H133	H	0.987993	0.229607	0.786359
H134	H	1.321327	0.562940	1.119693
H135	H	1.654660	0.896274	1.453026
H136	H	0.997183	0.220390	0.621626
H137	H	1.330517	0.553724	0.954960
H138	H	1.663850	0.887057	1.288293
F139	F	0.938565	0.278941	0.389918
F140	F	1.271899	0.612275	0.723252
F141	F	1.605232	0.945608	1.056585
H142	H	0.964048	0.253457	0.213825
H143	H	1.297382	0.586790	0.547159
H144	H	1.630715	0.920123	0.880492
