data_functionalizedCrystal
_audit_creation_method	'MofGen! by Chris Wilmer'
_symmetry_space_group_name_H-M	'P1'
_symmetry_Int_Tables_number	1
_symmetry_cell_setting	triclinic
loop_
_symmetry_equiv_pos_as_xyz
  x,y,z
_cell_length_a	12.759401
_cell_length_b	12.759394
_cell_length_c	12.759393
_cell_angle_alpha	90.031220
_cell_angle_beta	90.020938
_cell_angle_gamma	90.016362
loop_
_atom_site_label
_atom_site_type_symbol
_atom_site_fract_x
_atom_site_fract_y
_atom_site_fract_z
Zn1	Zn	1.606265	-0.418173	0.594015
Zn2	Zn	1.606156	-0.593889	0.418333
Zn3	Zn	1.430564	-0.418229	0.418350
Zn4	Zn	1.430556	-0.593815	0.593970
O5	O	1.518385	-0.506026	0.506167
O6	O	1.753272	-0.441489	0.570722
O7	O	1.582821	-0.570641	0.271314
O8	O	1.453921	-0.271200	0.441678
O9	O	1.753192	-0.570587	0.441649
O10	O	1.583008	-0.271159	0.570739
O11	O	1.453815	-0.441585	0.271327
O12	O	1.283542	-0.441513	0.441635
O13	O	1.453906	-0.570462	0.740997
O14	O	1.283536	-0.570516	0.570662
O15	O	1.582999	-0.441418	0.741030
O16	O	1.582813	-0.740900	0.441605
O17	O	1.453800	-0.740846	0.570645
C18	C	1.245418	-0.506014	0.506146
C19	C	1.128641	-0.506033	0.506162
C20	C	1.518322	-0.778994	0.506141
C21	C	1.518391	-0.895771	0.506166
C22	C	1.073804	-0.573307	0.573241
C23	C	0.964080	-0.573311	0.573262
C24	C	0.964041	-0.438765	0.439116
C25	C	1.073763	-0.438756	0.439101
C26	C	1.652833	-0.895773	0.371897
C27	C	1.720082	-0.950636	0.304775
C28	C	1.720143	-1.060357	0.304804
C29	C	1.652951	-1.115219	0.371964
C30	C	1.585703	-1.060357	0.439086
C31	C	1.585647	-0.950633	0.439048
C32	C	1.451268	-1.060354	0.573358
C33	C	1.451200	-0.950632	0.573326
C34	C	1.384076	-1.115216	0.640518
C35	C	1.316821	-1.060354	0.707636
C36	C	1.316761	-0.950626	0.707604
C37	C	1.383951	-0.895770	0.640448
C38	C	1.792419	-0.506040	0.506188
C39	C	1.909195	-0.506046	0.506198
C40	C	1.518464	-0.505925	0.780200
C41	C	1.518497	-0.505883	0.896977
C42	C	1.518477	-0.231993	0.506215
C43	C	1.518516	-0.115216	0.506236
C44	C	1.518367	-0.506051	0.233200
C45	C	1.518537	-0.505798	0.116423
C46	C	1.585721	-0.438679	0.951858
C47	C	1.585739	-0.438633	1.061582
C48	C	1.451306	-0.573005	1.061535
C49	C	1.451284	-0.573044	0.951813
H50	H	1.118483	-0.628086	0.627849
H51	H	0.919345	-0.383991	0.384516
H52	H	1.640448	-0.383989	0.907214
C53	C	1.378517	-0.646056	1.121130
C54	C	1.437996	-0.713396	1.184096
C55	C	1.370980	-0.780717	1.238997
H56	H	1.332744	-0.605971	1.164021
H57	H	1.338494	-0.686147	1.072762
H58	H	1.478002	-0.673309	1.232459
H59	H	1.483767	-0.753505	1.141232
H60	H	1.330957	-0.820808	1.190629
H61	H	1.325210	-0.740623	1.281882
H62	H	1.411327	-0.826421	1.281719
H63	H	0.919435	-0.628091	0.627885
H64	H	1.118413	-0.383967	0.384478
C65	C	1.652952	-0.776647	0.371740
C66	C	1.726200	-0.740343	0.298577
C67	C	1.726348	-0.630610	0.298411
H68	H	1.585207	-0.751771	0.353475
H69	H	1.671131	-0.751710	0.439526
H70	H	1.708015	-0.765269	0.230806
H71	H	1.793954	-0.765190	0.316825
H72	H	1.744527	-0.605673	0.366196
H73	H	1.658600	-0.605744	0.280148
H74	H	1.776052	-0.605964	0.248778
C75	C	1.792963	-0.891203	0.231687
C76	C	1.770157	-0.918021	0.127730
C77	C	1.837282	-0.863306	0.060374
H78	H	1.783361	-0.817983	0.241136
H79	H	1.863577	-0.909132	0.247056
H80	H	1.699560	-0.900084	0.112365
H81	H	1.779765	-0.991231	0.118248
H82	H	1.907896	-0.881236	0.075744
H83	H	1.827675	-0.790090	0.069832
H84	H	1.821824	-0.881502	-0.010167
C85	C	1.793328	-1.119790	0.231991
C86	C	1.897252	-1.092978	0.254927
C87	C	1.964698	-1.147694	0.187865
H88	H	1.783883	-1.193009	0.241561
H89	H	1.778037	-1.101858	0.161364
H90	H	1.912537	-1.110917	0.325536
H91	H	1.906730	-1.019768	0.245351
H92	H	1.949408	-1.129762	0.117239
H93	H	1.955244	-1.220910	0.197441
H94	H	2.035217	-1.129502	0.203412
H95	H	1.262004	-0.905962	0.762267
C96	C	1.653142	-1.234346	0.371811
C97	C	1.726403	-1.270649	0.298643
C98	C	1.726596	-1.380383	0.298465
H99	H	1.671330	-1.259222	0.439571
H100	H	1.585384	-1.259281	0.353543
H101	H	1.794145	-1.245724	0.316917
H102	H	1.708231	-1.245802	0.230872
H103	H	1.658839	-1.405319	0.280197
H104	H	1.744783	-1.405249	0.366228
H105	H	1.776296	-1.405029	0.248815
H106	H	1.384136	-1.204557	0.640541
C107	C	1.383694	-0.776644	0.640527
C108	C	1.310405	-0.740334	0.713665
C109	C	1.310134	-0.630601	0.713755
H110	H	1.451410	-0.751621	0.658776
H111	H	1.365488	-0.751858	0.572724
H112	H	1.328617	-0.765109	0.781453
H113	H	1.242678	-0.765328	0.695433
H114	H	1.291928	-0.605815	0.645952
H115	H	1.377853	-0.605589	0.732002
H116	H	1.260402	-0.605951	0.763371
H117	H	1.262124	-1.105031	0.762317
H118	H	1.640478	-0.383908	1.106261
C119	C	1.378255	-0.646130	0.892409
C120	C	1.319424	-0.704965	0.963913
C121	C	1.252151	-0.772306	0.909229
H122	H	1.332393	-0.606068	0.849602
H123	H	1.418399	-0.691979	0.849626
H124	H	1.279283	-0.659122	1.006678
H125	H	1.365259	-0.745049	1.006722
H126	H	1.292295	-0.818156	0.866446
H127	H	1.206295	-0.732235	0.866424
H128	H	1.212233	-0.812241	0.957736
