data_functionalizedCrystal
_audit_creation_method	'MofGen! by Chris Wilmer'
_symmetry_space_group_name_H-M	'P1'
_symmetry_Int_Tables_number	1
_symmetry_cell_setting	triclinic
loop_
_symmetry_equiv_pos_as_xyz
  x,y,z
_cell_length_a	14.853569
_cell_length_b	15.995350
_cell_length_c	15.072220
_cell_angle_alpha	89.994173
_cell_angle_beta	89.997087
_cell_angle_gamma	83.563970
loop_
_atom_site_label
_atom_site_type_symbol
_atom_site_fract_x
_atom_site_fract_y
_atom_site_fract_z
O1	O	1.196217	0.109328	-0.073737
O2	O	1.696217	0.609328	0.426263
O3	O	0.933740	0.122349	-0.073748
O4	O	1.433740	0.622349	0.426252
O5	O	1.072153	-0.006041	-0.073741
O6	O	1.572153	0.493959	0.426259
O7	O	1.057803	0.237717	-0.073744
O8	O	1.557803	0.737717	0.426256
O9	O	1.072141	-0.006053	0.073824
O10	O	1.572141	0.493947	0.573824
O11	O	0.933728	0.122337	0.073818
O12	O	1.433728	0.622337	0.573818
O13	O	1.196205	0.109316	0.073828
O14	O	1.696205	0.609316	0.573828
Zn15	Zn	1.064964	0.115824	0.097252
Zn16	Zn	1.564964	0.615824	0.597252
Zn17	Zn	1.064980	0.115840	-0.097172
Zn18	Zn	1.564980	0.615840	0.402828
O19	O	1.057791	0.237705	0.073822
O20	O	1.557791	0.737705	0.573822
C21	C	0.900146	0.121752	0.000034
C22	C	1.400146	0.621752	0.500034
C23	C	0.800065	0.119984	0.000030
C24	C	1.300065	0.619984	0.500030
C25	C	0.763792	0.042888	0.000027
C26	C	1.263792	0.542888	0.500027
C27	C	0.742297	0.195418	0.000036
C28	C	1.242297	0.695418	0.500036
C29	C	0.648265	0.193759	0.000037
C30	C	1.148265	0.693759	0.500037
C31	C	0.611992	0.116663	0.000034
C32	C	1.111992	0.616663	0.500034
C33	C	0.669752	0.041226	0.000031
C34	C	1.169752	0.541226	0.500031
C35	C	0.590499	0.269195	0.000049
C36	C	1.090499	0.769195	0.500049
C37	C	0.496461	0.267538	0.000051
C38	C	0.996461	0.767538	0.500051
C39	C	0.460186	0.190441	0.000043
C40	C	0.960186	0.690441	0.500043
C41	C	0.517952	0.115001	0.000038
C42	C	1.017952	0.615001	0.500038
C43	C	0.481679	0.037905	0.000036
C44	C	0.981679	0.537905	0.500036
C45	C	0.539443	-0.037536	0.000025
C46	C	1.039443	0.462464	0.500025
C47	C	0.633477	-0.035871	0.000022
C48	C	1.133477	0.464129	0.500022
C49	C	0.366152	0.188777	0.000045
C50	C	0.866152	0.688777	0.500045
C51	C	0.387639	0.036244	0.000039
C52	C	0.887639	0.536244	0.500039
C53	C	1.071554	-0.037243	0.000039
C54	C	1.571554	0.462757	0.500039
C55	C	1.069775	-0.130195	0.000034
C56	C	1.569775	0.369805	0.500034
C57	C	1.063388	-0.467950	0.000037
C58	C	1.563388	0.032050	0.500037
C59	C	0.964813	-0.420631	-0.000298
C60	C	1.464813	0.079369	0.499702
C61	C	0.966591	-0.323939	0.000035
C62	C	1.466591	0.176061	0.500035
C63	C	1.066556	-0.300386	0.000035
C64	C	1.566556	0.199614	0.500035
C65	C	1.115170	-0.341413	0.084303
C66	C	1.615170	0.158587	0.584303
C67	C	1.112694	-0.438052	0.084373
C68	C	1.612694	0.061948	0.584373
C69	C	1.114744	-0.438394	-0.083436
C70	C	1.614744	0.061606	0.416564
C71	C	1.114721	-0.341449	-0.084550
C72	C	1.614721	0.158551	0.415450
C73	C	1.068352	-0.205686	0.000037
C74	C	1.568352	0.294314	0.500037
C75	C	1.061595	-0.562650	0.000041
C76	C	1.561595	-0.062650	0.500041
C77	C	1.229798	0.109912	0.000045
C78	C	1.729798	0.609912	0.500045
C79	C	1.329880	0.111681	0.000043
C80	C	1.829880	0.611681	0.500043
C81	C	1.058390	0.268907	0.000039
C82	C	1.558390	0.768907	0.500039
C83	C	1.060169	0.361859	0.000038
C84	C	1.560169	0.861859	0.500038
N85	N	1.064960	0.115813	0.229941
N86	N	1.564960	0.615813	0.729941
N87	N	1.064991	0.115845	-0.229860
N88	N	1.564991	0.615845	0.270140
C89	C	1.064970	0.115824	0.410938
C90	C	1.564970	0.615824	0.910938
C91	C	1.139050	0.047149	0.448583
C92	C	1.639050	0.547149	0.948583
C93	C	1.139319	0.047332	0.551408
C94	C	1.639319	0.547332	1.051408
C95	C	1.064981	0.115834	0.589142
C96	C	1.564981	0.615834	1.089142
C97	C	1.085137	0.203330	0.551797
C98	C	1.585137	0.703330	1.051797
C99	C	1.085663	0.202921	0.448939
C100	C	1.585663	0.702921	0.948939
C101	C	0.970513	0.097790	0.448854
C102	C	1.470513	0.597790	0.948854
C103	C	0.971152	0.095812	0.551718
C104	C	1.471152	0.595812	1.051718
C105	C	1.064985	0.115844	0.689856
C106	C	1.564985	0.615844	1.189856
C107	C	1.064968	0.115819	0.310225
C108	C	1.564968	0.615819	0.810225
H109	H	0.810827	-0.018534	0.000015
H110	H	1.310827	0.481466	0.500015
Br111	Br	0.902899	-0.276628	-0.100646
Br112	Br	1.402899	0.223372	0.399354
H113	H	1.079178	-0.314236	-0.146888
H114	H	1.579178	0.185764	0.353112
H115	H	0.319125	0.250200	0.000062
H116	H	0.819125	0.750200	0.500062
H117	H	1.187423	-0.470070	-0.084002
H118	H	1.687423	0.029930	0.415998
Br119	Br	0.997573	0.290597	0.592523
Br120	Br	1.497573	0.790597	1.092523
Br121	Br	0.945626	-0.011460	0.592424
Br122	Br	1.445626	0.488540	1.092424
Br123	Br	1.198620	0.230338	0.594724
Br124	Br	1.698620	0.730338	1.094724
H125	H	1.127317	-0.018092	0.423838
H126	H	1.627317	0.481908	0.923838
Br127	Br	0.899146	-0.451582	-0.101021
Br128	Br	1.399146	0.048418	0.398979
H129	H	1.082520	-0.458966	-0.147306
H130	H	1.582520	0.041034	0.352694
H131	H	0.925583	-0.440276	0.059793
H132	H	1.425583	0.059724	0.559793
H133	H	1.127374	-0.017693	0.576659
H134	H	1.627374	0.482307	1.076659
H135	H	0.620039	0.331962	0.000057
H136	H	1.120039	0.831962	0.500057
H137	H	1.154538	0.218745	0.424944
H138	H	1.654538	0.718745	0.924944
H139	H	0.358114	-0.026538	0.000033
H140	H	0.858114	0.473462	0.500033
Br141	Br	0.490204	-0.142162	0.000034
Br142	Br	0.990204	0.357838	0.500034
H143	H	0.951047	0.035326	0.422920
H144	H	1.451047	0.535326	0.922920
H145	H	1.208757	0.058546	0.422720
H146	H	1.708757	0.558546	0.922720
H147	H	1.077234	-0.456400	0.147364
H148	H	1.577234	0.043600	0.647364
H149	H	1.209424	0.058903	0.576012
H150	H	1.709424	0.558903	1.076012
H151	H	1.033590	0.255460	0.424035
H152	H	1.533590	0.755460	0.924035
Br153	Br	1.233314	-0.491665	0.090757
Br154	Br	1.733314	0.008335	0.590757
H155	H	0.913472	0.142559	0.577401
H156	H	1.413472	0.642559	1.077401
Br157	Br	0.902448	-0.277570	0.100880
Br158	Br	1.402448	0.222430	0.600880
Br159	Br	0.878637	0.181254	0.408278
Br160	Br	1.378637	0.681254	0.908278
H161	H	0.680517	-0.097291	0.000015
H162	H	1.180517	0.402709	0.500015
H163	H	1.188612	-0.327202	0.087436
H164	H	1.688612	0.172798	0.587436
H165	H	1.081396	-0.313076	0.147011
H166	H	1.581396	0.186924	0.647011
H167	H	0.771836	0.258186	0.000044
H168	H	1.271836	0.758186	0.500044
H169	H	0.449437	0.328967	0.000059
H170	H	0.949437	0.828967	0.500059
H171	H	1.187620	-0.326001	-0.089637
H172	H	1.687620	0.173999	0.410363
