data_functionalizedCrystal
_audit_creation_method	'MofGen! by Chris Wilmer'
_symmetry_space_group_name_H-M	'P1'
_symmetry_Int_Tables_number	1
_symmetry_cell_setting	triclinic
loop_
_symmetry_equiv_pos_as_xyz
  x,y,z
_cell_length_a	20.875641
_cell_length_b	20.016444
_cell_length_c	20.016444
_cell_angle_alpha	90.002955
_cell_angle_beta	57.589539
_cell_angle_gamma	62.442235
loop_
_atom_site_label
_atom_site_type_symbol
_atom_site_fract_x
_atom_site_fract_y
_atom_site_fract_z
Zr1	Zr	0.702146	0.670414	-0.114507
O2	O	0.835965	0.568851	-0.226297
O3	O	0.568326	0.698001	-0.076691
O4	O	0.702152	0.703109	-0.221184
O5	O	0.702134	0.563749	0.028142
O6	O	0.702157	0.813049	-0.221184
O7	O	0.702139	0.563743	-0.081804
O8	O	0.462767	0.803912	0.037288
O9	O	0.941524	0.572886	-0.230331
O10	O	0.623372	0.796100	-0.064847
O11	O	0.623364	0.714057	0.017204
O12	O	0.780927	0.720071	-0.152918
O13	O	0.780919	0.638028	-0.070867
Zr14	Zr	0.702146	0.845765	0.060843
Zr15	Zr	0.702154	0.845756	-0.114507
Zr16	Zr	0.702137	0.670423	0.060844
Zr17	Zr	0.870500	0.676849	-0.120940
Zr18	Zr	0.533791	0.839330	0.067276
O19	O	0.835965	0.818177	0.023027
O20	O	0.835976	0.818164	-0.226298
O21	O	0.835953	0.568864	0.023028
O22	O	0.568326	0.947328	0.172634
O23	O	0.568338	0.947315	-0.076691
O24	O	0.568315	0.698014	0.172635
O25	O	0.702157	0.952430	-0.081805
O26	O	0.702139	0.813069	0.167521
O27	O	0.702134	0.703129	0.167521
O28	O	0.702152	0.952435	0.028140
O29	O	0.941530	0.712259	-0.230331
O30	O	0.462761	0.803919	0.176668
O31	O	0.462767	0.943293	0.176668
O32	O	0.462774	0.943286	0.037288
O33	O	0.941517	0.572893	-0.090951
O34	O	0.941524	0.712266	-0.090951
O35	O	0.623364	0.796108	0.099255
O36	O	0.623372	0.878151	0.017204
O37	O	0.780927	0.802122	-0.070868
O38	O	0.780919	0.720079	0.011184
C39	C	0.491560	0.750040	-0.018785
C40	C	0.420089	0.747308	-0.016054
C41	C	0.702135	0.538764	-0.026831
C42	C	0.702132	0.464326	-0.026831
C43	C	0.619900	0.332746	0.019143
C44	C	0.619904	0.262801	0.019145
C45	C	0.784397	0.183434	-0.072808
C46	C	0.784392	0.253379	-0.072804
C47	C	0.702141	0.328034	-0.026831
C48	C	0.702150	0.188145	-0.026833
C49	C	0.702155	0.112307	-0.026831
C50	C	0.702136	0.403877	-0.026831
C51	C	0.386516	0.788848	-0.057600
C52	C	0.319357	0.786283	-0.055026
C53	C	0.285776	0.742173	-0.010910
C54	C	0.319352	0.700632	0.030642
C55	C	0.386506	0.703202	0.028073
C56	C	0.084931	0.729899	0.001373
C57	C	0.017775	0.727331	0.003937
C58	C	0.017783	0.812983	-0.081731
C59	C	0.084941	0.815545	-0.084300
C60	C	0.118508	0.774008	-0.042745
N61	N	0.217131	0.739548	-0.008280
N62	N	0.187148	0.776637	-0.045370
C63	C	0.912731	0.766139	-0.034879
C64	C	0.984202	0.768870	-0.037610
C65	C	0.702156	0.758078	-0.246168
C66	C	0.702159	0.758074	-0.320609
C67	C	0.702156	0.977415	-0.026832
C68	C	0.702159	1.051852	-0.026833
C69	C	0.784391	0.718402	-0.537837
C70	C	0.784387	0.718408	-0.607778
C71	C	0.619894	0.797782	-0.515818
C72	C	0.619899	0.797780	-0.445879
C73	C	0.702150	0.758085	-0.456892
C74	C	0.702141	0.758094	-0.596772
C75	C	0.702136	0.758101	-0.672605
C76	C	0.702155	0.758079	-0.381054
C77	C	0.702135	0.758101	0.192504
C78	C	0.702132	0.758104	0.266945
C79	C	0.491570	0.969366	-0.018785
C80	C	0.420103	1.041071	-0.016055
C81	C	0.491550	0.750051	0.200552
C82	C	0.420076	0.747323	0.277723
C83	C	0.491560	0.969377	0.200551
C84	C	0.420089	1.041086	0.277722
C85	C	0.912731	0.546802	-0.254214
C86	C	0.984202	0.475093	-0.331386
C87	C	0.912721	0.546813	-0.034878
C88	C	0.984189	0.475108	-0.037609
C89	C	0.912741	0.766127	-0.254215
C90	C	0.984216	0.768855	-0.331387
C91	C	0.386541	1.031915	-0.057609
C92	C	0.319399	1.099283	-0.055060
C93	C	0.285815	1.175807	-0.010951
C94	C	0.319384	1.184962	0.030605
C95	C	0.386529	1.117594	0.028050
C96	C	0.386511	0.788872	0.356801
C97	C	0.319362	0.786306	0.429318
C98	C	0.285776	0.742195	0.422757
C99	C	0.319347	0.700641	0.343670
C100	C	0.386499	0.703203	0.271155
C101	C	0.386529	1.117594	0.271133
C102	C	0.319384	1.184980	0.343637
C103	C	0.285795	1.175855	0.422729
C104	C	0.319362	1.099339	0.429317
C105	C	0.386510	1.031955	0.356814
C106	C	1.017770	0.398585	-0.324797
C107	C	1.084936	0.331200	-0.397301
C108	C	1.118528	0.340325	-0.476394
C109	C	1.084958	0.416841	-0.482981
C110	C	1.017798	0.484224	-0.410478
C111	C	1.017757	0.484264	0.003938
C112	C	1.084918	0.416896	0.001369
C113	C	1.118504	0.340373	-0.042743
C114	C	1.084932	0.331218	-0.084295
C115	C	1.017777	0.398585	-0.081730
C116	C	1.017781	0.812974	-0.324798
C117	C	1.084930	0.815553	-0.397302
C118	C	1.118516	0.774008	-0.476394
C119	C	1.084944	0.729888	-0.482981
C120	C	1.017792	0.727315	-0.410478
H121	H	0.552926	0.393531	0.056587
C122	C	1.121912	0.426868	-0.569988
C123	C	1.112686	0.390187	-0.629491
C124	C	1.149638	0.400210	-0.716500
C125	C	1.195817	0.446915	-0.744006
C126	C	1.205045	0.483599	-0.684503
C127	C	1.168093	0.473576	-0.597494
H128	H	1.078499	0.355611	-0.609130
H129	H	1.142807	0.373054	-0.760548
H130	H	1.223172	0.454335	-0.808415
H131	H	1.239232	0.518175	-0.704864
H132	H	1.174925	0.500732	-0.553445
C133	C	0.874869	0.101314	-0.123394
C134	C	0.965334	0.096132	-0.173971
C135	C	1.055809	0.014012	-0.224565
C136	C	1.055819	-0.062927	-0.224584
C137	C	0.965351	-0.057748	-0.174005
C138	C	0.874877	0.024373	-0.123411
H139	H	0.965329	0.153089	-0.173959
H140	H	1.122779	0.010178	-0.262007
H141	H	1.122794	-0.123717	-0.262037
H142	H	0.965356	-0.114704	-0.174017
H143	H	0.807907	0.028206	-0.085969
C144	C	0.423431	1.127674	0.073777
C145	C	0.386476	1.211851	0.122300
C146	C	0.423373	1.221938	0.168031
C147	C	0.497225	1.147847	0.165238
C148	C	0.534184	1.063664	0.116712
C149	C	0.497287	1.053577	0.070982
H150	H	0.331803	1.266703	0.124370
H151	H	0.396013	1.284256	0.203953
H152	H	0.524538	1.155313	0.199091
H153	H	0.588857	1.008812	0.114643
H154	H	0.524647	0.991259	0.035060
H155	H	0.990467	0.546518	-0.415852
H156	H	0.851355	0.686095	-0.673685
H157	H	0.990417	0.546568	0.039864
C158	C	0.282436	0.832026	0.516305
C159	C	0.180873	0.897624	0.580055
C160	C	0.143949	0.943345	0.667039
C161	C	0.208588	0.923467	0.690273
C162	C	0.310158	0.857865	0.626521
C163	C	0.347082	0.812144	0.539538
H164	H	0.133017	0.912342	0.562858
H165	H	0.068759	0.991908	0.714232
H166	H	0.181255	0.957312	0.754663
H167	H	0.358014	0.843147	0.643719
H168	H	0.422271	0.763582	0.492345
H169	H	0.413849	0.824792	0.362160
C170	C	0.282394	1.089309	0.516323
C171	C	0.208519	1.163435	0.596067
C172	C	0.171540	1.153407	0.683076
C173	C	0.208435	1.069254	0.690340
C174	C	0.282314	0.995122	0.610594
C175	C	0.319293	1.005149	0.523585
H176	H	0.181204	1.225736	0.590692
H177	H	0.116850	1.208285	0.742109
H178	H	0.181061	1.061830	0.754749
H179	H	0.309630	0.932821	0.615969
H180	H	0.373983	0.950272	0.464552
C181	C	0.980844	0.388504	-0.127423
C182	C	1.017787	0.304326	-0.175934
C183	C	0.980857	0.294239	-0.221629
C184	C	0.906984	0.368329	-0.218813
C185	C	0.870037	0.452512	-0.170300
C186	C	0.906967	0.462600	-0.124605
H187	H	1.072476	0.249475	-0.178020
H188	H	1.008208	0.231920	-0.257541
H189	H	0.879646	0.360861	-0.252639
H190	H	0.815348	0.507363	-0.168214
H191	H	0.879616	0.524919	-0.088693
H192	H	0.413842	0.669374	0.061902
C193	C	1.192390	0.776838	-0.556145
C194	C	1.229311	0.825366	-0.548887
C195	C	1.303187	0.828197	-0.628633
C196	C	1.340143	0.782500	-0.715638
C197	C	1.303223	0.733969	-0.722899
C198	C	1.229346	0.731138	-0.643153
H199	H	1.201954	0.859196	-0.484478
H200	H	1.330518	0.864123	-0.623257
H201	H	1.394831	0.784596	-0.774671
H202	H	1.330580	0.700138	-0.787308
H203	H	1.202016	0.695212	-0.648529
H204	H	0.552928	0.830099	-0.506862
H205	H	0.552924	0.830098	-0.379965
C206	C	1.121901	0.684190	-0.569988
C207	C	1.057293	0.704073	-0.593262
C208	C	1.094256	0.658371	-0.680272
C209	C	1.195827	0.592787	-0.744008
C210	C	1.260442	0.572901	-0.720735
C211	C	1.223478	0.618602	-0.633726
H212	H	0.982098	0.752625	-0.546080
H213	H	1.046424	0.673093	-0.697500
H214	H	1.223190	0.558956	-0.808418
H215	H	1.335636	0.524348	-0.767918
H216	H	1.271311	0.603881	-0.616498
H217	H	0.292002	0.664721	0.066568
H218	H	-0.009562	0.691407	0.039862
H219	H	1.112241	0.424366	0.035209
H220	H	1.173185	0.285525	-0.044824
H221	H	0.990422	0.391139	-0.260402
H222	H	0.413884	0.969611	-0.093538
C223	C	0.211903	0.739386	0.502530
C224	C	0.174984	0.785098	0.589511
C225	C	0.101110	0.782295	0.669288
C226	C	0.064155	0.733780	0.662083
C227	C	0.101074	0.688065	0.575098
C228	C	0.174948	0.690868	0.495321
H229	H	0.202340	0.821014	0.594848
H230	H	0.073780	0.816136	0.733680
H231	H	0.009469	0.731705	0.721138
H232	H	0.073718	0.652149	0.569761
H233	H	0.202278	0.657027	0.430929
C234	C	0.980885	0.678771	-0.417734
C235	C	1.017842	0.633071	-0.504738
C236	C	0.980938	0.584525	-0.512002
C237	C	0.907078	0.581679	-0.432262
C238	C	0.870116	0.627381	-0.345252
C239	C	0.907020	0.675927	-0.337988
H240	H	1.072521	0.635177	-0.563772
H241	H	1.008300	0.550693	-0.576413
H242	H	0.879760	0.545742	-0.437639
H243	H	0.815437	0.625275	-0.286218
H244	H	0.879658	0.709758	-0.273578
H245	H	0.851365	0.686080	-0.546808
H246	H	1.112257	0.268904	-0.391922
H247	H	1.112288	0.268903	-0.120210
H248	H	0.292075	1.091813	-0.088900
C249	C	0.423409	0.657503	0.184170
C250	C	0.386454	0.608989	0.176963
C251	C	0.423361	0.563285	0.089980
C252	C	0.497223	0.566094	0.010205
C253	C	0.534182	0.614610	0.017409
C254	C	0.497275	0.660314	0.104392
H255	H	0.331773	0.606908	0.236020
H256	H	0.396001	0.527371	0.084647
H257	H	0.524544	0.532261	-0.054185
H258	H	0.588863	0.616691	-0.041648
H259	H	0.524635	0.696228	0.109725
H260	H	0.291991	0.664727	0.338340
H261	H	0.552936	0.266645	0.056582
H262	H	0.851367	0.249536	-0.110240
H263	H	0.231140	1.230655	-0.008877
H264	H	0.990445	0.846804	-0.260404
H265	H	0.413856	0.824763	-0.093529
H266	H	0.292021	0.820109	-0.088856
H267	H	0.292030	1.247277	0.066517
H268	H	0.292062	1.247276	0.338258
H269	H	0.413868	1.125039	0.206739
H270	H	0.112281	0.851463	-0.120224
H271	H	0.231119	1.230730	0.481759
H272	H	-0.009554	0.846802	-0.115562
H273	H	0.112250	0.696080	0.035214
H274	H	0.413826	0.969661	0.362191
H275	H	1.173214	0.285451	-0.535425
H276	H	1.112257	0.851478	-0.391922
