data_functionalizedCrystal
_audit_creation_method	'MofGen! by Chris Wilmer'
_symmetry_space_group_name_H-M	'P1'
_symmetry_Int_Tables_number	1
_symmetry_cell_setting	triclinic
loop_
_symmetry_equiv_pos_as_xyz
  x,y,z
_cell_length_a	16.959455
_cell_length_b	16.959454
_cell_length_c	13.033109
_cell_angle_alpha	97.156051
_cell_angle_beta	82.792387
_cell_angle_gamma	90.017095
loop_
_atom_site_label
_atom_site_type_symbol
_atom_site_fract_x
_atom_site_fract_y
_atom_site_fract_z
Zn1	Zn	1.265195	-0.371502	-0.591044
Zn2	Zn	1.248322	-0.486910	-0.416304
Zn3	Zn	1.116227	-0.354742	-0.416296
Zn4	Zn	1.132983	-0.503630	-0.590984
O5	O	1.190682	-0.429196	-0.503657
O6	O	1.373571	-0.386828	-0.567893
O7	O	1.216725	-0.455366	-0.270067
O8	O	1.136037	-0.246356	-0.439499
O9	O	1.361174	-0.471618	-0.439512
O10	O	1.245484	-0.258670	-0.567885
O11	O	1.119676	-0.358262	-0.270061
O12	O	1.007836	-0.374475	-0.439440
O13	O	1.164595	-0.500115	-0.737228
O14	O	1.020146	-0.483863	-0.567782
O15	O	1.261731	-0.403041	-0.737272
O16	O	1.232972	-0.599737	-0.439454
O17	O	1.148233	-0.612021	-0.567790
C18	C	0.985310	-0.429165	-0.503604
C19	C	0.897454	-0.429173	-0.503607
C20	C	0.519514	-0.473292	-0.436775
C21	C	0.532464	-0.385177	-0.570666
C22	C	0.615008	-0.385162	-0.570641
C23	C	0.649808	-0.429213	-0.503682
C24	C	0.602065	-0.473280	-0.436750
C25	C	0.662758	-0.341102	-0.637579
C26	C	0.745307	-0.341085	-0.637558
C27	C	0.780108	-0.385133	-0.570593
C28	C	0.732359	-0.429201	-0.503657
C29	C	0.767160	-0.473252	-0.436699
C30	C	0.719412	-0.517316	-0.369757
C31	C	0.636867	-0.517328	-0.369786
C32	C	0.862653	-0.385122	-0.570565
C33	C	0.849711	-0.473240	-0.436674
C34	C	1.190614	-0.634560	-0.503639
C35	C	1.190660	-0.722420	-0.503666
C36	C	1.146631	-1.100320	-0.570474
C37	C	1.234963	-1.087479	-0.436946
C38	C	1.234935	-1.004932	-0.436936
C39	C	1.190752	-0.970075	-0.503696
C40	C	1.146599	-1.017765	-0.570465
C41	C	1.279081	-0.957235	-0.370161
C42	C	1.279053	-0.874683	-0.370148
C43	C	1.234875	-0.839825	-0.436913
C44	C	1.190721	-0.887521	-0.503686
C45	C	1.146539	-0.852664	-0.570445
C46	C	1.102388	-0.900359	-0.637224
C47	C	1.102421	-0.982908	-0.637230
C48	C	1.234842	-0.757276	-0.436907
C49	C	1.146507	-0.770110	-0.570435
C50	C	1.396855	-0.429227	-0.503710
C51	C	1.484714	-0.429241	-0.503733
C52	C	1.216914	-0.455313	-0.776228
C53	C	1.228093	-0.466442	-0.892381
C54	C	1.190774	-0.223032	-0.503698
C55	C	1.190813	-0.135177	-0.503715
C56	C	1.185059	-0.423359	-0.944163
C57	C	1.196611	-0.434861	-1.064214
C58	C	1.164597	-0.403124	-0.232146
C59	C	1.153571	-0.391772	-0.115993
H60	H	0.597983	-0.553202	-0.315284
N61	N	1.054793	-1.034345	-0.709238
H62	H	1.074203	-1.027120	-0.783922
H63	H	1.061531	-1.091905	-0.699019
N64	N	1.093431	-0.331625	-1.057021
H65	H	1.052454	-0.359429	-1.011718
H66	H	1.121302	-0.290706	-1.011811
N67	N	0.796805	-0.293553	-0.709740
H68	H	0.835721	-0.330356	-0.758085
H69	H	0.762178	-0.265651	-0.752091
H70	H	1.273488	-0.511843	-0.936926
H71	H	1.110687	-1.139157	-0.624847
H72	H	1.242010	-0.480265	-1.108755
H73	H	0.480634	-0.509166	-0.382269
H74	H	1.315004	-0.835855	-0.315775
N75	N	0.887243	-0.520747	-0.364446
H76	H	0.844468	-0.548659	-0.322045
H77	H	0.925584	-0.561442	-0.406887
H78	H	0.504125	-0.349318	-0.625186
H79	H	1.315045	-0.985621	-0.315801
H80	H	0.747758	-0.553188	-0.315245
H81	H	0.634417	-0.305243	-0.692100
H82	H	1.066410	-0.871969	-0.691575
H83	H	1.270929	-1.115864	-0.382587
H84	H	0.901526	-0.349247	-0.625070
H85	H	1.110531	-0.741736	-0.624803
H86	H	1.139659	-0.377962	-0.899619
N87	N	1.282449	-0.705834	-0.364885
H88	H	1.310439	-0.740441	-0.322591
H89	H	1.323091	-0.675632	-0.407464
