data_functionalizedCrystal
_audit_creation_method	'MofGen! by Chris Wilmer'
_symmetry_space_group_name_H-M	'P1'
_symmetry_Int_Tables_number	1
_symmetry_cell_setting	triclinic
loop_
_symmetry_equiv_pos_as_xyz
  x,y,z
_cell_length_a	15.072220
_cell_length_b	11.026607
_cell_length_c	11.026607
_cell_angle_alpha	108.586017
_cell_angle_beta	90.002838
_cell_angle_gamma	89.987450
loop_
_atom_site_label
_atom_site_type_symbol
_atom_site_fract_x
_atom_site_fract_y
_atom_site_fract_z
O1	O	0.073780	-1.726747	-0.533619
O2	O	0.073782	-1.360167	-0.472855
O3	O	0.073778	-1.513075	-0.319947
O4	O	0.073784	-1.573839	-0.686527
O5	O	-0.073787	-1.513030	-0.319947
O6	O	-0.073783	-1.360121	-0.472855
O7	O	-0.073785	-1.726701	-0.533619
Zn8	Zn	-0.097213	-1.543404	-0.503237
Zn9	Zn	0.097210	-1.543465	-0.503237
O10	O	-0.073781	-1.573793	-0.686527
C11	C	-0.000001	-1.312485	-0.461645
C12	C	-0.000000	-1.170471	-0.428228
N13	N	-0.229902	-1.543372	-0.503239
C14	C	-0.000004	-1.501843	-0.272287
C15	C	-0.000000	-1.468426	-0.130273
C16	C	-0.589104	-1.543461	-0.503231
C17	C	-0.551495	-1.461214	-0.584621
C18	C	-0.448669	-1.461539	-0.585055
C19	C	-0.410899	-1.543416	-0.503235
C20	C	-0.448191	-1.682724	-0.561322
C21	C	-0.551049	-1.682297	-0.561935
C22	C	-0.551206	-1.487517	-0.363704
C23	C	-0.448343	-1.484661	-0.363929
C24	C	-0.310186	-1.543398	-0.503236
C25	C	-0.689817	-1.543488	-0.503235
N26	N	0.229899	-1.543505	-0.503227
C27	C	-0.000000	-1.774384	-0.544828
C28	C	0.000005	-1.916398	-0.578245
C29	C	0.000002	-1.116821	-0.520498
C30	C	0.000003	-0.970043	-0.485962
C31	C	0.000002	-1.585026	-0.734187
C32	C	0.000005	-1.618443	-0.876200
C33	C	0.000001	-1.560695	-0.076624
C34	C	0.000004	-1.526160	0.070155
H35	H	-0.423458	-1.358924	-0.546162
H36	H	-0.577331	-1.499604	-0.686948
H37	H	-0.000005	-1.665258	-0.139357
H38	H	-0.424053	-1.500285	-0.687991
O39	O	0.000118	-1.095776	-0.303436
C40	C	0.076594	-1.037279	-0.101068
C41	C	0.076560	-1.121962	-0.242364
H42	H	0.138400	-1.058401	-0.051657
H43	H	0.014880	-1.058421	-0.051497
H44	H	0.076551	-0.932243	-0.095473
H45	H	0.076634	-1.227024	-0.248076
H46	H	0.138268	-1.100711	-0.291872
H47	H	-0.576256	-1.358343	-0.545943
O48	O	0.000175	-0.991266	-0.702983
C49	C	0.076624	-1.153930	-0.869157
C50	C	0.076545	-1.069203	-0.727876
H51	H	0.138353	-1.216982	-0.889320
H52	H	0.076689	-1.090757	-0.933307
H53	H	0.014844	-1.216840	-0.889414
H54	H	0.138314	-1.006280	-0.707497
H55	H	0.076434	-1.132450	-0.663801
H56	H	-0.000001	-1.179555	-0.625061
H57	H	0.000071	-1.723013	0.061072
H58	H	-0.575028	-1.727158	-0.664579
O59	O	0.000120	-0.895352	-0.361163
C60	C	0.076596	-0.836855	-0.158795
C61	C	0.076563	-0.921538	-0.300091
H62	H	0.138403	-0.857977	-0.109384
H63	H	0.014883	-0.857997	-0.109224
H64	H	0.076554	-0.731819	-0.153200
H65	H	0.076637	-1.026601	-0.305803
H66	H	0.138271	-0.900287	-0.349599
O67	O	-0.000111	-1.401360	0.144845
C68	C	-0.076582	-1.198963	0.203376
C69	C	-0.076553	-1.340259	0.118692
H70	H	-0.138389	-1.149527	0.182280
H71	H	-0.014869	-1.149416	0.182207
H72	H	-0.076535	-1.193367	0.308411
H73	H	-0.076632	-1.345971	0.013630
H74	H	-0.138261	-1.389743	0.139970
H75	H	-0.575925	-1.746954	-0.506545
H76	H	0.000006	-1.363863	-0.067540
O77	O	-0.417607	-1.736708	-0.682672
C78	C	-0.455118	-1.830153	-0.905540
C79	C	-0.489870	-1.769073	-0.768171
H80	H	-0.513524	-1.856313	-0.974707
H81	H	-0.415702	-1.920138	-0.911550
H82	H	-0.410385	-1.759133	-0.932066
H83	H	-0.534638	-1.839995	-0.741556
H84	H	-0.529236	-1.679065	-0.762234
H85	H	-0.577196	-1.386566	-0.315058
O86	O	-0.418852	-1.758938	-0.494038
C87	C	-0.292270	-1.850191	-0.421408
C88	C	-0.325378	-1.763876	-0.497671
H89	H	-0.216693	-1.854191	-0.424297
H90	H	-0.320192	-1.950760	-0.465492
H91	H	-0.315424	-1.809447	-0.317888
H92	H	-0.302236	-1.804506	-0.601201
H93	H	-0.297463	-1.663319	-0.453484
O94	O	-0.419122	-1.362309	-0.312117
C95	C	-0.292641	-1.222652	-0.249324
C96	C	-0.325618	-1.361276	-0.307982
H97	H	-0.217039	-1.221767	-0.245986
H98	H	-0.320010	-1.180575	-0.148165
H99	H	-0.316467	-1.162969	-0.310484
H100	H	-0.301803	-1.421060	-0.246921
H101	H	-0.298256	-1.403250	-0.409154
O102	O	-0.417730	-1.548637	-0.285409
C103	C	-0.418248	-1.565527	-0.072847
C104	C	-0.452966	-1.492930	-0.161617
H105	H	-0.446737	-1.520534	0.027250
H106	H	-0.342737	-1.559877	-0.068406
H107	H	-0.439618	-1.669989	-0.111706
H108	H	-0.431662	-1.388441	-0.122826
H109	H	-0.528474	-1.498686	-0.166053
O110	O	-0.580261	-1.558455	-0.290855
C111	C	-0.662337	-1.560658	-0.104038
C112	C	-0.629465	-1.480161	-0.186390
H113	H	-0.702141	-1.497397	-0.019575
H114	H	-0.603002	-1.602649	-0.067130
H115	H	-0.706258	-1.641559	-0.164508
H116	H	-0.585560	-1.399200	-0.126004
H117	H	-0.688840	-1.438266	-0.223309
