data_functionalizedCrystal
_audit_creation_method	'MofGen! by Chris Wilmer'
_symmetry_space_group_name_H-M	'P1'
_symmetry_Int_Tables_number	1
_symmetry_cell_setting	triclinic
loop_
_symmetry_equiv_pos_as_xyz
  x,y,z
_cell_length_a	18.101398
_cell_length_b	29.839131
_cell_length_c	18.101389
_cell_angle_alpha	89.971059
_cell_angle_beta	89.975673
_cell_angle_gamma	90.030494
loop_
_atom_site_label
_atom_site_type_symbol
_atom_site_fract_x
_atom_site_fract_y
_atom_site_fract_z
Zn1	Zn	1.132100	-0.178957	-0.418785
Zn2	Zn	1.465433	0.154376	-0.085451
Zn3	Zn	1.798766	0.487710	0.247882
Zn4	Zn	1.131987	-0.254074	-0.294920
Zn5	Zn	1.465320	0.079259	0.038413
Zn6	Zn	1.798653	0.412593	0.371746
Zn7	Zn	1.008259	-0.178952	-0.294946
Zn8	Zn	1.341592	0.154381	0.038388
Zn9	Zn	1.674925	0.487714	0.371721
Zn10	Zn	1.008200	-0.254055	-0.418709
Zn11	Zn	1.341534	0.079279	-0.085376
Zn12	Zn	1.674867	0.412612	0.247958
O13	O	1.070136	-0.216510	-0.356840
O14	O	1.403470	0.116824	-0.023506
O15	O	1.736803	0.450157	0.309827
O16	O	1.235718	-0.188932	-0.402375
O17	O	1.569051	0.144402	-0.069041
O18	O	1.902384	0.477735	0.264292
O19	O	1.115551	-0.244115	-0.191291
O20	O	1.448884	0.089218	0.142043
O21	O	1.782218	0.422552	0.475376
O22	O	1.024758	-0.116086	-0.311415
O23	O	1.358091	0.217247	0.021918
O24	O	1.691425	0.550581	0.355251
O25	O	1.235635	-0.244119	-0.311372
O26	O	1.568968	0.089214	0.021961
O27	O	1.902301	0.422547	0.355295
O28	O	1.115744	-0.116089	-0.402399
O29	O	1.449077	0.217244	-0.069066
O30	O	1.782410	0.550577	0.264267
O31	O	1.024648	-0.188924	-0.191309
O32	O	1.357982	0.144410	0.142024
O33	O	1.691315	0.477743	0.475357
O34	O	0.904618	-0.188905	-0.311342
O35	O	1.237951	0.144428	0.021991
O36	O	1.571285	0.477762	0.355325
O37	O	1.024659	-0.244087	-0.522352
O38	O	1.357992	0.089247	-0.189018
O39	O	1.691326	0.422580	0.144315
O40	O	0.904575	-0.244082	-0.402270
O41	O	1.237909	0.089251	-0.068937
O42	O	1.571242	0.422584	0.264396
O43	O	1.115687	-0.188913	-0.522407
O44	O	1.449021	0.144420	-0.189074
O45	O	1.782354	0.477754	0.144259
O46	O	1.115495	-0.316938	-0.311299
O47	O	1.448828	0.016395	0.022035
O48	O	1.782161	0.349728	0.355368
O49	O	1.024549	-0.316924	-0.402246
O50	O	1.357883	0.016409	-0.068912
O51	O	1.691216	0.349742	0.264421
C52	C	0.877726	-0.216491	-0.356801
C53	C	1.211059	0.116842	-0.023468
C54	C	1.544393	0.450175	0.309865
C55	C	0.795412	-0.216494	-0.356802
C56	C	1.128745	0.116839	-0.023469
C57	C	1.462078	0.450172	0.309864
C58	C	0.496321	-0.216522	-0.356864
C59	C	0.829654	0.116811	-0.023531
C60	C	1.162987	0.450144	0.309802
C61	C	0.527648	-0.181633	-0.299934
C62	C	0.860982	0.151700	0.033399
C63	C	1.194315	0.485034	0.366733
C64	C	0.613266	-0.181726	-0.299691
C65	C	0.946600	0.151607	0.033642
C66	C	1.279933	0.484940	0.366976
C67	C	0.644703	-0.216508	-0.356834
C68	C	0.978037	0.116825	-0.023500
C69	C	1.311370	0.450159	0.309833
C70	C	0.613580	-0.263830	-0.335495
C71	C	0.946913	0.069503	-0.002161
C72	C	1.280246	0.402836	0.331172
C73	C	0.527934	-0.263636	-0.335099
C74	C	0.861268	0.069697	-0.001766
C75	C	1.194601	0.403030	0.331568
C76	C	0.527937	-0.204501	-0.435267
C77	C	0.861270	0.128832	-0.101934
C78	C	1.194604	0.462166	0.231399
C79	C	0.613588	-0.203447	-0.434840
C80	C	0.946921	0.129886	-0.101507
C81	C	1.280254	0.463219	0.231827
C82	C	0.728563	-0.216503	-0.356817
C83	C	1.061896	0.116830	-0.023484
C84	C	1.395229	0.450164	0.309849
C85	C	0.412461	-0.216531	-0.356879
C86	C	0.745795	0.116803	-0.023545
C87	C	1.079128	0.450136	0.309788
C88	C	1.070023	-0.333232	-0.356777
C89	C	1.403357	0.000101	-0.023444
C90	C	1.736690	0.333435	0.309889
C91	C	1.070043	-0.383167	-0.356775
C92	C	1.403376	-0.049833	-0.023442
C93	C	1.736710	0.283500	0.309891
C94	C	1.117502	-0.692777	-0.404283
C95	C	1.450836	-0.359443	-0.070949
C96	C	1.784169	-0.026110	0.262384
C97	C	1.117583	-0.880450	-0.404327
C98	C	1.450916	-0.547117	-0.070994
C99	C	1.784249	-0.213783	0.262340
O100	O	1.157824	-0.904687	-0.444673
O101	O	1.491157	-0.571353	-0.111340
O102	O	1.824490	-0.238020	0.221994
N103	N	1.070262	-0.903952	-0.356922
N104	N	1.403596	-0.570618	-0.023589
N105	N	1.736929	-0.237285	0.309745
C106	C	1.022915	-0.880532	-0.309506
C107	C	1.356248	-0.547199	0.023828
C108	C	1.689581	-0.213866	0.357161
O109	O	0.982662	-0.904828	-0.269191
O110	O	1.315996	-0.571495	0.064142
O111	O	1.649329	-0.238161	0.397475
C112	C	1.022831	-0.692860	-0.309466
C113	C	1.356165	-0.359527	0.023868
C114	C	1.689498	-0.026193	0.357201
C115	C	1.070160	-0.669361	-0.356869
C116	C	1.403493	-0.336027	-0.023535
C117	C	1.736827	-0.002694	0.309798
C118	C	1.164827	-0.669277	-0.451682
C119	C	1.498160	-0.335944	-0.118349
C120	C	1.831493	-0.002611	0.214984
C121	C	1.164809	-0.622362	-0.451668
C122	C	1.498142	-0.289029	-0.118334
C123	C	1.831476	0.044305	0.214999
C124	C	1.117467	-0.598946	-0.404254
C125	C	1.450800	-0.265613	-0.070920
C126	C	1.784133	0.067721	0.262413
C127	C	1.070142	-0.622445	-0.356854
C128	C	1.403476	-0.289112	-0.023521
C129	C	1.736809	0.044221	0.309813
C130	C	0.975481	-0.669441	-0.262054
C131	C	1.308814	-0.336108	0.071280
C132	C	1.642147	-0.002775	0.404613
C133	C	0.975463	-0.622520	-0.262049
C134	C	1.308796	-0.289187	0.071284
C135	C	1.642129	0.044146	0.404617
C136	C	1.022792	-0.599021	-0.309452
C137	C	1.356125	-0.265688	0.023881
C138	C	1.689458	0.067646	0.357215
C139	C	1.022783	-0.552114	-0.309426
C140	C	1.356116	-0.218780	0.023908
C141	C	1.689449	0.114553	0.357241
N142	N	1.070103	-0.528612	-0.356831
N143	N	1.403436	-0.195279	-0.023497
N144	N	1.736770	0.138055	0.309836
C145	C	1.117445	-0.552028	-0.404245
C146	C	1.450778	-0.218695	-0.070911
C147	C	1.784112	0.114639	0.262422
C148	C	1.022963	-0.979063	-0.309529
C149	C	1.356296	-0.645729	0.023804
C150	C	1.689630	-0.312396	0.357137
C151	C	1.022985	-1.025981	-0.309538
C152	C	1.356318	-0.692647	0.023795
C153	C	1.689651	-0.359314	0.357128
C154	C	1.117652	-1.025895	-0.404361
C155	C	1.450985	-0.692562	-0.071027
C156	C	1.784318	-0.359228	0.262306
C157	C	1.117633	-0.978976	-0.404347
C158	C	1.450967	-0.645643	-0.071014
C159	C	1.784300	-0.312310	0.262319
C160	C	1.070284	-0.955561	-0.356934
C161	C	1.403617	-0.622228	-0.023601
C162	C	1.736950	-0.288894	0.309732
C163	C	1.117405	-0.453502	-0.404210
C164	C	1.450738	-0.120169	-0.070877
C165	C	1.784071	0.213164	0.262456
C166	C	1.117385	-0.406583	-0.404190
C167	C	1.450718	-0.073249	-0.070856
C168	C	1.784052	0.260084	0.262477
C169	C	1.022716	-0.406672	-0.309370
C170	C	1.356049	-0.073339	0.023963
C171	C	1.689382	0.259994	0.357296
C172	C	1.022738	-0.453588	-0.309388
C173	C	1.356071	-0.120255	0.023945
C174	C	1.689404	0.213079	0.357279
C175	C	1.070085	-0.477002	-0.356814
C176	C	1.403418	-0.143668	-0.023481
C177	C	1.736751	0.189665	0.309853
O178	O	0.982557	-0.527848	-0.269107
O179	O	1.315890	-0.194515	0.064227
O180	O	1.649223	0.138819	0.397560
O181	O	1.157680	-0.527724	-0.444565
O182	O	1.491013	-0.194391	-0.111232
O183	O	1.824347	0.138943	0.222102
C184	C	1.117520	-0.739692	-0.404297
C185	C	1.450853	-0.406359	-0.070964
C186	C	1.784187	-0.073026	0.262370
C187	C	1.070196	-0.763192	-0.356897
C188	C	1.403529	-0.429858	-0.023564
C189	C	1.736862	-0.096525	0.309769
C190	C	1.022853	-0.739776	-0.309483
C191	C	1.356187	-0.406442	0.023850
C192	C	1.689520	-0.073109	0.357183
C193	C	1.070217	-0.810109	-0.356906
C194	C	1.403551	-0.476776	-0.023573
C195	C	1.736884	-0.143443	0.309760
C196	C	1.117559	-0.833526	-0.404321
C197	C	1.450893	-0.500192	-0.070987
C198	C	1.784226	-0.166859	0.262346
C199	C	1.164880	-0.810024	-0.451726
C200	C	1.498213	-0.476690	-0.118392
C201	C	1.831546	-0.143357	0.214941
C202	C	1.164862	-0.763108	-0.451711
C203	C	1.498195	-0.429775	-0.118378
C204	C	1.831529	-0.096442	0.214956
C205	C	0.975533	-0.763277	-0.262078
C206	C	1.308866	-0.429944	0.071255
C207	C	1.642200	-0.096611	0.404588
C208	C	0.975555	-0.810193	-0.262096
C209	C	1.308889	-0.476859	0.071237
C210	C	1.642222	-0.143526	0.404571
C211	C	1.022897	-0.833609	-0.309510
C212	C	1.356231	-0.500276	0.023823
C213	C	1.689564	-0.166942	0.357157
C214	C	1.263298	-0.216528	-0.356879
C215	C	1.596632	0.116805	-0.023546
C216	C	1.929965	0.450138	0.309788
C217	C	1.345612	-0.216536	-0.356896
C218	C	1.678946	0.116797	-0.023562
C219	C	2.012279	0.450131	0.309771
C220	C	1.070179	-0.216498	-0.550002
C221	C	1.403513	0.116835	-0.216668
C222	C	1.736846	0.450168	0.116665
C223	C	1.070197	-0.216493	-0.632316
C224	C	1.403531	0.116840	-0.298983
C225	C	1.736864	0.450173	0.034351
C226	C	1.070270	-0.099331	-0.356919
C227	C	1.403603	0.234002	-0.023585
C228	C	1.736937	0.567335	0.309748
C229	C	1.070327	-0.049397	-0.356952
C230	C	1.403660	0.283937	-0.023619
C231	C	1.736994	0.617270	0.309714
C232	C	1.070241	-0.216409	-0.931407
C233	C	1.403574	0.116924	-0.598074
C234	C	1.736907	0.450258	-0.264740
C235	C	1.012771	-0.251013	-0.900047
C236	C	1.346104	0.082321	-0.566714
C237	C	1.679438	0.415654	-0.233380
C238	C	1.012926	-0.251173	-0.814429
C239	C	1.346260	0.082160	-0.481095
C240	C	1.679593	0.415494	-0.147762
C241	C	1.070219	-0.216451	-0.783025
C242	C	1.403552	0.116882	-0.449691
C243	C	1.736885	0.450216	-0.116358
C244	C	1.148242	-0.229306	-0.814126
C245	C	1.481576	0.104028	-0.480793
C246	C	1.814909	0.437361	-0.147460
C247	C	1.147922	-0.229533	-0.899771
C248	C	1.481256	0.103800	-0.566438
C249	C	1.814589	0.437134	-0.233105
C250	C	1.050365	-0.168874	-0.899846
C251	C	1.383698	0.164459	-0.566512
C252	C	1.717031	0.497793	-0.233179
C253	C	1.048629	-0.169148	-0.814195
C254	C	1.381962	0.164185	-0.480861
C255	C	1.715295	0.497518	-0.147528
C256	C	1.070211	-0.216474	-0.699165
C257	C	1.403544	0.116860	-0.365832
C258	C	1.736878	0.450193	-0.032498
C259	C	1.070253	-0.216387	-1.015267
C260	C	1.403587	0.116946	-0.681933
C261	C	1.736920	0.450279	-0.348600
C262	C	1.070136	-0.216488	-0.164429
C263	C	1.403470	0.116845	0.168904
C264	C	1.736803	0.450178	0.502237
C265	C	1.070262	-0.216367	-0.082116
C266	C	1.403595	0.116967	0.251218
C267	C	1.736928	0.450300	0.584551
H268	H	0.506369	-0.170595	-0.454666
H269	H	0.839702	0.162738	-0.121333
H270	H	1.173036	0.496072	0.212001
N271	N	1.168691	-1.051165	-0.455512
N272	N	1.502024	-0.717831	-0.122179
N273	N	1.835358	-0.384498	0.211154
H274	H	1.157137	-1.042985	-0.508409
H275	H	1.490470	-0.709652	-0.175075
H276	H	1.823803	-0.376319	0.158258
H277	H	1.221598	-1.042981	-0.444025
H278	H	1.554931	-0.709647	-0.110691
H279	H	1.888264	-0.376314	0.222642
H280	H	0.634990	-0.227008	-0.479532
H281	H	0.968323	0.106326	-0.146198
H282	H	1.301657	0.439659	0.187135
N283	N	1.215900	-0.737765	-0.502846
N284	N	1.549233	-0.404431	-0.169513
N285	N	1.882567	-0.071098	0.163820
H286	H	1.250234	-0.718293	-0.472787
H287	H	1.583567	-0.384960	-0.139454
H288	H	1.916901	-0.051627	0.193879
H289	H	1.245839	-0.759751	-0.532873
H290	H	1.579172	-0.426418	-0.199540
H291	H	1.912506	-0.093084	0.133793
N292	N	1.170232	-0.275563	-0.926227
N293	N	1.503566	0.057770	-0.592893
N294	N	1.836899	0.391103	-0.259560
H295	H	1.129052	-0.288858	-0.956827
H296	H	1.462385	0.044475	-0.623493
H297	H	1.795719	0.377809	-0.290160
H298	H	1.216423	-0.273124	-0.957289
H299	H	1.549756	0.060209	-0.623955
H300	H	1.883089	0.393543	-0.290622
H301	H	0.954739	-0.243050	-0.920635
H302	H	1.288072	0.090283	-0.587302
H303	H	1.621405	0.423616	-0.253969
N304	N	0.971701	-0.478937	-0.258254
N305	N	1.305034	-0.145604	0.075080
N306	N	1.638368	0.187730	0.408413
H307	H	0.941710	-0.456982	-0.228213
H308	H	1.275044	-0.123648	0.105120
H309	H	1.608377	0.209685	0.438454
H310	H	0.937416	-0.498405	-0.288371
H311	H	1.270749	-0.165071	0.044963
H312	H	1.604083	0.168262	0.378296
H313	H	1.155954	-0.472560	-0.442834
H314	H	1.489287	-0.139227	-0.109501
H315	H	1.822621	0.194106	0.223832
H316	H	0.507677	-0.229913	-0.477686
H317	H	0.841011	0.103420	-0.144353
H318	H	1.174344	0.436753	0.188981
N319	N	1.105807	-0.134721	-0.926709
N320	N	1.439141	0.198612	-0.593375
N321	N	1.772474	0.531946	-0.260042
H322	H	1.143619	-0.149941	-0.959164
H323	H	1.476952	0.183393	-0.625830
H324	H	1.810286	0.516726	-0.292497
H325	H	1.079472	-0.110745	-0.955980
H326	H	1.412806	0.222588	-0.622647
H327	H	1.746139	0.555922	-0.289313
N328	N	0.501425	-0.277136	-0.259174
N329	N	0.834758	0.056198	0.074159
N330	N	1.168092	0.389531	0.407493
H331	H	0.470814	-0.252145	-0.237324
H332	H	0.804147	0.081189	0.096009
H333	H	1.137481	0.414522	0.429342
H334	H	0.470361	-0.305158	-0.263105
H335	H	0.803695	0.028175	0.070229
H336	H	1.137028	0.361508	0.403562
H337	H	0.633941	-0.290522	-0.375662
H338	H	0.967274	0.042812	-0.042328
H339	H	1.300608	0.376145	0.291005
N340	N	0.971943	-1.051325	-0.258408
N341	N	1.305276	-0.717992	0.074925
N342	N	1.638609	-0.384659	0.408259
H343	H	1.002065	-1.070789	-0.224121
H344	H	1.335398	-0.737456	0.109213
H345	H	1.668732	-0.404123	0.442546
H346	H	0.941959	-1.029340	-0.228423
H347	H	1.275292	-0.696007	0.104910
H348	H	1.608626	-0.362674	0.438244
N349	N	1.206574	-0.197608	-0.927259
N350	N	1.539907	0.135726	-0.593925
N351	N	1.873240	0.469059	-0.260592
H352	H	1.206824	-0.197507	-0.983055
H353	H	1.540157	0.135826	-0.649721
H354	H	1.873491	0.469160	-0.316388
H355	H	1.195644	-0.166424	-0.908557
H356	H	1.528978	0.166909	-0.575224
H357	H	1.862311	0.500243	-0.241890
N358	N	1.029990	-0.297404	-0.928518
N359	N	1.363323	0.035929	-0.595184
N360	N	1.696656	0.369262	-0.261851
H361	H	1.074853	-0.296103	-0.961644
H362	H	1.408186	0.037230	-0.628311
H363	H	1.741519	0.370564	-0.294978
H364	H	1.040210	-0.318018	-0.885452
H365	H	1.373544	0.015315	-0.552119
H366	H	1.706877	0.348648	-0.218786
H367	H	0.936980	-0.744215	-0.223469
H368	H	1.270314	-0.410882	0.109865
H369	H	1.603647	-0.077549	0.443198
H370	H	0.984172	-0.387600	-0.270764
H371	H	1.317506	-0.054266	0.062570
H372	H	1.650839	0.279067	0.395903
H373	H	1.155928	-0.387451	-0.442791
H374	H	1.489262	-0.054118	-0.109457
H375	H	1.822595	0.279216	0.223876
H376	H	1.026048	-0.286408	-0.793936
H377	H	1.359381	0.046926	-0.460602
H378	H	1.692714	0.380259	-0.127269
N379	N	0.640367	-0.192249	-0.222738
N380	N	0.973701	0.141085	0.110595
N381	N	1.307034	0.474418	0.443928
H382	H	0.596677	-0.196848	-0.188844
H383	H	0.930011	0.136486	0.144490
H384	H	1.263344	0.469819	0.477823
H385	H	0.671235	-0.220424	-0.223951
H386	H	1.004568	0.112909	0.109382
H387	H	1.337902	0.446243	0.442716
H388	H	0.634993	-0.274203	-0.278797
H389	H	0.968326	0.059130	0.054537
H390	H	1.301660	0.392464	0.387870
H391	H	1.192211	-0.204894	-0.793788
H392	H	1.525545	0.128439	-0.460454
H393	H	1.858878	0.461772	-0.127121
H394	H	1.165384	-0.263685	-0.792674
H395	H	1.498717	0.069648	-0.459340
H396	H	1.832051	0.402981	-0.126007
H397	H	0.507082	-0.146434	-0.313164
H398	H	0.840415	0.186899	0.020169
H399	H	1.173749	0.520233	0.353502
H400	H	0.633936	-0.168623	-0.450930
H401	H	0.967269	0.164710	-0.117597
H402	H	1.300603	0.498043	0.215737
H403	H	0.994459	-0.157163	-0.921435
H404	H	1.327792	0.176170	-0.588102
H405	H	1.661126	0.509504	-0.254769
H406	H	1.203430	-0.829097	-0.490329
H407	H	1.536763	-0.495764	-0.156996
H408	H	1.870097	-0.162431	0.176337
N409	N	0.936297	-0.240498	-0.786564
N410	N	1.269630	0.092835	-0.453231
N411	N	1.602964	0.426169	-0.119897
H412	H	0.902111	-0.235648	-0.829917
H413	H	1.235445	0.097686	-0.496584
H414	H	1.568778	0.431019	-0.163250
H415	H	0.917524	-0.266280	-0.755629
H416	H	1.250857	0.067053	-0.422296
H417	H	1.584190	0.400386	-0.088963
N418	N	0.972574	-0.156302	-0.787267
N419	N	1.305908	0.177031	-0.453934
N420	N	1.639241	0.510365	-0.120600
H421	H	0.952184	-0.181016	-0.755010
H422	H	1.285517	0.152317	-0.421677
H423	H	1.618851	0.485651	-0.088344
H424	H	0.975830	-0.127647	-0.757774
H425	H	1.309163	0.205686	-0.424440
H426	H	1.642496	0.539020	-0.091107
N427	N	0.498827	-0.192013	-0.223522
N428	N	0.832160	0.141320	0.109811
N429	N	1.165493	0.474653	0.443144
H430	H	0.514912	-0.223119	-0.208522
H431	H	0.848246	0.110214	0.124811
H432	H	1.181579	0.443548	0.458145
H433	H	0.519084	-0.169431	-0.187250
H434	H	0.852418	0.163902	0.146084
H435	H	1.185751	0.497236	0.479417
N436	N	1.100026	-0.133181	-0.785886
N437	N	1.433360	0.200152	-0.452552
N438	N	1.766693	0.533485	-0.119219
H439	H	1.138207	-0.147102	-0.752306
H440	H	1.471541	0.186231	-0.418973
H441	H	1.804874	0.519564	-0.085639
H442	H	1.125529	-0.118230	-0.828989
H443	H	1.458862	0.215103	-0.495656
H444	H	1.792195	0.548437	-0.162322
H445	H	1.203346	-0.603232	-0.490269
H446	H	1.536679	-0.269898	-0.156936
H447	H	1.870012	0.063435	0.176397
N448	N	0.641150	-0.135244	-0.317403
N449	N	0.974484	0.198089	0.015930
N450	N	1.307817	0.531422	0.349263
H451	H	0.597806	-0.114509	-0.325440
H452	H	0.931139	0.218824	0.007894
H453	H	1.264473	0.552158	0.341227
H454	H	0.672050	-0.123849	-0.274929
H455	H	1.005383	0.209485	0.058404
H456	H	1.338716	0.542818	0.391738
H457	H	0.936941	-0.688567	-0.223453
H458	H	1.270274	-0.355233	0.109881
H459	H	1.603607	-0.021900	0.443214
N460	N	0.500474	-0.299233	-0.387626
N461	N	0.833807	0.034101	-0.054293
N462	N	1.167140	0.367434	0.279040
H463	H	0.544006	-0.314982	-0.410933
H464	H	0.877339	0.018351	-0.077600
H465	H	1.210673	0.351684	0.255734
H466	H	0.469509	-0.321694	-0.359585
H467	H	0.802843	0.011639	-0.026252
H468	H	1.136176	0.344973	0.307082
H469	H	1.203378	-0.688338	-0.490297
H470	H	1.536711	-0.355005	-0.156964
H471	H	1.870045	-0.021671	0.176370
H472	H	1.156172	-0.959846	-0.442947
H473	H	1.489505	-0.626513	-0.109614
H474	H	1.822839	-0.293179	0.223719
H475	H	0.984404	-0.960001	-0.270918
H476	H	1.317738	-0.626668	0.062415
H477	H	1.651071	-0.293335	0.395749
H478	H	0.936902	-0.603458	-0.223441
H479	H	1.270236	-0.270125	0.109893
H480	H	1.603569	0.063209	0.443226
H481	H	0.937015	-0.829322	-0.223488
H482	H	1.270349	-0.495989	0.109846
H483	H	1.603682	-0.162655	0.443179
