data_functionalizedCrystal
_audit_creation_method	'MofGen! by Chris Wilmer'
_symmetry_space_group_name_H-M	'P1'
_symmetry_Int_Tables_number	1
_symmetry_cell_setting	triclinic
loop_
_symmetry_equiv_pos_as_xyz
  x,y,z
_cell_length_a	15.711784
_cell_length_b	23.532407
_cell_length_c	14.750522
_cell_angle_alpha	104.276273
_cell_angle_beta	99.523242
_cell_angle_gamma	101.218739
loop_
_atom_site_label
_atom_site_type_symbol
_atom_site_fract_x
_atom_site_fract_y
_atom_site_fract_z
O1	O	1.160894	0.326300	0.079919
O2	O	0.909599	0.283010	0.079905
O3	O	1.042820	0.223328	0.079895
O4	O	1.027672	0.385983	0.079929
O5	O	1.009576	0.194341	-0.079769
O6	O	0.876355	0.254024	-0.079759
O7	O	1.127649	0.297314	-0.079745
Zn8	Zn	0.996724	0.271067	-0.105102
Zn9	Zn	1.040524	0.309257	0.105262
O10	O	0.994428	0.356997	-0.079735
C11	C	0.860833	0.261446	0.000071
C12	C	0.765054	0.240368	0.000065
C13	C	0.640784	0.161017	0.000047
C14	C	0.730781	0.180828	0.000053
C15	C	0.709337	0.280120	0.000077
C16	C	0.619337	0.260317	0.000077
C17	C	0.585068	0.200765	0.000061
C18	C	0.563621	0.300065	0.000090
C19	C	0.473628	0.280263	0.000085
C20	C	0.439351	0.220712	0.000066
C21	C	0.495075	0.180962	0.000055
C22	C	0.597891	0.359616	0.000100
C23	C	0.542175	0.399364	0.000113
C24	C	0.452181	0.379563	0.000114
C25	C	0.417905	0.320013	0.000095
C26	C	0.396458	0.419313	0.000125
C27	C	0.306465	0.399511	0.000119
C28	C	0.327912	0.300210	0.000090
C29	C	1.025812	0.187536	0.000060
C30	C	1.024650	0.124072	0.000053
C31	C	1.096223	-0.259845	0.000109
C32	C	1.095146	-0.319473	0.000117
O33	O	1.161493	-0.342142	0.000156
N34	N	1.015944	-0.358896	0.000112
C35	C	0.937815	-0.338687	0.000109
O36	O	0.870348	-0.377695	0.000106
C37	C	0.938894	-0.279059	0.000109
C38	C	1.018099	-0.239641	0.000104
C39	C	1.175422	-0.220427	0.000106
C40	C	1.176498	-0.160804	0.000097
C41	C	1.098374	-0.140599	0.000091
C42	C	1.019175	-0.180018	0.000095
C43	C	0.860767	-0.258851	0.000113
C44	C	0.861852	-0.199218	0.000114
C45	C	0.941058	-0.159799	0.000109
C46	C	0.942127	-0.100190	0.000081
N47	N	1.021329	-0.060767	0.000086
C48	C	1.099453	-0.080972	0.000091
C49	C	0.935556	-0.463909	0.000112
C50	C	0.934475	-0.523537	0.000105
C51	C	1.091807	-0.504318	0.000114
C52	C	1.092886	-0.444690	0.000114
C53	C	1.014758	-0.424485	0.000117
C54	C	1.101706	0.044240	0.000071
C55	C	1.102774	0.103867	0.000058
C56	C	0.945443	0.084644	0.000054
C57	C	0.944373	0.025021	0.000062
C58	C	1.022513	0.004822	0.000074
O59	O	0.875816	-0.077478	0.000046
O60	O	1.166911	-0.041956	0.000106
C61	C	1.176416	0.318879	0.000091
C62	C	1.272196	0.339959	0.000103
C63	C	1.011437	0.392789	0.000102
C64	C	1.012600	0.456254	0.000115
N65	N	0.966837	0.245004	-0.248671
C66	C	1.153815	0.408108	-0.600410
C67	C	1.132893	0.389840	-0.700918
C68	C	1.028836	0.299042	-0.700924
C69	C	1.049747	0.317304	-0.600414
C70	C	1.112237	0.371837	-0.550165
C71	C	1.008169	0.281032	-0.550170
C72	C	1.029081	0.299291	-0.449668
C73	C	1.091571	0.353821	-0.399412
C74	C	1.133149	0.390096	-0.449664
C75	C	0.945684	0.226497	-0.600421
C76	C	0.904106	0.190226	-0.550176
C77	C	0.925013	0.208487	-0.449673
C78	C	0.987503	0.263017	-0.399417
C79	C	0.883435	0.172212	-0.399422
C80	C	0.904347	0.190471	-0.298920
C81	C	1.008415	0.281275	-0.298916
N82	N	1.070418	0.335317	0.248831
H83	H	1.165335	0.027803	0.000085
O84	O	0.742552	0.337942	-0.000074
C85	C	0.696803	0.348305	-0.082742
H86	H	0.666303	0.303321	-0.140552
H87	H	0.745340	0.378813	-0.110487
H88	H	0.641772	0.371161	-0.064036
O89	O	0.857465	-0.561740	0.000141
C90	C	0.788743	-0.531117	0.000109
H91	H	0.818873	-0.480306	0.030331
H92	H	0.743063	-0.546639	0.046463
H93	H	0.748722	-0.541644	-0.076493
O94	O	0.864099	0.155207	-0.250066
C95	C	0.929150	0.137974	-0.191899
H96	H	0.991558	0.140701	-0.222175
H97	H	0.902189	0.089604	-0.190755
H98	H	0.946305	0.169682	-0.115734
H99	H	0.570089	0.447851	0.000123
H100	H	0.424372	0.467799	0.000129
H101	H	0.798230	-0.182771	0.000117
O102	O	0.925206	0.208738	-0.698049
C103	C	0.833617	0.202836	-0.731639
H104	H	0.796599	0.195207	-0.673729
H105	H	0.806656	0.162661	-0.798876
H106	H	0.823536	0.245867	-0.749474
O107	O	0.252470	0.438207	0.000181
C108	C	0.302009	0.495011	0.000177
H109	H	0.375598	0.500061	0.030403
H110	H	0.278158	0.532426	0.046543
H111	H	0.292331	0.498482	-0.076416
H112	H	1.166754	0.419382	-0.741823
H113	H	0.796270	-0.290935	0.000123
H114	H	0.977959	0.254639	-0.741851
H115	H	0.612883	0.112525	0.000045
O116	O	0.859684	-0.444241	-0.000027
C117	C	0.838366	-0.425360	-0.082733
H118	H	0.901086	-0.413086	-0.110296
H119	H	0.809692	-0.384122	-0.064140
H120	H	0.787081	-0.463601	-0.140639
H121	H	1.155420	-0.520778	0.000122
H122	H	1.167274	0.135960	0.000052
H123	H	1.240996	-0.128713	0.000097
H124	H	0.853229	0.145823	-0.591103
H125	H	0.879872	-0.007080	0.000039
O126	O	1.251388	-0.239958	0.000065
C127	C	1.321517	-0.192365	0.000088
H128	H	1.292914	-0.158170	-0.030135
H129	H	1.366571	-0.211285	-0.046272
H130	H	1.361772	-0.169156	0.076686
H131	H	1.157382	-0.412598	0.000111
H132	H	0.300010	0.251719	0.000087
O133	O	0.869645	0.104383	0.000093
C134	C	0.887585	0.165460	0.000065
H135	H	0.961634	0.187344	0.030287
H136	H	0.847418	0.190412	0.046422
H137	H	0.868210	0.168012	-0.076535
H138	H	1.059291	0.325686	-0.257999
H139	H	0.366071	0.204589	0.000052
H140	H	0.832562	0.127808	-0.440350
H141	H	0.776144	0.148456	0.000045
H142	H	1.108598	0.368686	-0.317577
H143	H	0.467174	0.132471	0.000052
H144	H	1.204691	0.452519	-0.559493
O145	O	0.685352	0.378859	0.000280
C146	C	0.738516	0.373243	0.082960
H147	H	0.698495	0.373197	0.140750
H148	H	0.799876	0.412925	0.110729
H149	H	0.760167	0.329068	0.064261
H150	H	1.184025	0.434506	-0.408748
