data_functionalizedCrystal
_audit_creation_method	'MofGen! by Chris Wilmer'
_symmetry_space_group_name_H-M	'P1'
_symmetry_Int_Tables_number	1
_symmetry_cell_setting	triclinic
loop_
_symmetry_equiv_pos_as_xyz
  x,y,z
_cell_length_a	17.699083
_cell_length_b	9.198806
_cell_length_c	17.699104
_cell_angle_alpha	90.004383
_cell_angle_beta	83.287266
_cell_angle_gamma	89.997927
loop_
_atom_site_label
_atom_site_type_symbol
_atom_site_fract_x
_atom_site_fract_y
_atom_site_fract_z
O1	O	1.004083	0.120692	0.095709
O2	O	0.783705	0.120740	0.108161
O3	O	0.900112	0.120701	-0.008253
O4	O	0.887676	0.120730	0.212123
O5	O	0.900103	-0.121084	-0.008254
O6	O	0.783696	-0.121045	0.108160
O7	O	1.004073	-0.121093	0.095708
Cu8	Cu	0.893884	-0.143146	0.101934
Cu9	Cu	0.893895	0.142793	0.101935
O10	O	0.887667	-0.121055	0.212122
C11	C	0.755503	-0.000147	0.107715
C12	C	0.671485	-0.000129	0.106376
N13	N	0.893882	-0.344260	0.101933
C14	C	0.622869	-0.000120	0.174709
C15	C	0.543926	-0.000139	0.173446
C16	C	0.513600	-0.000156	0.103851
C17	C	0.562222	-0.000169	0.035513
C18	C	0.641164	-0.000161	0.036776
C19	C	0.243859	-0.000206	0.030418
C20	C	0.164911	-0.000210	0.029160
C21	C	0.146621	-0.000185	0.167088
C22	C	0.225563	-0.000176	0.168351
C23	C	0.274178	-0.000196	0.100014
C24	C	0.359777	-0.000179	0.101383
C25	C	0.428002	-0.000164	0.102480
C26	C	0.937564	-0.416462	0.145365
C27	C	0.937576	-0.583875	0.145364
C28	C	1.032275	-0.000204	0.096155
C29	C	1.116293	-0.000212	0.097493
C30	C	0.899659	-0.000191	-0.036450
C31	C	0.898314	-0.000192	-0.120467
N32	N	0.893903	0.343907	0.101930
C33	C	0.959058	-0.000164	-0.645338
C34	C	0.960317	-0.000177	-0.566395
C35	C	0.891982	-0.000165	-0.517777
C36	C	0.822383	-0.000155	-0.548107
C37	C	0.821125	-0.000152	-0.627049
C38	C	0.827456	-0.000168	-0.229741
C39	C	0.828720	-0.000167	-0.150794
C40	C	0.966648	-0.000193	-0.169086
C41	C	0.965390	-0.000190	-0.248029
C42	C	0.895792	-0.000188	-0.278352
C43	C	0.894427	-0.000176	-0.363951
C44	C	0.893345	-0.000166	-0.432179
C45	C	0.888120	-0.000159	0.240319
C46	C	0.889464	-0.000149	0.324337
H47	H	0.647554	-0.000105	0.231382
H48	H	1.021036	-0.000192	-0.287610
H49	H	0.504346	-0.000131	0.229090
H50	H	0.856494	-0.406386	0.064747
F51	F	0.986457	-0.665028	0.193971
H52	H	0.856499	-0.594011	0.064748
F53	F	0.753383	-0.000155	-0.262003
F54	F	0.749655	-0.000150	-0.496362
F55	F	0.132638	-0.000229	-0.044917
H56	H	1.014705	-0.000161	-0.684918
H57	H	1.016987	-0.000190	-0.541708
F58	F	1.040722	-0.000202	-0.136808
H59	H	0.974957	-0.354337	0.182546
F60	F	0.755984	-0.000156	-0.099052
F61	F	0.094875	-0.000169	0.239820
H62	H	0.764455	-0.000153	-0.651738
H63	H	0.283432	-0.000224	-0.025227
F64	F	0.257833	-0.000149	0.242424
H65	H	0.680747	-0.000167	-0.018868
F66	F	0.529945	-0.000197	-0.038557
