data_functionalizedCrystal
_audit_creation_method	'MofGen! by Chris Wilmer'
_symmetry_space_group_name_H-M	'P1'
_symmetry_Int_Tables_number	1
_symmetry_cell_setting	triclinic
loop_
_symmetry_equiv_pos_as_xyz
  x,y,z
_cell_length_a	29.839131
_cell_length_b	13.032831
_cell_length_c	13.032268
_cell_angle_alpha	89.113023
_cell_angle_beta	82.859460
_cell_angle_gamma	82.845366
loop_
_atom_site_label
_atom_site_type_symbol
_atom_site_fract_x
_atom_site_fract_y
_atom_site_fract_z
Zn1	Zn	-0.303377	1.498202	0.780727
Zn2	Zn	0.196623	1.998202	1.280727
Zn3	Zn	-0.370307	1.519883	0.608723
Zn4	Zn	0.129693	2.019883	1.108723
Zn5	Zn	-0.284611	1.348078	0.586974
Zn6	Zn	0.215389	1.848078	1.086974
Zn7	Zn	-0.367878	1.326134	0.758849
Zn8	Zn	0.132122	1.826134	1.258849
O9	O	-0.331543	1.423074	0.683818
O10	O	0.168457	1.923074	1.183818
O11	O	-0.321125	1.644991	0.776168
O12	O	0.178875	2.144991	1.276168
O13	O	-0.352102	1.515350	0.461924
O14	O	0.147898	2.015350	0.961924
O15	O	-0.224242	1.368102	0.612730
O16	O	0.275758	1.868102	1.112730
O17	O	-0.370299	1.660920	0.649797
O18	O	0.129701	2.160920	1.149797
O19	O	-0.238029	1.478398	0.755079
O20	O	0.261971	1.978398	1.255079
O21	O	-0.289141	1.389125	0.445945
O22	O	0.210859	1.889125	0.945945
O23	O	-0.286786	1.201254	0.591516
O24	O	0.213214	1.701254	1.091516
O25	O	-0.366159	1.330702	0.905665
O26	O	0.133841	1.830702	1.405665
O27	O	-0.347962	1.185132	0.717792
O28	O	0.152038	1.685132	1.217792
O29	O	-0.318770	1.457120	0.921739
O30	O	0.181230	1.957120	1.421739
O31	O	-0.432843	1.494072	0.628583
O32	O	0.067157	1.994072	1.128583
O33	O	-0.431059	1.351725	0.738880
O34	O	0.068941	1.851725	1.238880
C35	C	-0.315075	1.155878	0.649920
C36	C	0.184925	1.655878	1.149920
C37	C	-0.308042	1.041567	0.635443
C38	C	0.191958	1.541567	1.135443
C39	C	-0.335214	0.982667	0.691374
C40	C	0.164786	1.482667	1.191374
C41	C	-0.327945	0.864520	0.676412
C42	C	0.172055	1.364520	1.176412
C43	C	-0.448252	1.422895	0.683744
C44	C	0.051748	1.922895	1.183744
C45	C	-0.498188	1.422908	0.683758
C46	C	0.001812	1.922908	1.183758
C47	C	-0.808772	1.497302	0.626498
C48	C	-0.308772	1.997302	1.126498
C49	C	-0.996455	1.497423	0.626554
C50	C	-0.496455	1.997423	1.126554
O51	O	-1.021509	1.560533	0.577811
O52	O	-0.521509	2.060533	1.077811
N53	N	-1.019002	1.423278	0.683923
N54	N	-0.519002	1.923278	1.183923
C55	C	-0.994626	1.349100	0.741287
C56	C	-0.494626	1.849100	1.241287
O57	O	-1.018111	1.286044	0.790093
O58	O	-0.518111	1.786044	1.290093
C59	C	-0.806945	1.348984	0.741236
C60	C	-0.306945	1.848984	1.241236
C61	C	-0.784399	1.423128	0.683855
C62	C	-0.284399	1.923128	1.183855
C63	C	-0.786226	1.571441	0.569122
C64	C	-0.286226	2.071441	1.069122
C65	C	-0.739308	1.571406	0.569105
C66	C	-0.239308	2.071406	1.069105
C67	C	-0.714935	1.497232	0.626462
C68	C	-0.214935	1.997232	1.126462
C69	C	-0.737481	1.423093	0.683837
C70	C	-0.237481	1.923093	1.183837
C71	C	-0.782571	1.274811	0.798606
C72	C	-0.282571	1.774811	1.298606
C73	C	-0.735648	1.274790	0.798590
C74	C	-0.235648	1.774790	1.298590
C75	C	-0.713102	1.348935	0.741209
C76	C	-0.213102	1.848935	1.241209
C77	C	-0.666190	1.348885	0.741177
C78	C	-0.166190	1.848885	1.241177
N79	N	-0.643643	1.423031	0.683808
N80	N	-0.143643	1.923031	1.183808
C81	C	-0.668015	1.497205	0.626451
C82	C	-0.168015	1.997205	1.126451
C83	C	-1.093162	1.349165	0.741308
C84	C	-0.593162	1.849165	1.241308
C85	C	-1.140082	1.349193	0.741320
C86	C	-0.640082	1.849193	1.241320
C87	C	-1.141907	1.497518	0.626588
C88	C	-0.641907	1.997518	1.126588
C89	C	-1.094986	1.497485	0.626571
C90	C	-0.594986	1.997485	1.126571
C91	C	-1.070614	1.423311	0.683939
C92	C	-0.570614	1.923311	1.183939
C93	C	-0.569483	1.497126	0.626417
C94	C	-0.069483	1.997126	1.126417
C95	C	-0.522561	1.497082	0.626401
C96	C	-0.022561	1.997082	1.126401
C97	C	-0.520740	1.348761	0.741137
C98	C	-0.020740	1.848761	1.241137
C99	C	-0.567658	1.348801	0.741149
C100	C	-0.067658	1.848801	1.241149
C101	C	-0.592029	1.422992	0.683787
C102	C	-0.092029	1.922992	1.183787
O103	O	-0.641109	1.285815	0.789903
O104	O	-0.141109	1.785815	1.289903
O105	O	-0.644524	1.560265	0.577671
O106	O	-0.144524	2.060265	1.077671
C107	C	-0.855690	1.497336	0.626516
C108	C	-0.355690	1.997336	1.126516
C109	C	-0.878236	1.423197	0.683891
C110	C	-0.378236	1.923197	1.183891
C111	C	-0.853863	1.349024	0.741249
C112	C	-0.353863	1.849024	1.241249
C113	C	-0.925156	1.423225	0.683903
C114	C	-0.425156	1.923225	1.183903
C115	C	-0.949529	1.497399	0.626545
C116	C	-0.449529	1.997399	1.126545
C117	C	-0.926981	1.571545	0.569176
C118	C	-0.426981	2.071545	1.069176
C119	C	-0.880063	1.571510	0.569158
C120	C	-0.380063	2.071510	1.069158
C121	C	-0.876411	1.274878	0.798618
C122	C	-0.376411	1.774878	1.298618
C123	C	-0.923329	1.274918	0.798630
C124	C	-0.423329	1.774918	1.298630
C125	C	-0.947702	1.349091	0.741272
C126	C	-0.447702	1.849091	1.241272
C127	C	-0.214382	1.423279	0.683919
C128	C	0.285618	1.923279	1.183919
C129	C	-0.164454	1.423367	0.683962
C130	C	0.335546	1.923367	1.183962
C131	C	-0.344287	1.389044	0.952061
C132	C	0.155713	1.889044	1.452061
C133	C	-0.349718	1.374543	1.066370
C134	C	0.150282	1.874543	1.566370
C135	C	-0.348076	1.691313	0.717849
C136	C	0.151924	2.191313	1.217849
C137	C	-0.355122	1.805621	0.732351
C138	C	0.144878	2.305621	1.232351
C139	C	-0.318820	1.457031	0.416627
C140	C	0.181180	1.957031	0.916627
C141	C	-0.313275	1.471732	0.302344
C142	C	0.186725	1.971732	0.802344
C143	C	-0.328692	1.430627	1.125285
C144	C	0.171308	1.930627	1.625285
C145	C	-0.334304	1.415640	1.243430
C146	C	0.165696	1.915640	1.743430
H147	H	-0.504205	1.557459	0.579670
H148	H	-0.004205	2.057459	1.079670
H149	H	-0.383766	0.842654	0.791322
H150	H	0.116234	1.342654	1.291322
H151	H	-0.363857	1.019706	0.750338
H152	H	0.136143	1.519706	1.250338
H153	H	-0.356458	1.356519	1.280451
H154	H	0.143542	1.856519	1.780451
H155	H	-0.299297	0.827484	0.617452
H156	H	0.200703	1.327484	1.117452
H157	H	-0.306534	1.489733	1.088259
H158	H	0.193466	1.989733	1.588259
H159	H	-1.158433	1.288809	0.788034
H160	H	-0.658433	1.788809	1.288034
H161	H	-0.279396	1.004527	0.576487
H162	H	0.220604	1.504527	1.076487
H163	H	-0.371870	1.315426	1.103395
H164	H	0.128130	1.815426	1.603395
H165	H	-0.589321	1.557541	0.579709
H166	H	-0.089321	2.057541	1.079709
H167	H	-0.291115	1.530841	1.265323
H168	H	0.208885	2.030841	1.765323
H169	H	-0.720955	1.631783	0.522384
H170	H	-0.220955	2.131783	1.022384
H171	H	-0.806066	1.631847	0.522415
H172	H	-0.306066	2.131847	1.022415
H173	H	-0.800919	1.214431	0.845326
H174	H	-0.300919	1.714431	1.345326
H175	H	-1.076632	1.557860	0.579847
H176	H	-0.576632	2.057860	1.079847
H177	H	-1.161759	1.557913	0.579885
H178	H	-0.661759	2.057913	1.079885
H179	H	-0.586016	1.288429	0.787877
H180	H	-0.086016	1.788429	1.287877
H181	H	-1.073321	1.288761	0.788025
H182	H	-0.573321	1.788761	1.288025
H183	H	-0.500888	1.288366	0.787833
H184	H	-0.000888	1.788366	1.287833
H185	H	-0.715807	1.214390	0.845310
H186	H	-0.215807	1.714390	1.345310
H187	H	-0.861710	1.631885	0.522433
H188	H	-0.361710	2.131885	1.022433
H189	H	-0.946834	1.631937	0.522470
H190	H	-0.446834	2.131937	1.022470
H191	H	-0.941681	1.214531	0.845354
H192	H	-0.441681	1.714531	1.345354
H193	H	-0.856570	1.214477	0.845327
H194	H	-0.356570	1.714477	1.345327
