data_functionalizedCrystal
_audit_creation_method	'MofGen! by Chris Wilmer'
_symmetry_space_group_name_H-M	'P1'
_symmetry_Int_Tables_number	1
_symmetry_cell_setting	triclinic
loop_
_symmetry_equiv_pos_as_xyz
  x,y,z
_cell_length_a	12.837939
_cell_length_b	14.750135
_cell_length_c	12.837942
_cell_angle_alpha	104.007035
_cell_angle_beta	94.828790
_cell_angle_gamma	75.989199
loop_
_atom_site_label
_atom_site_type_symbol
_atom_site_fract_x
_atom_site_fract_y
_atom_site_fract_z
O1	O	-1.422810	0.079822	-0.251656
O2	O	-1.119678	0.079826	-0.238213
O3	O	-1.264521	0.079818	-0.093369
O4	O	-1.277967	0.079830	-0.396500
O5	O	-1.223553	-0.079846	-0.134329
O6	O	-1.078710	-0.079838	-0.279173
O7	O	-1.381842	-0.079842	-0.292616
Zn8	Zn	-1.223771	-0.105190	-0.292398
Zn9	Zn	-1.277748	0.105174	-0.238431
O10	O	-1.236999	-0.079834	-0.437460
C11	C	-1.060125	-0.000006	-0.254151
C12	C	-0.943710	-0.000004	-0.240607
N13	N	-1.186941	-0.248758	-0.329229
C14	C	-0.718833	-0.000013	-0.403439
C15	C	-0.609451	-0.000012	-0.390718
C16	C	-0.615559	-0.000009	-0.202446
C17	C	-0.724942	-0.000010	-0.215167
C18	C	-0.776575	-0.000010	-0.315666
C19	C	-0.885961	-0.000004	-0.328385
C20	C	-0.892065	-0.000008	-0.140116
C21	C	-0.782683	-0.000007	-0.127394
C22	C	-1.417437	-0.600500	-0.098834
C23	C	-1.391630	-0.701008	-0.124613
C24	C	-1.263324	-0.701013	-0.252829
C25	C	-1.289125	-0.600503	-0.227065
C26	C	-1.366181	-0.550255	-0.150066
C27	C	-1.237869	-0.550258	-0.278297
C28	C	-1.263664	-0.449757	-0.252530
C29	C	-1.340715	-0.399501	-0.175532
C30	C	-1.391976	-0.449754	-0.124300
C31	C	-1.160807	-0.600508	-0.355290
C32	C	-1.109551	-0.550262	-0.406522
C33	C	-1.135351	-0.449760	-0.380761
C34	C	-1.212402	-0.399504	-0.303763
C35	C	-1.084090	-0.399507	-0.431994
C36	C	-1.109885	-0.299006	-0.406227
C37	C	-1.238197	-0.299003	-0.277997
C38	C	-0.441395	-0.000010	-0.276678
C39	C	-0.557810	-0.000009	-0.290224
C40	C	-1.239496	-0.000013	-0.074780
C41	C	-1.225952	-0.000012	0.041636
N42	N	-1.314586	0.248742	-0.201593
C43	C	-1.262025	-0.000001	-0.456048
C44	C	-1.275570	0.000004	-0.572462
C45	C	-1.388785	0.000006	0.266515
C46	C	-1.376065	0.000008	0.375898
C47	C	-1.187791	0.000001	0.369788
C48	C	-1.200512	-0.000001	0.260405
C49	C	-1.301012	0.000000	0.208772
C50	C	-1.313730	-0.000008	0.099385
C51	C	-1.125460	-0.000009	0.093280
C52	C	-1.112739	-0.000007	0.202662
H53	H	-0.927999	-0.000006	-0.410217
H54	H	-1.030916	-0.000005	0.244718
C55	C	-1.501096	-0.546108	-0.015171
C56	C	-1.540455	-0.611619	0.024200
C57	C	-1.617508	-0.561548	0.101278
H58	H	-1.558536	-0.506905	-0.046999
H59	H	-1.469215	-0.506917	0.042252
H60	H	-1.572337	-0.650793	-0.033212
H61	H	-1.483042	-0.650824	0.056048
H62	H	-1.585627	-0.522357	0.158701
H63	H	-1.674940	-0.522346	0.069441
H64	H	-1.644215	-0.605989	0.128008
H65	H	-1.139804	-0.682342	-0.376262
C66	C	-1.025963	-0.604996	-0.490130
C67	C	-1.014359	-0.703765	-0.501750
C68	C	-0.937380	-0.754213	-0.578774
H69	H	-0.959133	-0.588634	-0.467697
H70	H	-1.048459	-0.588589	-0.556942
H71	H	-0.991857	-0.720165	-0.434952
H72	H	-1.081168	-0.720156	-0.524198
H73	H	-0.959877	-0.737806	-0.645586
H74	H	-0.870556	-0.737843	-0.556333
H75	H	-0.929504	-0.821233	-0.586675
C76	C	-0.559498	-0.000209	-0.093364
C77	C	-0.566852	-0.082363	-0.060746
C78	C	-0.515211	-0.082585	0.039729
H79	H	-0.592903	0.055405	-0.042376
H80	H	-0.486061	-0.000265	-0.098328
H81	H	-0.640275	-0.082299	-0.055775
H82	H	-0.533442	-0.137991	-0.111705
H83	H	-0.441775	-0.082640	0.034766
H84	H	-0.548621	-0.026967	0.090708
H85	H	-0.520186	-0.138329	0.061869
C86	C	-1.078615	0.000062	0.425682
C87	C	-1.004469	0.000084	0.351712
C88	C	-0.903889	0.000158	0.403167
H89	H	-1.055307	-0.055594	0.453959
H90	H	-1.083990	0.055770	0.482480
H91	H	-0.999092	-0.055618	0.294933
H92	H	-1.027742	0.055736	0.323430
H93	H	-0.909264	0.055866	0.459964
H94	H	-0.880592	-0.055499	0.431442
H95	H	-0.853572	0.000182	0.352988
C96	C	-1.030099	0.000133	0.030758
C97	C	-0.991265	0.082262	0.076603
C98	C	-0.903412	0.082414	0.019047
H99	H	-1.051929	0.000179	-0.041791
H100	H	-0.975004	-0.055518	0.033183
H101	H	-1.046349	0.137899	0.074167
H102	H	-0.969412	0.082234	0.149147
H103	H	-0.848316	0.026763	0.021472
H104	H	-0.925251	0.082457	-0.053501
H105	H	-0.877045	0.138132	0.050150
C106	C	-0.726627	-0.000199	-0.018309
C107	C	-0.733980	-0.082349	0.014317
C108	C	-0.682346	-0.082560	0.114797
H109	H	-0.760038	0.055418	0.032672
H110	H	-0.653191	-0.000251	-0.023269
H111	H	-0.807402	-0.082288	0.019284
H112	H	-0.700564	-0.137979	-0.036635
H113	H	-0.608909	-0.082613	0.109838
H114	H	-0.715762	-0.026940	0.165769
H115	H	-0.687319	-0.138302	0.136943
H116	H	-0.760875	-0.000012	-0.485269
C117	C	-0.546958	0.000038	-0.486131
C118	C	-0.615600	0.000062	-0.576855
C119	C	-0.558072	0.000120	-0.664770
H120	H	-0.489869	-0.055624	-0.499507
H121	H	-0.518475	0.055740	-0.470854
H122	H	-0.644066	-0.055635	-0.592131
H123	H	-0.672689	0.055719	-0.563515
H124	H	-0.529590	0.055822	-0.649493
H125	H	-0.500985	-0.055543	-0.678135
H126	H	-0.604639	0.000145	-0.726334
H127	H	-1.300953	-0.258089	-0.215305
C128	C	-1.475593	-0.395003	-0.040716
C129	C	-1.428433	-0.337202	0.043711
C130	C	-1.505467	-0.286714	0.120667
H131	H	-1.502558	-0.439158	-0.013753
H132	H	-1.532871	-0.355792	-0.072747
H133	H	-1.371174	-0.376409	0.075739
H134	H	-1.401474	-0.293029	0.016782
H135	H	-1.562745	-0.247503	0.088636
H136	H	-1.532426	-0.330876	0.147621
H137	H	-1.473482	-0.247483	0.177955
C138	C	-1.447086	-0.755619	-0.068865
C139	C	-1.370182	-0.813286	-0.014015
C140	C	-1.421221	-0.863601	0.037363
H141	H	-1.484311	-0.794912	-0.120804
H142	H	-1.496643	-0.711332	-0.019260
H143	H	-1.320644	-0.857567	-0.063615
H144	H	-1.332953	-0.774016	0.037940
H145	H	-1.470778	-0.819314	0.086967
H146	H	-1.458445	-0.902888	-0.014583
H147	H	-1.369051	-0.902726	0.074592
C148	C	-1.000256	-0.454021	-0.515430
C149	C	-0.901985	-0.429577	-0.481944
C150	C	-0.824726	-0.479785	-0.558769
H151	H	-1.022593	-0.437610	-0.582254
H152	H	-0.992158	-0.521081	-0.523421
H153	H	-0.910084	-0.362532	-0.473966
H154	H	-0.879615	-0.445991	-0.415132
H155	H	-0.816628	-0.546845	-0.566760
H156	H	-0.847074	-0.463370	-0.625588
H157	H	-0.758039	-0.463214	-0.536055
H158	H	-1.470614	-0.000002	0.224472
H159	H	-1.395561	-0.000011	0.057347
H160	H	-0.939092	0.000001	-0.068643
H161	H	-1.447540	0.000016	0.422909
C162	C	-1.054114	-0.244398	-0.461658
C163	C	-0.999314	-0.186710	-0.384734
C164	C	-0.947908	-0.136402	-0.435755
H165	H	-1.106035	-0.205119	-0.498920
H166	H	-1.004476	-0.288689	-0.511178
H167	H	-1.048947	-0.142425	-0.335232
H168	H	-0.947376	-0.225965	-0.347467
H169	H	-0.898271	-0.180693	-0.485275
H170	H	-0.999836	-0.097129	-0.473016
H171	H	-0.910712	-0.097262	-0.383571
H172	H	-1.361713	-0.317667	-0.154551
H173	H	-1.200581	-0.741936	-0.315519
