data_functionalizedCrystal
_audit_creation_method	'MofGen! by Chris Wilmer'
_symmetry_space_group_name_H-M	'P1'
_symmetry_Int_Tables_number	1
_symmetry_cell_setting	triclinic
loop_
_symmetry_equiv_pos_as_xyz
  x,y,z
_cell_length_a	9.065218
_cell_length_b	9.065218
_cell_length_c	8.140239
_cell_angle_alpha	89.997198
_cell_angle_beta	89.998314
_cell_angle_gamma	85.015885
loop_
_atom_site_label
_atom_site_type_symbol
_atom_site_fract_x
_atom_site_fract_y
_atom_site_fract_z
O1	O	-0.216355	-1.960398	0.136610
O2	O	0.283645	-1.460398	0.636610
O3	O	-0.234101	-1.531113	0.136612
O4	O	0.265899	-1.031113	0.636612
O5	O	-0.010585	-1.754629	0.136608
O6	O	0.489415	-1.254629	0.636608
O7	O	-0.439870	-1.736882	0.136615
O8	O	0.060130	-1.236882	0.636615
O9	O	-0.010583	-1.754616	-0.136619
O10	O	0.489417	-1.254616	0.363381
O11	O	-0.234098	-1.531101	-0.136615
O12	O	0.265902	-1.031101	0.363385
O13	O	-0.216352	-1.960385	-0.136617
O14	O	0.283648	-1.460385	0.363383
Zn15	Zn	-0.225225	-1.745741	-0.179997
Zn16	Zn	0.274775	-1.245741	0.320003
Zn17	Zn	-0.225228	-1.745758	0.179992
Zn18	Zn	0.274772	-1.245758	0.679992
O19	O	-0.439868	-1.736870	-0.136613
O20	O	0.060132	-1.236870	0.363387
C21	C	-0.232394	-1.476120	-0.000001
C22	C	0.267606	-0.976120	0.499999
C23	C	-0.227294	-1.312277	-0.000000
C24	C	0.272706	-0.812277	0.500000
C25	C	0.044403	-1.752917	-0.000003
C26	C	0.544403	-1.252917	0.499997
C27	C	0.208245	-1.747817	0.000005
C28	C	0.708245	-1.247817	0.500005
C29	C	-0.218059	-2.015378	0.000000
C30	C	0.281941	-1.515378	0.500000
C31	C	-0.223158	-2.179221	0.000010
C32	C	0.276842	-1.679221	0.500010
C33	C	-0.494855	-1.738582	0.000002
C34	C	0.005145	-1.238582	0.500002
C35	C	-0.658698	-1.743681	0.000005
C36	C	-0.158698	-1.243681	0.500005
N37	N	-0.225221	-1.745741	-0.425679
N38	N	0.274779	-1.245741	0.074321
N39	N	-0.225220	-1.745770	0.425674
N40	N	0.274780	-1.245770	0.925674
