data_functionalizedCrystal
_audit_creation_method	'MofGen! by Chris Wilmer'
_symmetry_space_group_name_H-M	'P1'
_symmetry_Int_Tables_number	1
_symmetry_cell_setting	triclinic
loop_
_symmetry_equiv_pos_as_xyz
  x,y,z
_cell_length_a	16.625539
_cell_length_b	18.215407
_cell_length_c	18.215405
_cell_angle_alpha	90.024806
_cell_angle_beta	90.031772
_cell_angle_gamma	90.021494
loop_
_atom_site_label
_atom_site_type_symbol
_atom_site_fract_x
_atom_site_fract_y
_atom_site_fract_z
Zn1	Zn	-0.455910	-1.125078	0.292985
Zn2	Zn	-0.321069	-1.124985	0.416058
Zn3	Zn	-0.321088	-1.002009	0.293010
Zn4	Zn	-0.455857	-1.001977	0.416014
O5	O	-0.388481	-1.063512	0.354517
O6	O	-0.438037	-1.228050	0.309319
O7	O	-0.208239	-1.108646	0.399765
O8	O	-0.339003	-1.018387	0.190022
O9	O	-0.338970	-1.227982	0.399740
O10	O	-0.438056	-1.108806	0.190004
O11	O	-0.208253	-1.018296	0.309362
O12	O	-0.338951	-0.899021	0.309319
O13	O	-0.568696	-1.018332	0.399664
O14	O	-0.437965	-0.898997	0.399689
O15	O	-0.568735	-1.108774	0.309275
O16	O	-0.338918	-1.108615	0.519037
O17	O	-0.437946	-1.018242	0.519004
C18	C	-0.388455	-0.872306	0.354502
C19	C	-0.388463	-0.790507	0.354514
C20	C	-0.439952	-0.602320	0.401642
C21	C	-0.439961	-0.525461	0.401644
C22	C	-0.337013	-0.525457	0.307396
C23	C	-0.337009	-0.602314	0.307391
C24	C	-0.388477	-0.640744	0.354518
C25	C	-0.388490	-0.487028	0.354525
C26	C	-0.388499	-0.403694	0.354526
C27	C	-0.388469	-0.724083	0.354516
C28	C	-0.598790	-1.063560	0.354462
C29	C	-0.688411	-1.063581	0.354438
C30	C	-1.016587	-1.063615	0.354356
C31	C	-0.925278	-1.063603	0.354381
C32	C	-0.852502	-1.063598	0.354398
C33	C	-0.761188	-1.063586	0.354422
C34	C	-0.178990	-1.063507	0.354518
C35	C	-0.089369	-1.063629	0.354334
C36	C	-0.388442	-1.063435	0.545723
C37	C	-0.388452	-1.063469	0.627522
C38	C	-0.388504	-0.255465	0.354529
C39	C	-0.388504	-0.337264	0.354529
C40	C	-0.388537	-1.063610	0.162564
C41	C	-0.388562	-1.063652	0.080765
C42	C	-0.336984	-1.110637	0.815708
C43	C	-0.337003	-1.110670	0.892567
C44	C	-0.440036	-1.016482	0.892573
C45	C	-0.440020	-1.016454	0.815716
C46	C	-0.388489	-1.063530	0.777285
C47	C	-0.388525	-1.063591	0.931001
C48	C	-0.388546	-1.063627	1.014335
C49	C	-0.388469	-1.063496	0.693946
H50	H	-0.295108	-0.494158	0.269027
C51	C	-0.280382	-0.644583	0.255553
H52	H	-0.249722	-0.610689	0.227494
H53	H	-0.311288	-0.674589	0.223522
H54	H	-0.245192	-0.674540	0.283669
C55	C	-0.496713	-0.964698	0.934845
H56	H	-0.527392	-0.936644	0.900952
H57	H	-0.465844	-0.932660	0.964875
H58	H	-0.531884	-0.992847	0.964779
C59	C	-0.496581	-0.483195	0.453479
H60	H	-0.489221	-0.431917	0.446729
H61	H	-0.484683	-0.495766	0.502912
H62	H	-0.550779	-0.495819	0.442765
H63	H	-0.295025	-1.148970	0.784420
C64	C	-0.280343	-1.162484	0.934830
H65	H	-0.249649	-1.190510	0.900932
H66	H	-0.311224	-1.194546	0.964764
H67	H	-0.245186	-1.134357	0.964858
H68	H	-0.481966	-0.978093	0.784429
H69	H	-0.481863	-0.633608	0.440014
