data_functionalizedCrystal
_audit_creation_method	'MofGen! by Chris Wilmer'
_symmetry_space_group_name_H-M	'P1'
_symmetry_Int_Tables_number	1
_symmetry_cell_setting	triclinic
loop_
_symmetry_equiv_pos_as_xyz
  x,y,z
_cell_length_a	6.817900
_cell_length_b	14.858565
_cell_length_c	12.200875
_cell_angle_alpha	93.921261
_cell_angle_beta	107.143593
_cell_angle_gamma	104.523916
loop_
_atom_site_label
_atom_site_type_symbol
_atom_site_fract_x
_atom_site_fract_y
_atom_site_fract_z
V1	V	-4.073571	-0.128881	-0.357981
O2	O	-4.054796	0.005976	-0.350838
O3	O	-4.029959	-0.255341	-0.355850
O4	O	-4.043217	-0.126994	-0.513965
O5	O	-4.041446	-0.123259	-0.191628
V6	V	-4.554240	-0.112740	-0.338046
O7	O	-4.341090	-0.164290	-0.401712
O8	O	-4.736919	-0.077331	-0.294315
O9	O	-4.374646	0.013720	-0.340177
O10	O	-4.690413	-0.247597	-0.345189
O11	O	-4.703762	-0.118362	-0.504399
O12	O	-4.361388	-0.114627	-0.182062
C13	C	-3.875541	-0.286166	-0.350284
C14	C	-3.921290	-0.389549	-0.349581
C15	C	-3.892452	-0.122446	-0.551974
C16	C	-3.948949	-0.121740	-0.679494
C17	C	-4.052348	-0.120448	-0.912965
C18	C	-3.994801	-0.121167	-0.783045
C19	C	-4.088740	-0.768119	-0.347022
C20	C	-4.042142	-0.662789	-0.347733
C21	C	-4.005016	-0.578837	-0.348300
C22	C	-3.958416	-0.473501	-0.349014
C23	C	-4.192406	0.044540	-0.345740
C24	C	-4.125896	0.147922	-0.346451
C25	C	-4.175495	-0.119178	-0.144047
C26	C	-4.098235	-0.119879	-0.016526
