data_functionalizedCrystal
_audit_creation_method	'MofGen! by Chris Wilmer'
_symmetry_space_group_name_H-M	'P1'
_symmetry_Int_Tables_number	1
_symmetry_cell_setting	triclinic
loop_
_symmetry_equiv_pos_as_xyz
  x,y,z
_cell_length_a	9.065218
_cell_length_b	9.065218
_cell_length_c	9.130313
_cell_angle_alpha	89.996409
_cell_angle_beta	90.003019
_cell_angle_gamma	94.984115
loop_
_atom_site_label
_atom_site_type_symbol
_atom_site_fract_x
_atom_site_fract_y
_atom_site_fract_z
O1	O	-0.216357	1.960399	-0.121798
O2	O	-0.234103	1.531115	-0.121799
O3	O	-0.010587	1.754630	-0.121794
O4	O	-0.439872	1.736884	-0.121803
O5	O	-0.010581	1.754615	0.121804
O6	O	-0.234096	1.531099	0.121799
O7	O	-0.216350	1.960384	0.121801
Cu8	Cu	-0.225222	1.745740	0.144043
Cu9	Cu	-0.225230	1.745758	-0.144041
O10	O	-0.439866	1.736868	0.121796
C11	C	-0.232394	1.476120	-0.000000
C12	C	-0.227294	1.312277	-0.000001
C13	C	-0.494855	1.738582	-0.000005
C14	C	-0.658698	1.743681	-0.000008
C15	C	0.044403	1.752917	0.000003
C16	C	0.208245	1.747817	-0.000003
C17	C	-0.218059	2.015378	-0.000001
C18	C	-0.223158	2.179221	-0.000010
N19	N	-0.225216	1.745738	0.346665
N20	N	-0.225225	1.745772	-0.346664
C21	C	-0.126286	1.844745	0.423319
C22	C	-0.126286	1.844759	0.576656
C23	C	-0.324160	1.646755	0.576671
C24	C	-0.324152	1.646735	0.423337
H25	H	-0.045724	1.925357	0.360897
C26	C	-0.433057	1.537882	0.339013
N27	N	-0.515103	1.455920	0.275500
H28	H	-0.045726	1.925377	0.639064
H29	H	-0.404713	1.566150	0.639113
