data_functionalizedCrystal
_audit_creation_method	'MofGen! by Chris Wilmer'
_symmetry_space_group_name_H-M	'P1'
_symmetry_Int_Tables_number	1
_symmetry_cell_setting	triclinic
loop_
_symmetry_equiv_pos_as_xyz
  x,y,z
_cell_length_a	15.944499
_cell_length_b	15.944493
_cell_length_c	13.930277
_cell_angle_alpha	90.001318
_cell_angle_beta	89.990192
_cell_angle_gamma	83.476327
loop_
_atom_site_label
_atom_site_type_symbol
_atom_site_fract_x
_atom_site_fract_y
_atom_site_fract_z
O1	O	1.114532	0.108128	-0.079876
O2	O	0.869974	0.121530	-0.079863
O3	O	0.998957	-0.007451	-0.079878
O4	O	0.985549	0.237108	-0.079861
O5	O	0.998939	-0.007454	0.079784
O6	O	0.869956	0.121527	0.079798
O7	O	1.114514	0.108125	0.079786
Zn8	Zn	0.992232	0.114825	0.105142
Zn9	Zn	0.992256	0.114829	-0.105219
O10	O	0.985531	0.237105	0.079801
C11	C	0.838670	0.120979	-0.000031
C12	C	0.745422	0.119334	-0.000027
C13	C	0.453871	0.194269	-0.000036
C14	C	0.514917	0.155317	-0.078762
C15	C	0.409787	0.113358	-0.000050
C16	C	0.514885	0.155293	0.078652
C17	C	0.574695	0.116299	-0.000037
C18	C	0.469605	0.074384	-0.078841
C19	C	0.469567	0.074371	0.078644
C20	C	0.530595	0.035361	-0.000101
C21	C	0.314787	0.111666	-0.000058
C22	C	0.669694	0.117984	-0.000036
C23	C	0.998400	-0.038747	-0.000051
C24	C	0.996757	-0.131995	-0.000063
C25	C	1.072679	-0.367769	-0.000049
C26	C	1.031746	-0.418328	-0.078768
C27	C	0.993713	-0.302716	-0.000051
C28	C	1.031710	-0.418307	0.078646
C29	C	0.990778	-0.467625	-0.000036
C30	C	0.952801	-0.352047	-0.078835
C31	C	0.952776	-0.352022	0.078649
C32	C	0.911785	-0.402548	-0.000089
C33	C	0.995405	-0.207716	-0.000061
C34	C	0.989079	-0.562622	-0.000033
C35	C	1.145818	0.108675	-0.000048
C36	C	1.239066	0.110320	-0.000059
C37	C	0.986088	0.268401	-0.000028
C38	C	0.987731	0.361650	-0.000023
N39	N	0.992222	0.114822	0.248708
N40	N	0.992272	0.114825	-0.248785
C41	C	0.935140	0.171919	0.700984
C42	C	1.049395	0.057732	0.700940
C43	C	1.049385	0.057730	0.600445
C44	C	0.992252	0.114823	0.550214
C45	C	0.935130	0.171920	0.600479
C46	C	1.106512	0.000640	0.550172
C47	C	1.106505	0.000636	0.449670
C48	C	1.049368	0.057726	0.399438
C49	C	0.992242	0.114824	0.449709
C50	C	0.935110	0.171918	0.399478
C51	C	0.877980	0.229013	0.449747
C52	C	0.877993	0.229010	0.550246
C53	C	1.049355	0.057729	0.298939
C54	C	0.935100	0.171919	0.298973
H55	H	0.449450	0.040176	0.145198
H56	H	0.449641	0.040195	-0.145472
N57	N	1.073595	-0.454638	-0.162261
N58	N	1.149727	-0.446715	-0.176295
H59	H	1.179288	-0.472356	-0.235261
H60	H	0.888572	0.218409	0.258081
H61	H	0.534946	0.189527	0.145206
H62	H	0.919479	-0.323219	-0.145457
N63	N	1.107703	-0.000614	0.247629
N64	N	1.159864	0.025999	0.191529
H65	H	1.201075	-0.015224	0.155310
H66	H	0.843713	-0.418002	-0.000129
N67	N	0.572257	-0.048940	-0.000146
N68	N	0.620332	-0.073766	0.067457
H69	H	0.649757	-0.133304	0.067425
H70	H	1.140699	-0.352153	-0.000131
H71	H	1.153022	-0.045854	0.408747
H72	H	0.420527	0.261416	-0.000108
H73	H	0.535015	0.189543	-0.145310
N74	N	0.819652	0.287340	0.601591
N75	N	0.820784	0.364983	0.590367
H76	H	0.779582	0.406180	0.626631
H77	H	0.919449	-0.323056	0.145207
N78	N	1.073563	-0.454606	0.162125
N79	N	1.149694	-0.446677	0.176124
H80	H	1.179259	-0.472312	0.235077
N81	N	0.819635	0.287333	0.398418
N82	N	0.819647	0.287325	0.308687
H83	H	0.778444	0.328514	0.272431
H84	H	1.095914	0.011252	0.741841
H85	H	0.888623	0.218403	0.741916
H86	H	1.153032	-0.045840	0.591073
