data_functionalizedCrystal
_audit_creation_method	'MofGen! by Chris Wilmer'
_symmetry_space_group_name_H-M	'P1'
_symmetry_Int_Tables_number	1
_symmetry_cell_setting	triclinic
loop_
_symmetry_equiv_pos_as_xyz
  x,y,z
_cell_length_a	12.827892
_cell_length_b	11.169417
_cell_length_c	11.169409
_cell_angle_alpha	90.022423
_cell_angle_beta	89.966972
_cell_angle_gamma	89.985670
loop_
_atom_site_label
_atom_site_type_symbol
_atom_site_fract_x
_atom_site_fract_y
_atom_site_fract_z
Zn1	Zn	-0.415979	-1.834929	-0.678596
Zn2	Zn	-0.590766	-1.834798	-0.477910
Zn3	Zn	-0.416036	-1.634212	-0.477924
Zn4	Zn	-0.590675	-1.634205	-0.678549
O5	O	-0.503364	-1.734536	-0.578245
O6	O	-0.439178	-2.002861	-0.651989
O7	O	-0.567650	-1.808138	-0.309962
O8	O	-0.269793	-1.660896	-0.504569
O9	O	-0.567594	-2.002765	-0.504546
O10	O	-0.269750	-1.808361	-0.652002
O11	O	-0.439277	-1.660769	-0.309972
O12	O	-0.439189	-1.466262	-0.504523
O13	O	-0.567439	-1.660883	-0.846505
O14	O	-0.567495	-1.466256	-0.651921
O15	O	-0.439090	-1.808354	-0.846540
O16	O	-0.736990	-1.808131	-0.504500
O17	O	-0.736923	-1.660756	-0.651908
C18	C	-0.503339	-1.422711	-0.578219
C19	C	-0.503353	-1.289311	-0.578237
C20	C	-0.774874	-1.734461	-0.578224
C21	C	-0.891027	-1.734539	-0.578255
C22	C	-0.942810	-1.807551	-0.505393
C23	C	-1.062860	-1.807633	-0.505424
C24	C	-0.230794	-1.734644	-0.578292
C25	C	-0.114641	-1.734690	-0.578312
C26	C	-0.503248	-1.734632	-0.891287
C27	C	-0.503199	-1.734673	-1.024687
C28	C	-0.503381	-1.047578	-0.578262
C29	C	-0.503366	-1.180978	-0.578244
C30	C	-0.503404	-1.734509	-0.266420
C31	C	-0.503159	-1.734701	-0.133021
H32	H	-0.898269	-1.870005	-0.442995
C33	C	-1.055222	-1.651535	-0.661646
C34	C	-0.992475	-1.719477	-0.738569
C35	C	-0.937726	-1.642918	-0.815363
H36	H	-1.012627	-1.599255	-0.615774
H37	H	-1.103247	-1.605803	-0.707452
H38	H	-0.944455	-1.765188	-0.692769
H39	H	-1.035043	-1.771754	-0.784468
H40	H	-0.985752	-1.597187	-0.861168
H41	H	-0.895138	-1.590642	-0.769481
H42	H	-0.895154	-1.689006	-0.867571
H43	H	-1.107393	-1.870138	-0.443041
H44	H	-0.935570	-1.672096	-0.640661
