data_functionalizedCrystal
_audit_creation_method	'MofGen! by Chris Wilmer'
_symmetry_space_group_name_H-M	'P1'
_symmetry_Int_Tables_number	1
_symmetry_cell_setting	triclinic
loop_
_symmetry_equiv_pos_as_xyz
  x,y,z
_cell_length_a	6.817900
_cell_length_b	15.300992
_cell_length_c	10.773894
_cell_angle_alpha	96.209485
_cell_angle_beta	96.645922
_cell_angle_gamma	104.175078
loop_
_atom_site_label
_atom_site_type_symbol
_atom_site_fract_x
_atom_site_fract_y
_atom_site_fract_z
V1	V	-3.952239	-0.121441	-0.389310
O2	O	-3.937688	0.009245	-0.381512
O3	O	-3.907615	-0.244077	-0.387019
O4	O	-3.869808	-0.118077	-0.558932
O5	O	-3.975757	-0.117627	-0.208410
V6	V	-4.439787	-0.105987	-0.367628
O7	O	-4.204668	-0.155343	-0.436872
O8	O	-4.637556	-0.072085	-0.320066
O9	O	-4.261205	0.016649	-0.369918
O10	O	-4.571735	-0.236673	-0.375425
O11	O	-4.533666	-0.109801	-0.548528
O12	O	-4.299011	-0.109351	-0.198006
C13	C	-3.754636	-0.274020	-0.380973
C14	C	-3.799210	-0.374267	-0.380231
C15	C	-3.802437	-0.409459	-0.265609
C16	C	-3.844338	-0.503652	-0.264916
C17	C	-3.882999	-0.562651	-0.378845
C18	C	-3.879777	-0.527453	-0.493476
C19	C	-3.837890	-0.433262	-0.494169
C20	C	-3.967076	-0.723777	-0.492025
C21	C	-4.008962	-0.817975	-0.491333
C22	C	-3.973525	-0.794167	-0.262772
C23	C	-3.931638	-0.699976	-0.263465
C24	C	-3.928415	-0.664784	-0.378096
C25	C	-3.706409	-0.113293	-0.600263
C26	C	-3.720321	-0.111354	-0.738933
C27	C	-3.898499	-0.114715	-0.806805
C28	C	-3.912882	-0.112711	-0.950127
C29	C	-4.077527	0.046587	-0.375961
C30	C	-4.012189	0.146833	-0.376711
C31	C	-4.125755	-0.114138	-0.156667
C32	C	-4.091081	-0.116072	-0.017997
H33	H	-3.976142	-0.822824	-0.169435
H34	H	-4.040437	-0.866010	-0.584104
H35	H	-3.911271	-0.575498	-0.586240
H36	H	-3.770943	-0.361427	-0.172834
H37	H	-4.040393	-0.119070	-0.758806
H38	H	-3.846968	-0.532301	-0.171580
H39	H	-3.835285	-0.404611	-0.587506
C40	C	-3.963522	-0.685062	-0.618117
C41	C	-3.811468	-0.703506	-0.706350
C42	C	-3.807900	-0.664789	-0.832437
C43	C	-3.956387	-0.607629	-0.870291
C44	C	-4.108452	-0.589183	-0.782057
C45	C	-4.112020	-0.627900	-0.655969
H46	H	-3.701540	-0.745821	-0.678330
H47	H	-3.695331	-0.678444	-0.897755
H48	H	-3.953745	-0.578969	-0.963629
H49	H	-4.218380	-0.546867	-0.810077
H50	H	-4.224590	-0.614244	-0.590652
H51	H	-3.770970	-0.108344	-0.998118
H52	H	-4.232994	-0.120437	-0.970007
H53	H	-3.578422	-0.106988	-0.786929
H54	H	-3.900148	-0.651940	-0.170693
