data_functionalizedCrystal
_audit_creation_method	'MofGen! by Chris Wilmer'
_symmetry_space_group_name_H-M	'P1'
_symmetry_Int_Tables_number	1
_symmetry_cell_setting	triclinic
loop_
_symmetry_equiv_pos_as_xyz
  x,y,z
_cell_length_a	6.817900
_cell_length_b	7.076105
_cell_length_c	24.040801
_cell_angle_alpha	90.391896
_cell_angle_beta	103.140312
_cell_angle_gamma	117.701832
loop_
_atom_site_label
_atom_site_type_symbol
_atom_site_fract_x
_atom_site_fract_y
_atom_site_fract_z
V1	V	-4.195387	-0.660328	-0.077963
O2	O	-4.184138	-0.652633	0.004663
O3	O	-4.141473	-0.651123	-0.155470
O4	O	-4.222481	-0.950459	-0.076362
O5	O	-4.102569	-0.351225	-0.074992
V6	V	-4.669947	-0.623926	-0.068128
O7	O	-4.476306	-0.740178	-0.099538
O8	O	-4.839225	-0.544076	-0.046553
O9	O	-4.500654	-0.633131	0.009379
O10	O	-4.798593	-0.631621	-0.150754
O11	O	-4.880161	-0.933029	-0.071099
O12	O	-4.419646	-0.333795	-0.069729
C13	C	-3.982690	-0.639496	-0.174377
C14	C	-4.020399	-0.633904	-0.237737
C15	C	-4.263240	-0.650491	0.092830
C16	C	-4.322785	-0.644769	0.028280
C17	C	-4.222830	-0.641742	-0.270392
C18	C	-4.258256	-0.636501	-0.329926
C19	C	-4.091241	-0.623406	-0.356802
C20	C	-3.888796	-0.615573	-0.324143
C21	C	-3.853380	-0.620831	-0.264611
C22	C	-4.177360	-0.606575	-0.534540
C23	C	-4.212790	-0.601311	-0.594076
C24	C	-4.582249	-0.622243	-0.599854
C25	C	-4.546810	-0.627486	-0.540320
C26	C	-4.344375	-0.619665	-0.507667
N27	N	-4.127444	-0.618041	-0.417655
N28	N	-4.308181	-0.625046	-0.446816
C29	C	-4.092975	-0.021325	-0.073463
C30	C	-4.219463	-0.262927	-0.072637
V31	V	-4.420791	-0.640282	0.197811
O32	O	-4.377063	-0.627394	0.281878
O33	O	-4.401257	-0.642670	0.117100
O34	O	-4.481634	-0.942082	0.196187
O35	O	-4.296129	-0.325909	0.202243
V36	V	-4.842674	-0.545562	0.223731
O37	O	-4.694217	-0.692869	0.183750
O38	O	-4.977540	-0.440122	0.252367
O39	O	-4.659779	-0.569378	0.297215
O40	O	-4.992872	-0.544668	0.143465
O41	O	-5.073806	-0.846153	0.223099
O42	O	-4.579402	-0.269966	0.218128
C43	C	-4.492491	-0.601081	0.310583
C44	C	-4.415220	-0.609150	0.373269
C45	C	-4.389948	-0.219150	0.209700
C46	C	-4.244821	0.020016	0.208221
H47	H	-4.423093	-0.642887	-0.356511
O48	O	-4.800587	-0.630695	-0.635076
H49	H	-4.814611	-0.491020	-0.619146
H50	H	-4.682824	-0.638164	-0.518442
H51	H	-4.076797	-0.590698	-0.615959
O52	O	-3.959028	-0.598130	-0.499323
H53	H	-3.848840	-0.588120	-0.528015
H54	H	-3.688546	-0.614456	-0.238024
O55	O	-4.402986	-0.655904	-0.241405
H56	H	-4.549717	-0.660508	-0.274118
O57	O	-3.708656	-0.601471	-0.353128
H58	H	-3.767281	-0.599117	-0.400010
