data_functionalizedCrystal
_audit_creation_method	'MofGen! by Chris Wilmer'
_symmetry_space_group_name_H-M	'P1'
_symmetry_Int_Tables_number	1
_symmetry_cell_setting	triclinic
loop_
_symmetry_equiv_pos_as_xyz
  x,y,z
_cell_length_a	27.440280
_cell_length_b	14.560432
_cell_length_c	14.560432
_cell_angle_alpha	90.001357
_cell_angle_beta	60.007426
_cell_angle_gamma	59.999727
loop_
_atom_site_label
_atom_site_type_symbol
_atom_site_fract_x
_atom_site_fract_y
_atom_site_fract_z
Zr1	Zr	0.533400	-0.120513	0.884879
O2	O	0.635058	-0.267156	0.738258
O3	O	0.431740	-0.075561	0.929809
O4	O	0.533399	-0.267159	0.929833
O5	O	0.533401	0.075579	0.738233
O6	O	0.533401	-0.267159	1.080971
O7	O	0.533399	-0.075558	0.738233
O8	O	0.351552	0.075575	1.080927
O9	O	0.715250	-0.267155	0.738277
O10	O	0.473557	-0.056388	1.061784
O11	O	0.473557	0.056405	0.948992
O12	O	0.593247	-0.169177	0.949021
O13	O	0.593247	-0.056385	0.836228
Zr14	Zr	0.533407	0.120533	1.125926
Zr15	Zr	0.533404	-0.120514	1.125926
Zr16	Zr	0.533404	0.120534	0.884879
Zr17	Zr	0.661298	-0.120511	0.884910
Zr18	Zr	0.405509	0.120530	1.125895
O19	O	0.635067	0.075581	1.080996
O20	O	0.635063	-0.267157	1.080996
O21	O	0.635063	0.075581	0.738258
O22	O	0.431749	0.267176	1.272547
O23	O	0.431745	-0.075562	1.272547
O24	O	0.431745	0.267177	0.929809
O25	O	0.533406	-0.075559	1.272571
O26	O	0.533408	0.267179	1.080971
O27	O	0.533406	0.267179	0.929833
O28	O	0.533408	0.075578	1.272571
O29	O	0.715253	-0.267155	0.929878
O30	O	0.351554	0.267175	1.080927
O31	O	0.351557	0.267174	1.272527
O32	O	0.351554	0.075574	1.272527
O33	O	0.715253	-0.075554	0.738277
O34	O	0.715255	-0.075555	0.929878
O35	O	0.473560	0.169197	1.061784
O36	O	0.473560	0.056404	1.174576
O37	O	0.593250	-0.056385	1.061813
O38	O	0.593250	0.056407	0.949021
C39	C	0.373423	0.000006	1.005363
C40	C	0.319127	0.000005	1.005350
C41	C	0.533399	0.000010	0.703889
C42	C	0.533398	0.000011	0.601558
C43	C	0.533408	0.301523	1.005402
C44	C	0.533409	0.403854	1.005402
C45	C	-0.017615	-0.058857	1.064310
C46	C	-0.068639	-0.058854	1.064320
O47	O	-0.095045	-0.108892	1.114427
N48	N	-0.094155	0.000021	1.005443
C49	C	-0.068649	0.058905	0.946561
O50	O	-0.095039	0.108983	0.896483
C51	C	-0.017630	0.058908	0.946558
C52	C	0.007888	0.000020	1.005430
C53	C	0.007903	-0.117738	1.123178
C54	C	0.058924	-0.117743	1.123166
C55	C	0.084428	-0.058866	1.064286
C56	C	0.058910	0.000016	1.005417
C57	C	0.007871	0.117798	0.887683
C58	C	0.058894	0.117796	0.887685
C59	C	0.084412	0.058909	0.946557
C60	C	0.135434	0.058888	0.946525
N61	N	0.160951	0.000014	1.005402
C62	C	0.135447	-0.058863	1.064283
C63	C	-0.175795	0.058896	0.946573
C64	C	-0.226810	0.058887	0.946569
C65	C	-0.226796	-0.058870	1.064330
C66	C	-0.175777	-0.058867	1.064327
C67	C	-0.150278	0.000022	1.005450
C68	C	0.242596	-0.058869	1.064252
C69	C	0.293624	-0.058872	1.064231
C70	C	0.293603	0.058890	0.946474
C71	C	0.242583	0.058888	0.946490
C72	C	0.217079	0.000007	1.005387
O73	O	0.161871	0.108904	0.896448
O74	O	0.161836	-0.108921	1.114364
C75	C	0.693384	0.000013	1.005441
C76	C	0.747680	0.000015	1.005454
C77	C	0.533399	-0.301503	1.005402
C78	C	0.533398	-0.403834	1.005402
C79	C	0.658367	0.286118	0.887687
C80	C	0.720844	0.275327	0.828835
C81	C	0.720841	0.371479	0.828837
C82	C	0.658354	0.478431	0.887695
C83	C	0.595878	0.489222	0.946548
C84	C	0.595887	0.393061	0.946542
C85	C	0.470921	0.606957	1.064255
C86	C	0.470923	0.510806	1.064260
C87	C	0.408435	0.713909	1.123113
C88	C	0.345956	0.724702	1.181973
C89	C	0.345962	0.628541	1.181969
C90	C	0.408446	0.521597	1.123113
C91	C	0.408440	0.117753	0.719267
C92	C	0.345963	0.176619	0.730044
C93	C	0.345966	0.176616	0.633892
C94	C	0.408453	0.117743	0.526953
C95	C	0.470929	0.058878	0.516176
C96	C	0.470920	0.058884	0.612337
C97	C	0.595886	-0.058857	0.398469
C98	C	0.595884	-0.058862	0.494620
C99	C	0.658372	-0.117729	0.291530
C100	C	0.720851	-0.176602	0.280751
C101	C	0.720845	-0.176598	0.376912
C102	C	0.658361	-0.117727	0.483842
C103	C	0.533408	0.000009	1.306915
C104	C	0.533409	0.000009	1.409246
C105	C	0.373427	0.000006	1.306876
C106	C	0.319133	0.000004	1.409194
C107	C	0.373427	0.301520	1.005363
C108	C	0.319133	0.403849	1.005350
C109	C	0.373431	0.301519	1.306876
C110	C	0.319138	0.403848	1.409194
C111	C	0.693376	-0.301499	0.703928
C112	C	0.747669	-0.403829	0.601610
C113	C	0.693380	0.000014	0.703928
C114	C	0.747674	0.000015	0.601610
C115	C	0.693380	-0.301500	1.005441
C116	C	0.747674	-0.403829	1.005454
C117	C	0.293634	-0.058883	1.398367
C118	C	0.242625	-0.058907	1.494496
C119	C	0.217113	-0.000036	1.601451
C120	C	0.242617	0.058853	1.612276
C121	C	0.293628	0.058869	1.516148
C122	C	0.293637	0.510791	1.064220
C123	C	0.242629	0.606949	1.064204
C124	C	0.217113	0.596164	1.005323
C125	C	0.242614	0.489211	0.946445
C126	C	0.293625	0.393055	0.946456
C127	C	0.293642	0.393027	1.516130
C128	C	0.242635	0.489167	1.612277
C129	C	0.217122	0.596127	1.601486
C130	C	0.242623	0.606947	1.494539
C131	C	0.293633	0.510808	1.398394
C132	C	0.773172	-0.393007	0.494674
C133	C	0.824195	-0.489147	0.398527
C134	C	0.849710	-0.596108	0.409318
C135	C	0.824205	-0.606927	0.516265
C136	C	0.773187	-0.510788	0.612410
C137	C	0.773179	0.058892	0.612437
C138	C	0.824201	0.058890	0.516308
C139	C	0.849715	0.000016	0.409353
C140	C	0.824209	-0.058868	0.398529
C141	C	0.773191	-0.058872	0.494657
C142	C	0.773173	-0.393008	1.064347
C143	C	0.824182	-0.489148	1.064381
C144	C	0.849694	-0.596109	1.005516
C145	C	0.824190	-0.606928	0.946622
C146	C	0.773179	-0.510789	0.946595
H147	H	0.314401	-0.106829	1.112170
Cl148	Cl	-0.258874	0.132902	0.872537
Cl149	Cl	-0.143739	0.132925	0.872538
Cl150	Cl	-0.143704	-0.132896	1.138344
Cl151	Cl	0.325666	0.258618	0.872447
H152	H	0.408456	0.443297	1.123110
Cl153	Cl	0.325709	0.258573	1.529725
H154	H	0.408437	0.792197	1.123105
Cl155	Cl	0.408431	0.117746	0.840150
Cl156	Cl	0.210541	0.741421	1.480992
Cl157	Cl	0.741130	-0.132888	0.481026
Cl158	Cl	0.210583	0.475539	1.746711
H159	H	0.658351	-0.117721	0.562142
Cl160	Cl	0.325673	0.132916	1.529779
H161	H	0.752409	-0.305924	1.112282
Cl162	Cl	0.267413	0.250648	0.864481
H163	H	0.314386	0.519635	1.311326
Cl164	Cl	0.856238	-0.475521	1.138418
Cl165	Cl	-0.258869	-0.132884	1.138356
Cl166	Cl	0.658376	-0.117724	0.170652
H167	H	0.175586	0.674401	1.679783
Cl168	Cl	0.152983	-0.000065	1.722288
H169	H	0.752400	-0.305923	0.485867
H170	H	0.752409	0.106842	0.699517
H171	H	0.844952	-0.480316	0.311456
Cl172	Cl	0.210535	0.132862	1.746743
Cl173	Cl	0.325701	0.524379	1.138254
H174	H	0.658358	0.556718	0.887681
H175	H	0.891252	-0.674381	0.331021
H176	H	0.844987	-0.694026	0.525038
H177	H	0.752423	-0.519613	0.699480
H178	H	0.079697	-0.165690	1.171108
Cl179	Cl	0.913851	0.000034	0.288516
Cl180	Cl	0.856253	0.132927	0.529942
H181	H	0.891231	-0.674382	1.005547
H182	H	0.771715	0.362688	0.780908
H183	H	0.844990	-0.106802	0.311433
Cl184	Cl	-0.024145	-0.191774	1.197202
Cl185	Cl	0.856277	-0.741402	0.872612
Cl186	Cl	0.741136	-0.524412	0.872538
H187	H	0.221835	-0.106814	1.112213
H188	H	0.295085	0.811785	1.229884
H189	H	-0.012898	0.165752	0.839744
H190	H	0.175577	0.674470	1.005323
Cl191	Cl	0.090945	0.191834	0.813665
Cl192	Cl	0.408454	0.117761	0.406077
Cl193	Cl	0.325674	0.132904	0.872459
Cl194	Cl	0.210510	0.132903	0.872463
Cl195	Cl	0.658376	0.165235	0.887700
Cl196	Cl	0.267415	0.642120	1.255953
H197	H	0.221832	0.480447	0.898506
Cl198	Cl	0.799394	0.140873	0.754836
Cl199	Cl	0.267423	0.250623	0.647438
Cl200	Cl	0.799393	-0.250598	0.363350
Cl201	Cl	0.325698	-0.132906	1.263921
Cl202	Cl	0.799396	-0.250596	0.146320
H203	H	0.221866	-0.106861	1.485660
Cl204	Cl	0.210579	0.741390	1.138231
