data_functionalizedCrystal
_audit_creation_method	'MofGen! by Chris Wilmer'
_symmetry_space_group_name_H-M	'P1'
_symmetry_Int_Tables_number	1
_symmetry_cell_setting	triclinic
loop_
_symmetry_equiv_pos_as_xyz
  x,y,z
_cell_length_a	14.971486
_cell_length_b	23.532407
_cell_length_c	13.448316
_cell_angle_alpha	90.012606
_cell_angle_beta	89.998199
_cell_angle_gamma	96.768601
loop_
_atom_site_label
_atom_site_type_symbol
_atom_site_fract_x
_atom_site_fract_y
_atom_site_fract_z
O1	O	1.186163	-0.074216	-0.082591
O2	O	0.925669	-0.083104	-0.082620
O3	O	1.063771	0.004238	-0.082583
O4	O	1.048061	-0.161558	-0.082628
O5	O	1.063754	0.004243	0.082801
O6	O	0.925652	-0.083099	0.082764
O7	O	1.186146	-0.074211	0.082793
Cu8	Cu	1.055897	-0.078654	0.097879
Cu9	Cu	1.055918	-0.078661	-0.097706
O10	O	1.048044	-0.161553	0.082756
C11	C	0.892340	-0.082704	0.000069
C12	C	0.793056	-0.081513	0.000059
C13	C	0.735288	-0.132824	0.000046
C14	C	0.642001	-0.131701	0.000061
C15	C	0.606482	-0.079267	0.000082
C16	C	0.664257	-0.027952	0.000097
C17	C	0.757543	-0.029075	0.000089
C18	C	0.469819	-0.025615	0.000112
C19	C	0.376527	-0.024491	0.000118
C20	C	0.354277	-0.128241	0.000084
C21	C	0.447563	-0.129364	0.000076
C22	C	0.505331	-0.078049	0.000089
C23	C	1.063363	0.025458	0.000112
C24	C	1.062160	0.088680	0.000122
C25	C	1.136342	0.487466	0.000092
C26	C	1.135224	0.546871	0.000087
O27	O	1.203992	0.583321	0.000059
N28	N	1.053123	0.569849	0.000080
C29	C	0.972133	0.533418	0.000068
O30	O	0.902197	0.558417	0.000060
C31	C	0.973251	0.474014	0.000066
C32	C	1.055358	0.451040	0.000083
C33	C	1.218442	0.464491	0.000109
C34	C	1.219559	0.405090	0.000116
C35	C	1.138576	0.368664	0.000106
C36	C	1.056475	0.391639	0.000090
C37	C	0.892263	0.437584	0.000047
C38	C	0.893388	0.378177	0.000044
C39	C	0.975495	0.355203	0.000061
C40	C	0.976609	0.295812	0.000088
N41	N	1.058711	0.272834	0.000095
C42	C	1.139694	0.309260	0.000105
C43	C	0.969791	0.658170	0.000070
C44	C	0.968672	0.717573	0.000079
C45	C	1.131763	0.731022	0.000096
C46	C	1.132882	0.671618	0.000095
C47	C	1.051892	0.635193	0.000077
C48	C	1.142034	0.184513	0.000120
C49	C	1.143143	0.125106	0.000132
C50	C	0.980052	0.111663	0.000109
C51	C	0.978942	0.171064	0.000103
C52	C	1.059940	0.207489	0.000105
O53	O	0.907878	0.259327	0.000112
O54	O	1.209619	0.284253	0.000099
C55	C	1.219475	-0.074611	0.000102
C56	C	1.318760	-0.075802	0.000105
N57	N	1.055890	-0.078650	0.235444
C58	C	1.048453	0.817227	0.000069
C59	C	1.049655	0.754004	0.000083
N60	N	1.055933	-0.078661	-0.235271
C61	C	1.117060	-0.039991	0.287500
C62	C	1.117066	-0.039990	0.391603
C63	C	1.055904	-0.078652	0.443648
C64	C	0.994728	-0.117313	0.391584
C65	C	0.994718	-0.117310	0.287483
C66	C	0.994752	-0.117317	0.608564
C67	C	0.994762	-0.117320	0.712673
C68	C	1.117100	-0.039997	0.712685
C69	C	1.117090	-0.039994	0.608583
C70	C	1.055914	-0.078656	0.556527
H71	H	0.307237	-0.170023	0.000077
H72	H	1.166897	-0.008515	0.566209
H73	H	0.912084	0.189771	0.000116
C74	C	0.625188	0.029726	0.000123
C75	C	0.647193	0.072368	0.086017
C76	C	0.608126	0.130047	0.086040
C77	C	0.547054	0.145085	0.000169
C78	C	0.525045	0.102442	-0.085732
C79	C	0.564113	0.044763	-0.085755
H80	H	0.692406	0.061237	0.149590
H81	H	0.624418	0.161614	0.149630
H82	H	0.518134	0.187783	0.000186
H83	H	0.479833	0.113573	-0.149305
H84	H	0.547820	0.013196	-0.149345
H85	H	0.804577	0.012707	0.000099
C86	C	0.927431	-0.159837	0.230217
C87	C	0.860185	-0.202384	0.287461
C88	C	0.792893	-0.244911	0.230197
C89	C	0.792846	-0.244889	0.115690
C90	C	0.860094	-0.202340	0.058440
C91	C	0.927387	-0.159814	0.115703
H92	H	0.860218	-0.202401	0.372232
H93	H	0.743111	-0.276408	0.272578
H94	H	0.743032	-0.276370	0.073300
H95	H	0.860061	-0.202323	-0.026331
H96	H	0.977168	-0.128317	0.073323
H97	H	0.347612	0.018205	0.000136
C98	C	1.309877	0.379821	0.000120
C99	C	1.333082	0.340825	-0.085761
C100	C	1.423404	0.315560	-0.085762
C101	C	1.490522	0.329292	0.000117
C102	C	1.467319	0.368290	0.086004
C103	C	1.376997	0.393555	0.086006
H104	H	1.283396	0.330658	-0.149339
H105	H	1.440580	0.286691	-0.149342
H106	H	1.557384	0.310589	0.000116
H107	H	1.517006	0.378457	0.149583
H108	H	1.359821	0.422424	0.149585
C109	C	0.880695	0.618105	0.000069
C110	C	0.813272	0.620719	-0.085812
C111	C	0.724177	0.580657	-0.085814
C112	C	0.702505	0.537981	0.000066
C113	C	0.769930	0.535365	0.085953
C114	C	0.859025	0.575427	0.085955
H115	H	0.829313	0.652312	-0.149391
H116	H	0.674264	0.582594	-0.149394
H117	H	0.636552	0.508325	0.000064
H118	H	0.753889	0.503772	0.149531
H119	H	0.908937	0.573490	0.149534
C120	C	0.486640	-0.187039	0.000060
C121	C	0.547714	-0.202080	-0.085823
C122	C	0.586794	-0.259755	-0.085832
C123	C	0.564799	-0.302390	0.000043
C124	C	0.503722	-0.287351	0.085933
C125	C	0.464642	-0.229675	0.085942
H126	H	0.563999	-0.170518	-0.149399
H127	H	0.632007	-0.270888	-0.149414
H128	H	0.593728	-0.345085	0.000037
H129	H	0.487437	-0.318912	0.149509
H130	H	0.419429	-0.218542	0.149524
H131	H	1.284392	0.494144	0.000112
C132	C	1.184390	0.002534	0.769945
C133	C	1.184398	0.002535	0.884453
C134	C	1.251689	0.045061	0.941720
C135	C	1.318972	0.087586	0.884479
C136	C	1.318967	0.087586	0.769966
C137	C	1.251676	0.045060	0.712699
H138	H	1.134588	-0.028946	0.926831
H139	H	1.251692	0.045060	1.026491
H140	H	1.368785	0.119066	0.926872
H141	H	1.368776	0.119067	0.727587
H142	H	1.251673	0.045061	0.627928
C143	C	1.223200	0.646350	0.000104
C144	C	1.246412	0.607355	-0.085776
C145	C	1.336735	0.582091	-0.085768
C146	C	1.403845	0.595820	0.000119
C147	C	1.380634	0.634817	0.086005
C148	C	1.290312	0.660081	0.085998
H149	H	1.196732	0.597190	-0.149360
H150	H	1.353917	0.553223	-0.149348
H151	H	1.470707	0.577118	0.000124
H152	H	1.430315	0.644982	0.149590
H153	H	1.273130	0.688949	0.149577
C154	C	0.804296	0.338109	0.000028
C155	C	0.736883	0.340719	-0.085863
C156	C	0.647793	0.300653	-0.085877
C157	C	0.626116	0.257976	0.000001
C158	C	0.693532	0.255364	0.085898
C159	C	0.782622	0.295431	0.085912
H160	H	0.752927	0.372313	-0.149441
H161	H	0.597887	0.302586	-0.149465
H162	H	0.560167	0.228316	-0.000009
H163	H	0.677488	0.223771	0.149476
H164	H	0.832527	0.293497	0.149500
H165	H	0.764199	-0.175522	0.000029
H166	H	0.594969	-0.173484	0.000050
H167	H	0.516853	0.016172	0.000124
H168	H	1.197704	0.760691	0.000100
H169	H	0.914118	0.081994	0.000105
H170	H	0.944933	-0.148797	0.566183
H171	H	0.944924	-0.148790	0.433965
H172	H	1.210008	0.106405	0.000148
H173	H	1.207990	0.214164	0.000118
H174	H	0.901812	0.736273	0.000082
H175	H	0.825402	0.456279	0.000026
H176	H	1.166868	-0.008510	0.245132
H177	H	1.166875	-0.008511	0.433987
H178	H	0.944958	-0.148802	0.755042
