data_functionalizedCrystal
_audit_creation_method	'MofGen! by Chris Wilmer'
_symmetry_space_group_name_H-M	'P1'
_symmetry_Int_Tables_number	1
_symmetry_cell_setting	triclinic
loop_
_symmetry_equiv_pos_as_xyz
  x,y,z
_cell_length_a	6.817900
_cell_length_b	11.102244
_cell_length_c	17.329378
_cell_angle_alpha	90.443558
_cell_angle_beta	103.025558
_cell_angle_gamma	108.604870
loop_
_atom_site_label
_atom_site_type_symbol
_atom_site_fract_x
_atom_site_fract_y
_atom_site_fract_z
V1	V	-4.032524	-0.149862	-0.245027
O2	O	-3.993066	0.033932	-0.240365
O3	O	-4.009836	-0.322859	-0.243349
O4	O	-3.974850	-0.135828	-0.351893
O5	O	-4.028294	-0.154394	-0.131070
V6	V	-4.514022	-0.129264	-0.231397
O7	O	-4.298225	-0.195045	-0.274926
O8	O	-4.698519	-0.084080	-0.201499
O9	O	-4.313504	0.043734	-0.233075
O10	O	-4.670876	-0.313058	-0.236060
O11	O	-4.635649	-0.124731	-0.345355
O12	O	-4.348489	-0.143298	-0.124532
C13	C	-3.861392	-0.365399	-0.239484
C14	C	-3.924066	-0.506751	-0.238824
C15	C	-3.916542	-0.562648	-0.166550
C16	C	-3.975443	-0.695465	-0.165939
C17	C	-4.049384	-0.716477	-0.309884
C18	C	-3.990497	-0.583663	-0.310493
C19	C	-3.850111	-0.485736	-0.094880
C20	C	-3.842581	-0.541632	-0.022600
C21	C	-3.901483	-0.674449	-0.021990
C22	C	-3.967914	-0.751370	-0.093659
C23	C	-3.816763	-0.126820	-0.377941
C24	C	-3.851062	-0.116490	-0.465304
C25	C	-3.923716	-0.226832	-0.517569
C26	C	-3.955952	-0.217124	-0.599656
C27	C	-3.915517	-0.097073	-0.629476
C28	C	-3.842862	0.013278	-0.577205
C29	C	-3.810642	0.003568	-0.495120
C30	C	-4.009984	-0.061993	-0.876759
C31	C	-4.042204	-0.052292	-0.958851
C32	C	-4.155295	-0.282695	-0.981296
C33	C	-4.123058	-0.292393	-0.899208
C34	C	-4.050417	-0.182044	-0.846944
C35	C	-3.948459	-0.087146	-0.713382
C36	C	-4.017490	-0.191971	-0.763041
C37	C	-4.125291	0.086266	-0.236939
C38	C	-4.041854	0.227618	-0.237604
C39	C	-4.169920	-0.152310	-0.098480
C40	C	-4.114858	-0.162634	-0.011116
H41	H	-3.956632	-0.324591	-0.493296
H42	H	-3.996656	-0.538152	-0.369346
Br43	Br	-4.177958	-0.455327	-0.858744
Br44	Br	-4.054569	-0.366882	-0.670585
Br45	Br	-3.911219	0.087775	-0.805836
H46	H	-3.802134	-0.377589	-0.095369
H47	H	-4.214443	-0.372535	-1.023858
H48	H	-3.809954	0.111026	-0.601491
H49	H	-3.751483	0.093420	-0.452566
Br50	Br	-3.987321	0.110647	-0.999320
H51	H	-3.788506	-0.478996	0.035750
Br52	Br	-4.047882	-0.931624	-0.092830
H53	H	-3.895368	-0.719957	0.036864
H54	H	-4.103470	-0.779116	-0.368233
H55	H	-4.050420	-0.289717	-0.738758
H56	H	-3.915535	0.010600	-0.737671
