data_functionalizedCrystal
_audit_creation_method	'MofGen! by Chris Wilmer'
_symmetry_space_group_name_H-M	'P1'
_symmetry_Int_Tables_number	1
_symmetry_cell_setting	triclinic
loop_
_symmetry_equiv_pos_as_xyz
  x,y,z
_cell_length_a	16.109301
_cell_length_b	14.750779
_cell_length_c	16.109301
_cell_angle_alpha	77.359896
_cell_angle_beta	96.538519
_cell_angle_gamma	77.359167
loop_
_atom_site_label
_atom_site_type_symbol
_atom_site_fract_x
_atom_site_fract_y
_atom_site_fract_z
O1	O	1.085092	0.079770	-0.124898
O2	O	0.843026	0.079786	-0.138200
O3	O	0.970711	0.079768	-0.010516
O4	O	0.957407	0.079788	-0.252582
O5	O	1.006806	-0.079888	0.025575
O6	O	0.879121	-0.079870	-0.102109
O7	O	1.121187	-0.079885	-0.088807
Zn8	Zn	1.005885	-0.105226	-0.089728
Zn9	Zn	0.958328	0.105127	-0.137279
O10	O	0.993502	-0.079867	-0.216491
C11	C	0.830099	-0.000040	-0.119617
C12	C	0.737802	-0.000035	-0.118003
N13	N	1.038347	-0.248787	-0.057275
C14	C	0.515531	-0.000040	-0.190009
C15	C	0.428812	-0.000046	-0.188484
C16	C	0.448688	-0.000055	-0.036993
C17	C	0.535407	-0.000055	-0.038518
C18	C	0.568825	-0.000043	-0.115030
C19	C	0.395387	-0.000049	-0.111979
C20	C	0.301362	-0.000055	-0.110325
C21	C	0.662855	-0.000038	-0.116684
C22	C	0.835210	-0.600576	-0.260326
C23	C	0.857964	-0.701078	-0.237590
C24	C	0.971052	-0.701057	-0.124567
C25	C	0.948305	-0.600553	-0.147290
C26	C	0.880384	-0.550320	-0.215171
C27	C	0.993479	-0.550297	-0.102136
C28	C	0.970737	-0.449801	-0.124861
C29	C	0.902821	-0.399562	-0.192740
C30	C	0.857642	-0.449825	-0.237896
C31	C	1.061404	-0.600531	-0.034259
C32	C	1.106578	-0.550275	0.010895
C33	C	1.083832	-0.449778	-0.011825
C34	C	1.015915	-0.399538	-0.079705
C35	C	1.129010	-0.399515	0.033331
C36	C	1.106268	-0.299019	0.010606
C37	C	0.993173	-0.299043	-0.102429
C38	C	1.134114	-0.000057	-0.107391
C39	C	1.226409	-0.000057	-0.109006
C40	C	0.988220	-0.000061	0.038505
C41	C	0.986605	-0.000062	0.130800
N42	N	0.925873	0.248687	-0.169726
C43	C	0.975993	-0.000037	-0.265512
C44	C	0.977606	-0.000030	-0.357809
C45	C	1.058610	-0.000051	0.353070
C46	C	1.057085	-0.000043	0.439789
C47	C	0.905595	-0.000037	0.419913
C48	C	0.907120	-0.000038	0.333195
C49	C	0.983631	-0.000050	0.299777
C50	C	0.980580	-0.000041	0.473214
C51	C	0.978925	-0.000032	0.567238
C52	C	0.985286	-0.000057	0.205747
H53	H	0.542738	-0.000037	-0.252308
O54	O	0.834213	-0.000081	0.281548
C55	C	0.683781	-0.000014	0.270964
C56	C	0.766285	0.000006	0.329555
H57	H	0.628835	0.000076	0.309749
H58	H	0.695761	-0.066844	0.244993
H59	H	0.665653	0.066787	0.214747
H60	H	0.784457	-0.066750	0.385814
H61	H	0.754260	0.066880	0.355458
O62	O	0.377151	0.000003	-0.261407
C63	C	0.366605	-0.000041	-0.411814
C64	C	0.425201	-0.000072	-0.329293
H65	H	0.405435	-0.000121	-0.466716
H66	H	0.310410	0.066789	-0.430053
H67	H	0.340600	-0.066842	-0.399741
H68	H	0.451269	0.066685	-0.341300
H69	H	0.481349	-0.066945	-0.311078
O70	O	0.587109	0.000114	0.034306
C71	C	0.611907	0.082789	0.144646
C72	C	0.553291	0.082733	0.062171
H73	H	0.584578	0.149569	0.167210
H74	H	0.679630	0.082848	0.130448
H75	H	0.614879	0.015941	0.197375
H76	H	0.550247	0.149569	0.009403
H77	H	0.485599	0.082623	0.076439
H78	H	0.421470	-0.000071	0.025301
H79	H	0.937859	-0.258141	-0.157699
H80	H	0.802328	-0.408923	-0.293165
H81	H	0.884307	-0.317732	-0.211244
O82	O	1.129833	-0.000003	0.491667
C83	C	1.194637	-0.000051	0.634079
C84	C	1.112180	-0.000078	0.575419
H85	H	1.180399	-0.000132	0.701810
H86	H	1.217188	0.066777	0.606876
H87	H	1.247393	-0.066854	0.636988
H88	H	1.059368	0.066679	0.572486
H89	H	1.089703	-0.066951	0.602645
H90	H	1.079920	-0.682361	-0.015762
O91	O	1.037127	-0.749810	-0.058716
C92	C	1.188633	-0.780474	-0.003042
C93	C	1.113891	-0.725226	-0.077695
H94	H	1.250711	-0.760603	-0.018352
H95	H	1.197207	-0.860947	0.005454
H96	H	1.173293	-0.760723	0.059074
H97	H	1.129175	-0.744897	-0.139854
H98	H	1.105334	-0.644766	-0.086115
H99	H	0.779897	-0.559675	-0.315595
H100	H	0.821172	-0.741992	-0.274368
H101	H	1.161882	-0.591186	0.066163
H102	H	1.184317	-0.440427	0.088594
H103	H	1.143054	-0.258100	0.047375
O104	O	1.132991	-0.000008	0.320733
C105	C	1.283096	-0.000056	0.349613
C106	C	1.198914	-0.000088	0.386339
H107	H	1.336422	-0.000140	0.402642
H108	H	1.272539	0.066776	0.294429
H109	H	1.302662	-0.066855	0.324587
H110	H	1.179302	0.066666	0.411413
H111	H	1.209517	-0.066964	0.441485
O112	O	0.831359	-0.000077	0.452527
C113	C	0.761859	-0.000023	0.577301
C114	C	0.845993	0.000004	0.540484
H115	H	0.773656	0.000063	0.648414
H116	H	0.739907	-0.066854	0.570521
H117	H	0.709702	0.066777	0.540197
H118	H	0.898207	-0.066751	0.577562
H119	H	0.867872	0.066879	0.547250
