data_functionalizedCrystal
_audit_creation_method	'MofGen! by Chris Wilmer'
_symmetry_space_group_name_H-M	'P1'
_symmetry_Int_Tables_number	1
_symmetry_cell_setting	triclinic
loop_
_symmetry_equiv_pos_as_xyz
  x,y,z
_cell_length_a	11.169417
_cell_length_b	10.685194
_cell_length_c	11.169409
_cell_angle_alpha	85.594584
_cell_angle_beta	89.979436
_cell_angle_gamma	94.378129
loop_
_atom_site_label
_atom_site_type_symbol
_atom_site_fract_x
_atom_site_fract_y
_atom_site_fract_z
Zn1	Zn	1.798370	-0.502285	-0.641889
Zn2	Zn	1.782876	-0.713364	-0.425803
Zn3	Zn	1.597648	-0.502361	-0.441218
Zn4	Zn	1.582290	-0.713261	-0.626455
O5	O	1.690296	-0.607818	-0.533841
O6	O	1.964264	-0.530296	-0.613233
O7	O	1.758248	-0.685449	-0.259892
O8	O	1.637186	-0.325752	-0.480748
O9	O	1.952880	-0.685374	-0.454475
O10	O	1.784656	-0.325695	-0.628180
O11	O	1.622162	-0.530426	-0.271218
O12	O	1.427662	-0.530327	-0.465782
O13	O	1.611010	-0.685200	-0.796458
O14	O	1.416378	-0.685274	-0.601875
O15	O	1.769764	-0.530196	-0.807797
O16	O	1.743356	-0.889950	-0.439509
O17	O	1.595986	-0.889875	-0.586928
C18	C	1.378473	-0.607799	-0.533827
C19	C	1.245071	-0.607821	-0.533848
C20	C	1.666356	-0.935702	-0.509897
C21	C	1.656224	-1.075973	-0.499694
C22	C	2.003337	-0.607838	-0.533856
C23	C	2.136736	-0.607846	-0.533862
C24	C	1.690402	-0.607678	-0.846894
C25	C	1.690448	-0.607618	-0.980299
C26	C	1.714362	-0.278653	-0.557905
C27	C	1.724618	-0.138382	-0.568160
C28	C	1.690266	-0.607866	-0.222013
C29	C	1.690479	-0.607570	-0.088635
H30	H	1.790926	-1.084504	-0.634588
H31	H	1.589901	-1.129859	-0.433272
