data_functionalizedCrystal
_audit_creation_method	'MofGen! by Chris Wilmer'
_symmetry_space_group_name_H-M	'P1'
_symmetry_Int_Tables_number	1
_symmetry_cell_setting	triclinic
loop_
_symmetry_equiv_pos_as_xyz
  x,y,z
_cell_length_a	19.288864
_cell_length_b	19.188930
_cell_length_c	18.366186
_cell_angle_alpha	89.988632
_cell_angle_beta	89.977106
_cell_angle_gamma	83.140512
loop_
_atom_site_label
_atom_site_type_symbol
_atom_site_fract_x
_atom_site_fract_y
_atom_site_fract_z
O1	O	0.921359	0.087099	-0.060791
O2	O	0.719099	0.098849	-0.060743
O3	O	0.826066	-0.008682	-0.060754
O4	O	0.814393	0.194630	-0.060780
O5	O	0.826048	-0.008687	0.060345
O6	O	0.719081	0.098843	0.060357
O7	O	0.921341	0.087094	0.060308
Zn8	Zn	0.820208	0.092968	0.079560
Zn9	Zn	0.820232	0.092975	-0.079994
O10	O	0.814374	0.194625	0.060320
C11	C	0.693214	0.098468	-0.000186
C12	C	0.616110	0.097333	-0.000167
C13	C	0.571419	0.160427	-0.000187
C14	C	0.498972	0.159361	-0.000195
C15	C	0.471219	0.095197	-0.000198
C16	C	0.515921	0.032095	-0.000174
C17	C	0.588366	0.033163	-0.000159
C18	C	0.362960	0.044759	-0.042642
C19	C	0.290515	0.043694	-0.042662
C20	C	0.247773	0.091900	-0.000241
C21	C	0.277483	0.141184	0.042190
C22	C	0.349929	0.142253	0.042205
C23	C	0.392665	0.094032	-0.000214
C24	C	0.124526	0.153843	-0.000268
C25	C	0.052078	0.152774	-0.000272
C26	C	0.069028	0.025506	-0.000259
C27	C	0.141475	0.026576	-0.000248
C28	C	0.169219	0.090747	-0.000256
C29	C	0.825679	-0.034696	-0.000202
C30	C	0.824544	-0.112200	-0.000196
C31	C	0.887309	-0.157129	-0.000207
C32	C	0.886243	-0.229953	-0.000219
C33	C	0.822408	-0.257844	-0.000204
C34	C	0.759636	-0.212906	-0.000196
C35	C	0.760704	-0.140084	-0.000192
N36	N	0.773609	-0.365847	0.041020
N37	N	0.772598	-0.435026	0.041018
C38	C	0.819187	-0.477253	-0.000218
N39	N	0.866835	-0.447689	-0.041442
N40	N	0.867847	-0.378504	-0.041436
C41	C	0.821243	-0.336807	-0.000209
C42	C	0.880800	-0.601146	-0.000243
C43	C	0.879731	-0.673971	-0.000259
C44	C	0.753122	-0.656922	-0.000229
C45	C	0.754193	-0.584099	-0.000220
C46	C	0.818034	-0.556216	-0.000224
C47	C	0.947227	0.087475	-0.000250
C48	C	1.024330	0.088609	-0.000274
C49	C	0.814762	0.220638	-0.000234
C50	C	0.815896	0.298143	-0.000245
N51	N	0.820197	0.092963	0.188451
N52	N	0.820249	0.092974	-0.188885
C53	C	0.867577	0.045371	0.226546
C54	C	0.867582	0.045368	0.302774
C55	C	0.820213	0.092968	0.340903
C56	C	0.772823	0.140563	0.302799
C57	C	0.772816	0.140560	0.226573
C58	C	0.810919	0.156585	0.461657
C59	C	0.810932	0.156589	0.537882
C60	C	0.820232	0.092977	0.576011
C61	C	0.829535	0.029359	0.537906
C62	C	0.829527	0.029356	0.461679
C63	C	0.820215	0.092977	0.423558
C64	C	0.867620	0.045378	0.696761
C65	C	0.867620	0.045374	0.772990
C66	C	0.772864	0.140576	0.773014
C67	C	0.772862	0.140574	0.696786
C68	C	0.820243	0.092976	0.658664
H69	H	0.177864	-0.024802	-0.000236
N70	N	0.918675	-0.005967	0.185428
H71	H	0.967945	0.001951	0.198667
H72	H	0.910771	-0.055478	0.198729
N73	N	0.721708	0.191891	0.185479
H74	H	0.691697	0.222044	0.221197
H75	H	0.748198	0.222691	0.153830
N76	N	0.485985	-0.037107	-0.000180
H77	H	0.502324	-0.064741	-0.045064
H78	H	0.502276	-0.064686	0.044749
H79	H	0.939293	-0.134431	-0.000213
H80	H	0.937355	-0.266541	-0.000231
N81	N	0.686498	-0.535632	-0.000193
H82	H	0.684125	-0.505027	-0.045082
H83	H	0.645934	-0.564397	-0.000156
N84	N	0.039104	-0.043700	-0.000265
H85	H	0.078413	-0.083510	-0.000253
H86	H	0.009391	-0.046917	0.044623
H87	H	0.932783	-0.578442	-0.000249
H88	H	0.624755	-0.018218	-0.000144
H89	H	0.707661	-0.235620	-0.000186
N90	N	0.918719	-0.005957	0.655637
H91	H	0.948732	-0.036112	0.691341
H92	H	0.892222	-0.036756	0.624029
H93	H	0.906166	0.006612	0.333797
N94	N	0.693005	-0.091619	-0.000180
H95	H	0.652402	-0.120336	-0.000175
H96	H	0.690683	-0.061046	0.044717
H97	H	0.837100	-0.022445	0.430657
N98	N	0.409058	-0.007237	-0.088401
H99	H	0.443090	-0.036784	-0.055894
H100	H	0.379195	-0.038567	-0.115281
N101	N	0.154452	0.223053	-0.000272
H102	H	0.138118	0.250683	0.044616
H103	H	0.207124	0.214099	-0.000293
H104	H	0.734293	0.179330	0.804059
H105	H	0.930844	-0.710552	-0.000272
N106	N	0.684271	-0.686994	-0.000221
H107	H	0.693117	-0.739945	-0.000228
H108	H	0.656806	-0.670555	0.044678
H109	H	0.837108	-0.022440	0.568948
N110	N	0.918737	-0.005947	0.814083
H111	H	0.948755	-0.036092	0.778363
H112	H	0.949351	0.020726	0.845680
N113	N	0.721758	0.191904	0.655692
H114	H	0.691748	0.222059	0.691411
H115	H	0.748246	0.222704	0.624041
N116	N	0.800893	0.225202	0.578978
H117	H	0.839403	0.254221	0.565683
H118	H	0.754215	0.251745	0.565712
H119	H	0.803333	0.208389	0.430619
N120	N	0.601340	0.229638	-0.000179
H121	H	0.654016	0.220743	-0.000165
H122	H	0.585004	0.257242	-0.045077
N123	N	0.721730	0.191900	0.343924
H124	H	0.748178	0.222750	0.375526
H125	H	0.691724	0.222002	0.308176
N126	N	0.450756	0.227415	-0.000217
H127	H	0.479325	0.268228	-0.000220
H128	H	0.420358	0.229737	-0.045119
H129	H	0.374116	0.182379	0.076756
N130	N	0.003870	0.220829	-0.000235
H131	H	0.032442	0.261639	-0.000222
H132	H	-0.026559	0.223191	-0.045115
H133	H	0.266331	0.003566	-0.077215
N134	N	0.231394	0.193188	0.087944
H135	H	0.180992	0.185034	0.081500
H136	H	0.244900	0.186846	0.140866
