data_functionalizedCrystal
_audit_creation_method	'MofGen! by Chris Wilmer'
_symmetry_space_group_name_H-M	'P1'
_symmetry_Int_Tables_number	1
_symmetry_cell_setting	triclinic
loop_
_symmetry_equiv_pos_as_xyz
  x,y,z
_cell_length_a	12.759401
_cell_length_b	10.686285
_cell_length_c	10.685880
_cell_angle_alpha	89.638885
_cell_angle_beta	85.605173
_cell_angle_gamma	85.633237
loop_
_atom_site_label
_atom_site_type_symbol
_atom_site_fract_x
_atom_site_fract_y
_atom_site_fract_z
Zn1	Zn	1.684539	-0.553648	-0.671046
Zn2	Zn	1.682406	-0.747386	-0.445219
Zn3	Zn	1.494420	-0.537645	-0.461294
Zn4	Zn	1.521219	-0.763365	-0.654940
O5	O	1.595646	-0.650511	-0.558125
O6	O	1.831278	-0.579357	-0.641103
O7	O	1.645361	-0.706178	-0.271800
O8	O	1.509317	-0.364224	-0.502586
O9	O	1.829711	-0.721696	-0.475188
O10	O	1.648996	-0.375981	-0.656691
O11	O	1.507249	-0.552083	-0.283610
O12	O	1.350952	-0.567578	-0.486968
O13	O	1.554992	-0.748930	-0.832628
O14	O	1.370642	-0.733413	-0.629239
O15	O	1.674982	-0.594852	-0.844461
O16	O	1.671346	-0.925050	-0.459570
O17	O	1.552923	-0.936790	-0.613651
C18	C	1.322676	-0.650494	-0.558101
C19	C	1.205902	-0.650519	-0.558118
C20	C	1.161318	-0.736982	-0.632063
C21	C	1.051596	-0.736988	-0.632088
C22	C	1.031050	-0.564065	-0.484212
C23	C	1.140771	-0.564053	-0.484195
C24	C	1.614842	-0.976438	-0.533146
C25	C	1.623153	-1.115875	-0.522502
C26	C	1.869682	-0.650529	-0.558149
C27	C	1.986460	-0.650537	-0.558160
C28	C	1.618214	-0.675459	-0.885336
C29	C	1.627832	-0.686090	-1.024773
C30	C	1.576405	-0.323313	-0.583228
C31	C	1.568206	-0.183881	-0.593926
C32	C	1.573220	-0.625570	-0.232194
C33	C	1.563786	-0.614585	-0.092784
H34	H	0.978007	-0.493670	-0.424024
H35	H	1.514806	-1.135432	-0.663220
O36	O	1.686879	-1.173876	-0.439962
C37	C	1.753503	-1.370394	-0.353693
C38	C	1.681292	-1.304870	-0.447213
H39	H	1.748993	-1.476312	-0.359505
H40	H	1.838227	-1.346370	-0.377810
H41	H	1.726687	-1.336990	-0.254453
H42	H	1.708013	-1.338237	-0.546486
H43	H	1.596583	-1.328892	-0.422988
H44	H	1.015302	-0.807393	-0.692303
O45	O	1.183913	-0.480010	-0.412244
C46	C	1.151965	-0.308445	-0.265631
C47	C	1.102967	-0.403571	-0.347023
H48	H	1.086545	-0.246602	-0.212899
H49	H	1.202142	-0.360856	-0.195448
H50	H	1.203497	-0.247395	-0.328368
H51	H	1.051387	-0.464647	-0.284386
H52	H	1.052853	-0.351083	-0.417215
H53	H	1.690026	-0.755444	-1.073221
H54	H	1.214345	-0.807384	-0.692259
H55	H	1.501583	-0.545232	-1.044330
