data_functionalizedCrystal
_audit_creation_method	'MofGen! by Chris Wilmer'
_symmetry_space_group_name_H-M	'P1'
_symmetry_Int_Tables_number	1
_symmetry_cell_setting	triclinic
loop_
_symmetry_equiv_pos_as_xyz
  x,y,z
_cell_length_a	14.971491
_cell_length_b	19.288865
_cell_length_c	18.366186
_cell_angle_alpha	89.990289
_cell_angle_beta	89.992625
_cell_angle_gamma	83.376241
loop_
_atom_site_label
_atom_site_type_symbol
_atom_site_fract_x
_atom_site_fract_y
_atom_site_fract_z
O1	O	1.186454	0.090532	-0.060589
O2	O	0.925996	0.101368	-0.060585
O3	O	1.063751	-0.005155	-0.060573
O4	O	1.048699	0.197056	-0.060602
O5	O	1.063736	-0.005158	0.060526
O6	O	0.925981	0.101366	0.060514
O7	O	1.186439	0.090530	0.060510
Zn8	Zn	1.056208	0.095947	0.079739
Zn9	Zn	1.056227	0.095951	-0.079814
O10	O	1.048684	0.197054	0.060498
C11	C	0.892666	0.100882	-0.000035
C12	C	0.793377	0.099428	-0.000032
C13	C	0.365714	0.093154	-0.066060
C14	C	0.459007	0.094519	-0.066057
C15	C	0.505641	0.095204	-0.000043
C16	C	0.458978	0.094518	0.065972
C17	C	0.365688	0.093149	0.065969
C18	C	0.653425	0.097373	0.065974
C19	C	0.746721	0.098744	0.065978
C20	C	0.746743	0.098743	-0.066051
C21	C	0.653453	0.097374	-0.066055
C22	C	0.606797	0.096689	-0.000039
C23	C	1.063259	-0.031035	-0.000021
C24	C	1.061805	-0.108143	-0.000015
C25	C	1.142634	-0.152575	-0.000012
C26	C	1.141268	-0.225026	-0.000024
C27	C	1.059069	-0.253043	-0.000023
C28	C	0.978230	-0.208601	-0.000029
C29	C	0.979598	-0.136151	-0.000025
C30	C	0.994446	-0.361543	0.042396
C31	C	0.993081	-0.433992	0.042397
C32	C	1.054846	-0.476502	-0.000039
C33	C	1.117990	-0.446556	-0.042466
C34	C	1.119358	-0.374107	-0.042462
C35	C	1.057576	-0.331602	-0.000028
C36	C	1.134199	-0.599495	-0.000051
C37	C	1.132829	-0.671947	-0.000067
C38	C	0.969789	-0.655521	-0.000065
C39	C	0.971161	-0.583070	-0.000056
C40	C	1.053368	-0.555061	-0.000046
C41	C	1.219768	0.091016	-0.000042
C42	C	1.319057	0.092471	-0.000049
C43	C	1.049176	0.222933	-0.000056
C44	C	1.050630	0.300041	-0.000067
N45	N	1.056201	0.095945	0.188630
N46	N	1.056241	0.095948	-0.188706
C47	C	1.117240	0.048792	0.773186
C48	C	1.117241	0.048794	0.696958
C49	C	1.056227	0.095944	0.658842
C50	C	0.995223	0.143109	0.696959
C51	C	0.995230	0.143111	0.773186
C52	C	0.974723	0.104947	0.538088
C53	C	0.974715	0.104941	0.461863
C54	C	1.056207	0.095943	0.423734
C55	C	1.137710	0.086937	0.461840
C56	C	1.137717	0.086939	0.538066
C57	C	1.056214	0.095948	0.576187
C58	C	1.117212	0.048786	0.302971
C59	C	1.117214	0.048793	0.226742
C60	C	0.995189	0.143105	0.226744
C61	C	0.995195	0.143102	0.302972
C62	C	1.056205	0.095939	0.341081
H63	H	1.209573	-0.129775	-0.000006
C64	C	1.184334	-0.003083	0.655027
H65	H	1.175592	0.003673	0.604171
H66	H	1.174801	-0.049450	0.667532
H67	H	1.244004	0.004532	0.667503
H68	H	1.168285	-0.481168	-0.077022
H69	H	0.615485	0.096821	-0.119809
C70	C	0.928109	0.194975	0.655038
H71	H	0.891784	0.223065	0.688654
H72	H	0.890974	0.169943	0.625313
H73	H	0.960171	0.223930	0.625291
C74	C	0.798060	0.099498	-0.138667
H75	H	0.860301	0.100405	-0.129213
H76	H	0.775790	0.139750	-0.165794
H77	H	0.789763	0.058798	-0.165788
H78	H	0.911303	-0.231417	-0.000030
C79	C	0.798025	0.099455	0.138591
H80	H	0.756882	0.098830	0.177907
H81	H	0.827451	0.140451	0.141357
H82	H	0.841387	0.059499	0.141311
C83	C	0.928084	0.194977	0.184825
H84	H	0.936815	0.188222	0.133969
H85	H	0.937618	0.241343	0.197311
H86	H	0.868417	0.187359	0.197324
H87	H	1.166920	0.010391	0.804212
H88	H	0.615438	0.096824	0.119731
H89	H	0.496956	0.095071	0.119722
C90	C	0.314365	0.092400	0.138580
H91	H	0.355497	0.093011	0.177896
H92	H	0.284957	0.051393	0.141331
H93	H	0.270987	0.132344	0.141314
H94	H	1.170771	-0.349728	-0.077009
C95	C	1.224621	-0.568682	-0.000047
H96	H	1.272565	-0.605523	-0.000058
H97	H	1.228540	-0.540771	0.042186
H98	H	1.228546	-0.540750	-0.042280
C99	C	1.230182	-0.273910	-0.000016
H100	H	1.279336	-0.246852	-0.000005
H101	H	1.233048	-0.302509	-0.042246
H102	H	1.233021	-0.302518	0.042220
H103	H	1.204079	0.079608	0.569088
H104	H	1.198652	-0.708123	-0.000069
H105	H	0.902861	-0.678331	-0.000068
H106	H	0.945556	0.181512	0.804214
C107	C	0.882248	-0.534193	-0.000046
H108	H	0.833096	-0.561253	-0.000041
H109	H	0.879395	-0.505578	-0.042273
H110	H	0.879392	-0.505601	0.042193
C111	C	0.923626	-0.466929	0.089060
H112	H	0.931662	-0.516166	0.082987
H113	H	0.864677	-0.449092	0.074138
H114	H	0.931701	-0.455857	0.138850
H115	H	0.944147	-0.326936	0.076957
H116	H	0.913776	-0.099974	-0.000027
C117	C	1.227356	0.077052	0.419909
H118	H	1.215683	0.078352	0.369054
H119	H	1.259438	0.033288	0.432398
H120	H	1.262244	0.113432	0.432396
C121	C	1.184324	-0.003085	0.344894
H122	H	1.220663	-0.031164	0.311277
H123	H	1.152268	-0.032040	0.374638
H124	H	1.221459	0.021951	0.374620
H125	H	1.166892	0.010395	0.195713
H126	H	0.945520	0.181498	0.334002
C127	C	0.885068	0.114847	0.419954
H128	H	0.836536	0.120220	0.453577
H129	H	0.880255	0.075153	0.390227
H130	H	0.883099	0.155294	0.390210
H131	H	0.908358	0.112278	0.569126
H132	H	0.327750	0.092601	-0.119816
H133	H	0.496991	0.095071	-0.119809
