data_functionalizedCrystal
_audit_creation_method	'MofGen! by Chris Wilmer'
_symmetry_space_group_name_H-M	'P1'
_symmetry_Int_Tables_number	1
_symmetry_cell_setting	triclinic
loop_
_symmetry_equiv_pos_as_xyz
  x,y,z
_cell_length_a	6.817900
_cell_length_b	17.284672
_cell_length_c	12.200875
_cell_angle_alpha	91.039880
_cell_angle_beta	107.143593
_cell_angle_gamma	103.040903
loop_
_atom_site_label
_atom_site_type_symbol
_atom_site_fract_x
_atom_site_fract_y
_atom_site_fract_z
V1	V	-4.060284	-0.109232	-0.347868
O2	O	-4.055412	0.005065	-0.351307
O3	O	-4.003634	-0.216412	-0.335812
O4	O	-4.030124	-0.107633	-0.503999
O5	O	-4.028738	-0.104467	-0.181955
V6	V	-4.542617	-0.095551	-0.329199
O7	O	-4.324152	-0.139242	-0.388819
O8	O	-4.728946	-0.065541	-0.288247
O9	O	-4.376060	0.011628	-0.341254
O10	O	-4.664886	-0.209848	-0.325760
O11	O	-4.691560	-0.100316	-0.495111
O12	O	-4.349570	-0.097151	-0.173067
C13	C	-3.846038	-0.242538	-0.327827
C14	C	-3.881129	-0.330159	-0.319011
C15	C	-3.949235	-0.382635	-0.418901
C16	C	-3.982182	-0.464963	-0.410606
C17	C	-3.947037	-0.494814	-0.302422
C18	C	-3.878919	-0.442331	-0.202525
C19	C	-3.845958	-0.360004	-0.210820
C20	C	-4.040067	-0.739820	-0.266457
C21	C	-4.073040	-0.822154	-0.258169
C22	C	-4.176298	-0.844780	-0.466252
C23	C	-4.143344	-0.762451	-0.474538
C24	C	-4.075218	-0.709975	-0.374640
N25	N	-3.980720	-0.578966	-0.293941
N26	N	-4.041522	-0.625824	-0.383122
C27	C	-3.879828	-0.103778	-0.542366
C28	C	-3.936398	-0.103179	-0.669940
C29	C	-4.039930	-0.102085	-0.903513
C30	C	-3.982309	-0.102694	-0.773536
C31	C	-4.196998	0.037750	-0.349235
C32	C	-4.141146	0.125370	-0.358059
C33	C	-4.163208	-0.101008	-0.134694
C34	C	-4.085876	-0.101603	-0.007119
H35	H	-4.044409	-0.846454	-0.170068
H36	H	-3.984614	-0.697104	-0.185113
H37	H	-4.231762	-0.887514	-0.547582
H38	H	-3.850293	-0.466642	-0.114438
H39	H	-3.790491	-0.317278	-0.129479
H40	H	-4.037639	-0.507686	-0.491947
H41	H	-4.171937	-0.738152	-0.562632
H42	H	-3.977885	-0.358338	-0.506997
