data_functionalizedCrystal
_audit_creation_method	'MofGen! by Chris Wilmer'
_symmetry_space_group_name_H-M	'P1'
_symmetry_Int_Tables_number	1
_symmetry_cell_setting	triclinic
loop_
_symmetry_equiv_pos_as_xyz
  x,y,z
_cell_length_a	12.594516
_cell_length_b	16.120530
_cell_length_c	16.120297
_cell_angle_alpha	90.128140
_cell_angle_beta	87.122232
_cell_angle_gamma	92.888148
loop_
_atom_site_label
_atom_site_type_symbol
_atom_site_fract_x
_atom_site_fract_y
_atom_site_fract_z
Zn1	Zn	-0.539249	-1.247493	0.534603
Zn2	Zn	-0.039249	-0.747493	1.034603
Zn3	Zn	-0.708692	-1.254461	0.395557
Zn4	Zn	-0.208692	-0.754461	0.895557
Zn5	Zn	-0.521263	-1.115482	0.388519
Zn6	Zn	-0.021263	-0.615482	0.888519
Zn7	Zn	-0.707712	-1.108417	0.527526
Zn8	Zn	-0.207712	-0.608417	1.027526
O9	O	-0.619229	-1.181463	0.461551
O10	O	-0.119229	-0.681463	0.961551
O11	O	-0.569664	-1.364785	0.522065
O12	O	-0.069664	-0.864785	1.022065
O13	O	-0.676712	-1.241897	0.278258
O14	O	-0.176712	-0.741897	0.778258
O15	O	-0.374707	-1.133034	0.407914
O16	O	0.125293	-0.633034	0.907914
O17	O	-0.694153	-1.369904	0.419909
O18	O	-0.194153	-0.869904	0.919909
O19	O	-0.387921	-1.230022	0.515241
O20	O	0.112079	-0.730022	1.015241
O21	O	-0.539009	-1.139790	0.273087
O22	O	-0.039009	-0.639790	0.773087
O23	O	-0.538058	-0.998178	0.401052
O24	O	-0.038058	-0.498178	0.901052
O25	O	-0.692482	-1.120993	0.644831
O26	O	-0.192482	-0.620993	1.144831
O27	O	-0.675042	-0.992987	0.503180
O28	O	-0.175042	-0.492987	1.003180
O29	O	-0.568713	-1.223172	0.650030
O30	O	-0.068713	-0.723172	1.150030
O31	O	-0.857504	-1.235047	0.413047
O32	O	-0.357504	-0.735047	0.913047
O33	O	-0.856784	-1.127749	0.510004
O34	O	-0.356784	-0.627749	1.010004
C35	C	-0.895766	-1.181409	0.461540
C36	C	-0.395766	-0.681409	0.961540
C37	C	-1.014076	-1.181461	0.461567
C38	C	-0.514076	-0.681461	0.961567
C39	C	-0.604493	-0.965410	0.450585
C40	C	-0.104493	-0.465410	0.950585
C41	C	-0.598215	-0.872980	0.445913
C42	C	-0.098215	-0.372980	0.945913
C43	C	-0.632495	-1.170517	0.678446
C44	C	-0.132495	-0.670517	1.178446
C45	C	-0.638148	-1.165853	0.770874
C46	C	-0.138148	-0.665853	1.270874
C47	C	-1.082974	-1.123098	0.514263
C48	C	-0.582974	-0.623098	1.014263
C49	C	-1.147787	-1.106686	0.437359
C50	C	-0.647787	-0.606686	0.937359
C51	C	-1.160068	-1.197948	0.538488
C52	C	-0.660068	-0.697948	1.038488
C53	C	-1.077326	-1.165010	0.384621
C54	C	-0.577326	-0.665010	0.884621
C55	C	-1.089606	-1.256305	0.485803
C56	C	-0.589606	-0.756305	0.985803
C57	C	-1.154387	-1.239924	0.408848
C58	C	-0.654387	-0.739924	0.908848
C59	C	-0.341615	-1.181539	0.461582
C60	C	0.158385	-0.681539	0.961582
C61	C	-0.223313	-1.181572	0.461595
C62	C	0.276687	-0.681572	0.961595
C63	C	-0.634024	-1.398360	0.472561
C64	C	-0.134024	-0.898360	0.972561
C65	C	-0.640328	-1.490789	0.477253
C66	C	-0.140328	-0.990789	0.977253
C67	C	-0.586730	-0.703749	0.437391
C68	C	-0.086730	-0.203749	0.937391
C69	C	-0.651810	-0.660015	0.485772
C70	C	-0.151810	-0.160015	0.985772
C71	C	-0.645420	-0.565849	0.481031
C72	C	-0.145420	-0.065849	0.981031
C73	C	-0.593119	-0.797924	0.442132
C74	C	-0.093119	-0.297924	0.942132
C75	C	-0.605942	-1.192414	0.245502
C76	C	-0.105942	-0.692414	0.745502
C77	C	-0.600000	-1.197240	0.153083
C78	C	-0.100000	-0.697240	0.653083
C79	C	-0.648443	-1.157306	0.940100
C80	C	-0.148443	-0.657306	1.440100
C81	C	-0.589708	-1.205784	0.983863
C82	C	-0.089708	-0.705784	1.483863
C83	C	-0.595436	-1.201029	1.078026
C84	C	-0.095436	-0.701029	1.578026
C85	C	-0.642716	-1.162061	0.845928
C86	C	-0.142716	-0.662061	1.345928
H87	H	-1.173578	-1.043442	0.416881
H88	H	-0.673578	-0.543442	0.916881
H89	H	-1.063819	-1.319532	0.506317
H90	H	-0.563819	-0.819532	1.006317
O91	O	-0.514397	-0.664091	0.383816
O92	O	-0.014397	-0.164091	0.883816
C93	C	-0.410875	-0.684351	0.403149
C94	C	0.089125	-0.184351	0.903149
H95	H	-0.411277	-0.704964	0.470769
H96	H	0.088723	-0.204964	0.970769
H97	H	-0.354046	-0.627543	0.393229
H98	H	0.145954	-0.127543	0.893229
H99	H	-0.383589	-0.736929	0.361083
H100	H	0.116411	-0.236929	0.861083
O101	O	-0.524662	-1.259530	0.944071
O102	O	-0.024662	-0.759530	1.444071
C103	C	-0.533325	-1.252356	0.857549
C104	C	-0.033325	-0.752356	1.357549
H105	H	-0.612912	-1.225693	0.844399
H106	H	-0.112912	-0.725693	1.344399
H107	H	-0.528361	-1.316279	0.827631
H108	H	-0.028361	-0.816279	1.327631
H109	H	-0.465710	-1.209298	0.830652
H110	H	0.034290	-0.709298	1.330652
O111	O	-0.713546	-1.103611	0.979893
O112	O	-0.213546	-0.603611	1.479893
C113	C	-0.704828	-1.110755	1.066412
C114	C	-0.204828	-0.610755	1.566412
H115	H	-0.675039	-1.174355	1.081432
H116	H	-0.175039	-0.674355	1.581432
H117	H	-0.786141	-1.103464	1.099211
H118	H	-0.286141	-0.603464	1.599211
H119	H	-0.646258	-1.060223	1.088555
H120	H	-0.146258	-0.560223	1.588555
O121	O	-1.203144	-1.214685	0.616062
O122	O	-0.703144	-0.714685	1.116062
C123	C	-1.172140	-1.292956	0.642011
C124	C	-0.672140	-0.792956	1.142011
H125	H	-1.150024	-1.331972	0.585261
H126	H	-0.650024	-0.831972	1.085261
H127	H	-1.240869	-1.325863	0.679558
H128	H	-0.740869	-0.825863	1.179558
H129	H	-1.100458	-1.284325	0.682196
H130	H	-0.600458	-0.784325	1.182196
O131	O	-0.723875	-0.699796	0.539480
O132	O	-0.223875	-0.199796	1.039480
C133	C	-0.670025	-0.747338	0.595766
C134	C	-0.170025	-0.247338	1.095766
H135	H	-0.588374	-0.761729	0.567187
H136	H	-0.088374	-0.261729	1.067187
H137	H	-0.718149	-0.807897	0.609868
H138	H	-0.218149	-0.307897	1.109868
H139	H	-0.660007	-0.710834	0.655758
H140	H	-0.160007	-0.210834	1.155758
O141	O	-1.045597	-1.064018	0.567241
O142	O	-0.545597	-0.564018	1.067241
C143	C	-1.075033	-0.985267	0.541401
C144	C	-0.575033	-0.485267	1.041401
H145	H	-1.090591	-0.987246	0.472351
H146	H	-0.590591	-0.487246	0.972351
H147	H	-1.007959	-0.937084	0.552815
H148	H	-0.507959	-0.437084	1.052815
H149	H	-1.150347	-0.967789	0.578143
H150	H	-0.650347	-0.467789	1.078143
H151	H	-1.041305	-1.151036	0.319560
H152	H	-0.541305	-0.651036	0.819560
H153	H	-1.185534	-1.289330	0.364243
H154	H	-0.685534	-0.789330	0.864243
