data_functionalizedCrystal
_audit_creation_method	'MofGen! by Chris Wilmer'
_symmetry_space_group_name_H-M	'P1'
_symmetry_Int_Tables_number	1
_symmetry_cell_setting	triclinic
loop_
_symmetry_equiv_pos_as_xyz
  x,y,z
_cell_length_a	11.169417
_cell_length_b	25.639240
_cell_length_c	11.169409
_cell_angle_alpha	90.046464
_cell_angle_beta	90.019513
_cell_angle_gamma	90.034008
loop_
_atom_site_label
_atom_site_type_symbol
_atom_site_fract_x
_atom_site_fract_y
_atom_site_fract_z
Zn1	Zn	1.834775	-0.208091	0.678415
Zn2	Zn	2.334775	0.291909	1.178415
Zn3	Zn	1.834586	-0.295541	0.477682
Zn4	Zn	2.334586	0.204459	0.977682
Zn5	Zn	1.634061	-0.208123	0.477750
Zn6	Zn	2.134061	0.291877	0.977750
Zn7	Zn	1.633990	-0.295499	0.678328
Zn8	Zn	2.133990	0.204501	1.178328
O9	O	1.734353	-0.251814	0.578044
O10	O	2.234353	0.248186	1.078044
O11	O	2.002700	-0.219695	0.651795
O12	O	2.502700	0.280305	1.151795
O13	O	1.807937	-0.283976	0.309742
O14	O	2.307937	0.216024	0.809742
O15	O	1.660795	-0.134954	0.504434
O16	O	2.160795	0.365046	1.004434
O17	O	2.002561	-0.283945	0.504318
O18	O	2.502561	0.216055	1.004318
O19	O	1.808259	-0.134930	0.651861
O20	O	2.308259	0.365070	1.151861
O21	O	1.660612	-0.219751	0.309792
O22	O	2.160612	0.280249	0.809792
O23	O	1.466102	-0.219710	0.504350
O24	O	1.966102	0.280290	1.004350
O25	O	1.660674	-0.283873	0.846290
O26	O	2.160674	0.216127	1.346290
O27	O	1.466050	-0.283905	0.651713
O28	O	1.966050	0.216095	1.151713
O29	O	1.808190	-0.219655	0.846353
O30	O	2.308190	0.280345	1.346353
O31	O	1.807868	-0.368701	0.504234
O32	O	2.307868	0.131299	1.004234
O33	O	1.660491	-0.368670	0.651647
O34	O	2.160491	0.131330	1.151647
C35	C	1.422529	-0.251807	0.578030
C36	C	1.922529	0.248193	1.078030
C37	C	1.289129	-0.251816	0.578053
C38	C	1.789129	0.248184	1.078053
C39	C	1.734184	-0.387656	0.577950
C40	C	2.234184	0.112344	1.077950
C41	C	1.734221	-0.445770	0.577950
C42	C	2.234221	0.054230	1.077950
C43	C	1.811176	-0.806082	0.654948
C44	C	2.311176	-0.306082	1.154948
C45	C	1.811211	-0.860687	0.654972
C46	C	2.311211	-0.360687	1.154972
O47	O	1.876439	-0.888880	0.720342
O48	O	2.376439	-0.388880	1.220342
N49	N	1.734520	-0.888053	0.578160
N50	N	2.234520	-0.388053	1.078160
C51	C	1.657779	-0.860812	0.501327
C52	C	2.157779	-0.360812	1.001327
O53	O	1.592550	-0.889102	0.435995
O54	O	2.092550	-0.389102	0.935995
C55	C	1.657739	-0.806208	0.501309
C56	C	2.157739	-0.306208	1.001309
C57	C	1.734444	-0.778845	0.578118
C58	C	2.234444	-0.278845	1.078118
C59	C	1.887874	-0.778719	0.731751
C60	C	2.387874	-0.278719	1.231751
C61	C	1.887839	-0.724119	0.731725
C62	C	2.387839	-0.224119	1.231725
C63	C	1.811108	-0.696881	0.654895
C64	C	2.311108	-0.196881	1.154895
C65	C	1.734410	-0.724245	0.578092
C66	C	2.234410	-0.224245	1.078092
C67	C	1.580993	-0.778968	0.424483
C68	C	2.080993	-0.278968	0.924483
C69	C	1.580959	-0.724361	0.424473
C70	C	2.080959	-0.224361	0.924473
C71	C	1.657664	-0.696998	0.501282
C72	C	2.157664	-0.196998	1.001282
C73	C	1.657644	-0.642407	0.501236
C74	C	2.157644	-0.142407	1.001236
N75	N	1.734335	-0.615041	0.578048
N76	N	2.234335	-0.115041	1.078048
C77	C	1.811067	-0.642278	0.654878
C78	C	2.311067	-0.142278	1.154878
C79	C	1.657869	-0.975482	0.501371
C80	C	2.157869	-0.475482	1.001371
C81	C	1.657915	-1.030084	0.501381
C82	C	2.157915	-0.530084	1.001381
C83	C	1.811345	-1.029956	0.655029
C84	C	2.311345	-0.529956	1.155029
C85	C	1.811305	-0.975353	0.655011
C86	C	2.311305	-0.475353	1.155011
C87	C	1.734560	-0.948116	0.578183
C88	C	2.234560	-0.448116	1.078183
C89	C	1.810990	-0.527613	0.654816
C90	C	2.310990	-0.027613	1.154816
C91	C	1.810953	-0.473008	0.654780
C92	C	2.310953	0.026992	1.154780
C93	C	1.657518	-0.473141	0.501137
C94	C	2.157518	0.026859	1.001137
C95	C	1.657560	-0.527742	0.501169
C96	C	2.157560	-0.027742	1.001169
C97	C	1.734300	-0.554976	0.578018
C98	C	2.234300	-0.054976	1.078018
O99	O	1.592445	-0.614179	0.435903
O100	O	2.092445	-0.114179	0.935903
O101	O	1.876274	-0.613981	0.720210
O102	O	2.376274	-0.113981	1.220210
C103	C	2.047396	-0.251821	0.578058
C104	C	2.547396	0.248179	1.078058
C105	C	2.180796	-0.251824	0.578065
C106	C	2.680796	0.248176	1.078065
C107	C	1.734445	-0.251756	0.891087
C108	C	2.234445	0.248244	1.391087
C109	C	1.734485	-0.251731	1.024487
C110	C	2.234485	0.248269	1.524487
C111	C	1.734556	-0.115441	0.578165
C112	C	2.234556	0.384559	1.078165
C113	C	1.734643	-0.057327	0.578216
C114	C	2.234643	0.442673	1.078216
C115	C	1.734330	-0.251834	0.266219
C116	C	2.234330	0.248166	0.766219
C117	C	1.734524	-0.251711	0.132820
C118	C	2.234524	0.248289	0.632820
H119	H	1.873419	-0.450730	0.717326
H120	H	2.373419	0.049270	1.217326
H121	H	1.873471	-0.549781	0.717402
H122	H	2.373471	-0.049781	1.217402
Cl123	Cl	1.984264	-0.689728	0.828300
Cl124	Cl	2.484264	-0.189728	1.328300
H125	H	1.595378	-0.953309	0.438798
H126	H	2.095378	-0.453309	0.938798
H127	H	1.873764	-0.953077	0.717556
H128	H	2.373764	-0.453077	1.217556
Cl129	Cl	1.484474	-0.690125	0.327882
Cl130	Cl	1.984474	-0.190125	0.827882
Cl131	Cl	1.984347	-0.812951	0.828355
Cl132	Cl	2.484347	-0.312951	1.328355
Cl133	Cl	1.907807	-1.064207	0.751618
Cl134	Cl	2.407807	-0.564207	1.251618
H135	H	1.518532	-0.801238	0.361937
H136	H	2.018532	-0.301238	0.861937
H137	H	1.595467	-1.052359	0.438823
H138	H	2.095467	-0.552359	0.938823
Cl139	Cl	1.561145	-0.562142	0.404593
Cl140	Cl	2.061145	-0.062142	0.904593
H141	H	1.595048	-0.450956	0.438580
H142	H	2.095048	0.049044	0.938580
