data_functionalizedCrystal
_audit_creation_method	'MofGen! by Chris Wilmer'
_symmetry_space_group_name_H-M	'P1'
_symmetry_Int_Tables_number	1
_symmetry_cell_setting	triclinic
loop_
_symmetry_equiv_pos_as_xyz
  x,y,z
_cell_length_a	12.827893
_cell_length_b	12.827892
_cell_length_c	21.395355
_cell_angle_alpha	90.013329
_cell_angle_beta	90.022562
_cell_angle_gamma	90.015552
loop_
_atom_site_label
_atom_site_type_symbol
_atom_site_fract_x
_atom_site_fract_y
_atom_site_fract_z
Zn1	Zn	1.597703	-0.416150	0.354251
Zn2	Zn	1.931037	-0.082816	0.687584
Zn3	Zn	2.264370	0.250517	1.020917
Zn4	Zn	1.597588	-0.590876	0.249483
Zn5	Zn	1.930921	-0.257543	0.582816
Zn6	Zn	2.264254	0.075790	0.916149
Zn7	Zn	1.422935	-0.416150	0.249491
Zn8	Zn	1.756268	-0.082817	0.582824
Zn9	Zn	2.089602	0.250516	0.916158
Zn10	Zn	1.422930	-0.590850	0.354227
Zn11	Zn	1.756263	-0.257516	0.687560
Zn12	Zn	2.089597	0.075817	1.020893
O13	O	1.510289	-0.503506	0.301863
O14	O	1.843622	-0.170173	0.635196
O15	O	2.176956	0.163160	0.968529
O16	O	1.743924	-0.439338	0.340360
O17	O	2.077257	-0.106005	0.673693
O18	O	2.410591	0.227328	1.007026
O19	O	1.574373	-0.567710	0.161806
O20	O	1.907706	-0.234376	0.495139
O21	O	2.241040	0.098957	0.828473
O22	O	1.446169	-0.269914	0.263401
O23	O	1.779502	0.063419	0.596735
O24	O	2.112835	0.396753	0.930068
O25	O	1.743839	-0.567709	0.263387
O26	O	2.077172	-0.234376	0.596720
O27	O	2.410506	0.098958	0.930054
O28	O	1.574571	-0.269914	0.340368
O29	O	1.907904	0.063420	0.673701
O30	O	2.241237	0.396753	1.007034
O31	O	1.446056	-0.439339	0.161812
O32	O	1.779390	-0.106006	0.495145
O33	O	2.112723	0.227327	0.828479
O34	O	1.276698	-0.439314	0.263378
O35	O	1.610032	-0.105980	0.596711
O36	O	1.943365	0.227353	0.930045
O37	O	1.446161	-0.567664	0.441908
O38	O	1.779494	-0.234331	0.775241
O39	O	2.112827	0.099003	1.108574
O40	O	1.276695	-0.567665	0.340327
O41	O	1.610028	-0.234331	0.673660
O42	O	1.943361	0.099002	1.006993
O43	O	1.574566	-0.439313	0.441925
O44	O	1.907899	-0.105979	0.775259
O45	O	2.241233	0.227354	1.108592
O46	O	1.574368	-0.737109	0.263364
O47	O	1.907702	-0.403775	0.596697
O48	O	2.241035	-0.070442	0.930030
O49	O	1.446048	-0.737089	0.340318
O50	O	1.779382	-0.403756	0.673652
O51	O	2.112715	-0.070423	1.006985
C52	C	1.238779	-0.503487	0.301851
C53	C	1.572112	-0.170154	0.635184
C54	C	1.905446	0.163179	0.968518
C55	C	1.122626	-0.503504	0.301861
C56	C	1.455959	-0.170171	0.635194
C57	C	1.789293	0.163162	0.968527
C58	C	1.510224	-0.775016	0.301851
C59	C	1.843557	-0.441683	0.635185
C60	C	2.176890	-0.108350	0.968518
C61	C	1.510291	-0.891170	0.301867
C62	C	1.843625	-0.557836	0.635201
C63	C	2.176958	-0.224503	0.968534
C64	C	1.070883	-0.440095	0.340008
C65	C	1.404217	-0.106762	0.673342
C66	C	1.737550	0.226572	1.006675
C67	C	0.950833	-0.440111	0.340019
C68	C	1.284166	-0.106778	0.673353
C69	C	1.617500	0.226556	1.006686
C70	C	1.573800	-0.942871	0.339987
C71	C	1.907134	-0.609537	0.673320
C72	C	2.240467	-0.276204	1.006654
C73	C	1.573872	-1.062921	0.340004
C74	C	1.907205	-0.729588	0.673338
C75	C	2.240538	-0.396254	1.006671
C76	C	1.782859	-0.503527	0.301875
C77	C	2.116192	-0.170193	0.635208
C78	C	2.449526	0.163140	0.968542
C79	C	1.899012	-0.503535	0.301880
C80	C	2.232346	-0.170202	0.635214
C81	C	2.565679	0.163132	0.968547
C82	C	1.510376	-0.503485	0.465286
C83	C	1.843709	-0.170152	0.798619
C84	C	2.177042	0.163181	1.131953
C85	C	1.510413	-0.503476	0.534927
C86	C	1.843746	-0.170143	0.868261
C87	C	2.177079	0.163190	1.201594
C88	C	1.510383	-0.230936	0.301888
C89	C	1.843716	0.102397	0.635221
C90	C	2.177050	0.435730	0.968555
C91	C	1.510423	-0.114783	0.301899
C92	C	1.843757	0.218550	0.635232
C93	C	2.177090	0.551883	0.968566
C94	C	1.510263	-0.503452	0.139075
C95	C	1.843596	-0.170119	0.472409
C96	C	2.176929	0.163215	0.805742
C97	C	1.510428	-0.503167	0.069434
C98	C	1.843762	-0.169833	0.402768
C99	C	2.177095	0.163500	0.736101
C100	C	1.577270	-0.436641	0.567651
C101	C	1.910604	-0.103308	0.900984
C102	C	2.243937	0.230026	1.234317
C103	C	1.577269	-0.436596	0.633086
C104	C	1.910602	-0.103263	0.966420
C105	C	2.243936	0.230071	1.299753
C106	C	1.510421	-0.503405	0.665796
C107	C	1.843754	-0.170072	0.999129
C108	C	2.177088	0.163262	1.332462
C109	C	1.443550	-0.570245	0.633065
C110	C	1.776883	-0.236912	0.966398
C111	C	2.110217	0.096421	1.299731
C112	C	1.443546	-0.570281	0.567630
C113	C	1.776879	-0.236947	0.900964
C114	C	2.110213	0.096386	1.234297
C115	C	1.502147	-0.597499	0.769467
C116	C	1.835480	-0.264166	1.102800
C117	C	2.168813	0.069168	1.436133
C118	C	1.502158	-0.597465	0.834900
C119	C	1.835491	-0.264132	1.168233
C120	C	2.168825	0.069202	1.501566
C121	C	1.510427	-0.503295	0.867617
C122	C	1.843761	-0.169961	1.200950
C123	C	2.177094	0.163372	1.534283
C124	C	1.518707	-0.409155	0.834893
C125	C	1.852040	-0.075822	1.168226
C126	C	2.185374	0.257511	1.501559
C127	C	1.518703	-0.409191	0.769458
C128	C	1.852036	-0.075857	1.102792
C129	C	2.185370	0.257476	1.436125
C130	C	1.510417	-0.503373	0.736748
C131	C	1.843751	-0.170040	1.070082
C132	C	2.177084	0.163293	1.403415
C133	C	1.577287	-0.436405	0.971293
C134	C	1.910620	-0.103072	1.304626
C135	C	2.243954	0.230262	1.637959
C136	C	1.577278	-0.436358	1.036729
C137	C	1.910612	-0.103025	1.370063
C138	C	2.243945	0.230308	1.703396
C139	C	1.443565	-0.570017	1.036706
C140	C	1.776898	-0.236683	1.370040
C141	C	2.110232	0.096650	1.703373
C142	C	1.443568	-0.570054	0.971271
C143	C	1.776902	-0.236721	1.304604
C144	C	2.110235	0.096613	1.637938
C145	C	1.510435	-0.503250	0.938568
C146	C	1.843768	-0.169916	1.271901
C147	C	2.177101	0.163417	1.605235
H148	H	1.115461	-0.385792	0.372658
H149	H	1.448794	-0.052459	0.705991
H150	H	1.782128	0.280874	1.039324
Cl151	Cl	1.426475	-1.046150	0.251504
Cl152	Cl	1.759808	-0.712817	0.584837
Cl153	Cl	2.093141	-0.379483	0.918171
Cl154	Cl	1.359490	-0.654310	0.526490
Cl155	Cl	1.692823	-0.320977	0.859824
Cl156	Cl	2.026157	0.012356	1.193157
Cl157	Cl	1.053810	-0.587336	0.251443
Cl158	Cl	1.387144	-0.254003	0.584776
Cl159	Cl	1.720477	0.079330	0.918110
Cl160	Cl	0.967701	-0.587363	0.251455
Cl161	Cl	1.301034	-0.254030	0.584788
Cl162	Cl	1.634367	0.079303	0.918122
H163	H	1.455967	-0.935783	0.269247
H164	H	1.789300	-0.602450	0.602581
H165	H	2.122634	-0.269116	0.935914
Cl166	Cl	1.661340	-0.352419	0.930177
Cl167	Cl	1.994674	-0.019085	1.263511
Cl168	Cl	2.328007	0.314248	1.596844
Cl169	Cl	1.491782	-0.715899	0.728344
Cl170	Cl	1.825115	-0.382566	1.061677
Cl171	Cl	2.158448	-0.049233	1.395010
H172	H	1.631717	-0.382242	0.541028
H173	H	1.965051	-0.048909	0.874361
H174	H	2.298384	0.284425	1.207695
H175	H	1.628117	-0.898260	0.372613
H176	H	1.961450	-0.564926	0.705946
H177	H	2.294783	-0.231593	1.039279
Cl178	Cl	1.657829	-1.131561	0.390391
Cl179	Cl	1.991162	-0.798228	0.723724
Cl180	Cl	2.324496	-0.464894	1.057057
H181	H	1.631710	-0.382165	0.659735
H182	H	1.965044	-0.048832	0.993068
H183	H	2.298377	0.284502	1.326401
Cl184	Cl	1.529103	-0.290850	0.728322
Cl185	Cl	1.862437	0.042484	1.061655
Cl186	Cl	2.195770	0.375817	1.394988
Cl187	Cl	1.529108	-0.290761	0.876015
Cl188	Cl	1.862441	0.042572	1.209348
Cl189	Cl	2.195774	0.375906	1.542682
Cl190	Cl	1.661353	-0.352345	1.077868
Cl191	Cl	1.994686	-0.019011	1.411201
Cl192	Cl	2.328019	0.314322	1.744535
Cl193	Cl	0.882138	-0.356297	0.390450
Cl194	Cl	1.215471	-0.022964	0.723783
Cl195	Cl	1.548805	0.310370	1.057116
Cl196	Cl	1.491759	-0.715811	0.876032
Cl197	Cl	1.825093	-0.382477	1.209365
Cl198	Cl	2.158426	-0.049144	1.542698
Cl199	Cl	1.359516	-0.653997	1.077821
Cl200	Cl	1.692850	-0.320664	1.411154
Cl201	Cl	2.026183	0.012670	1.744487
H202	H	1.389132	-0.624485	0.944627
H203	H	1.722465	-0.291152	1.277961
H204	H	2.055798	0.042182	1.611294
Cl205	Cl	1.359508	-0.654230	0.674184
Cl206	Cl	1.692842	-0.320897	1.007517
Cl207	Cl	2.026175	0.012437	1.340851
