data_functionalizedCrystal
_audit_creation_method	'MofGen! by Chris Wilmer'
_symmetry_space_group_name_H-M	'P1'
_symmetry_Int_Tables_number	1
_symmetry_cell_setting	triclinic
loop_
_symmetry_equiv_pos_as_xyz
  x,y,z
_cell_length_a	10.686220
_cell_length_b	12.827892
_cell_length_c	10.685314
_cell_angle_alpha	85.663201
_cell_angle_beta	81.642441
_cell_angle_gamma	94.396991
loop_
_atom_site_label
_atom_site_type_symbol
_atom_site_fract_x
_atom_site_fract_y
_atom_site_fract_z
Zn1	Zn	1.885489	-0.332142	0.569016
Zn2	Zn	1.901631	-0.492429	0.356787
Zn3	Zn	1.689499	-0.332228	0.373051
Zn4	Zn	1.673216	-0.521373	0.585226
O5	O	1.787459	-0.419543	0.471020
O6	O	2.065246	-0.341255	0.527273
O7	O	1.887062	-0.459101	0.181330
O8	O	1.715557	-0.185979	0.399069
O9	O	2.077105	-0.459017	0.371349
O10	O	1.859550	-0.185915	0.543044
O11	O	1.731209	-0.341402	0.193280
O12	O	1.509724	-0.369468	0.414787
O13	O	1.687804	-0.508348	0.760690
O14	O	1.497761	-0.508432	0.570671
O15	O	1.843761	-0.369321	0.748781
O16	O	1.871272	-0.642507	0.387067
O17	O	1.703457	-0.663772	0.554900
C18	C	1.457689	-0.442101	0.496253
C19	C	1.316610	-0.451779	0.507078
C20	C	1.787381	-0.691057	0.471003
C21	C	1.787461	-0.807207	0.471029
C22	C	1.858674	-0.858884	0.542344
C23	C	1.858758	-0.978931	0.542372
C24	C	2.118517	-0.396898	0.445689
C25	C	2.259594	-0.387248	0.434894
C26	C	1.762166	-0.442054	0.802076
C27	C	1.751387	-0.451646	0.943153
C28	C	1.787569	-0.146969	0.471063
C29	C	1.787616	-0.030814	0.471081
C30	C	1.812727	-0.397040	0.141246
C31	C	1.823752	-0.387136	0.000152
H32	H	1.257488	-0.514439	0.577157
O33	O	1.714718	-0.860572	0.398394
C34	C	1.627251	-0.934245	0.476952
H35	H	1.664614	-0.953909	0.569776
H36	H	1.532050	-0.899688	0.497966
C37	C	1.563944	-1.010687	0.294977
C38	C	1.609840	-1.034845	0.408982
H39	H	1.553199	-1.072740	0.253049
H40	H	1.622869	-0.961049	0.242050
H41	H	1.484615	-0.981888	0.312505
H42	H	1.689175	-1.063631	0.391451
H43	H	1.550928	-1.084490	0.461904
H44	H	1.893940	-0.324558	0.941024
O45	O	1.715021	-0.977837	0.398045
C46	C	1.752491	-0.993969	0.269418
H47	H	1.854368	-1.016597	0.255305
H48	H	1.686988	-1.059698	0.241344
C49	C	1.619161	-0.864442	0.203231
C50	C	1.744292	-0.892225	0.185896
H51	H	1.614099	-0.801685	0.151709
H52	H	1.593913	-0.853576	0.289889
H53	H	1.564589	-0.919225	0.179838
H54	H	1.798860	-0.837449	0.209304
H55	H	1.769550	-0.903080	0.099239
O56	O	1.667747	-0.526279	1.013875
C57	C	1.675234	-0.519565	1.143715
H58	H	1.771840	-0.479843	1.154203
H59	H	1.597126	-0.471601	1.187114
C60	C	1.539773	-0.679471	1.199870
C61	C	1.658430	-0.630691	1.212752
H62	H	1.529402	-0.748017	1.242458
H63	H	1.534724	-0.683992	1.112395
H64	H	1.474696	-0.639490	1.236035
H65	H	1.723505	-0.670665	1.176572
H66	H	1.663490	-0.626179	1.300222
H67	H	1.318709	-0.324598	0.364812
H68	H	1.919575	-0.814255	0.603384
H69	H	1.919730	-1.023371	0.603423
