data_functionalizedCrystal
_audit_creation_method	'MofGen! by Chris Wilmer'
_symmetry_space_group_name_H-M	'P1'
_symmetry_Int_Tables_number	1
_symmetry_cell_setting	triclinic
loop_
_symmetry_equiv_pos_as_xyz
  x,y,z
_cell_length_a	17.077404
_cell_length_b	29.839131
_cell_length_c	17.077396
_cell_angle_alpha	89.968087
_cell_angle_beta	89.980499
_cell_angle_gamma	90.041645
loop_
_atom_site_label
_atom_site_type_symbol
_atom_site_fract_x
_atom_site_fract_y
_atom_site_fract_z
Zn1	Zn	1.199954	-0.178851	-0.443824
Zn2	Zn	1.533287	0.154483	-0.110491
Zn3	Zn	1.866620	0.487816	0.222843
Zn4	Zn	1.199818	-0.253981	-0.312550
Zn5	Zn	1.533151	0.079352	0.020783
Zn6	Zn	1.866485	0.412685	0.354117
Zn7	Zn	1.068685	-0.178866	-0.312572
Zn8	Zn	1.402019	0.154467	0.020761
Zn9	Zn	1.735352	0.487800	0.354095
Zn10	Zn	1.068611	-0.253955	-0.443774
Zn11	Zn	1.401944	0.079379	-0.110440
Zn12	Zn	1.735278	0.412712	0.222893
O13	O	1.134267	-0.216413	-0.378180
O14	O	1.467600	0.116920	-0.044847
O15	O	1.800934	0.450253	0.288487
O16	O	1.309782	-0.188821	-0.426422
O17	O	1.643116	0.144512	-0.093089
O18	O	1.976449	0.477845	0.240245
O19	O	1.182398	-0.244035	-0.202706
O20	O	1.515731	0.089298	0.130627
O21	O	1.849064	0.422632	0.463961
O22	O	1.086186	-0.115997	-0.330013
O23	O	1.419519	0.217336	0.003320
O24	O	1.752853	0.550669	0.336654
O25	O	1.309683	-0.244020	-0.329976
O26	O	1.643016	0.089314	0.003358
O27	O	1.976350	0.422647	0.336691
O28	O	1.182628	-0.115986	-0.426443
O29	O	1.515962	0.217348	-0.093110
O30	O	1.849295	0.550681	0.240223
O31	O	1.086055	-0.188848	-0.202722
O32	O	1.419388	0.144485	0.130611
O33	O	1.752722	0.477818	0.463945
O34	O	0.958829	-0.188822	-0.329964
O35	O	1.292162	0.144511	0.003369
O36	O	1.625495	0.477844	0.336702
O37	O	1.086059	-0.243974	-0.553627
O38	O	1.419393	0.089359	-0.220294
O39	O	1.752726	0.422692	0.113039
O40	O	0.958774	-0.243989	-0.426358
O41	O	1.292107	0.089344	-0.093024
O42	O	1.625441	0.422677	0.240309
O43	O	1.182556	-0.188796	-0.553664
O44	O	1.515889	0.144538	-0.220331
O45	O	1.849223	0.477871	0.113002
O46	O	1.182325	-0.316845	-0.329927
O47	O	1.515659	0.016488	0.003406
O48	O	1.848992	0.349822	0.336740
O49	O	1.085928	-0.316825	-0.426336
O50	O	1.419261	0.016508	-0.093003
O51	O	1.752595	0.349841	0.240330
C52	C	0.930319	-0.216405	-0.378158
C53	C	1.263652	0.116928	-0.044825
C54	C	1.596986	0.450262	0.288508
C55	C	0.843069	-0.216412	-0.378168
C56	C	1.176403	0.116921	-0.044834
C57	C	1.509736	0.450254	0.288499
C58	C	0.802071	-0.245181	-0.428279
C59	C	1.135405	0.088152	-0.094946
C60	C	1.468738	0.421485	0.238388
C61	C	0.720091	-0.245182	-0.428292
C62	C	1.053424	0.088151	-0.094958
C63	C	1.386757	0.421484	0.238375
C64	C	0.679110	-0.216416	-0.378188
C65	C	1.012443	0.116917	-0.044855
C66	C	1.345777	0.450250	0.288479
C67	C	0.720114	-0.187644	-0.328074
C68	C	1.053447	0.145689	0.005259
C69	C	1.386780	0.479022	0.338592
C70	C	0.802093	-0.187641	-0.328066
C71	C	1.135426	0.145692	0.005267
C72	C	1.468759	0.479025	0.338600
C73	C	0.549244	-0.187653	-0.328093
C74	C	0.882577	0.145680	0.005240
C75	C	1.215910	0.479013	0.338573
C76	C	0.467259	-0.187657	-0.328100
C77	C	0.800592	0.145677	0.005233
C78	C	1.133926	0.479010	0.338567
C79	C	0.467242	-0.245194	-0.428319
C80	C	0.800575	0.088139	-0.094985
C81	C	1.133908	0.421473	0.238348
C82	C	0.549221	-0.245191	-0.428311
C83	C	0.882554	0.088142	-0.094977
C84	C	1.215887	0.421476	0.238356
C85	C	0.590219	-0.216420	-0.378196
C86	C	0.923552	0.116914	-0.044862
C87	C	1.256886	0.450247	0.288471
C88	C	1.134125	-0.333136	-0.378141
C89	C	1.467459	0.000197	-0.044808
C90	C	1.800792	0.333531	0.288526
C91	C	1.134136	-0.383070	-0.378151
C92	C	1.467470	-0.049737	-0.044817
C93	C	1.800803	0.283596	0.288516
C94	C	1.184552	-0.692711	-0.328053
C95	C	1.517886	-0.359378	0.005280
C96	C	1.851219	-0.026045	0.338614
C97	C	1.184649	-0.880384	-0.328083
C98	C	1.517983	-0.547051	0.005250
C99	C	1.851316	-0.213718	0.338583
O100	O	1.227402	-0.904647	-0.285459
O101	O	1.560736	-0.571314	0.047875
O102	O	1.894069	-0.237980	0.381208
N103	N	1.134430	-0.903855	-0.378239
N104	N	1.467763	-0.570522	-0.044906
N105	N	1.801096	-0.237189	0.288428
C106	C	1.084186	-0.880405	-0.428394
C107	C	1.417519	-0.547072	-0.095061
C108	C	1.750853	-0.213739	0.238272
O109	O	1.041479	-0.904675	-0.471061
O110	O	1.374813	-0.571342	-0.137728
O111	O	1.708146	-0.238008	0.195605
C112	C	1.084094	-0.692733	-0.428367
C113	C	1.417427	-0.359400	-0.095034
C114	C	1.750760	-0.026066	0.238299
C115	C	1.134311	-0.669264	-0.378203
C116	C	1.467644	-0.335931	-0.044869
C117	C	1.800978	-0.002598	0.288464
C118	C	1.234766	-0.669242	-0.277893
C119	C	1.568099	-0.335909	0.055440
C120	C	1.901433	-0.002576	0.388774
C121	C	1.234738	-0.622327	-0.277883
C122	C	1.568072	-0.288994	0.055451
C123	C	1.901405	0.044340	0.388784
C124	C	1.184497	-0.598880	-0.328033
C125	C	1.517830	-0.265547	0.005301
C126	C	1.851164	0.067786	0.338634
C127	C	1.134283	-0.622349	-0.378193
C128	C	1.467616	-0.289016	-0.044859
C129	C	1.800950	0.044318	0.288474
C130	C	1.033855	-0.669284	-0.478526
C131	C	1.367188	-0.335951	-0.145193
C132	C	1.700521	-0.002617	0.188141
C133	C	1.033837	-0.622363	-0.478516
C134	C	1.367171	-0.289029	-0.145183
C135	C	1.700504	0.044304	0.188150
C136	C	1.084055	-0.598894	-0.428352
C137	C	1.417388	-0.265561	-0.095018
C138	C	1.750721	0.067772	0.238315
C139	C	1.084014	-0.551987	-0.428332
C140	C	1.417347	-0.218653	-0.094999
C141	C	1.750681	0.114680	0.238334
N142	N	1.134233	-0.528516	-0.378177
N143	N	1.467567	-0.195182	-0.044843
N144	N	1.800900	0.138151	0.288490
C145	C	1.184475	-0.551962	-0.328027
C146	C	1.517808	-0.218629	0.005307
C147	C	1.851142	0.114704	0.338640
C148	C	1.084237	-0.978936	-0.428404
C149	C	1.417570	-0.645602	-0.095071
C150	C	1.750904	-0.312269	0.238263
C151	C	1.084259	-1.025854	-0.428410
C152	C	1.417592	-0.692520	-0.095077
C153	C	1.750926	-0.359187	0.238257
C154	C	1.184723	-1.025829	-0.328100
C155	C	1.518057	-0.692496	0.005234
C156	C	1.851390	-0.359163	0.338567
C157	C	1.184697	-0.978911	-0.328090
C158	C	1.518030	-0.645577	0.005243
C159	C	1.851364	-0.312244	0.338576
C160	C	1.134457	-0.955465	-0.378248
C161	C	1.467790	-0.622131	-0.044915
C162	C	1.801123	-0.288798	0.288418
C163	C	1.184412	-0.453437	-0.328009
C164	C	1.517746	-0.120103	0.005325
C165	C	1.851079	0.213230	0.338658
C166	C	1.184378	-0.406517	-0.328001
C167	C	1.517711	-0.073184	0.005333
C168	C	1.851045	0.260150	0.338666
C169	C	1.083917	-0.406545	-0.428314
C170	C	1.417250	-0.073212	-0.094980
C171	C	1.750583	0.260121	0.238353
C172	C	1.083948	-0.453461	-0.428319
C173	C	1.417281	-0.120128	-0.094986
C174	C	1.750615	0.213206	0.238348
C175	C	1.134202	-0.476905	-0.378164
C176	C	1.467535	-0.143572	-0.044831
C177	C	1.800869	0.189761	0.288503
O178	O	1.041290	-0.527695	-0.470941
O179	O	1.374623	-0.194362	-0.137608
O180	O	1.707956	0.138972	0.195726
O181	O	1.227188	-0.527685	-0.285378
O182	O	1.560521	-0.194351	0.047955
O183	O	1.893854	0.138982	0.381288
C184	C	1.184580	-0.739627	-0.328063
C185	C	1.517913	-0.406293	0.005270
C186	C	1.851247	-0.072960	0.338604
C187	C	1.134366	-0.763095	-0.378223
C188	C	1.467700	-0.429762	-0.044890
C189	C	1.801033	-0.096429	0.288444
C190	C	1.084125	-0.739649	-0.428373
C191	C	1.417458	-0.406315	-0.095039
C192	C	1.750792	-0.072982	0.238294
C193	C	1.134388	-0.810013	-0.378229
C194	C	1.467722	-0.476680	-0.044896
C195	C	1.801055	-0.143346	0.288438
C196	C	1.184630	-0.833460	-0.328079
C197	C	1.517963	-0.500127	0.005254
C198	C	1.851296	-0.166793	0.338588
C199	C	1.234849	-0.809989	-0.277923
C200	C	1.568183	-0.476655	0.055410
C201	C	1.901516	-0.143322	0.388743
C202	C	1.234822	-0.763073	-0.277913
C203	C	1.568155	-0.429740	0.055420
C204	C	1.901488	-0.096407	0.388753
C205	C	1.033905	-0.763120	-0.478529
C206	C	1.367239	-0.429786	-0.145195
C207	C	1.700572	-0.096453	0.188138
C208	C	1.033937	-0.810035	-0.478534
C209	C	1.367270	-0.476702	-0.145201
C210	C	1.700603	-0.143368	0.188133
C211	C	1.084178	-0.833482	-0.428384
C212	C	1.417511	-0.500149	-0.095051
C213	C	1.750845	-0.166815	0.238283
C214	C	1.339011	-0.216422	-0.378202
C215	C	1.672345	0.116912	-0.044869
C216	C	2.005678	0.450245	0.288465
C217	C	1.426261	-0.216425	-0.378212
C218	C	1.759594	0.116908	-0.044878
C219	C	2.092928	0.450241	0.288455
C220	C	1.134314	-0.216380	-0.582924
C221	C	1.467648	0.116953	-0.249591
C222	C	1.800981	0.450287	0.083742
C223	C	1.134335	-0.216366	-0.670174
C224	C	1.467668	0.116967	-0.336841
C225	C	1.801001	0.450301	-0.003507
C226	C	1.134431	-0.099235	-0.378236
C227	C	1.467764	0.234098	-0.044903
C228	C	1.801097	0.567432	0.288431
C229	C	1.134500	-0.049300	-0.378260
C230	C	1.467834	0.284033	-0.044927
C231	C	1.801167	0.617366	0.288407
C232	C	1.184582	-0.187632	-0.711185
C233	C	1.517916	0.145701	-0.377851
C234	C	1.851249	0.479034	-0.044518
C235	C	1.184592	-0.187617	-0.793165
C236	C	1.517925	0.145716	-0.459832
C237	C	1.851259	0.479049	-0.126499
C238	C	1.134357	-0.216339	-0.834134
C239	C	1.467690	0.116995	-0.500800
C240	C	1.801024	0.450328	-0.167467
C241	C	1.084104	-0.245074	-0.793117
C242	C	1.417437	0.088259	-0.459784
C243	C	1.750770	0.421593	-0.126451
C244	C	1.084091	-0.245086	-0.711138
C245	C	1.417424	0.088247	-0.377805
C246	C	1.750758	0.421580	-0.044472
C247	C	1.084135	-0.245047	-0.963987
C248	C	1.417469	0.088286	-0.630654
C249	C	1.750802	0.421620	-0.297321
C250	C	1.084149	-0.245035	-1.045972
C251	C	1.417482	0.088298	-0.712639
C252	C	1.750816	0.421631	-0.379305
C253	C	1.184636	-0.187578	-1.046014
C254	C	1.517970	0.145755	-0.712681
C255	C	1.851303	0.479089	-0.379348
C256	C	1.184624	-0.187590	-0.964035
C257	C	1.517957	0.145743	-0.630702
C258	C	1.851290	0.479076	-0.297369
C259	C	1.134371	-0.216326	-0.923025
C260	C	1.467704	0.117007	-0.589691
C261	C	1.801038	0.450341	-0.256358
C262	C	1.134265	-0.216414	-0.174232
C263	C	1.467598	0.116920	0.159101
C264	C	1.800931	0.450253	0.492435
C265	C	1.134397	-0.216301	-0.086983
C266	C	1.467730	0.117032	0.246351
C267	C	1.801063	0.450365	0.579684
H268	H	0.835472	-0.164213	-0.287265
H269	H	1.168806	0.169121	0.046069
H270	H	1.502139	0.502454	0.379402
H271	H	1.225271	-0.387410	-0.287148
H272	H	1.558604	-0.054077	0.046185
H273	H	1.891937	0.279256	0.379519
F274	F	1.030760	-0.953989	-0.481792
F275	F	1.364093	-0.620655	-0.148458
F276	F	1.697426	-0.287322	0.184875
H277	H	0.582622	-0.164220	-0.287291
H278	H	0.915955	0.169113	0.046042
H279	H	1.249289	0.502446	0.379375
H280	H	1.225534	-0.164205	-0.930681
H281	H	1.558867	0.169128	-0.597348
H282	H	1.892200	0.502462	-0.264015
H283	H	1.043360	-1.044958	-0.469252
H284	H	1.376693	-0.711625	-0.135918
H285	H	1.710026	-0.378291	0.197415
F286	F	1.238054	-0.157064	-0.667590
F287	F	1.571388	0.176269	-0.334257
F288	F	1.904721	0.509602	-0.000924
H289	H	1.225511	-0.164220	-0.826553
H290	H	1.558844	0.169113	-0.493219
H291	H	1.892177	0.502446	-0.159886
F292	F	0.423646	-0.157043	-0.274771
F293	F	0.756979	0.176291	0.058562
F294	F	1.090312	0.509624	0.391895
F295	F	1.237898	-0.478381	-0.274628
F296	F	1.571232	-0.145048	0.058705
F297	F	1.904565	0.188285	0.392039
H298	H	1.275632	-0.603222	-0.237037
H299	H	1.608965	-0.269888	0.096296
H300	H	1.942298	0.063445	0.429630
F301	F	0.980429	-0.738172	-0.531909
F302	F	1.313763	-0.404839	-0.198575
F303	F	1.647096	-0.071505	0.134758
H304	H	1.225552	-0.164179	-1.079409
H305	H	1.558886	0.169154	-0.746076
H306	H	1.892219	0.502487	-0.412743
H307	H	0.992958	-0.688384	-0.519372
H308	H	1.326292	-0.355051	-0.186039
H309	H	1.659625	-0.021717	0.147295
H310	H	1.043242	-0.268422	-1.079326
H311	H	1.376575	0.064911	-0.745993
H312	H	1.709908	0.398245	-0.412660
F313	F	1.288246	-0.694189	-0.224513
F314	F	1.621579	-0.360856	0.108820
F315	F	1.954913	-0.027523	0.442154
H316	H	0.686741	-0.164221	-0.287283
H317	H	1.020074	0.169113	0.046051
H318	H	1.353407	0.502446	0.379384
H319	H	1.043202	-0.268440	-0.930599
H320	H	1.376535	0.064894	-0.597266
H321	H	1.709869	0.398227	-0.263932
F322	F	1.030637	-0.275640	-0.836721
F323	F	1.363970	0.057693	-0.503388
F324	F	1.697303	0.391027	-0.170054
F325	F	1.238193	-1.050791	-0.274724
F326	F	1.571526	-0.717458	0.058609
F327	F	1.904859	-0.384124	0.391942
F328	F	0.845679	-0.275801	-0.481603
F329	F	1.179012	0.057533	-0.148270
F330	F	1.512345	0.390866	0.185063
F331	F	0.676461	-0.275802	-0.481628
F332	F	1.009794	0.057532	-0.148294
F333	F	1.343128	0.390865	0.185039
H334	H	1.043008	-0.387448	-0.469143
H335	H	1.376341	-0.054114	-0.135809
H336	H	1.709675	0.279219	0.197524
H337	H	1.043166	-0.268480	-0.677748
H338	H	1.376499	0.064854	-0.344415
H339	H	1.709833	0.398187	-0.011082
F340	F	1.238145	-0.953938	-0.274699
F341	F	1.571478	-0.620604	0.058634
F342	F	1.904811	-0.287271	0.391967
H343	H	0.582585	-0.268617	-0.469105
H344	H	0.915918	0.064716	-0.135772
H345	H	1.249252	0.398049	0.197562
H346	H	0.992926	-0.603275	-0.519363
H347	H	1.326260	-0.269942	-0.186030
H348	H	1.659593	0.063391	0.147303
H349	H	1.043059	-0.472570	-0.469170
H350	H	1.376393	-0.139237	-0.135836
H351	H	1.709726	0.194097	0.197497
H352	H	1.275713	-0.743969	-0.237065
H353	H	1.609047	-0.410635	0.096269
H354	H	1.942380	-0.077302	0.429602
F355	F	0.423608	-0.275810	-0.481664
F356	F	0.756941	0.057523	-0.148330
F357	F	1.090275	0.390857	0.185003
H358	H	1.275756	-0.829087	-0.237087
H359	H	1.609089	-0.495754	0.096246
H360	H	1.942422	-0.162421	0.429579
H361	H	0.993037	-0.829139	-0.519383
H362	H	1.326370	-0.495806	-0.186050
H363	H	1.659703	-0.162473	0.147283
