data_functionalizedCrystal
_audit_creation_method	'MofGen! by Chris Wilmer'
_symmetry_space_group_name_H-M	'P1'
_symmetry_Int_Tables_number	1
_symmetry_cell_setting	triclinic
loop_
_symmetry_equiv_pos_as_xyz
  x,y,z
_cell_length_a	19.188930
_cell_length_b	11.792241
_cell_length_c	10.268362
_cell_angle_alpha	90.005428
_cell_angle_beta	90.018465
_cell_angle_gamma	83.669098
loop_
_atom_site_label
_atom_site_type_symbol
_atom_site_fract_x
_atom_site_fract_y
_atom_site_fract_z
O1	O	-0.926947	-0.141694	-0.108720
O2	O	-0.426947	0.358306	0.391280
O3	O	-0.723744	-0.160769	-0.108631
O4	O	-0.223744	0.339231	0.391369
O5	O	-0.830277	0.014013	-0.108668
O6	O	-0.330277	0.514013	0.391332
O7	O	-0.820415	-0.316476	-0.108682
O8	O	-0.320415	0.183524	0.391318
O9	O	-0.830268	0.014020	0.107932
O10	O	-0.330268	0.514020	0.607932
O11	O	-0.723735	-0.160762	0.107970
O12	O	-0.223735	0.339238	0.607970
O13	O	-0.926938	-0.141687	0.107881
O14	O	-0.426938	0.358313	0.607881
Cu15	Cu	-0.825336	-0.151224	0.127703
Cu16	Cu	-0.325336	0.348776	0.627703
Cu17	Cu	-0.825347	-0.151232	-0.128453
Cu18	Cu	-0.325347	0.348768	0.371547
O19	O	-0.820405	-0.316469	0.107919
O20	O	-0.320405	0.183531	0.607919
C21	C	-0.829653	0.056298	-0.000368
C22	C	-0.329653	0.556298	0.499632
C23	C	-0.827799	0.182284	-0.000368
C24	C	-0.327799	0.682284	0.499632
C25	C	-0.697725	-0.160148	-0.000319
C26	C	-0.197725	0.339852	0.499681
C27	C	-0.620210	-0.158293	-0.000285
C28	C	-0.120210	0.341707	0.499715
C29	C	-0.952957	-0.142309	-0.000434
C30	C	-0.452957	0.357691	0.499566
C31	C	-1.030472	-0.144163	-0.000477
C32	C	-0.530472	0.355837	0.499523
C33	C	-0.575867	-0.260849	-0.000309
C34	C	-0.075867	0.239151	0.499691
C35	C	-0.503033	-0.259107	-0.000324
C36	C	-0.003033	0.240893	0.499676
C37	C	-0.474546	-0.154803	-0.000339
C38	C	0.025454	0.345197	0.499661
C39	C	-0.518899	-0.052234	-0.000307
C40	C	-0.018899	0.447766	0.499693
C41	C	-0.591731	-0.053979	-0.000280
C42	C	-0.091731	0.446021	0.499720
N43	N	-0.366117	-0.075079	-0.074107
N44	N	0.133883	0.424921	0.425893
N45	N	-0.296929	-0.073428	-0.074136
N46	N	0.203071	0.426572	0.425864
C47	C	-0.255107	-0.149540	-0.000419
C48	C	0.244893	0.350460	0.499581
N49	N	-0.285086	-0.227382	0.073312
N50	N	0.214914	0.272618	0.573312
N51	N	-0.354280	-0.229036	0.073335
N52	N	0.145720	0.270964	0.573335
C53	C	-0.395573	-0.152900	-0.000368
C54	C	0.104427	0.347100	0.499632
C55	C	-0.131789	-0.250214	-0.000457
C56	C	0.368211	0.249786	0.499543
C57	C	-0.058955	-0.248468	-0.000463
C58	C	0.441045	0.251532	0.499537
C59	C	-0.074822	-0.041591	-0.000460
C60	C	0.425178	0.458409	0.499540
C61	C	-0.147655	-0.043341	-0.000440
C62	C	0.352345	0.456659	0.499560
C63	C	-0.176134	-0.147655	-0.000445
C64	C	0.323866	0.352345	0.499555
C65	C	-0.821029	-0.358754	-0.000385
C66	C	-0.321029	0.141246	0.499615
C67	C	-0.822884	-0.484740	-0.000393
C68	C	-0.322884	0.015260	0.499607
N69	N	-0.825333	-0.151217	0.307869
N70	N	-0.325333	0.348783	0.807869
C71	C	-0.824389	0.412945	-0.000389
C72	C	-0.324389	0.912945	0.499611
C73	C	-0.826283	0.284588	-0.000378
C74	C	-0.326283	0.784588	0.499622
N75	N	-0.825355	-0.151230	-0.308618
N76	N	-0.325355	0.348770	0.191382
C77	C	-0.825343	-0.151230	0.573539
C78	C	-0.325343	0.348770	1.073539
C79	C	-0.825335	-0.151226	0.425701
C80	C	-0.325335	0.348774	0.925701
H81	H	-0.599050	-0.345790	-0.000316
H82	H	-0.099050	0.154210	0.499684
H83	H	-0.154978	-0.335153	-0.000442
H84	H	0.345022	0.164847	0.499558
F85	F	-0.488580	0.058774	-0.000318
F86	F	0.011420	0.558774	0.499682
H87	H	-0.183760	0.040172	-0.000427
H88	H	0.316240	0.540172	0.499573
F89	F	-0.011761	-0.357628	-0.000483
F90	F	0.488239	0.142372	0.499517
F91	F	-0.455831	-0.368266	-0.000346
F92	F	0.044169	0.131734	0.499654
H93	H	-0.627836	0.029537	-0.000260
H94	H	-0.127836	0.529537	0.499740
F95	F	-0.044508	0.069418	-0.000464
F96	F	0.455492	0.569418	0.499536
