data_functionalizedCrystal
_audit_creation_method	'MofGen! by Chris Wilmer'
_symmetry_space_group_name_H-M	'P1'
_symmetry_Int_Tables_number	1
_symmetry_cell_setting	triclinic
loop_
_symmetry_equiv_pos_as_xyz
  x,y,z
_cell_length_a	12.645331
_cell_length_b	12.645330
_cell_length_c	12.645323
_cell_angle_alpha	90.027006
_cell_angle_beta	90.022822
_cell_angle_gamma	90.012860
loop_
_atom_site_label
_atom_site_type_symbol
_atom_site_fract_x
_atom_site_fract_y
_atom_site_fract_z
Zn1	Zn	1.620768	-0.422025	0.599435
Zn2	Zn	1.620666	-0.599313	0.422168
Zn3	Zn	1.443483	-0.422065	0.422179
Zn4	Zn	1.443480	-0.599247	0.599383
O5	O	1.532099	-0.510662	0.510791
O6	O	1.769102	-0.445553	0.575937
O7	O	1.597120	-0.575844	0.273822
O8	O	1.467044	-0.273712	0.445718
O9	O	1.769027	-0.575806	0.445700
O10	O	1.597295	-0.273683	0.575947
O11	O	1.466945	-0.445621	0.273830
O12	O	1.295135	-0.445557	0.445668
O13	O	1.467040	-0.575694	0.747737
O14	O	1.295133	-0.575733	0.575859
O15	O	1.597293	-0.445490	0.747775
O16	O	1.597118	-0.747651	0.445650
O17	O	1.466940	-0.747603	0.575849
C18	C	1.256670	-0.510643	0.510760
C19	C	1.138840	-0.510660	0.510772
C20	C	1.093923	-0.428640	0.429002
C21	C	0.971364	-0.428337	0.429282
C22	C	0.971008	-0.480868	0.622680
C23	C	1.093605	-0.480255	0.622169
C24	C	1.093634	-0.622718	0.481689
C25	C	0.971027	-0.622133	0.479263
C26	C	1.532046	-0.786092	0.510766
C27	C	1.532121	-0.903922	0.510791
C28	C	1.613884	-1.071472	0.428716
C29	C	1.614150	-0.948912	0.428917
C30	C	1.562421	-0.948304	0.622536
C31	C	1.563069	-1.070902	0.622100
C32	C	1.420025	-1.071250	0.482222
C33	C	1.420562	-0.948646	0.479716
C34	C	1.808605	-0.510683	0.510823
C35	C	1.926435	-0.510691	0.510837
C36	C	1.532177	-0.510580	0.787297
C37	C	1.532211	-0.510546	0.905127
C38	C	1.532182	-0.234157	0.510840
C39	C	1.532217	-0.116327	0.510860
C40	C	1.532083	-0.510668	0.235361
C41	C	1.532255	-0.510404	0.117532
C42	C	1.450016	-0.592071	1.072667
C43	C	1.450231	-0.592475	0.950107
C44	C	1.643913	-0.540864	0.949646
C45	C	1.643462	-0.541375	1.072244
C46	C	1.503760	-0.398246	1.072329
C47	C	1.501267	-0.398919	0.949722
H48	H	1.123325	-0.537423	0.685204
N49	N	1.343680	-1.107660	0.557253
N50	N	1.266512	-1.161597	0.527049
H51	H	1.212600	-1.187318	0.580041
H52	H	1.397716	-0.919649	0.397481
H53	H	1.667614	-0.623364	1.100852
N54	N	1.132342	-0.656898	0.381079
N55	N	1.185058	-0.740214	0.374088
H56	H	1.212396	-0.764345	0.303029
H57	H	1.556789	-0.334855	0.919103
H58	H	1.696534	-1.102202	0.447447
N59	N	1.340104	-0.910231	0.549255
N60	N	1.323488	-0.813079	0.556756
H61	H	1.266667	-0.785948	0.605877
H62	H	1.668479	-0.621994	0.918954
N63	N	1.346319	-0.568670	0.912354
N64	N	1.273130	-0.551643	0.976551
H65	H	1.199735	-0.534835	0.949894
N66	N	1.403357	-0.363585	1.111106
N67	N	1.351579	-0.421133	1.172538
H68	H	1.280666	-0.396664	1.199927
N69	N	1.345791	-0.568490	1.109620
N70	N	1.304486	-0.481182	1.088653
H71	H	1.230875	-0.464525	1.114759
H72	H	1.504749	-0.919159	0.685379
N73	N	1.473385	-0.695722	1.111338
N74	N	1.550344	-0.709706	1.171797
H75	H	1.566852	-0.782909	1.199112
N76	N	1.132578	-0.325068	0.452934
N77	N	1.112715	-0.283887	0.540583
H78	H	1.140017	-0.210740	0.557492
H79	H	1.706815	-0.484474	1.101925
N80	N	1.385447	-1.110119	0.381773
N81	N	1.297603	-1.082670	0.345694
H82	H	1.273191	-1.110120	0.274748
N83	N	1.664142	-0.909713	0.653490
N84	N	1.702683	-0.936179	0.740584
H85	H	1.774527	-0.908927	0.762441
H86	H	1.706830	-0.483262	0.920513
H87	H	1.595192	-0.918909	0.346060
N88	N	1.129509	-0.377525	0.653025
N89	N	1.105035	-0.341116	0.741611
H90	H	1.130388	-0.268561	0.763404
H91	H	1.645076	-1.099415	0.646359
N92	N	1.473867	-0.696778	0.913336
N93	N	1.490264	-0.769499	0.978219
H94	H	1.506960	-0.843168	0.952252
N95	N	1.398143	-0.370246	0.913217
N96	N	1.347565	-0.431735	0.854572
H97	H	1.274732	-0.411488	0.828784
H98	H	1.506193	-1.100570	0.685412
N99	N	0.933560	-0.451687	0.325262
N100	N	0.997721	-0.468320	0.251950
H101	H	0.971028	-0.484810	0.178481
N102	N	1.130835	-0.451705	0.324636
N103	N	1.190681	-0.528858	0.309299
H104	H	1.216756	-0.545151	0.235588
N105	N	1.578908	-0.321925	1.108731
N106	N	1.653158	-0.349868	1.167707
H107	H	1.706236	-0.295975	1.193421
N108	N	0.934508	-0.553538	0.701227
N109	N	0.875093	-0.628296	0.675590
H110	H	0.849313	-0.679622	0.731062
N111	N	1.718397	-0.912027	0.452678
N112	N	1.791181	-0.976829	0.469173
H113	H	1.864811	-0.950781	0.485956
H114	H	0.941890	-0.644629	0.396951
H115	H	0.942047	-0.345311	0.448596
H116	H	0.940321	-0.399880	0.647703
H117	H	0.940435	-0.686486	0.534444
H118	H	1.122679	-0.683822	0.541246
H119	H	1.595163	-1.101025	0.345617
