data_functionalizedCrystal
_audit_creation_method	'MofGen! by Chris Wilmer'
_symmetry_space_group_name_H-M	'P1'
_symmetry_Int_Tables_number	1
_symmetry_cell_setting	triclinic
loop_
_symmetry_equiv_pos_as_xyz
  x,y,z
_cell_length_a	15.944551
_cell_length_b	15.944551
_cell_length_c	14.421503
_cell_angle_alpha	89.996660
_cell_angle_beta	90.003141
_cell_angle_gamma	83.498738
loop_
_atom_site_label
_atom_site_type_symbol
_atom_site_fract_x
_atom_site_fract_y
_atom_site_fract_z
O1	O	-1.114529	-0.108320	-0.077017
O2	O	-0.614529	0.391680	0.422983
O3	O	-0.869980	-0.121677	-0.077040
O4	O	-0.369980	0.378323	0.422960
O5	O	-0.998933	0.007276	-0.077020
O6	O	-0.498933	0.507276	0.422980
O7	O	-0.985576	-0.237273	-0.077038
O8	O	-0.485576	0.262727	0.422962
O9	O	-0.998911	0.007257	0.077204
O10	O	-0.498911	0.507257	0.577204
O11	O	-0.869958	-0.121696	0.077183
O12	O	-0.369958	0.378304	0.577183
O13	O	-1.114508	-0.108340	0.077206
O14	O	-0.614508	0.391660	0.577206
Cu15	Cu	-0.992231	-0.115020	0.091277
Cu16	Cu	-0.492231	0.384980	0.591277
Cu17	Cu	-0.992256	-0.114997	-0.091110
Cu18	Cu	-0.492256	0.385003	0.408890
O19	O	-0.985555	-0.237293	0.077186
O20	O	-0.485555	0.262707	0.577186
C21	C	-0.838675	-0.121132	0.000069
C22	C	-0.338675	0.378868	0.500069
C23	C	-0.745429	-0.119470	0.000060
C24	C	-0.245429	0.380530	0.500060
C25	C	-1.145813	-0.108885	0.000096
C26	C	-0.645813	0.391115	0.500096
C27	C	-1.239059	-0.110547	0.000098
C28	C	-0.739059	0.389453	0.500098
C29	C	-0.998367	0.038561	0.000092
C30	C	-0.498367	0.538561	0.500092
C31	C	-0.996705	0.131807	0.000093
C32	C	-0.496705	0.631807	0.500093
C33	C	-0.530572	-0.035565	0.000084
C34	C	-0.030572	0.464435	0.500084
C35	C	-0.469563	-0.074518	-0.075959
C36	C	0.030437	0.425482	0.424041
C37	C	-0.574703	-0.116462	0.000071
C38	C	-0.074703	0.383538	0.500071
C39	C	-0.469564	-0.074556	0.076093
C40	C	0.030436	0.425444	0.576093
C41	C	-0.409790	-0.113551	0.000086
C42	C	0.090210	0.386449	0.500086
C43	C	-0.514922	-0.155437	-0.076035
C44	C	-0.014922	0.344563	0.423965
C45	C	-0.514929	-0.155464	0.076086
C46	C	-0.014929	0.344536	0.576086
C47	C	-0.453937	-0.194476	0.000024
C48	C	0.046063	0.305524	0.500024
C49	C	-0.669705	-0.118137	0.000062
C50	C	-0.169705	0.381863	0.500062
C51	C	-0.314789	-0.111883	0.000089
C52	C	0.185211	0.388117	0.500089
C53	C	-0.986120	-0.268577	0.000072
C54	C	-0.486120	0.231423	0.500072
C55	C	-0.987782	-0.361823	0.000066
C56	C	-0.487782	0.138177	0.500066
N57	N	-0.992219	-0.115035	0.219558
N58	N	-0.492219	0.384965	0.719558
C59	C	-0.912801	0.346663	0.000072
C60	C	-0.412801	0.846663	0.500072
C61	C	-0.951753	0.407671	0.076117
C62	C	-0.451753	0.907671	0.576117
C63	C	-0.993698	0.302533	0.000085
C64	C	-0.493698	0.802533	0.500085
C65	C	-0.951793	0.407674	-0.075935
C66	C	-0.451793	0.907674	0.424065
C67	C	-0.990787	0.467445	0.000074
C68	C	-0.490787	0.967445	0.500074
C69	C	-1.032672	0.362312	0.076193
C70	C	-0.532672	0.862312	0.576193
C71	C	-1.032701	0.362308	-0.075927
C72	C	-0.532701	0.862308	0.424073
C73	C	-1.071711	0.423298	0.000136
C74	C	-0.571711	0.923298	0.500136
C75	C	-0.995372	0.207530	0.000092
C76	C	-0.495372	0.707530	0.500092
C77	C	-0.989119	0.562446	0.000073
C78	C	-0.489119	1.062446	0.500073
N79	N	-0.992275	-0.114975	-0.219392
N80	N	-0.492275	0.385025	0.280608
C81	C	-0.932581	-0.174636	0.469202
C82	C	-0.432581	0.325364	0.969202
C83	C	-1.008481	-0.190943	0.531011
C84	C	-0.508481	0.309057	1.031011
C85	C	-0.992240	-0.115015	0.408719
C86	C	-0.492240	0.384985	0.908719
C87	C	-0.916359	-0.098727	0.531005
C88	C	-0.416359	0.401273	1.031005
C89	C	-0.992253	-0.114997	0.591441
C90	C	-0.492253	0.385003	1.091441
C91	C	-1.068178	-0.131360	0.469167
C92	C	-0.568178	0.368640	0.969167
C93	C	-0.976007	-0.039111	0.469156
C94	C	-0.476007	0.460889	0.969156
C95	C	-1.051961	-0.055386	0.530936
C96	C	-0.551961	0.444614	1.030936
C97	C	-0.992231	-0.115027	0.303458
C98	C	-0.492231	0.384973	0.803458
C99	C	-0.992270	-0.114985	0.696700
C100	C	-0.492270	0.385015	1.196700
H101	H	-0.563905	0.031573	-0.000005
H102	H	-0.063905	0.531573	0.499995
H103	H	-0.845652	0.313356	0.000141
H104	H	-0.345652	0.813356	0.500141
H105	H	-1.132368	-0.145205	0.442119
H106	H	-0.632368	0.354795	0.942119
H107	H	-1.066850	0.342314	0.140554
H108	H	-0.566850	0.842314	0.640554
H109	H	-0.535052	-0.189660	0.140373
H110	H	-0.035052	0.310340	0.640373
H111	H	-0.449469	-0.040333	0.140379
H112	H	0.050531	0.459667	0.640379
H113	H	-1.102474	-0.004956	0.557872
H114	H	-0.602474	0.495044	1.057872
H115	H	-1.066897	0.342186	-0.140214
H116	H	-0.566897	0.842186	0.359786
H117	H	-0.962240	0.025051	0.441965
H118	H	-0.462240	0.525051	0.941965
H119	H	-0.449461	-0.040294	-0.140243
H120	H	0.050539	0.459706	0.359757
H121	H	-0.534918	-0.189620	-0.140394
H122	H	-0.034918	0.310380	0.359606
H123	H	-0.917527	0.427771	0.140401
H124	H	-0.417527	0.927771	0.640401
H125	H	-0.852183	-0.084959	0.558170
H126	H	-0.352183	0.415041	1.058170
H127	H	-1.138919	0.456457	0.000186
H128	H	-0.638919	0.956457	0.500186
H129	H	-0.420779	-0.261683	-0.000023
H130	H	0.079221	0.238317	0.499977
H131	H	-0.882181	-0.225096	0.442096
H132	H	-0.382181	0.274904	0.942096
H133	H	-0.917575	0.427758	-0.140230
H134	H	-0.417575	0.927758	0.359770
H135	H	-1.022224	-0.255126	0.558180
H136	H	-0.522224	0.244874	1.058180
