data_functionalizedCrystal
_audit_creation_method	'MofGen! by Chris Wilmer'
_symmetry_space_group_name_H-M	'P1'
_symmetry_Int_Tables_number	1
_symmetry_cell_setting	triclinic
loop_
_symmetry_equiv_pos_as_xyz
  x,y,z
_cell_length_a	10.654543
_cell_length_b	14.472310
_cell_length_c	15.995292
_cell_angle_alpha	90.002121
_cell_angle_beta	83.975395
_cell_angle_gamma	89.991601
loop_
_atom_site_label
_atom_site_type_symbol
_atom_site_fract_x
_atom_site_fract_y
_atom_site_fract_z
O1	O	-1.666290	0.076734	-0.117573
O2	O	-1.300660	0.076757	-0.128784
O3	O	-1.493508	0.076747	-0.001346
O4	O	-1.473442	0.076745	-0.245011
O5	O	-1.493458	-0.076935	-0.001353
O6	O	-1.300611	-0.076925	-0.128791
O7	O	-1.666240	-0.076948	-0.117580
Cu8	Cu	-1.483421	-0.090968	-0.123186
Cu9	Cu	-1.483480	0.090778	-0.123178
O10	O	-1.473393	-0.076937	-0.245019
C11	C	-1.253848	-0.000081	-0.127965
C12	C	-1.114438	-0.000072	-0.125506
C13	C	-1.033948	-0.000073	-0.200539
C14	C	-0.902958	-0.000087	-0.198224
C15	C	-0.932960	-0.000093	-0.045835
C16	C	-1.063947	-0.000086	-0.048152
N17	N	-1.483389	-0.218799	-0.123192
C18	C	-1.483478	-0.592891	-0.123174
C19	C	-1.379943	-0.553719	-0.191131
C20	C	-1.380182	-0.446631	-0.191383
C21	C	-1.483433	-0.407300	-0.123183
C22	C	-1.614460	-0.446145	-0.143024
C23	C	-1.613878	-0.553267	-0.143508
C24	C	-1.457154	-0.553417	-0.035180
C25	C	-1.454149	-0.446290	-0.035748
C26	C	-1.483415	-0.302411	-0.123186
C27	C	-1.483504	-0.697779	-0.123173
C28	C	-0.713051	-0.000103	-0.118403
C29	C	-0.852460	-0.000092	-0.120874
C30	C	-1.492666	-0.000092	0.029851
C31	C	-1.490218	-0.000085	0.122818
N32	N	-1.483522	0.218609	-0.123166
C33	C	-1.474234	-0.000096	-0.276215
C34	C	-1.476682	-0.000097	-0.369182
C35	C	-1.481217	-0.000093	0.460609
C36	C	-1.620409	-0.000445	0.436490
C37	C	-1.623055	-0.000095	0.339800
C38	C	-1.485683	-0.000089	0.293027
C39	C	-1.416122	0.087672	0.322535
C40	C	-1.414447	0.087742	0.419335
C41	C	-1.411548	-0.087023	0.419201
C42	C	-1.416706	-0.088179	0.322678
C43	C	-1.488200	-0.000084	0.198316
C44	C	-1.478696	-0.000092	0.555319
H45	H	-1.129486	-0.000087	0.012953
C46	C	-1.721032	-0.411723	-0.077981
N47	N	-1.801301	-0.385795	-0.028990
C48	C	-1.692870	-0.085468	0.473895
N49	N	-1.747448	-0.149510	0.502074
H50	H	-1.462663	0.153341	0.445876
H51	H	-1.677897	0.062919	0.321080
H52	H	-0.837428	-0.000090	-0.259323
C53	C	-0.877407	-0.000101	0.039250
N54	N	-0.835566	-0.000103	0.103339
H55	H	-1.316436	-0.093475	0.290289
C56	C	-1.273141	-0.087825	0.438916
N57	N	-1.168899	-0.088426	0.453774
H58	H	-1.396989	-0.420999	-0.256666
H59	H	-1.455361	-0.153545	0.447032
H60	H	-1.312391	0.091723	0.434477
C61	C	-1.248597	-0.411149	-0.175276
N62	N	-1.149480	-0.384429	-0.163150
C63	C	-1.247939	-0.588570	-0.175277
N64	N	-1.148511	-0.614832	-0.163337
C65	C	-1.481442	0.175901	0.295070
N66	N	-1.530650	0.242353	0.274387
C67	C	-1.089482	-0.000069	-0.285631
N68	N	-1.131307	-0.000070	-0.349725
C69	C	-1.402332	-0.590073	-0.278830
N70	N	-1.419199	-0.617456	-0.344885
C71	C	-1.645197	-0.587013	-0.230241
N72	N	-1.668777	-0.612426	-0.295572
H73	H	-1.693326	-0.579177	-0.096004
H74	H	-1.315036	0.090939	0.291253
C75	C	-1.485102	-0.175893	0.297168
N76	N	-1.536611	-0.241958	0.277939
H77	H	-1.638216	-0.419310	-0.206494
C78	C	-1.330853	-0.589942	-0.009678
N79	N	-1.235716	-0.617452	0.009521
H80	H	-1.357764	-0.420901	-0.020709
H81	H	-1.524663	-0.419519	0.017250
C82	C	-1.696656	-0.085084	0.313665
N83	N	-1.752100	-0.149098	0.293985
C84	C	-1.692516	0.084097	0.475275
N85	N	-1.746824	0.147775	0.504488
C86	C	-1.559149	-0.587644	0.033153
N87	N	-1.635973	-0.613430	0.084615
