data_functionalizedCrystal
_audit_creation_method	'MofGen! by Chris Wilmer'
_symmetry_space_group_name_H-M	'P1'
_symmetry_Int_Tables_number	1
_symmetry_cell_setting	triclinic
loop_
_symmetry_equiv_pos_as_xyz
  x,y,z
_cell_length_a	14.560432
_cell_length_b	14.628931
_cell_length_c	14.628931
_cell_angle_alpha	89.999882
_cell_angle_beta	59.999426
_cell_angle_gamma	60.001112
loop_
_atom_site_label
_atom_site_type_symbol
_atom_site_fract_x
_atom_site_fract_y
_atom_site_fract_z
Zr1	Zr	1.005275	-0.119939	0.880615
O2	O	1.196876	-0.265895	0.734654
O3	O	0.813674	-0.075199	0.925361
O4	O	1.005276	-0.265900	0.925360
O5	O	1.005275	0.075238	0.734655
O6	O	1.005276	-0.265901	1.075792
O7	O	1.005275	-0.075194	0.734654
O8	O	0.662536	0.075229	1.075793
O9	O	1.348014	-0.265892	0.734653
O10	O	0.892483	-0.056114	1.056709
O11	O	0.892482	0.056152	0.944444
O12	O	1.118068	-0.168374	0.944443
O13	O	1.118068	-0.056108	0.832177
Zr14	Zr	1.005275	0.119982	1.120537
Zr15	Zr	1.005275	-0.119940	1.120537
Zr16	Zr	1.005275	0.119983	0.880616
Zr17	Zr	1.246323	-0.119934	0.880615
Zr18	Zr	0.764227	0.119977	1.120538
O19	O	1.196875	0.075242	1.075792
O20	O	1.196876	-0.265896	1.075791
O21	O	1.196875	0.075243	0.734654
O22	O	0.813673	0.265938	1.266499
O23	O	0.813674	-0.075200	1.266498
O24	O	0.813673	0.265939	0.925361
O25	O	1.005275	-0.075195	1.266498
O26	O	1.005274	0.265943	1.075792
O27	O	1.005274	0.265944	0.925361
O28	O	1.005275	0.075237	1.266498
O29	O	1.348014	-0.265892	0.925359
O30	O	0.662535	0.265935	1.075793
O31	O	0.662535	0.265935	1.266499
O32	O	0.662536	0.075229	1.266499
O33	O	1.348014	-0.075186	0.734654
O34	O	1.348014	-0.075186	0.925359
O35	O	0.892482	0.168417	1.056709
O36	O	0.892482	0.056151	1.168975
O37	O	1.118068	-0.056109	1.056709
O38	O	1.118067	0.056157	0.944443
C39	C	0.703761	0.000014	1.000577
C40	C	0.601430	0.000012	1.000577
C41	C	1.005275	0.000022	0.700471
C42	C	1.005275	0.000022	0.598618
C43	C	1.005274	0.300127	1.000577
C44	C	1.005274	0.401980	1.000577
C45	C	0.601424	-0.117206	1.117772
C46	C	0.553350	-0.175816	1.176365
C47	C	0.457201	-0.175814	1.176361
C48	C	0.409121	-0.117192	1.117763
C49	C	0.457195	-0.058582	1.059170
C50	C	0.553349	-0.058593	1.059177
C51	C	0.457194	0.058641	0.941983
C52	C	0.553350	0.058634	0.941978
C53	C	0.409114	0.117263	0.883384
C54	C	0.457195	0.175869	0.824784
C55	C	0.553351	0.175863	0.824789
C56	C	0.601424	0.117244	0.883386
C57	C	1.306789	0.000029	1.000575
C58	C	1.409120	0.000031	1.000575
C59	C	1.005276	-0.300084	1.000576
C60	C	1.005276	-0.401937	1.000576
C61	C	1.117179	0.391701	0.944885
C62	C	1.117182	0.496970	0.944884
C63	C	1.005275	-0.078737	0.553209
C64	C	1.005275	-0.078739	0.447938
C65	C	1.005275	0.000021	1.300681
C66	C	1.005275	0.000021	1.402534
C67	C	0.703761	0.000014	1.300682
C68	C	0.601430	0.000011	1.402535
C69	C	0.703760	0.300120	1.000577
C70	C	0.601429	0.401971	1.000578
C71	C	0.703760	0.300120	1.300683
C72	C	0.601429	0.401970	1.402536
C73	C	1.306790	-0.300076	0.700470
C74	C	1.409121	-0.401927	0.598616
C75	C	1.306789	0.000029	0.700470
C76	C	1.409120	0.000032	0.598617
C77	C	1.306790	-0.300077	1.000575
C78	C	1.409121	-0.401928	1.000575
C79	C	0.555808	-0.055681	1.392253
C80	C	0.450043	-0.055685	1.497523
C81	C	0.555806	0.503070	1.056269
C82	C	0.450041	0.608340	1.056271
C83	C	0.555807	0.391687	1.503637
C84	C	0.450042	0.496953	1.608909
H85	H	0.679726	-0.117226	1.117769
F86	F	0.398757	0.485668	1.722271
F87	F	0.455690	0.609341	1.485263
H88	H	0.410805	-0.103362	1.488894
H89	H	0.443646	0.047696	1.607255
F90	F	0.607100	0.514346	1.118583
H91	H	0.410806	0.695069	1.103952
H92	H	0.443647	0.511326	0.952904
F93	F	0.880045	0.515346	1.062892
H94	H	0.562192	0.393350	0.952895
F95	F	0.550149	0.515338	1.391262
F96	F	1.005265	0.088163	0.547576
H97	H	0.592502	-0.223543	1.224078
F98	F	0.880040	0.609352	1.062908
F99	F	1.242408	0.278335	0.882553
F100	F	0.550150	0.062325	1.515904
H101	H	0.595051	0.304952	1.512260
F102	F	0.607100	-0.118007	1.278884
F103	F	0.406024	-0.238182	1.238733
H104	H	0.330819	-0.117184	1.117777
H105	H	1.212988	0.488344	0.897208
F106	F	1.005285	-0.166881	0.396894
F107	F	0.306777	0.117272	0.883387
H108	H	1.005268	-0.146163	0.592268
H109	H	0.418035	0.223599	0.777083
H110	H	0.592486	0.223592	0.777077
H111	H	0.679720	0.117229	0.883390
H112	H	1.005282	0.067450	0.441575
