data_functionalizedCrystal
_audit_creation_method	'MofGen! by Chris Wilmer'
_symmetry_space_group_name_H-M	'P1'
_symmetry_Int_Tables_number	1
_symmetry_cell_setting	triclinic
loop_
_symmetry_equiv_pos_as_xyz
  x,y,z
_cell_length_a	13.339070
_cell_length_b	13.185407
_cell_length_c	16.176319
_cell_angle_alpha	89.992669
_cell_angle_beta	89.992973
_cell_angle_gamma	83.801389
loop_
_atom_site_label
_atom_site_type_symbol
_atom_site_fract_x
_atom_site_fract_y
_atom_site_fract_z
O1	O	1.204772	0.505102	-0.068766
O2	O	1.704772	1.005102	0.431234
O3	O	0.928294	0.438805	-0.068763
O4	O	1.428294	0.938805	0.431237
O5	O	1.113902	0.327538	-0.068762
O6	O	1.613902	0.827538	0.431238
O7	O	1.019164	0.616370	-0.068767
O8	O	1.519164	1.116370	0.431233
O9	O	1.113885	0.327522	0.068731
O10	O	1.613885	0.827522	0.568731
O11	O	0.928277	0.438789	0.068731
O12	O	1.428277	0.938789	0.568731
O13	O	1.204755	0.505086	0.068727
O14	O	1.704755	1.005086	0.568727
Cu15	Cu	1.066514	0.471936	0.081283
Cu16	Cu	1.566514	0.971936	0.581283
Cu17	Cu	1.066534	0.471955	-0.081319
Cu18	Cu	1.566534	0.971955	0.418681
O19	O	1.019147	0.616354	0.068727
O20	O	1.519147	1.116354	0.568727
C21	C	0.893645	0.427598	-0.000016
C22	C	1.393645	0.927598	0.499984
C23	C	0.790432	0.394217	-0.000014
C24	C	1.290432	0.894217	0.499986
C25	C	0.354974	0.653772	-0.000031
C26	C	0.854974	1.153772	0.499969
C27	C	0.451948	0.685138	-0.000035
C28	C	0.951948	1.185138	0.499965
C29	C	0.536573	0.612411	-0.000030
C30	C	1.036573	1.112411	0.499970
C31	C	0.524216	0.508311	-0.000021
C32	C	1.024216	1.008311	0.499979
C33	C	0.427234	0.476941	-0.000024
C34	C	0.927234	0.976941	0.499976
C35	C	0.608832	0.435580	-0.000022
C36	C	1.108832	0.935580	0.499978
C37	C	0.596476	0.331481	-0.000013
C38	C	1.096476	0.831481	0.499987
C39	C	0.499502	0.300116	-0.000015
C40	C	0.999502	0.800116	0.499985
C41	C	0.414877	0.372844	-0.000021
C42	C	0.914877	0.872844	0.499979
C43	C	0.705815	0.466950	-0.000019
C44	C	1.205815	0.966950	0.499981
C45	C	0.778074	0.290120	-0.000011
C46	C	1.278074	0.790120	0.499989
C47	C	0.681101	0.258753	-0.000007
C48	C	1.181101	0.758753	0.499993
C49	C	1.123497	0.289807	-0.000017
C50	C	1.623497	0.789807	0.499983
C51	C	1.152104	0.177402	-0.000020
C52	C	1.652104	0.677402	0.499980
C53	C	0.879090	-0.194460	-0.000024
C54	C	1.379090	0.305540	0.499976
C55	C	0.852210	-0.088850	-0.000029
C56	C	1.352210	0.411150	0.499971
C57	C	0.927181	-0.022282	-0.000027
C58	C	1.427181	0.477718	0.499973
C59	C	1.029037	-0.061333	-0.000019
C60	C	1.529037	0.438667	0.499981
C61	C	1.055921	-0.166953	-0.000021
C62	C	1.555921	0.333047	0.499979
C63	C	1.104011	0.005225	-0.000023
C64	C	1.604011	0.505225	0.499977
C65	C	1.205868	-0.033826	-0.000016
C66	C	1.705868	0.466174	0.499984
C67	C	1.232746	-0.139436	-0.000017
C68	C	1.732746	0.360564	0.499983
C69	C	1.157775	-0.206004	-0.000020
C70	C	1.657775	0.293996	0.499980
C71	C	1.077128	0.110844	-0.000022
C72	C	1.577128	0.610844	0.499978
C73	C	1.253958	0.138351	-0.000019
C74	C	1.753958	0.638351	0.499981
C75	C	1.280839	0.032742	-0.000014
C76	C	1.780839	0.532742	0.499986
C77	C	1.239403	0.516293	-0.000022
C78	C	1.739403	1.016293	0.499978
C79	C	1.342617	0.549674	-0.000029
C80	C	1.842617	1.049674	0.499971
C81	C	1.009551	0.654084	-0.000021
C82	C	1.509551	1.154084	0.499979
C83	C	0.980945	0.766489	-0.000023
C84	C	1.480945	1.266489	0.499977
N85	N	1.066507	0.471925	0.195648
N86	N	1.566507	0.971925	0.695648
N87	N	1.066551	0.471961	-0.195684
N88	N	1.566551	0.971961	0.304316
C89	C	1.148706	0.422689	0.238913
C90	C	1.648706	0.922689	0.738913
C91	C	1.148711	0.422690	0.325460
C92	C	1.648711	0.922690	0.825460
C93	C	1.066519	0.471932	0.368741
C94	C	1.566519	0.971932	0.868741
C95	C	0.984313	0.521169	0.325470
C96	C	1.484313	1.021169	0.825470
C97	C	0.984306	0.521162	0.238925
C98	C	1.484306	1.021162	0.738925
C99	C	0.984340	0.521197	0.674499
C100	C	1.484340	1.021197	1.174499
C101	C	0.984355	0.521203	0.761050
C102	C	1.484355	1.021203	1.261050
C103	C	1.148745	0.422725	0.761034
C104	C	1.648745	0.922725	1.261034
C105	C	1.148737	0.422718	0.674488
C106	C	1.648737	0.922718	1.174488
C107	C	1.066530	0.471950	0.631225
C108	C	1.566530	0.971950	1.131225
C109	C	1.066524	0.471947	0.537381
C110	C	1.566524	0.971947	1.037381
C111	C	1.066527	0.471941	0.462583
C112	C	1.566527	0.971941	0.962583
H113	H	0.671026	0.173993	-0.000007
H114	H	1.171026	0.673993	0.499993
H115	H	0.846979	0.230898	-0.000010
H116	H	1.346979	0.730898	0.499990
O117	O	0.310282	0.339007	-0.000013
O118	O	0.810282	0.839007	0.499987
H119	H	0.253518	0.407070	-0.000017
H120	H	0.753518	0.907070	0.499983
H121	H	0.489447	0.215352	-0.000017
H122	H	0.989447	0.715352	0.499983
H123	H	0.905289	0.063709	-0.000030
H124	H	1.405289	0.563709	0.499970
H125	H	0.715865	0.551708	-0.000023
H126	H	1.215865	1.051708	0.499977
O127	O	0.895679	0.574308	0.627847
O128	O	1.395679	1.074308	1.127847
H129	H	0.909471	0.566027	0.560395
H130	H	1.409471	1.066027	1.060395
H131	H	1.315684	-0.171227	-0.000019
H132	H	1.815684	0.328773	0.499981
O133	O	0.967275	0.152956	-0.000015
O134	O	1.467275	0.652956	0.499985
H135	H	0.930041	0.126090	-0.056050
H136	H	1.430041	0.626090	0.443950
H137	H	0.286067	0.712975	-0.000043
H138	H	0.786067	1.212975	0.499957
O139	O	0.895653	0.574258	0.192247
O140	O	1.395653	1.074258	0.692247
H141	H	0.886169	0.656417	0.208831
H142	H	1.386169	1.156417	0.708831
O143	O	1.334835	0.210132	-0.000018
O144	O	1.834835	0.710132	0.499982
H145	H	1.326820	0.258893	0.056026
H146	H	1.826820	0.758893	0.556026
H147	H	0.615531	0.637956	-0.000035
H148	H	1.115531	1.137956	0.499965
H149	H	0.769278	-0.057063	-0.000037
H150	H	1.269278	0.442937	0.499963
O151	O	0.798235	-0.266252	-0.000021
O152	O	1.298235	0.233748	0.499979
H153	H	0.834043	-0.346251	-0.000014
H154	H	1.334043	0.153749	0.499986
O155	O	1.186774	-0.319915	-0.000009
O156	O	1.686774	0.180085	0.499991
H157	H	1.117528	-0.359638	-0.000010
H158	H	1.617528	0.140362	0.499990
H159	H	1.363772	0.000931	-0.000008
H160	H	1.863772	0.500931	0.499992
H161	H	1.215638	0.382596	0.203679
H162	H	1.715638	0.882596	0.703679
O163	O	1.237379	0.369609	0.372127
O164	O	1.737379	0.869609	0.872127
H165	H	1.294539	0.335386	0.327491
H166	H	1.794539	0.835386	0.827491
H167	H	1.215667	0.382625	0.639251
H168	H	1.715667	0.882625	1.139251
O169	O	0.465268	0.797411	-0.000027
O170	O	0.965268	1.297411	0.499973
H171	H	0.429329	0.833799	-0.056062
H172	H	0.929329	1.333799	0.443938
H173	H	1.215681	0.382634	0.796267
H174	H	1.715681	0.882634	1.296267
H175	H	0.917421	0.561303	0.796288
H176	H	1.417421	1.061303	1.296288
O177	O	0.895663	0.574288	0.372146
O178	O	1.395663	1.074288	0.872146
H179	H	0.909481	0.566034	0.439595
H180	H	1.409481	1.066034	0.939595
