data_functionalizedCrystal
_audit_creation_method	'MofGen! by Chris Wilmer'
_symmetry_space_group_name_H-M	'P1'
_symmetry_Int_Tables_number	1
_symmetry_cell_setting	triclinic
loop_
_symmetry_equiv_pos_as_xyz
  x,y,z
_cell_length_a	10.654546
_cell_length_b	14.586319
_cell_length_c	10.654550
_cell_angle_alpha	89.997374
_cell_angle_beta	95.515807
_cell_angle_gamma	90.004431
loop_
_atom_site_label
_atom_site_type_symbol
_atom_site_fract_x
_atom_site_fract_y
_atom_site_fract_z
O1	O	1.667842	0.076258	-0.176376
O2	O	1.302363	0.076255	-0.193187
O3	O	1.493506	0.076253	-0.002042
O4	O	1.476699	0.076260	-0.367521
O5	O	1.493492	-0.076228	-0.002039
O6	O	1.302350	-0.076226	-0.193184
O7	O	1.667829	-0.076223	-0.176373
Cu8	Cu	1.485088	-0.090147	-0.184778
Cu9	Cu	1.485104	0.090179	-0.184782
O10	O	1.476686	-0.076221	-0.367518
C11	C	1.255558	0.000014	-0.191952
C12	C	1.116115	0.000013	-0.188262
N13	N	1.485086	-0.216979	-0.184775
C14	C	1.050627	0.083135	-0.186517
C15	C	0.919607	0.083142	-0.183040
C16	C	0.919573	-0.083101	-0.183047
C17	C	1.050590	-0.083107	-0.186533
C18	C	1.050646	0.179114	-0.186508
C19	C	0.919626	0.179121	-0.183031
C20	C	1.569752	-0.451986	-0.100165
C21	C	1.569756	-0.547967	-0.100162
C22	C	1.400440	-0.547975	-0.269389
C23	C	1.400431	-0.451995	-0.269385
C24	C	1.485095	-0.404003	-0.184775
C25	C	1.485107	-0.595964	-0.184776
C26	C	1.485110	-0.700031	-0.184773
C27	C	1.485090	-0.299930	-0.184775
C28	C	1.714633	0.000020	-0.177608
C29	C	1.854077	0.000027	-0.181298
N30	N	1.485116	0.217011	-0.184775
C31	C	1.492265	0.000014	0.044757
C32	C	1.488573	0.000017	0.184200
C33	C	1.477927	0.000020	-0.414317
C34	C	1.481619	0.000023	-0.553761
C35	C	1.601115	0.000015	0.263687
C36	C	1.597638	0.000022	0.394708
C37	C	1.369068	0.000028	0.366742
C38	C	1.372546	0.000028	0.235724
C39	C	1.733078	0.000008	0.279835
C40	C	1.729601	0.000014	0.410855
H41	H	1.103903	-0.150793	-0.187968
Cl42	Cl	1.676184	-0.608286	0.006211
H43	H	1.331511	-0.587060	-0.338279
Cl44	Cl	1.293990	-0.391669	-0.375754
H45	H	1.784699	0.063816	0.250476
Cl46	Cl	1.806352	-0.098503	0.475342
H47	H	1.075469	0.215967	-0.275187
H48	H	1.280904	0.000042	0.171009
H49	H	1.638689	-0.412913	-0.031269
H50	H	1.769488	0.065851	0.456498
Cl51	Cl	1.223214	0.000044	0.431524
H52	H	1.775094	-0.065830	0.244210
H53	H	1.102371	0.208887	-0.097067
Cl54	Cl	0.837190	-0.187589	-0.180874
Cl55	Cl	0.839780	0.225118	-0.321114
H56	H	0.894814	0.215970	-0.094349
