data_functionalizedCrystal
_audit_creation_method	'MofGen! by Chris Wilmer'
_symmetry_space_group_name_H-M	'P1'
_symmetry_Int_Tables_number	1
_symmetry_cell_setting	triclinic
loop_
_symmetry_equiv_pos_as_xyz
  x,y,z
_cell_length_a	13.635800
_cell_length_b	11.102308
_cell_length_c	17.982968
_cell_angle_alpha	85.767346
_cell_angle_beta	77.548040
_cell_angle_gamma	108.606174
loop_
_atom_site_label
_atom_site_type_symbol
_atom_site_fract_x
_atom_site_fract_y
_atom_site_fract_z
V1	V	-2.020687	-0.177030	0.237548
O2	O	-2.000870	0.007282	0.233027
O3	O	-2.009317	-0.349842	0.235923
O4	O	-1.993779	-0.174844	0.341151
O5	O	-2.016516	-0.168927	0.127070
V6	V	-2.261190	-0.154920	0.224334
O7	O	-2.154078	-0.225528	0.266534
O8	O	-2.352898	-0.106422	0.195348
O9	O	-2.160957	0.017892	0.225959
O10	O	-2.339705	-0.339232	0.228856
O11	O	-2.324060	-0.163023	0.334812
O12	O	-2.176495	-0.157106	0.120731
C13	C	-1.935026	-0.391953	0.232176
C14	C	-1.966355	-0.533233	0.231537
V15	V	-1.520687	-0.177030	0.237548
O16	O	-1.500870	0.007282	0.233027
O17	O	-1.509317	-0.349842	0.235923
O18	O	-1.493779	-0.174844	0.341151
O19	O	-1.516516	-0.168927	0.127070
V20	V	-1.761190	-0.154920	0.224334
O21	O	-1.654078	-0.225528	0.266534
O22	O	-1.852898	-0.106422	0.195348
O23	O	-1.660957	0.017892	0.225959
O24	O	-1.839705	-0.339232	0.228856
O25	O	-1.824060	-0.163023	0.334812
O26	O	-1.676495	-0.157106	0.120731
C27	C	-2.149252	-0.546236	0.239133
C28	C	-2.255414	-0.619109	0.242628
C29	C	-2.284844	-0.751853	0.242029
C30	C	-2.208104	-0.811727	0.237937
C31	C	-2.101942	-0.738854	0.234442
C32	C	-2.072520	-0.606107	0.235038
C33	C	-1.919048	-0.725853	0.226852
C34	C	-1.889614	-0.593107	0.227445
C35	C	-1.842308	-0.785727	0.222760
C36	C	-1.736142	-0.712852	0.219259
C37	C	-1.706714	-0.580100	0.219857
C38	C	-1.783452	-0.520234	0.223950
C39	C	-1.915205	-0.168724	0.366403
C40	C	-1.933931	-0.168081	0.451100
C41	C	-2.066920	0.059996	0.229705
C42	C	-2.025210	0.201275	0.230348
C43	C	-2.086740	-0.163230	0.095475
C44	C	-2.057633	-0.163867	0.010778
C45	C	-1.435026	-0.391953	0.232176
C46	C	-1.466355	-0.533233	0.231537
C47	C	-1.415205	-0.168724	0.366403
C48	C	-1.433931	-0.168081	0.451100
C49	C	-2.034161	-0.174147	0.494771
C50	C	-2.051750	-0.173542	0.574352
C51	C	-1.969109	-0.166879	0.610260
C52	C	-1.868870	-0.160808	0.566582
C53	C	-1.851280	-0.161405	0.487002
C54	C	-1.939805	-0.158402	0.887519
C55	C	-1.957404	-0.157810	0.967106
C56	C	-2.140275	-0.170539	0.974869
C57	C	-2.122685	-0.171135	0.895289
C58	C	-2.022446	-0.165058	0.851617
C59	C	-2.003375	-0.165712	0.765327
C60	C	-1.988182	-0.166234	0.696550
C61	C	-1.566920	0.059996	0.229705
C62	C	-1.525210	0.201275	0.230348
C63	C	-1.586740	-0.163230	0.095475
C64	C	-1.557633	-0.163867	0.010778
C65	C	-1.534165	-0.174135	0.494757
C66	C	-1.551770	-0.173513	0.574337
C67	C	-1.469142	-0.166847	0.610259
C68	C	-1.368898	-0.160789	0.566595
C69	C	-1.351292	-0.161401	0.487016
C70	C	-1.458030	-0.170518	-0.025124
C71	C	-1.430662	-0.171102	-0.104707
C72	C	-1.502902	-0.165043	-0.148385
C73	C	-1.602513	-0.158387	-0.112478
C74	C	-1.629876	-0.157794	-0.032898
C75	C	-1.426782	-0.496256	0.091991
C76	C	-1.421713	-0.544140	0.021920
C77	C	-1.451152	-0.676885	0.021325
C78	C	-1.485667	-0.761752	0.090807
C79	C	-1.490737	-0.713868	0.160878
C80	C	-1.461292	-0.581117	0.161466
C81	C	-1.530316	-0.750845	0.300423
C82	C	-1.500870	-0.618099	0.301020
C83	C	-1.564831	-0.835711	0.369906
C84	C	-1.569894	-0.787827	0.439978
C85	C	-1.540451	-0.655072	0.440570
C86	C	-1.505940	-0.570215	0.371091
H87	H	-2.125295	-0.438146	0.239610
Cl88	Cl	-1.677799	-0.181140	0.629213
H89	H	-1.301628	-0.155363	0.595855
Cl90	Cl	-1.755107	-0.149452	0.012228
H91	H	-1.349550	-0.176521	-0.133930
Cl92	Cl	-1.693322	-0.150786	-0.167398
H93	H	-2.317892	-0.570345	0.245962
Cl94	Cl	-1.573250	-0.488501	0.215469
Cl95	Cl	-1.879307	-0.952607	0.222012
H96	H	-1.399195	-0.175452	0.010429
Cl97	Cl	-1.613292	-0.894519	0.527318
H98	H	-2.371290	-0.811187	0.244879
Cl99	Cl	-1.725268	-0.153766	0.432099
Cl100	Cl	-1.468487	-0.165795	-0.248429
Cl101	Cl	-1.638058	-0.182513	0.449616
Cl102	Cl	-1.225277	-0.153808	0.432143
H103	H	-1.759499	-0.412146	0.224432
H104	H	-1.402780	-0.388163	0.092467
Cl105	Cl	-1.378360	-0.437449	-0.065423
H106	H	-1.890101	-0.152381	0.996339
Cl107	Cl	-1.444785	-0.737087	-0.066764
Cl108	Cl	-1.522697	-0.928634	0.090057
Cl109	Cl	-1.764978	-0.152434	0.611724
Cl110	Cl	-1.601849	-1.002593	0.369158
Cl111	Cl	-1.546837	-0.594889	0.528665
H112	H	-2.133364	-0.178474	0.609906
Cl113	Cl	-2.245109	-0.978610	0.237198
Cl114	Cl	-1.468920	-0.403331	0.371829
H115	H	-1.673671	-0.761614	0.215932
H116	H	-2.101461	-0.179581	0.465542
H117	H	-2.189983	-0.176567	0.866057
H118	H	-2.221895	-0.175482	1.010436
H119	H	-1.483492	-0.166351	0.675058
Cl120	Cl	-1.813801	-0.150797	0.832631
