data_functionalizedCrystal
_audit_creation_method	'MofGen! by Chris Wilmer'
_symmetry_space_group_name_H-M	'P1'
_symmetry_Int_Tables_number	1
_symmetry_cell_setting	triclinic
loop_
_symmetry_equiv_pos_as_xyz
  x,y,z
_cell_length_a	6.817900
_cell_length_b	11.102183
_cell_length_c	10.943624
_cell_angle_alpha	91.861827
_cell_angle_beta	108.838799
_cell_angle_gamma	108.603876
loop_
_atom_site_label
_atom_site_type_symbol
_atom_site_fract_x
_atom_site_fract_y
_atom_site_fract_z
V1	V	-4.114272	-0.175805	-0.402549
O2	O	-4.073263	0.008482	-0.394888
O3	O	-4.091019	-0.348625	-0.399794
O4	O	-4.092253	-0.173086	-0.578115
O5	O	-4.072021	-0.168272	-0.215332
V6	V	-4.591222	-0.153764	-0.380157
O7	O	-4.389946	-0.224154	-0.451668
O8	O	-4.765745	-0.105415	-0.331037
O9	O	-4.391268	0.019056	-0.382912
O10	O	-4.749628	-0.338052	-0.387817
O11	O	-4.750870	-0.161297	-0.567373
O12	O	-4.390034	-0.156483	-0.204590
C13	C	-3.941284	-0.390755	-0.393443
C14	C	-4.003735	-0.532038	-0.392360
C15	C	-3.942856	-0.166836	-0.620908
C16	C	-4.006304	-0.165756	-0.764435
C17	C	-3.881762	-0.495780	-0.155883
C18	C	-3.850113	-0.544025	-0.037141
C19	C	-3.908799	-0.676773	-0.036131
C20	C	-3.999149	-0.761281	-0.153876
C21	C	-4.030799	-0.713036	-0.272618
C22	C	-3.972098	-0.580283	-0.273615
C23	C	-4.152784	-0.749294	-0.509093
C24	C	-4.094085	-0.616546	-0.510105
C25	C	-4.243134	-0.833803	-0.626838
C26	C	-4.274771	-0.785557	-0.745582
C27	C	-4.216076	-0.652800	-0.746588
C28	C	-4.125735	-0.568301	-0.628847
C29	C	-3.851184	-0.158485	-0.841582
C30	C	-4.039791	-0.266416	-0.947571
C31	C	-3.930775	-0.055914	-0.914187
C32	C	-4.194121	-0.273788	-0.868547
C33	C	-4.085025	-0.063191	-0.835139
C34	C	-4.273769	-0.171152	-0.941098
C35	C	-4.204346	0.061179	-0.389259
C36	C	-4.121135	0.202461	-0.390350
C37	C	-4.202773	-0.162737	-0.161790
C38	C	-4.118563	-0.163811	-0.018263
H39	H	-3.776550	-0.475205	0.058724
O40	O	-4.487696	-0.177630	-0.992496
C41	C	-4.577397	-0.184171	-0.892427
H42	H	-4.479723	-0.223026	-0.807714
H43	H	-4.567429	-0.083976	-0.856911
C44	C	-4.940755	-0.226458	-1.049573
C45	C	-4.820800	-0.274189	-0.945531
H46	H	-5.090900	-0.281980	-1.082330
H47	H	-4.880322	-0.222046	-1.116991
H48	H	-4.932424	-0.142962	-1.019961
H49	H	-4.829109	-0.357676	-0.975147
H50	H	-4.881241	-0.278617	-0.878119
H51	H	-4.103401	0.022729	-0.786157
H52	H	-4.304862	-0.365969	-0.848001
O53	O	-4.362888	-0.867607	-0.859993
C54	C	-4.560483	-0.852312	-0.938297
H55	H	-4.630873	-0.809491	-0.873664
H56	H	-4.524905	-0.785182	-1.011230
C57	C	-4.642848	-1.036726	-1.092000
C58	C	-4.729312	-0.984142	-1.012616
H59	H	-4.746988	-1.118043	-1.137849
H60	H	-4.509721	-1.047028	-1.039249
H61	H	-4.613202	-0.980772	-1.152767
H62	H	-4.758930	-1.040088	-0.951841
H63	H	-4.862449	-0.973852	-1.065359
H64	H	-3.833911	-0.387686	-0.156692
H65	H	-3.883032	-0.716053	0.060559
H66	H	-4.021332	-0.352331	-0.996519
H67	H	-4.241881	-0.613530	-0.843283
H68	H	-4.046954	-0.869371	-0.153044
H69	H	-4.290929	-0.941892	-0.626007
H70	H	-4.077906	-0.460207	-0.629653
H71	H	-3.820067	0.036144	-0.934950
H72	H	-3.672020	-0.153273	-0.798134
