data_functionalizedCrystal
_audit_creation_method	'MofGen! by Chris Wilmer'
_symmetry_space_group_name_H-M	'P1'
_symmetry_Int_Tables_number	1
_symmetry_cell_setting	triclinic
loop_
_symmetry_equiv_pos_as_xyz
  x,y,z
_cell_length_a	9.065215
_cell_length_b	12.837942
_cell_length_c	8.140239
_cell_angle_alpha	89.996939
_cell_angle_beta	89.997810
_cell_angle_gamma	89.921819
loop_
_atom_site_label
_atom_site_type_symbol
_atom_site_fract_x
_atom_site_fract_y
_atom_site_fract_z
O1	O	1.978904	0.152182	-0.136594
O2	O	2.478904	0.652182	0.363406
O3	O	1.551136	0.164669	-0.136601
O4	O	2.051136	0.664669	0.363399
O5	O	1.755535	0.007434	-0.136587
O6	O	2.255535	0.507434	0.363413
O7	O	1.774505	0.309417	-0.136607
O8	O	2.274505	0.809417	0.363393
O9	O	1.755522	0.007432	0.136640
O10	O	2.255522	0.507432	0.636640
O11	O	1.551124	0.164667	0.136626
O12	O	2.051124	0.664667	0.636626
O13	O	1.978891	0.152180	0.136634
O14	O	2.478891	0.652180	0.636634
Zn15	Zn	1.765005	0.158423	0.180011
Zn16	Zn	2.265005	0.658423	0.680011
Zn17	Zn	1.765022	0.158426	-0.179978
Zn18	Zn	2.265022	0.658426	0.320022
O19	O	1.774492	0.309415	0.136620
O20	O	2.274492	0.809415	0.636620
C21	C	1.495998	0.163468	0.000012
C22	C	1.995998	0.663468	0.500012
C23	C	1.331718	0.159882	0.000009
C24	C	1.831718	0.659882	0.500009
C25	C	1.749120	-0.031248	0.000025
C26	C	2.249120	0.468752	0.500025
C27	C	1.730007	-0.146505	0.000022
C28	C	2.230007	0.353495	0.500022
C29	C	1.959783	-0.385307	-0.000008
C30	C	2.459783	0.114693	0.499992
C31	C	1.941832	-0.493601	-0.000011
C32	C	2.441832	0.006399	0.499989
C33	C	1.676153	-0.471389	0.000001
C34	C	2.176153	0.028611	0.500001
C35	C	1.694104	-0.363095	0.000004
C36	C	2.194104	0.136905	0.500004
C37	C	1.835924	-0.320058	0.000002
C38	C	2.335924	0.179942	0.500002
C39	C	1.853875	-0.211762	0.000017
C40	C	2.353875	0.288238	0.500017
C41	C	1.588197	-0.189552	0.000018
C42	C	2.088197	0.310448	0.500018
C43	C	1.570245	-0.297846	0.000015
C44	C	2.070245	0.202154	0.500015
C45	C	2.034030	0.153380	0.000017
C46	C	2.534030	0.653380	0.500017
C47	C	2.198309	0.156966	0.000009
C48	C	2.698309	0.656966	0.500009
C49	C	1.780907	0.348097	0.000004
C50	C	2.280907	0.848097	0.500004
C51	C	1.800021	0.463353	-0.000004
C52	C	2.300021	0.963353	0.499996
N53	N	1.765004	0.158421	0.425693
N54	N	2.265004	0.658421	0.925693
N55	N	1.765033	0.158420	-0.425660
N56	N	2.265033	0.658420	0.074340
H57	H	1.969351	-0.176724	0.000021
H58	H	2.469351	0.323276	0.500021
H59	H	2.075258	-0.350266	0.000006
H60	H	2.575258	0.149734	0.500006
H61	H	1.454779	-0.332902	0.000010
H62	H	1.954779	0.167098	0.500010
H63	H	1.560689	-0.506449	-0.000014
H64	H	2.060689	-0.006449	0.499986
N65	N	1.454594	-0.119177	0.000038
N66	N	1.954594	0.380823	0.500038
H67	H	1.487481	-0.044041	0.000043
H68	H	1.987481	0.455959	0.500043
H69	H	1.393446	-0.133248	-0.101249
H70	H	1.893446	0.366752	0.398751
N71	N	2.075420	-0.563979	-0.000026
N72	N	2.575420	-0.063979	0.499974
H73	H	2.167981	-0.520279	-0.000027
H74	H	2.667981	-0.020279	0.499973
H75	H	2.073759	-0.609399	0.101263
H76	H	2.573759	-0.109399	0.601263
