data_functionalizedCrystal
_audit_creation_method	'MofGen! by Chris Wilmer'
_symmetry_space_group_name_H-M	'P1'
_symmetry_Int_Tables_number	1
_symmetry_cell_setting	triclinic
loop_
_symmetry_equiv_pos_as_xyz
  x,y,z
_cell_length_a	19.805407
_cell_length_b	19.805405
_cell_length_c	19.805399
_cell_angle_alpha	90.029301
_cell_angle_beta	89.979591
_cell_angle_gamma	89.971650
loop_
_atom_site_label
_atom_site_type_symbol
_atom_site_fract_x
_atom_site_fract_y
_atom_site_fract_z
Zn1	Zn	1.034736	0.269444	-0.382727
Zn2	Zn	1.534736	0.769444	0.117273
Zn3	Zn	1.034651	0.382632	-0.269535
Zn4	Zn	1.534651	0.882632	0.230465
Zn5	Zn	0.921550	0.269466	-0.269550
Zn6	Zn	1.421550	0.769466	0.230450
Zn7	Zn	0.921514	0.382600	-0.382680
Zn8	Zn	1.421514	0.882600	0.117320
O9	O	0.978113	0.326036	-0.326123
O10	O	1.478113	0.826036	0.173877
O11	O	1.129441	0.284463	-0.367725
O12	O	1.629441	0.784463	0.132275
O13	O	1.019627	0.367643	-0.174820
O14	O	1.519627	0.867643	0.325180
O15	O	0.936616	0.174747	-0.284588
O16	O	1.436616	0.674747	0.215412
O17	O	1.129378	0.367622	-0.284564
O18	O	1.629378	0.867622	0.215436
O19	O	1.019772	0.174730	-0.367739
O20	O	1.519772	0.674730	0.132261
O21	O	0.936533	0.284501	-0.174831
O22	O	1.436533	0.784501	0.325169
O23	O	0.826829	0.284470	-0.284543
O24	O	1.326829	0.784470	0.215457
O25	O	0.936553	0.367567	-0.477403
O26	O	1.436553	0.867567	0.022597
O27	O	0.826802	0.367589	-0.367660
O28	O	1.326802	0.867589	0.132340
O29	O	1.019737	0.284431	-0.477437
O30	O	1.519737	0.784431	0.022563
O31	O	1.019592	0.477345	-0.284518
O32	O	1.519592	0.977345	0.215482
O33	O	0.936471	0.477321	-0.367646
O34	O	1.436471	0.977321	0.132354
C35	C	0.802257	0.326029	-0.326098
C36	C	1.302257	0.826029	0.173902
C37	C	0.727025	0.326042	-0.326104
C38	C	1.227025	0.826042	0.173896
C39	C	0.265270	0.282816	-0.369517
C40	C	0.765270	0.782816	0.130483
C41	C	0.335958	0.282817	-0.369513
C42	C	0.835958	0.782817	0.130487
C43	C	0.371263	0.326046	-0.326145
C44	C	0.871263	0.826046	0.173855
C45	C	0.335876	0.369281	-0.282784
C46	C	0.835876	0.869281	0.217216
C47	C	0.265188	0.369283	-0.282793
C48	C	0.765188	0.869283	0.217207
C49	C	0.620949	0.369276	-0.282748
C50	C	1.120949	0.869276	0.217252
C51	C	0.691641	0.369270	-0.282741
C52	C	1.191641	0.869270	0.217259
C53	C	0.691719	0.282810	-0.369468
C54	C	1.191719	0.782810	0.130532
C55	C	0.621031	0.282812	-0.369477
C56	C	1.121031	0.782812	0.130523
C57	C	0.585650	0.326049	-0.326119
C58	C	1.085650	0.826049	0.173881
C59	C	0.509002	0.326048	-0.326125
C60	C	1.009002	0.826048	0.173875
C61	C	0.447910	0.326044	-0.326134
C62	C	0.947910	0.826044	0.173866
C63	C	0.978036	0.501892	-0.326090
C64	C	1.478036	1.001892	0.173910
C65	C	0.978066	0.577124	-0.326099
C66	C	1.478066	1.077124	0.173901
C67	C	0.978151	0.325993	-0.502666
C68	C	1.478151	0.825993	-0.002666
C69	C	0.978167	0.325975	-0.577898
C70	C	1.478167	0.825975	-0.077898
C71	C	1.154655	0.326043	-0.326148
C72	C	1.654655	0.826043	0.173852
C73	C	1.229887	0.326046	-0.326158
C74	C	1.729887	0.826046	0.173842
C75	C	0.978207	0.149493	-0.326171
C76	C	1.478207	0.649493	0.173829
C77	C	0.978248	0.074261	-0.326191
C78	C	1.478248	0.574261	0.173809
C79	C	1.021389	0.612458	-0.282860
C80	C	1.521389	1.112458	0.217140
C81	C	1.021418	0.683146	-0.282875
C82	C	1.521418	1.183146	0.217125
C83	C	0.978119	0.718499	-0.326126
C84	C	1.478119	1.218499	0.173874
C85	C	0.934794	0.683160	-0.369370
C86	C	1.434794	1.183160	0.130630
C87	C	0.934769	0.612473	-0.369357
C88	C	1.434769	1.112473	0.130643
C89	C	0.934894	0.968233	-0.369420
C90	C	1.434894	1.468233	0.130580
C91	C	0.934921	1.038926	-0.369427
C92	C	1.434921	1.538926	0.130573
C93	C	1.021542	1.038906	-0.282937
C94	C	1.521542	1.538906	0.217063
C95	C	1.021518	0.968219	-0.282925
C96	C	1.521518	1.468219	0.217075
C97	C	0.978195	0.932886	-0.326171
C98	C	1.478195	1.432886	0.173829
C99	C	0.978166	0.856238	-0.326155
C100	C	1.478166	1.356238	0.173845
C101	C	0.978145	0.795146	-0.326139
C102	C	1.478145	1.295146	0.173861
C103	C	1.021481	0.282684	-0.613261
C104	C	1.521481	0.782684	-0.113261
C105	C	1.021488	0.282664	-0.683949
C106	C	1.521488	0.782664	-0.183949
C107	C	0.978184	0.325939	-0.719273
C108	C	1.478184	0.825939	-0.219273
C109	C	0.934864	0.369232	-0.683905
C110	C	1.434864	0.869232	-0.183905
C111	C	0.934854	0.369248	-0.613218
C112	C	1.434854	0.869248	-0.113218
C113	C	0.934902	0.369169	-0.968979
C114	C	1.434902	0.869169	-0.468979
C115	C	0.934917	0.369151	-1.039671
C116	C	1.434917	0.869151	-0.539671
C117	C	1.021536	0.282586	-1.039710
C118	C	1.521536	0.782586	-0.539710
C119	C	1.021527	0.282601	-0.969023
C120	C	1.521527	0.782601	-0.469023
C121	C	0.978205	0.325891	-0.933661
C122	C	1.478205	0.825891	-0.433661
C123	C	0.978197	0.325911	-0.857012
C124	C	1.478197	0.825911	-0.357012
C125	C	0.978194	0.325923	-0.795921
C126	C	1.478194	0.825923	-0.295921
C127	C	0.978114	0.326029	-0.150267
C128	C	1.478114	0.826029	0.349733
C129	C	0.978229	0.325857	-0.075035
C130	C	1.478229	0.825857	0.424965
H131	H	0.364626	0.404482	-0.247475
H132	H	0.864626	0.904482	0.252525
C133	C	0.226265	0.416836	-0.235099
C134	C	0.726265	0.916836	0.264901
H135	H	0.179110	0.410651	-0.241320
H136	H	0.679110	0.910651	0.258680
H137	H	0.237830	0.406874	-0.189638
H138	H	0.737830	0.906874	0.310362
H139	H	0.237834	0.462327	-0.244928
H140	H	0.737834	0.962327	0.255072
C141	C	1.069019	0.573575	-0.235284
C142	C	1.569019	1.073575	0.264716
H143	H	1.094829	0.604746	-0.209540
H144	H	1.594829	1.104746	0.290460
H145	H	1.043138	0.546041	-0.205762
H146	H	1.543138	1.046041	0.294238
H147	H	1.098487	0.545959	-0.261204
H148	H	1.598487	1.045959	0.238796
C149	C	1.069070	0.722011	-0.235308
C150	C	1.569070	1.222011	0.264692
H151	H	1.094846	0.690832	-0.209542
H152	H	1.594846	1.190832	0.290458
H153	H	1.098558	0.749543	-0.261229
H154	H	1.598558	1.249543	0.238771
H155	H	1.043199	0.749627	-0.205797
H156	H	1.543199	1.249627	0.294203
C157	C	0.730639	0.235256	-0.417169
C158	C	1.230639	0.735256	0.082831
H159	H	0.777795	0.241450	-0.410961
H160	H	1.277795	0.741450	0.089039
H161	H	0.719073	0.189766	-0.407348
H162	H	1.219073	0.689766	0.092652
H163	H	0.719068	0.245226	-0.462631
H164	H	1.219068	0.745226	0.037369
C165	C	1.069202	1.077771	-0.235369
C166	C	1.569202	1.577771	0.264631
H167	H	1.094979	1.046591	-0.209604
H168	H	1.594979	1.546591	0.290396
H169	H	1.098691	1.105303	-0.261290
H170	H	1.598691	1.605303	0.238710
H171	H	1.043333	1.105387	-0.205857
H172	H	1.543333	1.605387	0.294143
H173	H	0.720384	0.404475	-0.247424
H174	H	1.220384	0.904475	0.252576
C175	C	1.069148	0.929334	-0.235351
C176	C	1.569148	1.429334	0.264649
H177	H	1.094959	0.960503	-0.209606
H178	H	1.594959	1.460503	0.290394
H179	H	1.043267	0.901799	-0.205830
H180	H	1.543267	1.401799	0.294170
H181	H	1.098615	0.901719	-0.261274
H182	H	1.598615	1.401719	0.238726
H183	H	0.899663	1.067708	-0.404652
H184	H	1.399663	1.567708	0.095348
C185	C	0.887210	0.416867	-0.574316
C186	C	1.387210	0.916867	-0.074316
H187	H	0.893401	0.410673	-0.527158
H188	H	1.393401	0.910673	-0.027158
H189	H	0.897089	0.462343	-0.585887
H190	H	1.397089	0.962343	-0.085887
H191	H	0.841738	0.406949	-0.585895
H192	H	1.341738	0.906949	-0.085895
H193	H	0.592150	0.404481	-0.247441
H194	H	1.092150	0.904481	0.252559
H195	H	0.899618	0.939471	-0.404631
H196	H	1.399618	1.439471	0.095369
C197	C	1.069186	0.234962	-1.078610
C198	C	1.569186	0.734962	-0.578610
H199	H	1.062987	0.241143	-1.125768
H200	H	1.562987	0.741143	-0.625768
H201	H	1.114655	0.244875	-1.067032
H202	H	1.614655	0.744875	-0.567032
H203	H	1.059301	0.189485	-1.067034
H204	H	1.559301	0.689485	-0.567034
H205	H	0.899492	0.583705	-0.404568
H206	H	1.399492	1.083705	0.095432
C207	C	0.226440	0.235266	-0.417226
C208	C	0.726440	0.735266	0.082774
H209	H	0.257640	0.209525	-0.443053
H210	H	0.757640	0.709525	0.056947
H211	H	0.198865	0.205740	-0.391396
H212	H	0.698865	0.705740	0.108604
H213	H	0.198870	0.261204	-0.446675
H214	H	0.698870	0.761204	0.053325
C215	C	0.887166	0.722047	-0.416943
C216	C	1.387166	1.222047	0.083057
H217	H	0.893379	0.769206	-0.410753
H218	H	1.393379	1.269206	0.089247
H219	H	0.897037	0.710425	-0.462429
H220	H	1.397037	1.210425	0.037571
H221	H	0.841689	0.710505	-0.406986
H222	H	1.341689	1.210505	0.093014
C223	C	0.582200	0.235262	-0.417183
C224	C	1.082200	0.735262	0.082817
H225	H	0.613397	0.209520	-0.443011
H226	H	1.113397	0.709520	0.056989
H227	H	0.554624	0.205738	-0.391352
H228	H	1.054624	0.705738	0.108648
H229	H	0.554629	0.261201	-0.446632
H230	H	1.054629	0.761201	0.053368
H231	H	1.056747	0.247446	-0.584505
H232	H	1.556747	0.747446	-0.084505
C233	C	1.069138	0.235048	-0.722846
C234	C	1.569138	0.735048	-0.222846
H235	H	1.094933	0.209284	-0.691684
H236	H	1.594933	0.709284	-0.191684
H237	H	1.043270	0.205546	-0.750424
H238	H	1.543270	0.705546	-0.250424
H239	H	1.098619	0.260941	-0.750419
H240	H	1.598619	0.760941	-0.250419
C241	C	1.069159	0.234997	-0.930170
C242	C	1.569159	0.734997	-0.430170
H243	H	1.094953	0.209206	-0.961355
H244	H	1.594953	0.709206	-0.461355
H245	H	1.098633	0.260893	-0.902591
H246	H	1.598633	0.760893	-0.402591
H247	H	1.043272	0.205509	-0.902600
H248	H	1.543272	0.705509	-0.402600
H249	H	0.899602	0.404465	-0.712672
H250	H	1.399602	0.904465	-0.212672
H251	H	0.899650	0.404392	-1.068430
H252	H	1.399650	0.904392	-0.568430
C253	C	0.887237	0.416772	-0.930090
C254	C	1.387237	0.916772	-0.430090
H255	H	0.861449	0.442541	-0.961253
H256	H	1.361449	0.942541	-0.461253
H257	H	0.857760	0.390870	-0.902526
H258	H	1.357760	0.890870	-0.402526
H259	H	0.913094	0.446280	-0.902502
H260	H	1.413094	0.946280	-0.402502
H261	H	0.364763	0.247616	-0.404822
H262	H	0.864763	0.747616	0.095178
