data_functionalizedCrystal
_audit_creation_method	'MofGen! by Chris Wilmer'
_symmetry_space_group_name_H-M	'P1'
_symmetry_Int_Tables_number	1
_symmetry_cell_setting	triclinic
loop_
_symmetry_equiv_pos_as_xyz
  x,y,z
_cell_length_a	14.971486
_cell_length_b	16.109301
_cell_length_c	13.448316
_cell_angle_alpha	89.991973
_cell_angle_beta	89.998199
_cell_angle_gamma	83.537805
loop_
_atom_site_label
_atom_site_type_symbol
_atom_site_fract_x
_atom_site_fract_y
_atom_site_fract_z
O1	O	1.186791	0.108348	-0.082581
O2	O	1.686791	0.608348	0.417419
O3	O	0.926372	0.121323	-0.082608
O4	O	1.426372	0.621323	0.417392
O5	O	1.063736	-0.006187	-0.082584
O6	O	1.563736	0.493813	0.417416
O7	O	1.049428	0.235857	-0.082605
O8	O	1.549428	0.735857	0.417395
O9	O	1.063718	-0.006195	0.082800
O10	O	1.563718	0.493805	0.582800
O11	O	0.926355	0.121315	0.082776
O12	O	1.426355	0.621315	0.582776
O13	O	1.186774	0.108340	0.082803
O14	O	1.686774	0.608340	0.582803
Cu15	Cu	1.056563	0.114827	0.097890
Cu16	Cu	1.556563	0.614827	0.597890
Cu17	Cu	1.056583	0.114836	-0.097695
Cu18	Cu	1.556583	0.614836	0.402305
O19	O	1.049410	0.235850	0.082778
O20	O	1.549410	0.735850	0.582778
C21	C	0.893040	0.120739	0.000080
C22	C	1.393040	0.620739	0.500080
C23	C	0.793745	0.119000	0.000070
C24	C	1.293745	0.619000	0.500070
C25	C	0.736412	0.193908	0.000065
C26	C	1.236412	0.693908	0.500065
C27	C	0.643115	0.192269	0.000080
C28	C	1.143115	0.692269	0.500080
C29	C	0.607153	0.115721	0.000093
C30	C	1.107153	0.615721	0.500093
C31	C	0.664494	0.040807	0.000101
C32	C	1.164494	0.540807	0.500101
C33	C	0.757789	0.042447	0.000093
C34	C	1.257789	0.542447	0.500093
C35	C	0.470036	0.037395	0.000115
C36	C	0.970036	0.537395	0.500115
C37	C	0.376734	0.035755	0.000121
C38	C	0.876734	0.535755	0.500121
C39	C	0.355362	0.187217	0.000102
C40	C	0.855362	0.687217	0.500102
C41	C	0.448657	0.188857	0.000094
C42	C	0.948657	0.688857	0.500094
C43	C	0.505991	0.113942	0.000100
C44	C	1.005991	0.613942	0.500100
C45	C	1.063147	-0.037166	0.000109
C46	C	1.563147	0.462834	0.500109
C47	C	1.061410	-0.129464	0.000110
C48	C	1.561410	0.370536	0.500110
C49	C	1.138878	-0.351640	0.000102
C50	C	1.638878	0.148360	0.500102
C51	C	1.137239	-0.438362	0.000094
C52	C	1.637239	0.061638	0.500094
C53	C	0.974262	-0.418691	0.000081
C54	C	1.474262	0.081309	0.500081
C55	C	0.975902	-0.331970	0.000082
C56	C	1.475902	0.168030	0.500082
C57	C	1.058213	-0.298447	0.000098
C58	C	1.558213	0.201553	0.500098
C59	C	1.054933	-0.471890	0.000088
C60	C	1.554933	0.028110	0.500088
C61	C	1.053155	-0.565918	0.000079
C62	C	1.553155	-0.065918	0.500079
C63	C	1.059992	-0.204413	0.000105
C64	C	1.559992	0.295587	0.500105
C65	C	1.220106	0.108924	0.000112
C66	C	1.720106	0.608924	0.500112
C67	C	1.319401	0.110663	0.000116
C68	C	1.819401	0.610663	0.500116
C69	C	1.049999	0.266829	0.000084
C70	C	1.549999	0.766829	0.500084
C71	C	1.051736	0.359127	0.000076
C72	C	1.551736	0.859127	0.500076
N73	N	1.056555	0.114820	0.235454
N74	N	1.556555	0.614820	0.735454
N75	N	1.056598	0.114837	-0.235260
N76	N	1.556598	0.614837	0.264740
C77	C	1.117398	0.058382	0.287506
C78	C	1.617398	0.558382	0.787506
C79	C	1.117404	0.058381	0.391609
C80	C	1.617404	0.558381	0.891609
C81	C	1.056570	0.114823	0.443659
C82	C	1.556570	0.614823	0.943659
C83	C	0.995720	0.171264	0.391601
C84	C	1.495720	0.671264	0.891601
C85	C	0.995711	0.171260	0.287499
C86	C	1.495711	0.671260	0.787499
C87	C	0.995745	0.171269	0.608581
C88	C	1.495745	0.671269	1.108581
C89	C	0.995755	0.171275	0.712689
C90	C	1.495755	0.671275	1.212689
C91	C	1.117438	0.058391	0.712690
C92	C	1.617438	0.558391	1.212690
C93	C	1.117429	0.058387	0.608589
C94	C	1.617429	0.558387	1.108589
C95	C	1.056580	0.114829	0.556538
C96	C	1.556580	0.614829	1.056538
H97	H	0.477934	0.251189	0.000074
H98	H	0.977934	0.751189	0.500074
H99	H	0.804470	-0.018551	0.000097
H100	H	1.304470	0.481449	0.500097
H101	H	0.946183	0.217217	0.433986
H102	H	1.446183	0.717217	0.933986
N103	N	0.337933	-0.046800	0.000160
N104	N	0.837933	0.453200	0.500160
H105	H	0.299697	-0.050861	-0.061141
H106	H	0.799697	0.449139	0.438859
H107	H	0.388452	-0.093967	0.000213
H108	H	0.888452	0.406033	0.500213
N109	N	0.885492	-0.454856	0.000078
N110	N	1.385492	0.045144	0.500078
H111	H	0.850150	-0.435469	0.061384
H112	H	1.350150	0.064531	0.561384
H113	H	0.850225	-0.435451	-0.061272
H114	H	1.350225	0.064549	0.438728
H115	H	0.910211	-0.288658	0.000075
H116	H	1.410211	0.211342	0.500075
N117	N	1.227652	-0.315480	0.000111
N118	N	1.727652	0.184520	0.500111
H119	H	1.231962	-0.279949	0.061423
H120	H	1.731962	0.220051	0.561423
H121	H	1.278450	-0.362387	0.000075
H122	H	1.778450	0.137613	0.500075
H123	H	1.166969	0.012432	0.566210
H124	H	1.666969	0.512432	1.066210
N125	N	0.293529	0.268020	0.000091
N126	N	0.793529	0.768020	0.500091
H127	H	0.228970	0.255369	0.000102
H128	H	0.728970	0.755369	0.500102
H129	H	0.305174	0.301379	0.061392
H130	H	0.805174	0.801379	0.561392
H131	H	0.516716	-0.023609	0.000122
H132	H	1.016716	0.476391	0.500122
H133	H	0.635206	-0.021520	0.000126
H134	H	1.135206	0.478480	0.500126
N135	N	0.775196	0.276471	0.000039
N136	N	1.275196	0.776471	0.500039
H137	H	0.724715	0.323676	0.000039
H138	H	1.224715	0.823676	0.500039
H139	H	0.813444	0.280451	0.061343
H140	H	1.313444	0.780451	0.561343
H141	H	1.166983	0.012434	0.755077
H142	H	1.666983	0.512434	1.255077
N143	N	1.224246	-0.495729	0.000108
N144	N	1.724246	0.004271	0.500108
H145	H	1.227190	-0.532156	0.061414
H146	H	1.727190	-0.032156	0.561414
H147	H	1.227157	-0.532085	-0.061242
H148	H	1.727157	-0.032085	0.438758
N149	N	1.183018	-0.002491	0.231369
N150	N	1.683018	0.497509	0.731369
H151	H	1.221562	-0.038245	0.280145
H152	H	1.721562	0.461755	0.780145
H153	H	1.148788	-0.039302	0.188190
H154	H	1.648788	0.460698	0.688190
H155	H	1.166947	0.012425	0.433989
H156	H	1.666947	0.512425	0.933989
H157	H	0.946192	0.217228	0.566204
H158	H	1.446192	0.717228	1.066204
H159	H	0.946165	0.217216	0.245120
H160	H	1.446165	0.717216	0.745120
N161	N	0.930150	0.232147	0.768845
N162	N	1.430150	0.732147	1.268845
H163	H	0.940422	0.291172	0.750714
H164	H	1.440422	0.791172	1.250714
H165	H	0.866698	0.222401	0.750733
H166	H	1.366698	0.722401	1.250733
N167	N	0.581276	0.273063	0.000186
N168	N	1.081276	0.773063	0.500186
H169	H	0.618214	0.321804	0.000207
H170	H	1.118214	0.821804	0.500207
H171	H	0.542047	0.275746	-0.061082
H172	H	1.042047	0.775746	0.438918
