data_functionalizedCrystal
_audit_creation_method	'MofGen! by Chris Wilmer'
_symmetry_space_group_name_H-M	'P1'
_symmetry_Int_Tables_number	1
_symmetry_cell_setting	triclinic
loop_
_symmetry_equiv_pos_as_xyz
  x,y,z
_cell_length_a	10.685980
_cell_length_b	16.625545
_cell_length_c	10.686551
_cell_angle_alpha	85.592661
_cell_angle_beta	81.591741
_cell_angle_gamma	94.392107
loop_
_atom_site_label
_atom_site_type_symbol
_atom_site_fract_x
_atom_site_fract_y
_atom_site_fract_z
Zn1	Zn	1.995734	-0.180728	-0.866688
Zn2	Zn	2.329068	0.152605	-0.533355
Zn3	Zn	2.662401	0.485938	-0.200022
Zn4	Zn	1.979269	-0.326801	-0.654412
Zn5	Zn	2.312602	0.006532	-0.321079
Zn6	Zn	2.645935	0.339866	0.012254
Zn7	Zn	1.767155	-0.203170	-0.638151
Zn8	Zn	2.100488	0.130163	-0.304818
Zn9	Zn	2.433822	0.463497	0.028516
Zn10	Zn	1.783392	-0.326723	-0.850323
Zn11	Zn	2.116726	0.006611	-0.516989
Zn12	Zn	2.450059	0.339944	-0.183656
O13	O	1.881388	-0.259356	-0.752394
O14	O	2.214721	0.073978	-0.419060
O15	O	2.548054	0.407311	-0.085727
O16	O	2.171187	-0.190746	-0.852184
O17	O	2.504520	0.142587	-0.518851
O18	O	2.837853	0.475921	-0.185517
O19	O	1.937445	-0.319826	-0.474623
O20	O	2.270778	0.013507	-0.141289
O21	O	2.604111	0.346841	0.192044
O22	O	1.797572	-0.087354	-0.668511
O23	O	2.130905	0.245979	-0.335177
O24	O	2.464239	0.579313	-0.001844
O25	O	2.159089	-0.298065	-0.696226
O26	O	2.492422	0.035268	-0.362893
O27	O	2.825756	0.368602	-0.029559
O28	O	1.965509	-0.070866	-0.836416
O29	O	2.298842	0.262467	-0.503083
O30	O	2.632175	0.595801	-0.169749
O31	O	1.781606	-0.228995	-0.462675
O32	O	2.114939	0.104338	-0.129342
O33	O	2.448272	0.437672	0.203991
O34	O	1.591673	-0.228919	-0.652641
O35	O	1.925006	0.104414	-0.319308
O36	O	2.258339	0.437748	0.014025
O37	O	1.825246	-0.297931	-1.030127
O38	O	2.158580	0.035402	-0.696793
O39	O	2.491913	0.368735	-0.363460
O40	O	1.603602	-0.319692	-0.808523
O41	O	1.936935	0.013641	-0.475190
O42	O	2.270269	0.346974	-0.141857
O43	O	1.981253	-0.190670	-1.042150
O44	O	2.314587	0.142663	-0.708817
O45	O	2.647920	0.475997	-0.375484
O46	O	1.953190	-0.439630	-0.680357
O47	O	2.286523	-0.106297	-0.347024
O48	O	2.619856	0.227037	-0.013690
O49	O	1.809280	-0.439572	-0.824291
O50	O	2.142613	-0.106239	-0.490958
O51	O	2.475947	0.227094	-0.157625
C52	C	1.551578	-0.276733	-0.727043
C53	C	1.884912	0.056600	-0.393709
C54	C	2.218245	0.389934	-0.060376
C55	C	1.410487	-0.284185	-0.716227
C56	C	1.743820	0.049148	-0.382894
C57	C	2.077153	0.382482	-0.049561
C58	C	1.881247	-0.468856	-0.752343
C59	C	2.214580	-0.135523	-0.419010
C60	C	2.547913	0.197811	-0.085676
C61	C	1.881306	-0.558473	-0.752373
C62	C	2.214639	-0.225139	-0.419040
C63	C	2.547972	0.108194	-0.085706
C64	C	1.881357	-0.631251	-0.752402
C65	C	2.214690	-0.297918	-0.419069
C66	C	2.548024	0.035416	-0.085735
C67	C	1.881433	-0.722554	-0.752436
C68	C	2.214766	-0.389221	-0.419102
C69	C	2.548100	-0.055887	-0.085769
C70	C	1.881500	-0.795326	-0.752457
C71	C	2.214833	-0.461993	-0.419123
C72	C	2.548167	-0.128660	-0.085790
C73	C	1.881575	-0.886635	-0.752488
C74	C	2.214908	-0.553302	-0.419155
C75	C	2.548241	-0.219969	-0.085822
C76	C	2.212485	-0.241911	-0.777844
C77	C	2.545818	0.091422	-0.444511
C78	C	2.879151	0.424756	-0.111178
C79	C	2.353579	-0.234477	-0.788690
C80	C	2.686912	0.098856	-0.455357
C81	C	3.020245	0.432190	-0.122023
C82	C	1.906898	-0.241789	-1.083485
C83	C	2.240231	0.091545	-0.750151
C84	C	2.573564	0.424878	-0.416818
C85	C	1.917769	-0.234303	-1.224576
C86	C	2.251102	0.099031	-0.891242
C87	C	2.584435	0.432364	-0.557909
C88	C	1.881566	-0.049034	-0.752475
C89	C	2.214899	0.284299	-0.419142
C90	C	2.548232	0.617633	-0.085808
C91	C	1.881642	0.040593	-0.752509
C92	C	2.214975	0.373926	-0.419176
C93	C	2.548308	0.707259	-0.085843
C94	C	1.856050	-0.276792	-0.422597
C95	C	2.189383	0.056541	-0.089263
C96	C	2.522716	0.389875	0.244070
C97	C	1.845425	-0.284038	-0.281525
C98	C	2.178758	0.049295	0.051808
C99	C	2.512091	0.382629	0.385142
H100	H	1.775175	-0.332348	-1.222343
H101	H	2.108508	0.000986	-0.889010
H102	H	2.441841	0.334319	-0.555676
C103	C	2.012688	-0.169039	-1.304519
C104	C	2.346022	0.164294	-0.971185
C105	C	2.679355	0.497627	-0.637852
H106	H	2.056622	-0.138846	-1.249872
H107	H	2.389955	0.194488	-0.916539
H108	H	2.723288	0.527821	-0.583205
H109	H	1.968105	-0.133751	-1.352522
H110	H	2.301438	0.199582	-1.019189
H111	H	2.634771	0.532915	-0.685856
H112	H	2.071917	-0.194265	-1.360469
H113	H	2.405251	0.139068	-1.027136
H114	H	2.738584	0.472402	-0.693803
C115	C	1.330490	-0.349387	-0.621234
C116	C	1.663824	-0.016054	-0.287901
C117	C	1.997157	0.317280	0.045433
H118	H	1.242974	-0.346018	-0.626184
H119	H	1.576307	-0.012685	-0.292851
H120	H	1.909640	0.320648	0.040483
H121	H	1.345576	-0.340900	-0.537619
H122	H	1.678909	-0.007567	-0.204285
H123	H	2.012243	0.325766	0.129048
H124	H	1.353558	-0.401473	-0.641318
H125	H	1.686891	-0.068140	-0.307984
H126	H	2.020224	0.265193	0.025349
H127	H	1.412796	-0.186214	-0.859000
H128	H	1.746130	0.147119	-0.525667
H129	H	2.079463	0.480452	-0.192334
