data_functionalizedCrystal
_audit_creation_method	'MofGen! by Chris Wilmer'
_symmetry_space_group_name_H-M	'P1'
_symmetry_Int_Tables_number	1
_symmetry_cell_setting	triclinic
loop_
_symmetry_equiv_pos_as_xyz
  x,y,z
_cell_length_a	17.077404
_cell_length_b	12.759400
_cell_length_c	17.077396
_cell_angle_alpha	89.974414
_cell_angle_beta	89.980499
_cell_angle_gamma	90.014910
loop_
_atom_site_label
_atom_site_type_symbol
_atom_site_fract_x
_atom_site_fract_y
_atom_site_fract_z
Zn1	Zn	1.200099	-0.418260	-0.443859
Zn2	Zn	1.700099	0.081740	0.056141
Zn3	Zn	1.200025	-0.593961	-0.312599
Zn4	Zn	1.700025	-0.093961	0.187401
Zn5	Zn	1.068831	-0.418297	-0.312606
Zn6	Zn	1.568831	0.081703	0.187394
Zn7	Zn	1.068818	-0.593898	-0.443823
Zn8	Zn	1.568818	-0.093898	0.056177
O9	O	1.134443	-0.506104	-0.378222
O10	O	1.634443	-0.006104	0.121778
O11	O	1.309936	-0.441578	-0.426459
O12	O	1.809936	0.058422	0.073541
O13	O	1.182597	-0.570700	-0.202753
O14	O	1.682597	-0.070700	0.297247
O15	O	1.086281	-0.271271	-0.330035
O16	O	1.586281	0.228729	0.169965
O17	O	1.309882	-0.570664	-0.330023
O18	O	1.809882	-0.070664	0.169977
O19	O	1.182723	-0.271244	-0.426466
O20	O	1.682723	0.228756	0.073534
O21	O	1.086209	-0.441641	-0.202759
O22	O	1.586209	0.058359	0.297241
O23	O	0.958983	-0.441580	-0.330001
O24	O	1.458983	0.058420	0.169999
O25	O	1.086258	-0.570558	-0.553674
O26	O	1.586258	-0.070558	-0.053674
O27	O	0.958973	-0.570594	-0.426405
O28	O	1.458973	-0.070594	0.073595
O29	O	1.182710	-0.441517	-0.553701
O30	O	1.682710	0.058483	-0.053701
O31	O	1.182584	-0.740973	-0.329988
O32	O	1.682584	-0.240973	0.170012
O33	O	1.086186	-0.740927	-0.426398
O34	O	1.586186	-0.240927	0.073602
C35	C	0.930496	-0.506085	-0.378200
C36	C	1.430496	-0.006085	0.121800
C37	C	0.843246	-0.506102	-0.378209
C38	C	1.343246	-0.006102	0.121791
C39	C	0.802271	-0.573381	-0.428326
C40	C	1.302271	-0.073381	0.071674
C41	C	0.720291	-0.573383	-0.428339
C42	C	1.220291	-0.073383	0.071661
C43	C	0.679286	-0.506111	-0.378230
C44	C	1.179286	-0.006111	0.121770
C45	C	0.720267	-0.438825	-0.328111
C46	C	1.220267	0.061175	0.171889
C47	C	0.802246	-0.438818	-0.328103
C48	C	1.302246	0.061182	0.171897
C49	C	0.549397	-0.438846	-0.328130
C50	C	1.049397	0.061154	0.171870
C51	C	0.467412	-0.438854	-0.328136
C52	C	0.967412	0.061146	0.171864
C53	C	0.467442	-0.573410	-0.428366
C54	C	0.967442	-0.073410	0.071634
C55	C	0.549421	-0.573404	-0.428358
C56	C	1.049421	-0.073404	0.071642
C57	C	0.590395	-0.506119	-0.378237
C58	C	1.090395	-0.006119	0.121763
C59	C	1.134397	-0.779071	-0.378205
C60	C	1.634397	-0.279071	0.121795
C61	C	1.134449	-0.895848	-0.378225
C62	C	1.634449	-0.395848	0.121775
C63	C	1.184699	-0.950699	-0.328080
C64	C	1.684699	-0.450699	0.171920
C65	C	1.184747	-1.060423	-0.328104
C66	C	1.684747	-0.560423	0.171896
C67	C	1.084289	-1.060435	-0.428420
C68	C	1.584289	-0.560435	0.071580
C69	C	1.084245	-0.950713	-0.428399
C70	C	1.584245	-0.450713	0.071601
C71	C	1.234902	-0.895833	-0.277905
C72	C	1.734902	-0.395833	0.222095
C73	C	1.285156	-0.950685	-0.227755
C74	C	1.785156	-0.450685	0.272245
C75	C	1.285204	-1.060409	-0.227780
C76	C	1.785204	-0.560409	0.272220
C77	C	1.234999	-1.115282	-0.277954
C78	C	1.734999	-0.615282	0.222046
C79	C	1.339188	-0.506124	-0.378244
C80	C	1.839188	-0.006124	0.121756
C81	C	1.426437	-0.506132	-0.378253
C82	C	1.926437	-0.006132	0.121747
C83	C	1.134491	-0.506026	-0.582966
C84	C	1.634491	-0.006026	-0.082966
C85	C	1.134511	-0.505993	-0.670216
C86	C	1.634511	-0.005993	-0.170216
C87	C	1.134512	-0.232071	-0.378255
C88	C	1.634512	0.267929	0.121745
C89	C	1.134541	-0.115294	-0.378270
C90	C	1.634541	0.384706	0.121730
C91	C	1.184735	-0.438796	-0.711221
C92	C	1.684735	0.061204	-0.211221
C93	C	1.184745	-0.438761	-0.793202
C94	C	1.684745	0.061239	-0.293202
C95	C	1.134533	-0.505930	-0.834175
C96	C	1.634533	-0.005930	-0.334175
C97	C	1.084304	-0.573130	-0.793165
C98	C	1.584304	-0.073130	-0.293165
C99	C	1.084291	-0.573159	-0.711186
C100	C	1.584291	-0.073159	-0.211186
C101	C	1.084335	-0.573066	-0.964035
C102	C	1.584335	-0.073066	-0.464035
C103	C	1.084349	-0.573039	-1.046019
C104	C	1.584349	-0.073039	-0.546019
C105	C	1.184789	-0.438669	-1.046051
C106	C	1.684789	0.061331	-0.546051
C107	C	1.184777	-0.438698	-0.964072
C108	C	1.684777	0.061302	-0.464072
C109	C	1.134547	-0.505900	-0.923066
C110	C	1.634547	-0.005900	-0.423066
C111	C	1.134441	-0.506105	-0.174274
C112	C	1.634441	-0.006105	0.325726
C113	C	1.134573	-0.505842	-0.087025
C114	C	1.634573	-0.005842	0.412975
H115	H	1.234867	-0.806491	-0.277878
H116	H	1.734867	-0.306491	0.222122
H117	H	1.043421	-0.627773	-0.930651
H118	H	1.543421	-0.127773	-0.430651
H119	H	0.434076	-0.628193	-0.469178
H120	H	0.934076	-0.128193	0.030822
C121	C	0.375141	-0.424026	-0.222604
C122	C	0.875141	0.075974	0.277396
C123	C	0.422323	-0.364881	-0.273089
C124	C	0.922323	0.135119	0.226911
H125	H	0.347305	-0.378350	-0.188626
H126	H	0.847305	0.121650	0.311374
H127	H	0.339023	-0.464112	-0.252452
H128	H	0.839023	0.035888	0.247548
H129	H	0.407101	-0.469716	-0.192485
H130	H	0.907101	0.030284	0.307515
H131	H	0.390362	-0.319197	-0.303212
H132	H	0.890362	0.180803	0.196788
H133	H	0.458445	-0.324777	-0.243237
H134	H	0.958445	0.175223	0.256763
C135	C	1.384461	-0.961694	-0.128602
C136	C	1.884461	-0.461694	0.371398
C137	C	1.340341	-0.890374	-0.172608
C138	C	1.840341	-0.390374	0.327392
H139	H	1.418533	-0.924460	-0.094560
H140	H	1.918533	-0.424460	0.405440
H141	H	1.350295	-1.004556	-0.098558
H142	H	1.850295	-0.504556	0.401442
H143	H	1.414486	-1.004423	-0.162848
H144	H	1.914486	-0.504423	0.337152
H145	H	1.310312	-0.847650	-0.138362
H146	H	1.810312	-0.347650	0.361638
H147	H	1.374511	-0.847494	-0.202655
H148	H	1.874511	-0.347494	0.297345
H149	H	1.043385	-0.627867	-0.677800
H150	H	1.543385	-0.127867	-0.177800
C151	C	1.390908	-1.183602	-0.217059
C152	C	1.890908	-0.683602	0.282941
C153	C	1.340497	-1.120663	-0.172690
C154	C	1.840497	-0.620663	0.327310
H155	H	1.425061	-1.220782	-0.183053
H156	H	1.925061	-0.720782	0.316947
H157	H	1.361018	-1.232011	-0.246906
H158	H	1.861018	-0.732011	0.253094
H159	H	1.420844	-1.140694	-0.251301
H160	H	1.920844	-0.640694	0.248699
H161	H	1.310557	-1.163573	-0.138452
H162	H	1.810557	-0.663573	0.361548
H163	H	1.370390	-1.072249	-0.142829
H164	H	1.870390	-0.572249	0.357171
C165	C	1.039746	-1.228640	-0.472986
C166	C	1.539746	-0.728640	0.027014
C167	C	1.029099	-1.120750	-0.483561
C168	C	1.529099	-0.620750	0.016439
H169	H	1.005668	-1.265872	-0.507025
H170	H	1.505668	-0.765872	-0.007025
H171	H	1.092482	-1.246549	-0.484529
H172	H	1.592482	-0.746549	0.015471
H173	H	1.028296	-1.246669	-0.420234
H174	H	1.528296	-0.746669	0.079766
H175	H	1.040555	-1.102720	-0.536313
H176	H	1.540555	-0.602720	-0.036313
H177	H	0.976351	-1.102833	-0.472024
H178	H	1.476351	-0.602833	0.027976
H179	H	1.235048	-1.204626	-0.277975
H180	H	1.735048	-0.704626	0.222025
C181	C	0.984954	-0.961738	-0.527563
C182	C	1.484954	-0.461738	-0.027563
C183	C	1.029014	-0.890413	-0.483523
C184	C	1.529014	-0.390413	0.016477
H185	H	0.950857	-0.924508	-0.561595
H186	H	1.450857	-0.424508	-0.061595
H187	H	1.019156	-1.004472	-0.557621
H188	H	1.519156	-0.504472	-0.057621
H189	H	0.954957	-1.004594	-0.493339
H190	H	1.454957	-0.504594	0.006661
H191	H	1.059015	-0.847561	-0.517747
H192	H	1.559015	-0.347561	-0.017747
H193	H	0.994808	-0.847661	-0.453463
H194	H	1.494808	-0.347661	0.046537
H195	H	1.043418	-0.627815	-0.826532
H196	H	1.543418	-0.127815	-0.326532
H197	H	1.225626	-0.384103	-0.677866
H198	H	1.725626	0.115897	-0.177866
H199	H	0.835651	-0.628165	-0.469129
H200	H	1.335651	-0.128165	0.030871
H201	H	1.225644	-0.384045	-0.826584
H202	H	1.725644	0.115955	-0.326584
H203	H	1.225668	-0.384010	-0.930713
H204	H	1.725668	0.115990	-0.430713
C205	C	1.229390	-0.378923	-1.171729
C206	C	1.729390	0.121077	-0.671729
C207	C	1.239989	-0.364781	-1.091120
C208	C	1.739989	0.135219	-0.591120
H209	H	1.263463	-0.333303	-1.199553
H210	H	1.763463	0.166697	-0.699553
H211	H	1.240871	-0.449497	-1.185160
H212	H	1.740871	0.050503	-0.685160
H213	H	1.176649	-0.363543	-1.185141
H214	H	1.676649	0.136457	-0.685141
H215	H	1.292729	-0.380169	-1.077707
H216	H	1.792729	0.119831	-0.577707
H217	H	1.228514	-0.294191	-1.077684
H218	H	1.728514	0.205809	-0.577684
H219	H	1.043460	-0.627731	-1.079378
H220	H	1.543460	-0.127731	-0.579378
H221	H	0.686933	-0.628169	-0.469149
H222	H	1.186933	-0.128169	0.030851
H223	H	0.582804	-0.628188	-0.469157
H224	H	1.082804	-0.128188	0.030843
H225	H	0.686875	-0.384046	-0.287314
H226	H	1.186875	0.115954	0.212686
C227	C	0.541137	-0.305860	-0.229039
C228	C	1.041137	0.194140	0.270961
C229	C	0.594438	-0.364897	-0.273028
C230	C	1.094438	0.135103	0.226972
H231	H	0.568946	-0.260220	-0.195016
H232	H	1.068946	0.239780	0.304984
H233	H	0.509190	-0.265724	-0.263291
H234	H	1.009190	0.234276	0.236709
H235	H	0.509136	-0.351603	-0.198967
H236	H	1.009136	0.148397	0.301033
H237	H	0.626435	-0.319155	-0.303104
H238	H	1.126435	0.180845	0.196896
H239	H	0.626399	-0.405036	-0.238771
H240	H	1.126399	0.094964	0.261229
H241	H	0.835606	-0.384027	-0.287296
H242	H	1.335606	0.115973	0.212704
