data_functionalizedCrystal
_audit_creation_method	'MofGen! by Chris Wilmer'
_symmetry_space_group_name_H-M	'P1'
_symmetry_Int_Tables_number	1
_symmetry_cell_setting	triclinic
loop_
_symmetry_equiv_pos_as_xyz
  x,y,z
_cell_length_a	18.215407
_cell_length_b	12.759400
_cell_length_c	18.215387
_cell_angle_alpha	89.912008
_cell_angle_beta	89.942217
_cell_angle_gamma	90.015132
loop_
_atom_site_label
_atom_site_type_symbol
_atom_site_fract_x
_atom_site_fract_y
_atom_site_fract_z
Zn1	Zn	1.125400	-0.417607	-0.416134
Zn2	Zn	1.625400	0.082393	0.083866
Zn3	Zn	1.125249	-0.593498	-0.293075
Zn4	Zn	1.625249	-0.093498	0.206925
Zn5	Zn	1.002251	-0.417835	-0.293081
Zn6	Zn	1.502251	0.082165	0.206919
Zn7	Zn	1.002320	-0.593245	-0.416100
Zn8	Zn	1.502320	-0.093245	0.083900
O9	O	1.063805	-0.505546	-0.354598
O10	O	1.563805	-0.005546	0.145402
O11	O	1.228364	-0.440949	-0.399822
O12	O	1.728364	0.059051	0.100178
O13	O	1.108840	-0.570398	-0.190091
O14	O	1.608840	-0.070398	0.309909
O15	O	1.018621	-0.270784	-0.309421
O16	O	1.518621	0.229216	0.190579
O17	O	1.228253	-0.570176	-0.309411
O18	O	1.728253	-0.070176	0.190589
O19	O	1.109098	-0.270616	-0.399828
O20	O	1.609098	0.229384	0.100172
O21	O	1.018475	-0.441339	-0.190096
O22	O	1.518475	0.058661	0.309904
O23	O	0.899276	-0.441094	-0.309388
O24	O	1.399276	0.058906	0.190612
O25	O	1.018739	-0.569745	-0.519089
O26	O	1.518739	-0.069745	-0.019089
O27	O	0.899327	-0.569967	-0.399770
O28	O	1.399327	-0.069967	0.100230
O29	O	1.109165	-0.440704	-0.519114
O30	O	1.609165	0.059296	-0.019114
O31	O	1.108908	-0.740486	-0.309378
O32	O	1.608908	-0.240486	0.190622
O33	O	1.018593	-0.740300	-0.399764
O34	O	1.518593	-0.240300	0.100236
C35	C	0.872599	-0.505529	-0.354577
C36	C	1.372599	-0.005529	0.145423
C37	C	0.790800	-0.505546	-0.354585
C38	C	1.290800	-0.005546	0.145415
C39	C	0.602652	-0.572756	-0.401587
C40	C	1.102652	-0.072756	0.098413
C41	C	0.525793	-0.572759	-0.401597
C42	C	1.025793	-0.072759	0.098403
C43	C	0.525710	-0.438356	-0.307624
C44	C	1.025710	0.061644	0.192376
C45	C	0.602568	-0.438348	-0.307619
C46	C	1.102568	0.061652	0.192381
C47	C	0.641036	-0.505554	-0.354600
C48	C	1.141036	-0.005554	0.145400
C49	C	0.487320	-0.505565	-0.354614
C50	C	0.987320	-0.005565	0.145386
C51	C	0.403987	-0.505568	-0.354623
C52	C	0.903987	-0.005568	0.145377
C53	C	0.724375	-0.505550	-0.354591
C54	C	1.224375	-0.005550	0.145409
C55	C	1.063761	-0.778514	-0.354582
C56	C	1.563761	-0.278514	0.145418
C57	C	1.063810	-0.895290	-0.354600
C58	C	1.563810	-0.395290	0.145400
C59	C	1.110889	-0.950214	-0.307588
C60	C	1.610889	-0.450214	0.192412
C61	C	1.110934	-1.059938	-0.307611
C62	C	1.610934	-0.559938	0.192389
C63	C	1.016815	-1.059805	-0.401660
C64	C	1.516815	-0.559805	0.098340
C65	C	1.016774	-0.950083	-0.401640
C66	C	1.516774	-0.450083	0.098360
C67	C	1.157925	-0.895422	-0.260548
C68	C	1.657925	-0.395422	0.239452
C69	C	1.205008	-0.950346	-0.213532
C70	C	1.705008	-0.450346	0.286468
C71	C	1.205053	-1.060070	-0.213555
C72	C	1.705053	-0.560070	0.286445
C73	C	1.158016	-1.114870	-0.260594
C74	C	1.658016	-0.614870	0.239406
C75	C	1.255758	-0.505565	-0.354619
C76	C	1.755758	-0.005565	0.145381
C77	C	1.337557	-0.505573	-0.354628
C78	C	1.837557	-0.005573	0.145372
C79	C	1.063977	-0.505171	-0.546551
C80	C	1.563977	-0.005171	-0.046551
C81	C	1.064050	-0.505010	-0.628350
C82	C	1.564050	-0.005010	-0.128350
C83	C	1.063869	-0.231513	-0.354629
C84	C	1.563869	0.268487	0.145371
C85	C	1.063896	-0.114736	-0.354643
C86	C	1.563896	0.385264	0.145357
C87	C	1.063676	-0.505845	-0.163391
C88	C	1.563676	-0.005845	0.336609
C89	C	1.063745	-0.505709	-0.081592
C90	C	1.563745	-0.005709	0.418408
C91	C	1.110664	-0.437636	0.183258
C92	C	1.610664	0.062364	0.683258
C93	C	1.110611	-0.437752	0.106399
C94	C	1.610611	0.062248	0.606399
C95	C	1.017127	-0.573087	0.106805
C96	C	1.517127	-0.073087	0.606805
C97	C	1.017176	-0.572965	0.183662
C98	C	1.517176	-0.072965	0.683662
C99	C	1.063949	-0.505241	0.221887
C100	C	1.563949	-0.005241	0.721887
C101	C	1.063847	-0.505479	0.068171
C102	C	1.563847	-0.005479	0.568171
C103	C	1.063789	-0.505605	-0.015163
C104	C	1.563789	-0.005605	0.484837
C105	C	1.064005	-0.505113	0.305225
C106	C	1.564005	-0.005113	0.805225
H107	H	0.633821	-0.383618	-0.269356
H108	H	1.133821	0.116382	0.230644
Cl109	Cl	0.477345	-0.353876	-0.248564
Cl110	Cl	0.977345	0.146124	0.251436
H111	H	1.157892	-0.806079	-0.260523
H112	H	1.657892	-0.306079	0.239477
H113	H	0.979130	-0.628017	0.215114
H114	H	1.479130	-0.128017	0.715114
H115	H	1.148650	-0.382699	0.074951
H116	H	1.648650	0.117301	0.574951
H117	H	1.243395	-1.104786	-0.175277
H118	H	1.743395	-0.604786	0.324723
H119	H	0.978519	-1.104432	-0.439956
H120	H	1.478519	-0.604432	0.060044
H121	H	0.979047	-0.628228	0.075673
H122	H	1.479047	-0.128228	0.575673
H123	H	0.494543	-0.627480	-0.439860
H124	H	0.994543	-0.127480	0.060140
Cl125	Cl	1.169461	-0.352493	0.231309
Cl126	Cl	1.669461	0.147507	0.731309
H127	H	1.243308	-0.905722	-0.175238
H128	H	1.743308	-0.405722	0.324762
H129	H	1.158062	-1.204215	-0.260614
H130	H	1.658062	-0.704215	0.239386
Cl131	Cl	0.651010	-0.657239	-0.460652
Cl132	Cl	1.151010	-0.157239	0.039348
H133	H	0.978438	-0.905364	-0.439922
H134	H	1.478438	-0.405364	0.060078
