data_functionalizedCrystal
_audit_creation_method	'MofGen! by Chris Wilmer'
_symmetry_space_group_name_H-M	'P1'
_symmetry_Int_Tables_number	1
_symmetry_cell_setting	triclinic
loop_
_symmetry_equiv_pos_as_xyz
  x,y,z
_cell_length_a	14.519731
_cell_length_b	14.519731
_cell_length_c	13.596369
_cell_angle_alpha	90.005365
_cell_angle_beta	89.993633
_cell_angle_gamma	96.311147
loop_
_atom_site_label
_atom_site_type_symbol
_atom_site_fract_x
_atom_site_fract_y
_atom_site_fract_z
O1	O	1.223868	-0.120977	-0.081806
O2	O	1.723868	0.379023	0.418194
O3	O	0.955395	-0.135193	-0.081809
O4	O	1.455395	0.364807	0.418191
O5	O	1.096739	0.006152	-0.081787
O6	O	1.596739	0.506152	0.418213
O7	O	1.082523	-0.262321	-0.081827
O8	O	1.582523	0.237679	0.418173
O9	O	1.096721	0.006143	0.081796
O10	O	1.596721	0.506143	0.581796
O11	O	0.955376	-0.135202	0.081774
O12	O	1.455376	0.364798	0.581774
O13	O	1.223849	-0.120986	0.081777
O14	O	1.723849	0.379014	0.581777
Zn15	Zn	1.089610	-0.128095	0.107748
Zn16	Zn	1.589610	0.371905	0.607748
Zn17	Zn	1.089634	-0.128083	-0.107779
Zn18	Zn	1.589634	0.371917	0.392221
O19	O	1.082505	-0.262330	0.081756
O20	O	1.582505	0.237670	0.581756
C21	C	0.921026	-0.134531	-0.000017
C22	C	1.421026	0.365469	0.499983
C23	C	0.818645	-0.132535	-0.000017
C24	C	1.318645	0.367465	0.499983
C25	C	0.735501	-0.130913	-0.000021
C26	C	1.235501	0.369087	0.499979
C27	C	0.631192	-0.128887	-0.000021
C28	C	1.131192	0.371113	0.499979
C29	C	0.548053	-0.127278	-0.000021
C30	C	1.048053	0.372722	0.499979
C31	C	0.443738	-0.125252	-0.000023
C32	C	0.943738	0.374748	0.499977
C33	C	1.096064	0.040507	0.000007
C34	C	1.596064	0.540507	0.500007
C35	C	1.094068	0.142887	0.000016
C36	C	1.594068	0.642887	0.500016
C37	C	1.258218	-0.121648	-0.000016
C38	C	1.758218	0.378352	0.499984
C39	C	1.360598	-0.123644	-0.000022
C40	C	1.860598	0.376356	0.499978
C41	C	1.092446	0.226031	0.000021
C42	C	1.592446	0.726031	0.500021
C43	C	1.090419	0.330340	0.000022
C44	C	1.590419	0.830340	0.500022
C45	C	1.088811	0.413479	0.000022
C46	C	1.588811	0.913479	0.500022
C47	C	1.086785	0.517795	0.000025
C48	C	1.586785	1.017795	0.500025
N49	N	1.089600	-0.128103	0.254840
N50	N	1.589600	0.371897	0.754840
C51	C	1.083180	0.703315	-0.000020
C52	C	1.583180	1.203315	0.499980
C53	C	1.085176	0.600934	0.000025
C54	C	1.585176	1.100934	0.500025
C55	C	1.089604	-0.128105	0.343838
C56	C	1.589604	0.371895	0.843838
C57	C	1.089612	-0.128100	0.455489
C58	C	1.589612	0.371900	0.955489
C59	C	1.089624	-0.128090	0.544480
C60	C	1.589624	0.371910	1.044480
C61	C	1.089633	-0.128085	0.656138
C62	C	1.589633	0.371915	1.156138
N63	N	1.089645	-0.128076	0.745129
N64	N	1.589645	0.371924	1.245129
