data_functionalizedCrystal
_audit_creation_method	'MofGen! by Chris Wilmer'
_symmetry_space_group_name_H-M	'P1'
_symmetry_Int_Tables_number	1
_symmetry_cell_setting	triclinic
loop_
_symmetry_equiv_pos_as_xyz
  x,y,z
_cell_length_a	31.640172
_cell_length_b	19.377369
_cell_length_c	19.377372
_cell_angle_alpha	62.058157
_cell_angle_beta	89.992182
_cell_angle_gamma	48.630955
loop_
_atom_site_label
_atom_site_type_symbol
_atom_site_fract_x
_atom_site_fract_y
_atom_site_fract_z
Zr1	Zr	0.331115	0.759432	0.055767
O2	O	0.233077	0.943863	-0.042147
O3	O	0.369155	0.607624	0.064423
O4	O	0.332771	0.806464	-0.072958
O5	O	0.289077	0.696546	0.227899
O6	O	0.402327	0.806455	-0.072965
O7	O	0.269461	0.745022	0.095234
O8	O	0.467411	0.450766	0.172784
O9	O	0.223993	1.052235	-0.017850
O10	O	0.427639	0.657975	0.093915
O11	O	0.390370	0.621805	0.192927
O12	O	0.347532	0.855914	0.031179
O13	O	0.310263	0.819744	0.130191
Zr14	Zr	0.473335	0.682104	0.267340
Zr15	Zr	0.442050	0.759417	0.055754
Zr16	Zr	0.362401	0.682119	0.267352
Zr17	Zr	0.316628	0.932274	0.094517
Zr18	Zr	0.487823	0.509262	0.228589
O19	O	0.435296	0.833912	0.258683
O20	O	0.390812	0.943842	-0.042164
O21	O	0.277561	0.833933	0.258701
O22	O	0.571373	0.497673	0.365253
O23	O	0.526889	0.607603	0.064406
O24	O	0.413639	0.497694	0.365271
O25	O	0.515373	0.744990	0.095207
O26	O	0.471680	0.635072	0.396064
O27	O	0.402123	0.635081	0.396072
O28	O	0.534990	0.696514	0.227872
O29	O	0.312171	1.052224	-0.017860
O30	O	0.492279	0.389312	0.340966
O31	O	0.580457	0.389300	0.340956
O32	O	0.555589	0.450754	0.172774
O33	O	0.248861	0.990782	0.150332
O34	O	0.337039	0.990770	0.150322
O35	O	0.456918	0.585621	0.291928
O36	O	0.494188	0.621792	0.192915
O37	O	0.414081	0.819730	0.130179
O38	O	0.376811	0.783560	0.229191
C39	C	0.420347	0.504568	0.113083
C40	C	0.426498	0.431192	0.096632
C41	C	0.263463	0.720786	0.161569
C42	C	0.216369	0.720792	0.161574
C43	C	0.349715	0.095054	0.301225
C44	C	0.355575	0.025989	0.285838
C45	C	0.394482	0.063758	0.182477
C46	C	0.388628	0.132822	0.197859
C47	C	0.366243	0.148465	0.257233
C48	C	0.405156	0.186233	0.153867
C49	C	0.399299	0.255297	0.169244
C50	C	0.376914	0.270949	0.228614
C51	C	0.360386	0.217529	0.272611
C52	C	0.427536	0.170596	0.094488
C53	C	0.444065	0.224007	0.050496
C54	C	0.438212	0.293065	0.065877
C55	C	0.415826	0.308717	0.125247
C56	C	0.454739	0.346486	0.021880
C57	C	0.448882	0.415549	0.037258
C58	C	0.409969	0.377781	0.140624
C59	C	-0.086441	0.747456	0.088465
C60	C	-0.263428	0.747447	0.088455
O61	O	-0.295484	0.770109	0.026313
N62	N	-0.274752	0.720744	0.161541
C63	C	-0.241823	0.694033	0.234637
O64	O	-0.255512	0.671308	0.296804
C65	C	-0.064834	0.694034	0.234648
C66	C	-0.053518	0.720751	0.161554
C67	C	-0.075123	0.774169	0.015377
C68	C	-0.030882	0.774178	0.015379
C69	C	0.002042	0.747473	0.088468
C70	C	-0.009276	0.720759	0.161555
C71	C	-0.031903	0.667316	0.307746
C72	C	0.012347	0.667316	0.307743
C73	C	0.023664	0.694032	0.234649
C74	C	0.067889	0.694062	0.234646
N75	N	0.079213	0.720766	0.161560
C76	C	0.046290	0.747471	0.088471
C77	C	-0.334747	0.694037	0.234625
C78	C	-0.378995	0.694038	0.234621
C79	C	-0.400595	0.747450	0.088440
C80	C	-0.356350	0.747456	0.088442
C81	C	-0.323422	0.720740	0.161539
C82	C	0.139201	0.747487	0.088479
C83	C	0.183445	0.747498	0.088485
C84	C	0.205044	0.694080	0.234667
C85	C	0.160801	0.694075	0.234660
C86	C	0.127881	0.720777	0.161560
O87	O	0.099973	0.671399	0.296759
O88	O	0.059997	0.770167	0.026321
C89	C	-0.130683	0.747448	0.088464
C90	C	-0.142001	0.720735	0.161552
C91	C	-0.109077	0.694029	0.234641
C92	C	-0.186249	0.720736	0.161548
C93	C	-0.219172	0.747441	0.088459
C94	C	-0.207848	0.774145	0.015374
C95	C	-0.163607	0.774153	0.015375
C96	C	-0.120402	0.667326	0.307726
C97	C	-0.164645	0.667321	0.307719
C98	C	-0.197568	0.694026	0.234630
C99	C	0.540987	0.720750	0.161538
C100	C	0.588082	0.720743	0.161532
C101	C	0.363092	0.817475	-0.103108
C102	C	0.349810	0.850297	-0.192932
C103	C	0.384103	0.936967	0.210024
C104	C	0.377953	1.010344	0.226474
C105	C	0.515185	0.441644	-0.324616
C106	C	0.502691	0.472513	-0.409027
C107	C	0.419066	0.679145	-0.474509
C108	C	0.431555	0.648295	-0.390102
C109	C	0.479614	0.529542	-0.315160
C110	C	0.395984	0.736193	-0.380646
C111	C	0.408469	0.705344	-0.296246
C112	C	0.456526	0.586597	-0.221301
C113	C	0.492100	0.498693	-0.230760
C114	C	0.347921	0.854944	-0.455589
C115	C	0.312351	0.942842	-0.446134
C116	C	0.324839	0.911994	-0.361732
C117	C	0.372895	0.793248	-0.286787
C118	C	0.289265	0.999898	-0.352274
C119	C	0.301750	0.969049	-0.267873
C120	C	0.385381	0.762399	-0.202387
C121	C	0.441359	0.624061	0.426214
C122	C	0.454641	0.591239	0.516038
C123	C	0.559109	0.504550	0.113067
C124	C	0.612354	0.431168	0.096611
C125	C	0.459481	0.407861	0.377744
C126	C	0.478913	0.301664	0.451117
C127	C	0.598243	0.407843	0.377728
C128	C	0.664769	0.301639	0.451096
C129	C	0.206208	1.033693	-0.054622
C130	C	0.139681	1.139897	-0.127990
C131	C	0.245341	0.936986	0.210039
C132	C	0.192096	1.010368	0.226495
C133	C	0.344970	1.033675	-0.054637
C134	C	0.325538	1.139872	-0.128011
C135	C	0.602620	0.415597	0.037197
C136	C	0.652641	0.346664	0.021718
C137	C	0.712397	0.293294	0.065658
C138	C	0.722131	0.308871	0.125075
C139	C	0.672109	0.377811	0.140549
C140	C	0.522777	0.232901	0.537260
C141	C	0.541034	0.133124	0.606212
C142	C	0.515429	0.102106	0.589018
C143	C	0.471559	0.170879	0.502867
C144	C	0.453300	0.270659	0.433918
C145	C	0.715470	0.270645	0.433867
C146	C	0.777981	0.170868	0.502798
C147	C	0.789790	0.102081	0.588956
C148	C	0.739084	0.133083	0.606185
C149	C	0.676574	0.232863	0.537256
C150	C	0.088980	1.170899	-0.110759
C151	C	0.026467	1.270698	-0.179685
C152	C	0.014657	1.339488	-0.265842
C153	C	0.065364	1.308482	-0.283072
C154	C	0.127875	1.208690	-0.214145
C155	C	0.201829	1.025949	0.285902
C156	C	0.151803	1.094910	0.301362
C157	C	0.092046	1.148283	0.257420
C158	C	0.082313	1.132702	0.198006
C159	C	0.132338	1.063748	0.182542
C160	C	0.351154	1.170856	-0.110790
C161	C	0.332908	1.270628	-0.179726
C162	C	0.289042	1.339419	-0.265880
C163	C	0.263425	1.308427	-0.283101
C164	C	0.281675	1.208652	-0.214167
H165	H	0.391742	0.390517	0.188973
Cl166	Cl	0.640392	0.327092	-0.052976
Cl167	Cl	0.868379	-0.023357	0.675601
H168	H	-0.173857	0.645573	0.367242
Cl169	Cl	0.191610	1.169723	-0.235824
H170	H	0.553965	0.459057	0.001403
Cl171	Cl	0.472202	0.204337	-0.024146
H172	H	0.530303	0.020856	0.645169
Cl173	Cl	-0.079017	0.633753	0.399618
Cl174	Cl	0.251932	1.092125	-0.540351
Cl175	Cl	0.053741	0.633724	0.399644
Cl176	Cl	0.276946	0.958870	0.341151
Cl177	Cl	0.434895	0.083777	0.075155
H178	H	0.033652	1.176168	0.162232
H179	H	-0.427411	0.769197	0.028927
H180	H	-0.154397	0.795908	-0.044145
H181	H	-0.388212	0.672301	0.294135
Cl182	Cl	0.797259	0.241764	0.180311
Cl183	Cl	0.547415	0.361998	-0.420907
Cl184	Cl	0.029164	1.234962	0.276873
H185	H	0.379935	0.775833	-0.535537
H186	H	0.705866	0.326640	0.363717
Cl187	Cl	0.841716	0.131913	0.481118
H188	H	0.635295	0.258085	0.551295
Cl189	Cl	0.197667	0.781089	-0.003412
Cl190	Cl	0.103810	1.084438	-0.002453
H191	H	-0.347139	0.769211	0.028923
Cl192	Cl	0.369546	0.357779	0.247942
Cl193	Cl	0.445818	0.613107	-0.108168
Cl194	Cl	0.775277	0.206627	0.046196
Cl195	Cl	0.246440	0.660510	0.326547
H196	H	0.260809	1.183438	-0.228200
H197	H	-0.014812	1.295924	-0.165640
Cl198	Cl	-0.046118	0.633723	0.399641
H199	H	0.576757	0.077139	0.676354
Cl200	Cl	0.266103	1.464852	-0.352531
H201	H	0.342159	0.230265	0.320960
Cl202	Cl	0.472219	0.547813	-0.115195
Cl203	Cl	0.684359	0.397364	0.215252
H204	H	0.331487	0.107790	0.349575
H205	H	0.159740	1.107581	0.349744
H206	H	0.543632	0.258141	0.551276
Cl207	Cl	0.146569	0.660505	0.326547
H208	H	0.227707	1.364452	-0.353257
H209	H	0.748709	0.077063	0.676344
H210	H	0.342113	-0.017496	0.321664
H211	H	0.055741	1.364503	-0.353229
Cl212	Cl	0.439378	0.131867	0.481266
Cl213	Cl	-0.249248	0.807721	-0.076510
Cl214	Cl	0.398157	0.357088	0.325624
Cl215	Cl	-0.063932	1.464938	-0.352485
Cl216	Cl	0.332225	0.893725	-0.561694
Cl217	Cl	0.120093	1.044163	0.107860
H218	H	0.386872	1.114859	-0.040643
H219	H	0.412706	0.051016	0.134132
Cl220	Cl	0.482869	0.326825	-0.052769
Cl221	Cl	0.365115	1.309572	-0.158057
H222	H	0.554323	0.344944	-0.263592
Cl223	Cl	0.097821	0.781059	-0.003420
Cl224	Cl	-0.016656	0.807754	-0.076511
Cl225	Cl	-0.116508	0.807747	-0.076518
Cl226	Cl	0.469660	0.482700	-0.018048
H227	H	-0.307939	0.672281	0.294151
H228	H	0.531238	0.401993	-0.169736
H229	H	0.250131	1.096585	-0.413302
H230	H	0.272783	1.040624	-0.260177
