data_functionalizedCrystal
_audit_creation_method	'MofGen! by Chris Wilmer'
_symmetry_space_group_name_H-M	'P1'
_symmetry_Int_Tables_number	1
_symmetry_cell_setting	triclinic
loop_
_symmetry_equiv_pos_as_xyz
  x,y,z
_cell_length_a	14.519709
_cell_length_b	10.654550
_cell_length_c	9.730223
_cell_angle_alpha	90.001620
_cell_angle_beta	90.002617
_cell_angle_gamma	95.917476
loop_
_atom_site_label
_atom_site_type_symbol
_atom_site_fract_x
_atom_site_fract_y
_atom_site_fract_z
O1	O	1.224719	-0.164620	-0.114107
O2	O	0.956343	-0.184006	-0.114149
O3	O	1.096702	0.008486	-0.114122
O4	O	1.084361	-0.357112	-0.114134
O5	O	1.096693	0.008485	0.114458
O6	O	0.956334	-0.184007	0.114431
O7	O	1.224711	-0.164620	0.114473
Zn8	Zn	1.090521	-0.174314	0.150744
Zn9	Zn	1.090532	-0.174313	-0.150420
O10	O	1.084352	-0.357112	0.114446
C11	C	1.095791	0.055275	0.000166
C12	C	1.093080	0.194692	0.000161
C13	C	0.921974	-0.183103	0.000136
C14	C	0.819579	-0.180396	0.000120
N15	N	1.090520	-0.174314	0.356280
C16	C	0.444631	-0.170428	0.000183
C17	C	0.548954	-0.173196	0.000165
C18	C	0.632102	-0.175412	0.000150
C19	C	0.736431	-0.178180	0.000135
C20	C	1.259079	-0.165524	0.000185
C21	C	1.361475	-0.168231	0.000192
C22	C	1.085262	-0.403901	0.000155
C23	C	1.087973	-0.543318	0.000151
C24	C	1.175721	0.274972	0.000178
C25	C	1.173168	0.405968	0.000168
C26	C	1.005326	0.376391	0.000130
C27	C	1.007880	0.245397	0.000130
C28	C	1.272623	0.292049	0.000206
C29	C	1.270070	0.423046	0.000196
N30	N	1.090541	-0.174303	-0.355956
C31	C	1.152698	-0.089099	0.572102
C32	C	1.152690	-0.089106	0.428219
C33	C	1.028360	-0.259527	0.428232
C34	C	1.028373	-0.259524	0.572112
C35	C	1.224477	0.009296	0.572094
C36	C	1.224469	0.009289	0.428211
H37	H	0.940586	0.180037	0.000097
H38	H	1.295352	-0.011530	0.611130
N39	N	1.196358	0.123449	0.628076
N40	N	1.175292	0.208933	0.549681
H41	H	1.155430	0.289554	0.589218
N42	N	1.308450	-0.028335	0.372228
N43	N	1.371351	-0.056495	0.450622
H44	H	1.430653	-0.083095	0.411083
N45	N	1.204569	0.130105	0.379135
N46	N	1.129779	0.171400	0.410152
H47	H	1.115677	0.256690	0.375455
H48	H	0.935959	0.417692	0.000103
H49	H	0.977767	-0.328915	0.630686
H50	H	0.977745	-0.328913	0.369650
H51	H	1.310529	0.263056	-0.095442
N52	N	1.311314	0.247714	0.124030
N53	N	1.274064	0.265786	0.237141
H54	H	1.301385	0.234474	0.324596
N55	N	1.306804	0.480648	-0.123618
N56	N	1.336450	0.414245	-0.216330
H57	H	1.362389	0.454926	-0.303775
N58	N	1.315866	0.475864	0.120209
N59	N	1.350217	0.405652	0.204777
H60	H	1.382557	0.442952	0.289536
