data_functionalizedCrystal
_audit_creation_method	'MofGen! by Chris Wilmer'
_symmetry_space_group_name_H-M	'P1'
_symmetry_Int_Tables_number	1
_symmetry_cell_setting	triclinic
loop_
_symmetry_equiv_pos_as_xyz
  x,y,z
_cell_length_a	8.597187
_cell_length_b	8.559649
_cell_length_c	15.186229
_cell_angle_alpha	90.002556
_cell_angle_beta	97.705751
_cell_angle_gamma	77.625088
loop_
_atom_site_label
_atom_site_type_symbol
_atom_site_fract_x
_atom_site_fract_y
_atom_site_fract_z
O1	O	2.053780	0.238057	0.229044
O2	O	1.594638	0.256314	0.194210
O3	O	1.864660	0.015216	0.214695
O4	O	1.783758	0.479155	0.208559
O5	O	1.864642	0.015210	0.068236
O6	O	1.594620	0.256308	0.047751
O7	O	2.053762	0.238051	0.082585
Zn8	Zn	1.824188	0.247178	0.041915
Zn9	Zn	1.824212	0.247186	0.234880
O10	O	1.783740	0.479149	0.062100
C11	C	1.536393	0.254350	0.116563
C12	C	1.362870	0.248485	0.103398
C13	C	1.870782	-0.044221	0.141932
C14	C	1.889031	-0.221316	0.143322
C15	C	2.112008	0.240015	0.160235
C16	C	2.285531	0.245879	0.173405
C17	C	1.777618	0.538586	0.134865
C18	C	1.759369	0.715681	0.133481
N19	N	1.824184	0.247172	-0.089778
C20	C	1.943788	0.140451	-0.398623
C21	C	1.943784	0.140451	-0.306434
C22	C	1.704619	0.353913	-0.324588
C23	C	1.704632	0.353919	-0.416775
C24	C	1.824215	0.247179	-0.453790
C25	C	1.824199	0.247173	-0.269414
C26	C	1.824193	0.247175	-0.169458
C27	C	1.824223	0.247179	-0.553752
N28	N	1.824230	0.247180	0.366574
H29	H	1.352076	0.248136	0.243411
H30	H	1.634397	-0.202775	0.123997
C31	C	1.272991	0.245450	0.008825
C32	C	1.329705	0.108076	-0.052754
C33	C	1.239815	0.105040	-0.147328
C34	C	1.093211	0.239380	-0.180323
C35	C	1.036490	0.376765	-0.118743
C36	C	1.126380	0.379800	-0.024168
H37	H	1.438236	0.008620	-0.028330
H38	H	1.281804	0.003338	-0.192914
H39	H	1.026669	0.237133	-0.250333
H40	H	0.927958	0.476220	-0.143167
H41	H	1.084390	0.481503	0.021417
C42	C	2.075338	0.023052	-0.439340
C43	C	2.206890	-0.094316	-0.378650
C44	C	2.338447	-0.211714	-0.419363
C45	C	2.338451	-0.211745	-0.520766
C46	C	2.206893	-0.094373	-0.581462
C47	C	2.075336	0.023026	-0.540749
H48	H	2.206892	-0.094297	-0.303580
H49	H	2.435835	-0.298601	-0.374431
H50	H	2.435837	-0.298650	-0.550904
H51	H	2.206892	-0.094392	-0.656531
H52	H	1.977949	0.109912	-0.585680
C53	C	2.057877	-0.331473	0.156127
C54	C	2.175177	-0.322581	0.088976
C55	C	2.344019	-0.432738	0.101782
C56	C	2.395561	-0.551786	0.181738
C57	C	2.278259	-0.560683	0.248895
C58	C	2.109417	-0.450526	0.236089
H59	H	2.137025	-0.234450	0.029783
H60	H	2.430854	-0.426151	0.052067
H61	H	2.520548	-0.633330	0.191217
H62	H	2.316411	-0.648814	0.308088
H63	H	2.022582	-0.457113	0.285803
H64	H	2.041153	0.053546	-0.261518
H65	H	1.607255	0.440817	-0.294441
H66	H	1.607259	0.440838	-0.461696
