data_functionalizedCrystal
_audit_creation_method	'MofGen! by Chris Wilmer'
_symmetry_space_group_name_H-M	'P1'
_symmetry_Int_Tables_number	1
_symmetry_cell_setting	triclinic
loop_
_symmetry_equiv_pos_as_xyz
  x,y,z
_cell_length_a	12.759395
_cell_length_b	19.121063
_cell_length_c	12.759387
_cell_angle_alpha	92.403602
_cell_angle_beta	89.979491
_cell_angle_gamma	92.470426
loop_
_atom_site_label
_atom_site_type_symbol
_atom_site_fract_x
_atom_site_fract_y
_atom_site_fract_z
Zn1	Zn	1.588336	-0.279547	-0.611793
Zn2	Zn	1.580692	-0.397015	-0.443587
Zn3	Zn	1.412632	-0.279586	-0.436132
Zn4	Zn	1.405095	-0.396965	-0.619223
O5	O	1.496689	-0.338278	-0.527684
O6	O	1.734343	-0.295134	-0.589490
O7	O	1.558353	-0.381475	-0.295580
O8	O	1.442293	-0.181296	-0.453204
O9	O	1.728726	-0.381437	-0.465911
O10	O	1.571382	-0.181268	-0.582261
O11	O	1.434881	-0.295200	-0.290102
O12	O	1.264611	-0.295151	-0.460409
O13	O	1.429447	-0.381352	-0.765256
O14	O	1.259074	-0.381389	-0.594925
O15	O	1.564074	-0.295086	-0.759797
O16	O	1.551045	-0.495293	-0.473116
O17	O	1.422034	-0.495256	-0.602155
C18	C	1.223722	-0.338270	-0.527665
C19	C	1.106944	-0.338283	-0.527683
C20	C	1.101207	-0.428228	-0.667547
C21	C	1.043477	-0.473206	-0.737482
C22	C	0.933755	-0.473214	-0.737496
C23	C	0.881761	-0.428239	-0.667569
C24	C	0.939490	-0.383261	-0.597633
C25	C	1.049215	-0.383258	-0.597625
C26	C	0.945228	-0.293313	-0.457776
C27	C	1.054950	-0.293307	-0.457756
C28	C	0.893233	-0.248337	-0.387849
C29	C	0.950963	-0.203362	-0.317907
C30	C	1.060691	-0.203356	-0.317895
C31	C	1.112679	-0.248329	-0.387821
C32	C	1.484921	-0.520758	-0.539274
C33	C	1.479982	-0.598824	-0.544267
C34	C	1.544883	-0.635495	-0.479485
C35	C	1.540245	-0.708846	-0.484187
C36	C	1.470700	-0.745525	-0.553667
C37	C	1.405796	-0.708848	-0.618456
C38	C	1.410440	-0.635499	-0.613759
C39	C	1.453319	-0.966994	-0.571215
C40	C	1.448677	-1.040349	-0.575905
C41	C	1.583128	-1.040341	-0.441637
C42	C	1.587762	-0.966990	-0.436941
C43	C	1.522862	-0.930320	-0.501734
C44	C	1.465955	-0.820501	-0.558473
C45	C	1.527613	-0.855345	-0.496933
C46	C	1.770721	-0.338287	-0.527703
C47	C	1.887498	-0.338291	-0.527711
C48	C	1.496772	-0.338209	-0.801713
C49	C	1.496808	-0.338180	-0.918488
C50	C	1.508531	-0.155086	-0.516072
C51	C	1.513578	-0.077020	-0.511123
C52	C	1.637004	-0.248357	-0.912823
C53	C	1.707117	-0.203435	-0.964851
C54	C	1.707144	-0.203409	-1.074571
C55	C	1.637048	-0.248309	-1.132266
C56	C	1.566935	-0.293231	-1.080238
C57	C	1.566918	-0.293253	-0.970516
C58	C	1.426736	-0.383050	-1.085903
C59	C	1.426712	-0.383080	-0.976183
C60	C	1.356641	-0.427949	-1.143598
C61	C	1.286531	-0.472876	-1.091570
C62	C	1.286507	-0.472900	-0.981843
C63	C	1.356599	-0.428002	-0.924155
C64	C	1.496669	-0.338296	-0.254717
C65	C	1.496849	-0.338128	-0.137931
H66	H	1.107689	-0.166724	-0.260952
H67	H	1.392058	-1.070210	-0.632503
H68	H	1.584241	-0.825479	-0.440366
Cl69	Cl	1.108846	-0.529749	-0.825379
Cl70	Cl	1.356580	-0.428032	-0.786220
H71	H	0.792419	-0.428244	-0.667594
Cl72	Cl	1.328850	-0.589397	-0.695206
Cl73	Cl	1.621842	-0.754944	-0.402746
H74	H	1.637068	-0.248278	-1.221605
Cl75	Cl	1.250616	-0.248328	-0.387808
H76	H	1.601510	-0.605636	-0.422902
Cl77	Cl	1.675208	-0.920885	-0.349606
Cl78	Cl	1.239144	-0.428231	-0.667521
Cl79	Cl	1.371728	-0.920904	-0.652668
Cl80	Cl	1.664717	-1.086445	-0.360195
Cl81	Cl	0.755296	-0.248344	-0.387871
Cl82	Cl	1.318373	-0.754959	-0.705809
Cl83	Cl	1.378528	-0.866617	-0.645816
Cl84	Cl	0.861178	-0.529755	-0.825421
Cl85	Cl	1.636989	-0.248395	-0.774889
Cl86	Cl	0.885594	-0.146822	-0.230016
Cl87	Cl	1.356675	-0.427917	-1.281532
Cl88	Cl	1.795208	-0.146975	-0.892315
Cl89	Cl	1.795271	-0.146924	-1.139980
Cl90	Cl	1.198416	-0.529311	-1.164104
H91	H	1.229402	-0.509474	-0.939489
