data_functionalizedCrystal
_audit_creation_method	'MofGen! by Chris Wilmer'
_symmetry_space_group_name_H-M	'P1'
_symmetry_Int_Tables_number	1
_symmetry_cell_setting	triclinic
loop_
_symmetry_equiv_pos_as_xyz
  x,y,z
_cell_length_a	16.120530
_cell_length_b	19.805399
_cell_length_c	19.805405
_cell_angle_alpha	90.030709
_cell_angle_beta	92.878235
_cell_angle_gamma	87.087090
loop_
_atom_site_label
_atom_site_type_symbol
_atom_site_fract_x
_atom_site_fract_y
_atom_site_fract_z
Zn1	Zn	1.274491	-0.435095	0.322008
Zn2	Zn	1.607824	-0.101762	0.655342
Zn3	Zn	1.941158	0.231571	0.988675
Zn4	Zn	1.274393	-0.321900	0.435195
Zn5	Zn	1.607726	0.011434	0.768529
Zn6	Zn	1.941059	0.344767	1.101862
Zn7	Zn	1.135084	-0.316190	0.316283
Zn8	Zn	1.468417	0.017143	0.649616
Zn9	Zn	1.801751	0.350477	0.982950
Zn10	Zn	1.135033	-0.429318	0.429412
Zn11	Zn	1.468366	-0.095985	0.762745
Zn12	Zn	1.801699	0.237348	1.096078
O13	O	1.204750	-0.375626	0.375725
O14	O	1.538083	-0.042293	0.709058
O15	O	1.871417	0.291041	1.042391
O16	O	1.391143	-0.424887	0.341839
O17	O	1.724476	-0.091553	0.675173
O18	O	2.057810	0.241780	1.008506
O19	O	1.255893	-0.226425	0.419446
O20	O	1.589227	0.106908	0.752779
O21	O	1.922560	0.440242	1.086112
O22	O	1.153639	-0.331991	0.222328
O23	O	1.486973	0.001342	0.555662
O24	O	1.820306	0.334675	0.888995
O25	O	1.391071	-0.341722	0.424997
O26	O	1.724404	-0.008389	0.758331
O27	O	2.057737	0.324944	1.091664
O28	O	1.256061	-0.419350	0.226535
O29	O	1.589394	-0.086017	0.559868
O30	O	1.922728	0.247316	0.893201
O31	O	1.153544	-0.222230	0.332081
O32	O	1.486877	0.111103	0.665415
O33	O	1.820211	0.444437	0.998748
O34	O	1.018412	-0.326390	0.326473
O35	O	1.351745	0.006944	0.659806
O36	O	1.685079	0.340277	0.993140
O37	O	1.153552	-0.524802	0.415140
O38	O	1.486885	-0.191469	0.748473
O39	O	1.820218	0.141864	1.081807
O40	O	1.018374	-0.409505	0.409588
O41	O	1.351708	-0.076171	0.742922
O42	O	1.685041	0.257162	1.076255
O43	O	1.256011	-0.529046	0.336231
O44	O	1.589345	-0.195713	0.669564
O45	O	1.922678	0.137620	1.002898
O46	O	1.255844	-0.336121	0.529142
O47	O	1.589177	-0.002787	0.862475
O48	O	1.922510	0.330546	1.195809
O49	O	1.153456	-0.415041	0.524893
O50	O	1.486790	-0.081708	0.858226
O51	O	1.820123	0.251626	1.191560
C52	C	0.988143	-0.366701	0.366782
C53	C	1.321477	-0.033368	0.700116
C54	C	1.654810	0.299966	1.033449
C55	C	0.895478	-0.362899	0.362973
C56	C	1.228811	-0.029566	0.696306
C57	C	1.562145	0.303768	1.029640
C58	C	1.204787	-0.552170	0.375679
C59	C	1.538120	-0.218837	0.709012
C60	C	1.871453	0.114496	1.042346
C61	C	1.204802	-0.627403	0.375660
C62	C	1.538136	-0.294070	0.708993
C63	C	1.871469	0.039264	1.042326
C64	C	1.151524	-0.660563	0.330166
C65	C	1.484857	-0.327230	0.663499
C66	C	1.818191	0.006104	0.996832
C67	C	1.151535	-0.731252	0.330153
C68	C	1.484869	-0.397918	0.663486
C69	C	1.818202	-0.064585	0.996820
C70	C	1.204830	-0.768780	0.375632
C71	C	1.538163	-0.435446	0.708965
C72	C	1.871497	-0.102113	1.042298
C73	C	1.258111	-0.735615	0.421131
C74	C	1.591444	-0.402281	0.754464
C75	C	1.924777	-0.068948	1.087797
C76	C	1.258094	-0.664927	0.421146
C77	C	1.591428	-0.331594	0.754479
C78	C	1.924761	0.001740	1.087813
C79	C	1.258177	-1.020691	0.421070
C80	C	1.591510	-0.687358	0.754403
C81	C	1.924843	-0.354024	1.087737
C82	C	1.258191	-1.091384	0.421050
C83	C	1.591524	-0.758050	0.754383
C84	C	1.924857	-0.424717	1.087716
C85	C	1.151618	-1.087016	0.330077
C86	C	1.484951	-0.753683	0.663410
C87	C	1.818285	-0.420349	0.996744
C88	C	1.151602	-1.016328	0.330092
C89	C	1.484935	-0.682995	0.663426
C90	C	1.818268	-0.349661	0.996759
C91	C	1.204879	-0.983169	0.375593
C92	C	1.538212	-0.649836	0.708927
C93	C	1.871545	-0.316502	1.042260
C94	C	1.204864	-0.906520	0.375607
C95	C	1.538198	-0.573187	0.708941
C96	C	1.871531	-0.239853	1.042274
C97	C	1.204849	-0.845428	0.375615
C98	C	1.538182	-0.512094	0.708948
C99	C	1.871516	-0.178761	1.042281
C100	C	0.725817	-0.355963	0.356003
C101	C	1.059151	-0.022630	0.689336
C102	C	1.392484	0.310703	1.022669
C103	C	0.684523	-0.395338	0.395496
C104	C	1.017857	-0.062004	0.728830
C105	C	1.351190	0.271329	1.062163
C106	C	0.590118	-0.391479	0.391618
C107	C	0.923452	-0.058145	0.724951
C108	C	1.256785	0.275188	1.058285
C109	C	0.820231	-0.359822	0.359880
C110	C	1.153564	-0.026488	0.693213
C111	C	1.486897	0.306845	1.026547
C112	C	1.422203	-0.384586	0.384702
C113	C	1.755536	-0.051253	0.718035
C114	C	2.088869	0.282081	1.051369
C115	C	1.514868	-0.388404	0.388528
C116	C	1.848201	-0.055071	0.721861
C117	C	2.181535	0.278263	1.055195
C118	C	1.204656	-0.375589	0.551577
C119	C	1.537990	-0.042256	0.884910
C120	C	1.871323	0.291077	1.218243
C121	C	1.204692	-0.375599	0.626810
C122	C	1.538026	-0.042266	0.960143
C123	C	1.871359	0.291067	1.293477
C124	C	1.204762	-0.199770	0.375723
C125	C	1.538095	0.133563	0.709056
C126	C	1.871428	0.466896	1.042390
C127	C	1.204908	-0.124545	0.375558
C128	C	1.538241	0.208789	0.708892
C129	C	1.871574	0.542122	1.042225
C130	C	1.204867	-0.375678	0.199187
C131	C	1.538200	-0.042345	0.532520
C132	C	1.871534	0.290988	0.865853
C133	C	1.204917	-0.375701	0.123957
C134	C	1.538250	-0.042367	0.457290
C135	C	1.871583	0.290966	0.790623
C136	C	1.258057	-0.334553	0.664347
C137	C	1.591391	-0.001220	0.997680
C138	C	1.924724	0.332114	1.331013
C139	C	1.258093	-0.334570	0.735036
C140	C	1.591426	-0.001236	1.068370
C141	C	1.924759	0.332097	1.401703
C142	C	1.204758	-0.375629	0.768188
C143	C	1.538092	-0.042296	1.101522
C144	C	1.871425	0.291038	1.434855
C145	C	1.151391	-0.416680	0.730647
C146	C	1.484725	-0.083347	1.063980
C147	C	1.818058	0.249987	1.397314
C148	C	1.151361	-0.416667	0.659959
C149	C	1.484694	-0.083333	0.993292
C150	C	1.818027	0.250000	1.326625
C151	C	1.151514	-0.416735	1.015725
C152	C	1.484847	-0.083402	1.349059
C153	C	1.818181	0.249931	1.682392
C154	C	1.151547	-0.416744	1.086419
C155	C	1.484880	-0.083411	1.419752
C156	C	1.818214	0.249923	1.753085
C157	C	1.258246	-0.334638	1.090803
C158	C	1.591580	-0.001305	1.424136
C159	C	1.924913	0.332029	1.757470
C160	C	1.258216	-0.334625	1.020115
C161	C	1.591549	-0.001291	1.353448
C162	C	1.924882	0.332042	1.686781
C163	C	1.204852	-0.375678	0.982580
C164	C	1.538185	-0.042345	1.315913
C165	C	1.871519	0.290989	1.649246
C166	C	1.204815	-0.375661	0.905930
C167	C	1.538149	-0.042327	1.239263
C168	C	1.871482	0.291006	1.572596
C169	C	1.204790	-0.375643	0.844837
C170	C	1.538124	-0.042310	1.178170
C171	C	1.871457	0.291023	1.511504
H172	H	1.108130	-0.630013	0.293128
H173	H	1.441463	-0.296679	0.626461
H174	H	1.774797	0.036654	0.959794
N175	N	1.312530	-0.631064	0.467616
N176	N	1.645864	-0.297731	0.800949
N177	N	1.979197	0.035603	1.134283
N178	N	1.389464	-0.642130	0.466302
N179	N	1.722797	-0.308797	0.799636
N180	N	2.056131	0.024536	1.132969
H181	H	1.427910	-0.618216	0.499125
H182	H	1.761243	-0.284883	0.832458
H183	H	2.094577	0.048450	1.165792
N184	N	0.729098	-0.441257	0.441581
N185	N	1.062431	-0.107924	0.774915
N186	N	1.395764	0.225410	1.108248
N187	N	0.690327	-0.478273	0.478720
N188	N	1.023660	-0.144940	0.812053
N189	N	1.356993	0.188394	1.145387
H190	H	0.721809	-0.510701	0.511269
H191	H	1.055142	-0.177367	0.844602
H192	H	1.388476	0.155966	1.177936
N193	N	0.681218	-0.310046	0.309937
N194	N	1.014551	0.023287	0.643271
N195	N	1.347885	0.356621	0.976604
N196	N	0.603480	-0.306940	0.306817
N197	N	0.936814	0.026393	0.640150
N198	N	1.270147	0.359727	0.973483
H199	H	0.571972	-0.274510	0.274285
H200	H	0.905305	0.058823	0.607618
H201	H	1.238639	0.392157	0.940951
N202	N	1.097103	-0.765113	0.283681
N203	N	1.430436	-0.431779	0.617014
N204	N	1.763769	-0.098446	0.950348
N205	N	1.049524	-0.731598	0.243077
N206	N	1.382857	-0.398265	0.576411
N207	N	1.716191	-0.064932	0.909744
H208	H	1.011076	-0.755512	0.210255
H209	H	1.344409	-0.422178	0.543589
H210	H	1.677743	-0.088845	0.876922
N211	N	1.312536	-0.292601	0.630496
N212	N	1.645870	0.040732	0.963830
N213	N	1.979203	0.374066	1.297163
N214	N	1.360179	-0.255956	0.664023
N215	N	1.693513	0.077378	0.997356
N216	N	2.026846	0.410711	1.330689
H217	H	1.398658	-0.226326	0.640118
H218	H	1.731992	0.107007	0.973452
H219	H	2.065325	0.440341	1.306785
H220	H	1.301549	-0.993701	0.458127
H221	H	1.634882	-0.660368	0.791460
H222	H	1.968216	-0.327035	1.124793
N223	N	1.312538	-0.773956	0.467587
N224	N	1.645871	-0.440623	0.800921
N225	N	1.979205	-0.107289	1.134254
N226	N	1.312547	-0.837069	0.467568
N227	N	1.645880	-0.503736	0.800902
N228	N	1.979213	-0.170403	1.134235
H229	H	1.350988	-0.864148	0.500379
H230	H	1.684321	-0.530815	0.833712
H231	H	2.017655	-0.197482	1.167045
N232	N	1.096910	-0.458631	0.764497
N233	N	1.430243	-0.125297	1.097830
N234	N	1.763576	0.208036	1.431163
N235	N	1.102385	-0.521314	0.756778
N236	N	1.435718	-0.187981	1.090112
N237	N	1.769052	0.145352	1.423445
H238	H	1.063904	-0.550943	0.780682
H239	H	1.397237	-0.217609	1.114015
H240	H	1.730570	0.115724	1.447349
H241	H	1.301547	-0.301145	0.765596
H242	H	1.634880	0.032188	1.098929
H243	H	1.968214	0.365522	1.432262
N244	N	1.096860	-0.458594	0.621603
N245	N	1.430193	-0.125261	0.954937
N246	N	1.763526	0.208073	1.288270
N247	N	1.126146	-0.502943	0.583317
N248	N	1.459480	-0.169609	0.916651
N249	N	1.792813	0.163724	1.249984
H250	H	1.087657	-0.532557	0.556228
H251	H	1.420990	-0.199224	0.889561
H252	H	1.754323	0.134109	1.222895
N253	N	1.312695	-0.292675	0.986262
N254	N	1.646028	0.040659	1.319595
N255	N	1.979361	0.373992	1.652929
N256	N	1.360340	-0.256028	1.019786
N257	N	1.693673	0.077305	1.353119
N258	N	2.027006	0.410638	1.686452
H259	H	1.398819	-0.226401	0.995879
H260	H	1.732152	0.106933	1.329212
H261	H	2.065486	0.440266	1.662545
N262	N	1.312753	-0.292706	1.129156
N263	N	1.646086	0.040628	1.462489
N264	N	1.979419	0.373961	1.795822
N265	N	1.312777	-0.292720	1.192270
N266	N	1.646110	0.040613	1.525603
N267	N	1.979443	0.373947	1.858936
H268	H	1.351268	-0.263104	1.219356
H269	H	1.684601	0.070229	1.552689
H270	H	2.017935	0.403562	1.886022
N271	N	1.097013	-0.458678	0.977396
N272	N	1.430346	-0.125345	1.310729
N273	N	1.763680	0.207988	1.644063
N274	N	1.102503	-0.521364	0.985481
N275	N	1.435836	-0.188030	1.318814
N276	N	1.769169	0.145303	1.652148
H277	H	1.064009	-0.550990	0.958410
H278	H	1.397342	-0.217657	1.291744
H279	H	1.730675	0.115676	1.625077
N280	N	1.097163	-0.978006	0.283628
N281	N	1.430496	-0.644672	0.616962
N282	N	1.763829	-0.311339	0.950295
N283	N	1.049595	-1.007622	0.243011
N284	N	1.382928	-0.674288	0.576345
N285	N	1.716262	-0.340955	0.909678
H286	H	1.011144	-0.980558	0.210196
H287	H	1.344477	-0.647225	0.543529
H288	H	1.677811	-0.313891	0.876862
N289	N	1.097201	-1.120898	0.283601
N290	N	1.430534	-0.787565	0.616934
N291	N	1.763867	-0.454232	0.950268
N292	N	1.097219	-1.184012	0.283590
N293	N	1.430552	-0.850679	0.616923
N294	N	1.763885	-0.517345	0.950256
H295	H	1.058790	-1.207942	0.250765
H296	H	1.392124	-0.874608	0.584099
H297	H	1.725457	-0.541275	0.917432
H298	H	1.108117	-0.450185	1.113409
H299	H	1.441450	-0.116851	1.446742
H300	H	1.774784	0.216482	1.780076
H301	H	1.301591	-1.121937	0.458087
H302	H	1.634925	-0.788604	0.791420
H303	H	1.968258	-0.455271	1.124753
