data_functionalizedCrystal
_audit_creation_method	'MofGen! by Chris Wilmer'
_symmetry_space_group_name_H-M	'P1'
_symmetry_Int_Tables_number	1
_symmetry_cell_setting	triclinic
loop_
_symmetry_equiv_pos_as_xyz
  x,y,z
_cell_length_a	10.908878
_cell_length_b	9.065215
_cell_length_c	8.140239
_cell_angle_alpha	89.997810
_cell_angle_beta	89.997076
_cell_angle_gamma	72.549744
loop_
_atom_site_label
_atom_site_type_symbol
_atom_site_fract_x
_atom_site_fract_y
_atom_site_fract_z
O1	O	0.187732	1.911451	-0.136591
O2	O	0.687732	2.411451	0.363409
O3	O	0.203137	1.478150	-0.136598
O4	O	0.703137	1.978150	0.363402
O5	O	0.009170	1.752240	-0.136587
O6	O	0.509170	2.252240	0.363413
O7	O	0.381699	1.637361	-0.136601
O8	O	0.881699	2.137361	0.363399
O9	O	0.009168	1.752228	0.136640
O10	O	0.509168	2.252228	0.636640
O11	O	0.203134	1.478138	0.136629
O12	O	0.703134	1.978138	0.636629
O13	O	0.187730	1.911439	0.136636
O14	O	0.687730	2.411439	0.636636
Zn15	Zn	0.195432	1.694787	0.180014
Zn16	Zn	0.695432	2.194787	0.680014
Zn17	Zn	0.195435	1.694802	-0.179975
Zn18	Zn	0.695435	2.194802	0.320025
O19	O	0.381697	1.637349	0.136626
O20	O	0.881697	2.137349	0.636626
C21	C	0.201656	1.423543	0.000015
C22	C	0.701656	1.923543	0.500015
C23	C	0.197232	1.260853	0.000012
C24	C	0.697232	1.760853	0.500012
C25	C	-0.038548	1.762970	0.000025
C26	C	0.461452	2.262970	0.500025
C27	C	-0.180729	1.794942	0.000020
C28	C	0.319271	2.294942	0.500020
C29	C	-0.231093	1.678282	0.000015
C30	C	0.268907	2.178282	0.500015
C31	C	-0.378045	1.711324	0.000009
C32	C	0.121955	2.211324	0.500009
C33	C	0.429415	1.626619	0.000010
C34	C	0.929415	2.126619	0.500010
C35	C	0.571596	1.594647	0.000005
C36	C	1.071596	2.094647	0.500005
C37	C	0.189211	1.966046	0.000020
C38	C	0.689211	2.466046	0.500020
C39	C	0.193635	2.128736	0.000012
C40	C	0.693635	2.628736	0.500012
N41	N	0.195429	1.694787	0.425696
N42	N	0.695429	2.194787	0.925696
N43	N	0.195428	1.694816	-0.425658
N44	N	0.695428	2.194816	0.074342
H45	H	-0.165420	1.553942	0.000023
H46	H	0.334580	2.053942	0.500023
H47	H	-0.443714	1.835672	0.000017
H48	H	0.056286	2.335672	0.500017
Br49	Br	-0.318964	1.387386	0.000029
Br50	Br	0.181036	1.887386	0.500029
Br51	Br	-0.290177	2.002192	0.000039
Br52	Br	0.209823	2.502192	0.500039
