data_functionalizedCrystal
_audit_creation_method	'MofGen! by Chris Wilmer'
_symmetry_space_group_name_H-M	'P1'
_symmetry_Int_Tables_number	1
_symmetry_cell_setting	triclinic
loop_
_symmetry_equiv_pos_as_xyz
  x,y,z
_cell_length_a	25.639243
_cell_length_b	25.639240
_cell_length_c	12.759401
_cell_angle_alpha	89.981216
_cell_angle_beta	89.992023
_cell_angle_gamma	90.046633
loop_
_atom_site_label
_atom_site_type_symbol
_atom_site_fract_x
_atom_site_fract_y
_atom_site_fract_z
Zn1	Zn	-0.799164	0.208191	0.594083
Zn2	Zn	-0.299164	0.708191	1.094083
Zn3	Zn	-0.799092	0.295606	0.418378
Zn4	Zn	-0.299092	0.795606	0.918378
Zn5	Zn	-0.711753	0.208190	0.418405
Zn6	Zn	-0.211753	0.708190	0.918405
Zn7	Zn	-0.711678	0.295602	0.594001
Zn8	Zn	-0.211678	0.795602	1.094001
O9	O	-0.755422	0.251897	0.506217
O10	O	-0.255422	0.751897	1.006217
O11	O	-0.872320	0.219789	0.570798
O12	O	-0.372320	0.719789	1.070798
O13	O	-0.787508	0.284011	0.271360
O14	O	-0.287508	0.784011	0.771360
O15	O	-0.723410	0.135025	0.441754
O16	O	-0.223410	0.635025	0.941754
O17	O	-0.872267	0.284012	0.441708
O18	O	-0.372267	0.784012	0.941708
O19	O	-0.787631	0.135026	0.570824
O20	O	-0.287631	0.635026	1.070824
O21	O	-0.723340	0.219788	0.271380
O22	O	-0.223340	0.719788	0.771380
O23	O	-0.638578	0.219784	0.441675
O24	O	-0.138578	0.719784	0.941675
O25	O	-0.723282	0.284005	0.741033
O26	O	-0.223282	0.784005	1.241033
O27	O	-0.638523	0.284004	0.570685
O28	O	-0.138523	0.784004	1.070685
O29	O	-0.787558	0.219785	0.741093
O30	O	-0.287558	0.719785	1.241093
O31	O	-0.787435	0.368771	0.441629
O32	O	-0.287435	0.868771	0.941629
O33	O	-0.723212	0.368767	0.570659
O34	O	-0.223212	0.868767	1.070659
C35	C	-0.619579	0.251894	0.506175
C36	C	-0.119579	0.751894	1.006175
C37	C	-0.561465	0.251905	0.506182
C38	C	-0.061465	0.751905	1.006182
C39	C	-0.755321	0.387740	0.506155
C40	C	-0.255321	0.887740	1.006155
C41	C	-0.755326	0.445854	0.506164
C42	C	-0.255326	0.945854	1.006164
C43	C	-0.755420	0.251895	0.780250
C44	C	-0.255420	0.751895	1.280250
C45	C	-0.755419	0.251894	0.897026
C46	C	-0.255419	0.751894	1.397026
C47	C	-0.201124	0.218508	0.573545
C48	C	0.298876	0.718508	1.073545
C49	C	-0.146520	0.218508	0.573551
C50	C	0.353480	0.718508	1.073551
O51	O	-0.118302	0.190104	0.630774
O52	O	0.381698	0.690104	1.130774
N53	N	-0.119183	0.251895	0.506244
N54	N	0.380817	0.751895	1.006244
C55	C	-0.146453	0.285282	0.438919
C56	C	0.353547	0.785282	0.938919
O57	O	-0.118186	0.313680	0.381669
O58	O	0.381814	0.813680	0.881669
C59	C	-0.201056	0.285279	0.438908
C60	C	0.298944	0.785279	0.938908
C61	C	-0.228390	0.251893	0.506227
C62	C	0.271610	0.751893	1.006227
C63	C	-0.228459	0.185125	0.640857
C64	C	0.271541	0.685125	1.140857
C65	C	-0.283059	0.185126	0.640852
C66	C	0.216941	0.685126	1.140852
C67	C	-0.310325	0.218511	0.573534
C68	C	0.189675	0.718511	1.073534
C69	C	-0.282991	0.251895	0.506222
C70	C	0.217009	0.751895	1.006222
C71	C	-0.228325	0.318662	0.371579
C72	C	0.271675	0.818662	0.871579
C73	C	-0.282932	0.318656	0.371573
C74	C	0.217068	0.818656	0.871573
C75	C	-0.310266	0.285271	0.438892
C76	C	0.189734	0.785271	0.938892
C77	C	-0.364858	0.285281	0.438899
C78	C	0.135142	0.785281	0.938899
N79	N	-0.392195	0.251893	0.506205
N80	N	0.107805	0.751893	1.006205
C81	C	-0.364929	0.218509	0.573523
C82	C	0.135071	0.718509	1.073523
C83	C	-0.031782	0.285284	0.438946
C84	C	0.468218	0.785284	0.938946
C85	C	0.022820	0.285289	0.438961
C86	C	0.522820	0.785289	0.938961
C87	C	0.022749	0.218515	0.573592
C88	C	0.522749	0.718515	1.073592
C89	C	-0.031854	0.218512	0.573581
C90	C	0.468146	0.718512	1.073581
C91	C	-0.059119	0.251896	0.506253
C92	C	0.440881	0.751896	1.006253
C93	C	-0.479594	0.218514	0.573508
C94	C	0.020406	0.718514	1.073508
C95	C	-0.534199	0.218520	0.573499
C96	C	-0.034199	0.718520	1.073499
C97	C	-0.534123	0.285292	0.438865
C98	C	-0.034123	0.785292	0.938865
C99	C	-0.479523	0.285289	0.438877
C100	C	0.020477	0.785289	0.938877
C101	C	-0.452259	0.251895	0.506202
C102	C	0.047741	0.751895	1.006202
O103	O	-0.393110	0.313669	0.381702
O104	O	0.106890	0.813669	0.881702
O105	O	-0.393202	0.190110	0.630754
O106	O	0.106798	0.690110	1.130754
C107	C	0.108205	0.251901	0.506259
C108	C	0.608205	0.751901	1.006259
C109	C	0.050091	0.251902	0.506276
C110	C	0.550091	0.751902	1.006276
C111	C	-0.721938	0.697058	0.573346
C112	C	-0.221938	1.197058	1.073346
C113	C	-0.721923	0.642454	0.573338
C114	C	-0.221923	1.142454	1.073338
O115	O	-0.693470	0.614226	0.630443
O116	O	-0.193470	1.114226	1.130443
N117	N	-0.755378	0.615128	0.506205
N118	N	-0.255378	1.115128	1.006205
C119	C	-0.788854	0.642409	0.439084
C120	C	-0.288854	1.142409	0.939084
O121	O	-0.817309	0.614152	0.381983
O122	O	-0.317309	1.114152	0.881983
C123	C	-0.788871	0.697012	0.439098
C124	C	-0.288871	1.197012	0.939098
C125	C	-0.755410	0.724335	0.506227
C126	C	-0.255410	1.224335	1.006227
C127	C	-0.688481	0.724382	0.640471
C128	C	-0.188481	1.224382	1.140471
C129	C	-0.688495	0.778982	0.640477
C130	C	-0.188495	1.278982	1.140477
C131	C	-0.721967	0.806259	0.573358
C132	C	-0.221967	1.306259	1.073358
C133	C	-0.755425	0.778936	0.506234
C134	C	-0.255425	1.278936	1.006234
C135	C	-0.822349	0.724292	0.371983
C136	C	-0.322349	1.224292	0.871983
C137	C	-0.822364	0.778899	0.372003
C138	C	-0.322364	1.278899	0.872003
C139	C	-0.788903	0.806223	0.439132
C140	C	-0.288903	1.306223	0.939132
C141	C	-0.788911	0.860814	0.439121
C142	C	-0.288911	1.360814	0.939121
N143	N	-0.755456	0.888140	0.506254
N144	N	-0.255456	1.388140	1.006254
C145	C	-0.721984	0.860863	0.573372
C146	C	-0.221984	1.360863	1.073372
C147	C	-0.788816	0.527738	0.439061
C148	C	-0.288816	1.027738	0.939061
C149	C	-0.788797	0.473136	0.439041
C150	C	-0.288797	0.973136	0.939041
C151	C	-0.721867	0.473185	0.573297
C152	C	-0.221867	0.973185	1.073297
C153	C	-0.721884	0.527788	0.573311
C154	C	-0.221884	1.027788	1.073311
C155	C	-0.755361	0.555064	0.506194
C156	C	-0.255361	1.055064	1.006194
C157	C	-0.722017	0.975528	0.573380
C158	C	-0.222017	1.475528	1.073380
C159	C	-0.722032	1.030133	0.573377
C160	C	-0.222032	1.530133	1.073377
C161	C	-0.788964	1.030079	0.439126
C162	C	-0.288964	1.530079	0.939126
C163	C	-0.788947	0.975479	0.439124
C164	C	-0.288947	1.475479	0.939124
C165	C	-0.755471	0.948204	0.506260
C166	C	-0.255471	1.448204	1.006260
O167	O	-0.817352	0.889076	0.382049
O168	O	-0.317352	1.389076	0.882049
O169	O	-0.693539	0.889126	0.630474
O170	O	-0.193539	1.389126	1.130474
C171	C	-0.755516	1.115524	0.506281
C172	C	-0.255516	1.615524	1.006281
C173	C	-0.755504	1.057410	0.506258
C174	C	-0.255504	1.557410	1.006258
C175	C	-0.788884	0.218461	0.951921
C176	C	-0.288884	0.718461	1.451921
C177	C	-0.788881	0.218462	1.061645
C178	C	-0.288881	0.718462	1.561645
C179	C	-0.721946	0.285333	1.061570
C180	C	-0.221946	0.785333	1.561570
C181	C	-0.721947	0.285329	0.951848
C182	C	-0.221947	0.785329	1.451848
C183	C	-0.827530	0.179855	0.951966
C184	C	-0.327530	0.679855	1.451966
C185	C	-0.827527	0.179857	1.061690
C186	C	-0.327527	0.679857	1.561690
C187	C	-0.755419	0.251908	1.233249
C188	C	-0.255419	0.751908	1.733249
C189	C	-0.755415	0.251899	1.116473
C190	C	-0.255415	0.751899	1.616473
H191	H	-0.556452	0.191333	0.628322
H192	H	-0.056452	0.691333	1.128322
H193	H	-0.865982	0.194363	0.917933
H194	H	-0.365982	0.694363	1.417933
Cl195	Cl	-0.445328	0.176534	0.658147
Cl196	Cl	0.054672	0.676534	1.158147
H197	H	-0.816038	0.450893	0.384367
H198	H	-0.316038	0.950893	0.884367
Cl199	Cl	-0.679869	0.327364	1.130496
Cl200	Cl	-0.179869	0.827364	1.630496
Cl201	Cl	-0.805106	0.120499	1.114279
Cl202	Cl	-0.305106	0.620499	1.614279
Cl203	Cl	-0.890031	0.196599	1.107681
Cl204	Cl	-0.390031	0.696599	1.607681
H205	H	-0.305310	0.157939	0.695668
H206	H	0.194690	0.657939	1.195668
H207	H	-0.816076	0.549943	0.384398
H208	H	-0.316076	1.049943	0.884398
Cl209	Cl	-0.864423	0.689956	0.287598
Cl210	Cl	-0.364423	1.189956	0.787598
H211	H	-0.694613	0.450966	0.627950
H212	H	-0.194613	0.950966	1.127950
H213	H	-0.206264	0.157936	0.695676
H214	H	0.293736	0.657936	1.195676
H215	H	-0.816188	0.953232	0.384451
H216	H	-0.316188	1.453232	0.884451
H217	H	-0.816214	1.052298	0.384476
H218	H	-0.316214	1.552298	0.884476
H219	H	-0.694694	0.312551	0.907157
H220	H	-0.194694	0.812551	1.407157
H221	H	-0.457266	0.312480	0.384073
H222	H	0.042734	0.812480	0.884073
Cl223	Cl	-0.193975	0.360625	0.286922
Cl224	Cl	0.306025	0.860625	0.786922
Cl225	Cl	-0.066212	0.176539	0.658211
Cl226	Cl	0.433788	0.676539	1.158211
H227	H	0.044959	0.191330	0.628404
H228	H	0.544959	0.691330	1.128404
Cl229	Cl	-0.646396	0.690100	0.724860
Cl230	Cl	-0.146396	1.190100	1.224860
H231	H	-0.849627	0.801105	0.317350
H232	H	-0.349627	1.301105	0.817350
Cl233	Cl	0.057177	0.327267	0.354339
Cl234	Cl	0.557177	0.827267	0.854339
Cl235	Cl	-0.317205	0.360629	0.286928
Cl236	Cl	0.182795	0.860629	0.786928
Cl237	Cl	-0.066053	0.327260	0.354302
Cl238	Cl	0.433947	0.827260	0.854302
H239	H	-0.694759	0.953327	0.628049
H240	H	-0.194759	1.453327	1.128049
Cl241	Cl	-0.568411	0.327259	0.354242
Cl242	Cl	-0.068411	0.827259	0.854242
Cl243	Cl	-0.679965	1.064479	0.657775
Cl244	Cl	-0.179965	1.564479	1.157775
Cl245	Cl	-0.646436	0.813323	0.724889
Cl246	Cl	-0.146436	1.313323	1.224889
Cl247	Cl	-0.810843	0.117335	0.906031
Cl248	Cl	-0.310843	0.617335	1.406031
H249	H	-0.694640	0.550031	0.627979
H250	H	-0.194640	1.050031	1.127979
