data_functionalizedCrystal
_audit_creation_method	'MofGen! by Chris Wilmer'
_symmetry_space_group_name_H-M	'P1'
_symmetry_Int_Tables_number	1
_symmetry_cell_setting	triclinic
loop_
_symmetry_equiv_pos_as_xyz
  x,y,z
_cell_length_a	6.817900
_cell_length_b	17.110477
_cell_length_c	27.923456
_cell_angle_alpha	97.270312
_cell_angle_beta	98.963413
_cell_angle_gamma	99.060298
loop_
_atom_site_label
_atom_site_type_symbol
_atom_site_fract_x
_atom_site_fract_y
_atom_site_fract_z
V1	V	-3.954517	-0.110654	-0.151209
O2	O	-3.966064	0.004112	-0.148395
O3	O	-3.884736	-0.218248	-0.150113
O4	O	-3.884550	-0.109480	-0.217185
O5	O	-3.966251	-0.105409	-0.080859
V6	V	-4.443710	-0.096864	-0.142802
O7	O	-4.203337	-0.140903	-0.169651
O8	O	-4.645086	-0.066615	-0.124361
O9	O	-4.290284	0.010731	-0.143898
O10	O	-4.549559	-0.211629	-0.145616
O11	O	-4.549372	-0.102109	-0.213153
O12	O	-4.290470	-0.098037	-0.076827
C13	C	-3.725233	-0.244461	-0.147712
C14	C	-3.749322	-0.332424	-0.147255
C15	C	-3.941132	-0.377799	-0.149459
C16	C	-3.963756	-0.460450	-0.149033
C17	C	-3.794565	-0.497724	-0.146400
C18	C	-3.602740	-0.452344	-0.144198
C19	C	-3.580120	-0.369695	-0.144628
C20	C	-3.853832	-0.747069	-0.144985
C21	C	-3.876466	-0.829724	-0.144555
C22	C	-4.237482	-0.837824	-0.149390
C23	C	-4.214844	-0.755172	-0.149817
C24	C	-4.023023	-0.709800	-0.147617
C25	C	-3.817685	-0.582207	-0.145963
C26	C	-3.999908	-0.625320	-0.148058
C27	C	-3.724995	-0.105716	-0.233268
C28	C	-3.748931	-0.105468	-0.287203
C29	C	-4.078055	-0.107831	-0.624123
C30	C	-4.168115	-0.106871	-0.826830
O31	O	-4.333253	-0.110088	-0.855138
N32	N	-3.998876	-0.102786	-0.849708
C33	C	-3.807105	-0.098935	-0.821905
O34	O	-3.665221	-0.095430	-0.846014
C35	C	-3.717046	-0.099889	-0.619197
C36	C	-3.886300	-0.103983	-0.596323
C37	C	-4.247294	-0.111923	-0.601248
C38	C	-4.224780	-0.112168	-0.550575
C39	C	-4.033026	-0.108319	-0.522775
C40	C	-3.863786	-0.104227	-0.545650
C41	C	-3.525276	-0.096032	-0.591394
C42	C	-3.502775	-0.096269	-0.540714
C43	C	-3.672030	-0.100363	-0.517840
C44	C	-3.649518	-0.100623	-0.467177
N45	N	-3.818757	-0.104708	-0.444299
C46	C	-4.010511	-0.108556	-0.472099
C47	C	-3.854401	-0.098436	-0.928329
C48	C	-3.876916	-0.098199	-0.979006
C49	C	-4.237925	-0.106134	-0.983928
C50	C	-4.215409	-0.106377	-0.933251
C51	C	-4.023641	-0.102521	-0.905452
C52	C	-3.963217	-0.109070	-0.365680
C53	C	-3.940685	-0.109317	-0.315003
C54	C	-3.579679	-0.101378	-0.310084
C55	C	-3.602208	-0.101135	-0.360758
C56	C	-3.793992	-0.104978	-0.388555
O57	O	-3.484444	-0.097399	-0.438839
O58	O	-4.152363	-0.112043	-0.447979
C59	C	-4.100569	-0.107587	-0.674796
C60	C	-3.931329	-0.103494	-0.697670
C61	C	-3.739575	-0.099646	-0.669871
C62	C	-3.953844	-0.103257	-0.748347
C63	C	-4.145598	-0.107105	-0.776146
C64	C	-4.314837	-0.111191	-0.753269
C65	C	-4.292323	-0.111435	-0.702595
C66	C	-3.570335	-0.095561	-0.692749
C67	C	-3.592865	-0.095318	-0.743422
C68	C	-3.784619	-0.099166	-0.771222
C69	C	-4.113128	0.036939	-0.146298
C70	C	-4.068277	0.124902	-0.146758
C71	C	-4.113367	-0.101804	-0.060741
C72	C	-4.068670	-0.102047	-0.006805
H73	H	-4.352623	-0.724830	-0.151964
H74	H	-4.119945	-0.497391	-0.150828
Br75	Br	-4.445122	-0.111932	-0.902213
H76	H	-3.455025	-0.091990	-0.762042
H77	H	-4.362607	-0.115497	-0.531955
Br78	Br	-3.594126	-0.093214	-0.890610
Br79	Br	-4.575079	-0.116419	-0.791007
H80	H	-4.394063	-0.109270	-1.006571
H81	H	-4.393656	-0.874775	-0.151181
Br82	Br	-3.310078	-0.090345	-0.655029
H83	H	-3.738686	-0.860073	-0.142422
H84	H	-4.078908	-0.347455	-0.151598
H85	H	-3.464390	-0.097810	-0.379384
H86	H	-3.387445	-0.092699	-0.610009
Br87	Br	-3.593506	-0.685502	-0.141998
H88	H	-4.119382	-0.112201	-0.388307
H89	H	-3.464985	-0.482701	-0.142057
H90	H	-3.423931	-0.332753	-0.142835
Br91	Br	-3.647207	-0.092663	-1.010045
H92	H	-4.137662	-0.594968	-0.150204
H93	H	-3.679932	-0.612565	-0.143818
H94	H	-4.430151	-0.114768	-0.683976
Br95	Br	-4.170408	-0.114878	-0.283963
Br96	Br	-3.242502	-0.091029	-0.502989
Br97	Br	-4.507563	-0.117149	-0.638967
Br98	Br	-3.319450	-0.096160	-0.272348
