data_functionalizedCrystal
_audit_creation_method	'MofGen! by Chris Wilmer'
_symmetry_space_group_name_H-M	'P1'
_symmetry_Int_Tables_number	1
_symmetry_cell_setting	triclinic
loop_
_symmetry_equiv_pos_as_xyz
  x,y,z
_cell_length_a	9.065215
_cell_length_b	15.995292
_cell_length_c	8.140239
_cell_angle_alpha	89.999675
_cell_angle_beta	89.997810
_cell_angle_gamma	84.241657
loop_
_atom_site_label
_atom_site_type_symbol
_atom_site_fract_x
_atom_site_fract_y
_atom_site_fract_z
O1	O	1.957465	0.122762	-0.136581
O2	O	1.527938	0.132835	-0.136588
O3	O	1.754488	0.005996	-0.136587
O4	O	1.730915	0.249600	-0.136582
O5	O	1.754475	0.005995	0.136640
O6	O	1.527926	0.132833	0.136640
O7	O	1.957452	0.122760	0.136646
Zn8	Zn	1.742687	0.127796	0.180023
Zn9	Zn	1.742703	0.127798	-0.179965
O10	O	1.730903	0.249598	0.136645
C11	C	1.472969	0.131866	0.000025
C12	C	1.309195	0.128973	0.000022
C13	C	1.753522	-0.025207	0.000023
C14	C	1.750646	-0.118182	0.000010
C15	C	1.740072	-0.456001	0.000025
C16	C	1.903589	-0.431449	0.000638
C17	C	1.906697	-0.334750	0.000016
C18	C	1.745319	-0.288405	0.000019
C19	C	1.663575	-0.318124	-0.156003
C20	C	1.661606	-0.414930	-0.156128
C21	C	1.658253	-0.414814	0.154582
C22	C	1.664313	-0.318276	0.156638
C23	C	1.748275	-0.193686	0.000010
C24	C	1.737110	-0.550719	0.000023
C25	C	2.012422	0.123728	0.000030
C26	C	2.176196	0.126621	0.000022
C27	C	1.731869	0.280802	0.000032
C28	C	1.734745	0.373777	0.000034
N29	N	1.742687	0.127795	0.425706
N30	N	1.742716	0.127794	-0.425648
H31	H	1.970717	-0.315240	0.111857
C32	C	1.475874	-0.223183	-0.028218
C33	C	1.503266	-0.276315	-0.163856
H34	H	1.376909	-0.197368	-0.033073
H35	H	1.489382	-0.255031	0.070072
H36	H	1.542741	-0.181107	-0.029684
H37	H	1.436405	-0.318395	-0.162383
H38	H	1.489743	-0.244466	-0.262172
H39	H	1.720350	-0.297633	-0.272116
C40	C	1.844466	-0.513151	0.275795
C41	C	1.727388	-0.452435	0.314233
H42	H	1.887160	-0.536374	0.374351
H43	H	1.808129	-0.556425	0.212106
H44	H	1.917523	-0.487826	0.214879
H45	H	1.654326	-0.477762	0.375138
H46	H	1.763724	-0.409154	0.377947
H47	H	1.966611	-0.458969	0.112528
H48	H	1.723835	-0.299260	0.272062
H49	H	1.546522	-0.286199	0.166063
H50	H	1.966271	-0.459991	-0.110623
C51	C	1.401830	-0.359940	0.150969
C52	C	1.495770	-0.434930	0.156021
H53	H	1.301525	-0.372364	0.151839
H54	H	1.419842	-0.326618	0.244034
H55	H	1.420400	-0.329990	0.053587
H56	H	1.477208	-0.464877	0.253410
H57	H	1.477750	-0.468266	0.062947
C58	C	2.043106	-0.381098	-0.241651
C59	C	1.993630	-0.309235	-0.151236
H60	H	2.096767	-0.365344	-0.335039
H61	H	2.105788	-0.418132	-0.174827
H62	H	1.960310	-0.408547	-0.276430
H63	H	2.076428	-0.281790	-0.116447
H64	H	1.930945	-0.272187	-0.218073
C65	C	1.785196	-0.384673	-0.406886
C66	C	1.738057	-0.450558	-0.313564
H67	H	1.832404	-0.406668	-0.504075
H68	H	1.702014	-0.346541	-0.435385
H69	H	1.853162	-0.356135	-0.344492
H70	H	1.670083	-0.479093	-0.375954
H71	H	1.821250	-0.488704	-0.285068
C72	C	1.434639	-0.402025	-0.310244
C73	C	1.499770	-0.435813	-0.165725
H74	H	1.334735	-0.414922	-0.316182
H75	H	1.436939	-0.342789	-0.310082
H76	H	1.488063	-0.425463	-0.402483
H77	H	1.446352	-0.412370	-0.073486
H78	H	1.497461	-0.495061	-0.165873
