data_functionalizedCrystal
_audit_creation_method	'MofGen! by Chris Wilmer'
_symmetry_space_group_name_H-M	'P1'
_symmetry_Int_Tables_number	1
_symmetry_cell_setting	triclinic
loop_
_symmetry_equiv_pos_as_xyz
  x,y,z
_cell_length_a	14.560438
_cell_length_b	20.875641
_cell_length_c	20.875662
_cell_angle_alpha	92.966745
_cell_angle_beta	61.742731
_cell_angle_gamma	57.591306
loop_
_atom_site_label
_atom_site_type_symbol
_atom_site_fract_x
_atom_site_fract_y
_atom_site_fract_z
Zr1	Zr	1.010971	-0.054200	0.615945
O2	O	1.214349	-0.166259	0.509409
O3	O	0.815760	-0.019849	0.648605
O4	O	1.021988	-0.159039	0.643494
O5	O	0.996583	0.082729	0.518550
O6	O	1.021388	-0.153343	0.749263
O7	O	1.008121	-0.027069	0.514519
O8	O	0.652485	0.095643	0.758404
O9	O	1.365487	-0.166257	0.509409
O10	O	0.892582	-0.000946	0.741467
O11	O	0.884418	0.076743	0.665541
O12	O	1.127225	-0.087135	0.659525
O13	O	1.119062	-0.009446	0.583599
Zr14	Zr	0.991615	0.130000	0.791063
Zr15	Zr	1.010016	-0.045114	0.784634
Zr16	Zr	0.992570	0.120914	0.622374
Zr17	Zr	1.252020	-0.054197	0.615945
Zr18	Zr	0.750566	0.129997	0.791063
O19	O	1.186826	0.095649	0.758403
O20	O	1.212990	-0.153341	0.749263
O21	O	1.188185	0.082731	0.518550
O22	O	0.788237	0.242059	0.897599
O23	O	0.814401	-0.006931	0.888458
O24	O	0.789596	0.229141	0.657745
O25	O	1.006003	-0.006929	0.888458
O26	O	0.980598	0.234839	0.763514
O27	O	0.981198	0.229143	0.657745
O28	O	0.994465	0.102869	0.892489
O29	O	1.364727	-0.159036	0.643494
O30	O	0.637858	0.234836	0.763514
O31	O	0.637099	0.242057	0.897599
O32	O	0.651725	0.102865	0.892489
O33	O	1.350861	-0.027065	0.514519
O34	O	1.350101	-0.019843	0.648604
O35	O	0.875361	0.162935	0.747483
O36	O	0.883524	0.085246	0.823409
O37	O	1.118168	-0.000944	0.741467
O38	O	1.110004	0.076746	0.665541
C39	C	0.699778	0.037897	0.703504
C40	C	0.597447	0.037896	0.703505
C41	C	1.002488	0.026536	0.492500
C42	C	1.002894	0.022679	0.420888
C43	C	0.978276	0.256941	0.711545
C44	C	0.970464	0.331282	0.714274
C45	C	0.553634	-0.002659	0.743134
C46	C	0.457475	-0.002652	0.743136
C47	C	0.448956	0.078464	0.663873
C48	C	0.545105	0.078462	0.663876
C49	C	0.605975	-0.043225	0.782763
C50	C	0.562163	-0.083784	0.822395
C51	C	0.466005	-0.083777	0.822397
C52	C	0.413659	-0.043212	0.782767
C53	C	1.302808	0.037903	0.703504
C54	C	1.405139	0.037904	0.703503
C55	C	1.024310	-0.181141	0.695463
C56	C	1.032121	-0.255482	0.692734
C57	C	1.089273	0.321219	0.672785
C58	C	1.081925	0.391073	0.675346
C59	C	0.955767	0.470988	0.719401
C60	C	0.836950	0.481049	0.760892
C61	C	0.844299	0.411196	0.758326
C62	C	0.920654	0.684726	0.731658
C63	C	0.913313	0.754581	0.734223
C64	C	1.158289	0.664599	0.648675
C65	C	1.165627	0.594749	0.646117
C66	C	1.046810	0.604816	0.687604
N67	N	0.948254	0.542391	0.722022
N68	N	1.054325	0.533414	0.684978
C69	C	0.996725	0.081354	0.389463
C70	C	0.997114	0.077721	0.322172
C71	C	1.003662	0.015416	0.286311
C72	C	1.009836	-0.043265	0.317740
C73	C	1.009456	-0.039635	0.385025
C74	C	1.005487	-0.001930	0.084834
C75	C	1.005861	-0.005554	0.017545
C76	C	0.993142	0.115432	0.021982
C77	C	0.992755	0.119060	0.089272
C78	C	0.998936	0.060376	0.120691
N79	N	1.004055	0.011703	0.217531
N80	N	0.998552	0.064086	0.189467
C81	C	1.000098	0.049264	0.914508
C82	C	0.999692	0.053121	0.986120
C83	C	0.698583	0.049261	0.914508
C84	C	0.595846	0.053117	0.986121
C85	C	0.676761	0.256938	0.711546
C86	C	0.566618	0.331278	0.714275
C87	C	0.675566	0.268302	0.922549
C88	C	0.565017	0.346499	0.996891
C89	C	1.327020	-0.192502	0.484459
C90	C	1.437569	-0.270699	0.410117
C91	C	1.304003	0.026539	0.492500
C92	C	1.406740	0.022683	0.420887
C93	C	1.325825	-0.181138	0.695462
C94	C	1.435968	-0.255478	0.692733
C95	C	0.552328	0.009929	0.976978
C96	C	0.455811	0.013536	1.044259
C97	C	0.402806	0.060335	1.120682
C98	C	0.446333	0.103524	1.129824
C99	C	0.542856	0.099912	1.062543
C100	C	0.510165	0.411187	0.758330
C101	C	0.406687	0.481043	0.760892
C102	C	0.359657	0.470989	0.719403
C103	C	0.416120	0.391071	0.675342
C104	C	0.519603	0.321216	0.672777
C105	C	0.517363	0.342668	1.071443
C106	C	0.413505	0.416135	1.141301
C107	C	0.357296	0.493433	1.136606
C108	C	0.404960	0.497262	1.062047
C109	C	0.508823	0.423795	0.992191
C110	C	1.485234	-0.266868	0.335565
C111	C	1.589122	-0.340336	0.265707
C112	C	1.645336	-0.417633	0.270402
C113	C	1.597667	-0.421462	0.344961
C114	C	1.493787	-0.347995	0.414818
C115	C	1.450269	0.065863	0.430030
C116	C	1.546815	0.062238	0.362748
C117	C	1.599823	0.015436	0.286325
C118	C	1.556291	-0.027750	0.277184
C119	C	1.459754	-0.024128	0.344464
C120	C	1.482964	-0.245397	0.734231
C121	C	1.586442	-0.315239	0.731682
C122	C	1.642928	-0.395162	0.687630
C123	C	1.595921	-0.405241	0.646131
C124	C	1.492439	-0.335399	0.648685
H125	H	0.604780	-0.116805	0.854666
H126	H	0.430325	-0.116794	0.854673
N127	N	0.609483	-0.040548	0.894555
H128	H	0.567262	-0.067359	0.898985
H129	H	0.710691	-0.085145	0.863264
N130	N	0.580498	0.235042	0.625216
H131	H	0.507710	0.229659	0.646568
H132	H	0.653231	0.192336	0.629866
N133	N	0.389135	0.154004	1.212258
H134	H	0.342904	0.214182	1.220764
H135	H	0.464857	0.131854	1.217705
H136	H	0.580786	0.111480	0.631601
N137	N	0.560891	0.422039	0.803074
H138	H	0.546764	0.397206	0.843549
H139	H	0.509398	0.483277	0.831315
N140	N	0.716159	0.422044	0.803082
H141	H	0.713971	0.392933	0.764297
H142	H	0.635194	0.483283	0.831382
N143	N	1.393126	0.116340	0.512449
H144	H	1.413811	0.078710	0.540760
H145	H	1.291934	0.160988	0.543725
N146	N	0.700880	0.567243	0.808415
H147	H	0.626730	0.563016	0.834308
H148	H	0.692717	0.596053	0.771718
N149	N	1.424611	-0.183503	0.330490
H150	H	1.470586	-0.192237	0.272657
H151	H	1.437945	-0.151249	0.357750
H152	H	1.010516	-0.049712	0.110412
N153	N	0.985659	0.186279	0.127948
H154	H	1.066229	0.181510	0.088124
H155	H	0.986294	0.179655	0.175353
H156	H	0.272725	0.553248	1.193494
H157	H	1.192004	0.256152	0.636914
H158	H	0.991384	0.132093	0.418659
H159	H	0.359179	0.560207	1.058237
N160	N	0.298700	0.064222	1.193241
H161	H	0.216367	0.088561	1.194155
H162	H	0.271825	0.100407	1.243007
N163	N	0.309931	-0.043194	0.782777
H164	H	0.290111	-0.075037	0.813899
H165	H	0.346337	-0.070520	0.726058
H166	H	0.563114	0.279736	1.075280
H167	H	1.454186	-0.343619	0.614888
N168	N	0.362108	0.411995	1.221711
H169	H	0.413471	0.351878	1.214079
H170	H	0.262569	0.440714	1.252424
H171	H	1.643450	-0.484406	0.348774
H172	H	0.992092	0.125499	0.296586
N173	N	0.986470	0.178726	-0.011904
H174	H	0.987701	0.166976	-0.059970
H175	H	1.066923	0.175182	-0.028265
N176	N	0.408861	-0.033037	1.034386
H177	H	0.339675	-0.023657	1.088600
H178	H	0.488754	-0.094453	1.002423
N179	N	0.560199	0.427928	0.911781
H180	H	0.659730	0.399256	0.881017
H181	H	0.508727	0.488063	0.919478
N182	N	1.637128	-0.304347	0.776440
H183	H	1.736705	-0.333456	0.737660
H184	H	1.622902	-0.329160	0.816923
N185	N	1.412792	-0.070691	0.334594
H186	H	1.343588	-0.061299	0.388808
H187	H	1.492678	-0.132108	0.302641
N188	N	0.589783	0.146500	1.072411
H189	H	0.541549	0.176694	1.131035
H190	H	0.568665	0.188101	1.047875
H191	H	1.727189	-0.452024	0.685557
H192	H	0.360726	0.546109	0.796773
N193	N	0.248040	0.546336	0.722175
H194	H	0.219418	0.598482	0.756384
H195	H	0.168189	0.547563	0.745608
H196	H	1.627917	-0.337202	0.205005
H197	H	1.178671	0.382872	0.641562
N198	N	1.656851	-0.491446	0.598620
H199	H	1.729540	-0.534153	0.603301
H200	H	1.697693	-0.501024	0.540759
N201	N	0.365381	0.380233	0.630601
H202	H	0.291254	0.436616	0.638921
H203	H	0.328669	0.350520	0.651110
H204	H	1.011193	-0.056294	-0.011650
H205	H	1.729921	-0.477448	0.213514
H206	H	1.454980	-0.351124	0.475518
H207	H	1.582241	0.097409	0.370207
N208	N	1.703938	0.011535	0.213757
H209	H	1.786276	-0.012805	0.212839
H210	H	1.664262	0.069487	0.215906
N211	N	0.709672	-0.043222	0.782773
H212	H	0.729482	-0.011373	0.751656
H213	H	0.795611	-0.102437	0.757211
N214	N	0.392502	0.122214	0.621132
H215	H	0.324945	0.116060	0.627142
H216	H	0.468622	0.096654	0.562686
N217	N	1.422041	-0.159196	0.781749
H218	H	1.494828	-0.153812	0.760385
H219	H	1.381114	-0.149604	0.839618
N220	N	1.301696	0.508559	0.598650
H221	H	1.375848	0.512784	0.572770
H222	H	1.310379	0.475435	0.556085
N223	N	1.286435	0.653743	0.603931
H224	H	1.262642	0.710119	0.612240
H225	H	1.341432	0.619752	0.545176
N226	N	1.613449	-0.078210	0.194753
H227	H	1.714660	-0.122851	0.163411
H228	H	1.592651	-0.040501	0.166527
N229	N	0.792507	0.695588	0.776431
H230	H	0.711476	0.756814	0.804740
H231	H	0.790031	0.670698	0.816854
H232	H	0.810575	0.819653	0.770097
H233	H	1.015176	-0.094000	0.288535
H234	H	1.014482	-0.087416	0.410610
