data_functionalizedCrystal
_audit_creation_method	'MofGen! by Chris Wilmer'
_symmetry_space_group_name_H-M	'P1'
_symmetry_Int_Tables_number	1
_symmetry_cell_setting	triclinic
loop_
_symmetry_equiv_pos_as_xyz
  x,y,z
_cell_length_a	6.817900
_cell_length_b	15.185311
_cell_length_c	15.185107
_cell_angle_alpha	94.893704
_cell_angle_beta	104.257894
_cell_angle_gamma	104.261569
loop_
_atom_site_label
_atom_site_type_symbol
_atom_site_fract_x
_atom_site_fract_y
_atom_site_fract_z
V1	V	-4.039246	-0.126388	-0.283664
O2	O	-4.022509	0.005423	-0.277990
O3	O	-3.994537	-0.249981	-0.281988
O4	O	-3.994530	-0.124729	-0.407260
O5	O	-4.022516	-0.120695	-0.151851
V6	V	-4.521918	-0.110588	-0.267866
O7	O	-4.302370	-0.161046	-0.318318
O8	O	-4.708991	-0.075930	-0.233212
O9	O	-4.343421	0.013005	-0.269542
O10	O	-4.656052	-0.242399	-0.273540
O11	O	-4.656045	-0.116281	-0.399679
O12	O	-4.343428	-0.112247	-0.144271
C13	C	-3.840316	-0.280101	-0.277581
C14	C	-3.885073	-0.381142	-0.277035
C15	C	-4.031258	-0.795211	-0.191484
C16	C	-4.117595	-0.821526	-0.358021
C17	C	-4.075516	-0.726592	-0.358529
C18	C	-4.011308	-0.665962	-0.275514
C19	C	-3.989180	-0.700267	-0.191990
C20	C	-4.097661	-0.692280	-0.442052
C21	C	-4.055583	-0.597341	-0.442564
C22	C	-3.991360	-0.536709	-0.359547
C23	C	-3.969230	-0.571019	-0.276020
C24	C	-3.905023	-0.510390	-0.193005
C25	C	-3.882877	-0.544698	-0.109476
C26	C	-3.924957	-0.639636	-0.108974
C27	C	-3.949280	-0.441771	-0.360050
C28	C	-3.862944	-0.415446	-0.193511
C29	C	-3.840306	-0.120329	-0.437376
C30	C	-3.885053	-0.119790	-0.538418
C31	C	-4.117628	-0.200713	-0.978812
C32	C	-4.031257	-0.034177	-0.952461
C33	C	-3.989169	-0.034696	-0.857528
C34	C	-4.011312	-0.118226	-0.823233
C35	C	-4.075543	-0.201236	-0.883871
C36	C	-3.924956	0.048311	-0.796883
C37	C	-3.882866	0.047795	-0.701944
C38	C	-3.904994	-0.035735	-0.667647
C39	C	-3.969227	-0.118748	-0.728292
C40	C	-3.991369	-0.202278	-0.693997
C41	C	-4.055588	-0.285292	-0.754640
C42	C	-4.097671	-0.284766	-0.849574
C43	C	-3.862911	-0.036261	-0.572713
C44	C	-3.949284	-0.202800	-0.599056
C45	C	-4.160984	0.043120	-0.273947
C46	C	-4.095466	0.144160	-0.274499
C47	C	-4.160994	-0.116650	-0.114149
C48	C	-4.095485	-0.117184	-0.013107
H49	H	-4.149963	-0.741652	-0.509639
F50	F	-4.007683	-0.831723	-0.102591
H51	H	-3.967347	-0.413842	-0.428058
F52	F	-4.185945	-0.886054	-0.446366
F53	F	-3.901398	0.137203	-0.833387
F54	F	-3.794595	-0.350926	-0.105152
H55	H	-4.013247	0.033829	-0.980390
F56	F	-4.079146	-0.560836	-0.531460
F57	F	-3.814466	0.136146	-0.637411
F58	F	-3.794629	0.052080	-0.508179
F59	F	-3.972843	-0.291706	-0.562565
H60	H	-4.073623	-0.353302	-0.726705
F61	F	-4.166100	-0.373109	-0.914121
H62	H	-3.906937	-0.667578	-0.040970
F63	F	-3.814579	-0.480162	-0.021130
F64	F	-4.186004	-0.289059	-1.043351
