data_functionalizedCrystal
_audit_creation_method	'MofGen! by Chris Wilmer'
_symmetry_space_group_name_H-M	'P1'
_symmetry_Int_Tables_number	1
_symmetry_cell_setting	triclinic
loop_
_symmetry_equiv_pos_as_xyz
  x,y,z
_cell_length_a	20.016444
_cell_length_b	14.560438
_cell_length_c	14.560438
_cell_angle_alpha	59.999398
_cell_angle_beta	89.998527
_cell_angle_gamma	59.998377
loop_
_atom_site_label
_atom_site_type_symbol
_atom_site_fract_x
_atom_site_fract_y
_atom_site_fract_z
Zr1	Zr	-0.087658	1.005278	0.884760
O2	O	-0.194335	1.196887	0.738113
O3	O	-0.054958	0.813674	0.929716
O4	O	-0.194335	1.005284	0.929717
O5	O	0.054987	1.005272	0.738109
O6	O	-0.194334	1.005282	1.080857
O7	O	-0.054957	1.005278	0.738111
O8	O	0.054987	0.662528	1.080855
O9	O	-0.194333	1.348026	0.738112
O10	O	-0.041009	0.892481	1.061682
O11	O	0.041041	0.892478	0.948887
O12	O	-0.123058	1.118073	0.948888
O13	O	-0.041009	1.118070	0.836093
Zr14	Zr	0.087692	1.005267	1.125808
Zr15	Zr	-0.087656	1.005276	1.125811
Zr16	Zr	0.087691	1.005269	0.884757
Zr17	Zr	-0.087656	1.246328	0.884758
Zr18	Zr	0.087690	0.764217	1.125809
O19	O	0.054992	1.196871	1.080852
O20	O	-0.194332	1.196884	1.080856
O21	O	0.054989	1.196874	0.738108
O22	O	0.194369	0.813658	1.272455
O23	O	-0.054955	0.813671	1.272460
O24	O	0.194366	0.813661	0.929712
O25	O	-0.054953	1.005273	1.272459
O26	O	0.194369	1.005262	1.080851
O27	O	0.194368	1.005263	0.929710
O28	O	0.054991	1.005267	1.272457
O29	O	-0.194332	1.348025	0.929715
O30	O	0.194366	0.662520	1.080853
O31	O	0.194367	0.662519	1.272456
O32	O	0.054988	0.662526	1.272459
O33	O	-0.054954	1.348019	0.738109
O34	O	-0.054953	1.348017	0.929713
O35	O	0.123092	0.892472	1.061680
O36	O	0.041043	0.892475	1.174475
O37	O	-0.041007	1.118068	1.061681
O38	O	0.041043	1.118064	0.948885
C39	C	0.000014	0.703757	1.005286
C40	C	0.000013	0.601425	1.005286
C41	C	-0.219318	1.005284	1.005288
C42	C	-0.293758	1.005288	1.005289
C43	C	-0.042810	0.457189	1.064162
C44	C	-0.042816	0.553345	1.064162
C45	C	0.042846	0.553352	0.946399
C46	C	0.042847	0.457204	0.946393
C47	C	-0.465013	1.005271	1.088553
C48	C	-0.534953	1.005262	1.088553
C49	C	-0.534947	1.005270	0.922011
C50	C	-0.465005	1.005270	0.922016
C51	C	-0.430042	1.005277	1.005286
C52	C	-0.569924	1.005269	1.005282
C53	C	-0.645756	1.005259	1.005282
C54	C	-0.354204	1.005284	1.005287
C55	C	0.219352	1.005261	1.005280
C56	C	0.293792	1.005257	1.005279
C57	C	0.000015	1.005275	0.703766
C58	C	0.000014	1.005276	0.601433
C59	C	0.000020	1.306789	1.005282
C60	C	0.000021	1.409120	1.005282
C61	C	-0.060557	1.005282	0.553358
C62	C	-0.060552	1.005274	0.457210
C63	C	0.060597	1.005259	0.457219
C64	C	0.060595	1.005258	0.553369
C65	C	0.000019	1.005270	1.306802
C66	C	0.000020	1.005269	1.409135
C67	C	0.000017	0.703754	1.306804
C68	C	0.000017	0.601421	1.409137
C69	C	0.219349	0.703745	1.005282
C70	C	0.293788	0.601409	1.005281
C71	C	0.219352	0.703742	1.306800
C72	C	0.293792	0.601405	1.409132
C73	C	-0.219318	1.306803	0.703768
C74	C	-0.293758	1.409140	0.601436
C75	C	0.000017	1.306791	0.703764
C76	C	0.000017	1.409124	0.601431
C77	C	-0.219315	1.306800	1.005286
C78	C	-0.293754	1.409136	1.005287
C79	C	0.371583	0.553349	1.064158
C80	C	0.441534	0.457207	1.064153
C81	C	0.433687	0.409121	1.005277
C82	C	0.355884	0.457191	0.946394
C83	C	0.285936	0.553338	0.946393
C84	C	0.285921	0.553349	1.516077
C85	C	0.355858	0.457206	1.612237
C86	C	0.433666	0.409115	1.601451
C87	C	0.441536	0.457181	1.494496
C88	C	0.371599	0.553329	1.398337
C89	C	-0.285887	1.457208	0.494491
C90	C	-0.355824	1.553381	0.398330
C91	C	-0.433632	1.601477	0.409116
C92	C	-0.441502	1.553404	0.516072
C93	C	-0.371565	1.457240	0.612231
C94	C	-0.285882	1.457191	1.064174
C95	C	-0.355819	1.553334	1.064196
C96	C	-0.433628	1.601426	1.005325
C97	C	-0.441498	1.553361	0.946436
C98	C	-0.371562	1.457213	0.946421
C99	C	-0.042811	0.553345	1.398340
C100	C	-0.042814	0.457200	1.494497
C101	C	0.042845	0.457212	1.612245
C102	C	0.042843	0.553362	1.516089
H103	H	-0.077694	0.592481	1.112106
H104	H	-0.504861	1.592576	0.524841
H105	H	0.222594	0.592456	0.898452
C106	C	0.384815	0.270567	1.788707
C107	C	0.347207	0.404382	1.729801
H108	H	0.379479	0.237961	1.861286
H109	H	0.359315	0.254801	1.748765
H110	H	0.441162	0.228186	1.796034
H111	H	0.290858	0.446764	1.722467
H112	H	0.372704	0.420158	1.769753
C113	C	-0.596857	1.116318	0.724535
C114	C	-0.573379	1.005269	0.830477
H115	H	-0.620577	1.116311	0.668025
H116	H	-0.635722	1.191637	0.721086
H117	H	-0.550190	1.116303	0.712640
H118	H	-0.620047	1.005288	0.842376
H119	H	-0.534511	0.929930	0.833928
H120	H	-0.490567	1.679715	1.005346
H121	H	-0.077683	0.418043	1.112111
H122	H	0.222572	0.592490	1.524880
H123	H	-0.077691	0.418063	1.485695
H124	H	0.077724	0.418069	0.898439
H125	H	-0.490573	1.679779	0.330809
C126	C	0.123468	1.116302	0.372101
C127	C	0.127180	1.005255	0.404377
H128	H	0.164577	1.116296	0.339484
H129	H	0.071186	1.191623	0.318681
H130	H	0.132137	1.116282	0.436256
H131	H	0.118505	1.005280	0.340220
H132	H	0.179475	0.929915	0.457800
C133	C	0.080889	0.700733	0.894129
C134	C	0.089928	0.606196	0.881684
H135	H	0.109963	0.733345	0.854183
H136	H	0.024548	0.769755	0.865049
H137	H	0.102039	0.663203	0.971595
H138	H	0.068772	0.643729	0.804218
H139	H	0.146281	0.537162	0.910759
H140	H	0.378019	0.592444	1.311262
H141	H	0.490607	0.330825	1.679759
H142	H	0.504897	0.418011	1.485730
C143	C	-0.208242	1.466902	0.368430
C144	C	-0.200365	1.404373	0.482615
H145	H	-0.155446	1.434299	0.361094
H146	H	-0.237296	1.451137	0.333372
H147	H	-0.237318	1.557678	0.333391
H148	H	-0.171295	1.313597	0.517652
H149	H	-0.171299	1.420128	0.517688
C150	C	0.080892	0.309816	1.811929
C151	C	0.089928	0.404369	1.729808
H152	H	0.109966	0.277188	1.884506
H153	H	0.024551	0.347327	1.803500
H154	H	0.102044	0.240795	1.803485
H155	H	0.068770	0.473395	1.738247
H156	H	0.146280	0.366859	1.738241
H157	H	-0.349401	1.592505	0.311252
C158	C	-0.472040	1.005246	1.253180
C159	C	-0.426575	1.005260	1.180091
H160	H	-0.448306	1.005228	1.309698
H161	H	-0.526717	1.080576	1.212054
H162	H	-0.471920	0.929908	1.287369
H163	H	-0.426700	1.080603	1.145895
H164	H	-0.371884	0.929922	1.221222
H165	H	0.077719	0.592509	1.524889
H166	H	-0.563423	1.005255	1.156357
H167	H	-0.436528	1.005270	0.854209
C168	C	-0.463292	1.466919	0.718929
C169	C	-0.380226	1.404394	0.729784
H170	H	-0.468641	1.434289	0.791501
H171	H	-0.488779	1.557681	0.678989
H172	H	-0.488786	1.451169	0.678949
H173	H	-0.354733	1.420151	0.769756
H174	H	-0.354728	1.313610	0.769741
H175	H	-0.109885	1.005295	0.592490
C176	C	0.090485	1.116300	0.605990
C177	C	0.127178	1.005253	0.606223
H178	H	0.131591	1.116286	0.638629
H179	H	0.060580	1.191621	0.530821
H180	H	0.054409	1.116288	0.648380
H181	H	0.163250	1.005269	0.563826
H182	H	0.157096	0.929912	0.681406
H183	H	-0.109874	1.005276	0.418071
H184	H	-0.504859	1.592532	0.898505
H185	H	-0.222533	1.418050	1.112114
H186	H	-0.377984	1.418097	0.898463
C187	C	0.463284	0.543722	1.180515
C188	C	0.380223	0.606211	1.128860
H189	H	0.468621	0.576368	1.220447
H190	H	0.488786	0.452956	1.231344
H191	H	0.488773	0.559482	1.124779
H192	H	0.354735	0.590443	1.184596
H193	H	0.354711	0.696998	1.078026
C194	C	0.586796	0.309838	1.116455
C195	C	0.527048	0.404376	1.128886
H196	H	0.639587	0.277233	1.156413
H197	H	0.580670	0.240812	1.145526
H198	H	0.580659	0.347366	1.038991
H199	H	0.533182	0.366845	1.206350
H200	H	0.533178	0.473414	1.099819
H201	H	0.490651	0.330832	1.005287
H202	H	0.349508	0.418025	0.898459
C203	C	-0.264088	1.543663	1.180562
C204	C	-0.347154	1.606168	1.128916
H205	H	-0.258740	1.576289	1.220508
H206	H	-0.238590	1.452897	1.231378
H207	H	-0.238605	1.559435	1.124820
H208	H	-0.372636	1.590389	1.184659
H209	H	-0.372663	1.696956	1.078096
C210	C	-0.127488	0.543681	1.291614
C211	C	-0.089893	0.606183	1.280779
H212	H	-0.156559	0.576308	1.219036
H213	H	-0.086959	0.452914	1.331565
H214	H	-0.164453	0.559452	1.331573
H215	H	-0.052923	0.590403	1.240826
H216	H	-0.130426	0.696971	1.240810
