data_functionalizedCrystal
_audit_creation_method	'MofGen! by Chris Wilmer'
_symmetry_space_group_name_H-M	'P1'
_symmetry_Int_Tables_number	1
_symmetry_cell_setting	triclinic
loop_
_symmetry_equiv_pos_as_xyz
  x,y,z
_cell_length_a	12.827893
_cell_length_b	12.827892
_cell_length_c	21.395355
_cell_angle_alpha	90.013138
_cell_angle_beta	90.022562
_cell_angle_gamma	90.015553
loop_
_atom_site_label
_atom_site_type_symbol
_atom_site_fract_x
_atom_site_fract_y
_atom_site_fract_z
Zn1	Zn	1.597703	-0.416150	0.354252
Zn2	Zn	1.931037	-0.082816	0.687585
Zn3	Zn	2.264370	0.250517	1.020918
Zn4	Zn	1.597588	-0.590876	0.249484
Zn5	Zn	1.930921	-0.257543	0.582817
Zn6	Zn	2.264254	0.075790	0.916151
Zn7	Zn	1.422935	-0.416150	0.249492
Zn8	Zn	1.756268	-0.082817	0.582825
Zn9	Zn	2.089602	0.250516	0.916159
Zn10	Zn	1.422930	-0.590850	0.354228
Zn11	Zn	1.756263	-0.257516	0.687561
Zn12	Zn	2.089597	0.075817	1.020894
O13	O	1.510289	-0.503506	0.301864
O14	O	1.843622	-0.170173	0.635197
O15	O	2.176956	0.163160	0.968530
O16	O	1.743924	-0.439338	0.340361
O17	O	2.077257	-0.106005	0.673694
O18	O	2.410591	0.227328	1.007027
O19	O	1.574373	-0.567710	0.161807
O20	O	1.907706	-0.234376	0.495140
O21	O	2.241040	0.098957	0.828474
O22	O	1.446169	-0.269914	0.263402
O23	O	1.779502	0.063419	0.596735
O24	O	2.112835	0.396753	0.930069
O25	O	1.743839	-0.567709	0.263388
O26	O	2.077172	-0.234376	0.596722
O27	O	2.410506	0.098958	0.930055
O28	O	1.574571	-0.269914	0.340368
O29	O	1.907904	0.063420	0.673702
O30	O	2.241237	0.396753	1.007035
O31	O	1.446056	-0.439339	0.161813
O32	O	1.779390	-0.106006	0.495146
O33	O	2.112723	0.227327	0.828480
O34	O	1.276698	-0.439314	0.263379
O35	O	1.610032	-0.105980	0.596712
O36	O	1.943365	0.227353	0.930045
O37	O	1.446161	-0.567664	0.441909
O38	O	1.779494	-0.234331	0.775242
O39	O	2.112827	0.099003	1.108576
O40	O	1.276695	-0.567665	0.340328
O41	O	1.610028	-0.234331	0.673661
O42	O	1.943361	0.099002	1.006994
O43	O	1.574566	-0.439313	0.441926
O44	O	1.907899	-0.105979	0.775260
O45	O	2.241233	0.227354	1.108593
O46	O	1.574368	-0.737109	0.263365
O47	O	1.907702	-0.403775	0.596698
O48	O	2.241035	-0.070442	0.930032
O49	O	1.446048	-0.737089	0.340320
O50	O	1.779382	-0.403756	0.673653
O51	O	2.112715	-0.070423	1.006987
C52	C	1.238779	-0.503487	0.301852
C53	C	1.572112	-0.170154	0.635185
C54	C	1.905446	0.163179	0.968519
C55	C	1.122626	-0.503504	0.301862
C56	C	1.455959	-0.170171	0.635195
C57	C	1.789293	0.163162	0.968528
C58	C	1.070883	-0.440095	0.340009
C59	C	1.404217	-0.106762	0.673343
C60	C	1.737550	0.226572	1.006676
C61	C	0.950833	-0.440111	0.340020
C62	C	1.284166	-0.106778	0.673354
C63	C	1.617500	0.226556	1.006687
C64	C	1.510224	-0.775016	0.301853
C65	C	1.843557	-0.441683	0.635186
C66	C	2.176890	-0.108350	0.968519
C67	C	1.510291	-0.891170	0.301869
C68	C	1.843625	-0.557836	0.635202
C69	C	2.176958	-0.224503	0.968536
C70	C	1.573864	-0.942929	0.263832
C71	C	1.907197	-0.609596	0.597165
C72	C	2.240530	-0.276263	0.930498
C73	C	1.573935	-1.062980	0.263847
C74	C	1.907268	-0.729646	0.597181
C75	C	2.240602	-0.396313	0.930514
C76	C	1.782859	-0.503527	0.301876
C77	C	2.116192	-0.170193	0.635209
C78	C	2.449526	0.163140	0.968543
C79	C	1.899012	-0.503535	0.301881
C80	C	2.232346	-0.170202	0.635215
C81	C	2.565679	0.163132	0.968548
C82	C	1.510376	-0.503485	0.465287
C83	C	1.843709	-0.170152	0.798620
C84	C	2.177042	0.163181	1.131954
C85	C	1.510413	-0.503476	0.534928
C86	C	1.843746	-0.170143	0.868262
C87	C	2.177079	0.163190	1.201595
C88	C	1.510383	-0.230936	0.301889
C89	C	1.843716	0.102397	0.635222
C90	C	2.177050	0.435730	0.968555
C91	C	1.510423	-0.114783	0.301899
C92	C	1.843757	0.218550	0.635233
C93	C	2.177090	0.551883	0.968566
C94	C	1.510263	-0.503452	0.139076
C95	C	1.843596	-0.170119	0.472410
C96	C	2.176929	0.163215	0.805743
C97	C	1.510428	-0.503167	0.069435
C98	C	1.843762	-0.169833	0.402769
C99	C	2.177095	0.163500	0.736102
C100	C	1.577270	-0.436641	0.567652
C101	C	1.910604	-0.103308	0.900985
C102	C	2.243937	0.230026	1.234318
C103	C	1.577269	-0.436596	0.633087
C104	C	1.910602	-0.103263	0.966420
C105	C	2.243936	0.230071	1.299754
C106	C	1.510421	-0.503405	0.665797
C107	C	1.843754	-0.170072	0.999130
C108	C	2.177088	0.163262	1.332463
C109	C	1.443550	-0.570245	0.633066
C110	C	1.776883	-0.236912	0.966399
C111	C	2.110217	0.096421	1.299732
C112	C	1.443546	-0.570281	0.567631
C113	C	1.776879	-0.236947	0.900965
C114	C	2.110213	0.096386	1.234298
C115	C	1.502147	-0.597499	0.769468
C116	C	1.835480	-0.264166	1.102801
C117	C	2.168813	0.069168	1.436134
C118	C	1.502158	-0.597465	0.834901
C119	C	1.835491	-0.264132	1.168234
C120	C	2.168825	0.069202	1.501567
C121	C	1.510427	-0.503295	0.867618
C122	C	1.843761	-0.169961	1.200951
C123	C	2.177094	0.163372	1.534284
C124	C	1.518707	-0.409155	0.834893
C125	C	1.852040	-0.075822	1.168227
C126	C	2.185374	0.257511	1.501560
C127	C	1.518703	-0.409191	0.769459
C128	C	1.852036	-0.075857	1.102793
C129	C	2.185370	0.257476	1.436126
C130	C	1.510417	-0.503373	0.736749
C131	C	1.843751	-0.170040	1.070083
C132	C	2.177084	0.163293	1.403416
C133	C	1.577287	-0.436405	0.971293
C134	C	1.910620	-0.103072	1.304627
C135	C	2.243954	0.230262	1.637960
C136	C	1.577278	-0.436358	1.036730
C137	C	1.910612	-0.103025	1.370063
C138	C	2.243945	0.230308	1.703397
C139	C	1.443565	-0.570017	1.036707
C140	C	1.776898	-0.236683	1.370041
C141	C	2.110232	0.096650	1.703374
C142	C	1.443568	-0.570054	0.971272
C143	C	1.776901	-0.236721	1.304605
C144	C	2.110235	0.096613	1.637939
C145	C	1.510435	-0.503250	0.938569
C146	C	1.843768	-0.169916	1.271902
C147	C	2.177101	0.163417	1.605236
H148	H	0.906335	-0.385827	0.372682
H149	H	1.239669	-0.052494	0.706015
H150	H	1.573002	0.280839	1.039349
F151	F	1.648453	-0.365231	1.071557
F152	F	1.981787	-0.031897	1.404890
F153	F	2.315120	0.301436	1.738223
H154	H	1.389098	-0.624705	0.540989
H155	H	1.722431	-0.291372	0.874322
H156	H	2.055764	0.041962	1.207655
H157	H	1.455922	-0.935733	0.334448
H158	H	1.789255	-0.602399	0.667782
H159	H	2.122589	-0.269066	1.001115
H160	H	1.115461	-0.385792	0.372659
H161	H	1.448794	-0.052459	0.705992
H162	H	1.782128	0.280874	1.039325
H163	H	1.631717	-0.382242	0.541029
H164	H	1.965051	-0.048909	0.874362
H165	H	2.298384	0.284425	1.207696
H166	H	1.631710	-0.382165	0.659736
H167	H	1.965044	-0.048832	0.993069
H168	H	2.298377	0.284502	1.326402
H169	H	0.943503	-0.557831	0.269224
H170	H	1.276837	-0.224497	0.602557
H171	H	1.610170	0.108836	0.935890
H172	H	1.628359	-1.107492	0.231281
H173	H	1.961692	-0.774158	0.564614
H174	H	2.295025	-0.440825	0.897947
H175	H	1.078048	-0.557801	0.269209
H176	H	1.411381	-0.224467	0.602542
H177	H	1.744715	0.108866	0.935876
H178	H	1.628242	-0.898368	0.231256
H179	H	1.961575	-0.565035	0.564590
H180	H	2.294909	-0.231702	0.897923
F181	F	1.439273	-1.056613	0.344464
F182	F	1.772606	-0.723280	0.677798
F183	F	2.105939	-0.389946	1.011131
F184	F	1.527509	-0.309004	0.734634
F185	F	1.860843	0.024330	1.067968
F186	F	2.194176	0.357663	1.401301
H187	H	1.525442	-0.332473	0.861530
H188	H	1.858776	0.000861	1.194863
H189	H	2.192109	0.334194	1.528197
F190	F	1.648447	-0.365303	0.936486
F191	F	1.981780	-0.031969	1.269820
F192	F	2.315114	0.301364	1.603153
H193	H	1.389125	-0.624404	1.063339
H194	H	1.722459	-0.291070	1.396672
H195	H	2.055792	0.042263	1.730006
H196	H	1.389132	-0.624485	0.944628
H197	H	1.722465	-0.291152	1.277962
H198	H	2.055798	0.042182	1.611295
F199	F	1.493355	-0.697656	0.869722
F200	F	1.826689	-0.364323	1.203056
F201	F	2.160022	-0.030989	1.536389
F202	F	1.493369	-0.697737	0.734654
F203	F	1.826702	-0.364404	1.067988
F204	F	2.160036	-0.031070	1.401321
F205	F	1.372402	-0.641345	0.667878
F206	F	1.705736	-0.308012	1.001212
F207	F	2.039069	0.025322	1.334545
