data_functionalizedCrystal
_audit_creation_method	'MofGen! by Chris Wilmer'
_symmetry_space_group_name_H-M	'P1'
_symmetry_Int_Tables_number	1
_symmetry_cell_setting	triclinic
loop_
_symmetry_equiv_pos_as_xyz
  x,y,z
_cell_length_a	11.169417
_cell_length_b	12.645330
_cell_length_c	11.169409
_cell_angle_alpha	90.034413
_cell_angle_beta	90.019824
_cell_angle_gamma	90.013525
loop_
_atom_site_label
_atom_site_type_symbol
_atom_site_fract_x
_atom_site_fract_y
_atom_site_fract_z
Zn1	Zn	1.834943	-0.421929	0.678525
Zn2	Zn	2.334943	0.078071	1.178525
Zn3	Zn	1.834824	-0.599240	0.477835
Zn4	Zn	2.334824	-0.099240	0.977835
Zn5	Zn	1.634229	-0.421993	0.477860
Zn6	Zn	2.134229	0.078007	0.977860
Zn7	Zn	1.634228	-0.599153	0.678480
Zn8	Zn	2.134228	-0.099153	1.178480
O9	O	1.734556	-0.510579	0.578175
O10	O	2.234556	-0.010579	1.078175
O11	O	2.002877	-0.445458	0.651912
O12	O	2.502877	0.054542	1.151912
O13	O	1.808166	-0.575791	0.309889
O14	O	2.308166	-0.075791	0.809889
O15	O	1.660904	-0.273637	0.504508
O16	O	2.160904	0.226363	1.004508
O17	O	2.002790	-0.575728	0.504466
O18	O	2.502790	-0.075728	1.004466
O19	O	1.808368	-0.273590	0.651936
O20	O	2.308368	0.226410	1.151936
O21	O	1.660789	-0.445569	0.309907
O22	O	2.160789	0.054431	0.809907
O23	O	1.466279	-0.445485	0.504464
O24	O	1.966279	0.054515	1.004464
O25	O	1.660903	-0.575581	0.846436
O26	O	2.160903	-0.075581	1.346436
O27	O	1.466279	-0.575644	0.651859
O28	O	1.966279	-0.075644	1.151859
O29	O	1.808367	-0.445375	0.846469
O30	O	2.308367	0.054625	1.346469
O31	O	1.808165	-0.747575	0.504422
O32	O	2.308165	-0.247575	1.004422
O33	O	1.660788	-0.747512	0.651835
O34	O	2.160788	-0.247512	1.151835
C35	C	1.422732	-0.510563	0.578160
C36	C	1.922732	-0.010563	1.078160
C37	C	1.289332	-0.510581	0.578181
C38	C	1.789332	-0.010581	1.078181
C39	C	1.734496	-0.786008	0.578147
C40	C	2.234496	-0.286008	1.078147
C41	C	1.734580	-0.903838	0.578175
C42	C	2.234580	-0.403838	1.078175
C43	C	1.827146	-1.071398	0.485249
C44	C	2.327146	-0.571398	0.985249
C45	C	1.827448	-0.948838	0.485476
C46	C	2.327448	-0.448838	0.985476
C47	C	1.768886	-0.948206	0.704683
C48	C	2.268886	-0.448206	1.204683
C49	C	1.769620	-1.070804	0.704190
C50	C	2.269620	-0.570804	1.204190
C51	C	1.607672	-1.071171	0.545839
C52	C	2.107672	-0.571171	1.045839
C53	C	1.608281	-0.948567	0.543001
C54	C	2.108281	-0.448567	1.043001
C55	C	2.047599	-0.510596	0.578191
C56	C	2.547599	-0.010596	1.078191
C57	C	2.180998	-0.510603	0.578198
C58	C	2.680998	-0.010603	1.078198
C59	C	1.734648	-0.510461	0.891218
C60	C	2.234648	-0.010461	1.391218
C61	C	1.734688	-0.510411	1.024618
C62	C	2.234688	-0.010411	1.524618
C63	C	1.734649	-0.234073	0.578230
C64	C	2.234649	0.265927	1.078230
C65	C	1.734689	-0.116243	0.578253
C66	C	2.234689	0.383757	1.078253
C67	C	1.734533	-0.510619	0.266350
C68	C	2.234533	-0.010619	0.766350
C69	C	1.734727	-0.510371	0.132951
C70	C	2.234727	-0.010371	0.632951
H71	H	1.805984	-0.918846	0.391672
H72	H	2.305984	-0.418846	0.891672
C73	C	1.565526	-1.113061	0.423385
C74	C	2.065526	-0.613061	0.923385
H75	H	1.488717	-1.084915	0.405532
H76	H	1.988717	-0.584915	0.905532
H77	H	1.620761	-1.092067	0.363270
H78	H	2.120761	-0.592067	0.863270
H79	H	1.561087	-1.188055	0.425816
H80	H	2.061087	-0.688055	0.925816
H81	H	1.535676	-0.917947	0.605775
H82	H	2.035676	-0.417947	1.105775
H83	H	1.703594	-0.919053	0.775835
H84	H	2.203594	-0.419053	1.275835
C85	C	1.798641	-1.111477	0.358184
C86	C	2.298641	-0.611477	0.858184
H87	H	1.730091	-1.155911	0.360708
H88	H	2.230091	-0.655911	0.860708
H89	H	1.783291	-1.052948	0.307169
H90	H	2.283291	-0.552948	0.807169
H91	H	1.864987	-1.150363	0.328300
H92	H	2.364987	-0.650363	0.828300
C93	C	1.895041	-1.109327	0.741266
C94	C	2.395041	-0.609327	1.241266
H95	H	1.896594	-1.184444	0.741295
H96	H	2.396594	-0.684444	1.241295
H97	H	1.952724	-1.083382	0.686133
H98	H	2.452724	-0.583382	1.186133
H99	H	1.913174	-1.083931	0.819257
H100	H	2.413174	-0.583931	1.319257
C101	C	1.954529	-0.909092	0.514450
C102	C	2.454529	-0.409092	1.014450
H103	H	1.955150	-0.833965	0.514679
H104	H	2.455150	-0.333965	1.014679
H105	H	1.978031	-0.934425	0.590977
H106	H	2.478031	-0.434425	1.090977
H107	H	2.008809	-0.934353	0.455552
H108	H	2.508809	-0.434353	0.955552
H109	H	1.705228	-1.100464	0.775872
H110	H	2.205228	-0.600464	1.275872
C111	C	1.892896	-0.906624	0.742395
C112	C	2.392896	-0.406624	1.242395
H113	H	1.923930	-0.862238	0.681222
H114	H	2.423930	-0.362238	1.181222
H115	H	1.885677	-0.867410	0.814598
H116	H	2.385677	-0.367410	1.314598
H117	H	1.945600	-0.964580	0.754603
H118	H	2.445600	-0.464580	1.254603
C119	C	1.953558	-1.112891	0.513890
C120	C	2.453558	-0.612891	1.013890
H121	H	1.950235	-1.157422	0.582283
H122	H	2.450235	-0.657422	1.082283
H123	H	1.983082	-1.151933	0.447488
H124	H	2.483082	-0.651933	0.947488
H125	H	2.005341	-1.054906	0.529595
H126	H	2.505341	-0.554906	1.029595
H127	H	1.582414	-0.919581	0.449902
H128	H	2.082414	-0.419581	0.949902
C129	C	1.514646	-1.110195	0.637463
C130	C	2.014646	-0.610195	1.137463
H131	H	1.552957	-1.153763	0.695179
H132	H	2.052957	-0.653763	1.195179
H133	H	1.479245	-1.051145	0.676343
H134	H	1.979245	-0.551145	1.176343
H135	H	1.454371	-1.149730	0.597428
H136	H	1.954371	-0.649730	1.097428
