data_functionalizedCrystal
_audit_creation_method	'MofGen! by Chris Wilmer'
_symmetry_space_group_name_H-M	'P1'
_symmetry_Int_Tables_number	1
_symmetry_cell_setting	triclinic
loop_
_symmetry_equiv_pos_as_xyz
  x,y,z
_cell_length_a	16.625547
_cell_length_b	16.625546
_cell_length_c	16.625527
_cell_angle_alpha	89.912139
_cell_angle_beta	89.935872
_cell_angle_gamma	90.022405
loop_
_atom_site_label
_atom_site_type_symbol
_atom_site_fract_x
_atom_site_fract_y
_atom_site_fract_z
Zn1	Zn	1.232993	-0.320544	-0.455990
Zn2	Zn	1.482993	-0.070544	-0.205990
Zn3	Zn	1.732993	0.179456	0.044010
Zn4	Zn	1.982993	0.429456	0.294010
Zn5	Zn	1.232804	-0.455522	-0.321152
Zn6	Zn	1.482804	-0.205522	-0.071152
Zn7	Zn	1.732804	0.044478	0.178848
Zn8	Zn	1.982804	0.294478	0.428848
Zn9	Zn	1.098063	-0.320707	-0.321160
Zn10	Zn	1.348063	-0.070707	-0.071160
Zn11	Zn	1.598063	0.179293	0.178840
Zn12	Zn	1.848063	0.429293	0.428840
Zn13	Zn	1.098126	-0.455338	-0.455932
Zn14	Zn	1.348126	-0.205338	-0.205932
Zn15	Zn	1.598126	0.044662	0.044068
Zn16	Zn	1.848126	0.294662	0.294068
O17	O	1.165497	-0.388028	-0.388559
O18	O	1.415497	-0.138028	-0.138559
O19	O	1.665497	0.111972	0.111441
O20	O	1.915497	0.361972	0.361441
O21	O	1.345801	-0.338458	-0.438124
O22	O	1.595801	-0.088458	-0.188124
O23	O	1.845801	0.161542	0.061876
O24	O	2.095801	0.411542	0.311876
O25	O	1.214825	-0.437784	-0.208321
O26	O	1.464825	-0.187784	0.041679
O27	O	1.714825	0.062216	0.291679
O28	O	1.964825	0.312216	0.541679
O29	O	1.116015	-0.207853	-0.339074
O30	O	1.366015	0.042147	-0.089074
O31	O	1.616015	0.292147	0.160926
O32	O	1.866015	0.542147	0.410926
O33	O	1.345662	-0.437626	-0.339059
O34	O	1.595662	-0.187626	-0.089059
O35	O	1.845662	0.062374	0.160941
O36	O	2.095662	0.312374	0.410941
O37	O	1.215148	-0.207733	-0.438132
O38	O	1.465148	0.042267	-0.188132
O39	O	1.715148	0.292267	0.061868
O40	O	1.965148	0.542267	0.311868
O41	O	1.115831	-0.338736	-0.208327
O42	O	1.365831	-0.088736	0.041673
O43	O	1.615831	0.161264	0.291673
O44	O	1.865831	0.411264	0.541673
O45	O	0.985239	-0.338558	-0.339017
O46	O	1.235239	-0.088558	-0.089017
O47	O	1.485239	0.161442	0.160983
O48	O	1.735239	0.411442	0.410983
O49	O	1.116122	-0.437312	-0.568773
O50	O	1.366122	-0.187312	-0.318773
O51	O	1.616122	0.062688	-0.068773
O52	O	1.866122	0.312688	0.181227
O53	O	0.985285	-0.437470	-0.438034
O54	O	1.235285	-0.187470	-0.188034
O55	O	1.485285	0.062530	0.061966
O56	O	1.735285	0.312530	0.311966
O57	O	1.215209	-0.338279	-0.568815
O58	O	1.465209	-0.088279	-0.318815
O59	O	1.715209	0.161721	-0.068815
O60	O	1.965209	0.411721	0.181185
O61	O	1.214886	-0.568330	-0.339003
O62	O	1.464886	-0.318330	-0.089003
O63	O	1.714886	-0.068330	0.160997
O64	O	1.964886	0.181670	0.410997
O65	O	1.115938	-0.568195	-0.438026
O66	O	1.365938	-0.318195	-0.188026
O67	O	1.615938	-0.068195	0.061974
O68	O	1.865938	0.181805	0.311974
C69	C	0.956006	-0.388012	-0.388521
C70	C	1.206006	-0.138012	-0.138521
C71	C	1.456006	0.111988	0.111479
C72	C	1.706006	0.361988	0.361479
C73	C	0.866385	-0.388025	-0.388524
C74	C	1.116385	-0.138025	-0.138524
C75	C	1.366385	0.111975	0.111476
C76	C	1.616385	0.361975	0.361476
C77	C	0.793602	-0.388027	-0.388533
C78	C	1.043602	-0.138027	-0.138533
C79	C	1.293602	0.111973	0.111467
C80	C	1.543602	0.361973	0.361467
C81	C	0.702294	-0.388031	-0.388554
C82	C	0.952294	-0.138031	-0.138554
C83	C	1.202294	0.111969	0.111446
C84	C	1.452294	0.361969	0.361446
C85	C	0.629517	-0.388038	-0.388574
C86	C	0.879517	-0.138038	-0.138574
C87	C	1.129517	0.111962	0.111426
C88	C	1.379517	0.361962	0.361426
C89	C	0.538203	-0.388044	-0.388593
C90	C	0.788203	-0.138044	-0.138593
C91	C	1.038203	0.111956	0.111407
C92	C	1.288203	0.361956	0.361407
C93	C	1.165420	-0.597519	-0.388525
C94	C	1.415420	-0.347519	-0.138525
C95	C	1.665420	-0.097519	0.111475
C96	C	1.915420	0.152481	0.361475
C97	C	1.165461	-0.687140	-0.388538
C98	C	1.415461	-0.437140	-0.138538
C99	C	1.665461	-0.187140	0.111462
C100	C	1.915461	0.062860	0.361462
C101	C	1.165602	-1.015315	-0.388622
C102	C	1.415602	-0.765315	-0.138622
C103	C	1.665602	-0.515315	0.111378
C104	C	1.915602	-0.265315	0.361378
C105	C	1.165560	-0.924007	-0.388600
C106	C	1.415560	-0.674007	-0.138600
C107	C	1.665560	-0.424007	0.111400
C108	C	1.915560	-0.174007	0.361400
C109	C	1.165531	-0.851231	-0.388579
C110	C	1.415531	-0.601231	-0.138579
C111	C	1.665531	-0.351231	0.111421
C112	C	1.915531	-0.101231	0.361421
C113	C	1.165491	-0.759916	-0.388559
C114	C	1.415491	-0.509916	-0.138559
C115	C	1.665491	-0.259916	0.111441
C116	C	1.915491	-0.009916	0.361441
C117	C	1.375805	-0.388044	-0.388597
C118	C	1.625805	-0.138044	-0.138597
C119	C	1.875805	0.111956	0.111403
C120	C	2.125805	0.361956	0.361403
C121	C	1.465427	-0.388051	-0.388614
C122	C	1.715427	-0.138051	-0.138614
C123	C	1.965427	0.111949	0.111386
C124	C	2.215427	0.361949	0.361386
C125	C	1.165693	-0.387757	-0.598868
C126	C	1.415693	-0.137757	-0.348868
C127	C	1.665693	0.112243	-0.098868
C128	C	1.915693	0.362243	0.151132
C129	C	1.165777	-0.387641	-0.688490
C130	C	1.415777	-0.137641	-0.438490
C131	C	1.665777	0.112359	-0.188490
C132	C	1.915777	0.362359	0.061510
C133	C	1.165595	-0.177719	-0.388610
C134	C	1.415595	0.072281	-0.138610
C135	C	1.665595	0.322281	0.111390
C136	C	1.915595	0.572281	0.361390
C137	C	1.165637	-0.088098	-0.388632
C138	C	1.415637	0.161902	-0.138632
C139	C	1.665637	0.411902	0.111368
C140	C	1.915637	0.661902	0.361368
C141	C	1.165347	-0.388240	-0.179067
C142	C	1.415347	-0.138240	0.070933
C143	C	1.665347	0.111760	0.320933
C144	C	1.915347	0.361760	0.570933
C145	C	1.165419	-0.388128	-0.089447
C146	C	1.415419	-0.138128	0.160553
C147	C	1.665419	0.111872	0.410553
C148	C	1.915419	0.361872	0.660553
C149	C	1.165719	-0.387733	0.238728
C150	C	1.415719	-0.137733	0.488728
C151	C	1.665719	0.112267	0.738728
C152	C	1.915719	0.362267	0.988728
C153	C	1.165638	-0.387845	0.147420
C154	C	1.415638	-0.137845	0.397420
C155	C	1.665638	0.112155	0.647420
C156	C	1.915638	0.362155	0.897420
C157	C	1.165569	-0.387931	0.074644
C158	C	1.415569	-0.137931	0.324644
C159	C	1.665569	0.112069	0.574644
C160	C	1.915569	0.362069	0.824644
C161	C	1.165488	-0.388042	-0.016670
C162	C	1.415488	-0.138042	0.233330
C163	C	1.665488	0.111958	0.483330
C164	C	1.915488	0.361958	0.733330
