data_functionalizedCrystal
_audit_creation_method	'MofGen! by Chris Wilmer'
_symmetry_space_group_name_H-M	'P1'
_symmetry_Int_Tables_number	1
_symmetry_cell_setting	triclinic
loop_
_symmetry_equiv_pos_as_xyz
  x,y,z
_cell_length_a	14.971482
_cell_length_b	12.837942
_cell_length_c	13.448316
_cell_angle_alpha	90.002966
_cell_angle_beta	90.004522
_cell_angle_gamma	89.220774
loop_
_atom_site_label
_atom_site_type_symbol
_atom_site_fract_x
_atom_site_fract_y
_atom_site_fract_z
O1	O	1.198337	0.135083	0.082678
O2	O	1.698337	0.635083	0.582678
O3	O	0.939300	0.151266	0.082683
O4	O	1.439300	0.651266	0.582683
O5	O	1.063075	-0.007735	0.082675
O6	O	1.563075	0.492265	0.582675
O7	O	1.074562	0.294084	0.082687
O8	O	1.574562	0.794084	0.582687
O9	O	1.063061	-0.007737	-0.082709
O10	O	1.563061	0.492263	0.417291
O11	O	0.939287	0.151265	-0.082701
O12	O	1.439287	0.651265	0.417299
O13	O	1.198323	0.135082	-0.082705
O14	O	1.698323	0.635082	0.417295
Cu15	Cu	1.068803	0.143173	-0.097804
Cu16	Cu	1.568803	0.643173	0.402196
Cu17	Cu	1.068820	0.143175	0.097782
Cu18	Cu	1.568820	0.643175	0.597782
O19	O	1.074548	0.294083	-0.082697
O20	O	1.574548	0.794083	0.417303
C21	C	0.905908	0.150542	-0.000008
C22	C	1.405908	0.650542	0.499992
C23	C	0.806428	0.148376	-0.000006
C24	C	1.306428	0.648376	0.499994
C25	C	0.759690	0.147354	-0.090158
C26	C	1.259690	0.647354	0.409842
C27	C	0.666218	0.145302	-0.090159
C28	C	1.166218	0.645302	0.409841
C29	C	0.619486	0.144278	-0.000008
C30	C	1.119486	0.644278	0.499992
C31	C	0.666231	0.145296	0.090151
C32	C	1.166231	0.645296	0.590151
C33	C	0.759701	0.147341	0.090151
C34	C	1.259701	0.647341	0.590151
C35	C	0.471410	0.141037	0.090144
C36	C	0.971410	0.641037	0.590144
C37	C	0.377933	0.138993	0.090145
C38	C	0.877933	0.638993	0.590145
C39	C	0.377927	0.138997	-0.090166
C40	C	0.877927	0.638997	0.409834
C41	C	0.471397	0.141042	-0.090166
C42	C	0.971397	0.641042	0.409834
C43	C	0.518135	0.142062	-0.000007
C44	C	1.018135	0.642062	0.499993
C45	C	1.059187	-0.046361	-0.000017
C46	C	1.559187	0.453639	0.499983
C47	C	1.047613	-0.161453	-0.000015
C48	C	1.547613	0.338547	0.499985
C49	C	1.186755	-0.402241	0.000004
C50	C	1.686755	0.097759	0.500004
C51	C	1.175884	-0.510380	0.000005
C52	C	1.675884	-0.010380	0.500005
C53	C	1.015001	-0.485872	-0.000002
C54	C	1.515001	0.014128	0.499998
C55	C	1.025872	-0.377733	-0.000004
C56	C	1.525872	0.122267	0.499996
C57	C	1.111752	-0.335921	-0.000003
C58	C	1.611752	0.164079	0.499997
C59	C	1.122622	-0.227780	-0.000012
C60	C	1.622622	0.272220	0.499988
C61	C	0.961739	-0.203275	-0.000012
C62	C	1.461739	0.296725	0.499988
C63	C	0.950869	-0.311414	-0.000010
C64	C	1.450869	0.188586	0.499990
C65	C	1.231715	0.135805	-0.000012
C66	C	1.731715	0.635805	0.499988
C67	C	1.331195	0.137972	-0.000007
C68	C	1.831195	0.637972	0.499993
C69	C	1.078436	0.332709	-0.000004
C70	C	1.578436	0.832709	0.499996
C71	C	1.090010	0.447800	0.000001
C72	C	1.590010	0.947800	0.500001
N73	N	1.068798	0.143171	-0.235368
N74	N	1.568798	0.643171	0.264632
C75	C	1.128411	0.206155	-0.287403
C76	C	1.628411	0.706155	0.212597
C77	C	1.128422	0.206151	-0.391506
C78	C	1.628422	0.706151	0.108494
C79	C	1.068815	0.143167	-0.443573
C80	C	1.568815	0.643167	0.056427
C81	C	1.009199	0.080176	-0.391531
C82	C	1.509199	0.580176	0.108469
C83	C	1.009194	0.080176	-0.287430
C84	C	1.509194	0.580176	0.212570
C85	C	1.009214	0.080183	-0.608511
C86	C	1.509214	0.580183	-0.108511
C87	C	1.009219	0.080185	-0.712620
C88	C	1.509219	0.580185	-0.212620
C89	C	1.128442	0.206158	-0.712587
C90	C	1.628442	0.706158	-0.212587
C91	C	1.128436	0.206157	-0.608486
C92	C	1.628436	0.706157	-0.108486
C93	C	1.068820	0.143168	-0.556451
C94	C	1.568820	0.643168	-0.056451
N95	N	1.068831	0.143168	0.235346
N96	N	1.568831	0.643168	0.735346
H97	H	0.509443	0.141882	-0.163576
H98	H	1.009443	0.641882	0.336424
H99	H	0.339868	0.138167	-0.163577
H100	H	0.839868	0.638167	0.336423
H101	H	0.797754	0.148175	0.163562
H102	H	1.297754	0.648175	0.663562
H103	H	0.900666	-0.149265	-0.000025
H104	H	1.400666	0.350735	0.499975
H105	H	1.176981	0.257451	-0.754959
H106	H	1.676981	0.757451	-0.254959
C107	C	0.856406	-0.357419	-0.000023
C108	C	1.356406	0.142581	0.499977
N109	N	0.785254	-0.392070	-0.000040
N110	N	1.285254	0.107930	0.499960
C111	C	0.326530	0.137863	0.189316
C112	C	0.826530	0.637863	0.689316
N113	N	0.287814	0.137010	0.264014
N114	N	0.787814	0.637010	0.764014
C115	C	0.614823	0.144167	0.189319
C116	C	1.114823	0.644167	0.689319
N117	N	0.576103	0.143320	0.264015
N118	N	1.076103	0.643320	0.764015
C119	C	1.217090	-0.181789	-0.000007
C120	C	1.717090	0.318211	0.499993
N121	N	1.288246	-0.147152	0.000001
N122	N	1.788246	0.352848	0.500001
H123	H	1.256682	-0.368197	-0.000005
H124	H	1.756682	0.131803	0.499995
C125	C	1.193968	0.275479	-0.448739
C126	C	1.693968	0.775479	0.051261
N127	N	1.243330	0.327714	-0.491846
N128	N	1.743330	0.827714	0.008154
H129	H	0.945082	-0.519934	0.000008
H130	H	1.445082	-0.019934	0.500008
H131	H	1.236960	-0.564374	0.000014
H132	H	1.736960	-0.064374	0.500014
H133	H	1.176945	0.257450	-0.245017
H134	H	1.676945	0.757450	0.254983
C135	C	0.943659	0.010885	-0.769891
C136	C	1.443659	0.510885	-0.269891
N137	N	0.894282	-0.041317	-0.813028
N138	N	1.394282	0.458683	-0.313028
H139	H	1.176970	0.257449	-0.566096
H140	H	1.676970	0.757449	-0.066096
C141	C	0.943630	0.010893	-0.551276
C142	C	1.443630	0.510893	-0.051276
N143	N	0.894230	-0.041290	-0.508166
N144	N	1.394230	0.458710	-0.008166
H145	H	0.960671	0.028889	-0.433932
H146	H	1.460671	0.528889	0.066068
C147	C	0.943613	0.010891	-0.230192
C148	C	1.443613	0.510891	0.269808
N149	N	0.894217	-0.041298	-0.187083
N150	N	1.394217	0.458702	0.312917
H151	H	0.797732	0.148197	-0.163570
H152	H	1.297732	0.648197	0.336430
C153	C	0.614810	0.144203	-0.189334
C154	C	1.114810	0.644203	0.310666
N155	N	0.576089	0.143382	-0.264036
N156	N	1.076089	0.643382	0.235964
H157	H	0.509461	0.141868	0.163562
H158	H	1.009461	0.641868	0.663562
