data_functionalizedCrystal
_audit_creation_method	'MofGen! by Chris Wilmer'
_symmetry_space_group_name_H-M	'P1'
_symmetry_Int_Tables_number	1
_symmetry_cell_setting	triclinic
loop_
_symmetry_equiv_pos_as_xyz
  x,y,z
_cell_length_a	15.995350
_cell_length_b	15.995350
_cell_length_c	15.072220
_cell_angle_alpha	90.008851
_cell_angle_beta	89.998899
_cell_angle_gamma	83.492375
loop_
_atom_site_label
_atom_site_type_symbol
_atom_site_fract_x
_atom_site_fract_y
_atom_site_fract_z
O1	O	0.107921	1.110996	0.073703
O2	O	0.121249	0.867221	0.073721
O3	O	-0.007303	0.995772	0.073710
O4	O	0.236472	0.982444	0.073713
O5	O	-0.007296	0.995740	-0.073855
O6	O	0.121256	0.867189	-0.073844
O7	O	0.107928	1.110964	-0.073862
Zn8	Zn	0.114593	0.989071	-0.097283
Zn9	Zn	0.114584	0.989113	0.097141
O10	O	0.236480	0.982413	-0.073852
C11	C	0.120701	0.836010	-0.000060
C12	C	0.119049	0.743060	-0.000053
C13	C	0.113117	0.405312	-0.000071
C14	C	0.021565	0.452746	-0.000401
C15	C	0.023217	0.549436	-0.000063
C16	C	0.116060	0.572873	-0.000063
C17	C	0.161212	0.531804	0.084201
C18	C	0.158912	0.435168	0.084266
C19	C	0.160812	0.434793	-0.083543
C20	C	0.160790	0.531738	-0.084651
C21	C	0.117727	0.667570	-0.000055
C22	C	0.111452	0.310614	-0.000073
C23	C	-0.038494	0.995205	-0.000070
C24	C	-0.131444	0.993553	-0.000065
C25	C	-0.469192	0.987621	-0.000068
C26	C	-0.421758	0.896069	0.000270
C27	C	-0.325068	0.897721	-0.000063
C28	C	-0.301631	0.990564	-0.000066
C29	C	-0.342705	1.035702	-0.084335
C30	C	-0.439341	1.033402	-0.084405
C31	C	-0.439707	1.035330	0.083404
C32	C	-0.342761	1.035308	0.084518
C33	C	-0.206934	0.992231	-0.000068
C34	C	-0.563890	0.985956	-0.000072
C35	C	0.267671	0.982980	-0.000069
C36	C	0.360621	0.984631	-0.000069
C37	C	0.108476	1.142175	-0.000080
C38	C	0.110127	1.235125	-0.000081
N39	N	0.114599	0.989049	-0.229971
C40	C	0.114580	0.989112	-0.589173
C41	C	0.183135	0.920095	-0.551560
C42	C	0.183385	0.920254	-0.448735
C43	C	0.114590	0.989080	-0.410969
C44	C	0.133671	1.076445	-0.448266
C45	C	0.134159	1.076058	-0.551124
C46	C	0.026741	0.971542	-0.551272
C47	C	0.027327	0.969537	-0.448409
C48	C	0.114593	0.989067	-0.310255
C49	C	0.114579	0.989130	-0.689886
N50	N	0.114571	0.989142	0.229830
H51	H	0.129845	0.560191	0.146912
H52	H	0.198219	1.091540	-0.575106
H53	H	0.085068	1.129029	-0.423801
H54	H	0.197002	1.092297	-0.422498
H55	H	-0.012275	0.577852	-0.060467
N56	N	0.003750	0.893338	-0.583841
N57	N	0.051831	0.849599	-0.635389
H58	H	0.035605	0.794361	-0.658387
H59	H	-0.314320	1.004325	-0.147042
N60	N	-0.465490	0.997797	0.163523
N61	N	-0.505915	0.935423	0.160073
H62	H	-0.524126	0.908908	0.216653
N63	N	-0.308517	0.993954	0.162719
N64	N	-0.254020	0.931759	0.156252
H65	H	-0.229830	0.902550	0.211481
N66	N	0.264455	0.933955	-0.583969
N67	N	0.306392	0.878523	-0.629034
H68	H	0.363824	0.888312	-0.651925
N69	N	0.009169	0.888913	-0.417829
N70	N	0.060262	0.845961	-0.368641
H71	H	0.047440	0.789019	-0.347038
N72	N	-0.024320	0.429471	-0.076215
N73	N	-0.090603	0.395991	-0.066185
H74	H	-0.123000	0.379544	-0.119737
H75	H	0.228494	0.547102	-0.089741
N76	N	0.123265	0.409008	-0.163663
N77	N	0.060890	0.368584	-0.160212
H78	H	0.034365	0.350371	-0.216792
H79	H	-0.471588	1.100617	-0.088231
H80	H	0.125979	0.416873	0.147255
N81	N	-0.024135	0.428168	0.074981
N82	N	0.010430	0.375869	0.128947
H83	H	-0.021843	0.358509	0.182188
N84	N	0.119424	0.565979	-0.162849
N85	N	0.057231	0.620477	-0.156375
H86	H	0.028013	0.644665	-0.211601
N87	N	-0.021623	0.584406	0.075838
N88	N	-0.097613	0.575126	0.085698
H89	H	-0.129284	0.599822	0.139307
N90	N	0.243235	0.394720	0.089062
N91	N	0.303593	0.437889	0.092357
H92	H	0.363145	0.409327	0.095748
N93	N	0.246773	0.549539	0.088152
N94	N	0.271843	0.588569	0.153000
H95	H	0.332271	0.601097	0.155790
H96	H	-0.026078	1.016540	-0.422704
H97	H	-0.024275	1.021872	-0.575595
N98	N	0.169107	0.838373	-0.582643
N99	N	0.169803	0.823198	-0.664012
H100	H	0.159893	0.765482	-0.685974
H101	H	0.228312	0.403031	-0.084113
N102	N	-0.323471	1.120238	0.090901
N103	N	-0.278902	1.149303	0.032953
H104	H	-0.265274	1.209286	0.037457
N105	N	-0.289423	0.853204	0.075718
N106	N	-0.335950	0.820693	0.129221
H107	H	-0.310780	0.789246	0.182743
N108	N	-0.445027	0.850170	0.076065
N109	N	-0.478496	0.783883	0.065996
H110	H	-0.494938	0.751466	0.119529
N111	N	-0.446341	0.850357	-0.075111
N112	N	-0.498643	0.884912	-0.129082
H113	H	-0.516007	0.852630	-0.182322
N114	N	-0.290114	0.852876	-0.075969
N115	N	-0.337140	0.820264	-0.128868
H116	H	-0.312455	0.788591	-0.182482
H117	H	-0.457639	1.000460	-0.147395
N118	N	-0.324963	1.121261	-0.088289
N119	N	-0.285932	1.146315	-0.153135
H120	H	-0.273396	1.206740	-0.155928
N121	N	-0.479542	1.120011	0.084096
N122	N	-0.529443	1.145214	0.023445
H123	H	-0.557577	1.205019	0.023924
H124	H	0.172016	0.855314	-0.423519
H125	H	0.248570	0.931473	-0.424121
N126	N	0.073899	1.142418	-0.582327
N127	N	0.031622	1.188873	-0.528137
H128	H	-0.010933	1.235743	-0.550170
