data_functionalizedCrystal
_audit_creation_method	'MofGen! by Chris Wilmer'
_symmetry_space_group_name_H-M	'P1'
_symmetry_Int_Tables_number	1
_symmetry_cell_setting	triclinic
loop_
_symmetry_equiv_pos_as_xyz
  x,y,z
_cell_length_a	11.792241
_cell_length_b	13.596369
_cell_length_c	11.792241
_cell_angle_alpha	89.999475
_cell_angle_beta	95.806584
_cell_angle_gamma	90.001745
loop_
_atom_site_label
_atom_site_type_symbol
_atom_site_fract_x
_atom_site_fract_y
_atom_site_fract_z
O1	O	1.506912	0.081696	-0.155560
O2	O	1.756912	0.331696	0.094440
O3	O	2.006912	0.581696	0.344440
O4	O	2.256912	0.831696	0.594440
O5	O	1.176571	0.081719	-0.171593
O6	O	1.426571	0.331719	0.078407
O7	O	1.676571	0.581719	0.328407
O8	O	1.926571	0.831719	0.578407
O9	O	1.349758	0.081700	0.001594
O10	O	1.599758	0.331700	0.251594
O11	O	1.849758	0.581700	0.501594
O12	O	2.099758	0.831700	0.751594
O13	O	1.333725	0.081715	-0.328747
O14	O	1.583725	0.331715	-0.078747
O15	O	1.833725	0.581715	0.171253
O16	O	2.083725	0.831715	0.421253
O17	O	1.349736	-0.081883	0.001584
O18	O	1.599736	0.168117	0.251584
O19	O	1.849736	0.418117	0.501584
O20	O	2.099736	0.668117	0.751584
O21	O	1.176549	-0.081864	-0.171603
O22	O	1.426549	0.168136	0.078397
O23	O	1.676549	0.418136	0.328397
O24	O	1.926549	0.668136	0.578397
O25	O	1.506890	-0.081887	-0.155570
O26	O	1.756890	0.168113	0.094430
O27	O	2.006890	0.418113	0.344430
O28	O	2.256890	0.668113	0.594430
Zn29	Zn	1.341717	-0.107847	-0.163588
Zn30	Zn	1.591717	0.142153	0.086412
Zn31	Zn	1.841717	0.392153	0.336412
Zn32	Zn	2.091717	0.642153	0.586412
Zn33	Zn	1.341745	0.107680	-0.163575
Zn34	Zn	1.591745	0.357680	0.086425
Zn35	Zn	1.841745	0.607680	0.336425
Zn36	Zn	2.091745	0.857680	0.586425
O37	O	1.333704	-0.081868	-0.328757
O38	O	1.583704	0.168132	-0.078757
O39	O	1.833704	0.418132	0.171243
O40	O	2.083704	0.668132	0.421243
C41	C	1.134269	-0.000069	-0.170591
C42	C	1.384269	0.249931	0.079409
C43	C	1.634269	0.499931	0.329409
C44	C	1.884269	0.749931	0.579409
C45	C	1.008255	-0.000061	-0.167576
C46	C	1.258255	0.249939	0.082424
C47	C	1.508255	0.499939	0.332424
C48	C	1.758255	0.749939	0.582424
C49	C	0.777543	-0.000089	-0.162034
C50	C	1.027543	0.249911	0.087966
C51	C	1.277543	0.499911	0.337966
C52	C	1.527543	0.749911	0.587966
C53	C	0.905928	-0.000074	-0.165113
C54	C	1.155928	0.249926	0.084887
C55	C	1.405928	0.499926	0.334887
C56	C	1.655928	0.749926	0.584887
N57	N	1.341706	-0.254939	-0.163596
N58	N	1.591706	-0.004939	0.086404
N59	N	1.841706	0.245061	0.336404
N60	N	2.091706	0.495061	0.586404
C61	C	1.341711	-0.343937	-0.163598
C62	C	1.591711	-0.093937	0.086402
C63	C	1.841711	0.156063	0.336402
C64	C	2.091711	0.406063	0.586402
C65	C	1.341722	-0.455589	-0.163591
C66	C	1.591722	-0.205589	0.086409
C67	C	1.841722	0.044411	0.336409
C68	C	2.091722	0.294411	0.586409
C69	C	1.341737	-0.544579	-0.163578
C70	C	1.591737	-0.294579	0.086422
C71	C	1.841737	-0.044579	0.336422
C72	C	2.091737	0.205421	0.586422
C73	C	1.341750	-0.656238	-0.163571
C74	C	1.591750	-0.406238	0.086429
C75	C	1.841750	-0.156238	0.336429
C76	C	2.091750	0.093762	0.586429
C77	C	1.549192	-0.000096	-0.156572
C78	C	1.799192	0.249904	0.093428
C79	C	2.049192	0.499904	0.343428
C80	C	2.299192	0.749904	0.593428
C81	C	1.675206	-0.000098	-0.159587
C82	C	1.925206	0.249902	0.090413
C83	C	2.175206	0.499902	0.340413
C84	C	2.425206	0.749902	0.590413
C85	C	1.348740	-0.000091	0.043880
C86	C	1.598740	0.249909	0.293880
C87	C	1.848740	0.499909	0.543880
C88	C	2.098740	0.749909	0.793880
C89	C	1.345726	-0.000090	0.169894
C90	C	1.595726	0.249910	0.419894
C91	C	1.845726	0.499910	0.669894
C92	C	2.095726	0.749910	0.919894
N93	N	1.341765	0.254772	-0.163558
N94	N	1.591765	0.504772	0.086442
N95	N	1.841765	0.754772	0.336442
N96	N	2.091765	1.004772	0.586442
C97	C	1.334721	-0.000074	-0.371043
C98	C	1.584721	0.249926	-0.121043
C99	C	1.834721	0.499926	0.128957
C100	C	2.084721	0.749926	0.378957
C101	C	1.337736	-0.000069	-0.497057
C102	C	1.587736	0.249931	-0.247057
C103	C	1.837736	0.499931	0.002943
C104	C	2.087736	0.749931	0.252943
C105	C	1.340183	-0.000073	0.400606
C106	C	1.590183	0.249927	0.650606
C107	C	1.840183	0.499927	0.900606
C108	C	2.090183	0.749927	1.150606
C109	C	1.343262	-0.000082	0.272221
C110	C	1.593262	0.249918	0.522221
C111	C	1.843262	0.499918	0.772221
C112	C	2.093262	0.749918	1.022221
