data_functionalizedCrystal
_audit_creation_method	'MofGen! by Chris Wilmer'
_symmetry_space_group_name_H-M	'P1'
_symmetry_Int_Tables_number	1
_symmetry_cell_setting	triclinic
loop_
_symmetry_equiv_pos_as_xyz
  x,y,z
_cell_length_a	10.723024
_cell_length_b	10.654541
_cell_length_c	9.198806
_cell_angle_alpha	89.997047
_cell_angle_beta	89.996352
_cell_angle_gamma	84.475899
loop_
_atom_site_label
_atom_site_type_symbol
_atom_site_fract_x
_atom_site_fract_y
_atom_site_fract_z
O1	O	1.657212	0.176147	-0.120882
O2	O	1.294062	0.193008	-0.120887
O3	O	1.483989	0.001837	-0.120876
O4	O	1.467286	0.367318	-0.120894
O5	O	1.483973	0.001836	0.120909
O6	O	1.294047	0.193007	0.120898
O7	O	1.657197	0.176147	0.120903
Cu8	Cu	1.475621	0.184577	0.142977
Cu9	Cu	1.475639	0.184578	-0.142962
O10	O	1.467271	0.367318	0.120891
C11	C	1.247555	0.191781	0.000005
C12	C	1.109000	0.188109	0.000003
C13	C	1.034033	0.295079	-0.000003
C14	C	0.890829	0.291287	-0.000005
C15	C	1.482755	-0.044961	0.000016
C16	C	1.479088	-0.184404	0.000013
C17	C	1.706196	-0.212409	0.000035
C18	C	1.818022	-0.291921	0.000048
C19	C	1.814569	-0.422938	0.000044
C20	C	1.699277	-0.474446	0.000021
C21	C	1.587451	-0.394935	0.000008
C22	C	1.590917	-0.263916	0.000017
C23	C	1.360346	-0.366930	-0.000024
C24	C	1.363796	-0.235912	-0.000009
C25	C	1.245054	-0.418438	-0.000047
C26	C	1.133225	-0.338927	-0.000050
C27	C	1.136683	-0.207902	-0.000044
C28	C	1.251970	-0.156401	-0.000023
C29	C	1.703705	0.177374	0.000008
C30	C	1.842259	0.181045	-0.000000
C31	C	1.468504	0.414116	-0.000004
C32	C	1.472172	0.553559	-0.000011
N33	N	1.475617	0.184576	0.344091
N34	N	1.475652	0.184569	-0.344076
C35	C	1.555362	0.103955	0.416293
C36	C	1.555381	0.103950	0.583705
H37	H	1.075868	0.389466	0.000000
C38	C	1.647617	0.010699	0.667568
H39	H	1.697640	-0.039873	0.600540
H40	H	1.602080	-0.041803	0.726960
H41	H	1.700055	0.056252	0.726927
H42	H	1.407355	0.253591	0.406215
H43	H	1.407380	0.253600	0.593843
H44	H	1.242250	-0.525120	-0.000060
H45	H	1.045620	-0.143170	-0.000061
H46	H	1.067165	0.093722	-0.000030
C47	C	0.929263	0.057322	-0.000001
H48	H	0.880214	-0.012333	-0.000010
H49	H	0.980624	0.053977	0.084311
H50	H	0.980621	0.053987	-0.084331
C51	C	1.710000	-0.068295	0.000045
H52	H	1.794675	-0.049006	0.000051
H53	H	1.668826	-0.033488	0.084352
H54	H	1.668862	-0.033483	-0.084290
C55	C	1.944834	-0.235260	0.000079
H56	H	1.930880	-0.145843	0.000094
H57	H	1.990942	-0.262479	-0.084228
H58	H	1.990905	-0.262491	0.084414
H59	H	0.826409	0.382861	-0.000016
H60	H	1.039364	-0.380876	-0.000078
C61	C	1.937569	-0.510408	0.000054
H62	H	1.918993	-0.595812	0.000038
H63	H	1.984788	-0.494699	0.084373
H64	H	1.984802	-0.494688	-0.084269
H65	H	1.254797	-0.049722	-0.000009
C66	C	1.647574	0.010710	0.332381
H67	H	1.635468	0.022950	0.230869
H68	H	1.633090	-0.073194	0.357263
H69	H	1.731063	0.024864	0.357231
C70	C	1.695473	-0.618561	-0.000010
H71	H	1.610799	-0.637849	-0.000035
H72	H	1.736621	-0.653392	0.084300
H73	H	1.736637	-0.653349	-0.084342
