data_functionalizedCrystal
_audit_creation_method	'MofGen! by Chris Wilmer'
_symmetry_space_group_name_H-M	'P1'
_symmetry_Int_Tables_number	1
_symmetry_cell_setting	triclinic
loop_
_symmetry_equiv_pos_as_xyz
  x,y,z
_cell_length_a	12.759400
_cell_length_b	18.101398
_cell_length_c	12.759393
_cell_angle_alpha	89.971456
_cell_angle_beta	89.970195
_cell_angle_gamma	90.012376
loop_
_atom_site_label
_atom_site_type_symbol
_atom_site_fract_x
_atom_site_fract_y
_atom_site_fract_z
Zn1	Zn	-0.418279	1.132233	-0.594238
Zn2	Zn	0.081721	1.632233	-0.094238
Zn3	Zn	-0.593995	1.132156	-0.418561
Zn4	Zn	-0.093995	1.632156	0.081439
Zn5	Zn	-0.418323	1.008384	-0.418550
Zn6	Zn	0.081677	1.508384	0.081450
Zn7	Zn	-0.593909	1.008378	-0.594174
Zn8	Zn	-0.093909	1.508378	-0.094174
O9	O	-0.506127	1.070288	-0.506381
O10	O	-0.006127	1.570288	-0.006381
O11	O	-0.441605	1.235856	-0.570965
O12	O	0.058395	1.735856	-0.070965
O13	O	-0.570745	1.115708	-0.271538
O14	O	-0.070745	1.615708	0.228462
O15	O	-0.271296	1.024847	-0.441878
O16	O	0.228704	1.524847	0.058122
O17	O	-0.570703	1.235800	-0.441896
O18	O	-0.070703	1.735800	0.058104
O19	O	-0.271264	1.115839	-0.570955
O20	O	0.228736	1.615839	-0.070955
O21	O	-0.441681	1.024773	-0.271530
O22	O	0.058319	1.524773	0.228470
O23	O	-0.441598	0.904750	-0.441816
O24	O	0.058402	1.404750	0.058184
O25	O	-0.570558	1.024838	-0.741204
O26	O	-0.070558	1.524838	-0.241204
O27	O	-0.570601	0.904746	-0.570846
O28	O	-0.070601	1.404746	-0.070846
O29	O	-0.441523	1.115833	-0.741251
O30	O	0.058477	1.615833	-0.241251
O31	O	-0.741004	1.115703	-0.441834
O32	O	-0.241004	1.615703	0.058166
O33	O	-0.740942	1.024763	-0.570857
O34	O	-0.240942	1.524763	-0.070857
C35	C	-0.506096	0.877877	-0.506324
C36	C	-0.006096	1.377877	-0.006324
C37	C	-0.506108	0.795563	-0.506324
C38	C	-0.006108	1.295563	-0.006324
C39	C	-0.506129	0.644855	-0.506372
C40	C	-0.006129	1.144855	-0.006372
C41	C	-0.424848	0.613479	-0.425324
C42	C	0.075152	1.113479	0.074676
C43	C	-0.424542	0.527861	-0.425590
C44	C	0.075458	1.027861	0.074410
C45	C	-0.506150	0.496472	-0.506416
C46	C	-0.006150	0.996472	-0.006416
C47	C	-0.476585	0.527611	-0.617262
C48	C	0.023415	1.027611	-0.117262
C49	C	-0.475983	0.613256	-0.616768
C50	C	0.024017	1.113256	-0.116768
C51	C	-0.617186	0.613272	-0.477550
C52	C	-0.117186	1.113272	0.022450
C53	C	-0.616601	0.527621	-0.475135
C54	C	-0.116601	1.027621	0.024865
C55	C	-0.506164	0.412613	-0.506448
C56	C	-0.006164	0.912613	-0.006448
C57	C	-0.506113	0.728714	-0.506347
C58	C	-0.006113	1.228714	-0.006347
C59	C	-0.779094	1.070244	-0.506362
C60	C	-0.279094	1.570244	-0.006362
C61	C	-0.895871	1.070293	-0.506389
C62	C	-0.395871	1.570293	-0.006389
C63	C	-0.950626	1.117652	-0.573657
C64	C	-0.450626	1.617652	-0.073657
C65	C	-1.060350	1.117693	-0.573686
C66	C	-0.560350	1.617693	-0.073686
C67	C	-1.060554	1.023016	-0.439170
C68	C	-0.560554	1.523016	0.060830
C69	C	-0.950832	1.022971	-0.439147
C70	C	-0.450832	1.522971	0.060853
C71	C	-0.232093	1.070352	-0.506423
C72	C	0.267907	1.570352	-0.006423
C73	C	-0.115317	1.070379	-0.506440
C74	C	0.384683	1.570379	-0.006440
C75	C	-0.506026	1.070343	-0.780414
C76	C	-0.006026	1.570343	-0.280414
C77	C	-0.505983	1.070367	-0.897191
C78	C	-0.005983	1.570367	-0.397191
C79	C	-0.506158	1.263450	-0.506439
C80	C	-0.006158	1.763450	-0.006439
C81	C	-0.506172	1.345764	-0.506463
C82	C	-0.006172	1.845764	-0.006463
C83	C	-0.438783	1.117752	-0.952079
C84	C	0.061217	1.617752	-0.452079
C85	C	-0.438738	1.117764	-1.061803
C86	C	0.061262	1.617764	-0.561803
C87	C	-0.573100	1.023005	-1.061742
C88	C	-0.073100	1.523005	-0.561742
C89	C	-0.573140	1.022989	-0.952019
C90	C	-0.073140	1.522989	-0.452019
C91	C	-0.506151	1.070275	-0.233414
C92	C	-0.006151	1.570275	0.266586
C93	C	-0.505898	1.070395	-0.116637
C94	C	-0.005898	1.570395	0.383363
H95	H	-0.443085	0.634020	-0.342874
H96	H	0.056915	1.134020	0.157126
C97	C	-0.890598	0.970862	-0.365154
C98	C	-0.390598	1.470862	0.134846
N99	N	-0.845229	0.931612	-0.309431
N100	N	-0.345229	1.431612	0.190569
H101	H	-1.104926	1.156256	-0.628464
H102	H	-0.604926	1.656256	-0.128464
H103	H	-0.533982	0.507285	-0.679321
H104	H	-0.033982	1.007285	-0.179321
H105	H	-0.905879	1.156183	-0.628411
H106	H	-0.405879	1.656183	-0.128411
C107	C	-1.121021	0.971015	-0.365135
C108	C	-0.621021	1.471015	0.134865
N109	N	-1.166564	0.931865	-0.309345
N110	N	-0.666564	1.431865	0.190655
H111	H	-0.384097	1.156328	-0.907441
H112	H	0.115903	1.656328	-0.407441
H113	H	-0.343023	0.635011	-0.444213
H114	H	0.156977	1.135011	0.055787
C115	C	-0.364816	1.169893	-1.122175
C116	C	0.135184	1.669893	-0.622175
N117	N	-0.309134	1.209159	-1.167647
N118	N	0.190866	1.709159	-0.667647
H119	H	-0.627780	0.984434	-1.106396
H120	H	-0.127780	1.484434	-0.606396
H121	H	-0.680372	0.506248	-0.529823
H122	H	-0.180372	1.006248	-0.029823
H123	H	-0.342256	0.507383	-0.444725
H124	H	0.157744	1.007383	0.055275
H125	H	-0.627861	0.984398	-0.907328
H126	H	-0.127861	1.484398	-0.407328
H127	H	-0.442989	0.506803	-0.343413
H128	H	0.057011	1.006803	0.156587
C129	C	-0.552507	0.641305	-0.701177
C130	C	-0.052507	1.141305	-0.201177
N131	N	-0.610137	0.662428	-0.764760
N132	N	-0.110137	1.162428	-0.264760
C133	C	-0.366329	0.640263	-0.649672
C134	C	0.133671	1.140263	-0.149672
N135	N	-0.283733	0.660600	-0.674453
N136	N	0.216267	1.160600	-0.174453
H137	H	-0.677739	0.633561	-0.536581
H138	H	-0.177739	1.133561	-0.036581
C139	C	-0.653652	0.642395	-0.370171
C140	C	-0.153652	1.142395	0.129829
N141	N	-0.681107	0.664331	-0.289289
N142	N	-0.181107	1.164331	0.210711
C143	C	-0.368153	0.498645	-0.650765
C144	C	0.131847	0.998645	-0.150765
N145	N	-0.286483	0.476825	-0.675996
N146	N	0.213517	0.976825	-0.175996
C147	C	-0.646738	0.500116	-0.364930
C148	C	-0.146738	1.000116	0.135070
N149	N	-0.669435	0.479393	-0.281924
N150	N	-0.169435	0.979393	0.218076
