data_functionalizedCrystal
_audit_creation_method	'MofGen! by Chris Wilmer'
_symmetry_space_group_name_H-M	'P1'
_symmetry_Int_Tables_number	1
_symmetry_cell_setting	triclinic
loop_
_symmetry_equiv_pos_as_xyz
  x,y,z
_cell_length_a	19.288859
_cell_length_b	13.339070
_cell_length_c	17.766277
_cell_angle_alpha	89.997970
_cell_angle_beta	89.989440
_cell_angle_gamma	99.381510
loop_
_atom_site_label
_atom_site_type_symbol
_atom_site_fract_x
_atom_site_fract_y
_atom_site_fract_z
O1	O	0.945921	0.126056	-0.062607
O2	O	0.746975	0.143071	-0.062605
O3	O	0.823615	-0.012595	-0.062603
O4	O	0.869280	0.281722	-0.062608
O5	O	0.823595	-0.012603	0.062585
O6	O	0.746954	0.143064	0.062584
O7	O	0.945900	0.126048	0.062582
Cu8	Cu	0.846425	0.134555	0.074013
Cu9	Cu	0.846450	0.134564	-0.074037
O10	O	0.869260	0.281715	0.062580
C11	C	0.720982	0.142521	-0.000010
C12	C	0.643558	0.140881	-0.000010
C13	C	0.095154	0.221122	-0.000012
C14	C	0.167903	0.222672	-0.000016
C15	C	0.194810	0.131334	-0.000013
C16	C	0.148963	0.038439	-0.000026
C17	C	0.076216	0.036891	-0.000029
C18	C	0.302799	0.063212	0.043850
C19	C	0.375545	0.064763	0.043858
C20	C	0.419186	0.136103	-0.000006
C21	C	0.390073	0.205909	-0.043868
C22	C	0.317327	0.204361	-0.043871
C23	C	0.273691	0.133002	-0.000010
C24	C	0.543906	0.230673	-0.000003
C25	C	0.616656	0.232220	-0.000011
C26	C	0.597714	0.047984	-0.000013
C27	C	0.524966	0.046440	-0.000012
C28	C	0.498067	0.137788	-0.000003
C29	C	0.815891	-0.050253	-0.000010
C30	C	0.792898	-0.162449	-0.000013
C31	C	0.971678	-0.528062	-0.000014
C32	C	0.993283	-0.422649	-0.000008
C33	C	0.943189	-0.357594	-0.000009
C34	C	0.871486	-0.397962	-0.000017
C35	C	0.849879	-0.503386	-0.000018
C36	C	0.821389	-0.332918	-0.000013
C37	C	0.749686	-0.373286	-0.000021
C38	C	0.728083	-0.478700	-0.000022
C39	C	0.778177	-0.543755	-0.000021
C40	C	0.842996	-0.227494	-0.000012
C41	C	0.721197	-0.202818	-0.000016
C42	C	0.699592	-0.308232	-0.000022
C43	C	0.971893	0.126599	-0.000015
C44	C	1.049317	0.128239	-0.000020
C45	C	0.876984	0.319372	-0.000015
C46	C	0.899977	0.431569	-0.000017
N47	N	0.846413	0.134549	0.178144
C48	C	0.880371	0.065653	0.217531
C49	C	0.880373	0.065649	0.296333
C50	C	0.846428	0.134557	0.335744
C51	C	0.812462	0.203458	0.296347
C52	C	0.812455	0.203453	0.217547
C53	C	0.855075	0.226650	0.460581
C54	C	0.855088	0.226656	0.539379
C55	C	0.846448	0.134570	0.578791
C56	C	0.837809	0.042475	0.539393
C57	C	0.837802	0.042470	0.460593
C58	C	0.846432	0.134569	0.421190
C59	C	0.880410	0.065664	0.703624
C60	C	0.880408	0.065658	0.782427
C61	C	0.812502	0.203476	0.782440
C62	C	0.812499	0.203473	0.703638
C63	C	0.846457	0.134568	0.664235
N64	N	0.846461	0.134566	0.821833
H65	H	0.653977	0.307859	-0.000011
H66	H	1.051663	-0.389788	0.000000
H67	H	0.425605	0.264003	-0.079584
H68	H	0.908027	0.009544	0.328408
Br69	Br	0.972511	-0.214530	-0.000002
H70	H	0.399243	0.007928	0.079577
H71	H	0.680406	-0.149850	-0.000013
H72	H	0.073258	0.295504	-0.000009
H73	H	0.908019	0.009545	0.185451
H74	H	0.170876	-0.035929	-0.000025
Br75	Br	0.748858	-0.686824	-0.000132
H76	H	0.830774	-0.032510	0.571480
Br77	Br	0.230123	0.348736	-0.000005
Br78	Br	0.277818	0.299088	-0.103398
Br79	Br	0.926489	-0.027858	0.835886
H80	H	0.038894	-0.038747	-0.000036
H81	H	0.908058	0.009554	0.671541
H82	H	0.830766	-0.032517	0.428518
H83	H	0.522004	0.305054	0.000003
H84	H	0.619622	-0.026385	-0.000017
Br85	Br	0.243573	-0.033673	0.103333
Br86	Br	0.766424	0.296984	0.835920
H87	H	0.784851	0.259578	0.671567
H88	H	0.901377	-0.194636	-0.000005
Br89	Br	0.866819	0.351640	0.592840
Br90	Br	0.630772	-0.533485	-0.000019
Br91	Br	0.462754	-0.079622	-0.000029
H92	H	0.862099	0.301642	0.428499
H93	H	1.012457	-0.581038	-0.000007
Br94	Br	0.602283	-0.363030	-0.000038
Br95	Br	0.766387	0.296970	0.349831
Br96	Br	0.766365	0.296960	0.164087
