data_functionalizedCrystal
_audit_creation_method	'MofGen! by Chris Wilmer'
_symmetry_space_group_name_H-M	'P1'
_symmetry_Int_Tables_number	1
_symmetry_cell_setting	triclinic
loop_
_symmetry_equiv_pos_as_xyz
  x,y,z
_cell_length_a	16.992694
_cell_length_b	12.996460
_cell_length_c	16.992696
_cell_angle_alpha	89.985852
_cell_angle_beta	89.331661
_cell_angle_gamma	89.999814
loop_
_atom_site_label
_atom_site_type_symbol
_atom_site_fract_x
_atom_site_fract_y
_atom_site_fract_z
O1	O	1.050852	0.085469	-0.166918
O2	O	0.822452	0.085499	-0.165087
O3	O	0.935736	0.085455	-0.051802
O4	O	0.937568	0.085512	-0.280203
O5	O	0.935723	-0.085679	-0.051795
O6	O	0.822439	-0.085635	-0.165079
O7	O	1.050839	-0.085665	-0.166911
Cu8	Cu	0.936638	-0.101276	-0.165994
Cu9	Cu	0.936653	0.101109	-0.166003
O10	O	0.937555	-0.085622	-0.280195
C11	C	0.793085	-0.000065	-0.162727
C12	C	0.705601	-0.000055	-0.155699
N13	N	0.936633	-0.243623	-0.165988
C14	C	0.659610	-0.000039	-0.223517
C15	C	0.577409	-0.000055	-0.216908
C16	C	0.541201	-0.000079	-0.142480
C17	C	0.587198	-0.000098	-0.074657
C18	C	0.669397	-0.000090	-0.081267
C19	C	0.295886	-0.000113	-0.115086
C20	C	0.213681	-0.000119	-0.108481
C21	C	0.203898	-0.000077	-0.250732
C22	C	0.286100	-0.000062	-0.257335
C23	C	0.332089	-0.000087	-0.189512
N24	N	0.457179	-0.000092	-0.135723
N25	N	0.416110	-0.000081	-0.196270
C26	C	0.936652	-0.663437	-0.166004
C27	C	0.936645	-0.546632	-0.166002
C28	C	0.936643	-0.453534	-0.165997
C29	C	0.936635	-0.336721	-0.165993
C30	C	1.080206	-0.000099	-0.169270
C31	C	1.167690	-0.000103	-0.176299
C32	C	0.933374	-0.000117	-0.022439
C33	C	0.926345	-0.000131	0.065046
N34	N	0.936664	0.243457	-0.166004
C35	C	0.994163	-0.000149	0.111037
C36	C	0.987554	-0.000153	0.193238
C37	C	0.913126	-0.000146	0.229446
C38	C	0.845303	-0.000125	0.183449
C39	C	0.851913	-0.000114	0.101250
C40	C	0.885731	-0.000172	0.474760
C41	C	0.879126	-0.000187	0.556966
C42	C	1.021378	-0.000213	0.566749
C43	C	1.027981	-0.000208	0.484547
C44	C	0.960158	-0.000181	0.438558
N45	N	0.906369	-0.000154	0.313468
N46	N	0.966916	-0.000166	0.354537
C47	C	0.939917	-0.000093	0.690441
C48	C	0.946944	-0.000205	0.602956
H49	H	0.689084	-0.000018	-0.284124
H50	H	0.557710	-0.000133	-0.014056
H51	H	1.076595	-0.000233	0.604202
H52	H	0.539967	-0.000040	-0.272133
H53	H	0.818515	-0.000198	0.586443
C54	C	1.084123	0.087822	0.024262
C55	C	1.075976	-0.000156	0.071237
H56	H	1.134631	0.087815	-0.000310
H57	H	1.078596	0.147484	0.056120
H58	H	1.044675	0.087820	-0.014891
H59	H	1.115420	-0.000150	0.110394
H60	H	1.081511	-0.059834	0.039377
H61	H	1.088588	-0.000214	0.455073
H62	H	0.830504	-0.000151	0.437325
C63	C	0.268170	-0.000040	-0.397281
C64	C	0.325897	-0.000045	-0.339149
H65	H	0.292741	-0.000033	-0.447789
H66	H	0.236312	0.059632	-0.391750
H67	H	0.236314	-0.059725	-0.391736
H68	H	0.357750	0.059645	-0.344691
H69	H	0.357768	-0.059723	-0.344683
C70	C	0.105774	0.087905	-0.325826
C71	C	0.153343	-0.000061	-0.325279
H72	H	0.074561	0.087907	-0.371849
H73	H	0.138041	0.147575	-0.325455
H74	H	0.072450	0.087881	-0.280551
H75	H	0.186671	-0.000033	-0.370552
H76	H	0.121073	-0.059747	-0.325657
H77	H	0.706842	-0.000102	-0.026042
C78	C	0.196707	0.087809	0.014808
C79	C	0.173877	-0.000148	-0.026665
H80	H	0.172135	0.087788	0.065315
H81	H	0.181225	0.147485	-0.013334
H82	H	0.252244	0.087794	0.020578
H83	H	0.118340	-0.000130	-0.032440
H84	H	0.189355	-0.059840	0.001483
H85	H	1.042779	-0.000170	0.230680
C86	C	0.772008	-0.000143	0.305109
C87	C	0.763490	-0.000121	0.223247
H88	H	0.721498	-0.000150	0.329675
H89	H	0.800146	0.059525	0.320582
H90	H	0.800146	-0.059832	0.320587
H91	H	0.735357	0.059572	0.207769
H92	H	0.735339	-0.059796	0.207768
H93	H	0.796688	-0.000098	0.063804
H94	H	0.333322	-0.000134	-0.059859
