data_functionalizedCrystal
_audit_creation_method	'MofGen! by Chris Wilmer'
_symmetry_space_group_name_H-M	'P1'
_symmetry_Int_Tables_number	1
_symmetry_cell_setting	triclinic
loop_
_symmetry_equiv_pos_as_xyz
  x,y,z
_cell_length_a	14.971487
_cell_length_b	15.455425
_cell_length_c	14.971506
_cell_angle_alpha	92.982320
_cell_angle_beta	96.381605
_cell_angle_gamma	87.009874
loop_
_atom_site_label
_atom_site_type_symbol
_atom_site_fract_x
_atom_site_fract_y
_atom_site_fract_z
O1	O	-1.190446	0.072002	0.120039
O2	O	-0.930048	0.072031	0.133999
O3	O	-1.067217	0.072014	-0.003180
O4	O	-1.053277	0.072020	0.257218
O5	O	-1.060206	-0.072246	-0.010146
O6	O	-0.923038	-0.072228	0.127032
O7	O	-1.183435	-0.072257	0.113073
Cu8	Cu	-1.052596	-0.085415	0.119417
Cu9	Cu	-1.060887	0.085189	0.127655
O10	O	-1.046267	-0.072240	0.250252
C11	C	-0.893218	-0.000095	0.129891
C12	C	-0.793922	-0.000084	0.128021
N13	N	-1.046771	-0.205408	0.113622
C14	C	-0.736702	-0.000082	0.208609
C15	C	-0.643402	-0.000093	0.206846
C16	C	-0.607324	-0.000100	0.124493
C17	C	-0.664550	-0.000104	0.043898
C18	C	-0.757848	-0.000099	0.045662
C19	C	-0.470087	-0.000112	0.040226
C20	C	-0.376783	-0.000116	0.038461
C21	C	-0.355641	-0.000106	0.201409
C22	C	-0.448939	-0.000101	0.203174
C23	C	-0.506159	-0.000104	0.122579
C24	C	-1.014616	-0.749402	0.081313
C25	C	-1.019015	-0.658596	0.085730
C26	C	-1.075514	-0.613208	0.142282
C27	C	-1.127623	-0.658631	0.194414
C28	C	-1.123228	-0.749435	0.189992
C29	C	-1.094486	-0.341635	0.161331
C30	C	-1.098875	-0.250824	0.165752
C31	C	-0.990267	-0.250796	0.057066
C32	C	-0.985873	-0.341602	0.052652
C33	C	-1.037986	-0.387016	0.104781
N34	N	-1.080010	-0.520390	0.146801
N35	N	-1.033494	-0.479833	0.100257
C36	C	-0.220266	-0.000124	0.117180
C37	C	-0.319564	-0.000114	0.119050
C38	C	-1.063085	-0.000115	-0.039987
C39	C	-1.061207	-0.000111	-0.139283
N40	N	-1.066719	0.205182	0.133443
C41	C	-1.134625	-0.000119	-0.577566
C42	C	-1.136382	-0.000125	-0.484266
C43	C	-1.055790	-0.000113	-0.427046
C44	C	-0.973436	-0.000104	-0.463130
C45	C	-0.971679	-0.000105	-0.556429
C46	C	-0.977103	-0.000101	-0.268667
C47	C	-0.978859	-0.000099	-0.175362
C48	C	-1.141806	-0.000122	-0.196504
C49	C	-1.140049	-0.000122	-0.289803
C50	C	-1.057694	-0.000112	-0.325881
C51	C	-1.050399	-0.000109	0.287059
C52	C	-1.052277	-0.000108	0.386356
H53	H	-0.766070	-0.000076	0.275671
H54	H	-1.205674	-0.000126	-0.336390
H55	H	-0.976589	-0.621622	0.043277
H56	H	-0.596817	-0.000091	0.272469
H57	H	-0.478311	-0.000088	0.270233
C58	C	-0.923726	-0.391526	-0.009560
C59	C	-0.866414	-0.341569	-0.066906
C60	C	-0.804263	-0.391494	-0.129116
C61	C	-0.799425	-0.491375	-0.133979
C62	C	-0.856740	-0.541337	-0.076631
C63	C	-0.918890	-0.491413	-0.014421
H64	H	-0.869993	-0.267626	-0.063308
H65	H	-0.761835	-0.354508	-0.171569
H66	H	-0.753417	-0.528332	-0.180030
H67	H	-0.853160	-0.615280	-0.080229
H68	H	-0.961318	-0.528399	0.028032
C69	C	-0.533033	-0.000114	-0.048427
C70	C	-0.525303	-0.075023	-0.119505
C71	C	-0.588250	-0.075020	-0.208155
C72	C	-0.658927	-0.000107	-0.225727
C73	C	-0.666660	0.074808	-0.154647
C74	C	-0.603713	0.074805	-0.065997
H75	H	-0.472981	-0.130483	-0.106499
H76	H	-0.582525	-0.130477	-0.260773
H77	H	-0.705524	-0.000104	-0.291350
H78	H	-0.718982	0.130268	-0.167653
H79	H	-0.609438	0.130262	-0.013379
H80	H	-1.136920	-0.378601	0.203779
C81	C	-0.952465	-0.799325	0.019103
C82	C	-0.895157	-0.749363	-0.038243
C83	C	-0.833007	-0.799283	-0.100458
C84	C	-0.828166	-0.899164	-0.105325
C85	C	-0.885477	-0.949131	-0.047977
C86	C	-0.947626	-0.899211	0.014237
H87	H	-0.898739	-0.675420	-0.034642
H88	H	-0.790583	-0.762293	-0.142910
H89	H	-0.782160	-0.936118	-0.151380
H90	H	-0.881895	-1.023074	-0.051579
H91	H	-0.990051	-0.936201	0.056690
H92	H	-0.804436	-0.000100	-0.019961
H93	H	-1.173630	-0.621669	0.240456
H94	H	-0.635167	-0.000122	-0.023156
C95	C	-0.886514	-0.000086	-0.308358
C96	C	-0.815891	-0.074979	-0.290433
C97	C	-0.725307	-0.074958	-0.330126
C98	C	-0.705346	-0.000042	-0.387744
C99	C	-0.775971	0.074857	-0.405672
C100	C	-0.866556	0.074835	-0.365979
H101	H	-0.830665	-0.130441	-0.247778
H102	H	-0.673025	-0.130404	-0.316854
H103	H	-0.638290	-0.000026	-0.417127
H104	H	-0.761197	0.130319	-0.448327
H105	H	-0.918837	0.130281	-0.379251
H106	H	-1.165657	-0.786412	0.232442
H107	H	-1.200253	-0.000122	-0.624149
C108	C	-1.161037	-0.200895	0.227954
C109	C	-1.218366	-0.250847	0.285289
C110	C	-1.280525	-0.200917	0.347486
C111	C	-1.285355	-0.101036	0.352350
C112	C	-1.228024	-0.051079	0.295013
C113	C	-1.165865	-0.101008	0.232816
H114	H	-1.214793	-0.324790	0.281690
H115	H	-1.322965	-0.237899	0.389930
H116	H	-1.331369	-0.064075	0.398392
H117	H	-1.231598	0.022865	0.298612
H118	H	-1.123425	-0.064026	0.190372
H119	H	-0.309047	-0.000108	0.267032
C120	C	-1.226970	-0.000126	-0.444585
C121	C	-1.290311	-0.075036	-0.469757
C122	C	-1.380904	-0.075035	-0.430079
C123	C	-1.408157	-0.000125	-0.365228
C124	C	-1.344815	0.074790	-0.340052
C125	C	-1.254222	0.074789	-0.379730
H126	H	-1.270137	-0.130493	-0.517767
H127	H	-1.427794	-0.130492	-0.448716
H128	H	-1.475220	-0.000124	-0.335856
H129	H	-1.364989	0.130247	-0.292042
H130	H	-1.207332	0.130246	-0.361093
H131	H	-0.347411	-0.000122	-0.028598
H132	H	-1.208866	-0.000050	-0.167122
H133	H	-0.947841	-0.213809	0.014625
H134	H	-0.913234	-0.000095	-0.128775
H135	H	-0.907816	-0.000100	-0.416534
H136	H	-0.904622	-0.000102	-0.585802
