data_functionalizedCrystal
_audit_creation_method	'MofGen! by Chris Wilmer'
_symmetry_space_group_name_H-M	'P1'
_symmetry_Int_Tables_number	1
_symmetry_cell_setting	triclinic
loop_
_symmetry_equiv_pos_as_xyz
  x,y,z
_cell_length_a	10.489741
_cell_length_b	14.044220
_cell_length_c	13.101039
_cell_angle_alpha	86.332523
_cell_angle_beta	86.610661
_cell_angle_gamma	91.135974
loop_
_atom_site_label
_atom_site_type_symbol
_atom_site_fract_x
_atom_site_fract_y
_atom_site_fract_z
O1	O	1.714050	-0.128652	-0.085154
O2	O	2.214050	0.371348	0.414846
O3	O	1.344130	-0.141213	-0.085170
O4	O	1.844130	0.358787	0.414830
O5	O	1.523536	0.003089	-0.085152
O6	O	2.023536	0.503089	0.414848
O7	O	1.534643	-0.272954	-0.085172
O8	O	2.034643	0.227046	0.414828
O9	O	1.510666	-0.007281	0.085277
O10	O	2.010666	0.492719	0.585277
O11	O	1.331259	-0.151584	0.085259
O12	O	1.831259	0.348416	0.585259
O13	O	1.701180	-0.139023	0.085275
O14	O	2.201180	0.360977	0.585275
Zn15	Zn	1.514176	-0.146950	0.112326
Zn16	Zn	2.014176	0.353050	0.612326
Zn17	Zn	1.531133	-0.133286	-0.112221
Zn18	Zn	2.031133	0.366714	0.387779
O19	O	1.521773	-0.283325	0.085257
O20	O	2.021773	0.216675	0.585257
C21	C	1.290067	-0.145450	0.000043
C22	C	1.790067	0.354550	0.500043
C23	C	1.148150	-0.142611	0.000037
C24	C	1.648150	0.357389	0.500037
C25	C	1.070696	-0.050795	0.000053
C26	C	1.570696	0.449205	0.500053
C27	C	0.989314	-0.089055	-0.083978
C28	C	1.489314	0.410945	0.416022
C29	C	0.976661	-0.099302	0.084051
C30	C	1.476661	0.400698	0.584051
C31	C	1.068642	-0.180904	-0.084064
C32	C	1.568642	0.319096	0.415936
C33	C	1.055992	-0.191143	0.084041
C34	C	1.555992	0.308857	0.584041
C35	C	0.974646	-0.229468	-0.000011
C36	C	1.474646	0.270532	0.499989
C37	C	1.512240	0.033252	0.000063
C38	C	2.012240	0.533252	0.500063
C39	C	1.497740	0.138576	0.000063
C40	C	1.997740	0.638576	0.500063
C41	C	1.755243	-0.134786	0.000060
C42	C	2.255243	0.365214	0.500060
C43	C	1.897160	-0.137625	0.000060
C44	C	2.397160	0.362375	0.500060
C45	C	1.533069	-0.313487	0.000040
C46	C	2.033069	0.186513	0.500040
C47	C	1.547569	-0.418812	0.000033
C48	C	2.047569	0.081188	0.500033
N49	N	1.502612	-0.156275	0.265573
N50	N	2.002612	0.343725	0.765573
C51	C	1.471233	0.331420	0.000047
C52	C	1.971233	0.831420	0.500047
C53	C	1.574071	0.388351	0.000049
C54	C	2.074071	0.888351	0.500049
C55	C	1.559322	0.495655	0.000040
C56	C	2.059322	0.995655	0.500040
C57	C	1.485980	0.224105	0.000056
C58	C	1.985980	0.724105	0.500056
N59	N	1.542706	-0.123954	-0.265468
N60	N	2.042706	0.376046	0.234532
C61	C	1.486881	-0.168970	0.474614
C62	C	1.986881	0.331030	0.974614
C63	C	1.558434	-0.111261	0.525497
C64	C	2.058434	0.388739	1.025497
C65	C	1.549680	-0.118325	0.641815
C66	C	2.049680	0.381675	1.141815
C67	C	1.495633	-0.161908	0.358286
C68	C	1.995633	0.338092	0.858286
H69	H	0.932889	-0.305023	-0.000062
H70	H	1.432889	0.194977	0.499938
H71	H	1.085610	-0.234283	0.155082
H72	H	1.585610	0.265717	0.655082
H73	H	1.626267	-0.056551	0.481702
H74	H	2.126267	0.443449	0.981702
H75	H	1.108778	-0.215395	-0.155186
H76	H	1.608778	0.284605	0.344814
H77	H	0.936376	-0.064759	0.155093
H78	H	1.436376	0.435241	0.655093
H79	H	1.673195	0.356507	-0.000016
H80	H	2.173195	0.856507	0.499984
H81	H	1.372122	0.363266	0.000041
H82	H	1.872122	0.863266	0.500041
H83	H	1.112738	0.024689	-0.000047
H84	H	1.612738	0.524689	0.499953
H85	H	1.419054	-0.223678	0.518405
H86	H	1.919054	0.276322	1.018405
H87	H	0.959724	-0.045883	-0.155016
H88	H	1.459724	0.454117	0.344984
