data_functionalizedCrystal
_audit_creation_method	'MofGen! by Chris Wilmer'
_symmetry_space_group_name_H-M	'P1'
_symmetry_Int_Tables_number	1
_symmetry_cell_setting	triclinic
loop_
_symmetry_equiv_pos_as_xyz
  x,y,z
_cell_length_a	17.019383
_cell_length_b	17.019294
_cell_length_c	14.048226
_cell_angle_alpha	86.114596
_cell_angle_beta	86.117564
_cell_angle_gamma	83.133350
loop_
_atom_site_label
_atom_site_type_symbol
_atom_site_fract_x
_atom_site_fract_y
_atom_site_fract_z
O1	O	1.046558	0.100561	-0.173108
O2	O	1.546558	0.600561	0.326892
O3	O	0.816881	0.113363	-0.155350
O4	O	1.316881	0.613363	0.344650
O5	O	0.938126	-0.007878	-0.155336
O6	O	1.438126	0.492122	0.344664
O7	O	0.925312	0.221801	-0.173123
O8	O	1.425312	0.721801	0.326877
O9	O	0.938111	-0.007885	0.002987
O10	O	1.438111	0.492115	0.502987
O11	O	0.816866	0.113356	0.002973
O12	O	1.316866	0.613356	0.502973
O13	O	1.046543	0.100553	-0.014785
O14	O	1.546543	0.600553	0.485215
Zn15	Zn	0.931702	0.106953	0.019231
Zn16	Zn	1.431702	0.606953	0.519231
Zn17	Zn	0.931721	0.106963	-0.189366
Zn18	Zn	1.431721	0.606963	0.310634
O19	O	0.925298	0.221794	-0.014800
O20	O	1.425298	0.721794	0.485200
C21	C	0.787485	0.112872	-0.073742
C22	C	1.287485	0.612872	0.426258
C23	C	0.699917	0.111409	-0.066452
C24	C	1.199917	0.611409	0.433548
C25	C	0.658778	0.110728	-0.149322
C26	C	1.158778	0.610728	0.350678
C27	C	0.576498	0.109366	-0.142459
C28	C	1.076498	0.609366	0.357541
C29	C	0.535358	0.108681	-0.052724
C30	C	1.035358	0.608681	0.447276
C31	C	0.576502	0.109364	0.030152
C32	C	1.076502	0.609364	0.530152
C33	C	0.658781	0.110731	0.023287
C34	C	1.158781	0.610731	0.523287
C35	C	0.286929	0.104558	-0.027680
C36	C	0.786929	0.604558	0.472320
C37	C	0.204645	0.103188	-0.020822
C38	C	0.704645	0.603188	0.479178
C39	C	0.204646	0.103192	-0.193433
C40	C	0.704646	0.603192	0.306567
C41	C	0.286927	0.104554	-0.200290
C42	C	0.786927	0.604554	0.299710
C43	C	0.328063	0.105242	-0.117414
C44	C	0.828063	0.605242	0.382586
C45	C	0.451254	0.107286	-0.045706
C46	C	0.951254	0.607286	0.454294
C47	C	0.412165	0.106642	-0.124433
C48	C	0.912165	0.606642	0.375567
C49	C	0.937633	-0.037271	-0.073726
C50	C	1.437633	0.462729	0.426274
C51	C	0.936175	-0.124840	-0.066431
C52	C	1.436175	0.375160	0.433569
C53	C	0.935500	-0.165971	-0.149306
C54	C	1.435500	0.334029	0.350694
C55	C	0.934125	-0.248251	-0.142448
C56	C	1.434125	0.251749	0.357552
C57	C	0.933431	-0.289398	-0.052715
C58	C	1.433431	0.210602	0.447285
C59	C	0.934104	-0.248260	0.030165
C60	C	1.434104	0.251740	0.530165
C61	C	0.935473	-0.165981	0.023307
C62	C	1.435473	0.334019	0.523307
C63	C	0.929291	-0.537827	-0.027690
C64	C	1.429291	-0.037827	0.472310
C65	C	0.927924	-0.620113	-0.020838
C66	C	1.427924	-0.120113	0.479162
C67	C	0.927944	-0.620097	-0.193452
C68	C	1.427944	-0.120097	0.306548
C69	C	0.929318	-0.537817	-0.200303
C70	C	1.429318	-0.037817	0.299697
C71	C	0.929986	-0.496686	-0.117422
C72	C	1.429986	0.003314	0.382578
C73	C	0.932028	-0.373502	-0.045704
C74	C	1.432028	0.126498	0.454296
C75	C	0.931384	-0.412583	-0.124434
C76	C	1.431384	0.087417	0.375566
C77	C	1.075939	0.101045	-0.096395
C78	C	1.575939	0.601045	0.403605
C79	C	1.163506	0.102507	-0.103692
C80	C	1.663506	0.602507	0.396308
C81	C	0.925791	0.251187	-0.096411
C82	C	1.425791	0.751187	0.403589
C83	C	0.927249	0.338756	-0.103712
C84	C	1.427249	0.838756	0.396288
N85	N	0.931695	0.106946	0.161593
N86	N	1.431695	0.606946	0.661593
N87	N	0.931735	0.106963	-0.331728
N88	N	1.431735	0.606963	0.168272
C89	C	0.985399	0.053283	0.211414
C90	C	1.485399	0.553283	0.711414
C91	C	0.985405	0.053283	0.311071
C92	C	1.485405	0.553283	0.811071
C93	C	0.931709	0.106950	0.360905
C94	C	1.431709	0.606950	0.860905
C95	C	0.877999	0.160616	0.311077
C96	C	1.377999	0.660616	0.811077
C97	C	0.877990	0.160612	0.211422
C98	C	1.377990	0.660612	0.711422
C99	C	0.878021	0.160622	0.518789
C100	C	1.378021	0.660622	1.018789
C101	C	0.878031	0.160627	0.618450
C102	C	1.378031	0.660627	1.118450
C103	C	0.985436	0.053292	0.618438
C104	C	1.485436	0.553292	1.118438
C105	C	0.985427	0.053288	0.518783
C106	C	1.485427	0.553288	1.018783
C107	C	0.931718	0.106956	0.468962
C108	C	1.431718	0.606956	0.968962
H109	H	0.171143	0.102634	-0.260906
H110	H	0.671143	0.602634	0.239094
H111	H	0.933578	-0.281737	-0.209933
H112	H	1.433578	0.218263	0.290067
H113	H	0.933534	-0.281768	0.103228
H114	H	1.433534	0.218232	0.603228
F115	F	0.927189	-0.663903	0.074672
F116	F	1.427189	-0.163903	0.574672
F117	F	1.042562	-0.003833	0.364095
F118	F	1.542562	0.496167	0.864095
F119	F	1.042597	-0.003823	0.671465
F120	F	1.542597	0.496177	1.171465
F121	F	1.042555	-0.003835	0.158386
F122	F	1.542555	0.496165	0.658386
H123	H	0.171149	0.102652	0.052253
H124	H	0.671149	0.602652	0.552253
F125	F	0.820855	0.217739	0.465770
F126	F	1.320855	0.717739	0.965770
H127	H	0.834275	0.204310	0.351658
H128	H	1.334275	0.704310	0.851658
H129	H	1.029154	0.009592	0.478208
H130	H	1.529154	0.509592	0.978208
H131	H	0.834305	0.204327	0.659020
H132	H	1.334305	0.704327	1.159020
F133	F	0.702556	0.111452	-0.244830
F134	F	1.202556	0.611452	0.255170
F135	F	0.532718	0.108642	-0.230661
F136	F	1.032718	0.608642	0.269339
H137	H	0.692275	0.111290	0.090769
H138	H	1.192275	0.611290	0.590769
H139	H	0.834258	0.204309	0.170859
H140	H	1.334258	0.704309	0.670859
H141	H	0.320413	0.105113	0.039803
H142	H	0.820413	0.605113	0.539803
F143	F	0.330705	0.105280	-0.295797
F144	F	0.830705	0.605280	0.204203
H145	H	0.931943	-0.379077	-0.197493
H146	H	1.431943	0.120923	0.302507
F147	F	0.532715	0.108641	0.125654
F148	F	1.032715	0.608641	0.625654
H149	H	0.417749	0.106726	0.027356
H150	H	0.917749	0.606726	0.527356
F151	F	0.927232	-0.663878	-0.281653
F152	F	1.427232	-0.163878	0.218347
F153	F	0.936244	-0.122187	-0.244812
F154	F	1.436244	0.377813	0.255188
F155	F	0.455950	0.107375	-0.219932
F156	F	0.955950	0.607375	0.280068
H157	H	0.929851	-0.504350	0.039797
H158	H	1.429851	-0.004350	0.539797
F159	F	0.930058	-0.494032	-0.295808
F160	F	1.430058	0.005968	0.204192
H161	H	0.936011	-0.132492	0.090793
H162	H	1.436011	0.367508	0.590793
F163	F	0.931286	-0.417300	0.049794
F164	F	1.431286	0.082700	0.549794
