data_functionalizedCrystal
_audit_creation_method	'MofGen! by Chris Wilmer'
_symmetry_space_group_name_H-M	'P1'
_symmetry_Int_Tables_number	1
_symmetry_cell_setting	triclinic
loop_
_symmetry_equiv_pos_as_xyz
  x,y,z
_cell_length_a	12.594517
_cell_length_b	10.686285
_cell_length_c	10.686551
_cell_angle_alpha	99.084519
_cell_angle_beta	94.398316
_cell_angle_gamma	85.630921
loop_
_atom_site_label
_atom_site_type_symbol
_atom_site_fract_x
_atom_site_fract_y
_atom_site_fract_z
Zn1	Zn	1.700437	-0.450180	0.679094
Zn2	Zn	1.700351	-0.678760	0.450592
Zn3	Zn	1.509756	-0.466532	0.466846
Zn4	Zn	1.535126	-0.662375	0.662787
O5	O	1.611417	-0.564462	0.564830
O6	O	1.849374	-0.480515	0.648805
O7	O	1.664414	-0.664308	0.275117
O8	O	1.524468	-0.286740	0.508629
O9	O	1.849310	-0.648452	0.480925
O10	O	1.664561	-0.274726	0.664566
O11	O	1.524385	-0.508385	0.287059
O12	O	1.364173	-0.492497	0.492816
O13	O	1.567709	-0.620527	0.842581
O14	O	1.382813	-0.636383	0.636773
O15	O	1.689162	-0.464628	0.854562
O16	O	1.689015	-0.854209	0.465113
O17	O	1.567625	-0.842172	0.621012
C18	C	1.334872	-0.564437	0.564789
C19	C	1.216569	-0.564455	0.564800
C20	C	1.631094	-0.894244	0.539556
C21	C	1.639612	-1.035323	0.528787
C22	C	1.066389	-0.486088	0.486703
C23	C	1.142320	-0.446267	0.604899
C24	C	1.142206	-0.604218	0.446621
C25	C	1.081723	-0.524613	0.683151
C26	C	1.081601	-0.682623	0.524791
C27	C	1.157508	-0.642840	0.643063
C28	C	1.889043	-0.564487	0.564871
C29	C	2.007350	-0.564498	0.564889
C30	C	1.631275	-0.538926	0.895917
C31	C	1.639737	-0.528044	1.037007
C32	C	1.591694	-0.233390	0.590230
C33	C	1.583289	-0.092307	0.601053
C34	C	1.591693	-0.589807	0.235038
C35	C	1.583416	-0.600331	0.093976
H36	H	1.528553	-1.033165	0.671165
C37	C	1.713558	-1.115218	0.434055
C38	C	1.722258	-1.261016	0.423038
C39	C	1.796203	-1.340912	0.328309
C40	C	1.861447	-1.275009	0.244595
C41	C	1.852749	-1.129203	0.255609
C42	C	1.778805	-1.049308	0.350339
H43	H	1.673959	-1.309808	0.485010
H44	H	1.802641	-1.448847	0.320156
H45	H	1.916185	-1.334152	0.174471
H46	H	1.901049	-1.080411	0.193637
H47	H	1.772366	-0.941373	0.358492
H48	H	1.054736	-0.782513	0.490874
C49	C	1.178587	-0.311293	0.650679
C50	C	1.138780	-0.202348	0.576766
C51	C	1.175040	-0.067372	0.622538
C52	C	1.251108	-0.041343	0.742222
C53	C	1.290920	-0.150291	0.816142
C54	C	1.254659	-0.285267	0.770370
H55	H	1.082466	-0.221614	0.488163
H56	H	1.145569	0.013278	0.567817
H57	H	1.277950	0.058574	0.776105
H58	H	1.347233	-0.131026	0.904746
H59	H	1.284131	-0.365918	0.825092
H60	H	1.026717	-0.419737	0.420714
H61	H	1.196992	-0.709125	0.709227
H62	H	1.528726	-0.670548	1.034812
H63	H	1.694438	-0.457831	1.096176
C64	C	1.178333	-0.649631	0.311558
C65	C	1.138492	-0.575361	0.202887
C66	C	1.174618	-0.620758	0.067825
C67	C	1.250586	-0.740426	0.041434
C68	C	1.290432	-0.814704	0.150109
C69	C	1.254305	-0.769307	0.285171
H70	H	1.082252	-0.486769	0.222420
H71	H	1.145121	-0.565772	-0.012623
H72	H	1.277328	-0.774032	-0.058547
H73	H	1.346671	-0.903296	0.130576
H74	H	1.283803	-0.824293	0.365619
H75	H	1.055112	-0.490884	0.783168
