data_functionalizedCrystal
_audit_creation_method	'MofGen! by Chris Wilmer'
_symmetry_space_group_name_H-M	'P1'
_symmetry_Int_Tables_number	1
_symmetry_cell_setting	triclinic
loop_
_symmetry_equiv_pos_as_xyz
  x,y,z
_cell_length_a	10.654551
_cell_length_b	10.654550
_cell_length_c	9.730223
_cell_angle_alpha	90.003152
_cell_angle_beta	90.000819
_cell_angle_gamma	84.485166
loop_
_atom_site_label
_atom_site_type_symbol
_atom_site_fract_x
_atom_site_fract_y
_atom_site_fract_z
O1	O	0.176395	1.667833	0.114397
O2	O	0.193202	1.302355	0.114375
O3	O	0.002059	1.493496	0.114383
O4	O	0.367538	1.476692	0.114388
O5	O	0.002059	1.493497	-0.114197
O6	O	0.193202	1.302355	-0.114205
O7	O	0.176396	1.667834	-0.114183
Zn8	Zn	0.184799	1.485095	-0.150486
Zn9	Zn	0.184798	1.485094	0.150678
O10	O	0.367538	1.476692	-0.114192
C11	C	0.191968	1.255557	0.000082
C12	C	0.188276	1.116114	0.000073
C13	C	-0.044739	1.492263	0.000096
C14	C	-0.184182	1.488570	0.000102
C15	C	0.300817	1.036629	0.000095
C16	C	0.297341	0.905608	0.000119
C17	C	0.068771	0.933570	0.000105
C18	C	0.072249	1.064589	0.000071
C19	C	0.432780	1.020484	0.000109
C20	C	0.429303	0.889463	0.000132
C21	C	-0.249686	1.486837	0.124702
C22	C	-0.380706	1.483357	0.124703
C23	C	-0.380708	1.483349	-0.124508
C24	C	-0.249689	1.486820	-0.124507
C25	C	-0.550778	1.405165	0.274396
C26	C	-0.616289	1.403453	0.399003
C27	C	-0.582749	1.478046	0.509018
C28	C	-0.483703	1.554381	0.494432
C29	C	-0.418200	1.556104	0.369823
C30	C	-0.451735	1.481482	0.259813
C31	C	-0.079615	1.565022	-0.274192
C32	C	-0.014111	1.566754	-0.398802
C33	C	-0.047650	1.492169	-0.508829
C34	C	-0.146702	1.415852	-0.494256
C35	C	-0.212206	1.414120	-0.369646
C36	C	-0.178658	1.488703	-0.259618
C37	C	0.414336	1.477926	0.000099
C38	C	0.553779	1.481619	0.000102
C39	C	0.177629	1.714632	0.000113
C40	C	0.181321	1.854075	0.000131
N41	N	0.184798	1.485104	-0.356022
C42	C	0.261669	1.561926	-0.571851
C43	C	0.261678	1.561928	-0.427968
C44	C	0.107915	1.408264	-0.427968
C45	C	0.107914	1.408256	-0.571848
C46	C	0.350439	1.650648	-0.571849
C47	C	0.350447	1.650650	-0.427966
N48	N	0.184789	1.485095	0.356214
H49	H	-0.019393	1.129302	0.000034
Cl50	Cl	0.034690	1.494363	-0.665491
H51	H	-0.636097	1.476651	0.610476
Cl52	Cl	0.490878	0.818939	-0.152219
H53	H	0.045327	1.345703	-0.369378
H54	H	-0.025694	0.891602	0.000124
H55	H	-0.173986	1.355091	-0.583836
Cl56	Cl	-0.336734	1.318181	-0.351327
Cl57	Cl	0.512466	1.065779	-0.147582
H58	H	0.449479	1.619720	-0.610894
Cl59	Cl	0.011282	1.311642	-0.662277
H60	H	0.310963	1.745226	-0.616477
H61	H	0.066539	1.628904	-0.410663
H62	H	0.479025	0.847730	0.095801
Cl63	Cl	-0.463068	1.481149	-0.281150
Cl64	Cl	-0.037464	1.658817	-0.135880
Cl65	Cl	0.497652	1.075544	0.152472
H66	H	0.445021	1.611139	-0.383343
Cl67	Cl	-0.293695	1.652058	0.351479
Cl68	Cl	-0.740795	1.307488	0.417340
H69	H	-0.196353	1.488258	0.226166
Cl70	Cl	-0.441559	1.648176	0.632740
H71	H	0.319578	1.749705	-0.388917
H72	H	-0.578086	1.344407	0.184827
