data_functionalizedCrystal
_audit_creation_method	'MofGen! by Chris Wilmer'
_symmetry_space_group_name_H-M	'P1'
_symmetry_Int_Tables_number	1
_symmetry_cell_setting	triclinic
loop_
_symmetry_equiv_pos_as_xyz
  x,y,z
_cell_length_a	11.026607
_cell_length_b	8.965430
_cell_length_c	11.026607
_cell_angle_alpha	89.999917
_cell_angle_beta	71.413983
_cell_angle_gamma	89.997226
loop_
_atom_site_label
_atom_site_type_symbol
_atom_site_fract_x
_atom_site_fract_y
_atom_site_fract_z
O1	O	1.726719	0.124036	-0.533615
O2	O	1.360139	0.124038	-0.472851
O3	O	1.513047	0.124032	-0.319943
O4	O	1.573811	0.124042	-0.686523
O5	O	1.513058	-0.124047	-0.319951
O6	O	1.360150	-0.124041	-0.472859
O7	O	1.726729	-0.124043	-0.533623
Cu8	Cu	1.543440	-0.146694	-0.503242
Cu9	Cu	1.543428	0.146688	-0.503232
O10	O	1.573821	-0.124037	-0.686531
C11	C	1.312485	-0.000001	-0.461645
C12	C	1.170471	-0.000000	-0.428228
N13	N	1.543458	-0.353043	-0.503250
C14	C	1.116821	0.000003	-0.520498
C15	C	0.970043	0.000004	-0.485962
C16	C	1.614204	-0.450312	-0.432547
C17	C	1.493644	-0.549716	-0.382641
C18	C	1.663955	-0.549766	-0.553064
C19	C	1.422828	-0.450258	-0.453274
C20	C	1.593226	-0.450299	-0.623763
C21	C	1.472594	-0.549659	-0.573888
C22	C	1.774384	-0.000001	-0.544828
C23	C	1.916398	0.000008	-0.578245
C24	C	1.501843	-0.000006	-0.272287
C25	C	1.468426	-0.000000	-0.130273
N26	N	1.543418	0.353038	-0.503216
C27	C	1.585026	0.000004	-0.734187
C28	C	1.618443	0.000008	-0.876200
C29	C	1.560695	0.000001	-0.076624
C30	C	1.526160	0.000007	0.070155
H31	H	0.907314	0.000040	-0.381393
H32	H	1.421590	0.000017	0.132884
H33	H	1.412668	-0.593005	-0.633651
O34	O	1.685489	-0.000194	-0.151316
C35	C	1.887870	-0.128751	-0.209833
C36	C	1.746572	-0.128703	-0.125155
H37	H	1.937290	-0.232655	-0.188731
H38	H	1.937428	-0.024999	-0.188667
H39	H	1.893469	-0.128678	-0.314870
H40	H	1.740855	-0.128828	-0.020091
H41	H	1.697076	-0.232446	-0.146430
H42	H	1.723013	0.000120	0.061072
H43	H	1.179555	-0.000002	-0.625061
O44	O	1.785630	-0.601674	-0.603254
C45	C	1.997716	-0.610064	-0.585415
C46	C	1.859966	-0.551195	-0.528450
H47	H	2.057848	-0.569301	-0.524946
H48	H	2.040782	-0.567369	-0.687561
H49	H	1.996467	-0.737208	-0.585866
H50	H	1.861101	-0.424055	-0.527910
H51	H	1.816955	-0.594003	-0.426335
O52	O	1.343744	-0.000060	-0.055258
C53	C	1.195643	0.000048	0.159430
C54	C	1.336898	0.000079	0.074631
H55	H	1.190061	0.000193	0.264461
H56	H	1.146116	-0.103798	0.138388
H57	H	1.146171	0.103844	0.138205
H58	H	1.386480	-0.103646	0.095807
H59	H	1.386330	0.103994	0.095687
H60	H	0.979125	0.000001	-0.682816
O61	O	1.095589	0.000263	-0.303501
C62	C	0.932914	0.128739	-0.137321
C63	C	1.017659	0.128643	-0.278596
H64	H	0.869867	0.232507	-0.117147
H65	H	0.996074	0.128834	-0.073157
H66	H	0.869997	0.024871	-0.117092
H67	H	1.080588	0.232494	-0.298947
H68	H	0.954425	0.128470	-0.342684
H69	H	1.673949	-0.406689	-0.372701
O70	O	1.301132	-0.398429	-0.403047
C71	C	1.088661	-0.391515	-0.419986
C72	C	1.226437	-0.450281	-0.477018
H73	H	1.028224	-0.433440	-0.479750
H74	H	1.089585	-0.264361	-0.420414
H75	H	1.046155	-0.433327	-0.317499
H76	H	1.269027	-0.408580	-0.579524
H77	H	1.225429	-0.577434	-0.476491
O78	O	1.443418	-0.601577	-0.260958
C79	C	1.352241	-0.539182	-0.037695
C80	C	1.409112	-0.480257	-0.175433
H81	H	1.324464	-0.441125	0.031488
H82	H	1.426303	-0.610892	-0.012695
H83	H	1.263763	-0.609172	-0.029921
H84	H	1.497574	-0.410205	-0.183308
H85	H	1.334968	-0.408630	-0.200372
O86	O	1.643717	-0.398217	-0.745336
C87	C	1.827856	-0.389813	-0.935355
C88	C	1.770826	-0.448870	-0.797677
H89	H	1.930623	-0.430768	-0.977722
H90	H	1.826602	-0.262665	-0.934311
H91	H	1.768518	-0.432373	-0.995991
H92	H	1.830118	-0.406420	-0.736961
H93	H	1.772059	-0.576017	-0.798819
