data_functionalizedCrystal
_audit_creation_method	'MofGen! by Chris Wilmer'
_symmetry_space_group_name_H-M	'P1'
_symmetry_Int_Tables_number	1
_symmetry_cell_setting	triclinic
loop_
_symmetry_equiv_pos_as_xyz
  x,y,z
_cell_length_a	19.288859
_cell_length_b	17.038274
_cell_length_c	18.366186
_cell_angle_alpha	90.013962
_cell_angle_beta	89.990083
_cell_angle_gamma	92.877245
loop_
_atom_site_label
_atom_site_type_symbol
_atom_site_fract_x
_atom_site_fract_y
_atom_site_fract_z
O1	O	0.927387	-0.097491	-0.060577
O2	O	1.427387	0.402509	0.439423
O3	O	0.725940	-0.110650	-0.060577
O4	O	1.225940	0.389350	0.439423
O5	O	0.825466	0.009741	-0.060557
O6	O	1.325466	0.509741	0.439443
O7	O	0.827861	-0.217882	-0.060597
O8	O	1.327861	0.282118	0.439403
O9	O	0.825448	0.009747	0.060542
O10	O	1.325448	0.509747	0.560542
O11	O	0.725922	-0.110644	0.060522
O12	O	1.225922	0.389356	0.560522
O13	O	0.927369	-0.097485	0.060522
O14	O	1.427369	0.402515	0.560522
Zn15	Zn	0.826643	-0.104064	0.079749
Zn16	Zn	1.326643	0.395936	0.579749
Zn17	Zn	0.826667	-0.104071	-0.079804
Zn18	Zn	1.326667	0.395929	0.420196
O19	O	0.827843	-0.217876	0.060502
O20	O	1.327843	0.282124	0.560502
C21	C	0.700029	-0.110225	-0.000027
C22	C	1.200029	0.389775	0.499973
C23	C	0.622846	-0.108956	-0.000026
C24	C	1.122846	0.391044	0.499974
C25	C	0.062645	-0.171014	-0.000038
C26	C	0.562645	0.328986	0.499962
C27	C	0.135166	-0.172213	-0.000042
C28	C	0.635166	0.327787	0.499958
C29	C	0.175502	-0.101573	-0.000029
C30	C	0.675502	0.398427	0.499971
C31	C	0.143312	-0.029728	-0.000029
C32	C	0.643312	0.470272	0.499971
C33	C	0.070792	-0.028532	-0.000033
C34	C	0.570792	0.471468	0.499967
C35	C	0.293506	-0.048888	0.042410
C36	C	0.793506	0.451112	0.542410
C37	C	0.366024	-0.050087	0.042418
C38	C	0.866024	0.449913	0.542418
C39	C	0.399176	-0.105261	-0.000022
C40	C	0.899176	0.394739	0.499978
C41	C	0.359801	-0.159248	-0.042460
C42	C	0.859801	0.340752	0.457540
C43	C	0.287281	-0.158052	-0.042463
C44	C	0.787281	0.341948	0.457537
C45	C	0.254138	-0.102863	-0.000025
C46	C	0.754138	0.397137	0.499975
C47	C	0.509993	-0.178401	-0.000030
C48	C	1.009993	0.321599	0.499970
C49	C	0.582515	-0.179597	-0.000039
C50	C	1.082515	0.320403	0.499961
C51	C	0.590660	-0.037110	-0.000019
C52	C	1.090660	0.462890	0.499981
C53	C	0.518139	-0.035917	-0.000017
C54	C	1.018139	0.464083	0.499983
C55	C	0.477810	-0.106564	-0.000020
C56	C	0.977810	0.393436	0.499980
C57	C	0.823279	0.038865	-0.000004
C58	C	1.323279	0.538865	0.499996
C59	C	0.816782	0.125637	0.000007
C60	C	1.316782	0.625637	0.500007
C61	C	0.876438	0.175945	0.000014
C62	C	1.376438	0.675945	0.500014
C63	C	0.870328	0.257476	0.000017
C64	C	1.370328	0.757476	0.500017
C65	C	0.804562	0.288697	0.000019
C66	C	1.304562	0.788697	0.500019
C67	C	0.744901	0.238382	0.000010
C68	C	1.244901	0.738382	0.500010
C69	C	0.751012	0.156853	0.000002
C70	C	1.251012	0.656853	0.500002
C71	C	0.782976	0.534384	0.000040
C72	C	1.282976	1.034384	0.500040
C73	C	0.776870	0.615920	0.000051
C74	C	1.276870	1.115920	0.500051
C75	C	0.902297	0.635008	0.000057
C76	C	1.402297	1.135008	0.500057
C77	C	0.908402	0.553476	0.000052
C78	C	1.408402	1.053476	0.500052
C79	C	0.848741	0.503169	0.000040
C80	C	1.348741	1.003169	0.500040
C81	C	0.798315	0.372034	0.000025
C82	C	1.298315	0.872034	0.500025
C83	C	0.854988	0.419833	0.000029
C84	C	1.354988	0.919833	0.500029
C85	C	0.953281	-0.097910	-0.000029
C86	C	1.453281	0.402090	0.499971
C87	C	1.030463	-0.099179	-0.000035
C88	C	1.530463	0.400821	0.499965
C89	C	0.830030	0.753000	-0.000021
C90	C	1.330030	1.253000	0.499979
C91	C	0.836526	0.666228	0.000058
C92	C	1.336526	1.166228	0.500058
N93	N	0.826631	-0.104058	0.188640
N94	N	1.326631	0.395942	0.688640
N95	N	0.826684	-0.104071	-0.188695
N96	N	1.326684	0.395929	0.311305
C97	C	0.870718	-0.050775	0.226750
C98	C	1.370718	0.449225	0.726750
C99	C	0.870722	-0.050771	0.302978
C100	C	1.370722	0.449229	0.802978
C101	C	0.826647	-0.104064	0.341093
C102	C	1.326647	0.395936	0.841093
C103	C	0.782551	-0.157352	0.302975
C104	C	1.282551	0.342648	0.802975
C105	C	0.782543	-0.157348	0.226748
C106	C	1.282543	0.342652	0.726748
C107	C	0.821755	-0.175288	0.461841
C108	C	1.321755	0.324712	0.961841
C109	C	0.821768	-0.175292	0.538066
C110	C	1.321768	0.324708	1.038066
C111	C	0.826667	-0.104074	0.576201
C112	C	1.326667	0.395926	1.076201
C113	C	0.831568	-0.032848	0.538101
C114	C	1.331568	0.467152	1.038101
C115	C	0.831560	-0.032845	0.461875
C116	C	1.331560	0.467155	0.961875
C117	C	0.826650	-0.104073	0.423748
C118	C	1.326650	0.395927	0.923748
C119	C	0.870761	-0.050783	0.696965
C120	C	1.370761	0.449217	1.196965
C121	C	0.870760	-0.050778	0.773194
C122	C	1.370760	0.449222	1.273194
C123	C	0.782593	-0.157365	0.773190
C124	C	1.282593	0.342635	1.273190
C125	C	0.782590	-0.157363	0.696962
C126	C	1.282590	0.342637	1.196962
C127	C	0.826678	-0.104073	0.658854
C128	C	1.326678	0.395927	1.158854
H129	H	0.398078	-0.006132	0.076977
H130	H	0.898078	0.493868	0.576977
N131	N	0.836843	0.043969	0.420780
N132	N	1.336843	0.543969	0.920780
H133	H	0.839949	0.089089	0.456499
H134	H	1.339949	0.589089	0.956499
H135	H	0.794383	0.048410	0.389168
H136	H	1.294383	0.548410	0.889168
H137	H	0.691353	0.263808	0.000007
H138	H	1.191353	0.763808	0.500007
N139	N	0.966642	0.689266	0.000071
N140	N	1.466642	1.189266	0.500071
H141	H	0.952795	0.745653	0.000078
H142	H	1.452795	1.245653	0.500078
H143	H	0.995104	0.679178	-0.044822
H144	H	1.495104	1.179178	0.455178
N145	N	0.925919	0.386161	0.000035
N146	N	1.425919	0.886161	0.500035
H147	H	0.962789	0.430400	0.000044
H148	H	1.462789	0.930400	0.500044
H149	H	0.931195	0.352743	-0.044861
H150	H	1.431195	0.852743	0.455139
N151	N	0.036079	0.048952	-0.000015
N152	N	0.536079	0.548952	0.499985
H153	H	-0.015981	0.038991	-0.000015
H154	H	0.484019	0.538991	0.499985
H155	H	0.050539	0.079851	-0.044903
H156	H	0.550539	0.579851	0.455097
N157	N	0.686669	0.102588	-0.000010
N158	N	1.186669	0.602588	0.499990
H159	H	0.644079	0.134736	-0.000007
H160	H	1.144079	0.634736	0.499993
H161	H	0.686463	0.068348	0.044878
H162	H	1.186463	0.568348	0.544878
N163	N	0.483421	0.041562	0.000002
N164	N	0.983421	0.541562	0.500002
H165	H	0.453522	0.045232	-0.044890
H166	H	0.953522	0.545232	0.455110
H167	H	0.520015	0.086087	0.000039
H168	H	1.020015	0.586087	0.500039
N169	N	0.019177	-0.247229	-0.000036
N170	N	0.519177	0.252771	0.499964
H171	H	-0.011089	-0.249944	-0.044925
H172	H	0.488911	0.250056	0.455075
H173	H	-0.011054	-0.249868	0.044888
H174	H	0.488946	0.250132	0.544888
H175	H	0.906625	-0.007380	0.334012
H176	H	1.406625	0.492620	0.834012
N177	N	0.918318	0.006688	0.814304
N178	N	1.418318	0.506688	1.314304
H179	H	0.950822	-0.023110	0.845914
H180	H	1.450822	0.476890	1.345914
H181	H	0.889696	0.041211	0.845907
H182	H	1.389696	0.541211	1.345907
H183	H	0.817754	-0.233287	0.430798
H184	H	1.317754	0.266713	0.930798
N185	N	0.718629	0.480132	0.000031
N186	N	1.218629	0.980132	0.500031
H187	H	0.718374	0.445880	-0.044867
H188	H	1.218374	0.945880	0.455133
H189	H	0.676079	0.512342	0.000063
H190	H	1.176079	1.012342	0.500063
H191	H	0.161374	-0.230711	-0.000038
H192	H	0.661374	0.269289	0.499962
H193	H	0.266520	-0.003954	0.076971
H194	H	0.766520	0.496046	0.576971
N195	N	0.244814	-0.216265	-0.088244
N196	N	0.744814	0.283735	0.411756
H197	H	0.193844	-0.207130	-0.081805
H198	H	0.693844	0.292870	0.418195
H199	H	0.254339	-0.271448	-0.072394
H200	H	0.754339	0.228552	0.427606
H201	H	0.906658	-0.007388	0.665936
H202	H	1.406658	0.492612	1.165936
H203	H	0.744768	0.397463	0.000028
H204	H	1.244768	0.897463	0.500028
H205	H	0.835557	0.025144	0.569149
H206	H	1.335557	0.525144	1.069149
N207	N	0.735047	-0.214841	0.814289
N208	N	1.235047	0.285159	1.314289
H209	H	0.741739	-0.206758	0.868361
H210	H	1.241739	0.293242	1.368361
H211	H	0.746340	-0.270273	0.800949
H212	H	1.246340	0.229727	1.300949
N213	N	0.918265	0.006702	0.185648
N214	N	1.418265	0.506702	0.685648
H215	H	0.946195	0.040459	0.221362
H216	H	1.446195	0.540459	0.721362
H217	H	0.889637	0.041187	0.154040
H218	H	1.389637	0.541187	0.654040
N219	N	0.395545	-0.218767	-0.088234
N220	N	0.895545	0.281233	0.411766
H221	H	0.447460	-0.211333	-0.081797
H222	H	0.947460	0.288667	0.418203
H223	H	0.383294	-0.211256	-0.141153
H224	H	0.883294	0.288744	0.358847
N225	N	0.947373	0.142278	0.000016
N226	N	1.447373	0.642278	0.500016
H227	H	0.952714	0.108868	-0.044876
H228	H	1.452714	0.608868	0.455124
H229	H	0.952650	0.108925	0.044936
H230	H	1.452650	0.608925	0.544936
H231	H	0.746693	-0.200754	0.665931
H232	H	1.246693	0.299246	1.165931
H233	H	0.817782	-0.233289	0.569081
H234	H	1.317782	0.266711	1.069081
N235	N	0.979341	0.519819	0.000034
N236	N	1.479341	1.019819	0.500034
H237	H	0.984675	0.486415	-0.044864
H238	H	1.484675	0.986415	0.455136
H239	H	0.984633	0.486461	0.044949
H240	H	1.484633	0.986461	0.544949
N241	N	0.735008	-0.214829	0.344080
N242	N	1.235008	0.285171	0.844080
H243	H	0.741703	-0.206747	0.398152
H244	H	1.241703	0.293253	0.898152
H245	H	0.746299	-0.270260	0.330736
H246	H	1.246299	0.229740	0.830736
N247	N	0.734987	-0.214822	0.185646
N248	N	1.234987	0.285178	0.685646
H249	H	0.746259	-0.270280	0.198894
H250	H	1.246259	0.229720	0.698894
H251	H	0.741691	-0.206668	0.131586
H252	H	1.241691	0.293332	0.631586
N253	N	0.466489	-0.254594	-0.000041
N254	N	0.966489	0.245406	0.499959
H255	H	0.497883	-0.300285	-0.000052
H256	H	0.997883	0.199715	0.499948
H257	H	0.436231	-0.257200	-0.044935
H258	H	0.936231	0.242800	0.455065
H259	H	0.608716	-0.238096	-0.000048
H260	H	1.108716	0.261904	0.499952
H261	H	0.176158	0.027787	-0.000020
H262	H	0.676158	0.527787	0.499980
H263	H	0.623501	0.020406	-0.000013
H264	H	1.123501	0.520406	0.499987
H265	H	0.918907	0.298434	0.000024
H266	H	1.418907	0.798434	0.500024
H267	H	0.723313	0.641336	0.000065
H268	H	1.223313	1.141336	0.500065
