data_functionalizedCrystal
_audit_creation_method	'MofGen! by Chris Wilmer'
_symmetry_space_group_name_H-M	'P1'
_symmetry_Int_Tables_number	1
_symmetry_cell_setting	triclinic
loop_
_symmetry_equiv_pos_as_xyz
  x,y,z
_cell_length_a	16.959455
_cell_length_b	16.120484
_cell_length_c	16.959447
_cell_angle_alpha	87.133462
_cell_angle_beta	90.016723
_cell_angle_gamma	92.924574
loop_
_atom_site_label
_atom_site_type_symbol
_atom_site_fract_x
_atom_site_fract_y
_atom_site_fract_z
Zn1	Zn	1.192396	-0.331913	0.462899
Zn2	Zn	1.692396	0.168087	0.962899
Zn3	Zn	1.185602	-0.471342	0.337416
Zn4	Zn	1.685602	0.028658	0.837416
Zn5	Zn	1.060223	-0.331944	0.330732
Zn6	Zn	1.560223	0.168056	0.830732
Zn7	Zn	1.053476	-0.471284	0.469547
Zn8	Zn	1.553476	0.028716	0.969547
O9	O	1.122924	-0.401621	0.400149
O10	O	1.622924	0.098379	0.900149
O11	O	1.302105	-0.350420	0.446269
O12	O	1.802105	0.149580	0.946269
O13	O	1.168951	-0.452888	0.225920
O14	O	1.668951	0.047112	0.725920
O15	O	1.083423	-0.215275	0.342685
O16	O	1.583423	0.284725	0.842685
O17	O	1.297114	-0.452857	0.354077
O18	O	1.797114	0.047143	0.854077
O19	O	1.180530	-0.215252	0.439788
O20	O	1.680530	0.284748	0.939788
O21	O	1.076835	-0.350473	0.221010
O22	O	1.576835	0.149527	0.721010
O23	O	0.948718	-0.350417	0.349131
O24	O	1.448718	0.149583	0.849131
O25	O	1.071923	-0.452760	0.579274
O26	O	1.571923	0.047240	1.079274
O27	O	0.943761	-0.452790	0.451117
O28	O	1.443761	0.047210	0.951117
O29	O	1.173987	-0.350364	0.574390
O30	O	1.673987	0.149636	1.074390
O31	O	1.162409	-0.588000	0.360523
O32	O	1.662409	-0.088000	0.860523
O33	O	1.065336	-0.587958	0.457598
O34	O	1.565336	-0.087958	0.957598
C35	C	0.917559	-0.401601	0.400121
C36	C	1.417559	0.098399	0.900121
C37	C	0.829702	-0.401613	0.400129
C38	C	1.329702	0.098387	0.900129
C39	C	0.790989	-0.348236	0.347107
C40	C	1.290989	0.151764	0.847107
C41	C	0.785861	-0.454996	0.453163
C42	C	1.285861	0.045004	0.953163
C43	C	0.703315	-0.455005	0.453175
C44	C	1.203315	0.044995	0.953175
C45	C	0.664602	-0.401628	0.400153
C46	C	1.164602	0.098372	0.900153
C47	C	0.708435	-0.348242	0.347119
C48	C	1.208435	0.151758	0.847119
C49	C	0.659475	-0.508385	0.506214
C50	C	1.159475	-0.008385	1.006214
C51	C	0.576924	-0.508396	0.506228
C52	C	1.076924	-0.008396	1.006228
C53	C	0.538209	-0.455022	0.453202
C54	C	1.038209	0.044978	0.953202
C55	C	0.582048	-0.401635	0.400165
C56	C	1.082048	0.098365	0.900165
C57	C	0.543335	-0.348258	0.347143
C58	C	1.043335	0.151742	0.847143
C59	C	0.587172	-0.294874	0.294101
C60	C	1.087172	0.205126	0.794101
C61	C	0.669721	-0.294869	0.294092
C62	C	1.169721	0.205131	0.794092
C63	C	0.455661	-0.455027	0.453211
C64	C	0.955661	0.044973	0.953211
C65	C	0.460781	-0.348264	0.347155
C66	C	0.960781	0.151736	0.847155
C67	C	1.112424	-0.618229	0.410524
C68	C	1.612424	-0.118229	0.910524
C69	C	1.108005	-0.710894	0.414990
C70	C	1.608005	-0.210894	0.914990
C71	C	1.099940	-0.880556	0.423158
C72	C	1.599940	-0.380556	0.923158
C73	C	1.146050	-0.921846	0.377152
C74	C	1.646050	-0.421846	0.877152
C75	C	1.141563	-1.016251	0.381697
C76	C	1.641563	-0.516251	0.881697
C77	C	1.104426	-0.786142	0.418614
C78	C	1.604426	-0.286142	0.918614
C79	C	1.329092	-0.401642	0.400177
C80	C	1.829092	0.098358	0.900177
C81	C	1.416948	-0.401650	0.400189
C82	C	1.916948	0.098350	0.900189
C83	C	1.122961	-0.401552	0.606314
C84	C	1.622961	0.098448	1.106314
C85	C	1.122976	-0.401523	0.694169
C86	C	1.622976	0.098477	1.194169
C87	C	1.133487	-0.184168	0.389749
C88	C	1.633487	0.315832	0.889749
C89	C	1.137988	-0.091502	0.385318
C90	C	1.637988	0.408498	0.885318
C91	C	1.122937	-0.401630	0.194783
C92	C	1.622937	0.098370	0.694783
C93	C	1.123086	-0.401424	0.106917
C94	C	1.623086	0.098576	0.606917
C95	C	1.069935	-0.454747	1.068186
C96	C	1.569935	0.045253	1.568186
C97	C	1.176215	-0.348122	1.063095
C98	C	1.676215	0.151878	1.563095
C99	C	1.176193	-0.348140	0.980550
C100	C	1.676193	0.151860	1.480550
C101	C	1.123042	-0.401463	0.941819
C102	C	1.623042	0.098537	1.441819
C103	C	1.069913	-0.454768	0.985633
C104	C	1.569913	0.045232	1.485633
C105	C	1.229326	-0.294842	0.936730
C106	C	1.729326	0.205158	1.436730
C107	C	1.229307	-0.294858	0.854180
C108	C	1.729307	0.205142	1.354180
C109	C	1.176152	-0.348177	0.815447
C110	C	1.676152	0.151823	1.315447
C111	C	1.123020	-0.401484	0.859266
C112	C	1.623020	0.098516	1.359266
C113	C	1.069869	-0.454807	0.820535
C114	C	1.569869	0.045193	1.320535
C115	C	1.016732	-0.508110	0.864353
C116	C	1.516732	-0.008110	1.364353
C117	C	1.016757	-0.508088	0.946900
C118	C	1.516757	-0.008088	1.446900
C119	C	1.176127	-0.348200	0.732900
C120	C	1.676127	0.151800	1.232900
C121	C	1.069847	-0.454828	0.737983
C122	C	1.569847	0.045172	1.237983
H123	H	0.555641	-0.251411	0.250934
H124	H	1.055641	0.248589	0.750934
N125	N	1.286655	-0.237337	0.978501
N126	N	1.786655	0.262663	1.478501
H127	H	1.278602	-0.245410	1.037443
H128	H	1.778602	0.254590	1.537443
H129	H	1.277244	-0.177797	0.961228
H130	H	1.777244	0.322203	1.461228
H131	H	1.188895	-0.886295	0.334350
H132	H	1.688895	-0.386295	0.834350
H133	H	0.973460	-0.551529	0.832808
H134	H	1.473460	-0.051529	1.332808
N135	N	1.012513	-0.512346	0.696222
N136	N	1.512513	-0.012346	1.196222
H137	H	1.042745	-0.550998	0.663821
H138	H	1.542745	-0.050998	1.163821
H139	H	0.977532	-0.478413	0.660396
H140	H	1.477532	0.021587	1.160396
N141	N	0.959436	-0.565559	0.994158
N142	N	1.459436	-0.065559	1.494158
H143	H	0.967514	-0.557450	1.052328
H144	H	1.467514	-0.057450	1.552328
H145	H	0.968826	-0.625111	0.982581
H146	H	1.468826	-0.125111	1.482581
N147	N	1.043186	-0.927637	0.479849
N148	N	1.543186	-0.427637	0.979849
H149	H	1.047987	-0.989380	0.475095
H150	H	1.547987	-0.489380	0.975095
H151	H	0.987447	-0.912533	0.466773
H152	H	1.487447	-0.412533	0.966773
H153	H	1.272574	-0.251454	0.818510
H154	H	1.772574	0.248546	1.318510
H155	H	0.429267	-0.304799	0.303976
H156	H	0.929267	0.195201	0.803976
H157	H	1.026670	-0.498143	1.103865
H158	H	1.526670	0.001857	1.603865
H159	H	1.219492	-0.304714	1.094635
H160	H	1.719492	0.195286	1.594635
N161	N	1.233436	-0.290723	0.685639
N162	N	1.733436	0.209277	1.185639
H163	H	1.267113	-0.256944	0.722701
H164	H	1.767113	0.243056	1.222701
H165	H	1.203129	-0.252142	0.649547
H166	H	1.703129	0.247858	1.149547
H167	H	0.826685	-0.304774	0.303920
H168	H	1.326685	0.195226	0.803920
N169	N	0.717000	-0.237293	0.236889
N170	N	1.217000	0.262707	0.736889
H171	H	0.775168	-0.245386	0.244932
H172	H	1.275168	0.254614	0.744932
H173	H	0.705456	-0.177768	0.246432
H174	H	1.205456	0.322232	0.746432
H175	H	0.817386	-0.498449	0.496334
H176	H	1.317386	0.001551	0.996334
N177	N	0.701228	-0.565957	0.563393
N178	N	1.201228	-0.065957	1.063393
H179	H	0.737140	-0.532122	0.598443
H180	H	1.237140	-0.032122	1.098443
H181	H	0.733543	-0.604535	0.532990
H182	H	1.233543	-0.104535	1.032990
N183	N	0.529645	-0.565979	0.563425
N184	N	1.029645	-0.065979	1.063425
H185	H	0.566697	-0.599794	0.597009
H186	H	1.066697	-0.099794	1.097009
H187	H	0.493523	-0.604522	0.533034
H188	H	0.993523	-0.104522	1.033034
N189	N	0.408379	-0.512592	0.510417
N190	N	0.908379	-0.012592	1.010417
H191	H	0.445430	-0.546401	0.544007
H192	H	0.945430	-0.046401	1.044007
H193	H	0.372250	-0.551141	0.480038
H194	H	0.872250	-0.051141	0.980038
