data_functionalizedCrystal
_audit_creation_method	'MofGen! by Chris Wilmer'
_symmetry_space_group_name_H-M	'P1'
_symmetry_Int_Tables_number	1
_symmetry_cell_setting	triclinic
loop_
_symmetry_equiv_pos_as_xyz
  x,y,z
_cell_length_a	15.995350
_cell_length_b	15.995350
_cell_length_c	15.186229
_cell_angle_alpha	89.998487
_cell_angle_beta	90.000289
_cell_angle_gamma	83.492375
loop_
_atom_site_label
_atom_site_type_symbol
_atom_site_fract_x
_atom_site_fract_y
_atom_site_fract_z
O1	O	1.110984	0.107926	-0.073150
O2	O	1.444318	0.441259	0.260184
O3	O	1.777651	0.774592	0.593517
O4	O	0.867209	0.121253	-0.073167
O5	O	1.200542	0.454586	0.260166
O6	O	1.533876	0.787920	0.593500
O7	O	0.995760	-0.007298	-0.073157
O8	O	1.329094	0.326035	0.260176
O9	O	1.662427	0.659368	0.593510
O10	O	0.982433	0.236477	-0.073160
O11	O	1.315766	0.569810	0.260174
O12	O	1.649100	0.903144	0.593507
O13	O	0.995752	-0.007300	0.073300
O14	O	1.329085	0.326033	0.406634
O15	O	1.662418	0.659366	0.739967
O16	O	0.867200	0.121251	0.073290
O17	O	1.200534	0.454585	0.406623
O18	O	1.533867	0.787918	0.739957
O19	O	1.110976	0.107924	0.073308
O20	O	1.444309	0.441257	0.406641
O21	O	1.777642	0.774590	0.739974
Zn22	Zn	0.989087	0.114587	0.096552
Zn23	Zn	1.322420	0.447920	0.429885
Zn24	Zn	1.655753	0.781254	0.763219
Zn25	Zn	0.989098	0.114590	-0.096412
Zn26	Zn	1.322431	0.447923	0.236922
Zn27	Zn	1.655765	0.781256	0.570255
O28	O	0.982424	0.236475	0.073298
O29	O	1.315758	0.569808	0.406631
O30	O	1.649091	0.903142	0.739964
C31	C	0.836010	0.120701	0.000059
C32	C	1.169343	0.454034	0.333393
C33	C	1.502677	0.787368	0.666726
C34	C	0.743060	0.119049	0.000052
C35	C	1.076393	0.452383	0.333386
C36	C	1.409726	0.785716	0.666719
C37	C	0.405312	0.113117	0.000071
C38	C	0.738645	0.446450	0.333404
C39	C	1.071979	0.779784	0.666737
C40	C	0.452746	0.021565	0.000398
C41	C	0.786079	0.354898	0.333732
C42	C	1.119413	0.688232	0.667065
C43	C	0.549436	0.023217	0.000062
C44	C	0.882770	0.356551	0.333396
C45	C	1.216103	0.689884	0.666729
C46	C	0.572873	0.116060	0.000062
C47	C	0.906206	0.449393	0.333395
C48	C	1.239539	0.782726	0.666729
C49	C	0.531790	0.161217	-0.083569
C50	C	0.865124	0.494550	0.249764
C51	C	1.198457	0.827884	0.583098
C52	C	0.435155	0.158917	-0.083633
C53	C	0.768488	0.492251	0.249700
C54	C	1.101821	0.825584	0.583034
C55	C	0.434806	0.160807	0.082916
C56	C	0.768139	0.494140	0.416250
C57	C	1.101473	0.827473	0.749583
C58	C	0.531751	0.160785	0.084015
C59	C	0.865085	0.494118	0.417349
C60	C	1.198418	0.827452	0.750682
C61	C	0.667570	0.117727	0.000054
C62	C	1.000903	0.451061	0.333388
C63	C	1.334237	0.784394	0.666721
C64	C	0.310614	0.111452	0.000073
C65	C	0.643948	0.444785	0.333406
C66	C	0.977281	0.778119	0.666739
C67	C	0.995205	-0.038494	0.000070
C68	C	1.328538	0.294839	0.333403
C69	C	1.661872	0.628173	0.666737
C70	C	0.993553	-0.131444	0.000065
C71	C	1.326887	0.201889	0.333398
C72	C	1.660220	0.535222	0.666731
C73	C	0.987621	-0.469192	0.000067
C74	C	1.320954	-0.135859	0.333401
C75	C	1.654288	0.197475	0.666734
C76	C	0.896069	-0.421758	-0.000268
C77	C	1.229403	-0.088425	0.333066
C78	C	1.562736	0.244909	0.666399
C79	C	0.897721	-0.325068	0.000062
C80	C	1.231055	0.008266	0.333396
C81	C	1.564388	0.341599	0.666729
C82	C	0.990564	-0.301631	0.000066
C83	C	1.323897	0.031702	0.333399
C84	C	1.657230	0.365035	0.666732
C85	C	1.035715	-0.342710	0.083702
C86	C	1.369049	-0.009377	0.417035
C87	C	1.702382	0.323957	0.750368
C88	C	1.033415	-0.439346	0.083771
C89	C	1.366749	-0.106012	0.417105
C90	C	1.700082	0.227321	0.750438
C91	C	1.035317	-0.439702	-0.082778
C92	C	1.368650	-0.106368	0.250556
C93	C	1.701983	0.226965	0.583889
C94	C	1.035295	-0.342756	-0.083883
C95	C	1.368628	-0.009423	0.249450
C96	C	1.701962	0.323910	0.582784
C97	C	0.992231	-0.206934	0.000068
C98	C	1.325565	0.126399	0.333401
C99	C	1.658898	0.459733	0.666734
C100	C	0.985956	-0.563890	0.000071
C101	C	1.319289	-0.230556	0.333405
C102	C	1.652623	0.102777	0.666738
C103	C	1.142175	0.108476	0.000079
C104	C	1.475508	0.441809	0.333413
C105	C	1.808841	0.775142	0.666746
C106	C	1.235125	0.110127	0.000081
C107	C	1.568458	0.443461	0.333414
C108	C	1.901792	0.776794	0.666747
C109	C	0.982980	0.267671	0.000069
C110	C	1.316313	0.601004	0.333402
C111	C	1.649646	0.934337	0.666735
C112	C	0.984631	0.360621	0.000068
C113	C	1.317965	0.693954	0.333401
C114	C	1.651298	1.027288	0.666735
N115	N	0.989085	0.114585	0.228245
N116	N	1.322418	0.447918	0.561578
N117	N	1.655752	0.781252	0.894911
N118	N	0.989106	0.114585	-0.228104
N119	N	1.322440	0.447918	0.105229
N120	N	1.655773	0.781252	0.438562
C121	C	1.046027	0.057682	0.453972
C122	C	1.379360	0.391015	0.787305
C123	C	1.712694	0.724348	1.120639
C124	C	1.046030	0.057680	0.546162
C125	C	1.379363	0.391013	0.879495
C126	C	1.712696	0.724346	1.212828
C127	C	0.932158	0.171491	0.546162
C128	C	1.265492	0.504824	0.879495
C129	C	1.598825	0.838158	1.212829
C130	C	0.932152	0.171488	0.453974
C131	C	1.265486	0.504822	0.787307
C132	C	1.598819	0.838155	1.120641
C133	C	0.989091	0.114585	0.407881
C134	C	1.322425	0.447918	0.741215
C135	C	1.655758	0.781251	1.074548
C136	C	0.989100	0.114585	0.592259
C137	C	1.322433	0.447919	0.925592
C138	C	1.655767	0.781252	1.258926
C139	C	0.989102	0.114584	0.692215
C140	C	1.322436	0.447917	1.025549
C141	C	1.655769	0.781250	1.358882
C142	C	0.989088	0.114585	0.307919
C143	C	1.322421	0.447918	0.641252
C144	C	1.655755	0.781252	0.974586
H145	H	0.545916	0.229426	-0.086679
H146	H	0.879249	0.562759	0.246654
H147	H	1.212582	0.896093	0.579988
H148	H	0.402906	0.226133	-0.087428
H149	H	0.736240	0.559467	0.245905
H150	H	1.069573	0.892800	0.579238
H151	H	1.000484	-0.457648	0.146288
H152	H	1.333817	-0.124315	0.479622
H153	H	1.667150	0.209019	0.812955
Cl154	Cl	0.842541	-0.282041	0.092775
Cl155	Cl	1.175875	0.051292	0.426108
Cl156	Cl	1.509208	0.384625	0.759442
H157	H	0.414267	0.130876	0.146307
H158	H	0.747600	0.464209	0.479640
H159	H	1.080933	0.797542	0.812974
H160	H	0.885784	0.217826	0.416444
H161	H	1.219118	0.551159	0.749778
H162	H	1.552451	0.884493	1.083111
Cl163	Cl	1.139826	-0.319036	-0.091683
Cl164	Cl	1.473160	0.014298	0.241651
Cl165	Cl	1.806493	0.347631	0.574984
H166	H	1.005387	-0.460241	-0.146169
H167	H	1.338721	-0.126907	0.187165
H168	H	1.672054	0.206426	0.520498
Cl169	Cl	0.575599	0.112796	-0.179666
Cl170	Cl	0.908932	0.446130	0.153668
Cl171	Cl	1.242265	0.779463	0.487001
Cl172	Cl	0.839573	-0.450366	-0.092869
Cl173	Cl	1.172907	-0.117032	0.240464
Cl174	Cl	1.506240	0.216301	0.573798
H175	H	1.004348	-0.314329	0.145938
H176	H	1.337682	0.019004	0.479272
H177	H	1.671015	0.352337	0.812605
Cl178	Cl	0.424139	-0.034939	0.092996
Cl179	Cl	0.757472	0.298395	0.426329
Cl180	Cl	1.090805	0.631728	0.759663
H181	H	0.577862	-0.012279	0.060013
H182	H	0.911195	0.321055	0.393346
H183	H	1.244528	0.654388	0.726679
H184	H	0.885801	0.217822	0.583700
H185	H	1.219134	0.551156	0.917033
H186	H	1.552467	0.884489	1.250366
H187	H	1.092391	0.011343	0.583686
H188	H	1.425724	0.344676	0.917020
H189	H	1.759057	0.678010	1.250353
H190	H	0.433156	-0.014861	-0.059245
H191	H	0.766489	0.318472	0.274088
H192	H	1.099823	0.651806	0.607421
H193	H	0.577298	-0.012517	-0.059992
H194	H	0.910631	0.320816	0.273341
H195	H	1.243964	0.654149	0.606675
H196	H	0.416850	0.125988	-0.146149
H197	H	0.750183	0.459321	0.187184
H198	H	1.083517	0.792655	0.520517
H199	H	0.559064	0.127820	0.145886
H200	H	0.892398	0.461154	0.479219
H201	H	1.225731	0.794487	0.812552
H202	H	1.002283	-0.315507	-0.145755
H203	H	1.335616	0.017826	0.187579
H204	H	1.668950	0.351160	0.520912
H205	H	0.547116	0.228488	0.089067
H206	H	0.880450	0.561822	0.422400
H207	H	1.213783	0.895155	0.755734
H208	H	0.403044	0.228307	0.083482
H209	H	0.736378	0.561641	0.416815
H210	H	1.069711	0.894974	0.750148
H211	H	0.862229	-0.296645	-0.059891
H212	H	1.195562	0.036688	0.273442
H213	H	1.528895	0.370022	0.606775
H214	H	0.859636	-0.441353	0.059370
H215	H	1.192969	-0.108019	0.392703
H216	H	1.526302	0.225314	0.726037
Cl217	Cl	1.117604	-0.013858	0.396031
Cl218	Cl	1.450938	0.319476	0.729364
Cl219	Cl	1.784271	0.652809	1.062698
Cl220	Cl	1.137188	-0.489138	0.089646
Cl221	Cl	1.470521	-0.155805	0.422980
Cl222	Cl	1.803854	0.177529	0.756313
H223	H	1.102817	-0.471462	-0.083338
H224	H	1.436151	-0.138129	0.249996
H225	H	1.769484	0.195204	0.583329
Cl226	Cl	1.141025	-0.320903	0.088513
Cl227	Cl	1.474358	0.012430	0.421846
Cl228	Cl	1.807692	0.345764	0.755179
