data_functionalizedCrystal
_audit_creation_method	'MofGen! by Chris Wilmer'
_symmetry_space_group_name_H-M	'P1'
_symmetry_Int_Tables_number	1
_symmetry_cell_setting	triclinic
loop_
_symmetry_equiv_pos_as_xyz
  x,y,z
_cell_length_a	12.759401
_cell_length_b	21.295417
_cell_length_c	12.759393
_cell_angle_alpha	89.960780
_cell_angle_beta	89.980313
_cell_angle_gamma	90.030989
loop_
_atom_site_label
_atom_site_type_symbol
_atom_site_fract_x
_atom_site_fract_y
_atom_site_fract_z
Zn1	Zn	1.606140	-0.250564	-0.593960
Zn2	Zn	2.106140	0.249436	-0.093960
Zn3	Zn	1.605986	-0.355848	-0.418257
Zn4	Zn	2.105986	0.144152	0.081743
Zn5	Zn	1.430442	-0.250597	-0.418296
Zn6	Zn	1.930442	0.249403	0.081704
Zn7	Zn	1.430382	-0.355800	-0.593895
Zn8	Zn	1.930382	0.144200	-0.093895
O9	O	1.518237	-0.303202	-0.506102
O10	O	2.018237	0.196798	-0.006102
O11	O	1.753140	-0.264536	-0.570664
O12	O	2.253140	0.235464	-0.070664
O13	O	1.582660	-0.341920	-0.271241
O14	O	2.082660	0.158080	0.228759
O15	O	1.453838	-0.162503	-0.441642
O16	O	1.953838	0.337497	0.058358
O17	O	1.753027	-0.341888	-0.441576
O18	O	2.253027	0.158112	0.058424
O19	O	1.582922	-0.162479	-0.570702
O20	O	2.082922	0.337521	-0.070702
O21	O	1.453689	-0.264593	-0.271270
O22	O	1.953689	0.235407	0.228730
O23	O	1.283413	-0.264547	-0.441578
O24	O	1.783413	0.235453	0.058422
O25	O	1.453736	-0.341806	-0.740925
O26	O	1.953736	0.158194	-0.240925
O27	O	1.283369	-0.341839	-0.570590
O28	O	1.783369	0.158161	-0.070590
O29	O	1.582864	-0.264489	-0.740973
O30	O	2.082864	0.235511	-0.240973
O31	O	1.582602	-0.443931	-0.441512
O32	O	2.082602	0.056069	0.058488
O33	O	1.453586	-0.443896	-0.570552
O34	O	1.953586	0.056104	-0.070552
C35	C	1.245270	-0.303191	-0.506082
C36	C	1.745270	0.196809	-0.006082
C37	C	1.128493	-0.303202	-0.506098
C38	C	1.628493	0.196798	-0.006098
C39	C	0.963843	-0.343424	-0.438811
C40	C	1.463843	0.156576	0.061189
C41	C	1.073567	-0.343415	-0.438791
C42	C	1.573567	0.156585	0.061209
C43	C	1.073689	-0.262991	-0.573422
C44	C	1.573689	0.237009	-0.073422
C45	C	0.963967	-0.262998	-0.573436
C46	C	1.463967	0.237002	-0.073436
C47	C	1.223443	-0.365810	-0.314797
C48	C	1.723443	0.134190	0.185203
C49	C	1.278243	-0.406026	-0.247486
C50	C	1.778243	0.093974	0.252514
C51	C	1.242579	-0.467439	-0.231169
C52	C	1.742579	0.032561	0.268831
C53	C	1.152118	-0.488649	-0.282179
C54	C	1.652118	0.011351	0.217821
C55	C	1.097323	-0.448437	-0.349498
C56	C	1.597323	0.051563	0.150502
C57	C	1.132985	-0.387014	-0.365795
C58	C	1.632985	0.112986	0.134205
C59	C	0.814090	-0.240610	-0.697431
C60	C	1.314090	0.259390	-0.197431
C61	C	0.759293	-0.200400	-0.764756
C62	C	1.259293	0.299600	-0.264756
C63	C	0.794955	-0.138985	-0.781084
C64	C	1.294955	0.361015	-0.281084
C65	C	0.885420	-0.117778	-0.730092
C66	C	1.385420	0.382222	-0.230092
C67	C	0.940216	-0.157988	-0.662767
C68	C	1.440216	0.342012	-0.162767
C69	C	0.904547	-0.219401	-0.646438
C70	C	1.404547	0.280599	-0.146438
C71	C	1.518099	-0.466754	-0.506044
C72	C	2.018099	0.033246	-0.006044
C73	C	1.518137	-0.536722	-0.506054
C74	C	2.018137	-0.036722	-0.006054
C75	C	1.585375	-0.569586	-0.438932
C76	C	2.085375	-0.069586	0.061068
C77	C	1.585424	-0.635328	-0.438955
C78	C	2.085424	-0.135328	0.061045
C79	C	1.518216	-0.668204	-0.506090
C80	C	2.018216	-0.168204	-0.006090
C81	C	1.450974	-0.635332	-0.573226
C82	C	1.950974	-0.135332	-0.073226
C83	C	1.450934	-0.569591	-0.573208
C84	C	1.950934	-0.069591	-0.073208
N85	N	1.426309	-0.771470	-0.514093
N86	N	1.926309	-0.271470	-0.014093
N87	N	1.426350	-0.833921	-0.514104
N88	N	1.926350	-0.333921	-0.014104
C89	C	1.518334	-0.866279	-0.506151
C90	C	2.018334	-0.366279	-0.006151
N91	N	1.610278	-0.833826	-0.498165
N92	N	2.110278	-0.333826	0.001835
N93	N	1.610236	-0.771369	-0.498149
N94	N	2.110236	-0.271369	0.001851
C95	C	1.518253	-0.739490	-0.506118
C96	C	2.018253	-0.239490	-0.006118
C97	C	1.585631	-0.970429	-0.439050
C98	C	2.085631	-0.470429	0.060950
C99	C	1.585682	-1.036172	-0.439081
C100	C	2.085682	-0.536172	0.060919
C101	C	1.451222	-1.036175	-0.573346
C102	C	1.951222	-0.536175	-0.073346
C103	C	1.451181	-0.970433	-0.573321
C104	C	1.951181	-0.470433	-0.073321
C105	C	1.518384	-0.937563	-0.506167
C106	C	2.018384	-0.437563	-0.006167
C107	C	1.792270	-0.303213	-0.506123
C108	C	2.292270	0.196787	-0.006123
C109	C	1.909047	-0.303218	-0.506132
C110	C	2.409047	0.196782	-0.006132
C111	C	1.518311	-0.303139	-0.780136
C112	C	2.018311	0.196861	-0.280136
C113	C	1.518342	-0.303111	-0.896912
C114	C	2.018342	0.196889	-0.396912
C115	C	1.518404	-0.139012	-0.506183
C116	C	2.018404	0.360988	-0.006183
C117	C	1.518475	-0.069044	-0.506218
C118	C	2.018475	0.430956	-0.006218
C119	C	1.451211	-0.262840	-0.951789
C120	C	1.951211	0.237160	-0.451789
C121	C	1.451235	-0.262820	-1.061513
C122	C	1.951235	0.237180	-0.561513
C123	C	1.585531	-0.343346	-1.061475
C124	C	2.085531	0.156654	-0.561475
C125	C	1.585500	-0.343368	-0.951752
C126	C	2.085500	0.156632	-0.451752
C127	C	1.327395	-0.240292	-1.211468
C128	C	1.827395	0.259708	-0.711468
C129	C	1.260273	-0.200011	-1.266348
C130	C	1.760273	0.299989	-0.766348
C131	C	1.244197	-0.138595	-1.230772
C132	C	1.744197	0.361405	-0.730772
C133	C	1.295258	-0.117447	-1.140318
C134	C	1.795258	0.382553	-0.640318
C135	C	1.362388	-0.157725	-1.085443
C136	C	1.862388	0.342275	-0.585443
C137	C	1.378444	-0.219150	-1.121018
C138	C	1.878444	0.280850	-0.621018
C139	C	1.709342	-0.365890	-0.801795
C140	C	2.209342	0.134110	-0.301795
C141	C	1.776478	-0.406165	-0.746919
C142	C	2.276478	0.093835	-0.246919
C143	C	1.792565	-0.467582	-0.782493
C144	C	2.292565	0.032418	-0.282493
C145	C	1.741522	-0.488727	-0.872951
C146	C	2.241522	0.011273	-0.372951
C147	C	1.674386	-0.448452	-0.927827
C148	C	2.174386	0.051548	-0.427827
C149	C	1.658297	-0.387035	-0.892246
C150	C	2.158297	0.112965	-0.392246
C151	C	1.518224	-0.303220	-0.233135
C152	C	2.018224	0.196780	0.266865
C153	C	1.518397	-0.303070	-0.116359
C154	C	2.018397	0.196930	0.383641
H155	H	0.919130	-0.376174	-0.384007
H156	H	1.419130	0.123826	0.115993
H157	H	1.640181	-0.662092	-0.384297
H158	H	2.140181	-0.162092	0.115703
H159	H	1.396425	-0.943673	-0.627974
H160	H	1.896425	-0.443673	-0.127974
H161	H	1.014016	-0.140762	-0.621439
H162	H	1.514016	0.359238	-0.121439
H163	H	0.914459	-0.067769	-0.743389
H164	H	1.414459	0.432231	-0.243389
H165	H	1.396505	-1.062942	-0.628014
H166	H	1.896505	-0.562942	-0.128014
H167	H	1.818051	-0.388940	-0.673271
H168	H	2.318051	0.111060	-0.173271
H169	H	1.189544	-0.105797	-1.275464
H170	H	1.689544	0.394203	-0.775464
H171	H	1.023673	-0.465706	-0.391032
H172	H	1.523673	0.034294	0.108968
H173	H	1.118419	-0.230247	-0.628220
H174	H	1.618419	0.269753	-0.128220
H175	H	1.396179	-0.542833	-0.627868
H176	H	1.896179	-0.042833	-0.127868
H177	H	1.696220	-0.315885	-0.772801
H178	H	2.196220	0.184115	-0.272801
H179	H	1.847243	-0.500372	-0.737808
H180	H	2.347243	-0.000372	-0.237808
H181	H	1.640355	-0.943665	-0.384373
H182	H	2.140355	-0.443665	0.115627
H183	H	1.640442	-1.062929	-0.384424
H184	H	2.140442	-0.562929	0.115576
H185	H	1.351912	-0.388756	-0.205975
H186	H	1.851912	0.111244	0.294025
H187	H	1.287206	-0.500184	-0.176363
H188	H	1.787206	-0.000184	0.323637
H189	H	1.396525	-0.230060	-0.907141
H190	H	1.896525	0.269940	-0.407141
H191	H	1.403966	-0.140506	-1.011800
H192	H	1.903966	0.359494	-0.511800
H193	H	1.282173	-0.067433	-1.111366
H194	H	1.782173	0.432567	-0.611366
H195	H	1.396255	-0.662104	-0.627890
H196	H	1.896255	-0.162104	-0.127890
H197	H	1.218699	-0.217235	-1.339997
H198	H	1.718699	0.282765	-0.839997
H199	H	1.640098	-0.542826	-0.384254
H200	H	2.140098	-0.042826	0.115746
H201	H	1.340466	-0.290305	-1.240435
H202	H	1.840466	0.209695	-0.740435
H203	H	1.640210	-0.376121	-1.106139
H204	H	2.140210	0.123879	-0.606139
H205	H	1.123095	-0.538661	-0.268898
H206	H	1.623095	-0.038661	0.231102
H207	H	1.632826	-0.465673	-1.001485
H208	H	2.132826	0.034327	-0.501485
H209	H	1.754625	-0.538738	-0.901920
H210	H	2.254625	-0.038738	-0.401920
H211	H	0.785046	-0.290619	-0.684144
H212	H	1.285046	0.209381	-0.184144
H213	H	1.252482	-0.315800	-0.328066
H214	H	1.752482	0.184200	0.171934
H215	H	0.750334	-0.106248	-0.835914
H216	H	1.250334	0.393752	-0.335914
H217	H	0.685635	-0.217673	-0.806281
H218	H	1.185635	0.282327	-0.306281
