data_functionalizedCrystal
_audit_creation_method	'MofGen! by Chris Wilmer'
_symmetry_space_group_name_H-M	'P1'
_symmetry_Int_Tables_number	1
_symmetry_cell_setting	triclinic
loop_
_symmetry_equiv_pos_as_xyz
  x,y,z
_cell_length_a	21.295417
_cell_length_b	10.686154
_cell_length_c	10.685880
_cell_angle_alpha	90.360073
_cell_angle_beta	94.332822
_cell_angle_gamma	85.590079
loop_
_atom_site_label
_atom_site_type_symbol
_atom_site_fract_x
_atom_site_fract_y
_atom_site_fract_z
Zn1	Zn	-0.196553	-1.972150	-0.562391
Zn2	Zn	0.303447	-1.472150	-0.062391
Zn3	Zn	-0.294441	-1.955878	-0.352615
Zn4	Zn	0.205559	-1.455878	0.147385
Zn5	Zn	-0.197831	-1.746278	-0.368706
Zn6	Zn	0.302169	-1.246278	0.131294
Zn7	Zn	-0.310436	-1.762286	-0.578377
Zn8	Zn	0.189564	-1.262286	-0.078377
O9	O	-0.249815	-1.859148	-0.465522
O10	O	0.250185	-1.359148	0.034478
O11	O	-0.202310	-2.145539	-0.521139
O12	O	0.297690	-1.645539	-0.021139
O13	O	-0.275465	-1.914565	-0.179209
O14	O	0.224535	-1.414565	0.320791
O15	O	-0.109569	-1.776352	-0.394442
O16	O	0.390431	-1.276352	0.105558
O17	O	-0.274227	-2.133584	-0.367018
O18	O	0.225773	-1.633584	0.132982
O19	O	-0.108631	-1.942299	-0.536742
O20	O	0.391369	-1.442299	-0.036742
O21	O	-0.204486	-1.760573	-0.191031
O22	O	0.295514	-1.260573	0.308969
O23	O	-0.219997	-1.572855	-0.409943
O24	O	0.280003	-1.072855	0.090057
O25	O	-0.301489	-1.803634	-0.751796
O26	O	0.198511	-1.303634	-0.251796
O27	O	-0.302728	-1.584615	-0.563988
O28	O	0.197272	-1.084615	-0.063988
O29	O	-0.217820	-1.957820	-0.740051
O30	O	0.282180	-1.457820	-0.240051
O31	O	-0.384655	-1.930087	-0.382519
O32	O	0.115345	-1.430087	0.117481
O33	O	-0.396406	-1.787855	-0.548385
O34	O	0.103594	-1.287855	-0.048385
C35	C	-0.263237	-1.533218	-0.490447
C36	C	0.236763	-1.033218	0.009553
C37	C	-0.268995	-1.393785	-0.501140
C38	C	0.231005	-0.893785	-0.001140
C39	C	-0.413371	-1.858978	-0.465465
C40	C	0.086629	-1.358978	0.034535
C41	C	-0.483338	-1.859024	-0.465474
C42	C	0.016662	-1.359024	0.034526
C43	C	-0.510064	-1.933161	-0.379184
C44	C	-0.010064	-1.433161	0.120816
C45	C	-0.575806	-1.933222	-0.379208
C46	C	-0.075806	-1.433222	0.120792
C47	C	-0.614818	-1.859122	-0.465510
C48	C	-0.114818	-1.359122	0.034490
C49	C	-0.588084	-1.784980	-0.551816
C50	C	-0.088084	-1.284980	-0.051816
C51	C	-0.522344	-1.784931	-0.551798
C52	C	-0.022344	-1.284931	-0.051798
N53	N	-0.722944	-1.750116	-0.483465
N54	N	-0.222944	-1.250116	0.016535
N55	N	-0.785394	-1.750166	-0.483475
N56	N	-0.285394	-1.250166	0.016525
C57	C	-0.812889	-1.859268	-0.465571
C58	C	-0.312889	-1.359268	0.034429
N59	N	-0.775575	-1.968320	-0.447633
N60	N	-0.275575	-1.468320	0.052367
N61	N	-0.713119	-1.968268	-0.447617
N62	N	-0.213119	-1.468268	0.052383
C63	C	-0.686103	-1.859168	-0.465540
C64	C	-0.186103	-1.359168	0.034460
C65	C	-0.910899	-1.933478	-0.379302
C66	C	-0.410899	-1.433478	0.120698
C67	C	-0.976642	-1.933542	-0.379335
C68	C	-0.476642	-1.433542	0.120665
C69	C	-0.988920	-1.785288	-0.551937
C70	C	-0.488920	-1.285288	-0.051937
C71	C	-0.923178	-1.785236	-0.551910
C72	C	-0.423178	-1.285236	-0.051910
C73	C	-0.884172	-1.859329	-0.465586
C74	C	-0.384172	-1.359329	0.034414
C75	C	-0.085620	-1.859355	-0.465604
C76	C	0.414380	-1.359355	0.034396
C77	C	-0.015650	-1.859443	-0.465639
C78	C	0.484350	-1.359443	0.034361
C79	C	-0.261296	-1.884328	-0.792712
C80	C	0.238704	-1.384328	-0.292712
C81	C	-0.266189	-1.895058	-0.932141
C82	C	0.233811	-1.395058	-0.432141
C83	C	-0.236335	-1.186351	-0.440492
C84	C	0.263665	-0.686351	0.059508
C85	C	-0.230575	-1.325783	-0.429805
C86	C	0.269425	-0.825783	0.070195
C87	C	-0.238330	-1.834138	-0.139599
C88	C	0.261670	-1.334138	0.360401
C89	C	-0.233251	-1.823651	-0.000153
C90	C	0.266749	-1.323651	0.499847
H91	H	-0.193276	-1.374234	-0.360552
H92	H	0.306724	-0.874234	0.139448
Cl93	Cl	-0.609413	-2.026428	-0.270719
Cl94	Cl	-0.109413	-1.526428	0.229281
H95	H	-0.201309	-1.754298	-0.951714
H96	H	0.298691	-1.254298	-0.451714
Cl97	Cl	-0.315515	-2.002130	-1.006928
Cl98	Cl	0.184485	-1.502130	-0.506928
H99	H	-0.500584	-1.724558	-0.622067
H100	H	-0.000584	-1.224558	-0.122067
Cl101	Cl	-0.461031	-2.026326	-0.270680
Cl102	Cl	0.038969	-1.526326	0.229320
Cl103	Cl	-0.637128	-1.691832	-0.660315
Cl104	Cl	-0.137128	-1.191832	-0.160315
Cl105	Cl	-0.326592	-1.318981	-0.608058
Cl106	Cl	0.173408	-0.818981	-0.108058
H107	H	-0.879139	-1.993813	-0.309016
H108	H	-0.379139	-1.493813	0.190984
Cl109	Cl	-1.010241	-2.026762	-0.270854
Cl110	Cl	-0.510241	-1.526762	0.229146
Cl111	Cl	-0.889577	-1.692023	-0.660390
Cl112	Cl	-0.389577	-1.192023	-0.160390
Cl113	Cl	-1.037958	-1.692142	-0.660440
Cl114	Cl	-0.537958	-1.192142	-0.160440
