data_functionalizedCrystal
_audit_creation_method	'MofGen! by Chris Wilmer'
_symmetry_space_group_name_H-M	'P1'
_symmetry_Int_Tables_number	1
_symmetry_cell_setting	triclinic
loop_
_symmetry_equiv_pos_as_xyz
  x,y,z
_cell_length_a	12.827893
_cell_length_b	8.497374
_cell_length_c	8.497374
_cell_angle_alpha	90.005237
_cell_angle_beta	89.996509
_cell_angle_gamma	89.999112
loop_
_atom_site_label
_atom_site_type_symbol
_atom_site_fract_x
_atom_site_fract_y
_atom_site_fract_z
Zn1	Zn	-1.597591	0.628413	0.892181
Zn2	Zn	-1.097591	1.128413	1.392181
Zn3	Zn	-1.597583	0.892159	0.628446
Zn4	Zn	-1.097583	1.392159	1.128446
Zn5	Zn	-1.422886	0.628377	0.628400
Zn6	Zn	-0.922886	1.128377	1.128400
Zn7	Zn	-1.422861	0.892136	0.892170
Zn8	Zn	-0.922861	1.392136	1.392170
O9	O	-1.510230	0.760271	0.760299
O10	O	-1.010230	1.260271	1.260299
O11	O	-1.743826	0.663424	0.857220
O12	O	-1.243826	1.163424	1.357220
O13	O	-1.574416	0.857162	0.407678
O14	O	-1.074416	1.357162	0.907678
O15	O	-1.446075	0.407620	0.663376
O16	O	-0.946075	0.907620	1.163376
O17	O	-1.743820	0.857197	0.663455
O18	O	-1.243820	1.357197	1.163455
O19	O	-1.574430	0.407646	0.857175
O20	O	-1.074430	0.907646	1.357175
O21	O	-1.446067	0.663363	0.407644
O22	O	-0.946067	1.163363	0.907644
O23	O	-1.276647	0.663341	0.663365
O24	O	-0.776647	1.163341	1.163365
O25	O	-1.446032	0.857158	1.112933
O26	O	-0.946032	1.357158	1.612933
O27	O	-1.276629	0.857123	0.857156
O28	O	-0.776629	1.357123	1.357156
O29	O	-1.574406	0.663402	1.112942
O30	O	-1.074406	1.163402	1.612942
O31	O	-1.574391	1.112918	0.663445
O32	O	-1.074391	1.612918	1.163445
O33	O	-1.446024	1.112901	0.857201
O34	O	-0.946024	1.612901	1.357201
C35	C	-1.238720	0.760227	0.760255
C36	C	-0.738720	1.260227	1.260255
C37	C	-1.122567	0.760246	0.760274
C38	C	-0.622567	1.260246	1.260274
C39	C	-1.070801	0.856282	0.856017
C40	C	-0.570801	1.356282	1.356017
C41	C	-0.950751	0.856304	0.856039
C42	C	-0.450751	1.356304	1.356039
C43	C	-1.510217	1.170151	0.760322
C44	C	-1.010217	1.670151	1.260322
C45	C	-1.510245	1.348795	0.760296
C46	C	-1.010245	1.848795	1.260296
C47	C	-0.782800	0.760304	0.760331
C48	C	-0.282800	1.260304	1.260331
C49	C	-0.898953	0.760285	0.760313
C50	C	-0.398953	1.260285	1.260313
C51	C	-1.510222	0.760273	1.171779
C52	C	-1.010222	1.260273	1.671779
C53	C	-1.510225	0.760290	1.350423
C54	C	-1.010225	1.260290	1.850423
H55	H	-1.115359	0.938481	0.937976
H56	H	-0.615359	1.438481	1.437976
Cl57	Cl	-0.882025	0.983262	0.982592
Cl58	Cl	-0.382025	1.483262	1.482592
H59	H	-0.943465	0.678066	0.678333
H60	H	-0.443465	1.178066	1.178333
Cl61	Cl	-1.053782	0.633313	0.633746
Cl62	Cl	-0.553782	1.133313	1.133746
