data_functionalizedCrystal
_audit_creation_method	'MofGen! by Chris Wilmer'
_symmetry_space_group_name_H-M	'P1'
_symmetry_Int_Tables_number	1
_symmetry_cell_setting	triclinic
loop_
_symmetry_equiv_pos_as_xyz
  x,y,z
_cell_length_a	13.635800
_cell_length_b	27.923497
_cell_length_c	27.924317
_cell_angle_alpha	82.391080
_cell_angle_beta	98.979858
_cell_angle_gamma	81.035752
loop_
_atom_site_label
_atom_site_type_symbol
_atom_site_fract_x
_atom_site_fract_y
_atom_site_fract_z
V1	V	1.977267	-0.067878	0.151603
O2	O	1.983135	0.002491	0.148388
O3	O	1.942286	-0.133850	0.150882
O4	O	1.942329	-0.067172	0.217578
O5	O	1.983091	-0.064648	0.081231
V6	V	2.221869	-0.059421	0.143147
O7	O	2.101664	-0.086429	0.170150
O8	O	2.322571	-0.040870	0.124599
O9	O	2.145248	0.006550	0.143868
O10	O	2.274700	-0.129790	0.146362
O11	O	2.274743	-0.062652	0.213519
O12	O	2.145204	-0.060127	0.077172
V13	V	2.477267	-0.067878	0.151603
O14	O	2.483135	0.002491	0.148388
O15	O	2.442286	-0.133850	0.150882
O16	O	2.442329	-0.067172	0.217578
O17	O	2.483091	-0.064648	0.081231
V18	V	2.721869	-0.059421	0.143147
O19	O	2.601664	-0.086429	0.170150
O20	O	2.822571	-0.040870	0.124599
O21	O	2.645248	0.006550	0.143868
O22	O	2.774700	-0.129790	0.146362
O23	O	2.774743	-0.062652	0.213519
O24	O	2.645204	-0.060127	0.077172
C25	C	1.862511	-0.149922	0.148572
C26	C	1.874481	-0.203856	0.148423
C27	C	1.937168	-0.531154	0.102977
C28	C	1.982195	-0.733858	0.102390
O29	O	1.978168	-0.753991	0.064498
N30	N	1.999452	-0.766352	0.146784
C31	C	2.005459	-0.748167	0.191328
O32	O	2.021181	-0.780457	0.229075
C33	C	1.960440	-0.545464	0.191915
C34	C	1.943172	-0.512972	0.147518
C35	C	1.919902	-0.498662	0.058584
C36	C	1.908641	-0.447989	0.058731
C37	C	1.914645	-0.429807	0.103272
C38	C	1.931911	-0.462299	0.147665
C39	C	1.966454	-0.527280	0.236459
C40	C	1.955200	-0.476601	0.236602
C41	C	1.937932	-0.444109	0.192205
C42	C	1.926653	-0.393444	0.192353
N43	N	1.909396	-0.360950	0.147959
C44	C	1.903392	-0.379132	0.103419
C45	C	2.029093	-0.854589	0.191016
C46	C	2.040346	-0.905265	0.190870
C47	C	2.017082	-0.890952	0.101931
C48	C	2.005822	-0.840275	0.102078
C49	C	2.011835	-0.822095	0.146622
C50	C	1.879742	-0.272715	0.103731
C51	C	1.868477	-0.222038	0.103882
C52	C	1.891747	-0.236355	0.192820
C53	C	1.903006	-0.287028	0.192669
C54	C	1.897006	-0.305206	0.148121
O55	O	1.930679	-0.373277	0.230225
O56	O	1.887692	-0.346835	0.065678
C57	C	1.948429	-0.581827	0.102830
C58	C	1.965695	-0.614318	0.147224
C59	C	1.971699	-0.596136	0.191764
C60	C	1.976948	-0.664994	0.147077
C61	C	1.970944	-0.683176	0.102536
C62	C	1.953686	-0.650682	0.058142
C63	C	1.942425	-0.600009	0.058289
C64	C	1.988956	-0.628630	0.236158
C65	C	2.000216	-0.679303	0.236007
C66	C	1.994211	-0.697485	0.191467
C67	C	1.862565	-0.064867	0.233648
C68	C	1.874570	-0.064727	0.287585
C69	C	2.056693	0.022619	0.146176
C70	C	2.034341	0.076554	0.146329
C71	C	2.056639	-0.062434	0.061099
C72	C	2.034254	-0.062572	0.007162
C73	C	2.362511	-0.149922	0.148572
C74	C	2.374481	-0.203856	0.148423
C75	C	1.971631	-0.108045	0.679873
C76	C	1.926654	-0.108650	0.477173
O77	O	1.930672	-0.146543	0.457043
N78	N	1.909421	-0.064259	0.444676
C79	C	1.903425	-0.019713	0.462858
O80	O	1.887725	0.018031	0.430566
C81	C	1.948396	-0.019108	0.665557
C82	C	1.965639	-0.063503	0.698052
C83	C	1.988873	-0.152436	0.712367
C84	C	2.000121	-0.152284	0.763039
C85	C	1.994129	-0.107742	0.781218
C86	C	1.976888	-0.063351	0.748724
C87	C	1.942393	0.025437	0.683738
C88	C	1.953635	0.025584	0.734416
C89	C	1.970878	-0.018810	0.766911
C90	C	1.982144	-0.018657	0.817575
N91	N	1.999378	-0.063049	0.850071
C92	C	2.005370	-0.107591	0.831892
C93	C	1.879818	-0.020033	0.356438
C94	C	1.868578	-0.020184	0.305763
C95	C	1.891805	-0.109122	0.320082
C96	C	1.903053	-0.108970	0.370758
C97	C	1.897051	-0.064425	0.388934
C98	C	2.028993	-0.107269	0.938307
C99	C	2.040246	-0.107114	0.988983
C100	C	2.017013	-0.018177	0.974661
C101	C	2.005766	-0.018332	0.923989
C102	C	2.011754	-0.062882	0.905814
O103	O	1.978128	0.019216	0.837738
O104	O	2.021048	-0.145329	0.864191
C105	C	1.960382	-0.108197	0.629201
C106	C	1.943141	-0.063806	0.596707
C107	C	1.937149	-0.019263	0.614886
C108	C	1.931900	-0.063957	0.546033
C109	C	1.937893	-0.108499	0.527854
C110	C	1.955126	-0.152890	0.560351
C111	C	1.966375	-0.152739	0.611023
C112	C	1.919916	0.025128	0.582390
C113	C	1.908669	0.024973	0.531718
C114	C	1.914661	-0.019570	0.513539
C115	C	2.368477	-0.222038	0.103882
C116	C	2.379737	-0.272715	0.103735
C117	C	2.396994	-0.305208	0.148129
C118	C	2.403002	-0.287024	0.192673
C119	C	2.391749	-0.236348	0.192820
C120	C	2.362565	-0.064867	0.233648
C121	C	2.374570	-0.064727	0.287585
C122	C	2.556693	0.022619	0.146176
C123	C	2.534341	0.076554	0.146329
C124	C	2.556639	-0.062434	0.061099
C125	C	2.534254	-0.062572	0.007162
C126	C	2.470462	-0.067092	0.315399
C127	C	2.481754	-0.066954	0.366078
C128	C	2.397153	-0.064453	0.388942
C129	C	2.301253	-0.062086	0.361124
C130	C	2.289961	-0.062221	0.310446
C131	C	2.610957	0.104368	0.143964
C132	C	2.589965	0.155046	0.144100
C133	C	2.492358	0.177909	0.146603
C134	C	2.415737	0.150092	0.148966
C135	C	2.436728	0.099415	0.148828
C136	C	2.436624	-0.065067	-0.015690
C137	C	2.415574	-0.065191	-0.066370
C138	C	2.492158	-0.062823	-0.094198
C139	C	2.589796	-0.060327	-0.071343
C140	C	2.610843	-0.060199	-0.020664
H141	H	1.854413	-0.195584	0.067727
Br142	Br	2.283063	-0.068582	-0.097376
H143	H	2.336265	0.168715	0.151004
Br144	Br	2.463887	0.246687	0.146790
Br145	Br	1.963263	-0.213340	0.535670
Br146	Br	2.345055	-0.177950	0.043626
H147	H	1.894636	0.061126	0.505264
H148	H	2.406155	-0.346471	0.148003
H149	H	2.374335	0.076771	0.150757
H150	H	2.539360	-0.069129	0.296790
H151	H	2.374252	-0.066994	0.006961
H152	H	1.928354	0.061588	0.657289
H153	H	2.396636	-0.221549	0.229091
Br154	Br	2.463578	-0.062998	-0.162977
Br155	Br	2.186448	-0.058700	0.392163
Br156	Br	2.426421	-0.331129	0.252918
Br157	Br	2.037252	-0.829924	0.251475
H158	H	1.917050	-0.313484	0.228821
H159	H	2.559849	-0.068883	0.388721
H160	H	1.917090	-0.145120	0.397212
H161	H	2.652145	-0.058398	-0.094007
Br162	Br	2.743355	-0.056820	0.010344
Br163	Br	1.997107	-0.603964	0.296613
H164	H	1.948752	0.061860	0.749213
H165	H	1.874855	-0.287509	0.067455
H166	H	1.980514	-0.553727	0.272612
H167	H	1.894588	-0.421538	0.022578
Br168	Br	1.982388	-0.796184	0.041823
H169	H	2.054389	-0.931715	0.227022
H170	H	1.915014	-0.513460	0.022312
H171	H	2.652367	0.177688	0.142176
Br172	Br	1.918990	-0.555920	-0.001967
H173	H	2.406362	-0.064344	0.430208
H174	H	1.960109	-0.461802	0.272876
Br175	Br	2.008934	-0.915637	0.041483
H176	H	2.690440	0.085759	0.141926
Br177	Br	1.945533	-0.675367	-0.002306
Br178	Br	1.899882	-0.211669	0.253265
Br179	Br	2.159811	-0.059017	0.272705
H180	H	2.014268	-0.705755	0.272164
H181	H	2.374839	-0.287512	0.067461
H182	H	2.054289	-0.143267	1.015439
H183	H	2.033868	-0.143546	0.923516
H184	H	1.993751	-0.188709	0.697573
Br185	Br	2.023515	-0.212537	0.807131
H186	H	1.896683	-0.145390	0.305273
Br187	Br	1.845186	0.040067	0.261670
H188	H	1.874926	0.016243	0.371232
Br189	Br	1.982446	0.041915	0.879890
Br190	Br	2.008882	0.042270	0.999341
H191	H	1.915029	0.061400	0.597184
Br192	Br	1.989776	-0.212992	0.655115
