data_functionalizedCrystal
_audit_creation_method	'MofGen! by Chris Wilmer'
_symmetry_space_group_name_H-M	'P1'
_symmetry_Int_Tables_number	1
_symmetry_cell_setting	triclinic
loop_
_symmetry_equiv_pos_as_xyz
  x,y,z
_cell_length_a	13.339070
_cell_length_b	14.971486
_cell_length_c	13.448316
_cell_angle_alpha	90.001801
_cell_angle_beta	89.996829
_cell_angle_gamma	80.378288
loop_
_atom_site_label
_atom_site_type_symbol
_atom_site_fract_x
_atom_site_fract_y
_atom_site_fract_z
O1	O	0.131873	-1.219550	-0.082571
O2	O	0.147665	-0.963055	-0.082597
O3	O	-0.007530	-1.061865	-0.082584
O4	O	0.287068	-1.120740	-0.082584
O5	O	-0.007540	-1.061845	0.082800
O6	O	0.147656	-0.963035	0.082787
O7	O	0.131864	-1.219531	0.082813
Cu8	Cu	0.139759	-1.091281	0.097901
Cu9	Cu	0.139770	-1.091304	-0.097685
O10	O	0.287059	-1.120720	0.082800
C11	C	0.146954	-0.929545	0.000091
C12	C	0.144838	-0.829725	0.000081
C13	C	-0.045236	-1.051910	0.000105
C14	C	-0.157574	-1.022266	0.000098
N15	N	0.139750	-1.091271	0.235465
C16	C	-0.522088	-1.252762	0.000122
C17	C	-0.416541	-1.280617	0.000135
C18	C	-0.351794	-1.216032	0.000125
C19	C	-0.392604	-1.123587	0.000104
C20	C	-0.498161	-1.095729	0.000100
C21	C	-0.327867	-1.058999	0.000103
C22	C	-0.368677	-0.966554	0.000082
C23	C	-0.474224	-0.938701	0.000077
C24	C	-0.538970	-1.003286	0.000086
C25	C	-0.222311	-1.086856	0.000107
C26	C	-0.198384	-0.929823	0.000084
C27	C	-0.303930	-0.901968	0.000072
C28	C	0.324765	-1.130675	0.000108
C29	C	0.437102	-1.160319	0.000109
C30	C	0.132575	-1.253040	0.000122
C31	C	0.134691	-1.352860	0.000126
C32	C	0.236011	-0.795041	0.000082
C33	C	0.234016	-0.701248	0.000097
C34	C	0.140847	-0.642141	0.000103
C35	C	0.049667	-0.676832	0.000105
C36	C	0.051663	-0.770623	0.000097
C37	C	0.045514	-0.481342	0.000119
C38	C	0.043518	-0.387545	0.000125
C39	C	0.227867	-0.411968	0.000119
C40	C	0.229863	-0.505759	0.000111
C41	C	0.138682	-0.540442	0.000111
N42	N	0.139771	-1.091319	-0.235249
C43	C	0.071058	-1.135050	0.287511
C44	C	0.071057	-1.135056	0.391614
C45	C	0.139754	-1.091287	0.443669
C46	C	0.208449	-1.047502	0.391616
C47	C	0.208445	-1.047492	0.287515
C48	C	0.208456	-1.047529	0.608596
C49	C	0.208463	-1.047540	0.712705
C50	C	0.071069	-1.135093	0.712696
C51	C	0.071064	-1.135082	0.608594
C52	C	0.139761	-1.091299	0.556548
H53	H	-0.189094	-1.162125	0.000124
H54	H	-0.022579	-0.798860	0.000096
F55	F	-0.002056	-1.181641	0.232120
F56	F	-0.591000	-1.321488	0.000148
H57	H	0.015122	-1.170703	0.433990
F58	F	-0.651308	-0.973644	-0.000021
F59	F	-0.002044	-1.181672	0.553193
F60	F	0.281578	-1.000953	0.768098
H61	H	-0.265854	-1.238717	0.000135
H62	H	-0.337172	-0.826698	0.000056
F63	F	-0.517653	-0.840312	0.000067
F64	F	0.329023	-0.568663	0.000094
H65	H	0.015133	-1.170742	0.755078
H66	H	-0.383322	-1.355886	0.000153
H67	H	-0.145666	-0.877232	0.000082
H68	H	0.311879	-0.843160	0.000077
F69	F	0.281570	-1.000925	0.553209
H70	H	0.264381	-1.011859	0.434005
F71	F	-0.049490	-0.613924	0.000118
F72	F	0.331055	-0.664339	0.000094
F73	F	-0.055642	-0.324641	0.000157
F74	F	0.324909	-0.375054	0.000121
F75	F	-0.051531	-0.518253	0.000122
H76	H	0.264379	-1.011841	0.245140
