data_functionalizedCrystal
_audit_creation_method	'MofGen! by Chris Wilmer'
_symmetry_space_group_name_H-M	'P1'
_symmetry_Int_Tables_number	1
_symmetry_cell_setting	triclinic
loop_
_symmetry_equiv_pos_as_xyz
  x,y,z
_cell_length_a	14.395555
_cell_length_b	14.395555
_cell_length_c	14.395555
_cell_angle_alpha	90.002465
_cell_angle_beta	60.001260
_cell_angle_gamma	59.997670
loop_
_atom_site_label
_atom_site_type_symbol
_atom_site_fract_x
_atom_site_fract_y
_atom_site_fract_z
Zr1	Zr	1.016757	-0.121876	0.894940
O2	O	1.210566	-0.270217	0.746611
O3	O	0.822957	-0.076399	0.940407
O4	O	1.016762	-0.270204	0.940407
O5	O	1.016755	0.076461	0.746617
O6	O	1.016755	-0.270196	1.093281
O7	O	1.016762	-0.076413	0.746612
O8	O	0.670074	0.076485	1.093282
O9	O	1.363436	-0.270220	0.746615
O10	O	0.902661	-0.057001	1.073892
O11	O	0.902661	0.057082	0.959807
O12	O	1.130841	-0.171098	0.959806
O13	O	1.130841	-0.057016	0.845722
Zr14	Zr	1.016735	0.121953	1.138766
Zr15	Zr	1.016746	-0.121863	1.138757
Zr16	Zr	1.016746	0.121941	0.894949
Zr17	Zr	1.260566	-0.121880	0.894948
Zr18	Zr	0.772926	0.121957	1.138758
O19	O	1.210535	0.076477	1.093299
O20	O	1.210551	-0.270199	1.093286
O21	O	1.210551	0.076458	0.746623
O22	O	0.822926	0.270295	1.287095
O23	O	0.822941	-0.076381	1.287083
O24	O	0.822941	0.270276	0.940420
O25	O	1.016737	-0.076384	1.287089
O26	O	1.016730	0.270281	1.093300
O27	O	1.016737	0.270273	0.940425
O28	O	1.016730	0.076490	1.287094
O29	O	1.363427	-0.270209	0.940417
O30	O	0.670065	0.270287	1.093289
O31	O	0.670056	0.270297	1.287091
O32	O	0.670065	0.076495	1.287084
O33	O	1.363427	-0.076418	0.746622
O34	O	1.363418	-0.076408	0.940424
O35	O	0.902651	0.171176	1.073900
O36	O	0.902651	0.057094	1.187984
O37	O	1.130831	-0.057004	1.073899
O38	O	1.130831	0.057078	0.959814
C39	C	0.711778	0.000043	1.016844
C40	C	0.608274	0.000045	1.016841
C41	C	1.016760	0.000023	0.711876
C42	C	1.016764	0.000017	0.608369
C43	C	1.016732	0.305016	1.016864
C44	C	1.016728	0.408523	1.016867
C45	C	0.547682	0.062251	0.954641
C46	C	0.561945	-0.045031	0.909554
C47	C	0.409615	0.107294	1.061899
C48	C	0.623964	-0.107300	0.971692
C49	C	0.471571	0.045102	1.124097
C50	C	0.485881	-0.062244	1.079037
C51	C	1.321714	0.000034	1.016862
C52	C	1.425218	0.000033	1.016865
C53	C	1.016760	-0.304939	1.016842
C54	C	1.016764	-0.408445	1.016839
C55	C	0.892314	0.531323	1.079067
C56	C	0.954505	0.562152	1.124151
C57	C	0.954541	0.562116	0.971807
C58	C	1.078920	0.437988	1.062014
C59	C	1.078938	0.437956	0.909610
C60	C	1.141220	0.468712	0.954668
C61	C	1.141178	-0.062184	0.485576
C62	C	1.078987	-0.107260	0.454737
C63	C	1.078951	0.045084	0.454785
C64	C	0.954572	-0.045121	0.578894
C65	C	0.954554	0.107282	0.578938
C66	C	0.892272	0.062233	0.548173
C67	C	1.016732	0.000055	1.321830
C68	C	1.016728	0.000060	1.425337
C69	C	0.711764	0.000060	1.321821
C70	C	0.608256	0.000067	1.425325
C71	C	0.711764	0.305021	1.016855
C72	C	0.608256	0.408529	1.016855
C73	C	0.711750	0.305037	1.321832
C74	C	0.608238	0.408550	1.425339
C75	C	1.321742	-0.304959	0.711874
C76	C	1.425254	-0.408473	0.608367
C77	C	1.321728	0.000018	0.711885
C78	C	1.425236	0.000011	0.608381
C79	C	1.321728	-0.304943	1.016852
C80	C	1.425236	-0.408451	1.016851
C81	C	0.547691	0.062246	1.548120
C82	C	0.409580	0.107304	1.578978
C83	C	0.561992	-0.045042	1.578884
C84	C	0.471444	0.045188	1.454820
C85	C	0.623930	-0.107219	1.454728
C86	C	0.485828	-0.062187	1.485514
C87	C	0.547674	0.406912	0.954645
C88	C	0.409564	0.499942	1.061924
C89	C	0.561903	0.499939	0.909614
C90	C	0.471446	0.500195	1.124197
C91	C	0.623859	0.500178	0.971809
C92	C	0.485759	0.593225	1.079153
C93	C	0.547623	0.531346	1.423727
C94	C	0.409522	0.562148	1.516715
C95	C	0.561793	0.562185	1.516788
C96	C	0.471438	0.437988	1.516964
C97	C	0.623783	0.438029	1.517023
C98	C	0.485691	0.468757	1.610028
H99	H	0.599136	-0.083152	0.818859
C100	C	0.420879	0.096829	1.382786
H101	H	0.487354	0.096591	1.317041
H102	H	0.398994	0.052973	1.360380
H103	H	0.345099	0.172803	1.426499
C104	C	0.449327	-0.133263	1.450864
H105	H	0.416457	-0.101084	1.407572
H106	H	0.525104	-0.209112	1.406428
H107	H	0.383871	-0.133419	1.517227
C108	C	0.750203	0.565684	1.150219
H109	H	0.706199	0.608910	1.226415
H110	H	0.705575	0.610116	1.118966
H111	H	0.751170	0.499214	1.149189
H112	H	0.434104	0.384593	1.516113
H113	H	0.434399	0.083250	1.214772
C114	C	0.747775	-0.229696	1.382396
H115	H	0.780714	-0.261611	1.425711
H116	H	0.726239	-0.274221	1.360525
H117	H	0.812796	-0.228813	1.316332
H118	H	0.715536	-0.198048	0.933489
H119	H	0.318001	0.197999	1.099996
C120	C	0.449148	0.434118	1.717608
H121	H	0.416345	0.390781	1.718249
H122	H	0.524893	0.389729	1.717729
H123	H	0.383631	0.500489	1.783223
H124	H	0.574764	0.327147	0.902118
H125	H	1.246382	-0.114866	0.460134
C126	C	0.883575	0.229773	0.651246
H127	H	0.810054	0.248239	0.724311
H128	H	0.942314	0.235644	0.659123
H129	H	0.854551	0.281011	0.614915
C130	C	0.449470	-0.133410	1.150090
H131	H	0.524961	-0.209566	1.117918
H132	H	0.418020	-0.102058	1.225946
H133	H	0.382978	-0.132529	1.150216
C134	C	1.150020	-0.229775	0.382431
H135	H	1.238420	-0.273889	0.359403
H136	H	1.106688	-0.262205	0.426208
H137	H	1.148799	-0.228813	0.317055
C138	C	0.747578	0.365771	1.515733
H139	H	0.780450	0.409133	1.514759
H140	H	0.726017	0.343907	1.581795
H141	H	0.812661	0.299700	1.449824
H142	H	0.317913	0.615633	1.517618
C143	C	0.420934	0.499098	1.246785
H144	H	0.333655	0.564884	1.297953
H145	H	0.422054	0.432896	1.252916
H146	H	0.475925	0.498858	1.265117
C147	C	0.883477	0.634457	1.246662
H148	H	0.942664	0.641159	1.252936
H149	H	0.810924	0.707982	1.264625
H150	H	0.853037	0.598822	1.298009
C151	C	0.611991	0.634496	1.518053
H152	H	0.633093	0.657496	1.452668
H153	H	0.545659	0.699875	1.584644
H154	H	0.688214	0.590712	1.517600
H155	H	1.131462	0.384624	1.100215
C156	C	0.449249	0.700803	1.150317
H157	H	0.467067	0.744375	1.103433
H158	H	0.358463	0.744973	1.210947
H159	H	0.499718	0.679423	1.180460
C160	C	0.584241	0.565695	1.315974
H161	H	0.508839	0.608893	1.315170
H162	H	0.615655	0.610150	1.315802
H163	H	0.650808	0.499219	1.250468
C164	C	0.285769	0.229808	1.651306
H165	H	0.213608	0.236065	1.658019
H166	H	0.266849	0.247766	1.724823
H167	H	0.300468	0.281170	1.615678
H168	H	0.599232	-0.083156	1.632358
C169	C	1.283448	0.434061	0.883613
H170	H	1.327428	0.390747	0.915785
H171	H	1.327960	0.389644	0.807757
H172	H	1.282694	0.500427	0.883485
C173	C	0.883490	0.634393	0.920331
H174	H	0.795098	0.657403	0.964626
H175	H	0.884704	0.699767	0.920044
H176	H	0.926819	0.590586	0.844570
C177	C	0.584483	0.133201	0.883489
H178	H	0.617465	0.100999	0.807292
H179	H	0.508796	0.209086	0.914741
H180	H	0.649922	0.133264	0.884522
H181	H	1.131477	0.384442	0.818935
C182	C	0.747674	0.498846	0.920288
H183	H	0.780583	0.497843	0.844042
H184	H	0.726121	0.564912	0.963707
H185	H	0.812727	0.432936	0.921302
C186	C	0.883603	-0.096737	0.650960
H187	H	0.884090	-0.096475	0.716709
H188	H	0.795457	-0.052880	0.673359
H189	H	0.927504	-0.172718	0.607271
H190	H	0.786983	0.114841	0.573829
C191	C	0.285785	0.501212	1.113409
H192	H	0.307052	0.435838	1.069116
H193	H	0.253806	0.500763	1.189171
H194	H	0.220140	0.567813	1.113677
H195	H	1.131554	0.083181	0.401282
C196	C	0.584269	0.133420	1.582477
H197	H	0.508835	0.209610	1.625721
H198	H	0.615752	0.102160	1.626885
H199	H	0.650776	0.132415	1.516007
C200	C	0.612155	0.501159	0.787087
H201	H	0.633250	0.435771	0.742990
H202	H	0.545850	0.567752	0.788017
H203	H	0.688390	0.500681	0.754655
