data_functionalizedCrystal
_audit_creation_method	'MofGen! by Chris Wilmer'
_symmetry_space_group_name_H-M	'P1'
_symmetry_Int_Tables_number	1
_symmetry_cell_setting	triclinic
loop_
_symmetry_equiv_pos_as_xyz
  x,y,z
_cell_length_a	12.759395
_cell_length_b	12.759400
_cell_length_c	12.759393
_cell_angle_alpha	89.974659
_cell_angle_beta	89.980701
_cell_angle_gamma	90.004583
loop_
_atom_site_label
_atom_site_type_symbol
_atom_site_fract_x
_atom_site_fract_y
_atom_site_fract_z
Zn1	Zn	1.606341	-0.418161	-0.594049
Zn2	Zn	1.606271	-0.593880	-0.418389
Zn3	Zn	1.430643	-0.418220	-0.418386
Zn4	Zn	1.430667	-0.593803	-0.594028
O5	O	1.518481	-0.506016	-0.506213
O6	O	1.753353	-0.441478	-0.570758
O7	O	1.582934	-0.570635	-0.271367
O8	O	1.453969	-0.271192	-0.441697
O9	O	1.753302	-0.570578	-0.441700
O10	O	1.583054	-0.271148	-0.570755
O11	O	1.453901	-0.441579	-0.271365
O12	O	1.283625	-0.441505	-0.441675
O13	O	1.454010	-0.570447	-0.741052
O14	O	1.283643	-0.570505	-0.570718
O15	O	1.583077	-0.441404	-0.741068
O16	O	1.582958	-0.740891	-0.441679
O17	O	1.453943	-0.740835	-0.570720
C18	C	1.245513	-0.506003	-0.506195
C19	C	1.128737	-0.506023	-0.506212
C20	C	1.518474	-0.778984	-0.506221
C21	C	1.518567	-0.895760	-0.506259
C22	C	1.518554	-0.505910	-0.780246
C23	C	1.518586	-0.505865	-0.897023
C24	C	1.128794	-0.640568	-0.640367
C25	C	1.073962	-0.707849	-0.707448
C26	C	0.964240	-0.707862	-0.707460
C27	C	0.909348	-0.640584	-0.640388
C28	C	0.964180	-0.573304	-0.573307
C29	C	1.073904	-0.573300	-0.573299
C30	C	0.964123	-0.438755	-0.439159
C31	C	1.073845	-0.438746	-0.439139
C32	C	0.909231	-0.371477	-0.372087
C33	C	0.964063	-0.304200	-0.304999
C34	C	1.073791	-0.304191	-0.304988
C35	C	1.128677	-0.371465	-0.372059
C36	C	1.792514	-0.506030	-0.506232
C37	C	1.909291	-0.506036	-0.506240
C38	C	1.518516	-0.231983	-0.506228
C39	C	1.518531	-0.115206	-0.506235
C40	C	1.451337	-0.060365	-0.439044
C41	C	1.451352	0.049359	-0.439059
C42	C	1.585764	0.049391	-0.573457
C43	C	1.585744	-0.060331	-0.573447
C44	C	1.384125	-0.115241	-0.371832
C45	C	1.316926	-0.060399	-0.304635
C46	C	1.316941	0.049325	-0.304649
C47	C	1.384154	0.104208	-0.371861
C48	C	1.585800	-0.438666	-0.951895
C49	C	1.585825	-0.438628	-1.061619
C50	C	1.451418	-0.572998	-1.061590
C51	C	1.451389	-0.573029	-0.951867
C52	C	1.652997	-0.371501	-0.897051
C53	C	1.720217	-0.304297	-0.951923
C54	C	1.720242	-0.304259	-1.061647
C55	C	1.653047	-0.371425	-1.116499
C56	C	1.518468	-0.506046	-0.233246
C57	C	1.518640	-0.505795	-0.116469
H58	H	1.218135	-0.640572	-0.640356
H59	H	1.652986	-0.371527	-0.807708
C60	C	1.659703	0.109767	-0.647375
N61	N	1.715399	0.155241	-0.703048
C62	C	1.384164	0.224908	-0.371875
N63	N	1.384175	0.315818	-0.371880
H64	H	1.396641	-0.627733	-0.907190
H65	H	0.919362	-0.249424	-0.250399
H66	H	1.262196	-0.105092	-0.249921
C67	C	1.134098	-0.230175	-0.231193
N68	N	1.179517	-0.174426	-0.175607
H69	H	1.384107	-0.204583	-0.371810
C70	C	1.134351	-0.781855	-0.781220
N71	N	1.179833	-0.837598	-0.836784
C72	C	1.659662	-0.120660	-0.647359
N73	N	1.715337	-0.166099	-0.703034
H74	H	1.262218	0.093975	-0.249943
C75	C	1.794181	-0.230331	-1.122003
N76	N	1.849879	-0.174649	-1.167462
C77	C	0.903923	-0.781874	-0.781251
N78	N	0.858493	-0.837622	-0.836829
C79	C	1.794123	-0.230414	-0.891584
N80	N	1.849791	-0.174763	-0.846138
C81	C	1.653073	-0.371374	-1.237200
N82	N	1.653097	-0.371338	-1.328110
H83	H	0.820007	-0.640592	-0.640413
C84	C	1.249374	-0.371468	-0.372046
N85	N	1.340284	-0.371473	-0.372041
C86	C	1.377510	-0.646876	-1.121931
N87	N	1.321842	-0.702525	-1.167380
H88	H	0.819890	-0.371488	-0.372106
