data_functionalizedCrystal
_audit_creation_method	'MofGen! by Chris Wilmer'
_symmetry_space_group_name_H-M	'P1'
_symmetry_Int_Tables_number	1
_symmetry_cell_setting	triclinic
loop_
_symmetry_equiv_pos_as_xyz
  x,y,z
_cell_length_a	16.120297
_cell_length_b	10.685972
_cell_length_c	10.685194
_cell_angle_alpha	98.378795
_cell_angle_beta	91.720017
_cell_angle_gamma	91.721091
loop_
_atom_site_label
_atom_site_type_symbol
_atom_site_fract_x
_atom_site_fract_y
_atom_site_fract_z
Zn1	Zn	-0.545205	-1.856615	0.402082
Zn2	Zn	-0.045205	-1.356615	0.902082
Zn3	Zn	-0.395475	-1.852690	0.601927
Zn4	Zn	0.104525	-1.352690	1.101927
Zn5	Zn	-0.395477	-1.656789	0.405929
Zn6	Zn	0.104523	-1.156789	0.905929
Zn7	Zn	-0.522191	-1.629999	0.628643
Zn8	Zn	-0.022191	-1.129999	1.128643
O9	O	-0.464587	-1.749023	0.509645
O10	O	0.035413	-1.249023	1.009645
O11	O	-0.534974	-2.032919	0.415801
O12	O	-0.034974	-1.532919	0.915801
O13	O	-0.279782	-1.836273	0.566356
O14	O	0.220218	-1.336273	1.066356
O15	O	-0.424972	-1.696150	0.228577
O16	O	0.075028	-1.196150	0.728577
O17	O	-0.424967	-2.030036	0.562626
O18	O	0.075033	-1.530036	1.062626
O19	O	-0.534976	-1.842961	0.225751
O20	O	-0.034976	-1.342961	0.725751
O21	O	-0.279784	-1.692345	0.422358
O22	O	0.220216	-1.192345	0.922358
O23	O	-0.402655	-1.476411	0.448264
O24	O	0.097345	-0.976411	0.948264
O25	O	-0.640936	-1.650491	0.608160
O26	O	-0.140936	-1.150491	1.108160
O27	O	-0.495751	-1.456728	0.611891
O28	O	0.004249	-0.956728	1.111891
O29	O	-0.657845	-1.816984	0.441707
O30	O	-0.157845	-1.316984	0.941707
O31	O	-0.402651	-1.810296	0.782313
O32	O	0.097349	-1.310296	1.282313
O33	O	-0.495749	-1.646686	0.801941
O34	O	0.004251	-1.146686	1.301941
C35	C	-0.446707	-1.420721	0.533395
C36	C	0.053293	-0.920721	1.033395
C37	C	-0.439075	-1.280267	0.543587
C38	C	0.060925	-0.780267	1.043587
C39	C	-0.680227	-1.731187	0.527485
C40	C	-0.180227	-1.231187	1.027485
C41	C	-0.772120	-1.723586	0.535087
C42	C	-0.272120	-1.223586	1.035087
C43	C	-0.940370	-1.709665	0.548942
C44	C	-0.440370	-1.209665	1.048942
C45	C	-0.989690	-1.788658	0.469953
C46	C	-0.489690	-1.288658	0.969953
C47	C	-1.083310	-1.780912	0.477661
C48	C	-0.583310	-1.280912	0.977661
C49	C	-0.846741	-1.717409	0.541235
C50	C	-0.346741	-1.217409	1.041235
C51	C	-0.249795	-1.766869	0.491779
C52	C	0.250205	-1.266869	0.991779
C53	C	-0.157935	-1.774741	0.483803
C54	C	0.342065	-1.274741	0.983803
C55	C	-0.446722	-1.725191	0.837979
C56	C	0.053278	-1.225191	1.337979
C57	C	-0.439113	-1.715108	0.978436
C58	C	0.060887	-1.215108	1.478436
C59	C	-0.482534	-1.078609	0.485796
C60	C	0.017466	-0.578609	0.985796
C61	C	-0.490173	-1.219061	0.475610
C62	C	0.009827	-0.719061	0.975610
C63	C	-0.482542	-1.772982	0.180029
C64	C	0.017458	-1.272982	0.680029
C65	C	-0.490193	-1.783192	0.039565
C66	C	0.009807	-1.283192	0.539565
H67	H	-0.539758	-1.274111	0.409607
H68	H	-0.039758	-0.774111	0.909607
H69	H	-0.389483	-1.225212	0.609586
H70	H	0.110517	-0.725212	1.109586
H71	H	-0.961603	-1.862102	0.396537
H72	H	-0.461603	-1.362102	0.896537
H73	H	-0.968455	-1.636227	0.622351
H74	H	-0.468455	-1.136227	1.122351
Cl75	Cl	-0.566707	-1.885101	0.954472
Cl76	Cl	-0.066707	-1.385101	1.454472
Cl77	Cl	-0.362604	-1.613180	1.063536
Cl78	Cl	0.137396	-1.113180	1.563536
