data_functionalizedCrystal
_audit_creation_method	'MofGen! by Chris Wilmer'
_symmetry_space_group_name_H-M	'P1'
_symmetry_Int_Tables_number	1
_symmetry_cell_setting	triclinic
loop_
_symmetry_equiv_pos_as_xyz
  x,y,z
_cell_length_a	11.792241
_cell_length_b	11.804366
_cell_length_c	11.792254
_cell_angle_alpha	101.896920
_cell_angle_beta	95.803994
_cell_angle_gamma	101.953014
loop_
_atom_site_label
_atom_site_type_symbol
_atom_site_fract_x
_atom_site_fract_y
_atom_site_fract_z
O1	O	-1.484119	0.098883	0.178278
O2	O	-1.153772	0.098914	0.194317
O3	O	-1.326953	0.098903	0.021129
O4	O	-1.310938	0.098894	0.351466
O5	O	-1.372599	-0.099156	-0.024365
O6	O	-1.199418	-0.099145	0.148823
O7	O	-1.529765	-0.099175	0.132784
Cu8	Cu	-1.368759	-0.117245	0.136650
Cu9	Cu	-1.314778	0.116983	0.190451
O10	O	-1.356583	-0.099165	0.305972
C11	C	-1.134303	-0.000112	0.170564
C12	C	-1.008286	-0.000100	0.167553
C13	C	-0.777581	-0.000131	0.162003
C14	C	-0.905962	-0.000114	0.165086
N15	N	-1.406735	-0.281987	0.098808
C16	C	-1.348766	-0.000122	-0.043908
C17	C	-1.345743	-0.000110	-0.169918
C18	C	-0.549233	-0.000145	0.156538
C19	C	-0.675245	-0.000140	0.159554
N20	N	-1.276811	0.281726	0.228285
C21	C	-1.497939	0.655661	0.007966
C22	C	-1.526671	0.530998	-0.020648
C23	C	-1.464208	0.468673	0.041583
C24	C	-1.373008	0.531025	0.132432
C25	C	-1.344267	0.655701	0.161043
C26	C	-1.310537	0.468713	0.194660
C27	C	-1.219337	0.531065	0.285509
C28	C	-1.190601	0.655728	0.314116
C29	C	-1.253064	0.718052	0.251885
C30	C	-1.339278	0.344037	0.166049
C31	C	-1.185607	0.344077	0.319126
C32	C	-1.156875	0.468740	0.347740
C33	C	-1.334770	-0.000137	0.371009
C34	C	-1.337791	-0.000141	0.497021
C35	C	-1.340243	-0.000135	0.599359
C36	C	-1.343309	-0.000121	0.727749
H37	H	-1.413533	0.293282	0.092080
H38	H	-1.487606	0.367167	0.018281
O39	O	-1.222078	0.852516	0.282735
H40	H	-1.233017	0.885408	0.375242
H41	H	-1.600924	0.480236	-0.094618
O42	O	-1.565265	0.722876	-0.059189
H43	H	-1.529945	0.820040	-0.024040
H44	H	-1.116332	0.706495	0.388082
H45	H	-1.082617	0.519523	0.421712
O46	O	-1.118231	0.276875	0.386265
H47	H	-1.153547	0.179710	0.351118
