data_functionalizedCrystal
_audit_creation_method	'MofGen! by Chris Wilmer'
_symmetry_space_group_name_H-M	'P1'
_symmetry_Int_Tables_number	1
_symmetry_cell_setting	triclinic
loop_
_symmetry_equiv_pos_as_xyz
  x,y,z
_cell_length_a	14.446369
_cell_length_b	21.606444
_cell_length_c	21.606444
_cell_angle_alpha	89.999794
_cell_angle_beta	119.997920
_cell_angle_gamma	59.999661
loop_
_atom_site_label
_atom_site_type_symbol
_atom_site_fract_x
_atom_site_fract_y
_atom_site_fract_z
Zr1	Zr	1.013275	-0.081273	-0.596227
O2	O	1.206381	-0.180098	-0.497406
O3	O	0.820160	-0.050974	-0.626521
O4	O	1.013270	-0.180097	-0.626522
O5	O	1.013277	0.050875	-0.497405
O6	O	1.013277	-0.180101	-0.728372
O7	O	1.013270	-0.050975	-0.497405
O8	O	0.667837	0.050877	-0.728369
O9	O	1.358717	-0.180102	-0.497407
O10	O	0.899599	-0.038059	-0.715451
O11	O	0.899599	0.037953	-0.639441
O12	O	1.126962	-0.114073	-0.639443
O13	O	1.126962	-0.038061	-0.563433
Zr14	Zr	1.013296	0.081159	-0.758666
Zr15	Zr	1.013285	-0.081279	-0.758666
Zr16	Zr	1.013285	0.081166	-0.596227
Zr17	Zr	1.256233	-0.081280	-0.596229
Zr18	Zr	0.770338	0.081167	-0.758664
O19	O	1.206411	0.050860	-0.728372
O20	O	1.206396	-0.180107	-0.728373
O21	O	1.206396	0.050869	-0.497406
O22	O	0.820189	0.179984	-0.857487
O23	O	0.820174	-0.050983	-0.857487
O24	O	0.820174	0.179993	-0.626520
O25	O	1.013294	-0.050989	-0.857488
O26	O	1.013300	0.179983	-0.728371
O27	O	1.013294	0.179987	-0.626521
O28	O	1.013300	0.050861	-0.857488
O29	O	1.358725	-0.180107	-0.626524
O30	O	0.667845	0.179994	-0.728369
O31	O	0.667854	0.179989	-0.857486
O32	O	0.667845	0.050872	-0.857486
O33	O	1.358725	-0.050985	-0.497407
O34	O	1.358734	-0.050990	-0.626524
O35	O	0.899609	0.113959	-0.715450
O36	O	0.899609	0.037947	-0.791460
O37	O	1.126972	-0.038066	-0.715452
O38	O	1.126972	0.037946	-0.639442
C39	C	0.709382	-0.000048	-0.677445
C40	C	0.606240	-0.000044	-0.677444
C41	C	1.013272	-0.000049	-0.474261
C42	C	1.013268	-0.000046	-0.405301
C43	C	1.013298	0.203129	-0.677446
C44	C	1.013303	0.272088	-0.677446
C45	C	0.459230	0.048116	-0.629735
C46	C	0.566850	0.047921	-0.629475
C47	C	0.655228	-0.082641	-0.642473
C48	C	0.547996	-0.082391	-0.642115
C49	C	0.372789	0.033681	-0.760158
C50	C	0.478940	0.035366	-0.760037
C51	C	1.317189	-0.000066	-0.677448
C52	C	1.420331	-0.000069	-0.677449
C53	C	1.013272	-0.203243	-0.677447
C54	C	1.013268	-0.272202	-0.677447
C55	C	1.131983	0.264810	-0.637772
C56	C	1.131979	0.329607	-0.637769
C57	C	1.013294	0.401682	-0.677444
C58	C	0.894605	0.408960	-0.717119
C59	C	0.894610	0.344163	-0.717118
C60	C	0.894582	0.670278	-0.717125
C61	C	0.894586	0.735076	-0.717126
C62	C	1.131952	0.655722	-0.637776
C63	C	1.131957	0.590925	-0.637775
C64	C	1.013268	0.598208	-0.677446
C65	C	1.013273	0.527947	-0.677448
C66	C	1.013287	0.471943	-0.677447
C67	C	0.894587	0.039629	-0.412577
C68	C	0.894591	0.039630	-0.347780
C69	C	1.013276	-0.000050	-0.275707
C70	C	1.131966	-0.039727	-0.268433
C71	C	1.131961	-0.039722	-0.333229
C72	C	1.131989	-0.039743	-0.007115
C73	C	1.131984	-0.039746	0.057684
C74	C	0.894619	0.039609	-0.021665
C75	C	0.894614	0.039613	-0.086462
C76	C	1.013302	-0.000060	-0.079182
C77	C	1.013297	-0.000059	-0.149443
C78	C	1.013283	-0.000055	-0.205447
C79	C	1.013298	-0.000064	0.119368
C80	C	1.013303	-0.000065	0.050408
C81	C	0.709395	-0.000055	-0.880631
C82	C	0.606257	-0.000055	-0.949589
C83	C	0.709395	0.203138	-0.677444
C84	C	0.606257	0.272101	-0.677444
C85	C	0.709408	0.203131	-0.880630
C86	C	0.606275	0.272091	-0.949589
C87	C	1.317162	-0.203244	-0.474263
C88	C	1.420296	-0.272204	-0.405304
C89	C	1.317176	-0.000058	-0.474262
C90	C	1.420313	-0.000059	-0.405304
C91	C	1.317176	-0.203252	-0.677449
C92	C	1.420313	-0.272215	-0.677449
C93	C	0.557818	-0.039736	-0.942297
C94	C	0.460922	-0.039750	-1.007085
C95	C	0.412462	-0.000079	-1.079164
C96	C	0.460911	0.039603	-1.086455
C97	C	0.557811	0.039613	-1.021668
C98	C	0.557828	0.344168	-0.717119
C99	C	0.460933	0.408972	-0.717116
C100	C	0.412462	0.401707	-0.677441
C101	C	0.460901	0.329633	-0.637760
C102	C	0.557801	0.264830	-0.637760
C103	C	0.557843	0.264797	-1.021656
C104	C	0.460951	0.329586	-1.086456
C105	C	0.412488	0.401668	-1.079188
C106	C	0.460930	0.408960	-1.007114
C107	C	0.557826	0.344171	-0.942315
C108	C	1.468740	-0.264911	-0.333237
C109	C	1.565661	-0.329700	-0.268437
C110	C	1.614130	-0.401782	-0.275705
C111	C	1.565681	-0.409073	-0.347779
C112	C	1.468769	-0.344285	-0.412578
C113	C	1.468763	0.039615	-0.412596
C114	C	1.565685	0.039612	-0.347808
C115	C	1.614149	-0.000061	-0.275729
C116	C	1.565695	-0.039741	-0.268438
C117	C	1.468781	-0.039741	-0.333225
C118	C	1.468753	-0.264926	-0.717132
C119	C	1.565649	-0.329717	-0.717148
C120	C	1.614110	-0.401797	-0.677475
C121	C	1.565660	-0.409084	-0.637791
C122	C	1.468759	-0.344294	-0.637781
H123	H	0.530145	0.108742	-0.652933
H124	H	1.605086	-0.323769	-0.749462
H125	H	0.797968	0.071922	-0.145144
H126	H	0.597247	0.350120	-0.883637
Br127	Br	1.631420	0.093468	-0.357720
H128	H	0.279049	0.093565	-0.789376
H129	H	1.228632	-0.072061	-0.001177
Br130	Br	1.745676	-0.000053	-0.187810
Br131	Br	1.631454	-0.506913	-0.583946
Br132	Br	0.733502	0.832897	-0.770974
Br133	Br	0.395213	0.506777	-0.770973
H134	H	1.228638	-0.072059	0.116370
H135	H	0.333559	-0.000093	-1.131912
H136	H	1.605091	-0.323748	-0.209758
H137	H	1.429311	0.071927	-0.471281
H138	H	1.693042	-0.454530	-0.222936
Br139	Br	0.623600	0.166980	-1.031541
H140	H	0.747530	-0.109844	-0.582192
Br141	Br	1.402979	-0.167094	-0.323352
Br142	Br	1.293033	-0.093564	-0.323354
Br143	Br	1.293033	0.645840	-0.583934
Br144	Br	1.631478	-0.093578	-0.170609
H145	H	0.421440	0.071902	-1.145151
H146	H	0.797940	0.071944	-0.471259
Br147	Br	1.293041	-0.093570	-0.170620
H148	H	0.421520	0.323636	-1.145136
H149	H	1.429326	-0.350232	-0.471256
Br150	Br	0.733518	0.093489	-0.357659
H151	H	0.597238	0.071930	-1.027616
Br152	Br	0.714863	0.008917	-0.527790
H153	H	1.228603	0.532240	-0.605470
Br154	Br	0.623582	0.354048	-0.770975
Br155	Br	0.733538	0.093455	-0.031543
Br156	Br	1.403034	-0.093587	-0.323314
H157	H	1.429311	-0.206240	-0.749438
Br158	Br	1.745621	-0.489721	-0.677496
H159	H	0.333560	0.454479	-0.677447
Br160	Br	0.395105	0.319786	-0.583919
Br161	Br	1.403042	-0.354200	-0.583913
Br162	Br	0.733537	0.354043	-0.770958
H163	H	0.597220	0.206153	-0.605453
Br164	Br	0.623568	-0.093584	-0.844483
Br165	Br	0.412937	0.136788	-0.803585
H166	H	0.333589	0.454417	-1.131957
H167	H	0.370368	0.109089	-0.653068
H168	H	0.494987	0.024914	-0.569086
H169	H	0.421457	0.467657	-1.001207
Br170	Br	1.631472	-0.506904	-0.357630
H171	H	0.526027	-0.120242	-0.674623
Br172	Br	0.703285	-0.145084	-0.697583
Br173	Br	0.514772	-0.017044	-0.824287
Br174	Br	0.329502	-0.024538	-0.819690
Br175	Br	0.615812	-0.127423	-0.540674
Br176	Br	1.293065	0.166996	-0.583931
H177	H	1.228621	0.323673	-0.605463
H178	H	0.797938	0.676218	-0.749431
H179	H	0.421487	-0.072064	-1.001134
Br180	Br	0.733529	0.506777	-0.770958
