data_functionalizedCrystal
_audit_creation_method	'MofGen! by Chris Wilmer'
_symmetry_space_group_name_H-M	'P1'
_symmetry_Int_Tables_number	1
_symmetry_cell_setting	triclinic
loop_
_symmetry_equiv_pos_as_xyz
  x,y,z
_cell_length_a	13.635800
_cell_length_b	27.923327
_cell_length_c	27.924317
_cell_angle_alpha	97.596810
_cell_angle_beta	98.979858
_cell_angle_gamma	98.960721
loop_
_atom_site_label
_atom_site_type_symbol
_atom_site_fract_x
_atom_site_fract_y
_atom_site_fract_z
V1	V	-1.977252	-0.067875	-0.151587
V2	V	-1.477252	0.432125	0.348413
O3	O	-1.983135	0.002491	-0.148388
O4	O	-1.483135	0.502491	0.351612
O5	O	-1.942257	-0.133844	-0.150851
O6	O	-1.442257	0.366156	0.349149
O7	O	-1.942314	-0.067170	-0.217562
O8	O	-1.442314	0.432830	0.282438
O9	O	-1.983078	-0.064645	-0.081216
O10	O	-1.483078	0.435355	0.418784
V11	V	-2.221857	-0.059419	-0.143133
V12	V	-1.721857	0.440581	0.356867
O13	O	-2.101646	-0.086426	-0.170130
O14	O	-1.601646	0.413574	0.329870
O15	O	-2.322562	-0.040869	-0.124590
O16	O	-1.822562	0.459131	0.375410
O17	O	-2.145249	0.006550	-0.143869
O18	O	-1.645249	0.506550	0.356131
O19	O	-2.274672	-0.129785	-0.146332
O20	O	-1.774672	0.370215	0.353668
O21	O	-2.274730	-0.062649	-0.213505
O22	O	-1.774730	0.437351	0.286495
O23	O	-2.145192	-0.060125	-0.077158
O24	O	-1.645192	0.439875	0.422842
C25	C	-1.862479	-0.149915	-0.148537
C26	C	-1.362479	0.350085	0.351463
C27	C	-1.874437	-0.203848	-0.148376
C28	C	-1.374437	0.296152	0.351624
C29	C	-1.869775	-0.586520	-0.144865
C30	C	-1.369775	-0.086520	0.355135
C31	C	-1.824731	-0.383812	-0.145434
C32	C	-1.324731	0.116188	0.354566
O33	O	-1.742162	-0.355495	-0.143458
O34	O	-1.242162	0.144505	0.356542
N35	N	-1.909346	-0.360945	-0.147938
N36	N	-1.409346	0.139055	0.352062
C37	C	-2.005230	-0.388759	-0.150302
C38	C	-1.505230	0.111241	0.349698
O39	O	-2.076168	-0.364660	-0.152450
O40	O	-1.576168	0.135340	0.347550
C41	C	-2.050274	-0.591467	-0.149737
C42	C	-1.550274	-0.091467	0.350263
C43	C	-1.965651	-0.614330	-0.147228
C44	C	-1.465651	-0.114330	0.352772
C45	C	-1.785160	-0.609383	-0.142357
C46	C	-1.285160	-0.109383	0.357643
C47	C	-1.796420	-0.660056	-0.142212
C48	C	-1.296420	-0.160056	0.357788
C49	C	-1.892296	-0.687867	-0.144575
C50	C	-1.392296	-0.187867	0.355425
C51	C	-1.976912	-0.665003	-0.147083
C52	C	-1.476912	-0.165003	0.352917
C53	C	-2.146158	-0.619281	-0.152105
C54	C	-1.646158	-0.119281	0.347895
C55	C	-2.157413	-0.669961	-0.151965
C56	C	-1.657413	-0.169961	0.348035
C57	C	-2.072789	-0.692824	-0.149456
C58	C	-1.572789	-0.192824	0.350544
C59	C	-2.084049	-0.743487	-0.149302
C60	C	-1.584049	-0.243487	0.350698
N61	N	-1.999434	-0.766353	-0.146798
N62	N	-1.499434	-0.266353	0.353202
C63	C	-1.903557	-0.738543	-0.144435
C64	C	-1.403557	-0.238543	0.355565
C65	C	-1.981575	-0.282335	-0.150598
C66	C	-1.481575	0.217665	0.349402
C67	C	-1.970314	-0.231658	-0.150739
C68	C	-1.470314	0.268342	0.349261
C69	C	-1.789815	-0.226714	-0.145871
C70	C	-1.289815	0.273286	0.354129
C71	C	-1.801076	-0.277391	-0.145727
C72	C	-1.301076	0.222609	0.354273
C73	C	-1.896959	-0.305201	-0.148095
C74	C	-1.396959	0.194799	0.351905
C75	C	-1.927212	-0.844961	-0.144130
C76	C	-1.427212	-0.344961	0.355870
C77	C	-1.938482	-0.895639	-0.143984
C78	C	-1.438482	-0.395639	0.356016
C79	C	-2.118980	-0.900579	-0.148854
C80	C	-1.618980	-0.400579	0.351146
C81	C	-2.107711	-0.849905	-0.148998
C82	C	-1.607711	-0.349905	0.351002
C83	C	-2.011820	-0.822098	-0.146638
C84	C	-1.511820	-0.322098	0.353362
O85	O	-2.166586	-0.771834	-0.151282
O86	O	-1.666586	-0.271834	0.348718
O87	O	-1.832635	-0.762654	-0.142298
O88	O	-1.332635	-0.262654	0.357702
C89	C	-1.858514	-0.535846	-0.145010
C90	C	-1.358514	-0.035846	0.354990
C91	C	-1.943130	-0.512983	-0.147518
C92	C	-1.443130	-0.012983	0.352482
C93	C	-2.039006	-0.540793	-0.149881
C94	C	-1.539006	-0.040793	0.350119
C95	C	-1.931869	-0.462306	-0.147658
C96	C	-1.431869	0.037694	0.352342
C97	C	-1.835993	-0.434496	-0.145295
C98	C	-1.335993	0.065504	0.354705
C99	C	-1.751377	-0.457362	-0.142792
C100	C	-1.251377	0.042638	0.357208
C101	C	-1.762638	-0.508036	-0.142647
C102	C	-1.262638	-0.008036	0.357353
C103	C	-2.123621	-0.517926	-0.152385
C104	C	-1.623621	-0.017926	0.347615
C105	C	-2.112353	-0.467253	-0.152529
C106	C	-1.612353	0.032747	0.347471
C107	C	-2.016477	-0.439442	-0.150166
C108	C	-1.516477	0.060558	0.349834
C109	C	-1.862551	-0.064865	-0.233633
C110	C	-1.362551	0.435135	0.266367
C111	C	-1.874556	-0.064724	-0.287570
C112	C	-1.374556	0.435276	0.212430
C113	C	-1.971608	-0.108041	-0.679848
C114	C	-1.471608	0.391959	-0.179848
C115	C	-1.926631	-0.108645	-0.477147
C116	C	-1.426631	0.391355	0.022853
O117	O	-1.930640	-0.146537	-0.457009
O118	O	-1.430640	0.353463	0.042991
N119	N	-1.909407	-0.064256	-0.444662
N120	N	-1.409407	0.435744	0.055338
C121	C	-1.903421	-0.019712	-0.462853
C122	C	-1.403421	0.480288	0.037147
O123	O	-1.887729	0.018030	-0.430571
O124	O	-1.387729	0.518030	0.069429
C125	C	-1.948391	-0.019108	-0.665553
C126	C	-1.448391	0.480892	-0.165553
C127	C	-1.965625	-0.063500	-0.698037
C128	C	-1.465625	0.436500	-0.198037
C129	C	-1.988840	-0.152430	-0.712332
C130	C	-1.488840	0.347570	-0.212332
C131	C	-2.000089	-0.152278	-0.763004
C132	C	-1.500089	0.347722	-0.263004
C133	C	-1.994106	-0.107738	-0.781193
C134	C	-1.494106	0.392262	-0.281193
C135	C	-1.976874	-0.063349	-0.748709
C136	C	-1.476874	0.436651	-0.248709
C137	C	-1.942398	0.025436	-0.683744
C138	C	-1.442398	0.525436	-0.183744
C139	C	-1.953640	0.025583	-0.734422
C140	C	-1.453640	0.525583	-0.234422
C141	C	-1.970874	-0.018809	-0.766906
C142	C	-1.470874	0.481191	-0.266906
C143	C	-1.982140	-0.018657	-0.817570
C144	C	-1.482140	0.481343	-0.317570
N145	N	-1.999364	-0.063046	-0.850056
N146	N	-1.499364	0.436954	-0.350056
C147	C	-2.005347	-0.107587	-0.831868
C148	C	-1.505347	0.392413	-0.331868
C149	C	-1.879814	-0.020033	-0.356433
C150	C	-1.379814	0.479967	0.143567
C151	C	-1.868573	-0.020184	-0.305759
C152	C	-1.368573	0.479816	0.194241
C153	C	-1.891782	-0.109117	-0.320057
C154	C	-1.391782	0.390883	0.179943
C155	C	-1.903030	-0.108966	-0.370732
C156	C	-1.403030	0.391034	0.129268
C157	C	-1.897038	-0.064422	-0.388919
C158	C	-1.397038	0.435578	0.111081
C159	C	-2.028971	-0.107265	-0.938282
C160	C	-1.528971	0.392735	-0.438282
C161	C	-2.040224	-0.107110	-0.988959
C162	C	-1.540224	0.392890	-0.488959
C163	C	-2.017009	-0.018176	-0.974656
C164	C	-1.517009	0.481824	-0.474656
C165	C	-2.005762	-0.018332	-0.923985
C166	C	-1.505762	0.481668	-0.423985
C167	C	-2.011741	-0.062880	-0.905799
C168	C	-1.511741	0.437120	-0.405799
O169	O	-1.978132	0.019215	-0.837743
O170	O	-1.478132	0.519215	-0.337743
O171	O	-2.021017	-0.145323	-0.864157
O172	O	-1.521017	0.354677	-0.364157
C173	C	-1.960359	-0.108192	-0.629176
C174	C	-1.460359	0.391808	-0.129176
C175	C	-1.943127	-0.063803	-0.596693
C176	C	-1.443127	0.436197	-0.096693
C177	C	-1.937145	-0.019263	-0.614881
C178	C	-1.437145	0.480737	-0.114881
C179	C	-1.931887	-0.063954	-0.546018
C180	C	-1.431887	0.436046	-0.046018
C181	C	-1.937869	-0.108495	-0.527829
C182	C	-1.437869	0.391505	-0.027829
C183	C	-1.955093	-0.152884	-0.560315
C184	C	-1.455093	0.347116	-0.060315
C185	C	-1.966342	-0.152733	-0.610987
C186	C	-1.466342	0.347267	-0.110987
C187	C	-1.919921	0.025127	-0.582395
C188	C	-1.419921	0.525127	-0.082395
C189	C	-1.908674	0.024972	-0.531724
C190	C	-1.408674	0.524972	-0.031724
C191	C	-1.914657	-0.019569	-0.513535
C192	C	-1.414657	0.480431	-0.013535
V193	V	-1.477252	-0.067875	-0.151587
V194	V	-0.977252	0.432125	0.348413
O195	O	-1.483135	0.002491	-0.148388
O196	O	-0.983135	0.502491	0.351612
O197	O	-1.442257	-0.133844	-0.150851
O198	O	-0.942257	0.366156	0.349149
O199	O	-1.442314	-0.067170	-0.217562
O200	O	-0.942314	0.432830	0.282438
O201	O	-1.483078	-0.064645	-0.081216
O202	O	-0.983078	0.435355	0.418784
V203	V	-1.721857	-0.059419	-0.143133
V204	V	-1.221857	0.440581	0.356867
O205	O	-1.601646	-0.086426	-0.170130
O206	O	-1.101646	0.413574	0.329870
O207	O	-1.822562	-0.040869	-0.124590
O208	O	-1.322562	0.459131	0.375410
O209	O	-1.645249	0.006550	-0.143869
O210	O	-1.145249	0.506550	0.356131
O211	O	-1.774672	-0.129785	-0.146332
O212	O	-1.274672	0.370215	0.353668
O213	O	-1.774730	-0.062649	-0.213505
O214	O	-1.274730	0.437351	0.286495
O215	O	-1.645192	-0.060125	-0.077158
O216	O	-1.145192	0.439875	0.422842
C217	C	-2.056698	0.022619	-0.146182
C218	C	-1.556698	0.522619	0.353818
C219	C	-2.034358	0.076551	-0.146347
C220	C	-1.534358	0.576551	0.353653
C221	C	-1.362479	-0.149915	-0.148537
C222	C	-0.862479	0.350085	0.351463
C223	C	-1.374437	-0.203848	-0.148376
C224	C	-0.874437	0.296152	0.351624
C225	C	-1.368429	-0.222029	-0.103831
C226	C	-0.868429	0.277971	0.396169
C227	C	-1.379679	-0.272704	-0.103672
C228	C	-0.879679	0.227296	0.396328
C229	C	-1.396929	-0.305196	-0.148058
C230	C	-0.896929	0.194804	0.351942
C231	C	-1.402940	-0.287012	-0.192607
C232	C	-0.902940	0.212988	0.307393
C233	C	-1.391698	-0.236338	-0.192765
C234	C	-0.891698	0.263662	0.307235
C235	C	-2.056626	-0.062431	-0.061085
C236	C	-1.556626	0.437569	0.438915
C237	C	-2.034241	-0.062569	-0.007147
C238	C	-1.534241	0.437431	0.492853
C239	C	-1.362551	-0.064865	-0.233633
C240	C	-0.862551	0.435135	0.266367
C241	C	-1.374556	-0.064724	-0.287570
C242	C	-0.874556	0.435276	0.212430
C243	C	-1.556698	0.022619	-0.146182
C244	C	-1.056698	0.522619	0.353818
C245	C	-1.534358	0.076551	-0.146347
C246	C	-1.034358	0.576551	0.353653
C247	C	-1.556626	-0.062431	-0.061085
C248	C	-1.056626	0.437569	0.438915
C249	C	-1.534241	-0.062569	-0.007147
C250	C	-1.034241	0.437431	0.492853
C251	C	-1.470448	-0.067089	-0.315383
C252	C	-0.970448	0.432911	0.184617
C253	C	-1.481740	-0.066951	-0.366062
C254	C	-0.981740	0.433049	0.133938
C255	C	-1.397140	-0.064451	-0.388927
C256	C	-0.897140	0.435549	0.111073
C257	C	-1.301240	-0.062084	-0.361110
C258	C	-0.801240	0.437916	0.138890
C259	C	-1.289948	-0.062219	-0.310431
C260	C	-0.789948	0.437781	0.189569
C261	C	-1.610980	0.104363	-0.143989
C262	C	-1.110980	0.604363	0.356011
C263	C	-1.589998	0.155040	-0.144136
C264	C	-1.089998	0.655040	0.355864
C265	C	-1.492396	0.177902	-0.146644
C266	C	-0.992396	0.677902	0.353356
C267	C	-1.415769	0.150086	-0.149001
C268	C	-0.915769	0.650086	0.350999
C269	C	-1.436749	0.099411	-0.148851
C270	C	-0.936749	0.599411	0.351149
C271	C	-1.436610	-0.065064	0.015705
C272	C	-0.936610	0.434936	0.515705
C273	C	-1.415560	-0.065188	0.066386
C274	C	-0.915560	0.434812	0.566386
C275	C	-1.492145	-0.062821	0.094212
C276	C	-0.992145	0.437179	0.594212
C277	C	-1.589783	-0.060324	0.071357
C278	C	-1.089783	0.439676	0.571357
C279	C	-1.610830	-0.060197	0.020678
C280	C	-1.110830	0.439803	0.520678
H281	H	-2.201695	-0.540565	-0.154310
H282	H	-1.701695	-0.040565	0.345690
C283	C	-1.352453	0.068821	-0.151452
C284	C	-0.852453	0.568821	0.348548
N285	N	-1.288955	0.045783	-0.153412
N286	N	-0.788955	0.545783	0.346588
H287	H	-1.232363	-0.060049	-0.379734
H288	H	-0.732363	0.439951	0.120266
H289	H	-1.374238	-0.066991	-0.006945
H290	H	-0.874238	0.433009	0.493055
C291	C	-1.718350	0.079226	-0.141225
C292	C	-1.218350	0.579226	0.358775
N293	N	-1.799224	0.060296	-0.139140
N294	N	-1.299224	0.560296	0.360860
H295	H	-1.869567	-0.914252	-0.141941
H296	H	-1.369567	-0.414252	0.358059
H297	H	-1.406348	-0.064341	-0.430193
H298	H	-0.906348	0.435659	0.069807
H299	H	-1.336053	-0.067221	0.084987
H300	H	-0.836053	0.432779	0.584987
C301	C	-1.184457	-0.059626	-0.279843
C302	C	-0.684457	0.440374	0.220157
N303	N	-1.104997	-0.057675	-0.256807
N304	N	-0.604997	0.442325	0.243193
H305	H	-1.894649	0.061124	-0.505278
H306	H	-1.394649	0.561124	-0.005278
C307	C	-1.468979	-0.062965	0.149960
C308	C	-0.968979	0.437035	0.649960
N309	N	-1.451525	-0.063076	0.191949
N310	N	-0.951525	0.436924	0.691949
C311	C	-2.010420	0.030816	-0.994674
C312	C	-1.510420	0.530816	-0.494674
N313	N	-2.005447	0.067718	-1.009752
N314	N	-1.505447	0.567718	-0.509752
C315	C	-2.200797	-0.824753	-0.151743
C316	C	-1.700797	-0.324753	0.348257
N317	N	-2.270911	-0.805812	-0.153812
N318	N	-1.770911	-0.305812	0.346188
C319	C	-1.873227	0.028972	-0.376432
C320	C	-1.373227	0.528972	0.123568
N321	N	-1.868269	0.065883	-0.391493
N322	N	-1.368269	0.565883	0.108507
C323	C	-1.674019	-0.057723	0.101973
C324	C	-1.174019	0.442277	0.601973
N325	N	-1.737465	-0.055766	0.125035
N326	N	-1.237465	0.444234	0.625035
C327	C	-1.947051	0.074586	-0.754424
C328	C	-1.447051	0.574586	-0.254424
N329	N	-1.942092	0.111495	-0.769489
N330	N	-1.442092	0.611495	-0.269489
C331	C	-1.718237	-0.057457	-0.004455
C332	C	-1.218237	0.442543	0.495545
N333	N	-1.799140	-0.055393	-0.023382
N334	N	-1.299140	0.444607	0.476618
C335	C	-1.373052	-0.292695	-0.054663
C336	C	-0.873052	0.207305	0.445337
N337	N	-1.368056	-0.307751	-0.017749
N338	N	-0.868056	0.192249	0.482251
C339	C	-1.821728	-0.814380	-0.141530
C340	C	-1.321728	-0.314380	0.358470
N341	N	-1.742277	-0.791345	-0.139567
N342	N	-1.242277	-0.291345	0.360433
H343	H	-1.406081	-0.346456	-0.147922
H344	H	-0.906081	0.153544	0.352078
H345	H	-1.475326	0.219165	-0.146766
H346	H	-0.975326	0.719165	0.353234
C347	C	-1.703327	-0.685200	-0.139458
C348	C	-1.203327	-0.185200	0.360542
N349	N	-1.633203	-0.704135	-0.137386
N350	N	-1.133203	-0.204135	0.362614
H351	H	-1.416989	-0.313475	-0.228745
H352	H	-0.916989	0.186525	0.271255
H353	H	-1.539346	-0.069127	-0.296774
H354	H	-1.039346	0.430873	0.203226
H355	H	-1.917059	-0.145114	-0.397178
H356	H	-1.417059	0.354886	0.102822
H357	H	-1.693728	-0.526646	-0.140605
H358	H	-1.193728	-0.026646	0.359395
H359	H	-1.707084	-0.586745	-0.140434
H360	H	-1.207084	-0.086745	0.359566
H361	H	-1.732168	-0.296003	-0.143688
H362	H	-1.232168	0.203997	0.356312
C363	C	-1.398291	-0.216345	-0.241771
C364	C	-0.898291	0.283655	0.258229
N365	N	-1.403254	-0.201289	-0.278684
N366	N	-0.903254	0.298711	0.221316
H367	H	-1.711747	-0.204062	-0.143947
H368	H	-1.211747	0.295938	0.356053
H369	H	-1.673309	-0.434710	-0.140865
H370	H	-1.173309	0.065290	0.359135
C371	C	-2.063408	-0.206515	-0.153503
C372	C	-1.563408	0.293485	0.346497
N373	N	-2.133533	-0.187581	-0.155592
N374	N	-1.633533	0.312419	0.344408
C375	C	-2.087058	-0.312919	-0.153198
C376	C	-1.587058	0.187081	0.346802
N377	N	-2.166507	-0.335953	-0.155154
N378	N	-1.666507	0.164047	0.344846
C379	C	-1.587240	-0.069558	-0.396653
C380	C	-1.087240	0.430442	0.103347
N381	N	-1.666702	-0.071522	-0.419692
N382	N	-1.166702	0.428478	0.080308
H383	H	-1.652405	0.177681	-0.142217
H384	H	-1.152405	0.677681	0.357783
C385	C	-1.913341	0.074128	-0.602395
C386	C	-1.413341	0.574128	-0.102395
N387	N	-1.908389	0.111038	-0.617457
N388	N	-1.408389	0.611038	-0.117457
H389	H	-2.181270	-0.448642	-0.154568
H390	H	-1.681270	0.051358	0.345432
H391	H	-2.215071	-0.600675	-0.154150
H392	H	-1.715071	-0.100675	0.345850
H393	H	-2.235493	-0.692602	-0.153894
H394	H	-1.735493	-0.192602	0.346106
H395	H	-2.197042	-0.923231	-0.150777
H396	H	-1.697042	-0.423231	0.349223
C397	C	-2.059169	-0.155947	-1.024689
C398	C	-1.559169	0.344053	-0.524689
N399	N	-2.073431	-0.192730	-1.051598
N400	N	-1.573431	0.307270	-0.551598
H401	H	-2.033837	-0.143540	-0.923483
H402	H	-1.533837	0.356460	-0.423483
H403	H	-2.014119	-0.188427	-0.789449
H404	H	-1.514119	0.311573	-0.289449
C405	C	-1.995433	-0.201432	-0.692334
C406	C	-1.495433	0.298568	-0.192334
N407	N	-2.000409	-0.238345	-0.677275
N408	N	-1.500409	0.261655	-0.177275
H409	H	-1.896652	-0.145384	-0.305239
H410	H	-1.396652	0.354616	0.194761
C411	C	-1.986815	0.030502	-0.888251
C412	C	-1.486815	0.530502	-0.388251
N413	N	-1.972534	0.067285	-0.861340
N414	N	-1.472534	0.567285	-0.361340
H415	H	-1.336301	0.168708	-0.151043
H416	H	-0.836301	0.668708	0.348957
H417	H	-1.854557	0.015965	-0.279314
H418	H	-1.354557	0.515965	0.220686
H419	H	-1.928367	0.061586	-0.657303
H420	H	-1.428367	0.561586	-0.157303
C421	C	-1.961674	-0.201879	-0.540298
C422	C	-1.461674	0.298121	-0.040298
N423	N	-1.966624	-0.238780	-0.525218
N424	N	-1.466624	0.261220	-0.025218
H425	H	-1.980373	-0.188882	-0.637432
H426	H	-1.480373	0.311118	-0.137432
C427	C	-1.349462	-0.186296	-0.054998
C428	C	-0.849462	0.313704	0.445002
N429	N	-1.335183	-0.159385	-0.018216
N430	N	-0.835183	0.340615	0.481784
