data_functionalizedCrystal
_audit_creation_method	'MofGen! by Chris Wilmer'
_symmetry_space_group_name_H-M	'P1'
_symmetry_Int_Tables_number	1
_symmetry_cell_setting	triclinic
loop_
_symmetry_equiv_pos_as_xyz
  x,y,z
_cell_length_a	16.625547
_cell_length_b	18.050589
_cell_length_c	16.625539
_cell_angle_alpha	90.024622
_cell_angle_beta	89.975178
_cell_angle_gamma	89.965365
loop_
_atom_site_label
_atom_site_type_symbol
_atom_site_fract_x
_atom_site_fract_y
_atom_site_fract_z
Zn1	Zn	1.232612	0.295659	-0.456021
Zn2	Zn	1.732612	0.795659	0.043979
Zn3	Zn	1.232486	0.419857	-0.321197
Zn4	Zn	1.732486	0.919857	0.178803
Zn5	Zn	1.097774	0.295685	-0.321192
Zn6	Zn	1.597774	0.795685	0.178808
Zn7	Zn	1.097715	0.419812	-0.455977
Zn8	Zn	1.597715	0.919812	0.044023
O9	O	1.165147	0.357753	-0.388597
O10	O	1.665147	0.857753	0.111403
O11	O	1.345428	0.312142	-0.438158
O12	O	1.845428	0.812142	0.061842
O13	O	1.214588	0.403415	-0.208364
O14	O	1.714588	0.903415	0.291636
O15	O	1.115737	0.191757	-0.339094
O16	O	1.615737	0.691757	0.160906
O17	O	1.345335	0.403390	-0.339103
O18	O	1.845335	0.903390	0.160897
O19	O	1.214802	0.191738	-0.438152
O20	O	1.714802	0.691738	0.061848
O21	O	1.115616	0.312187	-0.208360
O22	O	1.615616	0.812187	0.291640
O23	O	0.984934	0.312143	-0.339051
O24	O	1.484934	0.812143	0.160949
O25	O	1.115638	0.403313	-0.568816
O26	O	1.615638	0.903313	-0.068816
O27	O	0.984891	0.403338	-0.438077
O28	O	1.484891	0.903338	0.061923
O29	O	1.214746	0.312099	-0.568848
O30	O	1.714746	0.812099	-0.068848
O31	O	1.214532	0.523776	-0.339060
O32	O	1.714532	1.023776	0.160940
O33	O	1.115516	0.523742	-0.438082
O34	O	1.615516	1.023742	0.061918
C35	C	0.955656	0.357739	-0.388559
C36	C	1.455656	0.857739	0.111441
C37	C	0.866035	0.357751	-0.388562
C38	C	1.366035	0.857751	0.111438
C39	C	0.793253	0.357752	-0.388572
C40	C	1.293253	0.857752	0.111428
C41	C	0.701944	0.357756	-0.388592
C42	C	1.201944	0.857756	0.111408
C43	C	0.629168	0.357763	-0.388612
C44	C	1.129168	0.857763	0.111388
C45	C	0.537853	0.357768	-0.388632
C46	C	1.037853	0.857768	0.111368
C47	C	1.165026	0.550706	-0.388584
C48	C	1.665026	1.050706	0.111416
C49	C	1.165048	0.633251	-0.388606
C50	C	1.665048	1.133251	0.111394
C51	C	1.111232	0.832711	-0.442436
C52	C	1.611232	1.332711	0.057564
C53	C	1.091569	0.882153	-0.368859
C54	C	1.591569	1.382153	0.131141
C55	C	1.165109	0.784382	-0.388617
C56	C	1.665109	1.284382	0.111383
C57	C	1.184793	0.882022	-0.462203
C58	C	1.684793	1.382022	0.037797
C59	C	1.165166	0.930367	-0.388634
C60	C	1.665166	1.430367	0.111366
C61	C	1.145408	0.832736	-0.315001
C62	C	1.645408	1.332736	0.184999
C63	C	1.238665	0.832601	-0.408395
C64	C	1.738665	1.332601	0.091605
C65	C	1.219031	0.882020	-0.334767
C66	C	1.719031	1.382020	0.165233
C67	C	1.165074	0.700283	-0.388608
C68	C	1.665074	1.200283	0.111392
C69	C	1.165201	1.014463	-0.388635
C70	C	1.665201	1.514463	0.111365
C71	C	1.375456	0.357768	-0.388636
C72	C	1.875456	0.857768	0.111364
C73	C	1.465077	0.357775	-0.388652
C74	C	1.965077	0.857775	0.111348
C75	C	1.165199	0.357698	-0.598906
C76	C	1.665199	0.857698	-0.098906
C77	C	1.165222	0.357674	-0.688527
C78	C	1.665222	0.857674	-0.188527
C79	C	1.165260	1.164048	-0.388628
C80	C	1.665260	1.664048	0.111372
C81	C	1.165229	1.081502	-0.388644
C82	C	1.665229	1.581502	0.111356
C83	C	1.165259	0.357591	-1.016703
C84	C	1.665259	0.857591	-0.516703
C85	C	1.165246	0.357617	-0.925394
C86	C	1.665246	0.857617	-0.425394
C87	C	1.165241	0.357633	-0.852618
C88	C	1.665241	0.857633	-0.352618
C89	C	1.165227	0.357658	-0.761304
C90	C	1.665227	0.857658	-0.261304
C91	C	1.165141	0.357755	-0.179106
C92	C	1.665141	0.857755	0.320894
C93	C	1.165275	0.357569	-0.089485
C94	C	1.665275	0.857569	0.410515
H95	H	1.065610	0.811059	-0.487884
H96	H	1.565610	1.311059	0.012116
C97	C	1.008669	0.911282	-0.346686
C98	C	1.508669	1.411282	0.153314
C99	C	0.979072	0.955029	-0.409596
C100	C	1.479072	1.455029	0.090404
C101	C	0.902710	0.981880	-0.389201
C102	C	1.402710	1.481880	0.110799
H103	H	0.973280	0.870821	-0.337726
H104	H	1.473280	1.370821	0.162274
H105	H	1.012339	0.940295	-0.299138
H106	H	1.512339	1.440295	0.200862
H107	H	0.975396	0.926017	-0.457129
H108	H	1.475396	1.426017	0.042871
H109	H	1.014438	0.995501	-0.418565
H110	H	1.514438	1.495501	0.081435
H111	H	0.906380	1.010893	-0.341653
H112	H	1.406380	1.510893	0.158347
H113	H	0.867328	0.941414	-0.380240
H114	H	1.367328	1.441414	0.119760
H115	H	0.882621	1.011571	-0.431878
H116	H	1.382621	1.511571	0.068122
C117	C	1.123293	0.804038	-0.231949
C118	C	1.623293	1.304038	0.268051
C119	C	1.179502	0.829590	-0.175736
C120	C	1.679502	1.329590	0.324264
C121	C	1.159160	0.803158	-0.099226
C122	C	1.659160	1.303158	0.400774
H123	H	1.071252	0.821401	-0.217709
H124	H	1.571252	1.321401	0.282291
H125	H	1.123421	0.751407	-0.232418
H126	H	1.623421	1.251407	0.267582
H127	H	1.179366	0.882210	-0.175265
H128	H	1.679366	1.382210	0.324735
H129	H	1.231548	0.812229	-0.189950
H130	H	1.731548	1.312229	0.310050
H131	H	1.159288	0.750527	-0.099695
H132	H	1.659288	1.250527	0.400305
H133	H	1.107119	0.820523	-0.084995
H134	H	1.607119	1.320523	0.415005
H135	H	1.197299	0.820485	-0.061078
H136	H	1.697299	1.320485	0.438922
C137	C	1.279801	0.910863	-0.274093
C138	C	1.779801	1.410863	0.225907
C139	C	1.279655	0.988422	-0.275224
C140	C	1.779655	1.488422	0.224776
C141	C	1.335628	1.015020	-0.219348
C142	C	1.835628	1.515020	0.280652
H143	H	1.265778	0.893976	-0.221834
H144	H	1.765778	1.393976	0.278166
H145	H	1.331901	0.893189	-0.287694
H146	H	1.831901	1.393189	0.212306
H147	H	1.227567	1.006089	-0.261619
H148	H	1.727567	1.506089	0.238381
H149	H	1.293687	1.005329	-0.327470
H150	H	1.793687	1.505329	0.172530
H151	H	1.387727	0.997347	-0.232948
H152	H	1.887727	1.497347	0.267052
H153	H	1.321599	0.998129	-0.167093
H154	H	1.821599	1.498129	0.332907
H155	H	1.335541	1.067646	-0.220113
H156	H	1.835541	1.567646	0.279887
H157	H	1.201419	0.903671	-0.524427
H158	H	1.701419	1.403671	-0.024427
H159	H	1.300828	0.810821	-0.425143
H160	H	1.800828	1.310821	0.074857
