data_functionalizedCrystal
_audit_creation_method	'MofGen! by Chris Wilmer'
_symmetry_space_group_name_H-M	'P1'
_symmetry_Int_Tables_number	1
_symmetry_cell_setting	triclinic
loop_
_symmetry_equiv_pos_as_xyz
  x,y,z
_cell_length_a	13.635800
_cell_length_b	27.923456
_cell_length_c	10.992421
_cell_angle_alpha	84.519761
_cell_angle_beta	71.235237
_cell_angle_gamma	98.963413
loop_
_atom_site_label
_atom_site_type_symbol
_atom_site_fract_x
_atom_site_fract_y
_atom_site_fract_z
V1	V	-2.002002	-0.151266	0.179663
O2	O	-1.982112	-0.148393	-0.006676
O3	O	-1.991170	-0.150224	0.354358
O4	O	-1.966756	-0.217241	0.177758
O5	O	-2.006696	-0.080913	0.171147
V6	V	-2.243515	-0.142852	0.157273
O7	O	-2.133176	-0.169722	0.228776
O8	O	-2.337439	-0.124395	0.108159
O9	O	-2.142743	-0.143893	-0.017423
O10	O	-2.322102	-0.145724	0.343612
O11	O	-2.297519	-0.213205	0.165789
O12	O	-2.167157	-0.076876	0.159178
V13	V	-1.502002	-0.151266	0.179663
O14	O	-1.482112	-0.148393	-0.006676
O15	O	-1.491170	-0.150224	0.354358
O16	O	-1.466756	-0.217241	0.177758
O17	O	-1.506696	-0.080913	0.171147
V18	V	-1.743515	-0.142852	0.157273
O19	O	-1.633176	-0.169722	0.228776
O20	O	-1.837439	-0.124395	0.108159
O21	O	-1.642743	-0.143893	-0.017423
O22	O	-1.822102	-0.145724	0.343612
O23	O	-1.797519	-0.213205	0.165789
O24	O	-1.667157	-0.076876	0.159178
C25	C	-1.886137	-0.233322	0.171645
C26	C	-1.898050	-0.287257	0.171244
C27	C	-2.063139	-0.624178	0.175080
C28	C	-2.107955	-0.826885	0.173522
O29	O	-2.191243	-0.855194	0.178744
N30	N	-2.022422	-0.849760	0.166888
C31	C	-1.925676	-0.821955	0.160636
O32	O	-1.853950	-0.846062	0.154945
C33	C	-1.880859	-0.619248	0.162185
C34	C	-1.966402	-0.596376	0.168831
C35	C	-2.148675	-0.601305	0.181724
C36	C	-2.137472	-0.550632	0.182121
C37	C	-2.040735	-0.522831	0.175873
C38	C	-1.955199	-0.545703	0.169228
C39	C	-1.784112	-0.591443	0.155923
C40	C	-1.772914	-0.540763	0.156307
C41	C	-1.858457	-0.517892	0.162954
C42	C	-1.847259	-0.467228	0.163376
N43	N	-1.932793	-0.444353	0.170009
C44	C	-2.029530	-0.472154	0.176257
C45	C	-1.949212	-0.928379	0.159826
C46	C	-1.960416	-0.979056	0.159441
C47	C	-2.142695	-0.983982	0.172324
C48	C	-2.131492	-0.933305	0.172718
C49	C	-2.034745	-0.905504	0.166459
C50	C	-2.005997	-0.365736	0.177091
C51	C	-1.994787	-0.315058	0.177492
C52	C	-1.812509	-0.310136	0.164602
C53	C	-1.823719	-0.360810	0.164207
C54	C	-1.920470	-0.388609	0.170448
O55	O	-1.764001	-0.438888	0.158142
O56	O	-2.101236	-0.448036	0.181919
C57	C	-2.074342	-0.674851	0.174683
C58	C	-1.988807	-0.697723	0.168038
C59	C	-1.892069	-0.669922	0.161790
C60	C	-2.000011	-0.748400	0.167653
C61	C	-2.096749	-0.776201	0.173902
C62	C	-2.182282	-0.753326	0.180535
C63	C	-2.171080	-0.702652	0.180931
C64	C	-1.806536	-0.692797	0.155157
C65	C	-1.817746	-0.743471	0.154762
C66	C	-1.914484	-0.771272	0.161011
C67	C	-1.917281	-0.147836	0.396919
C68	C	-1.948995	-0.147425	0.539740
C69	C	-2.048304	-0.146280	-0.059977
C70	C	-2.006209	-0.146694	-0.202797
C71	C	-2.079448	-0.060793	0.165294
C72	C	-2.057154	-0.006857	0.165689
C73	C	-1.417281	-0.147836	0.396919
C74	C	-1.448995	-0.147425	0.539740
C75	C	-1.386137	-0.233322	0.171645
C76	C	-1.398050	-0.287257	0.171244
C77	C	-1.884036	-0.144107	0.734986
C78	C	-1.850909	-0.144343	0.586344
C79	C	-2.000787	-0.102180	0.577807
C80	C	-2.033079	-0.101701	0.726344
C81	C	-2.065033	-0.194451	0.766092
C82	C	-2.030149	-0.195432	0.617591
C83	C	-1.548304	-0.146280	-0.059977
C84	C	-1.506209	-0.146694	-0.202797
C85	C	-1.579448	-0.060793	0.165294
C86	C	-1.557154	-0.006857	0.165689
C87	C	-1.494787	-0.315058	0.177492
C88	C	-1.505991	-0.365735	0.177098
C89	C	-1.420457	-0.388611	0.170465
C90	C	-1.323711	-0.360806	0.164212
C91	C	-1.312507	-0.310129	0.164597
C92	C	-1.460454	0.016006	0.172308
C93	C	-1.439487	0.066684	0.172664
C94	C	-1.515226	0.094499	0.166410
C95	C	-1.611933	0.071633	0.159787
C96	C	-1.632895	0.020955	0.159422
C97	C	-1.384036	-0.144107	0.734986
C98	C	-1.350909	-0.144343	0.586344
C99	C	-1.500787	-0.102180	0.577807
C100	C	-1.533079	-0.101701	0.726344
C101	C	-1.565033	-0.194451	0.766092
C102	C	-1.530149	-0.195432	0.617591
H103	H	-2.064452	-0.296439	0.182908
H104	H	-1.711642	0.002344	0.154040
H105	H	-1.789129	-0.109874	0.533469
C106	C	-1.322772	-0.097588	0.762208
N107	N	-1.276631	-0.062551	0.782727
C108	C	-1.666486	-0.510185	0.149428
N109	N	-1.586325	-0.487155	0.144252
C110	C	-2.098896	-0.102881	0.536960
N111	N	-2.172791	-0.103409	0.506189
H112	H	-1.890762	-0.997675	0.154048
C113	C	-2.265183	-0.677499	0.188229
N114	N	-2.336067	-0.658557	0.193721
C115	C	-1.296385	-0.188012	0.552080
N116	N	-1.255308	-0.220902	0.526277
C117	C	-1.350590	-0.187214	0.799221
N118	N	-1.325335	-0.219576	0.847965
C119	C	-1.480573	-0.240656	0.585878
N120	N	-1.443229	-0.274717	0.561982
C121	C	-1.432800	-0.444357	0.170043
N122	N	-1.442103	-0.486346	0.169729
H123	H	-1.573412	-0.102702	0.547578
H124	H	-1.584774	-0.388368	0.182195
H125	H	-1.673592	0.094287	0.154692
H126	H	-1.621211	-0.101629	0.767226
C127	C	-1.923318	-0.054164	0.503939
N128	N	-1.864962	-0.018000	0.448306
H129	H	-1.443444	-0.066639	0.523122
H130	H	-1.254075	-0.379439	0.158812
C131	C	-1.543897	-0.240702	0.833567
N132	N	-1.527966	-0.275535	0.884388
H133	H	-1.498149	0.135762	0.166724
C134	C	-1.267447	-0.097776	0.514906
N135	N	-1.204583	-0.062700	0.461098
H136	H	-1.603198	-0.200485	0.587447
C137	C	-1.842784	-0.897805	0.152961
N138	N	-1.762624	-0.874780	0.147801
C139	C	-1.206089	-0.279554	0.157747
N140	N	-1.125931	-0.256528	0.152592
H141	H	-1.398771	-0.006635	0.177400
C142	C	-1.822772	-0.097588	0.762208
N143	N	-1.776631	-0.062551	0.782727
H144	H	-1.360739	0.085294	0.178056
C145	C	-1.685349	-0.197654	0.821676
N146	N	-1.775968	-0.200064	0.863550
C147	C	-2.112429	-0.396308	0.183964
N148	N	-2.192595	-0.419335	0.189151
C149	C	-2.231573	-0.525478	0.189408
N150	N	-2.302454	-0.506535	0.194888
H151	H	-1.714451	-0.610057	0.150511
H152	H	-1.490770	-0.065777	0.743407
H153	H	-2.227451	-0.623936	0.186809
H154	H	-1.754066	-0.379434	0.158809
C155	C	-2.249107	-1.014572	0.179187
N156	N	-2.329250	-1.037614	0.184344
C157	C	-2.225593	-0.908150	0.180017
N158	N	-2.296473	-0.889206	0.185509
C159	C	-1.706099	-0.279545	0.157727
N160	N	-1.625949	-0.256502	0.152539
C161	C	-2.288695	-0.783916	0.187403
N162	N	-2.368839	-0.806959	0.192566
C163	C	-2.152138	-0.101599	0.781575
N164	N	-2.241809	-0.101518	0.823168
C165	C	-1.723633	-0.768624	0.147449
N166	N	-1.652746	-0.787567	0.141927
H167	H	-1.564445	-0.296440	0.182897
C168	C	-1.700117	-0.662224	0.148300
N169	N	-1.619960	-0.639198	0.143148
C170	C	-1.980573	-0.240656	0.585878
N171	N	-1.943229	-0.274717	0.561982
C172	C	-1.796385	-0.188012	0.552080
N173	N	-1.755308	-0.220902	0.526277
H174	H	-1.990770	-0.065777	0.743407
C175	C	-2.043897	-0.240702	0.833567
N176	N	-2.027966	-0.275535	0.884388
H177	H	-1.859416	-0.176236	0.781810
H178	H	-2.154093	-0.196822	0.807238
H179	H	-2.103198	-0.200485	0.587447
