data_functionalizedCrystal
_audit_creation_method	'MofGen! by Chris Wilmer'
_symmetry_space_group_name_H-M	'P1'
_symmetry_Int_Tables_number	1
_symmetry_cell_setting	triclinic
loop_
_symmetry_equiv_pos_as_xyz
  x,y,z
_cell_length_a	17.077404
_cell_length_b	18.050589
_cell_length_c	17.077396
_cell_angle_alpha	89.974523
_cell_angle_beta	89.982756
_cell_angle_gamma	90.028446
loop_
_atom_site_label
_atom_site_type_symbol
_atom_site_fract_x
_atom_site_fract_y
_atom_site_fract_z
Zn1	Zn	1.200008	-0.295649	-0.443864
Zn2	Zn	1.533341	0.037684	-0.110530
Zn3	Zn	1.866675	0.371018	0.222803
Zn4	Zn	1.199908	-0.419848	-0.312606
Zn5	Zn	1.533241	-0.086515	0.020727
Zn6	Zn	1.866575	0.246819	0.354060
Zn7	Zn	1.068745	-0.295677	-0.312612
Zn8	Zn	1.402078	0.037657	0.020722
Zn9	Zn	1.735412	0.370990	0.354055
Zn10	Zn	1.068696	-0.419802	-0.443830
Zn11	Zn	1.402029	-0.086469	-0.110497
Zn12	Zn	1.735362	0.246865	0.222837
O13	O	1.134339	-0.357744	-0.378228
O14	O	1.467673	-0.024411	-0.044895
O15	O	1.801006	0.308923	0.288439
O16	O	1.309842	-0.312132	-0.426464
O17	O	1.643175	0.021202	-0.093131
O18	O	1.976508	0.354535	0.240203
O19	O	1.182488	-0.403407	-0.202760
O20	O	1.515821	-0.070074	0.130573
O21	O	1.849155	0.263259	0.463907
O22	O	1.086220	-0.191748	-0.330039
O23	O	1.419553	0.141585	0.003295
O24	O	1.752887	0.474918	0.336628
O25	O	1.309768	-0.403380	-0.330030
O26	O	1.643102	-0.070047	0.003303
O27	O	1.976435	0.263286	0.336637
O28	O	1.182658	-0.191728	-0.426469
O29	O	1.515992	0.141605	-0.093136
O30	O	1.849325	0.474939	0.240198
O31	O	1.086123	-0.312179	-0.202764
O32	O	1.419456	0.021154	0.130569
O33	O	1.752790	0.354487	0.463903
O34	O	0.958892	-0.312135	-0.330006
O35	O	1.292225	0.021199	0.003327
O36	O	1.625558	0.354532	0.336661
O37	O	1.086136	-0.403302	-0.553681
O38	O	1.419469	-0.069969	-0.220348
O39	O	1.752802	0.263365	0.112985
O40	O	0.958855	-0.403329	-0.426412
O41	O	1.292189	-0.069996	-0.093078
O42	O	1.625522	0.263338	0.240255
O43	O	1.182610	-0.312087	-0.553706
O44	O	1.515944	0.021246	-0.220373
O45	O	1.849277	0.354579	0.112961
O46	O	1.182440	-0.523766	-0.329997
O47	O	1.515773	-0.190433	0.003336
O48	O	1.849107	0.142900	0.336669
O49	O	1.086039	-0.523733	-0.426407
O50	O	1.419372	-0.190399	-0.093073
O51	O	1.752705	0.142934	0.240260
C52	C	0.930391	-0.357730	-0.378206
C53	C	1.263725	-0.024397	-0.044873
C54	C	1.597058	0.308936	0.288460
C55	C	0.843142	-0.357743	-0.378216
C56	C	1.176475	-0.024409	-0.044882
C57	C	1.509808	0.308924	0.288451
C58	C	0.802153	-0.405299	-0.428333
C59	C	1.135486	-0.071966	-0.095000
C60	C	1.468820	0.261368	0.238333
C61	C	0.720173	-0.405301	-0.428346
C62	C	1.053506	-0.071967	-0.095013
C63	C	1.386839	0.261366	0.238321
C64	C	0.679182	-0.357749	-0.378236
C65	C	1.012515	-0.024416	-0.044903
C66	C	1.345849	0.308918	0.288431
C67	C	0.720176	-0.310187	-0.328116
C68	C	1.053510	0.023146	0.005217
C69	C	1.386843	0.356479	0.338551
C70	C	0.802155	-0.310182	-0.328108
C71	C	1.135489	0.023151	0.005225
C72	C	1.468822	0.356484	0.338559
C73	C	0.549306	-0.310202	-0.328135
C74	C	0.882640	0.023131	0.005198
C75	C	1.215973	0.356465	0.338532
C76	C	0.467322	-0.310207	-0.328142
C77	C	0.800655	0.023126	0.005192
C78	C	1.133988	0.356459	0.338525
C79	C	0.467324	-0.405320	-0.428373
C80	C	0.800657	-0.071987	-0.095040
C81	C	1.133990	0.261347	0.238294
C82	C	0.549303	-0.405315	-0.428365
C83	C	0.882636	-0.071982	-0.095032
C84	C	1.215969	0.261351	0.238302
C85	C	0.590291	-0.357754	-0.378244
C86	C	0.923624	-0.024421	-0.044910
C87	C	1.256958	0.308912	0.288423
C88	C	1.134244	-0.550696	-0.378215
C89	C	1.467578	-0.217363	-0.044882
C90	C	1.800911	0.115971	0.288452
C91	C	1.134276	-0.633242	-0.378236
C92	C	1.467609	-0.299909	-0.044902
C93	C	1.800942	0.033425	0.288431
C94	C	1.081904	-0.832701	-0.430645
C95	C	1.415238	-0.499368	-0.097311
C96	C	1.748571	-0.166034	0.236022
C97	C	1.062772	-0.882144	-0.359016
C98	C	1.396105	-0.548810	-0.025682
C99	C	1.729439	-0.215477	0.307651
C100	C	1.134353	-0.784372	-0.378246
C101	C	1.467686	-0.451039	-0.044912
C102	C	1.801019	-0.117705	0.288421
C103	C	1.153524	-0.882011	-0.449883
C104	C	1.486857	-0.548678	-0.116550
C105	C	1.820190	-0.215345	0.216784
C106	C	1.134426	-0.930357	-0.378262
C107	C	1.467759	-0.597024	-0.044929
C108	C	1.801093	-0.263691	0.288405
C109	C	1.115183	-0.832728	-0.306579
C110	C	1.448516	-0.499394	0.026755
C111	C	1.781850	-0.166061	0.360088
C112	C	1.205968	-0.832591	-0.397495
C113	C	1.539301	-0.499257	-0.064161
C114	C	1.872635	-0.165924	0.269172
C115	C	1.186863	-0.882011	-0.325816
C116	C	1.520196	-0.548678	0.007517
C117	C	1.853529	-0.215344	0.340851
C118	C	1.134309	-0.700274	-0.378238
C119	C	1.467642	-0.366941	-0.044904
C120	C	1.800975	-0.033607	0.288429
C121	C	1.134470	-1.014454	-0.378262
C122	C	1.467803	-0.681120	-0.044929
C123	C	1.801137	-0.347787	0.288404
C124	C	1.339083	-0.357758	-0.378250
C125	C	1.672417	-0.024425	-0.044917
C126	C	2.005750	0.308909	0.288417
C127	C	1.426333	-0.357764	-0.378260
C128	C	1.759667	-0.024431	-0.044926
C129	C	2.093000	0.308903	0.288407
C130	C	1.134379	-0.357686	-0.582972
C131	C	1.467712	-0.024353	-0.249639
C132	C	1.801045	0.308980	0.083694
C133	C	1.134395	-0.357662	-0.670222
C134	C	1.467729	-0.024329	-0.336889
C135	C	1.801062	0.309005	-0.003555
C136	C	1.134456	-0.164038	-0.378258
C137	C	1.467789	0.169295	-0.044925
C138	C	1.801122	0.502628	0.288408
C139	C	1.134505	-0.081492	-0.378271
C140	C	1.467839	0.251841	-0.044938
C141	C	1.801172	0.585174	0.288396
C142	C	1.084234	-0.310154	-0.711214
C143	C	1.417567	0.023180	-0.377880
C144	C	1.750900	0.356513	-0.044547
C145	C	1.084246	-0.310137	-0.793194
C146	C	1.417580	0.023196	-0.459861
C147	C	1.750913	0.356530	-0.126527
C148	C	1.134426	-0.357625	-0.834182
C149	C	1.467759	-0.024292	-0.500848
C150	C	1.801092	0.309042	-0.167515
C151	C	1.184590	-0.405138	-0.793184
C152	C	1.517923	-0.071805	-0.459851
C153	C	1.851256	0.261528	-0.126518
C154	C	1.184572	-0.405158	-0.711205
C155	C	1.517906	-0.071825	-0.377872
C156	C	1.851239	0.261508	-0.044539
C157	C	1.184624	-0.405092	-0.964054
C158	C	1.517957	-0.071759	-0.630721
C159	C	1.851290	0.261575	-0.297388
C160	C	1.184642	-0.405071	-1.046039
C161	C	1.517976	-0.071738	-0.712706
C162	C	1.851309	0.261596	-0.379372
C163	C	1.084298	-0.310070	-1.046043
C164	C	1.417631	0.023263	-0.712710
C165	C	1.750964	0.356596	-0.379377
C166	C	1.084280	-0.310090	-0.964064
C167	C	1.417614	0.023243	-0.630731
C168	C	1.750947	0.356576	-0.297398
C169	C	1.134446	-0.357603	-0.923073
C170	C	1.467779	-0.024270	-0.589739
C171	C	1.801112	0.309064	-0.256406
C172	C	1.134345	-0.357748	-0.174280
C173	C	1.467678	-0.024414	0.159053
C174	C	1.801012	0.308919	0.492387
C175	C	1.134480	-0.357563	-0.087031
C176	C	1.467814	-0.024230	0.246303
C177	C	1.801147	0.309104	0.579636
H178	H	0.835522	-0.444024	-0.469136
H179	H	1.168855	-0.110690	-0.135803
H180	H	1.502188	0.222643	0.197530
H181	H	1.266482	-0.810810	-0.413795
H182	H	1.599816	-0.477477	-0.080462
H183	H	1.933149	-0.144144	0.252872
H184	H	0.582677	-0.271466	-0.287328
H185	H	0.916010	0.061867	0.046006
H186	H	1.249343	0.395201	0.379339
Br187	Br	0.857784	-0.245635	-0.260093
Br188	Br	1.191117	0.087699	0.073241
Br189	Br	1.524451	0.421032	0.406574
Br190	Br	1.016220	-0.245585	-1.101673
Br191	Br	1.349553	0.087748	-0.768340
Br192	Br	1.682886	0.421081	-0.435007
H193	H	1.169709	-0.903660	-0.510460
H194	H	1.503043	-0.570326	-0.177126
H195	H	1.836376	-0.236993	0.156207
H196	H	1.231248	-0.903526	-0.281460
H197	H	1.564581	-0.570193	0.051873
H198	H	1.897915	-0.236859	0.385207
H199	H	0.686803	-0.444027	-0.469156
H200	H	1.020137	-0.110693	-0.135823
H201	H	1.353470	0.222640	0.197510
Br202	Br	1.016135	-0.245696	-0.655596
Br203	Br	1.349468	0.087637	-0.322262
Br204	Br	1.682802	0.420970	0.011071
H205	H	0.686795	-0.271467	-0.287319
H206	H	1.020129	0.061867	0.046014
H207	H	1.353462	0.395200	0.379348
Br208	Br	0.604933	-0.469858	-0.496364
Br209	Br	0.938266	-0.136524	-0.163031
Br210	Br	1.271599	0.196809	0.170302
H211	H	1.037485	-0.811049	-0.474894
H212	H	1.370818	-0.477716	-0.141561
H213	H	1.704152	-0.144382	0.191773
Br214	Br	1.016124	-0.245699	-0.848823
Br215	Br	1.349457	0.087634	-0.515490
Br216	Br	1.682790	0.420968	-0.182156
Br217	Br	1.016187	-0.245635	-0.908438
Br218	Br	1.349520	0.087699	-0.575105
Br219	Br	1.682853	0.421032	-0.241772
H220	H	1.002244	-0.903926	-0.342749
H221	H	1.335577	-0.570593	-0.009416
H222	H	1.668910	-0.237259	0.323917
H223	H	1.225443	-0.443808	-0.826563
H224	H	1.558776	-0.110474	-0.493230
H225	H	1.892109	0.222859	-0.159896
H226	H	1.098927	-0.811169	-0.245986
H227	H	1.432261	-0.477835	0.087348
H228	H	1.765594	-0.144502	0.420681
Br229	Br	1.252701	-0.469579	-0.908423
Br230	Br	1.586034	-0.136245	-0.575090
Br231	Br	1.919368	0.197088	-0.241757
H232	H	1.225503	-0.443740	-1.079409
H233	H	1.558836	-0.110407	-0.746076
H234	H	1.892169	0.222927	-0.412742
Br235	Br	1.252646	-0.469642	-0.655573
Br236	Br	1.585979	-0.136309	-0.322239
Br237	Br	1.919313	0.197025	0.011094
Br238	Br	0.411698	-0.469858	-0.496405
Br239	Br	0.745031	-0.136525	-0.163072
Br240	Br	1.078364	0.196809	0.170262
H241	H	0.433950	-0.271478	-0.287347
H242	H	0.767283	0.061856	0.045986
H243	H	1.100616	0.395189	0.379319
