data_functionalizedCrystal
_audit_creation_method	'MofGen! by Chris Wilmer'
_symmetry_space_group_name_H-M	'P1'
_symmetry_Int_Tables_number	1
_symmetry_cell_setting	triclinic
loop_
_symmetry_equiv_pos_as_xyz
  x,y,z
_cell_length_a	16.625547
_cell_length_b	16.120256
_cell_length_c	16.625546
_cell_angle_alpha	92.872129
_cell_angle_beta	90.022405
_cell_angle_gamma	92.874068
loop_
_atom_site_label
_atom_site_type_symbol
_atom_site_fract_x
_atom_site_fract_y
_atom_site_fract_z
Zn1	Zn	1.209553	-0.471468	-0.344158
Zn2	Zn	1.216295	-0.332053	-0.472154
Zn3	Zn	1.081553	-0.332062	-0.337339
Zn4	Zn	1.074688	-0.471408	-0.478950
O5	O	1.145522	-0.401748	-0.408150
O6	O	1.323278	-0.452996	-0.361147
O7	O	1.204116	-0.215392	-0.448573
O8	O	1.098584	-0.350583	-0.225413
O9	O	1.328232	-0.350569	-0.455185
O10	O	1.192625	-0.453004	-0.230423
O11	O	1.105122	-0.215398	-0.349525
O12	O	0.967811	-0.350525	-0.356114
O13	O	1.086883	-0.588079	-0.466767
O14	O	0.962767	-0.452902	-0.460155
O15	O	1.185968	-0.588123	-0.367737
O16	O	1.197459	-0.350511	-0.585886
O17	O	1.093421	-0.452894	-0.590879
C18	C	0.936033	-0.401709	-0.408133
C19	C	0.846412	-0.401712	-0.408146
C20	C	0.773629	-0.401722	-0.408148
C21	C	0.682319	-0.401743	-0.408153
C22	C	0.609542	-0.401764	-0.408161
C23	C	0.518227	-0.401784	-0.408168
C24	C	1.134907	-0.619196	-0.418771
C25	C	1.130384	-0.711860	-0.423296
C26	C	1.169109	-0.922826	-0.384529
C27	C	1.122099	-0.881512	-0.431526
C28	C	1.126710	-0.787109	-0.426945
C29	C	1.164499	-1.017237	-0.389108
C30	C	1.355829	-0.401788	-0.408169
C31	C	1.445449	-0.401805	-0.408176
C32	C	1.145447	-0.401713	-0.617639
C33	C	1.145488	-0.401726	-0.707261
C34	C	1.156142	-0.185146	-0.397513
C35	C	1.160821	-0.092483	-0.392760
C36	C	1.145624	-0.401813	-1.035441
C37	C	1.145584	-0.401791	-0.944131
C38	C	1.145555	-0.401769	-0.871354
C39	C	1.145516	-0.401748	-0.780039
C40	C	1.145618	-0.401801	-0.197844
C41	C	1.145659	-0.401824	-0.108224
H42	H	1.078384	-0.917041	-0.475196
C43	C	1.228159	-0.874829	-0.325533
N44	N	1.272638	-0.838669	-0.281100
