data_functionalizedCrystal
_audit_creation_method	'MofGen! by Chris Wilmer'
_symmetry_space_group_name_H-M	'P1'
_symmetry_Int_Tables_number	1
_symmetry_cell_setting	triclinic
loop_
_symmetry_equiv_pos_as_xyz
  x,y,z
_cell_length_a	17.640112
_cell_length_b	16.625546
_cell_length_c	17.640968
_cell_angle_alpha	78.766516
_cell_angle_beta	92.139080
_cell_angle_gamma	101.247770
loop_
_atom_site_label
_atom_site_type_symbol
_atom_site_fract_x
_atom_site_fract_y
_atom_site_fract_z
Zn1	Zn	1.247778	-0.023167	-0.195079
Zn2	Zn	1.747778	0.476833	0.304921
Zn3	Zn	1.222008	-0.189521	-0.068091
Zn4	Zn	1.722008	0.310479	0.431909
Zn5	Zn	1.095110	-0.075617	-0.093723
Zn6	Zn	1.595110	0.424383	0.406277
Zn7	Zn	1.120749	-0.178908	-0.220673
Zn8	Zn	1.620749	0.321092	0.279327
O9	O	1.171411	-0.116803	-0.144392
O10	O	1.671411	0.383197	0.355608
O11	O	1.350629	-0.027726	-0.156795
O12	O	1.850629	0.472274	0.343205
O13	O	1.183660	-0.200804	0.034783
O14	O	1.683660	0.299196	0.534783
O15	O	1.115417	0.044187	-0.107184
O16	O	1.615417	0.544187	0.392816
O17	O	1.331696	-0.149946	-0.063498
O18	O	1.831696	0.350054	0.436502
O19	O	1.227581	0.082722	-0.181650
O20	O	1.727581	0.582722	0.318350
O21	O	1.090428	-0.117119	0.015951
O22	O	1.590428	0.382881	0.515951
O23	O	0.992242	-0.106828	-0.132002
O24	O	1.492242	0.393172	0.367998
O25	O	1.159114	-0.131856	-0.323552
O26	O	1.659114	0.368144	0.176448
O27	O	1.011078	-0.182715	-0.225272
O28	O	1.511078	0.317285	0.274728
O29	O	1.252442	-0.017434	-0.304748
O30	O	1.752442	0.482566	0.195252
O31	O	1.208521	-0.300961	-0.088315
O32	O	1.708521	0.199039	0.411685
O33	O	1.134126	-0.293163	-0.200417
O34	O	1.634126	0.206837	0.299583
C35	C	0.974106	-0.149311	-0.184196
C36	C	1.474106	0.350689	0.315804
C37	C	0.889701	-0.163234	-0.201243
C38	C	1.389701	0.336766	0.298757
C39	C	0.563039	-0.011024	-0.014898
C40	C	1.063039	0.488976	0.485102
C41	C	0.483730	-0.024119	-0.030926
C42	C	0.983730	0.475881	0.469074
C43	C	0.503365	-0.103324	-0.127880
C44	C	1.003365	0.396676	0.372120
C45	C	0.582678	-0.090232	-0.111863
C46	C	1.082678	0.409768	0.388137
C47	C	0.612508	-0.044082	-0.055370
C48	C	1.112508	0.455918	0.444630
C49	C	0.632147	-0.123289	-0.152335
C50	C	1.132147	0.376711	0.347665
C51	C	0.711452	-0.110201	-0.136316
C52	C	1.211452	0.389799	0.363684
C53	C	0.741288	-0.064056	-0.079824
C54	C	1.241288	0.435944	0.420176
C55	C	0.691813	-0.030994	-0.039351
C56	C	1.191813	0.469006	0.460649
C57	C	0.602314	-0.169444	-0.208823
C58	C	1.102314	0.330556	0.291177
C59	C	0.651783	-0.202502	-0.249296
C60	C	1.151783	0.297498	0.250704
C61	C	0.731091	-0.189409	-0.233281
C62	C	1.231091	0.310591	0.266719
C63	C	0.760927	-0.143264	-0.176789
C64	C	1.260927	0.356736	0.323211
C65	C	0.780566	-0.222471	-0.273754
C66	C	1.280566	0.277529	0.226246
C67	C	0.859871	-0.209383	-0.257735
C68	C	1.359871	0.290617	0.242265
C69	C	0.840232	-0.130176	-0.160770
C70	C	1.340232	0.369824	0.339230
C71	C	1.171333	-0.326314	-0.144374
C72	C	1.671333	0.173686	0.355626
C73	C	1.171374	-0.415926	-0.144378
C74	C	1.671374	0.084074	0.355622
C75	C	1.171522	-0.744060	-0.144431
C76	C	1.671522	-0.244060	0.355569
C77	C	1.171479	-0.652763	-0.144419
C78	C	1.671479	-0.152763	0.355581
C79	C	1.171448	-0.579996	-0.144404
C80	C	1.671448	-0.079996	0.355596
C81	C	1.171406	-0.488693	-0.144393
C82	C	1.671406	0.011307	0.355607
C83	C	1.369487	-0.084169	-0.104432
C84	C	1.869487	0.415831	0.395568
C85	C	1.453895	-0.070262	-0.087404
C86	C	1.953895	0.429738	0.412596
C87	C	1.211513	-0.067611	-0.342476
C88	C	1.711513	0.432389	0.157524
C89	C	1.228602	-0.046647	-0.426888
C90	C	1.728602	0.453353	0.073112
C91	C	1.171514	0.093533	-0.144422
C92	C	1.671514	0.593533	0.355578
C93	C	1.171558	0.183166	-0.144434
C94	C	1.671558	0.683166	0.355566
C95	C	1.041880	-0.275571	-0.753453
C96	C	1.541880	0.224429	-0.253453
C97	C	1.057954	-0.255860	-0.832768
C98	C	1.557954	0.244140	-0.332768
C99	C	1.155128	-0.136723	-0.813179
C100	C	1.655128	0.363277	-0.313179
C101	C	1.139059	-0.156422	-0.733861
C102	C	1.639059	0.343578	-0.233861
C103	C	1.082435	-0.225847	-0.704005
C104	C	1.582435	0.274153	-0.204005
C105	C	1.179615	-0.106698	-0.684413
C106	C	1.679615	0.393302	-0.184413
C107	C	1.163551	-0.126397	-0.605102
C108	C	1.663551	0.373603	-0.105102
C109	C	1.106931	-0.195821	-0.575239
C110	C	1.606931	0.304179	-0.075239
C111	C	1.066371	-0.245547	-0.624694
C112	C	1.566371	0.254453	-0.124694
C113	C	1.236243	-0.037276	-0.714270
C114	C	1.736243	0.462724	-0.214270
C115	C	1.276798	0.012448	-0.664822
C116	C	1.776798	0.512448	-0.164822
C117	C	1.260730	-0.007248	-0.585510
C118	C	1.760730	0.492752	-0.085510
C119	C	1.204111	-0.076672	-0.555647
C120	C	1.704111	0.423328	-0.055647
C121	C	1.301290	0.042478	-0.536055
C122	C	1.801290	0.542478	-0.036055
C123	C	1.285226	0.022778	-0.456744
C124	C	1.785226	0.522778	0.043256
C125	C	1.188046	-0.096371	-0.476336
C126	C	1.688046	0.403629	0.023664
C127	C	1.131509	-0.165740	0.052931
C128	C	1.631509	0.334260	0.552931
C129	C	1.114568	-0.186451	0.137372
C130	C	1.614568	0.313549	0.637372
H131	H	0.805864	-0.053403	-0.066781
H132	H	1.305864	0.446597	0.433219
Cl133	Cl	0.600547	0.047001	0.056118
Cl134	Cl	1.100547	0.547001	0.556118
H135	H	1.020244	-0.302064	-0.600388
H136	H	1.520244	0.197936	-0.100388
H137	H	1.249322	-0.021240	-0.778850
H138	H	1.749322	0.478760	-0.278850
H139	H	1.322904	0.068973	-0.689141
H140	H	1.822904	0.568973	-0.189141
Cl141	Cl	0.421540	0.017438	0.019966
Cl142	Cl	0.921540	0.517438	0.519966
H143	H	0.756265	-0.260053	-0.319745
H144	H	1.256265	0.239947	0.180255
H145	H	1.318249	0.063269	-0.416482
H146	H	1.818249	0.563269	0.083518
H147	H	0.537739	-0.180099	-0.221864
H148	H	1.037739	0.319901	0.278136
H149	H	0.864523	-0.092581	-0.114780
H150	H	1.364523	0.407419	0.385220
Cl151	Cl	1.226311	-0.049450	-0.850720
Cl152	Cl	1.726311	0.450550	-0.350720
Cl153	Cl	0.729321	0.027031	0.031664
Cl154	Cl	1.229321	0.527031	0.531664
H155	H	0.479066	-0.140902	-0.173874
H156	H	0.979066	0.359098	0.326126
Cl157	Cl	0.614273	-0.260528	-0.320303
Cl158	Cl	1.114273	0.239472	0.179697
H159	H	1.347399	0.098999	-0.560375
H160	H	1.847399	0.598999	-0.060375
H161	H	1.141919	-0.152888	-0.452030
H162	H	1.641919	0.347112	0.047970
Cl163	Cl	1.086738	-0.220592	-0.475532
Cl164	Cl	1.586738	0.279408	0.024468
Cl165	Cl	0.922064	-0.250945	-0.308613
Cl166	Cl	1.422064	0.249055	0.191387
H167	H	0.995753	-0.332088	-0.729147
H168	H	1.495753	0.167912	-0.229147
Cl169	Cl	1.006960	-0.318377	-0.894931
Cl170	Cl	1.506960	0.181623	-0.394931
