data_functionalizedCrystal
_audit_creation_method	'MofGen! by Chris Wilmer'
_symmetry_space_group_name_H-M	'P1'
_symmetry_Int_Tables_number	1
_symmetry_cell_setting	triclinic
loop_
_symmetry_equiv_pos_as_xyz
  x,y,z
_cell_length_a	12.827893
_cell_length_b	29.839131
_cell_length_c	12.827885
_cell_angle_alpha	89.963179
_cell_angle_beta	89.980728
_cell_angle_gamma	90.041391
loop_
_atom_site_label
_atom_site_type_symbol
_atom_site_fract_x
_atom_site_fract_y
_atom_site_fract_z
Zn1	Zn	1.597481	-0.178832	-0.590798
Zn2	Zn	2.097481	0.321168	-0.090798
Zn3	Zn	1.597295	-0.253969	-0.416036
Zn4	Zn	2.097295	0.246031	0.083964
Zn5	Zn	1.422722	-0.178854	-0.416071
Zn6	Zn	1.922722	0.321146	0.083929
Zn7	Zn	1.422628	-0.253936	-0.590736
Zn8	Zn	1.922628	0.246064	-0.090736
O9	O	1.510031	-0.216398	-0.503410
O10	O	2.010031	0.283602	-0.003410
O11	O	1.743692	-0.188804	-0.567626
O12	O	2.243692	0.311196	-0.067626
O13	O	1.574100	-0.244028	-0.269805
O14	O	2.074100	0.255972	0.230195
O15	O	1.446021	-0.115984	-0.439289
O16	O	1.946021	0.384016	0.060711
O17	O	1.743556	-0.244007	-0.439230
O18	O	2.243556	0.255993	0.060770
O19	O	1.574415	-0.115968	-0.567660
O20	O	2.074415	0.384032	-0.067660
O21	O	1.445841	-0.188841	-0.269830
O22	O	1.945841	0.311159	0.230170
O23	O	1.276473	-0.188809	-0.439230
O24	O	1.776473	0.311191	0.060770
O25	O	1.445861	-0.243950	-0.736981
O26	O	1.945861	0.256050	-0.236981
O27	O	1.276404	-0.243971	-0.567556
O28	O	1.776404	0.256029	-0.067556
O29	O	1.574324	-0.188771	-0.737026
O30	O	2.074324	0.311229	-0.237026
O31	O	1.574008	-0.316832	-0.439170
O32	O	2.074008	0.183168	0.060830
O33	O	1.445681	-0.316807	-0.567522
O34	O	1.945681	0.183193	-0.067522
C35	C	1.238522	-0.216389	-0.503390
C36	C	1.738522	0.283611	-0.003390
C37	C	1.122368	-0.216396	-0.503407
C38	C	1.622368	0.283604	-0.003407
C39	C	1.509843	-0.333120	-0.503359
C40	C	2.009843	0.166880	-0.003359
C41	C	1.509858	-0.383055	-0.503371
C42	C	2.009858	0.116945	-0.003371
C43	C	1.070577	-0.243735	-0.566808
C44	C	1.570577	0.256265	-0.066808
C45	C	0.950527	-0.243743	-0.566827
C46	C	1.450527	0.256257	-0.066827
C47	C	1.576973	-0.692698	-0.436675
C48	C	2.076973	-0.192698	0.063325
C49	C	1.577102	-0.880371	-0.436716
C50	C	2.077102	-0.380371	0.063284
O51	O	1.634016	-0.904636	-0.379969
O52	O	2.134016	-0.404636	0.120031
N53	N	1.510248	-0.903840	-0.503489
N54	N	2.010248	-0.403840	-0.003489
C55	C	1.443362	-0.880387	-0.570262
C56	C	1.943362	-0.380387	-0.070262
O57	O	1.386509	-0.904655	-0.627065
O58	O	1.886509	-0.404655	-0.127065
C59	C	1.443239	-0.692715	-0.570226
C60	C	1.943239	-0.192715	-0.070226
C61	C	1.510090	-0.669249	-0.503441
C62	C	2.010090	-0.169249	-0.003441
C63	C	1.643819	-0.669232	-0.369897
C64	C	2.143819	-0.169232	0.130103
C65	C	1.643782	-0.622317	-0.369883
C66	C	2.143782	-0.122317	0.130117
C67	C	1.576899	-0.598867	-0.436648
C68	C	2.076899	-0.098867	0.063352
C69	C	1.510053	-0.622333	-0.503427
C70	C	2.010053	-0.122333	-0.003427
C71	C	1.376359	-0.669263	-0.637003
C72	C	1.876359	-0.169263	-0.137003
C73	C	1.376336	-0.622342	-0.636990
C74	C	1.876336	-0.122342	-0.136990
C75	C	1.443187	-0.598876	-0.570205
C76	C	1.943187	-0.098876	-0.070205
C77	C	1.443133	-0.551969	-0.570179
C78	C	1.943133	-0.051969	-0.070179
N79	N	1.509987	-0.528500	-0.503406
N80	N	2.009987	-0.028500	-0.003406
C81	C	1.576870	-0.551949	-0.436641
C82	C	2.076870	-0.051949	0.063359
C83	C	1.443430	-0.978918	-0.570274
C84	C	1.943430	-0.478918	-0.070274
C85	C	1.443459	-1.025835	-0.570282
C86	C	1.943459	-0.525835	-0.070282
C87	C	1.577201	-1.025816	-0.436738
C88	C	2.077201	-0.525816	0.063262
C89	C	1.577165	-0.978898	-0.436725
C90	C	2.077165	-0.478898	0.063275
C91	C	1.510284	-0.955449	-0.503501
C92	C	2.010284	-0.455449	-0.003501
C93	C	1.576787	-0.453424	-0.436617
C94	C	2.076787	0.046576	0.063383
C95	C	1.576741	-0.406504	-0.436606
C96	C	2.076741	0.093496	0.063394
C97	C	1.443004	-0.406527	-0.570154
C98	C	1.943004	0.093473	-0.070154
C99	C	1.443045	-0.453443	-0.570161
C100	C	1.943045	0.046557	-0.070161
C101	C	1.509945	-0.476890	-0.503389
C102	C	2.009945	0.023110	-0.003389
O103	O	1.386257	-0.527675	-0.626905
O104	O	1.886257	-0.027675	-0.126905
O105	O	1.633731	-0.527674	-0.379862
O106	O	2.133731	-0.027674	0.120138
C107	C	1.577010	-0.739614	-0.436689
C108	C	2.077010	-0.239614	0.063311
C109	C	1.510164	-0.763080	-0.503468
C110	C	2.010164	-0.263080	-0.003468
C111	C	1.443281	-0.739630	-0.570233
C112	C	1.943281	-0.239630	-0.070233
C113	C	1.510193	-0.809997	-0.503476
C114	C	2.010193	-0.309997	-0.003476
C115	C	1.577076	-0.833447	-0.436710
C116	C	2.077076	-0.333447	0.063290
C117	C	1.643930	-0.809978	-0.369937
C118	C	2.143930	-0.309978	0.130063
C119	C	1.643893	-0.763063	-0.369924
C120	C	2.143893	-0.263063	0.130076
C121	C	1.376427	-0.763099	-0.637006
C122	C	1.876427	-0.263099	-0.137006
C123	C	1.376468	-0.810014	-0.637013
C124	C	1.876468	-0.310014	-0.137013
C125	C	1.443351	-0.833464	-0.570248
C126	C	1.943351	-0.333464	-0.070248
C127	C	1.782602	-0.216407	-0.503431
C128	C	2.282602	0.283593	-0.003431
C129	C	1.898755	-0.216410	-0.503440
C130	C	2.398755	0.283590	-0.003440
C131	C	1.510103	-0.216354	-0.775981
C132	C	2.010103	0.283646	-0.275981
C133	C	1.510133	-0.216336	-0.892134
C134	C	2.010133	0.283664	-0.392134
C135	C	1.510249	-0.099219	-0.503485
C136	C	2.010249	0.400781	-0.003485
C137	C	1.510342	-0.049285	-0.503517
C138	C	2.010342	0.450715	-0.003517
C139	C	1.573708	-0.189027	-0.943941
C140	C	2.073708	0.310973	-0.443941
C141	C	1.573740	-0.189007	-1.063991
C142	C	2.073740	0.310993	-0.563991
C143	C	1.510021	-0.216408	-0.231900
C144	C	2.010021	0.283592	0.268100
C145	C	1.510193	-0.216300	-0.115748
C146	C	2.010193	0.283700	0.384252
H147	H	1.115113	-0.267133	-0.621079
H148	H	1.615113	0.232867	-0.121079
N149	N	0.957746	-0.185403	-0.431542
N150	N	1.457746	0.314597	0.068458
H151	H	0.938856	-0.153307	-0.447899
H152	H	1.438856	0.346693	0.052101
H153	H	0.938742	-0.192372	-0.356858
H154	H	1.438742	0.307628	0.143142
H155	H	1.628108	-0.165659	-0.899418
H156	H	2.128108	0.334341	-0.399418
H157	H	0.905987	-0.267150	-0.621104
H158	H	1.405987	0.232850	-0.121104
H159	H	1.388613	-0.472550	-0.624546
H160	H	1.888613	0.027450	-0.124546
N161	N	1.649338	-1.051112	-0.364722
N162	N	2.149338	-0.551112	0.135278
H163	H	1.639206	-1.084394	-0.374867
H164	H	2.139206	-0.584394	0.125133
H165	H	1.723957	-1.042877	-0.381058
H166	H	2.223957	-0.542877	0.118942
N167	N	1.063388	-0.185402	-0.431511
N168	N	1.563388	0.314598	0.068489
H169	H	1.018145	-0.164624	-0.474109
H170	H	1.518145	0.335376	0.025891
H171	H	1.018119	-0.203692	-0.383073
H172	H	1.518119	0.296308	0.116927
H173	H	1.698289	-0.688320	-0.315528
H174	H	2.198289	-0.188320	0.184472
N175	N	1.438082	-0.247275	-1.056763
N176	N	1.938082	0.252725	-0.556763
H177	H	1.480535	-0.268087	-1.011467
H178	H	1.980535	0.231913	-0.511467
H179	H	1.389728	-0.228975	-1.011546
H180	H	1.889728	0.271025	-0.511546
H181	H	1.631178	-0.387399	-0.382218
H182	H	2.131178	0.112601	0.117782
H183	H	1.631265	-0.472509	-0.382247
H184	H	2.131265	0.027491	0.117753
N185	N	1.645849	-0.158037	-1.122994
N186	N	2.145849	0.341963	-0.622994
H187	H	1.635653	-0.162414	-1.200390
H188	H	2.135653	0.337586	-0.700390
H189	H	1.629656	-0.125947	-1.103991
H190	H	2.129656	0.374053	-0.603991
H191	H	1.455722	-0.239699	-0.936657
H192	H	1.955722	0.260301	-0.436657
H193	H	1.698221	-0.603213	-0.315504
H194	H	2.198221	-0.103213	0.184496
N195	N	1.649271	-0.953589	-0.364698
N196	N	2.149271	-0.453589	0.135302
H197	H	1.691641	-0.975568	-0.322407
H198	H	2.191641	-0.475568	0.177593
H199	H	1.697600	-0.934091	-0.407275
H200	H	2.197600	-0.434091	0.092725
N201	N	1.371338	-1.051143	-0.642296
N202	N	1.871338	-0.551143	-0.142296
H203	H	1.328968	-1.029164	-0.684587
H204	H	1.828968	-0.529164	-0.184587
H205	H	1.413855	-1.070577	-0.690703
H206	H	1.913855	-0.570577	-0.190703
H207	H	1.388964	-0.959829	-0.624653
H208	H	1.888964	-0.459829	-0.124653
H209	H	1.321917	-0.688361	-0.691381
H210	H	1.821917	-0.188361	-0.191381
H211	H	1.321874	-0.603252	-0.691370
H212	H	1.821874	-0.103252	-0.191370
N213	N	1.370861	-0.381231	-0.642156
N214	N	1.870861	0.118769	-0.142156
H215	H	1.380990	-0.347949	-0.632010
H216	H	1.880990	0.152051	-0.132010
H217	H	1.387092	-0.389398	-0.716807
H218	H	1.887092	0.110602	-0.216807
H219	H	1.698386	-0.829079	-0.315572
H220	H	2.198386	-0.329079	0.184428
N221	N	1.716003	-0.737756	-0.297897
N222	N	2.216003	-0.237756	0.202103
H223	H	1.758375	-0.759737	-0.255613
H224	H	2.258375	-0.259737	0.244387
H225	H	1.764329	-0.718257	-0.340476
H226	H	2.264329	-0.218257	0.159524
H227	H	1.322021	-0.829116	-0.691397
H228	H	1.822021	-0.329116	-0.191397
H229	H	1.321964	-0.744010	-0.691376
H230	H	1.821964	-0.244010	-0.191376
