data_functionalizedCrystal
_audit_creation_method	'MofGen! by Chris Wilmer'
_symmetry_space_group_name_H-M	'P1'
_symmetry_Int_Tables_number	1
_symmetry_cell_setting	triclinic
loop_
_symmetry_equiv_pos_as_xyz
  x,y,z
_cell_length_a	19.077105
_cell_length_b	19.076808
_cell_length_c	11.169409
_cell_angle_alpha	92.337422
_cell_angle_beta	92.320653
_cell_angle_gamma	89.927608
loop_
_atom_site_label
_atom_site_type_symbol
_atom_site_fract_x
_atom_site_fract_y
_atom_site_fract_z
Zn1	Zn	1.063033	-0.322934	0.729201
Zn2	Zn	1.058214	-0.440468	0.520111
Zn3	Zn	0.945516	-0.318247	0.520804
Zn4	Zn	0.940771	-0.435684	0.713036
O5	O	1.001883	-0.379333	0.620788
O6	O	1.160725	-0.342489	0.707940
O7	O	1.043234	-0.424296	0.352248
O8	O	0.965107	-0.220533	0.555504
O9	O	1.157185	-0.428841	0.554322
O10	O	1.051446	-0.223976	0.708612
O11	O	0.960435	-0.334501	0.352758
O12	O	0.846554	-0.329861	0.539829
O13	O	0.957020	-0.420686	0.883135
O14	O	0.843068	-0.416141	0.681061
O15	O	1.046845	-0.337850	0.895012
O16	O	1.038633	-0.538170	0.538648
O17	O	0.952348	-0.534654	0.680389
C18	C	0.819315	-0.371974	0.608767
C19	C	0.741211	-0.368842	0.603652
C20	C	0.702718	-0.412361	0.674655
C21	C	0.629331	-0.409409	0.669855
C22	C	0.594438	-0.362942	0.594044
C23	C	0.632936	-0.319419	0.523038
C24	C	0.706322	-0.322368	0.527846
C25	C	0.375152	-0.349296	0.571801
C26	C	0.301761	-0.346352	0.566997
C27	C	0.298161	-0.436341	0.713815
C28	C	0.371548	-0.439289	0.718611
C29	C	0.410040	-0.395763	0.647609
N30	N	0.519425	-0.359926	0.589133
N31	N	0.485052	-0.398777	0.652528
C32	C	0.994472	-0.561910	0.607717
C33	C	0.991365	-0.640020	0.602169
C34	C	1.034825	-0.678447	0.679338
C35	C	1.031903	-0.751840	0.674127
C36	C	0.985525	-0.786803	0.591741
C37	C	0.942061	-0.748371	0.514568
C38	C	0.944980	-0.674980	0.519786
C39	C	0.971976	-1.006114	0.567587
C40	C	0.969063	-1.079510	0.562373
C41	C	1.058904	-1.082974	0.721934
C42	C	1.061821	-1.009581	0.727139
C43	C	1.018355	-0.971155	0.649971
N44	N	0.982539	-0.861822	0.586410
N45	N	1.021338	-0.896137	0.655309
C46	C	1.185165	-0.386722	0.632857
C47	C	1.263268	-0.389870	0.638000
C48	C	1.001940	-0.379257	0.933840
C49	C	1.001965	-0.379225	1.067244
C50	C	1.009343	-0.196044	0.633938
C51	C	1.012522	-0.117937	0.639542
C52	C	1.001869	-0.379360	0.308961
C53	C	1.001989	-0.379200	0.175580
H54	H	0.731122	-0.450201	0.736384
H55	H	1.094291	-1.114268	0.784761
H56	H	0.936586	-0.974833	0.504752
H57	H	0.273354	-0.308505	0.505271
C58	C	0.918039	-1.117969	0.471753
H59	H	0.892565	-1.084573	0.426550
H60	H	0.943794	-1.147682	0.419230
H61	H	0.886273	-1.145371	0.513587
H62	H	1.067297	-0.783124	0.736957
C63	C	1.112848	-0.971126	0.817746
H64	H	1.138313	-1.004524	0.862959
H65	H	1.144612	-0.943730	0.775907
H66	H	1.087099	-0.941408	0.870279
H67	H	0.604521	-0.281582	0.461317
H68	H	0.904297	-0.776844	0.447492
H69	H	0.909590	-0.643693	0.456948
H70	H	1.072593	-0.649985	0.746421
C71	C	0.586990	-0.457322	0.747882
H72	H	0.618281	-0.485436	0.793686
H73	H	0.559444	-0.429366	0.800322
H74	H	0.557130	-0.486747	0.697746
H75	H	0.399952	-0.477128	0.780341
H76	H	0.266813	-0.471776	0.771622
C77	C	0.417487	-0.301424	0.493700
H78	H	0.466191	-0.309826	0.507426
H79	H	0.405022	-0.311170	0.411511
H80	H	0.407376	-0.253736	0.514000
H81	H	0.737662	-0.286927	0.470034
