data_functionalizedCrystal
_audit_creation_method	'MofGen! by Chris Wilmer'
_symmetry_space_group_name_H-M	'P1'
_symmetry_Int_Tables_number	1
_symmetry_cell_setting	triclinic
loop_
_symmetry_equiv_pos_as_xyz
  x,y,z
_cell_length_a	14.971506
_cell_length_b	10.654558
_cell_length_c	13.448316
_cell_angle_alpha	89.993322
_cell_angle_beta	89.992937
_cell_angle_gamma	84.055273
loop_
_atom_site_label
_atom_site_type_symbol
_atom_site_fract_x
_atom_site_fract_y
_atom_site_fract_z
O1	O	1.187831	0.163780	-0.082699
O2	O	0.927540	0.183351	-0.082700
O3	O	1.063666	-0.009237	-0.082693
O4	O	1.051704	0.356368	-0.082706
O5	O	1.063649	-0.009249	0.082691
O6	O	0.927523	0.183340	0.082684
O7	O	1.187813	0.163768	0.082685
Cu8	Cu	1.057666	0.173553	0.097785
Cu9	Cu	1.057687	0.173567	-0.097800
O10	O	1.051687	0.356356	0.082678
C11	C	0.894202	0.182466	-0.000008
C12	C	0.794892	0.179829	-0.000008
C13	C	0.357172	0.282909	-0.000022
C14	C	0.450486	0.285377	-0.000026
C15	C	0.507088	0.172224	-0.000018
C16	C	0.470372	0.056596	-0.000015
C17	C	0.377060	0.054130	-0.000017
C18	C	0.664863	0.061744	-0.000006
C19	C	0.758181	0.064210	-0.000002
C20	C	0.738289	0.292991	-0.000015
C21	C	0.644977	0.290525	-0.000018
C22	C	0.608267	0.174897	-0.000013
C23	C	1.062778	-0.056031	-0.000001
C24	C	1.060146	-0.195446	-0.000002
C25	C	1.058898	-0.260961	0.090145
C26	C	1.056433	-0.391957	0.090135
C27	C	1.056458	-0.391912	-0.090175
C28	C	1.058930	-0.260919	-0.090165
C29	C	1.105351	-0.580540	0.198432
C30	C	1.104088	-0.646056	0.288584
C31	C	1.052560	-0.594024	0.368183
C32	C	1.002272	-0.476474	0.357634
C33	C	1.003527	-0.410963	0.267481
C34	C	1.055077	-0.462997	0.187886
C35	C	1.010004	-0.072332	-0.198456
C36	C	1.011252	-0.006817	-0.288610
C37	C	1.062775	-0.058846	-0.368217
C38	C	1.113049	-0.176398	-0.357678
C39	C	1.111801	-0.241912	-0.267524
C40	C	1.060280	-0.189875	-0.187916
C41	C	1.221151	0.164653	-0.000009
C42	C	1.320462	0.167290	-0.000016
C43	C	1.052576	0.403150	-0.000016
C44	C	1.055208	0.542565	-0.000022
N45	N	1.057659	0.173542	0.235350
N46	N	1.057702	0.173567	-0.235365
C47	C	1.117954	0.088299	0.287393
C48	C	1.117960	0.088298	0.391496
C49	C	1.057673	0.173547	0.443554
C50	C	0.997371	0.258794	0.391503
C51	C	0.997362	0.258788	0.287402
C52	C	0.997396	0.258802	0.608483
C53	C	0.997406	0.258810	0.712592
C54	C	1.117994	0.088312	0.712578
C55	C	1.117985	0.088306	0.608476
C56	C	1.057683	0.173555	0.556433
H57	H	1.059880	-0.207655	0.163561
C58	C	0.624485	-0.065454	0.000001
N59	N	0.594072	-0.161257	0.000012
H60	H	0.768182	0.387140	-0.000019
C61	C	0.931047	0.352557	0.448771
N62	N	0.881089	0.423181	0.491904
C63	C	1.159326	-0.775424	0.300147
N64	N	1.200896	-0.872889	0.308845
H65	H	0.516464	-0.035535	-0.000013
H66	H	1.063747	-0.005523	-0.441642
H67	H	1.152734	-0.337636	-0.258950
H68	H	0.347172	-0.040019	-0.000014
H69	H	1.147323	-0.622910	0.133627
H70	H	0.968052	-0.029952	-0.133633
H71	H	1.055466	-0.445235	-0.163583
C72	C	0.820442	-0.060264	-0.000006
N73	N	0.867337	-0.154020	-0.000013
H74	H	0.948314	0.328227	0.754972
H75	H	0.962604	-0.315240	0.258901
C76	C	0.294918	0.407389	-0.000029
N77	N	0.248030	0.501151	-0.000039
C78	C	1.169730	-0.233633	-0.445249
N79	N	1.212421	-0.276739	-0.511211
H80	H	1.167057	0.018886	0.433870
H81	H	0.960307	-0.434124	0.422451
C82	C	0.931039	0.352572	0.230155
N83	N	0.881083	0.423213	0.187037
C84	C	1.184303	-0.005471	0.551215
N85	N	1.234253	-0.076110	0.508085
H86	H	0.948289	0.328217	0.566113
C87	C	0.955946	0.122494	-0.300201
N88	N	0.914292	0.219891	-0.308930
H89	H	1.167093	0.018900	0.754958
C90	C	0.490862	0.412567	-0.000019
N91	N	0.521272	0.508372	-0.000009
C92	C	1.051162	-0.666107	0.467344
N93	N	1.050110	-0.720408	0.542029
C94	C	1.184275	-0.005484	0.230139
N95	N	1.234227	-0.076128	0.187018
H96	H	0.598893	0.382664	-0.000019
