data_functionalizedCrystal
_audit_creation_method	'MofGen! by Chris Wilmer'
_symmetry_space_group_name_H-M	'P1'
_symmetry_Int_Tables_number	1
_symmetry_cell_setting	triclinic
loop_
_symmetry_equiv_pos_as_xyz
  x,y,z
_cell_length_a	13.635800
_cell_length_b	11.102244
_cell_length_c	11.102291
_cell_angle_alpha	88.051419
_cell_angle_beta	108.605752
_cell_angle_gamma	71.395130
loop_
_atom_site_label
_atom_site_type_symbol
_atom_site_fract_x
_atom_site_fract_y
_atom_site_fract_z
V1	V	2.055766	-0.175854	0.396256
O2	O	2.035286	0.008434	0.388716
O3	O	2.044152	-0.348674	0.393542
O4	O	2.044159	-0.173157	0.569078
O5	O	2.035279	-0.168298	0.211965
V6	V	2.294318	-0.153810	0.374213
O7	O	2.193437	-0.224209	0.444607
O8	O	2.381746	-0.105455	0.325862
O9	O	2.194329	0.019009	0.376927
O10	O	2.373497	-0.338099	0.381753
O11	O	2.373504	-0.161367	0.558504
O12	O	2.194322	-0.156508	0.201391
V13	V	2.555766	-0.175854	0.396256
O14	O	2.535286	0.008434	0.388716
O15	O	2.544152	-0.348674	0.393542
O16	O	2.544159	-0.173157	0.569078
O17	O	2.535279	-0.168298	0.211965
V18	V	2.794318	-0.153810	0.374213
O19	O	2.693437	-0.224209	0.444607
O20	O	2.881746	-0.105455	0.325862
O21	O	2.694329	0.019009	0.376927
O22	O	2.873497	-0.338099	0.381753
O23	O	2.873504	-0.161367	0.558504
O24	O	2.694322	-0.156508	0.201391
C25	C	1.969306	-0.390803	0.387290
C26	C	2.000537	-0.532086	0.386224
C27	C	1.985123	-0.580316	0.269343
C28	C	2.014475	-0.713068	0.268355
C29	C	2.074652	-0.749350	0.501140
C30	C	2.045307	-0.616600	0.502127
C31	C	1.950376	-0.559369	0.134946
C32	C	1.979728	-0.692122	0.133958
C33	C	1.969314	-0.166912	0.611202
C34	C	2.000549	-0.165850	0.752485
C35	C	2.100846	0.061132	0.383175
C36	C	2.059234	0.202413	0.384250
C37	C	2.100837	-0.162757	0.159261
C38	C	2.059221	-0.163813	0.017976
C39	C	2.469306	-0.390803	0.387290
C40	C	2.500537	-0.532086	0.386224
C41	C	2.469314	-0.166912	0.611202
C42	C	2.500549	-0.165850	0.752485
C43	C	2.107226	-0.171689	0.825333
C44	C	2.136562	-0.170666	0.958079
C45	C	1.952534	-0.157969	0.945118
C46	C	1.923197	-0.158983	0.812373
C47	C	2.213475	-0.179025	0.832818
C48	C	2.242811	-0.178002	0.965564
C49	C	2.600846	0.061132	0.383175
C50	C	2.559234	0.202413	0.384250
C51	C	2.600837	-0.162757	0.159261
C52	C	2.559221	-0.163813	0.017976
C53	C	2.607213	-0.604934	0.392062
C54	C	2.636555	-0.737685	0.391071
C55	C	2.452533	-0.724726	0.378397
C56	C	2.423195	-0.591979	0.379397
C57	C	2.713456	-0.612416	0.399374
C58	C	2.742798	-0.745167	0.398383
C59	C	2.607226	-0.171689	0.825333
C60	C	2.636562	-0.170666	0.958079
C61	C	2.452534	-0.157969	0.945118
C62	C	2.423197	-0.158983	0.812373
C63	C	2.713475	-0.179025	0.832818
C64	C	2.742811	-0.178002	0.965564
H65	H	2.057870	-0.577338	0.597303
Cl66	Cl	2.853739	-0.319870	1.047162
Cl67	Cl	2.355301	-0.149340	1.020416
Cl68	Cl	2.787113	-0.325350	0.795034
H69	H	2.713490	-0.559185	0.309766
Cl70	Cl	2.770968	-0.038692	1.010510
Cl71	Cl	2.026534	-0.498997	0.063204
Cl72	Cl	2.289090	-0.500406	0.372081
H73	H	2.261043	-0.087765	0.994667
H74	H	1.836334	-0.154230	0.753065
H75	H	1.857616	-0.506566	0.088529
H76	H	2.111107	-0.818177	0.595504
H77	H	2.336334	-0.154230	0.753065
Cl78	Cl	2.799803	-0.582735	0.542079
H79	H	2.314658	-0.269896	1.018409
H80	H	2.723214	-0.092764	0.785723
H81	H	1.889560	-0.152376	0.993895
H82	H	2.050929	-0.731921	0.096966
Cl83	Cl	1.862380	-0.727669	0.046380
H84	H	2.223214	-0.092764	0.785723
Cl85	Cl	2.844424	-0.834527	0.543817
Cl86	Cl	2.355311	-0.800031	0.369816
H87	H	2.261171	-0.273803	0.808352
Cl88	Cl	2.782401	-0.783722	0.264349
