data_functionalizedCrystal
_audit_creation_method	'MofGen! by Chris Wilmer'
_symmetry_space_group_name_H-M	'P1'
_symmetry_Int_Tables_number	1
_symmetry_cell_setting	triclinic
loop_
_symmetry_equiv_pos_as_xyz
  x,y,z
_cell_length_a	12.759401
_cell_length_b	12.759400
_cell_length_c	12.759393
_cell_angle_alpha	89.969553
_cell_angle_beta	89.981382
_cell_angle_gamma	90.013592
loop_
_atom_site_label
_atom_site_type_symbol
_atom_site_fract_x
_atom_site_fract_y
_atom_site_fract_z
Zn1	Zn	1.606267	-0.418192	-0.593993
Zn2	Zn	2.106267	0.081808	-0.093993
Zn3	Zn	1.606166	-0.593911	-0.418316
Zn4	Zn	2.106166	-0.093911	0.081684
Zn5	Zn	1.430569	-0.418248	-0.418332
Zn6	Zn	1.930569	0.081752	0.081668
Zn7	Zn	1.430562	-0.593831	-0.593958
Zn8	Zn	1.930562	-0.093831	-0.093958
O9	O	1.518391	-0.506046	-0.506150
O10	O	2.018391	-0.006046	-0.006150
O11	O	1.753274	-0.441512	-0.570697
O12	O	2.253274	0.058488	-0.070697
O13	O	1.582833	-0.570666	-0.271297
O14	O	2.082833	-0.070666	0.228703
O15	O	1.453920	-0.271220	-0.441655
O16	O	1.953920	0.228780	0.058345
O17	O	1.753200	-0.570612	-0.441629
O18	O	2.253200	-0.070612	0.058371
O19	O	1.583005	-0.271179	-0.570712
O20	O	2.083005	0.228821	-0.070712
O21	O	1.453822	-0.441607	-0.271309
O22	O	1.953822	0.058393	0.228691
O23	O	1.283547	-0.441530	-0.441621
O24	O	1.783547	0.058470	0.058379
O25	O	1.453909	-0.570475	-0.740983
O26	O	1.953909	-0.070475	-0.240983
O27	O	1.283542	-0.570530	-0.570652
O28	O	1.783542	-0.070530	-0.070652
O29	O	1.582998	-0.441434	-0.741009
O30	O	2.082998	0.058566	-0.241009
O31	O	1.582826	-0.740922	-0.441594
O32	O	2.082826	-0.240922	0.058406
O33	O	1.453811	-0.740863	-0.570637
O34	O	1.953811	-0.240863	-0.070637
C35	C	1.245423	-0.506028	-0.506135
C36	C	1.745423	-0.006028	-0.006135
C37	C	1.128647	-0.506045	-0.506153
C38	C	1.628647	-0.006045	-0.006153
C39	C	1.073824	-0.438944	-0.573463
C40	C	1.573824	0.061056	-0.073463
C41	C	0.964100	-0.438955	-0.573470
C42	C	1.464100	0.061045	-0.073470
C43	C	0.964031	-0.573177	-0.438855
C44	C	1.464031	-0.073177	0.061145
C45	C	1.073753	-0.573160	-0.438843
C46	C	1.573753	-0.073160	0.061157
C47	C	1.518336	-0.779013	-0.506133
C48	C	2.018336	-0.279013	-0.006133
C49	C	1.518408	-0.895790	-0.506161
C50	C	2.018408	-0.395790	-0.006161
C51	C	1.585589	-0.950551	-0.573416
C52	C	2.085589	-0.450551	-0.073416
C53	C	1.585638	-1.060275	-0.573442
C54	C	2.085638	-0.560275	-0.073442
C55	C	1.451322	-1.060467	-0.438948
C56	C	1.951322	-0.560467	0.061052
C57	C	1.451269	-0.950745	-0.438929
C58	C	1.951269	-0.450745	0.061071
C59	C	1.652728	-0.895595	-0.640649
C60	C	2.152728	-0.395595	-0.140649
C61	C	1.719915	-0.950356	-0.707909
C62	C	2.219915	-0.450356	-0.207909
C63	C	1.719964	-1.060080	-0.707934
C64	C	2.219964	-0.560080	-0.207934
C65	C	1.652826	-1.115043	-0.640700
C66	C	2.152826	-0.615043	-0.140700
C67	C	1.792424	-0.506065	-0.506165
C68	C	2.292424	-0.006065	-0.006165
C69	C	1.909201	-0.506073	-0.506172
C70	C	2.409201	-0.006073	-0.006172
C71	C	1.518464	-0.505940	-0.780183
C72	C	2.018464	-0.005940	-0.280183
C73	C	1.518496	-0.505895	-0.896960
C74	C	2.018496	-0.005895	-0.396960
C75	C	1.518475	-0.232012	-0.506189
C76	C	2.018475	0.267988	-0.006189
C77	C	1.518510	-0.115236	-0.506206
C78	C	2.018510	0.384764	-0.006206
C79	C	1.585722	-0.438696	-0.951837
C80	C	2.085722	0.061304	-0.451837
C81	C	1.585747	-0.438659	-1.061561
C82	C	2.085747	0.061341	-0.561561
C83	C	1.451316	-0.573026	-1.061521
C84	C	1.951316	-0.073026	-0.561521
C85	C	1.451287	-0.573058	-0.951799
C86	C	1.951287	-0.073058	-0.451799
C87	C	1.652930	-0.371533	-0.896998
C88	C	2.152930	0.128467	-0.396998
C89	C	1.720163	-0.304331	-0.951875
C90	C	2.220163	0.195669	-0.451875
C91	C	1.720188	-0.304293	-1.061600
C92	C	2.220188	0.195707	-0.561600
C93	C	1.652980	-0.371457	-1.116446
C94	C	2.152980	0.128543	-0.616446
C95	C	1.518378	-0.506076	-0.233182
C96	C	2.018378	-0.006076	0.266818
C97	C	1.518550	-0.505825	-0.116406
C98	C	2.018550	-0.005825	0.383594
H99	H	0.919323	-0.627820	-0.384054
H100	H	1.419323	-0.127820	0.115946
H101	H	1.652859	-1.204388	-0.640739
H102	H	2.152859	-0.704388	-0.140739
H103	H	1.652920	-0.371559	-0.807655
H104	H	2.152920	0.128441	-0.307655
F105	F	1.791354	-0.891860	-0.779470
F106	F	2.291354	-0.391860	-0.279470
F107	F	1.379875	-1.118966	-0.367397
F108	F	1.879875	-0.618966	0.132603
F109	F	1.132242	-0.367512	-0.645097
F110	F	1.632242	0.132488	-0.145097
F111	F	1.791672	-0.232840	-0.893502
F112	F	2.291672	0.267160	-0.393502
F113	F	1.132103	-0.644573	-0.367190
F114	F	1.632103	-0.144573	0.132810
H115	H	1.652994	-0.371409	-1.205791
H116	H	2.152994	0.128591	-0.705791
F117	F	0.905758	-0.367536	-0.645109
F118	F	1.405758	0.132464	-0.145109
F119	F	1.652661	-0.778818	-0.640648
F120	F	2.152661	-0.278818	-0.140648
F121	F	1.791458	-1.118358	-0.779527
F122	F	2.291458	-0.618358	-0.279527
F123	F	1.379770	-0.892461	-0.367345
F124	F	1.879770	-0.392461	0.132655
F125	F	1.791742	-0.232772	-1.120001
F126	F	2.291742	0.267228	-0.620001
F127	F	1.379797	-0.644505	-1.119897
F128	F	1.879797	-0.144505	-0.619897
F129	F	1.379736	-0.644576	-0.893391
F130	F	1.879736	-0.144576	-0.393391
