data_functionalizedCrystal
_audit_creation_method	'MofGen! by Chris Wilmer'
_symmetry_space_group_name_H-M	'P1'
_symmetry_Int_Tables_number	1
_symmetry_cell_setting	triclinic
loop_
_symmetry_equiv_pos_as_xyz
  x,y,z
_cell_length_a	17.699083
_cell_length_b	17.699083
_cell_length_c	16.176319
_cell_angle_alpha	89.992304
_cell_angle_beta	90.006703
_cell_angle_gamma	96.717152
loop_
_atom_site_label
_atom_site_type_symbol
_atom_site_fract_x
_atom_site_fract_y
_atom_site_fract_z
O1	O	-1.004079	0.095710	-0.068734
O2	O	-0.504079	0.595710	0.431266
O3	O	-0.783701	0.108163	-0.068739
O4	O	-0.283701	0.608163	0.431261
O5	O	-0.900116	-0.008252	-0.068729
O6	O	-0.400116	0.491748	0.431271
O7	O	-0.887664	0.212126	-0.068744
O8	O	-0.387664	0.712126	0.431256
O9	O	-0.900100	-0.008260	0.068764
O10	O	-0.400100	0.491740	0.568764
O11	O	-0.783685	0.108156	0.068754
O12	O	-0.283685	0.608156	0.568754
O13	O	-1.004063	0.095703	0.068759
O14	O	-0.504063	0.595703	0.568759
Cu15	Cu	-0.893872	0.101929	0.081311
Cu16	Cu	-0.393872	0.601929	0.581311
Cu17	Cu	-0.893891	0.101937	-0.081291
Cu18	Cu	-0.393891	0.601937	0.418709
O19	O	-0.887648	0.212119	0.068749
O20	O	-0.387648	0.712119	0.568749
C21	C	-0.755496	0.107713	0.000007
C22	C	-0.255496	0.607713	0.500007
C23	C	-0.671478	0.106375	0.000005
C24	C	-0.171478	0.606375	0.500005
C25	C	-0.632002	0.105740	0.074954
C26	C	-0.132002	0.605740	0.574954
C27	C	-0.553059	0.104471	0.074954
C28	C	-0.053059	0.604471	0.574954
C29	C	-0.513594	0.103841	0.000006
C30	C	-0.013594	0.603841	0.500006
C31	C	-0.553075	0.104474	-0.074948
C32	C	-0.053075	0.604474	0.425052
C33	C	-0.632017	0.105738	-0.074948
C34	C	-0.132017	0.605738	0.425052
C35	C	-0.234713	0.099375	-0.074950
C36	C	0.265287	0.599375	0.425050
C37	C	-0.155765	0.098113	-0.074945
C38	C	0.344235	0.598113	0.425055
C39	C	-0.155755	0.098107	0.074952
C40	C	0.344245	0.598107	0.574952
C41	C	-0.234697	0.099372	0.074952
C42	C	0.265303	0.599372	0.574952
C43	C	-0.274172	0.100000	-0.000001
C44	C	0.225828	0.600000	0.499999
C45	C	-0.359771	0.101375	-0.000001
C46	C	0.140229	0.601375	0.499999
C47	C	-0.427996	0.102472	0.000005
C48	C	0.072004	0.602472	0.500005
C49	C	-0.899662	-0.036453	0.000017
C50	C	-0.399662	0.463547	0.500017
C51	C	-0.898323	-0.120471	0.000018
C52	C	-0.398323	0.379529	0.500018
C53	C	-0.032269	0.096148	0.000010
C54	C	0.467731	0.596148	0.500010
C55	C	-0.116289	0.097472	0.000004
C56	C	0.383711	0.597472	0.500004
C57	C	-0.966657	-0.169092	0.000020
C58	C	-0.466657	0.330908	0.500020
C59	C	-0.965395	-0.248036	0.000013
C60	C	-0.465395	0.251964	0.500013
C61	C	-0.895798	-0.278356	0.000009
C62	C	-0.395798	0.221644	0.500009
C63	C	-0.827459	-0.229729	0.000004
C64	C	-0.327459	0.270271	0.500004
C65	C	-0.828722	-0.150787	0.000005
C66	C	-0.328722	0.349213	0.500005
C67	C	-0.822364	-0.548092	-0.000003
C68	C	-0.322364	-0.048092	0.499997
C69	C	-0.821106	-0.627040	-0.000002
C70	C	-0.321106	-0.127040	0.499998
C71	C	-0.959036	-0.645341	0.000005
C72	C	-0.459036	-0.145341	0.500005
C73	C	-0.960299	-0.566399	0.000006
C74	C	-0.460299	-0.066399	0.500006
C75	C	-0.891961	-0.517778	-0.000003
C76	C	-0.391961	-0.017778	0.499997
C77	C	-0.893331	-0.432179	0.000003
C78	C	-0.393331	0.067821	0.500003
C79	C	-0.894428	-0.363954	0.000009
C80	C	-0.394428	0.136046	0.500009
N81	N	-0.893865	0.101922	0.195676
N82	N	-0.393865	0.601922	0.695676
C83	C	-0.888102	0.240319	0.000001
C84	C	-0.388102	0.740319	0.500001
C85	C	-0.889441	0.324337	-0.000005
C86	C	-0.389441	0.824337	0.499995
N87	N	-0.893905	0.101938	-0.195656
N88	N	-0.393905	0.601938	0.304344
C89	C	-0.945429	0.050394	0.238945
C90	C	-0.445429	0.550394	0.738945
C91	C	-0.945433	0.050393	0.325492
C92	C	-0.445433	0.550393	0.825492
C93	C	-0.893875	0.101925	0.368769
C94	C	-0.393875	0.601925	0.868769
C95	C	-0.842306	0.153455	0.325494
C96	C	-0.342306	0.653455	0.825494
C97	C	-0.842299	0.153452	0.238948
C98	C	-0.342299	0.653452	0.738948
C99	C	-0.842332	0.153469	0.674522
C100	C	-0.342332	0.653469	1.174522
C101	C	-0.842344	0.153470	0.761074
C102	C	-0.342344	0.653470	1.261074
C103	C	-0.945466	0.050411	0.761065
C104	C	-0.445466	0.550411	1.261065
C105	C	-0.945459	0.050408	0.674520
C106	C	-0.445459	0.550408	1.174520
C107	C	-0.893887	0.101935	0.631253
C108	C	-0.393887	0.601935	1.131253
C109	C	-0.893882	0.101934	0.537409
C110	C	-0.393882	0.601934	1.037409
C111	C	-0.893883	0.101930	0.462611
C112	C	-0.393883	0.601930	0.962611
H113	H	-0.520937	0.103956	-0.135973
H114	H	-0.020937	0.603956	0.364027
C115	C	-0.747197	-0.494616	-0.000014
C116	C	-0.247197	0.005384	0.499986
H117	H	-0.757912	-0.443258	-0.000024
H118	H	-0.257912	0.056742	0.499976
H119	H	-0.718643	-0.503796	0.047929
H120	H	-0.218643	-0.003796	0.547929
H121	H	-0.718666	-0.503795	-0.047970
H122	H	-0.218666	-0.003795	0.452030
C123	C	-0.744549	-0.660395	-0.000013
C124	C	-0.244549	-0.160395	0.499987
H125	H	-0.753587	-0.714373	-0.000004
H126	H	-0.253587	-0.214373	0.499996
H127	H	-0.716427	-0.643695	-0.047964
H128	H	-0.216427	-0.143695	0.452036
H129	H	-0.716409	-0.643703	0.047936
H130	H	-0.216409	-0.143703	0.547936
H131	H	-0.664157	0.106256	-0.135979
H132	H	-0.164157	0.606256	0.364021
C133	C	-0.750905	-0.263080	0.000002
C134	C	-0.250905	0.236920	0.500002
H135	H	-0.759938	-0.317058	0.000010
H136	H	-0.259938	0.182942	0.500010
H137	H	-0.722778	-0.246377	-0.047945
H138	H	-0.222778	0.253623	0.452055
H139	H	-0.722772	-0.246385	0.047955
H140	H	-0.222772	0.253615	0.547955
C141	C	-0.753556	-0.097304	0.000004
C142	C	-0.253556	0.402696	0.500004
H143	H	-0.711925	-0.126667	0.000009
H144	H	-0.211925	0.373333	0.500009
H145	H	-0.751188	-0.066123	-0.047942
H146	H	-0.251188	0.433877	0.452058
H147	H	-0.751175	-0.066134	0.047957
H148	H	-0.251175	0.433866	0.547957
C149	C	-1.034210	-0.698822	0.000006
C150	C	-0.534210	-0.198822	0.500006
H151	H	-1.075839	-0.669456	0.000018
H152	H	-0.575839	-0.169456	0.500018
H153	H	-1.036595	-0.729992	-0.047942
H154	H	-0.536595	-0.229992	0.452058
H155	H	-1.036577	-0.730003	0.047958
H156	H	-0.536577	-0.230003	0.547958
C157	C	-0.112323	0.097473	0.157401
C158	C	0.387677	0.597473	0.657401
H159	H	-0.059654	0.096641	0.146671
H160	H	0.440346	0.596641	0.646671
H161	H	-0.119422	0.141819	0.188145
H162	H	0.380578	0.641819	0.688145
H163	H	-0.131090	0.053575	0.188245
H164	H	0.368910	0.553575	0.688245
C165	C	-1.002142	-0.006292	0.191347
C166	C	-0.502142	0.493708	0.691347
H167	H	-1.032847	-0.036985	0.229515
H168	H	-0.532847	0.463015	0.729515
H169	H	-1.033593	0.020891	0.157572
H170	H	-0.533593	0.520891	0.657572
H171	H	-0.974968	-0.037769	0.157601
H172	H	-0.474968	0.462231	0.657601
H173	H	-0.800341	0.195426	0.639301
H174	H	-0.300341	0.695426	1.139301
C175	C	-0.785581	0.210132	0.191349
C176	C	-0.285581	0.710132	0.691349
H177	H	-0.792956	0.202745	0.133608
H178	H	-0.292956	0.702745	0.633608
H179	H	-0.793703	0.260637	0.205519
H180	H	-0.293703	0.760637	0.705519
H181	H	-0.735086	0.201970	0.205547
H182	H	-0.235086	0.701970	0.705547
C183	C	-0.509638	0.103779	0.157397
C184	C	-0.009638	0.603779	0.657397
H185	H	-0.544447	0.104345	0.202033
H186	H	-0.044447	0.604345	0.702033
H187	H	-0.484699	0.059167	0.160523
H188	H	0.015301	0.559167	0.660523
H189	H	-0.472986	0.147410	0.160505
H190	H	0.027014	0.647410	0.660505
H191	H	-1.023330	-0.144412	0.000029
H192	H	-0.523330	0.355588	0.500029
H193	H	-0.800323	0.195410	0.360735
H194	H	-0.300323	0.695410	0.860735
H195	H	-0.987420	0.008435	0.360721
H196	H	-0.487420	0.508435	0.860721
C197	C	-1.040561	-0.301516	0.000025
C198	C	-0.540561	0.198484	0.500025
H199	H	-1.082191	-0.272152	0.000039
H200	H	-0.582191	0.227848	0.500039
H201	H	-1.042949	-0.332687	-0.047922
H202	H	-0.542949	0.167313	0.452078
H203	H	-1.042924	-0.332695	0.047978
H204	H	-0.542924	0.167305	0.547978
C205	C	-1.002169	-0.006279	0.626920
C206	C	-0.502169	0.493721	1.126920
H207	H	-1.032875	-0.036973	0.665085
H208	H	-0.532875	0.463027	1.165085
H209	H	-1.033619	0.020904	0.593143
H210	H	-0.533619	0.520904	1.093143
H211	H	-0.974993	-0.037754	0.593174
H212	H	-0.474993	0.462246	1.093174
H213	H	-0.987456	0.008452	0.796303
H214	H	-0.487456	0.508452	1.296303
H215	H	-1.016972	-0.541717	0.000014
H216	H	-0.516972	-0.041717	0.500014
C217	C	-0.112355	0.097417	-0.157392
C218	C	0.387645	0.597417	0.342608
H219	H	-0.147171	0.097966	-0.202032
H220	H	0.352829	0.597966	0.297968
H221	H	-0.075705	0.141044	-0.160512
H222	H	0.424295	0.641044	0.339488
H223	H	-0.087415	0.052800	-0.160498
H224	H	0.412585	0.552800	0.339502
C225	C	-0.675410	0.106434	0.157396
C226	C	-0.175410	0.606434	0.657396
H227	H	-0.728079	0.107285	0.146665
H228	H	-0.228079	0.607285	0.646665
H229	H	-0.668326	0.062107	0.188196
H230	H	-0.168326	0.562107	0.688196
H231	H	-0.656611	0.150351	0.188186
H232	H	-0.156611	0.650351	0.688186
C233	C	-0.278106	0.100060	0.157395
C234	C	0.221894	0.600060	0.657395
H235	H	-0.243289	0.099492	0.202033
H236	H	0.256711	0.599492	0.702033
H237	H	-0.303048	0.144669	0.160511
H238	H	0.196952	0.644669	0.660511
H239	H	-0.314754	0.056426	0.160508
H240	H	0.185246	0.556426	0.660508
H241	H	-0.800357	0.195435	0.796308
H242	H	-0.300357	0.695435	1.296308
H243	H	-0.266845	0.099884	-0.135982
H244	H	0.233155	0.599884	0.364018
