data_functionalizedCrystal
_audit_creation_method	'MofGen! by Chris Wilmer'
_symmetry_space_group_name_H-M	'P1'
_symmetry_Int_Tables_number	1
_symmetry_cell_setting	triclinic
loop_
_symmetry_equiv_pos_as_xyz
  x,y,z
_cell_length_a	17.699097
_cell_length_b	11.792254
_cell_length_c	16.776229
_cell_angle_alpha	89.993192
_cell_angle_beta	89.989262
_cell_angle_gamma	83.743514
loop_
_atom_site_label
_atom_site_type_symbol
_atom_site_fract_x
_atom_site_fract_y
_atom_site_fract_z
O1	O	1.004842	0.143598	-0.066355
O2	O	0.784565	0.162255	-0.066342
O3	O	0.900044	-0.012307	-0.066343
O4	O	0.889363	0.318159	-0.066354
O5	O	0.900028	-0.012318	0.066233
O6	O	0.784549	0.162244	0.066235
O7	O	1.004826	0.143587	0.066222
Zn8	Zn	0.894685	0.152914	0.087278
Zn9	Zn	0.894706	0.152928	-0.087398
O10	O	0.889347	0.318149	0.066223
C11	C	0.756357	0.161578	-0.000052
C12	C	0.672328	0.159565	-0.000047
C13	C	0.156552	0.147231	-0.072346
C14	C	0.235507	0.149115	-0.072342
C15	C	0.274969	0.150053	-0.000072
C16	C	0.235474	0.149095	0.072200
C17	C	0.156522	0.147203	0.072195
C18	C	0.553879	0.156724	0.072221
C19	C	0.632837	0.158619	0.072220
C20	C	0.632864	0.158635	-0.072317
C21	C	0.553912	0.156743	-0.072322
C22	C	0.514424	0.155780	-0.000051
C23	C	0.428813	0.153735	-0.000056
C24	C	0.360578	0.152106	-0.000066
C25	C	0.899363	-0.054595	-0.000055
C26	C	0.897349	-0.180584	-0.000056
C27	C	0.895713	-0.282901	-0.000058
C28	C	0.893667	-0.411263	-0.000066
C29	C	1.033035	0.144263	-0.000070
C30	C	1.117063	0.146277	-0.000080
C31	C	0.890028	0.360437	-0.000067
C32	C	0.892042	0.486426	-0.000072
N33	N	0.894677	0.152904	0.206489
N34	N	0.894720	0.152929	-0.206609
C35	C	0.945827	0.075639	0.248205
C36	C	0.945831	0.075638	0.331658
C37	C	0.894689	0.152908	0.373392
C38	C	0.843533	0.230176	0.331669
C39	C	0.843526	0.230171	0.248219
C40	C	0.843561	0.230198	0.668216
C41	C	0.843573	0.230200	0.751673
C42	C	0.945866	0.075666	0.751655
C43	C	0.945859	0.075661	0.668205
C44	C	0.894701	0.152924	0.626490
C45	C	0.894696	0.152923	0.536001
C46	C	0.894696	0.152916	0.463878
H47	H	0.124427	0.146475	-0.131198
H48	H	0.267656	0.149884	-0.131188
O49	O	1.000973	-0.007722	0.203190
H50	H	1.037956	0.039966	0.165149
O51	O	0.788422	0.313561	0.796691
H52	H	0.752847	0.367288	0.753665
H53	H	0.987481	0.012723	0.365623
H54	H	0.987506	0.012744	0.634227
H55	H	0.987519	0.012750	0.785629
H56	H	0.801908	0.293111	0.634258
H57	H	0.801888	0.293087	0.365654
H58	H	0.801873	0.293086	0.214254
H59	H	0.521785	0.155985	-0.131172
O60	O	0.675461	0.159645	-0.150267
H61	H	0.705017	0.237822	-0.153725
O62	O	0.675404	0.159641	0.150172
H63	H	0.634683	0.158649	0.200426
H64	H	0.521740	0.155922	0.131068
O65	O	0.278031	0.150114	0.150153
H66	H	0.339565	0.151605	0.138017
H67	H	0.124370	0.146438	0.131042
