data_functionalizedCrystal
_audit_creation_method	'MofGen! by Chris Wilmer'
_symmetry_space_group_name_H-M	'P1'
_symmetry_Int_Tables_number	1
_symmetry_cell_setting	triclinic
loop_
_symmetry_equiv_pos_as_xyz
  x,y,z
_cell_length_a	16.120566
_cell_length_b	21.395361
_cell_length_c	16.120297
_cell_angle_alpha	87.133067
_cell_angle_beta	89.874982
_cell_angle_gamma	87.126572
loop_
_atom_site_label
_atom_site_type_symbol
_atom_site_fract_x
_atom_site_fract_y
_atom_site_fract_z
Zn1	Zn	-1.247386	0.317418	-0.534590
Zn2	Zn	-0.914053	0.650752	-0.201257
Zn3	Zn	-0.580719	0.984085	0.132076
Zn4	Zn	-1.254321	0.417160	-0.395520
Zn5	Zn	-0.920987	0.750493	-0.062187
Zn6	Zn	-0.587654	1.083826	0.271147
Zn7	Zn	-1.115378	0.306832	-0.388503
Zn8	Zn	-0.782045	0.640165	-0.055169
Zn9	Zn	-0.448712	0.973498	0.278164
Zn10	Zn	-1.108277	0.416584	-0.527482
Zn11	Zn	-0.774944	0.749917	-0.194148
Zn12	Zn	-0.441611	1.083250	0.139185
O13	O	-1.181341	0.364498	-0.461524
O14	O	-0.848007	0.697832	-0.128190
O15	O	-0.514674	1.031165	0.205143
O16	O	-1.364671	0.335321	-0.522054
O17	O	-1.031338	0.668654	-0.188721
O18	O	-0.698004	1.001988	0.144612
O19	O	-1.241764	0.398335	-0.278225
O20	O	-0.908430	0.731668	0.055109
O21	O	-0.575097	1.065002	0.388442
O22	O	-1.132959	0.220562	-0.407920
O23	O	-0.799626	0.553895	-0.074586
O24	O	-0.466292	0.887229	0.258747
O25	O	-1.369766	0.408601	-0.419880
O26	O	-1.036433	0.741934	-0.086547
O27	O	-0.703099	1.075267	0.246787
O28	O	-1.229944	0.228340	-0.515250
O29	O	-0.896611	0.561673	-0.181917
O30	O	-0.563278	0.895007	0.151417
O31	O	-1.139683	0.317277	-0.273069
O32	O	-0.806350	0.650611	0.060264
O33	O	-0.473017	0.983944	0.393598
O34	O	-0.998071	0.316719	-0.401027
O35	O	-0.664738	0.650052	-0.067693
O36	O	-0.331404	0.983385	0.265640
O37	O	-1.120857	0.407619	-0.644789
O38	O	-0.787523	0.740952	-0.311456
O39	O	-0.454190	1.074285	0.021878
O40	O	-0.992854	0.397353	-0.503134
O41	O	-0.659521	0.730686	-0.169800
O42	O	-0.326188	1.064020	0.163533
O43	O	-1.223059	0.334762	-0.650012
O44	O	-0.889726	0.668096	-0.316679
O45	O	-0.556392	1.001429	0.016655
O46	O	-1.234878	0.504757	-0.412987
O47	O	-0.901545	0.838090	-0.079653
O48	O	-0.568211	1.171424	0.253680
O49	O	-1.127581	0.504334	-0.509938
O50	O	-0.794248	0.837667	-0.176605
O51	O	-0.460914	1.171000	0.156728
C52	C	-0.965290	0.355825	-0.450548
C53	C	-0.631957	0.689158	-0.117214
C54	C	-0.298624	1.022492	0.216119
C55	C	-0.872862	0.352130	-0.445872
C56	C	-0.539529	0.685464	-0.112539
C57	C	-0.206196	1.018797	0.220795
C58	C	-0.703634	0.345371	-0.437342
C59	C	-0.370301	0.678704	-0.104009
C60	C	-0.036968	1.012037	0.229324
C61	C	-0.659887	0.383680	-0.485712
C62	C	-0.326554	0.717014	-0.152378
C63	C	0.006780	1.050347	0.180955
C64	C	-0.565723	0.379919	-0.480966
C65	C	-0.232389	0.713252	-0.147632
C66	C	0.100944	1.046586	0.185701
C67	C	-0.797807	0.349131	-0.442087
C68	C	-0.464474	0.682464	-0.108754
C69	C	-0.131140	1.015798	0.224579
C70	C	-0.398235	0.373207	-0.472529
C71	C	-0.064902	0.706541	-0.139196
C72	C	0.268432	1.039874	0.194137
C73	C	-0.490664	0.376922	-0.477184
C74	C	-0.157331	0.710256	-0.143851
C75	C	0.176002	1.043589	0.189482
C76	C	-1.181233	0.527280	-0.461472
C77	C	-0.847900	0.860613	-0.128138
C78	C	-0.514566	1.193947	0.205195
C79	C	-1.181262	0.596923	-0.461481
C80	C	-0.847929	0.930256	-0.128148
C81	C	-0.514595	1.263589	0.205185
C82	C	-1.170392	0.372307	-0.678416
C83	C	-0.837059	0.705640	-0.345083
C84	C	-0.503725	1.038974	-0.011750
C85	C	-1.165727	0.375635	-0.770843
C86	C	-0.832393	0.708968	-0.437510
C87	C	-0.499060	1.042301	-0.104176
C88	C	-1.181470	0.201083	-0.461595
C89	C	-0.848137	0.534416	-0.128262
C90	C	-0.514803	0.867749	0.205072
C91	C	-1.181525	0.131445	-0.461625
C92	C	-0.848192	0.464778	-0.128292
C93	C	-0.514859	0.798111	0.205041
C94	C	-1.237176	0.629839	-0.411055
C95	C	-0.903843	0.963172	-0.077722
C96	C	-0.570509	1.296506	0.255611
C97	C	-1.237214	0.695277	-0.411076
C98	C	-0.903880	1.028610	-0.077743
C99	C	-0.570547	1.361943	0.255591
C100	C	-1.181323	0.727794	-0.461513
C101	C	-0.847990	1.061128	-0.128180
C102	C	-0.514656	1.394461	0.205154
C103	C	-1.125405	0.694870	-0.511949
C104	C	-0.792071	1.028203	-0.178616
C105	C	-0.458738	1.361537	0.154718
C106	C	-1.125374	0.629434	-0.511933
C107	C	-0.792041	0.962768	-0.178600
C108	C	-0.458707	1.296101	0.154734
C109	C	-1.106118	0.828743	-0.464234
C110	C	-0.772785	1.162076	-0.130900
C111	C	-0.439452	1.495410	0.202433
C112	C	-1.106148	0.894178	-0.464244
C113	C	-0.772815	1.227511	-0.130910
C114	C	-0.439481	1.560844	0.202423
C115	C	-1.181417	0.929621	-0.461567
C116	C	-0.848084	1.262954	-0.128233
C117	C	-0.514751	1.596287	0.205100
C118	C	-1.256660	0.899621	-0.458863
C119	C	-0.923327	1.232954	-0.125529
C120	C	-0.589994	1.566288	0.207804
C121	C	-1.256630	0.834185	-0.458847
C122	C	-0.923297	1.167518	-0.125513
C123	C	-0.589963	1.500852	0.207820
C124	C	-1.181350	0.798749	-0.461536
C125	C	-0.848017	1.132082	-0.128203
C126	C	-0.514683	1.465415	0.205131
C127	C	-1.237377	1.033492	-0.411161
C128	C	-0.904044	1.366826	-0.077827
C129	C	-0.570710	1.700159	0.255506
C130	C	-1.237416	1.098931	-0.411187
C131	C	-0.904082	1.432265	-0.077854
C132	C	-0.570749	1.765598	0.255480
C133	C	-1.125600	1.098523	-0.512055
C134	C	-0.792266	1.431856	-0.178722
C135	C	-0.458933	1.765190	0.154612
C136	C	-1.125568	1.033086	-0.512033
C137	C	-0.792235	1.366419	-0.178700
C138	C	-0.458901	1.699752	0.154633
C139	C	-1.181456	1.000574	-0.461582
C140	C	-0.848122	1.333907	-0.128248
C141	C	-0.514789	1.667241	0.205085
C142	C	-1.157178	0.381695	-0.940066
C143	C	-0.823845	0.715028	-0.606733
C144	C	-0.490511	1.048362	-0.273400
C145	C	-1.205667	0.347121	-0.983841
C146	C	-0.872334	0.680454	-0.650508
C147	C	-0.539000	1.013787	-0.317175
C148	C	-1.200911	0.350492	-1.078003
C149	C	-0.867577	0.683826	-0.744670
C150	C	-0.534244	1.017159	-0.411336
C151	C	-1.161933	0.378324	-0.845896
C152	C	-0.828600	0.711657	-0.512563
C153	C	-0.495267	1.044990	-0.179229
C154	C	-1.192294	0.356677	-0.245477
C155	C	-0.858961	0.690010	0.087856
C156	C	-0.525628	1.023343	0.421189
C157	C	-1.197121	0.353179	-0.153059
C158	C	-0.863788	0.686512	0.180274
C159	C	-0.530454	1.019846	0.513607
H160	H	-1.282685	0.603370	-0.369977
H161	H	-0.949351	0.936704	-0.036644
H162	H	-0.616018	1.270037	0.296690
C163	C	-1.023310	0.789761	-0.467158
C164	C	-0.689977	1.123094	-0.133825
C165	C	-0.356643	1.456428	0.199508
N166	N	-0.960940	0.760400	-0.469354
N167	N	-0.627607	1.093734	-0.136020
N168	N	-0.294274	1.427067	0.197313
C169	C	-0.704827	0.431810	-0.546465
C170	C	-0.371494	0.765143	-0.213132
C171	C	-0.038160	1.098476	0.120202
N172	N	-0.738680	0.468061	-0.592219
N173	N	-0.405346	0.801395	-0.258886
N174	N	-0.072013	1.134728	0.074447
C175	C	-1.266582	0.303716	-0.938937
C176	C	-0.933249	0.637049	-0.605603
C177	C	-0.599916	0.970383	-0.272270
N178	N	-1.312466	0.271028	-0.905111
N179	N	-0.979132	0.604361	-0.571777
N180	N	-0.645799	0.937695	-0.238444
C181	C	-0.658695	0.297252	-0.376583
C182	C	-0.325361	0.630585	-0.043250
C183	C	0.007972	0.963918	0.290083
N184	N	-0.624837	0.261011	-0.330818
N185	N	-0.291504	0.594344	0.002516
N186	N	0.041830	0.927678	0.335849
C187	C	-1.096273	0.425101	-0.984971
C188	C	-0.762939	0.758434	-0.651638
C189	C	-0.429606	1.091767	-0.318304
N190	N	-1.050400	0.457794	-1.018803
N191	N	-0.717066	0.791127	-0.685470
N192	N	-0.383733	1.124460	-0.352136
H193	H	-1.044880	0.918598	-0.466437
H194	H	-0.711547	1.251931	-0.133104
H195	H	-0.378214	1.585265	0.200230
C196	C	-1.339395	0.801187	-0.455872
C197	C	-1.006062	1.134521	-0.122539
C198	C	-0.672729	1.467854	0.210795
N199	N	-1.401736	0.776334	-0.453632
N200	N	-1.068402	1.109667	-0.120299
N201	N	-0.735069	1.443001	0.213034
C202	C	-1.339464	0.938604	-0.455925
C203	C	-1.006131	1.271937	-0.122591
C204	C	-0.672797	1.605270	0.210742
N205	N	-1.401829	0.967969	-0.453713
N206	N	-1.068496	1.301302	-0.120379
N207	N	-0.735163	1.634635	0.212954
C208	C	-1.298722	0.731492	-0.355597
C209	C	-0.965388	1.064825	-0.022264
C210	C	-0.632055	1.398159	0.311070
N211	N	-1.345048	0.758767	-0.313808
N212	N	-1.011714	1.092101	0.019526
N213	N	-0.678381	1.425434	0.352859
H214	H	-1.282953	1.125731	-0.370126
H215	H	-0.949619	1.459065	-0.036793
H216	H	-0.616286	1.792398	0.296541
H217	H	-1.282887	1.007020	-0.370082
H218	H	-0.949553	1.340354	-0.036749
H219	H	-0.616220	1.673687	0.296584
C220	C	-1.064120	1.134289	-0.567538
C221	C	-0.730787	1.467622	-0.234205
C222	C	-0.397454	1.800955	0.099128
N223	N	-1.017814	1.161231	-0.609331
N224	N	-0.684480	1.494564	-0.275998
N225	N	-0.351147	1.827898	0.057336
C226	C	-1.063922	0.730641	-0.567427
C227	C	-0.730589	1.063974	-0.234093
C228	C	-0.397255	1.397307	0.099240
N229	N	-1.017612	0.757583	-0.609215
N230	N	-0.684279	1.090916	-0.275882
N231	N	-0.350945	1.424250	0.057452
H232	H	-1.079841	0.602633	-0.552997
H233	H	-0.746508	0.935966	-0.219663
H234	H	-0.413175	1.269300	0.113670
C235	C	-1.064073	0.996877	-0.567524
C236	C	-0.730740	1.330211	-0.234191
C237	C	-0.397407	1.663544	0.099142
N238	N	-1.017762	0.969606	-0.609333
N239	N	-0.684428	1.302939	-0.276000
N240	N	-0.351095	1.636273	0.057334
