data_functionalizedCrystal
_audit_creation_method	'MofGen! by Chris Wilmer'
_symmetry_space_group_name_H-M	'P1'
_symmetry_Int_Tables_number	1
_symmetry_cell_setting	triclinic
loop_
_symmetry_equiv_pos_as_xyz
  x,y,z
_cell_length_a	12.759401
_cell_length_b	12.827892
_cell_length_c	12.759393
_cell_angle_alpha	89.970004
_cell_angle_beta	89.981287
_cell_angle_gamma	90.016917
loop_
_atom_site_label
_atom_site_type_symbol
_atom_site_fract_x
_atom_site_fract_y
_atom_site_fract_z
Zn1	Zn	1.606238	-0.415940	-0.594024
Zn2	Zn	1.606134	-0.590717	-0.418346
Zn3	Zn	1.430544	-0.415995	-0.418359
Zn4	Zn	1.430527	-0.590644	-0.593983
O5	O	1.518361	-0.503324	-0.506178
O6	O	1.753245	-0.439132	-0.570731
O7	O	1.582805	-0.567594	-0.271326
O8	O	1.453901	-0.269752	-0.441684
O9	O	1.753169	-0.567540	-0.441661
O10	O	1.582983	-0.269711	-0.570744
O11	O	1.453800	-0.439226	-0.271336
O12	O	1.283521	-0.439156	-0.441644
O13	O	1.453872	-0.567415	-0.741009
O14	O	1.283508	-0.567469	-0.570674
O15	O	1.582966	-0.439061	-0.741040
O16	O	1.582789	-0.736943	-0.441622
O17	O	1.453771	-0.736890	-0.570661
C18	C	1.245393	-0.503311	-0.506157
C19	C	1.128617	-0.503331	-0.506173
C20	C	1.518295	-0.774834	-0.506158
C21	C	1.518363	-0.890987	-0.506185
C22	C	1.073776	-0.570246	-0.573253
C23	C	0.964052	-0.570250	-0.573274
C24	C	0.964019	-0.436421	-0.439125
C25	C	1.073741	-0.436413	-0.439111
C26	C	0.814150	-0.607747	-0.697135
C27	C	0.759306	-0.674678	-0.764206
C28	C	0.794902	-0.776661	-0.780155
C29	C	0.885340	-0.811734	-0.729017
C30	C	0.940179	-0.744809	-0.661938
C31	C	0.904585	-0.642811	-0.646010
C32	C	1.223645	-0.398927	-0.315248
C33	C	1.278486	-0.332006	-0.248164
C34	C	1.242892	-0.230021	-0.232204
C35	C	1.152450	-0.194951	-0.283323
C36	C	1.097608	-0.261872	-0.350408
C37	C	1.133210	-0.363856	-0.366369
C38	C	1.582208	-0.942668	-0.570106
C39	C	1.582280	-1.062719	-0.570135
C40	C	1.792394	-0.503338	-0.506199
C41	C	1.909171	-0.503343	-0.506209
C42	C	1.518429	-0.503224	-0.780211
C43	C	1.518458	-0.503181	-0.896988
C44	C	1.518455	-0.230754	-0.506220
C45	C	1.518496	-0.114601	-0.506239
C46	C	1.451261	-0.569984	-0.951836
C47	C	1.451298	-0.569945	-1.061560
C48	C	1.585732	-0.436291	-1.061579
C49	C	1.585699	-0.436336	-0.951857
C50	C	1.413760	-0.693125	-1.211496
C51	C	1.346547	-0.759919	-1.266347
C52	C	1.244016	-0.775971	-1.230732
C53	C	1.208677	-0.725213	-1.140266
C54	C	1.275885	-0.658412	-1.085420
C55	C	1.378431	-0.642380	-1.121034
C56	C	1.623227	-0.313155	-0.801919
C57	C	1.690430	-0.246347	-0.747071
C58	C	1.792963	-0.230285	-0.782685
C59	C	1.828297	-0.281023	-0.873153
C60	C	1.761094	-0.347831	-0.928001
C61	C	1.658562	-0.363895	-0.892381
C62	C	1.518353	-0.503349	-0.233211
C63	C	1.518528	-0.503097	-0.116434
H64	H	1.118452	-0.624732	-0.627862
H65	H	1.463836	-1.070164	-0.451507
H66	H	0.750240	-0.831156	-0.834767
C67	C	1.866098	-0.157904	-0.723152
C68	C	1.954061	-0.213864	-0.689452
C69	C	2.021466	-0.147226	-0.634626
H70	H	1.830523	-0.129942	-0.664115
H71	H	1.887746	-0.102705	-0.767872
H72	H	1.932413	-0.269044	-0.644734
H73	H	1.989664	-0.241824	-0.748469
H74	H	2.043114	-0.092028	-0.679346
H75	H	1.985882	-0.119268	-0.575593
H76	H	2.081161	-0.185183	-0.611762
H77	H	1.640477	-0.381867	-1.106266
C78	C	0.904248	-0.363887	-0.366356
C79	C	0.796419	-0.378233	-0.380705
C80	C	0.741329	-0.311441	-0.313676
H81	H	0.922127	-0.293649	-0.381789
H82	H	0.922133	-0.379101	-0.295712
H83	H	0.778542	-0.363012	-0.451332
H84	H	0.778510	-0.448457	-0.365264
H85	H	0.759213	-0.326655	-0.243033
H86	H	0.759216	-0.241207	-0.329115
H87	H	0.668162	-0.321172	-0.323396
H88	H	1.123456	-0.111913	-0.270312
H89	H	1.463751	-0.935618	-0.451487
H90	H	1.497252	-0.680073	-1.240495
C91	C	0.924053	-0.922411	-0.746533
C92	C	0.946241	-0.936867	-0.853010
C93	C	0.981922	-1.038805	-0.869186
H94	H	0.871475	-0.970422	-0.725289
H95	H	0.985801	-0.933737	-0.706530
H96	H	0.884501	-0.925553	-0.892999
H97	H	0.998826	-0.888881	-0.874278
H98	H	1.043671	-1.050131	-0.829183
H99	H	0.929340	-1.086808	-0.847936
H100	H	0.996991	-1.048624	-0.941429
H101	H	1.396502	-0.624407	-0.907165
C102	C	1.237368	-0.603478	-0.987173
C103	C	1.133198	-0.631860	-0.967695
C104	C	1.097691	-0.581308	-0.877175
H105	H	1.241539	-0.530168	-0.996850
H106	H	1.279767	-0.623262	-0.929294
H107	H	1.090809	-0.612069	-1.025560
H108	H	1.128998	-0.705161	-0.957998
H109	H	1.140090	-0.601092	-0.819296
H110	H	1.101869	-0.508001	-0.886861
H111	H	1.027012	-0.600565	-0.863942
C112	C	1.097317	-0.742781	-1.101763
C113	C	1.046026	-0.812153	-1.169152
C114	C	0.943439	-0.828362	-1.133714
H115	H	1.060821	-0.678261	-1.100739
H116	H	1.099020	-0.771260	-1.033036
H117	H	1.044318	-0.783672	-1.237861
H118	H	1.082492	-0.876687	-1.170184
H119	H	0.945142	-0.856841	-1.064986
H120	H	0.906953	-0.763837	-1.132690
H121	H	0.908629	-0.875439	-1.179425
C122	C	0.661204	-0.636678	-0.819931
C123	C	0.676005	-0.643175	-0.928466
C124	C	0.585653	-0.608197	-0.979831
H125	H	0.647779	-0.566341	-0.800968
H126	H	0.603298	-0.678900	-0.800124
H127	H	0.733894	-0.600954	-0.948264
H128	H	0.689416	-0.713503	-0.947459
H129	H	0.527746	-0.650418	-0.960025
H130	H	0.572235	-0.537861	-0.960861
H131	H	0.595679	-0.612609	-1.053477
C132	C	1.302604	-0.157505	-0.159361
C133	C	1.389436	-0.210034	-0.118014
C134	C	1.444469	-0.143261	-0.050922
H135	H	1.257987	-0.135981	-0.103835
H136	H	1.325668	-0.098104	-0.197434
H137	H	1.366370	-0.269416	-0.079942
H138	H	1.434078	-0.231556	-0.173515
H139	H	1.467534	-0.083860	-0.088994
H140	H	1.399844	-0.121741	0.004598
H141	H	1.503396	-0.178890	-0.022867
C142	C	1.262499	-0.509583	-0.332610
C143	C	1.363831	-0.506686	-0.374654
C144	C	1.399661	-0.608601	-0.390644
H145	H	1.217007	-0.544511	-0.379911
H146	H	1.263576	-0.545751	-0.267623
H147	H	1.362747	-0.470533	-0.439631
H148	H	1.409347	-0.471778	-0.327368
H149	H	1.400738	-0.644769	-0.325658
H150	H	1.354161	-0.643520	-0.437944
H151	H	1.468421	-0.606649	-0.419164
H152	H	1.352128	-0.360569	-0.206539
H153	H	1.189290	-0.830356	-1.275400
C154	C	1.384701	-0.815087	-1.364610
C155	C	1.303884	-0.876993	-1.405038
C156	C	1.338981	-0.927815	-1.495566
H157	H	1.443087	-0.857862	-1.347798
H158	H	1.404930	-0.764786	-1.415419
H159	H	1.283670	-0.927288	-1.354241
H160	H	1.245492	-0.834243	-1.421874
H161	H	1.359209	-0.877513	-1.546375
H162	H	1.397367	-0.970584	-1.478745
H163	H	1.284150	-0.969816	-1.523013
C164	C	1.655193	-0.883307	-0.642997
C165	C	1.759196	-0.909724	-0.620267
C166	C	1.826458	-0.855076	-0.687407
H167	H	1.645611	-0.810510	-0.633355
H168	H	1.639862	-0.901131	-0.713610
H169	H	1.774522	-0.891892	-0.549671
H170	H	1.768812	-0.982510	-0.629916
H171	H	1.811127	-0.872900	-0.758020
H172	H	1.816867	-0.782282	-0.677759
H173	H	1.897031	-0.872999	-0.672000
H174	H	1.013812	-0.773365	-0.620303
H175	H	1.789870	-0.389141	-1.001669
H176	H	1.636944	-1.107163	-0.624856
H177	H	1.911785	-0.267938	-0.902156
H178	H	1.661648	-0.205025	-0.673412
C179	C	1.511844	-0.330492	-0.763364
C180	C	1.458320	-0.235237	-0.761932
C181	C	1.355709	-0.251210	-0.726454
H182	H	1.513475	-0.358903	-0.694621
H183	H	1.476906	-0.377524	-0.809031
H184	H	1.493248	-0.188222	-0.716266
H185	H	1.456659	-0.206811	-0.830664
H186	H	1.320771	-0.298241	-0.772121
H187	H	1.357352	-0.279622	-0.657712
H188	H	1.319377	-0.186584	-0.725486
H189	H	0.785167	-0.524700	-0.684166
H190	H	1.023971	-0.233307	-0.392039
