data_functionalizedCrystal
_audit_creation_method	'MofGen! by Chris Wilmer'
_symmetry_space_group_name_H-M	'P1'
_symmetry_Int_Tables_number	1
_symmetry_cell_setting	triclinic
loop_
_symmetry_equiv_pos_as_xyz
  x,y,z
_cell_length_a	16.956993
_cell_length_b	16.956984
_cell_length_c	16.053802
_cell_angle_alpha	87.627659
_cell_angle_beta	92.393434
_cell_angle_gamma	76.054060
loop_
_atom_site_label
_atom_site_type_symbol
_atom_site_fract_x
_atom_site_fract_y
_atom_site_fract_z
O1	O	-1.059454	-0.029596	-0.069514
O2	O	-0.559454	0.470404	0.430486
O3	O	-0.825443	-0.057712	-0.069497
O4	O	-0.325443	0.442288	0.430503
O5	O	-0.956507	0.073351	-0.069500
O6	O	-0.456507	0.573351	0.430500
O7	O	-0.928389	-0.160659	-0.069510
O8	O	-0.428389	0.339341	0.430490
O9	O	-0.949295	0.066165	0.069359
O10	O	-0.449295	0.566165	0.569359
O11	O	-0.818230	-0.064898	0.069362
O12	O	-0.318230	0.435102	0.569362
O13	O	-1.052242	-0.036782	0.069346
O14	O	-0.552242	0.463218	0.569346
Zn15	Zn	-0.934091	-0.051981	0.091401
Zn16	Zn	-0.434091	0.448019	0.591401
Zn17	Zn	-0.943593	-0.042513	-0.091552
Zn18	Zn	-0.443593	0.457487	0.408448
O19	O	-0.921177	-0.167845	0.069349
O20	O	-0.421177	0.332155	0.569349
C21	C	-0.792033	-0.062745	-0.000065
C22	C	-0.292033	0.437255	0.499935
C23	C	-0.703231	-0.067025	-0.000058
C24	C	-0.203231	0.432975	0.499942
C25	C	-0.201821	-0.099041	-0.000078
C26	C	0.298179	0.400959	0.499922
C27	C	-0.285262	-0.095013	-0.000080
C28	C	0.214738	0.404987	0.499920
C29	C	-0.341333	-0.019412	-0.000071
C30	C	0.158667	0.480588	0.499929
C31	C	-0.313961	0.052166	-0.000070
C32	C	0.186039	0.552166	0.499930
C33	C	-0.230521	0.048138	-0.000075
C34	C	0.269479	0.548138	0.499925
C35	C	-0.592419	0.000525	-0.000062
C36	C	-0.092419	0.500525	0.499938
C37	C	-0.675863	0.004548	-0.000055
C38	C	-0.175863	0.504548	0.499945
C39	C	-0.647158	-0.142631	-0.000066
C40	C	-0.147158	0.357369	0.499934
C41	C	-0.563718	-0.146653	-0.000065
C42	C	-0.063718	0.353347	0.499935
C43	C	-0.536354	-0.075075	-0.000069
C44	C	-0.036354	0.424925	0.499931
N45	N	-0.426623	-0.015294	-0.000070
N46	N	0.073377	0.484706	0.499930
N47	N	-0.451065	-0.079194	-0.000076
N48	N	0.048935	0.420806	0.499924
C49	C	-0.085651	-0.031749	-0.000082
C50	C	0.414349	0.468251	0.499918
C51	C	-0.174453	-0.027468	-0.000075
C52	C	0.325547	0.472532	0.499925
N53	N	-0.927611	-0.058442	0.216261
N54	N	-0.427611	0.441558	0.716261
C55	C	-0.954341	0.099561	-0.000071
C56	C	-0.454341	0.599561	0.499929
C57	C	-0.958621	0.188364	-0.000072
C58	C	-0.458621	0.688364	0.499928
C59	C	-0.923344	-0.194055	-0.000082
C60	C	-0.423344	0.305945	0.499918
C61	C	-0.919063	-0.282858	-0.000086
C62	C	-0.419063	0.217142	0.499914
C63	C	-0.887048	0.215731	-0.000071
C64	C	-0.387048	0.715731	0.499929
C65	C	-0.891075	0.299172	-0.000069
C66	C	-0.391075	0.799172	0.499931
C67	C	-0.966676	0.355244	-0.000074
C68	C	-0.466676	0.855244	0.499926
C69	C	-1.038255	0.327872	-0.000073
C70	C	-0.538255	0.827872	0.499927
C71	C	-1.034227	0.244433	-0.000069
C72	C	-0.534227	0.744433	0.499931
C73	C	-0.986614	0.606331	-0.000081
C74	C	-0.486614	1.106331	0.499919
C75	C	-0.990636	0.689775	-0.000088
C76	C	-0.490636	1.189775	0.499912
C77	C	-0.843456	0.661069	-0.000082
C78	C	-0.343456	1.161069	0.499918
C79	C	-0.839435	0.577629	-0.000083
C80	C	-0.339435	1.077629	0.499917
C81	C	-0.911013	0.550264	-0.000077
C82	C	-0.411013	1.050264	0.499923
N83	N	-0.970794	0.440534	-0.000075
N84	N	-0.470794	0.940534	0.499925
N85	N	-0.906894	0.464975	-0.000071
N86	N	-0.406894	0.964975	0.499929
N87	N	-0.950079	-0.036045	-0.216413
N88	N	-0.450079	0.463955	0.283587
C89	C	-0.983397	-0.002692	0.259954
C90	C	-0.483397	0.497308	0.759954
C91	C	-0.978872	-0.007218	0.347361
C92	C	-0.478872	0.492782	0.847361
C93	C	-0.918564	-0.067499	0.391073
C94	C	-0.418564	0.432501	0.891073
C95	C	-0.862772	-0.123252	0.347375
C96	C	-0.362772	0.376748	0.847375
C97	C	-0.867294	-0.118721	0.259970
C98	C	-0.367294	0.381279	0.759970
C99	C	-0.898810	-0.087267	0.652484
C100	C	-0.398810	0.412733	1.152484
C101	C	-0.894293	-0.091796	0.739895
C102	C	-0.394293	0.408204	1.239895
C103	C	-1.010393	0.024240	0.739875
C104	C	-0.510393	0.524240	1.239875
C105	C	-1.014913	0.028762	0.652468
C106	C	-0.514913	0.528762	1.152468
C107	C	-0.959119	-0.026988	0.608777
C108	C	-0.459119	0.473012	1.108777
N109	N	-0.913938	-0.072129	0.480417
N110	N	-0.413938	0.427871	0.980417
N111	N	-0.963742	-0.022354	0.519435
N112	N	-0.463742	0.477646	1.019435
H113	H	-0.307540	-0.153295	-0.000090
H114	H	0.192460	0.346705	0.499910
Cl115	Cl	-0.746353	0.099596	-0.000046
Cl116	Cl	-0.246353	0.599596	0.499954
H117	H	-1.044897	0.584062	-0.000079
H118	H	-0.544897	1.084062	0.499921
H119	H	-0.518069	-0.208215	-0.000075
H120	H	-0.018069	0.291785	0.499925
H121	H	-1.064021	0.077848	0.616878
H122	H	-0.564021	0.577848	1.116878
Cl123	Cl	-0.753478	0.695476	-0.000086
Cl124	Cl	-0.253478	1.195476	0.499914
Cl125	Cl	-0.196117	0.138119	-0.000070
Cl126	Cl	0.303883	0.638119	0.499930
Cl127	Cl	-0.384451	0.147207	-0.000062
Cl128	Cl	0.115549	0.647207	0.499938
Cl129	Cl	-0.681566	-0.232609	-0.000069
Cl130	Cl	-0.181566	0.267391	0.499931
H131	H	-0.570149	0.058809	-0.000063
H132	H	-0.070149	0.558809	0.499937
H133	H	-0.825486	0.170081	-0.000070
H134	H	-0.325486	0.670081	0.499930
H135	H	-1.032510	0.046392	0.224368
H136	H	-0.532510	0.546392	0.724368
H137	H	-1.052203	0.735430	-0.000098
H138	H	-0.552203	1.235430	0.499902
H139	H	-0.853382	-0.132663	0.616917
H140	H	-0.353382	0.367337	1.116917
H141	H	-0.832793	0.321449	-0.000074
H142	H	-0.332793	0.821449	0.499926
H143	H	-1.099810	0.373533	-0.000072
H144	H	-0.599810	0.873533	0.499928
H145	H	-0.777873	0.531979	-0.000081
H146	H	-0.277873	1.031979	0.499919
H147	H	-1.092509	0.222153	-0.000069
H148	H	-0.592509	0.722153	0.499931
Cl149	Cl	-1.049003	0.062870	0.402290
Cl150	Cl	-0.549003	0.562870	0.902290
Cl151	Cl	-0.818471	-0.167586	0.794843
Cl152	Cl	-0.318471	0.332414	1.294843
H153	H	-1.055817	0.069630	0.775456
H154	H	-0.555817	0.569630	1.275456
H155	H	-0.813664	-0.172332	0.382971
H156	H	-0.313664	0.327668	0.882971
H157	H	-0.821867	-0.164118	0.224396
H158	H	-0.321867	0.335882	0.724396
H159	H	-0.156171	-0.160604	-0.000079
H160	H	0.343829	0.339396	0.499921
