data_functionalizedCrystal
_audit_creation_method	'MofGen! by Chris Wilmer'
_symmetry_space_group_name_H-M	'P1'
_symmetry_Int_Tables_number	1
_symmetry_cell_setting	triclinic
loop_
_symmetry_equiv_pos_as_xyz
  x,y,z
_cell_length_a	12.759401
_cell_length_b	12.759400
_cell_length_c	12.759393
_cell_angle_alpha	89.968385
_cell_angle_beta	89.980163
_cell_angle_gamma	90.016209
loop_
_atom_site_label
_atom_site_type_symbol
_atom_site_fract_x
_atom_site_fract_y
_atom_site_fract_z
Zn1	Zn	1.606255	-0.418161	-0.594020
Zn2	Zn	1.606150	-0.593880	-0.418340
Zn3	Zn	1.430557	-0.418220	-0.418355
Zn4	Zn	1.430546	-0.593803	-0.593978
O5	O	1.518377	-0.506016	-0.506173
O6	O	1.753262	-0.441478	-0.570727
O7	O	1.582818	-0.570635	-0.271321
O8	O	1.453913	-0.271191	-0.441682
O9	O	1.753185	-0.570578	-0.441656
O10	O	1.582997	-0.271148	-0.570742
O11	O	1.453811	-0.441579	-0.271332
O12	O	1.283535	-0.441505	-0.441640
O13	O	1.453893	-0.570447	-0.741004
O14	O	1.283526	-0.570504	-0.570669
O15	O	1.582986	-0.441403	-0.741036
O16	O	1.582806	-0.740891	-0.441615
O17	O	1.453791	-0.740834	-0.570655
C18	C	1.245410	-0.506003	-0.506152
C19	C	1.128633	-0.506023	-0.506168
C20	C	1.518315	-0.778984	-0.506151
C21	C	1.518384	-0.895760	-0.506177
C22	C	1.073794	-0.573296	-0.573248
C23	C	0.964070	-0.573300	-0.573269
C24	C	0.964033	-0.438756	-0.439122
C25	C	1.073755	-0.438747	-0.439107
C26	C	1.585637	-0.950617	-0.439060
C27	C	1.585701	-1.060341	-0.439093
C28	C	1.451251	-1.060342	-0.573362
C29	C	1.451193	-0.950620	-0.573334
C30	C	1.663257	-0.950617	-0.361538
C31	C	1.663322	-1.060341	-0.361570
C32	C	1.792410	-0.506030	-0.506195
C33	C	1.909187	-0.506036	-0.506204
C34	C	1.518450	-0.505910	-0.780207
C35	C	1.518482	-0.505865	-0.896984
C36	C	1.518468	-0.231983	-0.506218
C37	C	1.518507	-0.115206	-0.506238
C38	C	1.451332	-0.438653	-0.951851
C39	C	1.451356	-0.438620	-1.061575
C40	C	1.585689	-0.573015	-1.061555
C41	C	1.585659	-0.573052	-0.951833
C42	C	1.518364	-0.506046	-0.233206
C43	C	1.518537	-0.505796	-0.116430
H44	H	0.919425	-0.628078	-0.627893
H45	H	1.396440	-0.905957	-0.627995
C46	C	1.134082	-0.364745	-0.365314
H47	H	1.085686	-0.324690	-0.325366
H48	H	1.176914	-0.319015	-0.405579
H49	H	1.176854	-0.404885	-0.319459
C50	C	1.623923	-0.904750	-0.257078
H51	H	1.606452	-0.960250	-0.210577
H52	H	1.563639	-0.862882	-0.269496
H53	H	1.677426	-0.862831	-0.226705
C54	C	1.659523	-0.646989	-0.891470
H55	H	1.649873	-0.637395	-0.818268
H56	H	1.730126	-0.631619	-0.909454
H57	H	1.644116	-0.717575	-0.909436
H58	H	1.118472	-0.628073	-0.627857
H59	H	1.641585	-1.090204	-0.280189
C60	C	0.903665	-0.364770	-0.365348
H61	H	0.830464	-0.374417	-0.374954
H62	H	0.921665	-0.294195	-0.380838
H63	H	0.921614	-0.380073	-0.294727
C64	C	1.767746	-1.106203	-0.401035
H65	H	1.814207	-1.050701	-0.418582
H66	H	1.755257	-1.148069	-0.461293
H67	H	1.798203	-1.148124	-0.347564
H68	H	1.640383	-0.627715	-1.106226
H69	H	1.396547	-1.105022	-0.628039
C70	C	1.773136	-0.910265	-0.391065
H71	H	1.773092	-0.835808	-0.391034
H72	H	1.791292	-0.935005	-0.458886
H73	H	1.822809	-0.935077	-0.341472
C74	C	1.377435	-0.364760	-0.891515
H75	H	1.387039	-0.374399	-0.818309
H76	H	1.306845	-0.380124	-0.909489
H77	H	1.392848	-0.294161	-0.909515
H78	H	1.396675	-0.383891	-1.106243
