data_functionalizedCrystal
_audit_creation_method	'MofGen! by Chris Wilmer'
_symmetry_space_group_name_H-M	'P1'
_symmetry_Int_Tables_number	1
_symmetry_cell_setting	triclinic
loop_
_symmetry_equiv_pos_as_xyz
  x,y,z
_cell_length_a	14.853569
_cell_length_b	14.853567
_cell_length_c	13.930277
_cell_angle_alpha	90.000757
_cell_angle_beta	90.005244
_cell_angle_gamma	83.635248
loop_
_atom_site_label
_atom_site_type_symbol
_atom_site_fract_x
_atom_site_fract_y
_atom_site_fract_z
O1	O	1.196368	0.117710	0.079779
O2	O	0.933908	0.131730	0.079789
O3	O	1.072149	-0.006510	0.079787
O4	O	1.058127	0.255950	0.079781
O5	O	1.072129	-0.006513	-0.079875
O6	O	0.933889	0.131727	-0.079873
O7	O	1.196348	0.117707	-0.079883
Zn8	Zn	1.065116	0.124717	-0.105228
Zn9	Zn	1.065141	0.124721	0.105134
O10	O	1.058108	0.255947	-0.079881
C11	C	0.900310	0.131093	-0.000040
C12	C	0.800226	0.129189	-0.000036
C13	C	0.763850	0.046178	-0.000031
C14	C	0.742560	0.210410	-0.000045
C15	C	0.648526	0.208624	-0.000046
C16	C	0.612150	0.125613	-0.000041
C17	C	0.669807	0.044389	-0.000035
C18	C	0.590862	0.289847	-0.000062
C19	C	0.496821	0.288064	-0.000064
C20	C	0.460443	0.205052	-0.000052
C21	C	0.518107	0.123824	-0.000045
C22	C	0.481730	0.040813	-0.000040
C23	C	0.539393	-0.040415	-0.000026
C24	C	0.633429	-0.038623	-0.000023
C25	C	0.366407	0.203259	-0.000055
C26	C	0.387688	0.039024	-0.000044
C27	C	1.071504	-0.040100	-0.000042
C28	C	1.069600	-0.140183	-0.000033
C29	C	0.979434	-0.552718	-0.000048
C30	C	1.143667	-0.573998	-0.000054
C31	C	1.145457	-0.479964	-0.000049
C32	C	1.064234	-0.422303	-0.000044
C33	C	0.981222	-0.458675	-0.000045
C34	C	1.228468	-0.443585	-0.000058
C35	C	1.230262	-0.349545	-0.000053
C36	C	1.149038	-0.291882	-0.000042
C37	C	1.066022	-0.328260	-0.000041
C38	C	0.984800	-0.270599	-0.000037
C39	C	0.901783	-0.306974	-0.000030
C40	C	0.899998	-0.401012	-0.000034
C41	C	1.150822	-0.197845	-0.000038
C42	C	0.986587	-0.176556	-0.000034
C43	C	1.229947	0.118344	-0.000052
C44	C	1.330030	0.120249	-0.000050
C45	C	1.058753	0.289537	-0.000050
C46	C	1.060657	0.389621	-0.000052
N47	N	1.065105	0.124713	-0.248794
C48	C	1.003926	0.185909	-0.701062
C49	C	1.126381	0.063525	-0.701034
C50	C	1.126370	0.063522	-0.600538
C51	C	1.065137	0.124715	-0.550300
C52	C	1.003915	0.185910	-0.600557
C53	C	1.187598	0.002334	-0.550273
C54	C	1.187590	0.002330	-0.449771
C55	C	1.126352	0.063518	-0.399531
C56	C	1.065126	0.124716	-0.449794
C57	C	1.003893	0.185908	-0.399556
C58	C	0.942663	0.247101	-0.449818
C59	C	0.942677	0.247099	-0.550317
C60	C	1.126338	0.063521	-0.299032
C61	C	1.003883	0.185909	-0.299051
N62	N	1.065159	0.124717	0.248700
H63	H	0.772184	0.277994	-0.000056
H64	H	0.920445	-0.129613	-0.000026
Br65	Br	0.338328	-0.073640	-0.000025
H66	H	0.954070	0.235730	-0.741987
Br67	Br	0.791556	-0.228709	-0.000036
H68	H	0.620487	0.357430	-0.000072
Br69	Br	1.209489	-0.019511	-0.769210
Br70	Br	1.270705	-0.080702	-0.618450
Br71	Br	1.270684	-0.080716	-0.381565
Br72	Br	1.209438	-0.019513	-0.230826
H73	H	0.509763	-0.108003	-0.000015
Br74	Br	0.288156	0.313488	-0.000089
Br75	Br	0.711688	-0.148851	-0.000013
Br76	Br	0.866774	-0.602081	-0.000025
Br77	Br	0.842100	-0.064056	-0.000007
Br78	Br	0.787343	-0.450385	-0.000018
Br79	Br	0.418574	0.398299	-0.000077
Br80	Br	1.338692	-0.521841	-0.000090
H81	H	1.297859	-0.319937	-0.000057
Br82	Br	1.263478	-0.148480	-0.000070
Br83	Br	0.920769	0.268953	-0.230878
H84	H	1.209794	-0.620951	-0.000066
Br85	Br	0.859572	0.330154	-0.381627
Br86	Br	0.859586	0.330142	-0.618530
