data_functionalizedCrystal
_audit_creation_method	'MofGen! by Chris Wilmer'
_symmetry_space_group_name_H-M	'P1'
_symmetry_Int_Tables_number	1
_symmetry_cell_setting	triclinic
loop_
_symmetry_equiv_pos_as_xyz
  x,y,z
_cell_length_a	16.625545
_cell_length_b	19.805407
_cell_length_c	19.805399
_cell_angle_alpha	89.980803
_cell_angle_beta	90.025578
_cell_angle_gamma	89.978292
loop_
_atom_site_label
_atom_site_type_symbol
_atom_site_fract_x
_atom_site_fract_y
_atom_site_fract_z
Zn1	Zn	-0.321103	-1.034740	0.382722
Zn2	Zn	0.012230	-0.701406	0.716056
Zn3	Zn	0.345564	-0.368073	1.049389
Zn4	Zn	-0.455940	-1.034656	0.269538
Zn5	Zn	-0.122607	-0.701323	0.602871
Zn6	Zn	0.210726	-0.367990	0.936205
Zn7	Zn	-0.321116	-0.921554	0.269548
Zn8	Zn	0.012217	-0.588221	0.602881
Zn9	Zn	0.345550	-0.254888	0.936214
Zn10	Zn	-0.455888	-0.921519	0.382685
Zn11	Zn	-0.122555	-0.588186	0.716019
Zn12	Zn	0.210778	-0.254853	1.049352
O13	O	-0.388512	-0.978117	0.326123
O14	O	-0.055179	-0.644784	0.659457
O15	O	0.278155	-0.311451	0.992790
O16	O	-0.339006	-1.129445	0.367719
O17	O	-0.005672	-0.796112	0.701053
O18	O	0.327661	-0.462778	1.034386
O19	O	-0.438083	-1.019633	0.174823
O20	O	-0.104750	-0.686299	0.508156
O21	O	0.228584	-0.352966	0.841489
O22	O	-0.208282	-0.936618	0.284580
O23	O	0.125051	-0.603285	0.617913
O24	O	0.458384	-0.269951	0.951247
O25	O	-0.438070	-1.129384	0.284563
O26	O	-0.104737	-0.796050	0.617897
O27	O	0.228597	-0.462717	0.951230
O28	O	-0.208272	-1.019775	0.367729
O29	O	0.125061	-0.686442	0.701062
O30	O	0.458394	-0.353108	1.034395
O31	O	-0.339028	-0.936537	0.174830
O32	O	-0.005695	-0.603204	0.508163
O33	O	0.327638	-0.269870	0.841496
O34	O	-0.338978	-0.826833	0.284544
O35	O	-0.005645	-0.493500	0.617878
O36	O	0.327689	-0.160166	0.951211
O37	O	-0.437982	-0.936559	0.477407
O38	O	-0.104648	-0.603225	0.810740
O39	O	0.228685	-0.269892	1.144074
O40	O	-0.437994	-0.826808	0.367666
O41	O	-0.104661	-0.493474	0.700999
O42	O	0.228672	-0.160141	1.034333
O43	O	-0.338955	-1.019741	0.477434
O44	O	-0.005622	-0.686408	0.810767
O45	O	0.327711	-0.353074	1.144101
O46	O	-0.568766	-1.019599	0.284528
O47	O	-0.235432	-0.686266	0.617861
O48	O	0.097901	-0.352932	0.951194
O49	O	-0.568728	-0.936478	0.367657
O50	O	-0.235394	-0.603144	0.700990
O51	O	0.097939	-0.269811	1.034323
C52	C	-0.388483	-0.802261	0.326103
C53	C	-0.055149	-0.468928	0.659436
C54	C	0.278184	-0.135595	0.992769
C55	C	-0.388489	-0.727029	0.326110
C56	C	-0.055156	-0.393696	0.659443
C57	C	0.278177	-0.060363	0.992776
C58	C	-0.336997	-0.691718	0.369474
C59	C	-0.003664	-0.358384	0.702807
C60	C	0.329670	-0.025051	1.036141
C61	C	-0.336999	-0.621029	0.369475
C62	C	-0.003666	-0.287696	0.702808
C63	C	0.329667	0.045637	1.036142
C64	C	-0.388499	-0.585654	0.326114
C65	C	-0.055166	-0.252320	0.659448
C66	C	0.278168	0.081013	0.992781
C67	C	-0.439994	-0.620970	0.282745
C68	C	-0.106660	-0.287637	0.616079
C69	C	0.226673	0.045696	0.949412
C70	C	-0.439987	-0.691658	0.282742
C71	C	-0.106653	-0.358324	0.616075
C72	C	0.226680	-0.024991	0.949408
C73	C	-0.440023	-0.335897	0.282759
C74	C	-0.106690	-0.002564	0.616093
C75	C	0.226644	0.330770	0.949426
C76	C	-0.440028	-0.265205	0.282768
C77	C	-0.106695	0.068128	0.616101
C78	C	0.226639	0.401462	0.949434
C79	C	-0.337036	-0.265269	0.369493
C80	C	-0.003703	0.068064	0.702826
C81	C	0.329631	0.401398	1.036159
C82	C	-0.337029	-0.335956	0.369489
C83	C	-0.003695	-0.002623	0.702822
C84	C	0.329638	0.330711	1.036155
C85	C	-0.388520	-0.371266	0.326118
C86	C	-0.055187	-0.037933	0.659451
C87	C	0.278147	0.295400	0.992784
C88	C	-0.388516	-0.447915	0.326116
C89	C	-0.055182	-0.114582	0.659449
C90	C	0.278151	0.218752	0.992783
C91	C	-0.388508	-0.509007	0.326119
C92	C	-0.055175	-0.175673	0.659452
C93	C	0.278159	0.157660	0.992785
C94	C	-0.598003	-0.978044	0.326102
C95	C	-0.264670	-0.644711	0.659435
C96	C	0.068664	-0.311377	0.992769
C97	C	-0.687624	-0.978074	0.326116
C98	C	-0.354291	-0.644741	0.659449
C99	C	-0.020957	-0.311408	0.992782
C100	C	-0.760406	-0.978101	0.326129
C101	C	-0.427073	-0.644767	0.659462
C102	C	-0.093740	-0.311434	0.992796
C103	C	-0.851715	-0.978140	0.326144
C104	C	-0.518382	-0.644807	0.659477
C105	C	-0.185048	-0.311473	0.992811
C106	C	-0.924491	-0.978175	0.326153
C107	C	-0.591158	-0.644842	0.659486
C108	C	-0.257825	-0.311508	0.992819
C109	C	-1.015806	-0.978214	0.326166
C110	C	-0.682472	-0.644881	0.659500
C111	C	-0.349139	-0.311547	0.992833
C112	C	-0.178203	-0.978210	0.326160
C113	C	0.155130	-0.644876	0.659493
C114	C	0.488464	-0.311543	0.992826
C115	C	-0.088582	-0.978249	0.326175
C116	C	0.244751	-0.644916	0.659508
C117	C	0.578085	-0.311582	0.992842
C118	C	-0.388461	-0.978155	0.502666
C119	C	-0.055128	-0.644822	0.835999
C120	C	0.278205	-0.311489	1.169333
C121	C	-0.388440	-0.978172	0.577898
C122	C	-0.055106	-0.644838	0.911231
C123	C	0.278227	-0.311505	1.244565
C124	C	-0.388536	-0.154660	0.326138
C125	C	-0.055203	0.178673	0.659472
C126	C	0.278131	0.512007	0.992805
C127	C	-0.388531	-0.229892	0.326129
C128	C	-0.055198	0.103441	0.659463
C129	C	0.278136	0.436775	0.992796
C130	C	-0.388504	-0.978119	0.150267
C131	C	-0.055171	-0.644785	0.483601
C132	C	0.278162	-0.311452	0.816934
C133	C	-0.388299	-0.978234	0.075036
C134	C	-0.054966	-0.644900	0.408369
C135	C	0.278368	-0.311567	0.741702
C136	C	-0.336874	-1.021486	0.613257
C137	C	-0.003541	-0.688152	0.946591
C138	C	0.329793	-0.354819	1.279924
C139	C	-0.336851	-1.021493	0.683946
C140	C	-0.003517	-0.688159	1.017279
C141	C	0.329816	-0.354826	1.350613
C142	C	-0.388398	-0.978188	0.719274
C143	C	-0.055064	-0.644855	1.052607
C144	C	0.278269	-0.311522	1.385940
C145	C	-0.439965	-0.934870	0.683910
C146	C	-0.106632	-0.601536	1.017243
C147	C	0.226701	-0.268203	1.350576
C148	C	-0.439984	-0.934860	0.613222
C149	C	-0.106651	-0.601526	0.946556
C150	C	0.226683	-0.268193	1.279889
C151	C	-0.439890	-0.934908	0.968983
C152	C	-0.106557	-0.601574	1.302316
C153	C	0.226777	-0.268241	1.635650
C154	C	-0.439869	-0.934922	1.039675
C155	C	-0.106536	-0.601589	1.373008
C156	C	0.226798	-0.268256	1.706342
C157	C	-0.336757	-1.021541	1.039707
C158	C	-0.003424	-0.688207	1.373040
C159	C	0.329910	-0.354874	1.706373
C160	C	-0.336776	-1.021531	0.969019
C161	C	-0.003442	-0.688197	1.302353
C162	C	0.329891	-0.354864	1.635686
C163	C	-0.388340	-0.978210	0.933661
C164	C	-0.055007	-0.644876	1.266995
C165	C	0.278327	-0.311543	1.600328
C166	C	-0.388364	-0.978202	0.857013
C167	C	-0.055030	-0.644868	1.190346
C168	C	0.278303	-0.311535	1.523679
C169	C	-0.388379	-0.978199	0.795921
C170	C	-0.055045	-0.644866	1.129254
C171	C	0.278288	-0.311533	1.462588
H172	H	-0.481951	-0.364638	0.247444
H173	H	-0.148618	-0.031305	0.580778
H174	H	0.184715	0.302028	0.914111
H175	H	-0.481922	-0.592162	0.247437
H176	H	-0.148588	-0.258829	0.580771
H177	H	0.184745	0.074505	0.914104
H178	H	-0.294768	-1.056812	1.068504
H179	H	0.038566	-0.723479	1.401837
H180	H	0.371899	-0.390146	1.735170
H181	H	-0.481846	-0.899656	1.068437
H182	H	-0.148513	-0.566323	1.401770
H183	H	0.184820	-0.232989	1.735104
N184	N	-0.495520	-0.729747	0.235967
N185	N	-0.162187	-0.396414	0.569300
N186	N	0.171146	-0.063081	0.902634
H187	H	-0.528147	-0.696612	0.208499
H188	H	-0.194814	-0.363279	0.541832
H189	H	0.138520	-0.029945	0.875165
H190	H	-0.532875	-0.759080	0.263459
H191	H	-0.199542	-0.425746	0.596792
H192	H	0.133792	-0.092413	0.930126
H193	H	-0.295062	-0.720516	0.404785
H194	H	0.038271	-0.387182	0.738118
H195	H	0.371605	-0.053849	1.071452
H196	H	-0.481889	-0.899643	0.940203
H197	H	-0.148555	-0.566310	1.273536
H198	H	0.184778	-0.232976	1.606870
N199	N	-0.495545	-0.888146	0.722009
N200	N	-0.162212	-0.554813	1.055343
N201	N	0.171121	-0.221480	1.388676
H202	H	-0.487707	-0.894722	0.772155
H203	H	-0.154374	-0.561389	1.105488
H204	H	0.178960	-0.228055	1.438822
H205	H	-0.553141	-0.898641	0.709650
H206	H	-0.219808	-0.565308	1.042983
H207	H	0.113526	-0.231974	1.376317
N208	N	-0.495566	-0.227050	0.235988
N209	N	-0.162233	0.106284	0.569321
N210	N	0.171101	0.439617	0.902654
H211	H	-0.487756	-0.176912	0.242574
H212	H	-0.154423	0.156421	0.575908
H213	H	0.178910	0.489755	0.909241
H214	H	-0.553170	-0.239393	0.246428
H215	H	-0.219836	0.093940	0.579761
H216	H	0.113497	0.427273	0.913094
H217	H	-0.294901	-1.056751	0.584499
H218	H	0.038432	-0.723418	0.917832
H219	H	0.371765	-0.390084	1.251165
H220	H	-0.295071	-0.592282	0.404788
H221	H	0.038263	-0.258948	0.738121
H222	H	0.371596	0.074385	1.071455
H223	H	-0.481966	-0.899582	0.584434
H224	H	-0.148632	-0.566249	0.917767
H225	H	0.184701	-0.232915	1.251100
H226	H	-0.294863	-1.056765	0.712732
H227	H	0.038470	-0.723431	1.046066
H228	H	0.371804	-0.390098	1.379399
H229	H	-0.294804	-1.056796	0.940259
H230	H	0.038530	-0.723462	1.273592
H231	H	0.371863	-0.390129	1.606926
N232	N	-0.281488	-0.374111	0.416259
N233	N	0.051846	-0.040778	0.749593
N234	N	0.385179	0.292555	1.082926
H235	H	-0.248866	-0.341015	0.443731
H236	H	0.084467	-0.007681	0.777064
H237	H	0.417801	0.325652	1.110397
H238	H	-0.244129	-0.403439	0.388760
H239	H	0.089205	-0.070105	0.722094
H240	H	0.422538	0.263228	1.055427
N241	N	-0.281490	-0.227177	0.416262
N242	N	0.051844	0.106156	0.749595
N243	N	0.385177	0.439490	1.082928
H244	H	-0.223863	-0.239492	0.405835
H245	H	0.109471	0.093841	0.739168
H246	H	0.442804	0.427174	1.072501
H247	H	-0.294156	-0.239506	0.464586
H248	H	0.039178	0.093828	0.797919
H249	H	0.372511	0.427161	1.131252
