data_functionalizedCrystal
_audit_creation_method	'MofGen! by Chris Wilmer'
_symmetry_space_group_name_H-M	'P1'
_symmetry_Int_Tables_number	1
_symmetry_cell_setting	triclinic
loop_
_symmetry_equiv_pos_as_xyz
  x,y,z
_cell_length_a	6.817900
_cell_length_b	9.582889
_cell_length_c	27.923456
_cell_angle_alpha	94.928940
_cell_angle_beta	98.963413
_cell_angle_gamma	111.207298
loop_
_atom_site_label
_atom_site_type_symbol
_atom_site_fract_x
_atom_site_fract_y
_atom_site_fract_z
V1	V	-4.017172	-0.209270	-0.151183
O2	O	-3.963735	0.007777	-0.148396
O3	O	-4.008314	-0.412754	-0.150061
O4	O	-3.946541	-0.207051	-0.217159
O5	O	-4.025936	-0.199351	-0.080834
V6	V	-4.498557	-0.183190	-0.142779
O7	O	-4.283120	-0.266477	-0.169617
O8	O	-4.682805	-0.125983	-0.124345
O9	O	-4.284208	0.020294	-0.143901
O10	O	-4.669390	-0.400237	-0.145566
O11	O	-4.607189	-0.193109	-0.213128
O12	O	-4.345981	-0.185409	-0.076803
C13	C	-3.863654	-0.462328	-0.147653
C14	C	-3.937550	-0.628686	-0.147176
C15	C	-3.784854	-0.199931	-0.233243
C16	C	-3.808651	-0.199464	-0.287178
C17	C	-4.139112	-0.203932	-0.624097
C18	C	-4.228629	-0.202117	-0.826805
O19	O	-4.395588	-0.208200	-0.855111
N20	N	-4.057076	-0.194391	-0.849683
C21	C	-3.863125	-0.187108	-0.821881
O22	O	-3.719256	-0.180479	-0.845991
C23	C	-3.773606	-0.188912	-0.619173
C24	C	-3.945178	-0.196654	-0.596298
C25	C	-4.310669	-0.211671	-0.601221
C26	C	-4.288293	-0.212133	-0.550548
C27	C	-4.094360	-0.204855	-0.522749
C28	C	-3.922803	-0.197115	-0.545625
C29	C	-3.579652	-0.181618	-0.591371
C30	C	-3.557285	-0.182066	-0.540691
C31	C	-3.728858	-0.189808	-0.517816
C32	C	-3.706494	-0.190299	-0.467153
N33	N	-3.878046	-0.198026	-0.444274
C34	C	-4.071979	-0.205304	-0.472073
C35	C	-3.910139	-0.186164	-0.928306
C36	C	-3.932519	-0.185716	-0.978982
C37	C	-4.298021	-0.200722	-0.983903
C38	C	-4.275643	-0.201181	-0.933225
C39	C	-4.081691	-0.193890	-0.905427
C40	C	-4.024975	-0.206274	-0.365654
C41	C	-4.002584	-0.206742	-0.314976
C42	C	-3.637082	-0.191727	-0.310060
C43	C	-3.659474	-0.191268	-0.360734
C44	C	-3.853433	-0.198537	-0.388530
O45	O	-3.539594	-0.184203	-0.438815
O46	O	-4.215806	-0.211898	-0.447952
C47	C	-4.161488	-0.203470	-0.674770
C48	C	-3.989930	-0.195730	-0.697645
C49	C	-3.795997	-0.188452	-0.669847
C50	C	-4.012311	-0.195282	-0.748322
C51	C	-4.206244	-0.202560	-0.776121
C52	C	-4.377797	-0.210286	-0.753242
C53	C	-4.355421	-0.210748	-0.702569
C54	C	-3.624445	-0.180726	-0.692726
C55	C	-3.646836	-0.180266	-0.743400
C56	C	-3.840769	-0.187544	-0.771198
C57	C	-4.092212	0.069860	-0.146307
C58	C	-3.997554	0.236216	-0.146788
C59	C	-4.171012	-0.192534	-0.060717
C60	C	-4.126452	-0.192994	-0.006781
H61	H	-4.142310	-0.213051	-0.296354
Br62	Br	-3.294045	-0.172155	-0.502967
Br63	Br	-4.561219	-0.210599	-1.021639
Br64	Br	-4.573896	-0.221554	-0.638939
Br65	Br	-3.361234	-0.170862	-0.655008
H66	H	-3.507112	-0.173973	-0.762020
H67	H	-3.752201	-0.180239	-0.905677
Br68	Br	-4.288202	-0.216136	-0.403369
H69	H	-4.428005	-0.218431	-0.531927
H70	H	-3.519773	-0.184980	-0.379361
H71	H	-3.479185	-0.185808	-0.287418
Br72	Br	-3.699676	-0.175246	-1.010023
H73	H	-4.415355	-0.207485	-0.914604
H74	H	-3.439934	-0.175314	-0.609987
Br75	Br	-4.640999	-0.220174	-0.790979
H76	H	-4.495136	-0.217052	-0.683949
