data_functionalizedCrystal
_audit_creation_method	'MofGen! by Chris Wilmer'
_symmetry_space_group_name_H-M	'P1'
_symmetry_Int_Tables_number	1
_symmetry_cell_setting	triclinic
loop_
_symmetry_equiv_pos_as_xyz
  x,y,z
_cell_length_a	15.944551
_cell_length_b	15.538191
_cell_length_c	14.750779
_cell_angle_alpha	97.569385
_cell_angle_beta	77.352771
_cell_angle_gamma	65.385416
loop_
_atom_site_label
_atom_site_type_symbol
_atom_site_fract_x
_atom_site_fract_y
_atom_site_fract_z
O1	O	-1.053046	-0.141899	-0.079720
O2	O	-0.803922	-0.156884	-0.079744
O3	O	-0.976976	-0.012265	-0.079732
O4	O	-0.879991	-0.286518	-0.079732
O5	O	-1.025895	0.028612	0.079922
O6	O	-0.852841	-0.116006	0.079910
O7	O	-1.101965	-0.101022	0.079933
Zn8	Zn	-0.985170	-0.102024	0.105270
Zn9	Zn	-0.920717	-0.155882	-0.105080
O10	O	-0.928910	-0.245640	0.079922
C11	C	-0.797276	-0.135824	0.000080
C12	C	-0.704595	-0.133962	0.000071
C13	C	-1.011582	0.043268	0.000092
C14	C	-1.041806	0.147838	0.000086
C15	C	-1.108610	-0.122082	0.000107
C16	C	-1.201288	-0.123946	0.000110
C17	C	-0.518437	-0.039862	0.000090
C18	C	-0.419974	-0.103711	-0.078628
C19	C	-0.534901	-0.130587	0.000082
C20	C	-0.468220	-0.063431	0.078778
C21	C	-0.370989	-0.127318	0.000098
C22	C	-0.437638	-0.194478	-0.078700
C23	C	-0.485916	-0.154166	0.078776
C24	C	-0.387444	-0.218087	0.000040
C25	C	-0.629328	-0.132467	0.000073
C26	C	-0.276559	-0.125447	0.000100
C27	C	-0.894303	-0.301174	0.000095
C28	C	-0.864078	-0.405746	0.000095
N29	N	-1.029164	-0.065267	0.248829
C30	C	-0.741523	0.435645	0.000078
C31	C	-0.769947	0.533911	0.000083
C32	C	-0.929821	0.556347	0.000098
C33	C	-0.901409	0.458081	0.000088
C34	C	-0.807260	0.397737	0.000080
C35	C	-0.967145	0.420173	0.000089
C36	C	-0.938737	0.321916	0.000085
C37	C	-0.844592	0.261567	0.000079
C38	C	-0.778851	0.299481	0.000075
C39	C	-1.061297	0.480520	0.000105
C40	C	-1.127033	0.442611	0.000106
C41	C	-1.098623	0.344351	0.000095
C42	C	-1.004478	0.284003	0.000089
C43	C	-1.164364	0.306438	0.000099
C44	C	-1.135955	0.208181	0.000094
C45	C	-0.976070	0.185746	0.000085
N46	N	-0.876732	-0.192631	-0.248639
C47	C	-0.753876	-0.295247	0.600628
C48	C	-0.784708	-0.269496	0.701130
C49	C	-0.937957	-0.141484	0.701103
C50	C	-0.907136	-0.167221	0.600599
C51	C	-0.815095	-0.244104	0.550370
C52	C	-0.968355	-0.116077	0.550341
C53	C	-0.937538	-0.141816	0.449847
C54	C	-0.845502	-0.218698	0.399610
C55	C	-0.784278	-0.269842	0.449876
C56	C	-1.060399	-0.039199	0.600572
C57	C	-1.121618	0.011944	0.550314
C58	C	-1.090798	-0.013790	0.449818
C59	C	-0.998762	-0.090671	0.399581
C60	C	-1.152022	0.037355	0.399552
C61	C	-1.121205	0.011616	0.299058
C62	C	-0.967945	-0.116410	0.299087
H63	H	-0.574700	0.035406	-0.000008
H64	H	-0.664855	0.386508	0.000064
Cl65	Cl	-1.198170	0.075910	0.235874
H66	H	-1.012900	-0.078887	0.742011
Cl67	Cl	-1.099139	-0.006850	0.726910
H68	H	-0.331289	-0.293468	-0.000004
Cl69	Cl	-0.707734	-0.333805	0.764304
H70	H	-0.391173	-0.082379	-0.145178
Cl71	Cl	-1.048179	0.632217	0.000116
Cl72	Cl	-0.687298	0.581564	0.000088
H73	H	-0.514749	-0.175467	0.145330
H74	H	-0.425520	-0.249879	-0.145322
H75	H	-1.226966	0.099948	0.440462
Cl76	Cl	-0.486764	0.022142	0.181524
Cl77	Cl	-1.282724	0.382313	0.000128
H78	H	-0.820413	-0.239656	0.317781
Cl79	Cl	-0.857704	0.109876	0.000064
Cl80	Cl	-0.808879	0.138045	0.000083
H81	H	-1.203691	0.491757	0.000117
H82	H	-0.702183	0.250343	0.000061
Cl83	Cl	-1.097012	0.604046	0.000117
Cl84	Cl	-1.218601	0.160526	0.000114
Cl85	Cl	-0.852227	-0.213056	0.235938
Cl86	Cl	-1.237324	0.108592	0.613466
Cl87	Cl	-0.668560	-0.366488	0.386727
Cl88	Cl	-0.638158	-0.391893	0.537479
