data_functionalizedCrystal
_audit_creation_method	'MofGen! by Chris Wilmer'
_symmetry_space_group_name_H-M	'P1'
_symmetry_Int_Tables_number	1
_symmetry_cell_setting	triclinic
loop_
_symmetry_equiv_pos_as_xyz
  x,y,z
_cell_length_a	16.109302
_cell_length_b	18.266242
_cell_length_c	16.109304
_cell_angle_alpha	90.003536
_cell_angle_beta	83.462209
_cell_angle_gamma	90.010978
loop_
_atom_site_label
_atom_site_type_symbol
_atom_site_fract_x
_atom_site_fract_y
_atom_site_fract_z
O1	O	1.103138	0.060909	0.106871
O2	O	1.353138	0.310909	0.356871
O3	O	1.603138	0.560909	0.606871
O4	O	1.853138	0.810909	0.856871
O5	O	0.861076	0.060903	0.120170
O6	O	1.111076	0.310903	0.370170
O7	O	1.361076	0.560903	0.620170
O8	O	1.611076	0.810903	0.870170
O9	O	0.988755	0.060907	-0.007510
O10	O	1.238755	0.310907	0.242490
O11	O	1.488755	0.560907	0.492490
O12	O	1.738755	0.810907	0.742490
O13	O	0.975459	0.060905	0.234551
O14	O	1.225459	0.310905	0.484551
O15	O	1.475459	0.560905	0.734551
O16	O	1.725459	0.810905	0.984551
O17	O	0.988734	-0.060855	-0.007517
O18	O	1.238734	0.189145	0.242483
O19	O	1.488734	0.439145	0.492483
O20	O	1.738734	0.689145	0.742483
O21	O	0.861054	-0.060859	0.120163
O22	O	1.111054	0.189141	0.370163
O23	O	1.361054	0.439141	0.620163
O24	O	1.611054	0.689141	0.870163
O25	O	1.103116	-0.060853	0.106865
O26	O	1.353116	0.189147	0.356865
O27	O	1.603116	0.439147	0.606865
O28	O	1.853116	0.689147	0.856865
Zn29	Zn	0.982082	-0.080188	0.113513
Zn30	Zn	1.232082	0.169812	0.363513
Zn31	Zn	1.482082	0.419812	0.613513
Zn32	Zn	1.732082	0.669812	0.863513
Zn33	Zn	0.982110	0.080238	0.113522
Zn34	Zn	1.232110	0.330238	0.363522
Zn35	Zn	1.482110	0.580238	0.613522
Zn36	Zn	1.732110	0.830238	0.863522
O37	O	0.975437	-0.060857	0.234545
O38	O	1.225437	0.189143	0.484545
O39	O	1.475437	0.439143	0.734545
O40	O	1.725437	0.689143	0.984545
C41	C	0.830090	0.000021	0.119628
C42	C	1.080090	0.250021	0.369628
C43	C	1.330090	0.500021	0.619628
C44	C	1.580090	0.750021	0.869628
C45	C	0.737795	0.000019	0.118012
C46	C	0.987795	0.250019	0.368012
C47	C	1.237795	0.500019	0.618012
C48	C	1.487795	0.750019	0.868012
C49	C	0.525442	-0.066346	0.114274
C50	C	0.775442	0.183654	0.364274
C51	C	1.025442	0.433654	0.614274
C52	C	1.275442	0.683654	0.864274
C53	C	0.438722	-0.066344	0.112747
C54	C	0.688722	0.183656	0.362747
C55	C	0.938722	0.433656	0.612747
C56	C	1.188722	0.683656	0.862747
C57	C	0.438756	0.066408	0.112758
C58	C	0.688756	0.316408	0.362758
C59	C	0.938756	0.566408	0.612758
C60	C	1.188756	0.816408	0.862758
C61	C	0.525476	0.066405	0.114279
C62	C	0.775476	0.316405	0.364279
C63	C	1.025476	0.566405	0.614279
C64	C	1.275476	0.816405	0.864279
C65	C	0.568816	0.000025	0.115041
C66	C	0.818816	0.250025	0.365041
C67	C	1.068816	0.500025	0.615041
C68	C	1.318816	0.750025	0.865041
C69	C	0.395377	0.000031	0.111994
C70	C	0.645377	0.250031	0.361994
C71	C	0.895377	0.500031	0.611994
C72	C	1.145377	0.750031	0.861994
C73	C	0.301351	0.000034	0.110338
C74	C	0.551351	0.250034	0.360338
C75	C	0.801351	0.500034	0.610338
C76	C	1.051351	0.750034	0.860338
C77	C	0.662848	0.000022	0.116695
C78	C	0.912848	0.250022	0.366695
C79	C	1.162848	0.500022	0.616695
C80	C	1.412848	0.750022	0.866695
N81	N	0.982069	-0.189675	0.113506
N82	N	1.232069	0.060325	0.363506
N83	N	1.482069	0.310325	0.613506
N84	N	1.732069	0.560325	0.863506
C85	C	1.038623	-0.227982	0.056997
C86	C	1.288623	0.022018	0.306997
C87	C	1.538623	0.272018	0.556997
C88	C	1.788623	0.522018	0.806997
C89	C	1.038629	-0.304627	0.056994
C90	C	1.288629	-0.054627	0.306994
C91	C	1.538629	0.195373	0.556994
C92	C	1.788629	0.445373	0.806994
C93	C	0.982087	-0.342962	0.113513
C94	C	1.232087	-0.092962	0.363513
C95	C	1.482087	0.157038	0.613513
C96	C	1.732087	0.407038	0.863513
C97	C	0.925521	-0.304646	0.170026
C98	C	1.175521	-0.054646	0.420026
C99	C	1.425521	0.195354	0.670026
C100	C	1.675521	0.445354	0.920026
C101	C	0.925512	-0.228002	0.170023
C102	C	1.175512	0.021998	0.420023
C103	C	1.425512	0.271998	0.670023
C104	C	1.675512	0.521998	0.920023
N105	N	0.971485	-0.463295	0.187083
N106	N	1.221485	-0.213295	0.437083
N107	N	1.471485	0.036705	0.687083
N108	N	1.721485	0.286705	0.937083
N109	N	0.971499	-0.536103	0.187083
N110	N	1.221499	-0.286103	0.437083
N111	N	1.471499	-0.036103	0.687083
N112	N	1.721499	0.213897	0.937083
C113	C	0.982110	-0.573885	0.113525
C114	C	1.232110	-0.323885	0.363525
C115	C	1.482110	-0.073885	0.613525
C116	C	1.732110	0.176115	0.863525
N117	N	0.992724	-0.536107	0.039964
N118	N	1.242724	-0.286107	0.289964
N119	N	1.492724	-0.036107	0.539964
N120	N	1.742724	0.213893	0.789964
N121	N	0.992714	-0.463293	0.039965
N122	N	1.242714	-0.213293	0.289965
N123	N	1.492714	0.036707	0.539965
N124	N	1.742714	0.286707	0.789965
C125	C	0.982090	-0.426069	0.113523
C126	C	1.232090	-0.176069	0.363523
C127	C	1.482090	0.073931	0.613523
C128	C	1.732090	0.323931	0.863523
C129	C	1.038674	-0.695299	0.057007
C130	C	1.288674	-0.445299	0.307007
C131	C	1.538674	-0.195299	0.557007
C132	C	1.788674	0.054701	0.807007
C133	C	1.038674	-0.771945	0.057002
C134	C	1.288674	-0.521945	0.307002
C135	C	1.538674	-0.271945	0.557002
C136	C	1.788674	-0.021945	0.807002
C137	C	0.925570	-0.771962	0.170042
C138	C	1.175570	-0.521962	0.420042
C139	C	1.425570	-0.271962	0.670042
C140	C	1.675570	-0.021962	0.920042
C141	C	0.925567	-0.695317	0.170040
C142	C	1.175567	-0.445317	0.420040
C143	C	1.425567	-0.195317	0.670040
C144	C	1.675567	0.054683	0.920040
C145	C	0.982123	-0.656990	0.113523
C146	C	1.232123	-0.406990	0.363523
C147	C	1.482123	-0.156990	0.613523
C148	C	1.732123	0.093010	0.863523
C149	C	1.134102	0.000031	0.107407
C150	C	1.384102	0.250031	0.357407
C151	C	1.634102	0.500031	0.607407
C152	C	1.884102	0.750031	0.857407
C153	C	1.226397	0.000038	0.109022
C154	C	1.476397	0.250038	0.359022
C155	C	1.726397	0.500038	0.609022
C156	C	1.976397	0.750038	0.859022
C157	C	0.988206	0.000027	-0.038488
C158	C	1.238206	0.250027	0.211512
C159	C	1.488206	0.500027	0.461512
C160	C	1.738206	0.750027	0.711512
C161	C	0.986590	0.000032	-0.130784
C162	C	1.236590	0.250032	0.119216
C163	C	1.486590	0.500032	0.369216
C164	C	1.736590	0.750032	0.619216
N165	N	0.982130	0.189725	0.113521
N166	N	1.232130	0.439725	0.363521
N167	N	1.482130	0.689725	0.613521
N168	N	1.732130	0.939725	0.863521
C169	C	0.982868	0.066402	-0.343117
C170	C	1.232868	0.316402	-0.093117
C171	C	1.482868	0.566402	0.156883
C172	C	1.732868	0.816402	0.406883
C173	C	0.981342	0.066401	-0.429838
C174	C	1.231342	0.316401	-0.179838
C175	C	1.481342	0.566401	0.070162
C176	C	1.731342	0.816401	0.320162
C177	C	0.981322	-0.066350	-0.429842
C178	C	1.231322	0.183650	-0.179842
C179	C	1.481322	0.433650	0.070158
C180	C	1.731322	0.683650	0.320158
C181	C	0.982842	-0.066349	-0.343122
C182	C	1.232842	0.183651	-0.093122
C183	C	1.482842	0.433651	0.156878
C184	C	1.732842	0.683651	0.406878
C185	C	0.983619	0.000029	-0.299763
C186	C	1.233619	0.250029	-0.049763
C187	C	1.483619	0.500029	0.200237
C188	C	1.733619	0.750029	0.450237
C189	C	0.980573	0.000027	-0.473202
C190	C	1.230573	0.250027	-0.223202
C191	C	1.480573	0.500027	0.026798
C192	C	1.730573	0.750027	0.276798
C193	C	0.978918	0.000026	-0.567228
C194	C	1.228918	0.250026	-0.317228
C195	C	1.478918	0.500026	-0.067228
C196	C	1.728918	0.750026	0.182772
C197	C	0.985273	0.000031	-0.205731
C198	C	1.235273	0.250031	0.044269
C199	C	1.485273	0.500031	0.294269
C200	C	1.735273	0.750031	0.544269
C201	C	0.975987	0.000024	0.265523
C202	C	1.225987	0.250024	0.515523
C203	C	1.475987	0.500024	0.765523
C204	C	1.725987	0.750024	1.015523
C205	C	0.977603	0.000024	0.357818
C206	C	1.227603	0.250024	0.607818
C207	C	1.477603	0.500024	0.857818
C208	C	1.727603	0.750024	1.107818
H209	H	0.560727	-0.120397	0.114894
H210	H	0.810727	0.129603	0.364894
H211	H	1.060727	0.379603	0.614894
H212	H	1.310727	0.629603	0.864894
H213	H	0.980691	-0.120393	-0.465156
H214	H	1.230691	0.129607	-0.215156
H215	H	1.480691	0.379607	0.034844
H216	H	1.730691	0.629607	0.284844
H217	H	0.403411	-0.120390	0.112122
H218	H	0.653411	0.129610	0.362122
H219	H	0.903411	0.379610	0.612122
H220	H	1.153411	0.629610	0.862122
H221	H	0.983450	-0.120401	-0.307822
H222	H	1.233450	0.129599	-0.057822
H223	H	1.483450	0.379599	0.192178
H224	H	1.733450	0.629599	0.442178
H225	H	1.084684	-0.335823	0.010975
H226	H	1.334684	-0.085823	0.260975
H227	H	1.584684	0.164177	0.510975
H228	H	1.834684	0.414177	0.760975
H229	H	0.403458	0.120451	0.112139
H230	H	0.653458	0.370451	0.362139
H231	H	0.903458	0.620451	0.612139
H232	H	1.153458	0.870451	0.862139
H233	H	1.084673	-0.196779	0.010976
H234	H	1.334673	0.053221	0.260976
H235	H	1.584673	0.303221	0.510976
H236	H	1.834673	0.553221	0.760976
H237	H	0.560792	0.120456	0.114902
H238	H	0.810792	0.370456	0.364902
H239	H	1.060792	0.620456	0.614902
H240	H	1.310792	0.870456	0.864902
H241	H	0.879483	-0.335862	0.216044
H242	H	1.129483	-0.085862	0.466044
H243	H	1.379483	0.164138	0.716044
H244	H	1.629483	0.414138	0.966044
H245	H	0.879457	-0.196812	0.216040
H246	H	1.129457	0.053188	0.466040
H247	H	1.379457	0.303188	0.716040
H248	H	1.629457	0.553188	0.966040
H249	H	1.084723	-0.664092	0.010985
H250	H	1.334723	-0.414092	0.260985
H251	H	1.584723	-0.164092	0.510985
H252	H	1.834723	0.085908	0.760985
H253	H	0.879530	-0.803174	0.216058
H254	H	1.129530	-0.553174	0.466058
H255	H	1.379530	-0.303174	0.716058
H256	H	1.629530	-0.053174	0.966058
H257	H	1.084725	-0.803136	0.010981
H258	H	1.334725	-0.553136	0.260981
H259	H	1.584725	-0.303136	0.510981
H260	H	1.834725	-0.053136	0.760981
H261	H	0.980728	0.120448	-0.465133
H262	H	1.230728	0.370448	-0.215133
H263	H	1.480728	0.620448	0.034867
H264	H	1.730728	0.870448	0.284867
H265	H	0.879518	-0.664125	0.216058
H266	H	1.129518	-0.414125	0.466058
H267	H	1.379518	-0.164125	0.716058
H268	H	1.629518	0.085875	0.966058
H269	H	0.983498	0.120451	-0.307816
H270	H	1.233498	0.370451	-0.057816
H271	H	1.483498	0.620451	0.192184
H272	H	1.733498	0.870451	0.442184
