data_functionalizedCrystal
_audit_creation_method	'MofGen! by Chris Wilmer'
_symmetry_space_group_name_H-M	'P1'
_symmetry_Int_Tables_number	1
_symmetry_cell_setting	triclinic
loop_
_symmetry_equiv_pos_as_xyz
  x,y,z
_cell_length_a	12.645331
_cell_length_b	12.645323
_cell_length_c	12.645330
_cell_angle_alpha	90.024870
_cell_angle_beta	89.983329
_cell_angle_gamma	89.977324
loop_
_atom_site_label
_atom_site_type_symbol
_atom_site_fract_x
_atom_site_fract_y
_atom_site_fract_z
Zn1	Zn	1.620731	-0.599446	0.422060
Zn2	Zn	2.120731	-0.099446	0.922060
Zn3	Zn	1.620613	-0.422186	0.599348
Zn4	Zn	2.120613	0.077814	1.099348
Zn5	Zn	1.443446	-0.422191	0.422096
Zn6	Zn	1.943446	0.077809	0.922096
Zn7	Zn	1.443428	-0.599402	0.599279
Zn8	Zn	1.943428	-0.099402	1.099279
O9	O	1.532054	-0.510806	0.510695
O10	O	2.032054	-0.010806	1.010695
O11	O	1.769063	-0.575949	0.445591
O12	O	2.269063	-0.075949	0.945591
O13	O	1.597069	-0.273840	0.575879
O14	O	2.097069	0.226160	1.075879
O15	O	1.467020	-0.445724	0.273744
O16	O	1.967020	0.054276	0.773744
O17	O	1.768976	-0.445717	0.575844
O18	O	2.268976	0.054283	1.075844
O19	O	1.597271	-0.575953	0.273717
O20	O	2.097271	-0.075953	0.773717
O21	O	1.466906	-0.273843	0.445653
O22	O	1.966906	0.226157	0.945653
O23	O	1.295096	-0.445681	0.445585
O24	O	1.795096	0.054319	0.945585
O25	O	1.466989	-0.747755	0.575726
O26	O	1.966989	-0.247755	1.075726
O27	O	1.295083	-0.575877	0.575761
O28	O	1.795083	-0.075877	1.075761
O29	O	1.597253	-0.747788	0.445524
O30	O	2.097253	-0.247788	0.945524
O31	O	1.597052	-0.445674	0.747686
O32	O	2.097052	0.054326	1.247686
O33	O	1.466874	-0.575873	0.747635
O34	O	1.966874	-0.075873	1.247635
C35	C	1.256625	-0.510776	0.510670
C36	C	1.756625	-0.010776	1.010670
C37	C	1.138795	-0.510788	0.510685
C38	C	1.638795	-0.010788	1.010685
C39	C	1.532132	-0.787312	0.510614
C40	C	2.032132	-0.287312	1.010614
C41	C	1.532166	-0.905142	0.510579
C42	C	2.032166	-0.405142	1.010579
C43	C	0.971204	-0.429333	0.428415
C44	C	1.471204	0.070667	0.928415
C45	C	1.093763	-0.428974	0.428628
C46	C	1.593763	0.071026	0.928628
C47	C	1.094274	-0.480273	0.622359
C48	C	1.594274	0.019727	1.122359
C49	C	0.971676	-0.479717	0.621910
C50	C	1.471676	0.020283	1.121910
C51	C	0.971645	-0.623072	0.482344
C52	C	1.471645	-0.123072	0.982344
C53	C	1.094251	-0.622448	0.479849
C54	C	1.594251	-0.122448	0.979849
C55	C	1.449964	-1.072685	0.592103
C56	C	1.949964	-0.572685	1.092103
C57	C	1.450179	-0.950125	0.592506
C58	C	1.950179	-0.450125	1.092506
C59	C	1.643865	-0.949662	0.540899
C60	C	2.143865	-0.449662	1.040899
C61	C	1.643414	-1.072260	0.541410
C62	C	2.143414	-0.572260	1.041410
C63	C	1.503724	-1.072340	0.398278
C64	C	2.003724	-0.572340	0.898278
C65	C	1.501232	-0.949733	0.398951
C66	C	2.001232	-0.449733	0.898951
C67	C	1.808560	-0.510838	0.510722
C68	C	2.308560	-0.010838	1.010722
C69	C	1.926390	-0.510851	0.510733
C70	C	2.426390	-0.010851	1.010733
C71	C	1.531977	-0.510791	0.786125
C72	C	2.031977	-0.010791	1.286125
C73	C	1.532041	-0.510821	0.903955
C74	C	2.032041	-0.010821	1.403955
C75	C	1.532038	-0.235377	0.510701
C76	C	2.032038	0.264623	1.010701
C77	C	1.532210	-0.117547	0.510437
C78	C	2.032210	0.382453	1.010437
C79	C	1.532161	-0.510844	0.234190
C80	C	2.032161	-0.010844	0.734190
C81	C	1.532206	-0.510861	0.116360
C82	C	2.032206	-0.010861	0.616360
C83	C	1.450484	-0.592982	1.071531
C84	C	1.950484	-0.092982	1.571531
C85	C	1.450067	-0.592717	0.948972
C86	C	1.950067	-0.092717	1.448972
C87	C	1.501796	-0.399099	0.948549
C88	C	2.001796	0.100901	1.448549
C89	C	1.501298	-0.399597	1.071147
C90	C	2.001298	0.100403	1.571147
C91	C	1.644342	-0.539475	1.071047
C92	C	2.144342	-0.039475	1.571047
C93	C	1.643654	-0.541918	0.948440
C94	C	2.143654	-0.041918	1.448440
H95	H	1.123864	-0.448100	0.345817
H96	H	1.623864	0.051900	0.845817
H97	H	1.671932	-0.619558	1.101891
H98	H	2.171932	-0.119558	1.601891
F99	F	1.341917	-0.910777	0.567701
F100	F	1.841917	-0.410777	1.067701
F101	F	0.934231	-0.372486	0.653374
F102	F	1.434231	0.127514	1.153374
F103	F	1.399114	-1.112730	0.362154
F104	F	1.899114	-0.612730	0.862154
F105	F	1.577127	-0.316935	0.910441
F106	F	2.077127	0.183065	1.410441
H107	H	1.366889	-1.102159	0.573311
H108	H	1.866889	-0.602159	1.073311
F109	F	1.395767	-0.366841	0.908542
F110	F	1.895767	0.133159	1.408542
H111	H	1.667560	-1.100871	0.623400
H112	H	2.167560	-0.600871	1.123400
H113	H	0.941740	-0.448254	0.345355
H114	H	1.441740	0.051746	0.845355
F115	F	0.932925	-0.553933	0.704793
F116	F	1.432925	-0.053933	1.204793
F117	F	1.132389	-0.555448	0.704669
F118	F	1.632389	-0.055448	1.204669
H119	H	1.124909	-0.686433	0.535432
H120	H	1.624909	-0.186433	1.035432
H121	H	1.705227	-0.479663	1.100036
H122	H	2.205227	0.020337	1.600036
H123	H	1.666463	-0.624140	0.919290
H124	H	2.166463	-0.124140	1.419290
F125	F	0.933768	-0.702462	0.560710
F126	F	1.433768	-0.202462	1.060710
H127	H	1.124930	-0.399115	0.646847
H128	H	1.624930	0.100885	1.146847
F129	F	0.930866	-0.321278	0.452650
F130	F	1.430866	0.178722	0.952650
H131	H	1.468585	-1.103504	0.674731
H132	H	1.968585	-0.603504	1.174731
F133	F	1.341406	-0.567943	0.910753
F134	F	1.841406	-0.067943	1.410753
F135	F	1.727434	-0.469439	0.908373
F136	F	2.227434	0.030561	1.408373
H137	H	1.468983	-0.920811	0.675654
H138	H	1.968983	-0.420811	1.175654
H139	H	0.940749	-0.650823	0.402333
H140	H	1.440749	-0.150823	0.902333
F141	F	1.394155	-0.367914	1.108650
F142	F	1.894155	0.132086	1.608650
F143	F	1.726113	-0.911583	0.465613
F144	F	2.226113	-0.411583	0.965613
H145	H	1.468990	-0.675558	0.918818
H146	H	1.968990	-0.175558	1.418818
F147	F	1.132037	-0.320277	0.453148
F148	F	1.632037	0.179723	0.953148
F149	F	1.342506	-0.568538	1.111937
F150	F	1.842506	-0.068538	1.611937
H151	H	1.706772	-1.101938	0.484511
H152	H	2.206772	-0.601938	0.984511
H153	H	1.123355	-0.645458	0.397670
H154	H	1.623355	-0.145458	0.897670
F155	F	1.675968	-0.909552	0.646943
F156	F	2.175968	-0.409552	1.146943
H157	H	1.558238	-0.336324	1.100805
H158	H	2.058238	0.163676	1.600805
F159	F	1.393784	-0.911710	0.369066
F160	F	1.893784	-0.411710	0.869066
H161	H	1.556760	-0.919112	0.334889
H162	H	2.056760	-0.419112	0.834889
H163	H	1.563628	-1.101353	0.337434
H164	H	2.063628	-0.601353	0.837434
H165	H	1.469234	-0.676094	1.100944
H166	H	1.969234	-0.176094	1.600944
