data_functionalizedCrystal
_audit_creation_method	'MofGen! by Chris Wilmer'
_symmetry_space_group_name_H-M	'P1'
_symmetry_Int_Tables_number	1
_symmetry_cell_setting	triclinic
loop_
_symmetry_equiv_pos_as_xyz
  x,y,z
_cell_length_a	23.532355
_cell_length_b	23.532357
_cell_length_c	14.586319
_cell_angle_alpha	89.990687
_cell_angle_beta	90.002320
_cell_angle_gamma	82.827896
loop_
_atom_site_label
_atom_site_type_symbol
_atom_site_fract_x
_atom_site_fract_y
_atom_site_fract_z
O1	O	0.755266	0.068995	-0.076127
O2	O	0.589396	0.079029	-0.076157
O3	O	0.677348	-0.008922	-0.076122
O4	O	0.667314	0.156947	-0.076162
O5	O	0.677341	-0.008924	0.076359
O6	O	0.589390	0.079028	0.076323
O7	O	0.755260	0.068994	0.076354
Cu8	Cu	0.672324	0.074011	0.090262
Cu9	Cu	0.672331	0.074012	-0.090065
O10	O	0.667308	0.156946	0.076319
C11	C	0.568177	0.078778	0.000079
C12	C	0.504958	0.078024	0.000069
C13	C	0.112942	0.073285	0.083225
C14	C	0.053543	0.072568	0.083229
O15	O	0.022821	0.072177	0.153916
N16	N	0.023837	0.072212	0.000112
C17	C	0.053536	0.072569	-0.083014
O18	O	0.022815	0.072201	-0.153711
C19	C	0.112934	0.073282	-0.083017
C20	C	0.142636	0.073643	0.000106
C21	C	0.142643	0.073645	0.166341
C22	C	0.202038	0.074364	0.166337
C23	C	0.231732	0.074722	0.083217
C24	C	0.202031	0.074362	0.000102
C25	C	0.142632	0.073635	-0.166142
C26	C	0.202035	0.074348	-0.166137
C27	C	0.231736	0.074709	-0.083015
C28	C	0.291119	0.075439	-0.083022
N29	N	0.320824	0.075794	0.000095
C30	C	0.291131	0.075435	0.083214
C31	C	-0.071206	0.071070	-0.083002
C32	C	-0.130604	0.070361	-0.083000
C33	C	-0.130593	0.070358	0.083243
C34	C	-0.071194	0.071071	0.083241
C35	C	-0.041501	0.071425	0.000115
C36	C	0.415865	0.076945	0.083200
C37	C	0.475264	0.077666	0.083188
C38	C	0.475248	0.077665	-0.083054
C39	C	0.415853	0.076947	-0.083044
C40	C	0.386163	0.076585	0.000091
O41	O	0.321879	0.075828	-0.153673
O42	O	0.321860	0.075796	0.153900
C43	C	0.677094	-0.030140	0.000121
C44	C	0.676339	-0.093358	0.000130
C45	C	0.671605	-0.485368	-0.083038
C46	C	0.670888	-0.544767	-0.083044
O47	O	0.670501	-0.575483	-0.153732
N48	N	0.670529	-0.574479	0.000073
C49	C	0.670882	-0.544787	0.083199
O50	O	0.670510	-0.575514	0.153896
C51	C	0.671595	-0.485389	0.083204
C52	C	0.671960	-0.455681	0.000082
C53	C	0.671970	-0.455660	-0.166153
C54	C	0.672688	-0.396265	-0.166147
C55	C	0.673042	-0.366578	-0.083027
C56	C	0.672678	-0.396286	0.000088
C57	C	0.671943	-0.455698	0.166330
C58	C	0.672656	-0.396295	0.166327
C59	C	0.673021	-0.366587	0.083205
C60	C	0.673750	-0.307204	0.083214
N61	N	0.674109	-0.277492	0.000098
C62	C	0.673755	-0.307179	-0.083022
C63	C	0.669383	-0.669529	0.083184
C64	C	0.668674	-0.728927	0.083180
C65	C	0.668679	-0.728902	-0.083063
C66	C	0.669393	-0.669504	-0.083059
C67	C	0.669742	-0.639817	0.000068
C68	C	0.675264	-0.182445	-0.083004
C69	C	0.675985	-0.123045	-0.082991
C70	C	0.675976	-0.123074	0.083252
C71	C	0.675259	-0.182470	0.083239
C72	C	0.674901	-0.212153	0.000104
O73	O	0.674136	-0.276450	0.153866
O74	O	0.674119	-0.276444	-0.153707
C75	C	0.776479	0.069245	0.000115
C76	C	0.839698	0.069999	0.000120
C77	C	0.667562	0.178163	0.000074
C78	C	0.668317	0.241381	0.000059
N79	N	0.672323	0.074009	0.217093
N80	N	0.672337	0.074009	-0.216896
C81	C	0.711281	0.035077	0.452115
C82	C	0.711283	0.035076	0.548097
C83	C	0.633375	0.112943	0.548075
C84	C	0.633371	0.112942	0.452095
C85	C	0.672327	0.074009	0.404118
C86	C	0.672333	0.074010	0.596079
C87	C	0.672334	0.074008	0.700146
C88	C	0.672325	0.074010	0.300044
H89	H	0.226208	0.074636	-0.233830
C90	C	0.618905	-0.788995	-0.179514
C91	C	0.668284	-0.761539	-0.174435
H92	H	0.618660	-0.809141	-0.235923
H93	H	0.618593	-0.815185	-0.130015
H94	H	0.585972	-0.761276	-0.176063
H95	H	0.701216	-0.789259	-0.177879
H96	H	0.668600	-0.735347	-0.223947
C97	C	0.669325	-0.675459	-0.247379
C98	C	0.669787	-0.636851	-0.174427
H99	H	0.669564	-0.655301	-0.303788
H100	H	0.702263	-0.703163	-0.243914
H101	H	0.635829	-0.694091	-0.243918
H102	H	0.703285	-0.618222	-0.177885
H103	H	0.636846	-0.609137	-0.177894
H104	H	-0.047015	0.071366	0.150926
C105	C	0.598774	0.147514	0.304953
C106	C	0.590552	0.155740	0.399328
H107	H	0.572338	0.173932	0.272379
H108	H	0.636742	0.153498	0.289228
H109	H	0.592810	0.109533	0.289248
H110	H	0.596521	0.193720	0.415035
H111	H	0.552575	0.149761	0.415060
H112	H	0.601659	0.144642	0.587148
H113	H	0.671647	-0.479876	0.234016
C114	C	0.716822	-0.802432	0.179645
C115	C	0.668272	-0.761582	0.174547
H116	H	0.716569	-0.822588	0.236055
H117	H	0.716505	-0.828613	0.130148
H118	H	0.750317	-0.783799	0.176206
H119	H	0.634777	-0.780216	0.177980
H120	H	0.668583	-0.735398	0.224058
C121	C	-0.011109	0.120845	-0.179470
C122	C	-0.038569	0.071469	-0.174380
H123	H	0.009040	0.121088	-0.235881
H124	H	-0.038821	0.153776	-0.176017
H125	H	0.015085	0.121152	-0.129970
H126	H	-0.064766	0.071165	-0.223877
H127	H	-0.010854	0.038530	-0.177842
H128	H	0.499444	0.077961	0.150879
H129	H	0.391697	0.076655	0.150896
H130	H	0.226216	0.074654	0.234024
H131	H	0.669669	-0.645362	0.150879
H132	H	0.118473	0.073352	0.234031
H133	H	0.743001	0.003373	0.587173
C134	C	0.117667	0.122363	-0.307871
C135	C	0.109999	0.073231	-0.257517
H136	H	0.097525	0.122109	-0.364288
H137	H	0.103382	0.155460	-0.273742
H138	H	0.157296	0.122836	-0.319744
H139	H	0.070370	0.072760	-0.245638
H140	H	0.124281	0.040126	-0.291653
C141	C	-0.221644	0.069242	0.157052
C142	C	-0.163238	0.069951	0.174613
H143	H	-0.241797	0.068986	0.213457
H144	H	-0.235918	0.102343	0.122907
H145	H	-0.226828	0.035909	0.122895
H146	H	-0.158055	0.103286	0.208764
H147	H	-0.148960	0.036847	0.208772
C148	C	0.355747	0.027177	-0.179478
C149	C	0.383202	0.076557	-0.174412
H150	H	0.335592	0.026935	-0.235885
H151	H	0.383463	-0.005751	-0.176017
H152	H	0.329560	0.026864	-0.129974
H153	H	0.409393	0.076868	-0.223913
H154	H	0.355483	0.109494	-0.177882
C155	C	-0.124634	0.070435	-0.247321
C156	C	-0.163248	0.069970	-0.174371
H157	H	-0.144786	0.070188	-0.303731
H158	H	-0.106010	0.103930	-0.243870
H159	H	-0.096923	0.037497	-0.243845
H160	H	-0.190957	0.102911	-0.177843
H161	H	-0.181882	0.036471	-0.177824
C162	C	0.535362	0.127432	-0.179501
C163	C	0.507899	0.078057	-0.174414
H164	H	0.555523	0.127668	-0.235900
H165	H	0.507650	0.160364	-0.176071
H166	H	0.561545	0.127744	-0.129986
H167	H	0.481713	0.077748	-0.223925
H168	H	0.535614	0.045117	-0.177853
C169	C	0.675915	-0.128996	-0.247320
C170	C	0.676382	-0.090390	-0.174365
H171	H	0.676155	-0.108836	-0.303727
H172	H	0.708849	-0.156703	-0.243858
H173	H	0.642416	-0.147623	-0.243859
H174	H	0.709883	-0.071766	-0.177821
H175	H	0.643444	-0.062673	-0.177829
C176	C	0.623892	-0.371335	0.308009
C177	C	0.673036	-0.363662	0.257703
H178	H	0.624129	-0.351191	0.364421
H179	H	0.590804	-0.357055	0.273843
H180	H	0.623421	-0.410964	0.319894
H181	H	0.673505	-0.324032	0.245812
H182	H	0.706133	-0.377939	0.291876
C183	C	0.625491	-0.242527	-0.179476
C184	C	0.674870	-0.215072	-0.174382
H185	H	0.625249	-0.262668	-0.235889
H186	H	0.625176	-0.268721	-0.129984
H187	H	0.592558	-0.214808	-0.176023
H188	H	0.707802	-0.242792	-0.177828
H189	H	0.675190	-0.188876	-0.223888
H190	H	0.672983	-0.372081	-0.233833
C191	C	0.672057	-0.449655	-0.330469
C192	C	0.671585	-0.488286	-0.257530
H193	H	0.671827	-0.469796	-0.386884
H194	H	0.639119	-0.421952	-0.327015
H195	H	0.705552	-0.431024	-0.326981
H196	H	0.638088	-0.506913	-0.261014
H197	H	0.704527	-0.515998	-0.260986
H198	H	0.674967	-0.206660	0.150924
H199	H	0.676267	-0.098893	0.150926
C200	C	0.788284	-0.041896	0.461781
C201	C	0.754095	-0.007722	0.399378
H202	H	0.814713	-0.068321	0.429223
H203	H	0.808632	-0.018297	0.499205
H204	H	0.764691	-0.062253	0.499226
H205	H	0.777688	0.012638	0.361936
H206	H	0.733745	-0.031324	0.361938
