data_functionalizedCrystal
_audit_creation_method	'MofGen! by Chris Wilmer'
_symmetry_space_group_name_H-M	'P1'
_symmetry_Int_Tables_number	1
_symmetry_cell_setting	triclinic
loop_
_symmetry_equiv_pos_as_xyz
  x,y,z
_cell_length_a	17.000383
_cell_length_b	9.065218
_cell_length_c	8.140239
_cell_angle_alpha	90.001686
_cell_angle_beta	89.999843
_cell_angle_gamma	99.691906
loop_
_atom_site_label
_atom_site_type_symbol
_atom_site_fract_x
_atom_site_fract_y
_atom_site_fract_z
O1	O	1.056481	-0.053127	-0.136504
O2	O	0.825135	-0.106617	-0.136529
O3	O	0.945590	0.135509	-0.136513
O4	O	0.936026	-0.295253	-0.136521
O5	O	0.945583	0.135511	0.136714
O6	O	0.825128	-0.106615	0.136698
O7	O	1.056474	-0.053125	0.136723
Zn8	Zn	0.940800	-0.079870	0.180091
Zn9	Zn	0.940809	-0.079872	-0.179897
O10	O	0.936019	-0.295252	0.136706
C11	C	0.795498	-0.109489	0.000081
C12	C	0.707201	-0.118031	0.000071
C13	C	0.944667	0.190355	0.000098
C14	C	0.941919	0.353773	0.000090
C15	C	1.086111	-0.050253	0.000109
C16	C	1.174408	-0.041711	0.000108
C17	C	1.674227	0.013448	0.000072
C18	C	1.591262	0.005410	0.000069
C19	C	1.541273	-0.134108	0.000077
C20	C	1.574253	-0.265597	0.000071
C21	C	1.657216	-0.257558	0.000063
C22	C	1.290351	-0.165161	0.000093
C23	C	1.207382	-0.173190	0.000107
C24	C	1.224397	0.097818	0.000102
C25	C	1.307361	0.105845	0.000103
C26	C	1.340334	-0.025644	0.000088
C27	C	1.456469	-0.142328	0.000079
C28	C	1.425136	-0.017423	0.000074
C29	C	0.936942	-0.350097	0.000092
C30	C	0.939690	-0.513515	0.000089
N31	N	0.940800	-0.079867	0.425774
N32	N	0.940815	-0.079863	-0.425580
H33	H	1.714923	0.127059	0.000073
F34	F	1.360558	0.254340	0.000104
F35	F	1.556172	0.145349	0.000032
F36	F	1.189299	0.237748	0.000111
F37	F	1.478339	0.131058	0.000059
F38	F	1.154181	-0.321692	0.000128
H39	H	1.684062	-0.364622	0.000069
H40	H	1.533545	-0.379196	0.000067
F41	F	1.325432	-0.305104	0.000079
F42	F	1.403260	-0.290810	0.000086
