data_functionalizedCrystal
_audit_creation_method	'MofGen! by Chris Wilmer'
_symmetry_space_group_name_H-M	'P1'
_symmetry_Int_Tables_number	1
_symmetry_cell_setting	triclinic
loop_
_symmetry_equiv_pos_as_xyz
  x,y,z
_cell_length_a	10.686285
_cell_length_b	19.805407
_cell_length_c	19.805399
_cell_angle_alpha	89.978275
_cell_angle_beta	94.389466
_cell_angle_gamma	94.367433
loop_
_atom_site_label
_atom_site_type_symbol
_atom_site_fract_x
_atom_site_fract_y
_atom_site_fract_z
Zn1	Zn	-0.502332	-1.055498	0.362152
Zn2	Zn	-0.713342	-1.064135	0.240307
Zn3	Zn	-0.502371	-0.942314	0.248971
Zn4	Zn	-0.713280	-0.950995	0.353453
O5	O	-0.607832	-1.003236	0.301221
O6	O	-0.530333	-1.151361	0.346004
O7	O	-0.685399	-1.047956	0.146738
O8	O	-0.325792	-0.950081	0.271250
O9	O	-0.685361	-1.157706	0.256486
O10	O	-0.325763	-1.033237	0.354404
O11	O	-0.530400	-0.958456	0.153103
O12	O	-0.530339	-0.848749	0.262815
O13	O	-0.685255	-0.964876	0.449325
O14	O	-0.685293	-0.855127	0.339578
O15	O	-0.530272	-1.041654	0.455716
O16	O	-0.889909	-1.056374	0.248050
O17	O	-0.889863	-0.973251	0.331177
C18	C	-0.607814	-0.827379	0.301193
C19	C	-0.607837	-0.752148	0.301196
C20	C	-0.527243	-0.287062	0.347903
C21	C	-0.527247	-0.357750	0.347900
C22	C	-0.607837	-0.396386	0.301228
C23	C	-0.688437	-0.364330	0.254561
C24	C	-0.688439	-0.293643	0.254569
C25	C	-0.688434	-0.649403	0.254532
C26	C	-0.688424	-0.720095	0.254527
C27	C	-0.527242	-0.713511	0.347864
C28	C	-0.527243	-0.642824	0.347871
C29	C	-0.607848	-0.610774	0.301207
C30	C	-0.607844	-0.534125	0.301212
C31	C	-0.607835	-0.473033	0.301220
C32	C	-0.935670	-1.016710	0.287745
C33	C	-1.075920	-1.022536	0.282002
C34	C	-0.278713	-0.989727	0.314764
C35	C	-0.138463	-0.983971	0.320536
C36	C	-0.607752	-1.003270	0.477767
C37	C	-0.607718	-1.003285	0.553000
C38	C	-0.607844	-0.179779	0.301243
C39	C	-0.607834	-0.255010	0.301239
C40	C	-0.607820	-1.003236	0.125365
C41	C	-0.607498	-1.003338	0.050147
C42	C	-0.527015	-1.043264	0.591673
C43	C	-0.526978	-1.043270	0.662363
C44	C	-0.607652	-1.003299	0.694378
C45	C	-0.688359	-0.963316	0.655700
C46	C	-0.688389	-0.963307	0.585012
C47	C	-0.688242	-0.963349	0.940778
C48	C	-0.688209	-0.963362	1.011472
C49	C	-0.526831	-1.043312	1.018130
C50	C	-0.526861	-1.043303	0.947442
C51	C	-0.607562	-1.003317	0.908770
C52	C	-0.607599	-1.003310	0.832120
C53	C	-0.607623	-1.003309	0.771027
H54	H	-0.461614	-0.611369	0.385874
N55	N	-0.439946	-1.086399	0.704073
H56	H	-0.452163	-1.080339	0.753712
H57	H	-0.349831	-1.072170	0.695423
H58	H	-1.084714	-0.946497	0.357920
H59	H	-0.461609	-0.255609	0.385905
N60	N	-1.147111	-1.072169	0.232467
H61	H	-1.240572	-1.069432	0.235241
H62	H	-1.124059	-1.119558	0.243980
N63	N	-0.775202	-0.920234	1.046003
H64	H	-0.762934	-0.926309	1.096652
H65	H	-0.865333	-0.934453	1.029944
H66	H	-0.754067	-0.267548	0.216571
N67	N	-0.775300	-0.920233	0.899075
H68	H	-0.763082	-0.926288	0.849435
H69	H	-0.755656	-0.871089	0.912230
N70	N	-0.775381	-0.920201	0.690218
H71	H	-0.755776	-0.871036	0.678708
H72	H	-0.763093	-0.926323	0.740857
H73	H	-0.754064	-0.623317	0.216534
N74	N	-0.439846	-1.086411	0.912910
H75	H	-0.491142	-1.119878	0.881478
H76	H	-0.388729	-1.111694	0.948178
N77	N	-0.439771	-1.086437	1.059836
H78	H	-0.491037	-1.119912	1.087064
H79	H	-0.381289	-1.056490	1.091523
H80	H	-0.461324	-1.075815	0.565612
H81	H	-0.754060	-0.395793	0.216563
N82	N	-0.775420	-0.920180	0.543296
H83	H	-0.826522	-0.894859	0.574303
H84	H	-0.833833	-0.950119	0.511566
H85	H	-0.461625	-0.383843	0.385901
H86	H	-0.754055	-0.751551	0.216520
N87	N	-0.440323	-0.748079	0.398208
H88	H	-0.452555	-0.798722	0.391129
H89	H	-0.460095	-0.736550	0.445715
