data_functionalizedCrystal
_audit_creation_method	'MofGen! by Chris Wilmer'
_symmetry_space_group_name_H-M	'P1'
_symmetry_Int_Tables_number	1
_symmetry_cell_setting	triclinic
loop_
_symmetry_equiv_pos_as_xyz
  x,y,z
_cell_length_a	12.811438
_cell_length_b	10.540510
_cell_length_c	11.892095
_cell_angle_alpha	93.930478
_cell_angle_beta	80.666371
_cell_angle_gamma	84.277415
loop_
_atom_site_label
_atom_site_type_symbol
_atom_site_fract_x
_atom_site_fract_y
_atom_site_fract_z
O1	O	1.410828	0.150476	-0.238618
O2	O	1.103149	0.171777	-0.207080
O3	O	1.264025	-0.023684	-0.223569
O4	O	1.249953	0.345937	-0.222128
O5	O	1.250611	-0.007412	-0.034187
O6	O	1.089736	0.188050	-0.017697
O7	O	1.397415	0.166748	-0.049235
Zn8	Zn	1.241445	0.179982	-0.003398
Zn9	Zn	1.259118	0.158543	-0.252917
O10	O	1.236539	0.362209	-0.032746
C11	C	1.057045	0.179219	-0.108350
C12	C	0.939652	0.177133	-0.096318
C13	C	0.766882	0.183063	0.023868
C14	C	0.877182	0.185024	0.012567
C15	C	0.891815	0.167284	-0.193909
C16	C	0.781514	0.165323	-0.182608
C17	C	0.719051	0.173211	-0.073716
C18	C	0.608750	0.171240	-0.062416
C19	C	0.623384	0.153510	-0.268891
C20	C	0.733684	0.155471	-0.280192
C21	C	1.256269	-0.062837	-0.128773
C22	C	1.253133	-0.203742	-0.128458
C23	C	1.364861	-0.422775	-0.139480
C24	C	1.368238	-0.276265	-0.140256
C25	C	1.201869	-0.256941	-0.230563
C26	C	1.199344	-0.403673	-0.230388
C27	C	1.181693	-0.384942	-0.014779
C28	C	1.187052	-0.238558	-0.013915
C29	C	1.443519	0.159306	-0.147967
C30	C	1.560912	0.161392	-0.160008
C31	C	1.244295	0.401362	-0.127544
C32	C	1.247432	0.542266	-0.127867
N33	N	1.229392	0.194613	0.166892
N34	N	1.271180	0.143902	-0.423208
C35	C	1.355055	0.042020	0.390659
C36	C	1.346637	0.052256	0.509864
C37	C	1.204134	0.225315	0.524508
C38	C	1.212552	0.215079	0.405304
C39	C	1.288016	0.123430	0.338383
C40	C	1.296438	0.113200	0.219176
C41	C	1.153930	0.286252	0.233823
C42	C	1.145513	0.296488	0.353028
H43	H	1.408851	-0.240926	-0.067461
H44	H	0.942689	0.160873	-0.282563
H45	H	0.716022	0.189493	0.112532
H46	H	1.401226	-0.014037	0.552423
H47	H	0.916120	0.193050	0.092031
H48	H	0.784556	0.149054	-0.368849
F49	F	1.082585	0.372904	0.178175
F50	F	0.572469	0.143057	-0.372754
F51	F	1.416300	-0.469748	-0.044116
F52	F	1.123815	0.322837	0.595744
H53	H	1.416508	-0.032595	0.336170
H54	H	1.414909	-0.473551	-0.221168
H55	H	0.557893	0.177672	0.026249
H56	H	1.420110	-0.255202	-0.222665
F57	F	1.259467	-0.466081	-0.341443
H58	H	1.084069	0.371104	0.407528
F59	F	1.087273	-0.432659	-0.225275
F60	F	1.091483	-0.193849	-0.224474
H61	H	1.248490	-0.233591	-0.315238
H62	H	1.224260	-0.203691	0.061694
F63	F	1.076603	-0.172106	0.005881
F64	F	1.221598	-0.431973	0.087492
F65	F	1.068666	-0.412181	-0.002246
H66	H	1.357887	0.038579	0.164689
