data_functionalizedCrystal
_audit_creation_method	'MofGen! by Chris Wilmer'
_symmetry_space_group_name_H-M	'P1'
_symmetry_Int_Tables_number	1
_symmetry_cell_setting	triclinic
loop_
_symmetry_equiv_pos_as_xyz
  x,y,z
_cell_length_a	23.532407
_cell_length_b	17.699083
_cell_length_c	16.176319
_cell_angle_alpha	90.001389
_cell_angle_beta	89.988536
_cell_angle_gamma	96.934153
loop_
_atom_site_label
_atom_site_type_symbol
_atom_site_fract_x
_atom_site_fract_y
_atom_site_fract_z
O1	O	0.072020	-1.003713	-0.068639
O2	O	0.081390	-0.783287	-0.068667
O3	O	-0.006208	-0.900147	-0.068637
O4	O	0.159618	-0.886853	-0.068669
O5	O	-0.006213	-0.900131	0.068856
O6	O	0.081384	-0.783271	0.068826
O7	O	0.072014	-1.003697	0.068854
Cu8	Cu	0.076699	-0.893483	0.081394
Cu9	Cu	0.076705	-0.893502	-0.081207
O10	O	0.159612	-0.886837	0.068824
C11	C	0.081051	-0.755084	0.000076
C12	C	0.080044	-0.671071	0.000066
C13	C	-0.027427	-0.899801	0.000111
C14	C	-0.090647	-0.898783	0.000118
N15	N	0.076694	-0.893475	0.195759
C16	C	-0.489570	-0.961554	0.000080
C17	C	-0.548973	-0.960609	0.000074
O18	O	-0.585550	-1.018799	0.000051
N19	N	-0.571799	-0.891136	0.000066
C20	C	-0.535218	-0.822604	0.000055
O21	O	-0.560088	-0.763424	0.000047
C22	C	-0.475816	-0.823550	0.000056
C23	C	-0.452994	-0.893028	0.000073
C24	C	-0.466747	-1.031026	0.000096
C25	C	-0.407348	-1.031972	0.000104
C26	C	-0.370772	-0.963445	0.000096
C27	C	-0.393595	-0.893973	0.000080
C28	C	-0.439237	-0.755019	0.000040
C29	C	-0.379832	-0.755971	0.000039
C30	C	-0.357009	-0.825448	0.000056
C31	C	-0.297620	-0.826391	0.000081
N32	N	-0.274795	-0.895864	0.000089
C33	C	-0.311371	-0.964391	0.000097
C34	C	-0.659966	-0.820622	0.000053
C35	C	-0.719367	-0.819674	0.000058
C36	C	-0.733118	-0.957680	0.000075
C37	C	-0.673716	-0.958626	0.000076
C38	C	-0.637141	-0.890095	0.000061
C39	C	-0.186628	-0.966371	0.000114
C40	C	-0.127223	-0.967310	0.000125
C41	C	-0.113478	-0.829305	0.000104
C42	C	-0.172877	-0.828365	0.000097
C43	C	-0.209452	-0.896904	0.000099
O44	O	-0.261008	-0.768232	0.000100
O45	O	-0.286493	-1.023560	0.000094
C46	C	0.180832	-0.887184	0.000073
C47	C	0.244052	-0.888202	0.000062
C48	C	0.072353	-1.031901	0.000109
C49	C	0.073360	-1.115914	0.000114
C50	C	0.131462	-0.622189	0.000056
C51	C	0.130512	-0.543251	0.000067
C52	C	0.078144	-0.513196	0.000082
C53	C	0.026722	-0.562084	0.000094
C54	C	0.027672	-0.641021	0.000089
C55	C	0.022888	-0.243740	0.000115
C56	C	0.021942	-0.164797	0.000117
C57	C	0.125728	-0.145970	0.000093
C58	C	0.126678	-0.224907	0.000088
C59	C	0.075257	-0.273788	0.000105
C60	C	0.076287	-0.359382	0.000094
C61	C	0.077113	-0.427603	0.000086
N62	N	0.076706	-0.893516	-0.195573
C63	C	0.037921	-0.945236	0.239037
C64	C	0.037921	-0.945240	0.325584
C65	C	0.076696	-0.893486	0.368852
C66	C	0.115470	-0.841719	0.325568
C67	C	0.115467	-0.841713	0.239023
C68	C	0.115481	-0.841745	0.674597
C69	C	0.115481	-0.841758	0.761148
C70	C	0.037934	-0.945273	0.761158
C71	C	0.037932	-0.945266	0.674612
C72	C	0.076704	-0.893497	0.631336
C73	C	0.076703	-0.893493	0.537492
C74	C	0.076700	-0.893493	0.462695
H75	H	-0.108645	-1.023889	0.000141
O76	O	-0.772572	-1.031597	0.000081
H77	H	-0.799952	-1.034471	-0.055965
H78	H	0.006349	-0.987387	0.360820
O79	O	-0.003892	-1.001081	0.627942
H80	H	-0.030859	-1.037070	0.672577
H81	H	-0.083687	-0.773512	0.000101
H82	H	0.169322	-0.249373	0.000072
H83	H	0.147051	-0.799595	0.639368
H84	H	-0.018983	-0.283530	0.000129
O85	O	-0.027786	-0.693747	0.000106
H86	H	-0.029834	-0.730168	-0.055930
H87	H	-0.015917	-0.537607	0.000117
O88	O	-0.034545	-0.132380	0.000149
H89	H	-0.059255	-0.152048	-0.055877
O90	O	-0.649105	-1.033564	0.000077
H91	H	-0.663815	-1.066468	0.056117
H92	H	0.147040	-0.799576	0.360802
H93	H	0.174106	-0.646653	0.000044
O94	O	0.157315	-0.785941	0.807812
H95	H	0.150116	-0.726992	0.791226
H96	H	0.006362	-0.987424	0.796402
H97	H	0.172382	-0.503454	0.000058
O98	O	0.157288	-0.785889	0.192338
H99	H	0.184256	-0.749907	0.236963
H100	H	0.006349	-0.987383	0.203814
O101	O	-0.226072	-1.040293	0.000129
H102	H	-0.200214	-1.088754	0.000151
H103	H	0.167598	-0.106161	0.000084
H104	H	-0.496522	-1.086833	0.000099
O105	O	-0.382741	-1.106912	0.000098
H106	H	-0.397455	-1.139821	0.056133
O107	O	-0.743981	-0.744739	0.000056
H108	H	-0.729274	-0.711841	-0.055989
O109	O	-0.620520	-0.746698	0.000060
H110	H	-0.628620	-0.713428	-0.055977
O111	O	-0.463843	-0.680080	0.000022
H112	H	-0.449134	-0.647192	-0.056028
O113	O	-0.340381	-0.682053	0.000034
H114	H	-0.366235	-0.633588	0.000030
H115	H	-0.191460	-0.771791	0.000106
