data_functionalizedCrystal
_audit_creation_method	'MofGen! by Chris Wilmer'
_symmetry_space_group_name_H-M	'P1'
_symmetry_Int_Tables_number	1
_symmetry_cell_setting	triclinic
loop_
_symmetry_equiv_pos_as_xyz
  x,y,z
_cell_length_a	6.817900
_cell_length_b	19.551900
_cell_length_c	14.125465
_cell_angle_alpha	96.298921
_cell_angle_beta	100.398878
_cell_angle_gamma	101.664829
loop_
_atom_site_label
_atom_site_type_symbol
_atom_site_fract_x
_atom_site_fract_y
_atom_site_fract_z
V1	V	-3.982351	-0.096074	-0.300426
O2	O	-3.979997	0.005234	-0.294242
O3	O	-3.925240	-0.191093	-0.298819
O4	O	-3.918656	-0.094325	-0.431248
O5	O	-3.986626	-0.092203	-0.160896
V6	V	-4.469090	-0.083988	-0.283683
O7	O	-4.236556	-0.122585	-0.337154
O8	O	-4.665082	-0.057478	-0.246955
O9	O	-4.302994	0.011030	-0.285290
O10	O	-4.588841	-0.185297	-0.289867
O11	O	-4.582212	-0.087860	-0.423213
O12	O	-4.309578	-0.085737	-0.152861
C13	C	-3.768617	-0.214265	-0.294195
C14	C	-3.803107	-0.291942	-0.293753
C15	C	-3.760218	-0.090827	-0.463120
C16	C	-3.789366	-0.090026	-0.570070
C17	C	-4.233016	-0.855292	-0.296303
C18	C	-4.200626	-0.782305	-0.296712
C19	C	-4.002924	-0.742156	-0.291196
C20	C	-3.837593	-0.774997	-0.285245
C21	C	-3.869985	-0.847981	-0.284827
C22	C	-3.829935	-0.630005	-0.344091
C23	C	-3.797553	-0.557023	-0.344516
C24	C	-3.903009	-0.517048	-0.292482
C25	C	-4.040888	-0.550066	-0.240037
C26	C	-4.073279	-0.623051	-0.239618
C27	C	-3.967780	-0.663017	-0.291648
C28	C	-4.033209	-0.405075	-0.298868
C29	C	-4.000809	-0.332086	-0.299271
C30	C	-3.637774	-0.324780	-0.287814
C31	C	-3.670176	-0.397767	-0.287402
C32	C	-3.867898	-0.437910	-0.292934
C33	C	-3.842794	-0.088557	-0.765887
C34	C	-4.028016	-0.091504	-0.818222
C35	C	-4.057746	-0.090687	-0.927181
C36	C	-3.813056	-0.089374	-0.656918
C37	C	-4.131359	-0.089238	-0.120983
C38	C	-4.081449	-0.090035	-0.014032
C39	C	-4.122959	0.034199	-0.289911
C40	C	-4.067707	0.111875	-0.290359
H41	H	-4.394013	-0.887972	-0.300805
F42	F	-3.664724	-0.084462	-0.814279
H43	H	-4.335243	-0.755567	-0.301547
F44	F	-3.627182	-0.732266	-0.279368
H45	H	-3.476801	-0.292092	-0.283319
F46	F	-3.650824	-0.521890	-0.400336
H47	H	-3.535563	-0.424500	-0.282565
H48	H	-4.164266	-0.094648	-0.781198
F49	F	-4.220008	-0.658188	-0.183801
H50	H	-4.194204	-0.437761	-0.303368
F51	F	-4.153163	-0.507530	-0.184668
F52	F	-3.694030	-0.882925	-0.278498
F53	F	-4.176759	-0.297141	-0.305578
F54	F	-3.717700	-0.672544	-0.399487
