data_functionalizedCrystal
_audit_creation_method	'MofGen! by Chris Wilmer'
_symmetry_space_group_name_H-M	'P1'
_symmetry_Int_Tables_number	1
_symmetry_cell_setting	triclinic
loop_
_symmetry_equiv_pos_as_xyz
  x,y,z
_cell_length_a	17.077404
_cell_length_b	16.625546
_cell_length_c	17.077396
_cell_angle_alpha	89.968950
_cell_angle_beta	89.980813
_cell_angle_gamma	90.020715
loop_
_atom_site_label
_atom_site_type_symbol
_atom_site_fract_x
_atom_site_fract_y
_atom_site_fract_z
Zn1	Zn	1.200039	-0.321033	-0.443874
Zn2	Zn	1.199953	-0.455877	-0.312604
Zn3	Zn	1.068776	-0.321058	-0.312617
Zn4	Zn	1.068740	-0.455823	-0.443823
O5	O	1.134377	-0.388448	-0.378230
O6	O	1.309875	-0.338932	-0.426476
O7	O	1.182531	-0.438027	-0.202759
O8	O	1.086240	-0.208222	-0.330056
O9	O	1.309811	-0.438002	-0.330033
O10	O	1.182679	-0.208204	-0.426489
O11	O	1.086156	-0.338976	-0.202769
O12	O	0.958925	-0.338923	-0.330006
O13	O	1.086178	-0.437909	-0.553677
O14	O	0.958898	-0.437934	-0.426403
O15	O	1.182643	-0.338879	-0.553714
O16	O	1.182496	-0.568703	-0.329984
O17	O	1.086094	-0.568663	-0.426390
C18	C	0.930429	-0.388426	-0.378201
C19	C	0.843180	-0.388436	-0.378207
C20	C	1.134303	-0.597939	-0.378197
C21	C	1.134343	-0.687560	-0.378209
C22	C	0.467395	-0.336977	-0.428557
C23	C	0.549376	-0.336971	-0.428548
C24	C	0.590331	-0.388465	-0.378249
C25	C	0.549301	-0.439973	-0.327962
C26	C	0.467322	-0.439983	-0.327975
C27	C	0.720171	-0.439949	-0.327936
C28	C	0.802155	-0.439939	-0.327922
C29	C	0.802225	-0.336938	-0.428509
C30	C	0.720246	-0.336947	-0.428523
C31	C	0.679222	-0.388455	-0.378234
C32	C	1.134480	-1.015735	-0.378291
C33	C	1.134439	-0.924427	-0.378270
C34	C	1.134411	-0.851650	-0.378249
C35	C	1.134371	-0.760336	-0.378230
C36	C	1.339121	-0.388470	-0.378259
C37	C	1.426371	-0.388480	-0.378271
C38	C	1.134417	-0.388385	-0.582974
C39	C	1.134433	-0.388359	-0.670224
C40	C	1.134473	-0.178139	-0.378280
C41	C	1.134514	-0.088518	-0.378301
C42	C	1.084266	-0.336777	-0.711219
C43	C	1.084279	-0.336758	-0.793199
C44	C	1.134464	-0.388319	-0.834183
C45	C	1.184633	-0.439906	-0.793183
C46	C	1.184615	-0.439928	-0.711204
C47	C	1.184667	-0.439856	-0.964053
C48	C	1.184685	-0.439833	-1.046038
C49	C	1.084331	-0.336686	-1.046048
C50	C	1.084313	-0.336708	-0.964069
C51	C	1.134484	-0.388295	-0.923074
C52	C	1.134383	-0.388452	-0.174282
C53	C	1.134518	-0.388251	-0.087032
H54	H	0.434056	-0.295040	-0.469511
H55	H	0.582653	-0.481903	-0.287011
H56	H	0.582774	-0.295035	-0.469498
H57	H	1.043405	-0.294786	-0.677855
H58	H	0.686771	-0.481895	-0.286989
Br59	Br	0.411645	-0.509892	-0.259737
Br60	Br	1.016150	-0.266795	-0.848832
H61	H	1.043452	-0.294719	-0.930702
H62	H	1.043481	-0.294681	-1.079430
Br63	Br	1.252801	-0.509801	-1.101659
H64	H	1.225528	-0.481856	-0.930678
Br65	Br	0.664664	-0.267057	-0.496780
Br66	Br	1.252734	-0.509889	-0.848803
Br67	Br	1.252696	-0.509941	-0.655567
H68	H	0.835499	-0.481872	-0.286967
Br69	Br	0.857899	-0.267027	-0.496752
