data_functionalizedCrystal
_audit_creation_method	'MofGen! by Chris Wilmer'
_symmetry_space_group_name_H-M	'P1'
_symmetry_Int_Tables_number	1
_symmetry_cell_setting	triclinic
loop_
_symmetry_equiv_pos_as_xyz
  x,y,z
_cell_length_a	8.497374
_cell_length_b	8.497374
_cell_length_c	12.759401
_cell_angle_alpha	89.996937
_cell_angle_beta	90.002161
_cell_angle_gamma	90.001110
loop_
_atom_site_label
_atom_site_type_symbol
_atom_site_fract_x
_atom_site_fract_y
_atom_site_fract_z
Zn1	Zn	0.892047	-0.628252	1.606212
Zn2	Zn	0.628288	-0.892002	1.606220
Zn3	Zn	0.628274	-0.628236	1.430569
Zn4	Zn	0.892019	-0.891991	1.430562
O5	O	0.760157	-0.760120	1.518391
O6	O	0.857076	-0.663250	1.753235
O7	O	0.407523	-0.857011	1.582926
O8	O	0.663271	-0.407476	1.453868
O9	O	0.663293	-0.857026	1.753240
O10	O	0.857063	-0.407488	1.582912
O11	O	0.407514	-0.663223	1.453875
O12	O	0.663243	-0.663213	1.283547
O13	O	1.112785	-0.857008	1.453857
O14	O	0.857015	-0.856992	1.283542
O15	O	1.112806	-0.663240	1.582906
O16	O	0.663266	-1.112763	1.582919
O17	O	0.857028	-1.112755	1.453864
C18	C	0.760126	-0.760101	1.245424
C19	C	0.760150	-0.760131	1.128647
C20	C	0.860888	-0.861185	1.073810
C21	C	0.860919	-0.861191	0.964086
C22	C	0.659460	-0.659084	0.964045
C23	C	0.659438	-0.659071	1.073767
C24	C	1.046912	-0.917868	0.814162
C25	C	1.147636	-1.018947	0.759322
C26	C	1.171604	-1.172913	0.794949
C27	C	1.094824	-1.225832	0.885414
C28	C	0.994088	-1.124762	0.940249
C29	C	0.970150	-0.970773	0.904624
C30	C	0.473443	-0.602411	1.223693
C31	C	0.372698	-0.501347	1.278530
C32	C	0.348714	-0.347378	1.242905
C33	C	0.425466	-0.294465	1.152436
C34	C	0.526212	-0.395529	1.097599
C35	C	0.550198	-0.549496	1.133232
C36	C	1.350277	-0.760146	1.518397
C37	C	1.171633	-0.760138	1.518386
C38	C	0.760165	-0.348640	1.518382
C39	C	0.760169	-0.169996	1.518382
C40	C	0.760189	-0.760141	1.792424
C41	C	0.760203	-0.760150	1.909201
H42	H	1.253618	-1.255212	0.750290
H43	H	0.310202	-0.544443	1.352195
N44	N	0.969513	-0.970180	1.132998
H45	H	1.082273	-0.945857	1.113916
H46	H	0.954079	-0.954797	1.210810
N47	N	0.499329	-0.768479	1.262124
H48	H	0.435410	-0.786667	1.327752
H49	H	0.465335	-0.845314	1.206139
N50	N	1.120675	-1.391910	0.923826
H51	H	1.166250	-1.389165	0.996911
H52	H	1.016905	-1.449841	0.924880
N53	N	0.550820	-0.550114	0.904850
H54	H	0.487000	-0.486093	0.956242
H55	H	0.615156	-0.477213	0.859323
H56	H	1.210152	-0.975846	0.685664
N57	N	0.911268	-1.181818	1.037812
H58	H	0.941726	-1.294700	1.052060
H59	H	0.942984	-1.114005	1.099290
N60	N	0.608997	-0.338467	1.000019
H61	H	0.578519	-0.225591	0.985767
H62	H	0.726597	-0.345496	1.010498
H63	H	1.027423	-0.792491	0.785153
N64	N	0.399598	-0.128401	1.113998
H65	H	0.324134	-0.072406	1.162464
H66	H	0.503380	-0.070495	1.112854
N67	N	0.240036	-0.238375	1.302041
H68	H	0.195037	-0.295254	1.364755
H69	H	0.300870	-0.143046	1.326405
