data_functionalizedCrystal
_audit_creation_method	'MofGen! by Chris Wilmer'
_symmetry_space_group_name_H-M	'P1'
_symmetry_Int_Tables_number	1
_symmetry_cell_setting	triclinic
loop_
_symmetry_equiv_pos_as_xyz
  x,y,z
_cell_length_a	16.109318
_cell_length_b	10.868271
_cell_length_c	16.109301
_cell_angle_alpha	89.993442
_cell_angle_beta	96.534978
_cell_angle_gamma	90.000736
loop_
_atom_site_label
_atom_site_type_symbol
_atom_site_fract_x
_atom_site_fract_y
_atom_site_fract_z
O1	O	1.103123	0.102224	-0.106936
O2	O	1.353123	0.352224	0.143064
O3	O	1.603123	0.602224	0.393064
O4	O	1.853123	0.852224	0.643064
O5	O	0.861063	0.102249	-0.120221
O6	O	1.111063	0.352249	0.129779
O7	O	1.361063	0.602249	0.379779
O8	O	1.611063	0.852249	0.629779
O9	O	0.988742	0.102223	0.007452
O10	O	1.238742	0.352223	0.257452
O11	O	1.488742	0.602223	0.507452
O12	O	1.738742	0.852223	0.757452
O13	O	0.975443	0.102250	-0.234609
O14	O	1.225443	0.352250	0.015391
O15	O	1.475443	0.602250	0.265391
O16	O	1.725443	0.852250	0.515391
O17	O	0.988732	-0.102421	0.007457
O18	O	1.238732	0.147579	0.257457
O19	O	1.488732	0.397579	0.507457
O20	O	1.738732	0.647579	0.757457
O21	O	0.861052	-0.102395	-0.120216
O22	O	1.111052	0.147605	0.129784
O23	O	1.361052	0.397605	0.379784
O24	O	1.611052	0.647605	0.629784
O25	O	1.103112	-0.102421	-0.106931
O26	O	1.353112	0.147579	0.143069
O27	O	1.603112	0.397579	0.393069
O28	O	1.853112	0.647579	0.643069
Zn29	Zn	0.982080	-0.134900	-0.113573
Zn30	Zn	1.232080	0.115100	0.136427
Zn31	Zn	1.482080	0.365100	0.386427
Zn32	Zn	1.732080	0.615100	0.636427
Zn33	Zn	0.982094	0.134728	-0.113579
Zn34	Zn	1.232094	0.384728	0.136421
Zn35	Zn	1.482094	0.634728	0.386421
Zn36	Zn	1.732094	0.884728	0.636421
O37	O	0.975433	-0.102395	-0.234604
O38	O	1.225433	0.147605	0.015396
O39	O	1.475433	0.397605	0.265396
O40	O	1.725433	0.647605	0.515396
C41	C	0.830083	-0.000070	-0.119677
C42	C	1.080083	0.249930	0.130323
C43	C	1.330083	0.499930	0.380323
C44	C	1.580083	0.749930	0.630323
C45	C	0.737788	-0.000061	-0.118057
C46	C	0.987788	0.249939	0.131943
C47	C	1.237788	0.499939	0.381943
C48	C	1.487788	0.749939	0.631943
C49	C	0.438720	0.111469	-0.112824
C50	C	0.688720	0.361469	0.137176
C51	C	0.938720	0.611469	0.387176
C52	C	1.188720	0.861469	0.637176
C53	C	0.525441	0.111477	-0.114342
C54	C	0.775441	0.361477	0.135658
C55	C	1.025441	0.611477	0.385658
C56	C	1.275441	0.861477	0.635658
C57	C	0.525449	-0.111638	-0.114325
C58	C	0.775449	0.138362	0.135675
C59	C	1.025449	0.388362	0.385675
C60	C	1.275449	0.638362	0.635675
C61	C	0.438730	-0.111645	-0.112802
C62	C	0.688730	0.138355	0.137198
C63	C	0.938730	0.388355	0.387198
C64	C	1.188730	0.638355	0.637198
C65	C	0.395367	-0.000087	-0.112056
C66	C	0.645367	0.249913	0.137944
C67	C	0.895367	0.499913	0.387944
C68	C	1.145367	0.749913	0.637944
C69	C	0.568807	-0.000073	-0.115096
C70	C	0.818807	0.249927	0.134904
C71	C	1.068807	0.499927	0.384904
C72	C	1.318807	0.749927	0.634904
C73	C	0.662835	-0.000066	-0.116742
C74	C	0.912835	0.249934	0.133258
C75	C	1.162835	0.499934	0.383258
C76	C	1.412835	0.749934	0.633258
C77	C	0.301334	-0.000095	-0.110409
C78	C	0.551334	0.249905	0.139591
C79	C	0.801334	0.499905	0.389591
C80	C	1.051334	0.749905	0.639591
N81	N	0.982077	-0.318914	-0.113568
N82	N	1.232077	-0.068914	0.136432
N83	N	1.482077	0.181086	0.386432
N84	N	1.732077	0.431086	0.636432
C85	C	0.982090	-0.569920	-0.113577
C86	C	1.232090	-0.319920	0.136423
C87	C	1.482090	-0.069920	0.386423
C88	C	1.732090	0.180080	0.636423
C89	C	0.982080	-0.430242	-0.113574
C90	C	1.232080	-0.180242	0.136426
C91	C	1.482080	0.069758	0.386426
C92	C	1.732080	0.319758	0.636426
C93	C	1.134092	-0.000099	-0.107474
C94	C	1.384092	0.249901	0.142526
C95	C	1.634092	0.499901	0.392526
C96	C	1.884092	0.749901	0.642526
C97	C	1.226387	-0.000100	-0.109095
C98	C	1.476387	0.249900	0.140905
C99	C	1.726387	0.499900	0.390905
C100	C	1.976387	0.749900	0.640905
C101	C	0.988198	-0.000100	0.038430
C102	C	1.238198	0.249900	0.288430
C103	C	1.488198	0.499900	0.538430
C104	C	1.738198	0.749900	0.788430
C105	C	0.986583	-0.000101	0.130725
C106	C	1.236583	0.249899	0.380725
C107	C	1.486583	0.499899	0.630725
C108	C	1.736583	0.749899	0.880725
N109	N	0.982104	0.318742	-0.113578
N110	N	1.232104	0.568742	0.136422
N111	N	1.482104	0.818742	0.386422
N112	N	1.732104	1.068742	0.636422
C113	C	0.975976	-0.000069	-0.265581
C114	C	1.225976	0.249931	-0.015581
C115	C	1.475976	0.499931	0.234419
C116	C	1.725976	0.749931	0.484419
C117	C	0.977592	-0.000060	-0.357877
C118	C	1.227592	0.249940	-0.107877
C119	C	1.477592	0.499940	0.142123
C120	C	1.727592	0.749940	0.392123
C121	C	1.058590	-0.000089	0.352993
C122	C	1.308590	0.249911	0.602993
C123	C	1.558590	0.499911	0.852993
C124	C	1.808590	0.749911	1.102993
C125	C	1.057066	-0.000079	0.439713
C126	C	1.307066	0.249921	0.689713
C127	C	1.557066	0.499921	0.939713
C128	C	1.807066	0.749921	1.189713
C129	C	0.905579	-0.000068	0.419848
C130	C	1.155579	0.249932	0.669848
C131	C	1.405579	0.499932	0.919848
C132	C	1.655579	0.749932	1.169848
C133	C	0.907104	-0.000069	0.333130
C134	C	1.157104	0.249931	0.583130
C135	C	1.407104	0.499931	0.833130
C136	C	1.657104	0.749931	1.083130
C137	C	0.983612	-0.000086	0.299704
C138	C	1.233612	0.249914	0.549704
C139	C	1.483612	0.499914	0.799704
C140	C	1.733612	0.749914	1.049704
C141	C	0.980563	-0.000075	0.473144
C142	C	1.230563	0.249925	0.723144
C143	C	1.480563	0.499925	0.973144
C144	C	1.730563	0.749925	1.223144
C145	C	0.978910	-0.000063	0.567170
C146	C	1.228910	0.249937	0.817170
C147	C	1.478910	0.499937	1.067170
C148	C	1.728910	0.749937	1.317170
C149	C	0.985265	-0.000095	0.205672
C150	C	1.235265	0.249905	0.455672
C151	C	1.485265	0.499905	0.705672
C152	C	1.735265	0.749905	0.955672
H153	H	0.560736	0.202317	-0.114967
H154	H	0.810736	0.452317	0.135033
H155	H	1.060736	0.702317	0.385033
H156	H	1.310736	0.952317	0.635033
H157	H	0.403417	0.202306	-0.112216
H158	H	0.653417	0.452306	0.137784
H159	H	0.903417	0.702306	0.387784
H160	H	1.153417	0.952306	0.637784
H161	H	0.560765	-0.202464	-0.114934
H162	H	0.810765	0.047536	0.135066
H163	H	1.060765	0.297536	0.385066
H164	H	1.310765	0.547536	0.635066
H165	H	0.843288	-0.000057	0.447074
H166	H	1.093288	0.249943	0.697074
H167	H	1.343288	0.499943	0.947074
H168	H	1.593288	0.749943	1.197074
H169	H	0.403431	-0.202493	-0.112175
H170	H	0.653431	0.047507	0.137825
H171	H	0.903431	0.297507	0.387825
H172	H	1.153431	0.547507	0.637825
H173	H	1.118121	-0.000079	0.483098
H174	H	1.368121	0.249921	0.733098
H175	H	1.618121	0.499921	0.983098
H176	H	1.868121	0.749921	1.233098
H177	H	0.846043	-0.000063	0.289740
H178	H	1.096043	0.249937	0.539740
H179	H	1.346043	0.499937	0.789740
H180	H	1.596043	0.749937	1.039740
H181	H	1.120888	-0.000100	0.325781
H182	H	1.370888	0.249900	0.575781
H183	H	1.620888	0.499900	0.825781
H184	H	1.870888	0.749900	1.075781
