data_functionalizedCrystal
_audit_creation_method	'MofGen! by Chris Wilmer'
_symmetry_space_group_name_H-M	'P1'
_symmetry_Int_Tables_number	1
_symmetry_cell_setting	triclinic
loop_
_symmetry_equiv_pos_as_xyz
  x,y,z
_cell_length_a	25.639243
_cell_length_b	16.625545
_cell_length_c	16.625539
_cell_angle_alpha	89.974232
_cell_angle_beta	90.023150
_cell_angle_gamma	89.970326
loop_
_atom_site_label
_atom_site_type_symbol
_atom_site_fract_x
_atom_site_fract_y
_atom_site_fract_z
Zn1	Zn	0.799305	0.320942	0.455979
Zn2	Zn	1.132638	0.654275	0.789312
Zn3	Zn	1.465972	0.987608	1.122646
Zn4	Zn	0.799235	0.455785	0.321152
Zn5	Zn	1.132569	0.789118	0.654486
Zn6	Zn	1.465902	1.122451	0.987819
Zn7	Zn	0.711870	0.320976	0.321154
Zn8	Zn	1.045204	0.654309	0.654487
Zn9	Zn	1.378537	0.987643	0.987820
Zn10	Zn	0.711844	0.455742	0.455936
Zn11	Zn	1.045177	0.789076	0.789269
Zn12	Zn	1.378511	1.122409	1.122603
O13	O	0.755564	0.388361	0.388555
O14	O	1.088897	0.721695	0.721889
O15	O	1.422230	1.055028	1.055222
O16	O	0.872461	0.338832	0.438112
O17	O	1.205794	0.672165	0.771445
O18	O	1.539127	1.005499	1.104778
O19	O	0.787628	0.437934	0.208320
O20	O	1.120961	0.771268	0.541653
O21	O	1.454295	1.104601	0.874987
O22	O	0.723509	0.208139	0.339057
O23	O	1.056842	0.541472	0.672390
O24	O	1.390175	0.874806	1.005724
O25	O	0.872410	0.437901	0.339055
O26	O	1.205743	0.771234	0.672388
O27	O	1.539076	1.104567	1.005721
O28	O	0.787746	0.208114	0.438113
O29	O	1.121080	0.541447	0.771446
O30	O	1.454413	0.874780	1.104779
O31	O	0.723441	0.338891	0.208321
O32	O	1.056774	0.672224	0.541654
O33	O	1.390108	1.005558	0.874988
O34	O	0.638702	0.338850	0.339015
O35	O	0.972035	0.672183	0.672349
O36	O	1.305368	1.005517	1.005682
O37	O	0.723464	0.437828	0.568774
O38	O	1.056798	0.771162	0.902108
O39	O	1.390131	1.104495	1.235441
O40	O	0.638682	0.437862	0.438039
O41	O	0.972016	0.771195	0.771373
O42	O	1.305349	1.104529	1.104706
O43	O	0.787721	0.338791	0.568806
O44	O	1.121055	0.672124	0.902139
O45	O	1.454388	1.005458	1.235473
O46	O	0.787603	0.568611	0.339013
O47	O	1.120936	0.901945	0.672346
O48	O	1.454269	1.235278	1.005680
O49	O	0.723397	0.568580	0.438038
O50	O	1.056730	0.901914	0.771372
O51	O	1.390063	1.235247	1.104705
C52	C	0.619721	0.388356	0.388523
C53	C	0.953054	0.721689	0.721857
C54	C	1.286388	1.055022	1.055190
C55	C	0.561607	0.388373	0.388529
C56	C	0.894940	0.721706	0.721862
C57	C	1.228274	1.055039	1.055195
C58	C	0.201265	0.336857	0.440220
C59	C	0.534598	0.670190	0.773553
C60	C	0.867932	1.003524	1.106887
C61	C	0.146661	0.336856	0.440225
C62	C	0.479994	0.670190	0.773558
C63	C	0.813327	1.003523	1.106892
O64	O	0.118442	0.293041	0.484135
O65	O	0.451775	0.626374	0.817468
O66	O	0.785108	0.959708	1.150802
N67	N	0.119325	0.388359	0.388577
N68	N	0.452658	0.721692	0.721911
N69	N	0.785991	1.055025	1.055244
C70	C	0.146596	0.439859	0.336916
C71	C	0.479929	0.773193	0.670249
C72	C	0.813262	1.106526	1.003582
O73	O	0.118330	0.483666	0.292985
O74	O	0.451663	0.816999	0.626318
O75	O	0.784997	1.150332	0.959652
C76	C	0.201199	0.439855	0.336907
C77	C	0.534532	0.773189	0.670240
C78	C	0.867866	1.106522	1.003574
C79	C	0.228532	0.388355	0.388564
C80	C	0.561865	0.721689	0.721897
C81	C	0.895199	1.055022	1.055231
C82	C	0.228598	0.285361	0.491872
C83	C	0.561932	0.618694	0.825205
C84	C	0.895265	0.952027	1.158539
C85	C	0.283199	0.285363	0.491868
C86	C	0.616532	0.618696	0.825201
C87	C	0.949866	0.952029	1.158535
C88	C	0.310466	0.336861	0.440212
C89	C	0.643799	0.670194	0.773545
C90	C	0.977133	1.003528	1.106878
C91	C	0.283133	0.388357	0.388560
C92	C	0.616466	0.721691	0.721893
C93	C	0.949799	1.055024	1.055226
C94	C	0.228469	0.491351	0.285242
C95	C	0.561802	0.824685	0.618575
C96	C	0.895136	1.158018	0.951909
C97	C	0.283076	0.491343	0.285237
C98	C	0.616409	0.824676	0.618571
C99	C	0.949743	1.158009	0.951904
C100	C	0.310409	0.439843	0.336894
C101	C	0.643743	0.773176	0.670228
C102	C	0.977076	1.106509	1.003561
C103	C	0.365000	0.439858	0.336900
C104	C	0.698334	0.773191	0.670233
C105	C	1.031667	1.106524	1.003566
N106	N	0.392337	0.388355	0.388547
N107	N	0.725670	0.721689	0.721881
N108	N	1.059003	1.055022	1.055214
C109	C	0.365069	0.336857	0.440203
C110	C	0.698403	0.670190	0.773537
C111	C	1.031736	1.003524	1.106870
C112	C	0.031925	0.439863	0.336936
C113	C	0.365258	0.773196	0.670270
C114	C	0.698592	1.106530	1.003603
C115	C	-0.022677	0.439872	0.336948
C116	C	0.310656	0.773205	0.670282
C117	C	0.643989	1.106538	1.003615
C118	C	-0.022609	0.336867	0.440257
C119	C	0.310725	0.670201	0.773590
C120	C	0.644058	1.003534	1.106923
C121	C	0.031995	0.336863	0.440248
C122	C	0.365328	0.670197	0.773582
C123	C	0.698661	1.003530	1.106915
C124	C	0.059261	0.388361	0.388584
C125	C	0.392594	0.721694	0.721917
C126	C	0.725928	1.055027	1.055251
C127	C	0.479734	0.336866	0.440191
C128	C	0.813068	0.670199	0.773525
C129	C	1.146401	1.003532	1.106858
C130	C	0.534340	0.336874	0.440185
C131	C	0.867673	0.670208	0.773518
C132	C	1.201007	1.003541	1.106851
C133	C	0.534266	0.439875	0.336874
C134	C	0.867599	0.773209	0.670207
C135	C	1.200933	1.106542	1.003540
C136	C	0.479666	0.439870	0.336883
C137	C	0.812999	0.773203	0.670216
C138	C	1.146332	1.106536	1.003549
C139	C	0.452401	0.388358	0.388544
C140	C	0.785734	0.721692	0.721877
C141	C	1.119068	1.055025	1.055211
O142	O	0.393254	0.483649	0.293010
O143	O	0.726587	0.816982	0.626343
O144	O	1.059921	1.150315	0.959676
O145	O	0.393342	0.293051	0.484119
O146	O	0.726675	0.626384	0.817452
O147	O	1.060008	0.959717	1.150786
C148	C	0.755504	0.597852	0.388538
C149	C	1.088837	0.931185	0.721872
C150	C	1.422170	1.264519	1.055205
C151	C	0.755526	0.687473	0.388558
C152	C	1.088859	1.020806	0.721891
C153	C	1.422192	1.354140	1.055225
C154	C	0.755545	0.760256	0.388577
C155	C	1.088878	1.093589	0.721911
C156	C	1.422211	1.426922	1.055244
C157	C	0.755574	0.851564	0.388599
C158	C	1.088907	1.184897	0.721932
C159	C	1.422240	1.518231	1.055265
C160	C	0.755600	0.924340	0.388612
C161	C	1.088933	1.257674	0.721945
C162	C	1.422266	1.591007	1.055279
C163	C	0.755628	1.015655	0.388632
C164	C	1.088962	1.348988	0.721966
C165	C	1.422295	1.682321	1.055299
C166	C	0.891937	0.388367	0.388588
C167	C	1.225270	0.721701	0.721921
C168	C	1.558603	1.055034	1.055254
C169	C	0.950051	0.388370	0.388602
C170	C	1.283384	0.721703	0.721935
C171	C	1.616717	1.055037	1.055268
C172	C	0.755598	0.388301	0.598864
C173	C	1.088931	0.721634	0.932198
C174	C	1.422264	1.054968	1.265531
C175	C	0.755612	0.388276	0.688485
C176	C	1.088945	0.721609	1.021819
C177	C	1.422279	1.054942	1.355152
C178	C	0.755634	1.178052	0.388600
C179	C	1.088968	1.511386	0.721933
C180	C	1.422301	1.844719	1.055267
C181	C	0.755654	1.088431	0.388645
C182	C	1.088988	1.421764	0.721979
C183	C	1.422321	1.755098	1.055312
C184	C	0.755560	0.388363	0.179064
C185	C	1.088893	0.721696	0.512398
C186	C	1.422227	1.055029	0.845731
C187	C	0.755647	0.388161	0.089444
C188	C	1.088980	0.721495	0.422777
C189	C	1.422313	1.054828	0.756110
C190	C	0.755636	0.388185	1.016661
C191	C	1.088970	0.721519	1.349995
C192	C	1.422303	1.054852	1.683328
C193	C	0.755628	0.388213	0.925353
C194	C	1.088961	0.721546	1.258686
C195	C	1.422295	1.054880	1.592019
C196	C	0.755624	0.388231	0.852576
C197	C	1.088958	0.721564	1.185910
C198	C	1.422291	1.054898	1.519243
C199	C	0.755616	0.388257	0.761262
C200	C	1.088949	0.721591	1.094595
C201	C	1.422282	1.054924	1.427929
H202	H	-0.044819	0.294932	0.482316
H203	H	0.288514	0.628266	0.815649
H204	H	0.621847	0.961599	1.148983
H205	H	0.556477	0.481806	0.294818
H206	H	0.889810	0.815139	0.628152
H207	H	1.223144	1.148472	0.961485
Cl208	Cl	0.568698	0.272129	0.505132
Cl209	Cl	0.902032	0.605462	0.838465
Cl210	Cl	1.235365	0.938795	1.171798
H211	H	0.054246	0.294926	0.482310
H212	H	0.387579	0.628259	0.815644
H213	H	0.720913	0.961592	1.148977
H214	H	0.305449	0.243425	0.533931
H215	H	0.638782	0.576758	0.867264
H216	H	0.972116	0.910092	1.200598
H217	H	0.206403	0.243420	0.533937
H218	H	0.539737	0.576753	0.867270
H219	H	0.873070	0.910087	1.200604
H220	H	-0.044928	0.481817	0.294893
H221	H	0.288406	0.815150	0.628226
H222	H	0.621739	1.148484	0.961560
Cl223	Cl	0.066197	0.504614	0.271985
Cl224	Cl	0.399530	0.837947	0.605318
Cl225	Cl	0.732864	1.171280	0.938651
Cl226	Cl	0.317350	0.556088	0.220285
Cl227	Cl	0.650683	0.889422	0.553619
Cl228	Cl	0.984017	1.222755	0.886952
Cl229	Cl	0.194120	0.556082	0.220281
Cl230	Cl	0.527454	0.889416	0.553614
Cl231	Cl	0.860787	1.222749	0.886948
H232	H	0.457542	0.294918	0.482257
H233	H	0.790875	0.628251	0.815590
H234	H	1.124209	0.961584	1.148923
H235	H	0.457410	0.481815	0.294829
H236	H	0.790743	0.815148	0.628162
H237	H	1.124076	1.148481	0.961495
