data_functionalizedCrystal
_audit_creation_method	'MofGen! by Chris Wilmer'
_symmetry_space_group_name_H-M	'P1'
_symmetry_Int_Tables_number	1
_symmetry_cell_setting	triclinic
loop_
_symmetry_equiv_pos_as_xyz
  x,y,z
_cell_length_a	11.026607
_cell_length_b	10.868271
_cell_length_c	11.026607
_cell_angle_alpha	89.997040
_cell_angle_beta	71.413983
_cell_angle_gamma	90.003487
loop_
_atom_site_label
_atom_site_type_symbol
_atom_site_fract_x
_atom_site_fract_y
_atom_site_fract_z
O1	O	1.726733	0.102319	-0.533624
O2	O	2.226733	0.602319	-0.033624
O3	O	1.360153	0.102321	-0.472861
O4	O	1.860153	0.602321	0.027139
O5	O	1.513061	0.102316	-0.319952
O6	O	2.013061	0.602316	0.180048
O7	O	1.573825	0.102325	-0.686532
O8	O	2.073825	0.602325	-0.186532
O9	O	1.513044	-0.102329	-0.319941
O10	O	2.013044	0.397671	0.180059
O11	O	1.360135	-0.102323	-0.472850
O12	O	1.860135	0.397677	0.027150
O13	O	1.726715	-0.102325	-0.533613
O14	O	2.226715	0.397675	-0.033613
Zn15	Zn	1.543423	-0.134816	-0.503230
Zn16	Zn	2.043423	0.365184	-0.003230
Zn17	Zn	1.543446	0.134812	-0.503244
Zn18	Zn	2.043446	0.634812	-0.003244
O19	O	1.573807	-0.102320	-0.686521
O20	O	2.073807	0.397680	-0.186521
C21	C	1.312485	-0.000001	-0.461645
C22	C	1.812485	0.499999	0.038355
C23	C	1.170471	-0.000000	-0.428228
C24	C	1.670471	0.500000	0.071772
C25	C	1.116821	0.000003	-0.520498
C26	C	1.616821	0.500003	-0.020498
C27	C	0.970043	0.000004	-0.485962
C28	C	1.470043	0.500004	0.014038
N29	N	1.543416	-0.318830	-0.503221
N30	N	2.043416	0.181170	-0.003221
C31	C	1.543439	-0.569836	-0.503240
C32	C	2.043439	-0.069836	-0.003240
C33	C	1.543423	-0.430159	-0.503232
C34	C	2.043423	0.069841	-0.003232
C35	C	1.774384	-0.000001	-0.544828
C36	C	2.274384	0.499999	-0.044828
C37	C	1.916398	0.000007	-0.578245
C38	C	2.416398	0.500007	-0.078245
C39	C	1.501843	-0.000005	-0.272287
C40	C	2.001843	0.499995	0.227713
C41	C	1.468426	-0.000000	-0.130273
C42	C	1.968426	0.500000	0.369727
N43	N	1.543461	0.318826	-0.503245
N44	N	2.043461	0.818826	-0.003245
C45	C	1.585026	0.000003	-0.734187
C46	C	2.085026	0.500003	-0.234187
C47	C	1.618443	0.000007	-0.876200
C48	C	2.118443	0.500007	-0.376200
C49	C	1.560695	0.000001	-0.076624
C50	C	2.060695	0.500001	0.423376
C51	C	1.526160	0.000006	0.070155
C52	C	2.026160	0.500006	0.570155
H53	H	0.907314	0.000033	-0.381393
H54	H	1.407314	0.500033	0.118607
N55	N	1.394969	-0.000009	0.148817
N56	N	1.894969	0.499991	0.648817
N57	N	1.308203	-0.000018	0.098453
N58	N	1.808203	0.499982	0.598453
H59	H	1.215550	-0.000031	0.154008
H60	H	1.715550	0.499969	0.654008
N61	N	1.091787	-0.000031	-0.297051
N62	N	1.591787	0.499969	0.202949
N63	N	1.015035	-0.086301	-0.254453
N64	N	1.515035	0.413699	0.245547
H65	H	0.959466	-0.086326	-0.161805
H66	H	1.459466	0.413674	0.338195
H67	H	1.363863	0.000008	-0.067540
H68	H	1.863863	0.500008	0.432460
H69	H	1.723013	0.000099	0.061072
H70	H	2.223013	0.500099	0.561072
H71	H	1.665258	-0.000007	-0.139357
H72	H	2.165258	0.499993	0.360643
N73	N	1.195508	-0.000022	-0.651675
N74	N	1.695508	0.499978	-0.151675
N75	N	1.272247	-0.086290	-0.694262
N76	N	1.772247	0.413710	-0.194262
H77	H	1.327818	-0.086311	-0.786909
H78	H	1.827818	0.413689	-0.286909
N79	N	0.995074	-0.000019	-0.709431
N80	N	1.495074	0.499981	-0.209431
N81	N	1.071810	-0.086289	-0.752023
N82	N	1.571810	0.413711	-0.252023
H83	H	1.127374	-0.086311	-0.844672
H84	H	1.627374	0.413689	-0.344672
