data_functionalizedCrystal
_audit_creation_method	'MofGen! by Chris Wilmer'
_symmetry_space_group_name_H-M	'P1'
_symmetry_Int_Tables_number	1
_symmetry_cell_setting	triclinic
loop_
_symmetry_equiv_pos_as_xyz
  x,y,z
_cell_length_a	19.288859
_cell_length_b	27.731996
_cell_length_c	18.366186
_cell_angle_alpha	89.987769
_cell_angle_beta	89.990083
_cell_angle_gamma	82.877556
loop_
_atom_site_label
_atom_site_type_symbol
_atom_site_fract_x
_atom_site_fract_y
_atom_site_fract_z
O1	O	0.920963	0.060287	-0.060573
O2	O	0.718649	0.068425	-0.060573
O3	O	0.826108	-0.006024	-0.060557
O4	O	0.813504	0.134736	-0.060589
O5	O	0.826090	-0.006027	0.060542
O6	O	0.718631	0.068421	0.060526
O7	O	0.920945	0.060283	0.060526
Zn8	Zn	0.819785	0.064352	0.079753
Zn9	Zn	0.819809	0.064356	-0.079800
O10	O	0.813486	0.134732	0.060510
C11	C	0.692765	0.068162	-0.000023
C12	C	0.615666	0.067377	-0.000022
C13	C	0.051376	0.105753	-0.000032
C14	C	0.123818	0.106494	-0.000036
C15	C	0.168809	0.062811	-0.000025
C16	C	0.141353	0.018384	-0.000028
C17	C	0.068912	0.017644	-0.000032
C18	C	0.290285	0.030232	0.042412
C19	C	0.362723	0.030973	0.042420
C20	C	0.392240	0.065092	-0.000018
C21	C	0.349307	0.098477	-0.042453
C22	C	0.276866	0.097737	-0.042457
C23	C	0.247359	0.063609	-0.000021
C24	C	0.498237	0.110321	-0.000024
C25	C	0.570680	0.111060	-0.000032
C26	C	0.588214	0.022949	-0.000017
C27	C	0.515772	0.022210	-0.000016
C28	C	0.470787	0.065898	-0.000016
C29	C	0.825840	-0.024034	-0.000005
C30	C	0.825061	-0.077692	0.000002
C31	C	0.820164	-0.410421	-0.066045
C32	C	0.817202	-0.612088	-0.066057
O33	O	0.816798	-0.638159	-0.122198
N34	N	0.816824	-0.637309	-0.000047
C35	C	0.817183	-0.612109	0.065972
O36	O	0.816786	-0.638187	0.122118
C37	C	0.820139	-0.410442	0.065984
C38	C	0.820524	-0.385225	-0.000031
C39	C	0.820548	-0.385204	-0.132054
C40	C	0.821292	-0.334791	-0.132050
C41	C	0.821652	-0.309594	-0.066037
C42	C	0.821268	-0.334812	-0.000027
C43	C	0.820492	-0.385242	0.132002
C44	C	0.821230	-0.334822	0.131999
C45	C	0.821614	-0.309605	0.065984
C46	C	0.822372	-0.259202	0.065990
N47	N	0.822750	-0.233982	-0.000021
C48	C	0.822390	-0.259178	-0.066034
C49	C	0.815632	-0.717987	0.065961
C50	C	0.814894	-0.768403	0.065958
C51	C	0.814912	-0.768379	-0.066072
C52	C	0.815655	-0.717962	-0.066068
C53	C	0.816009	-0.692766	-0.000050
C54	C	0.823953	-0.153306	-0.066021
C55	C	0.824700	-0.102889	-0.066011
C56	C	0.824678	-0.102916	0.066018
C57	C	0.823935	-0.153330	0.066008
C58	C	0.823570	-0.178523	-0.000017
O59	O	0.822769	-0.233100	0.122101
O60	O	0.822771	-0.233090	-0.122172
C61	C	0.819419	-0.460835	-0.066049
C62	C	0.819035	-0.486052	-0.000039
C63	C	0.819396	-0.460855	0.065974
C64	C	0.818298	-0.536468	-0.000042
C65	C	0.817937	-0.561665	-0.066055
C66	C	0.818315	-0.536444	-0.132066
C67	C	0.819059	-0.486031	-0.132062
C68	C	0.819018	-0.486076	0.131985
C69	C	0.818275	-0.536489	0.131976
C70	C	0.817914	-0.561686	0.065962
C71	C	0.946829	0.060547	-0.000026
C72	C	1.023928	0.061331	-0.000031
C73	C	0.813754	0.152742	-0.000043
C74	C	0.814534	0.206400	-0.000056
N75	N	0.819774	0.064348	0.188644
N76	N	0.819826	0.064356	-0.188691
C77	C	0.867372	0.031399	0.226752
C78	C	0.867377	0.031396	0.302980
C79	C	0.819789	0.064352	0.341097
C80	C	0.772182	0.097304	0.302981
C81	C	0.772174	0.097302	0.226754
C82	C	0.810205	0.108396	0.461848
C83	C	0.810217	0.108399	0.538073
C84	C	0.819809	0.064358	0.576205
C85	C	0.829403	0.020313	0.538102
C86	C	0.829396	0.020311	0.461876
C87	C	0.819792	0.064358	0.423752
C88	C	0.867415	0.031403	0.696967
C89	C	0.867414	0.031401	0.773196
C90	C	0.772223	0.097313	0.773196
C91	C	0.772220	0.097311	0.696968
C92	C	0.819820	0.064357	0.658858
H93	H	0.373336	0.126261	-0.077008
C94	C	0.814477	-0.796137	0.138579
N95	N	0.814159	-0.817024	0.193281
H96	H	0.733435	0.124137	0.334020
H97	H	0.817967	-0.557017	0.185737
H98	H	0.820180	-0.405765	0.185758
C99	C	0.448751	0.158378	-0.000037
N100	N	0.411481	0.194574	-0.000050
C101	C	0.799657	0.156849	0.579978
N102	N	0.791698	0.193343	0.611539
C103	C	0.719877	0.133565	0.815121
N104	N	0.680447	0.160871	0.846703
H105	H	0.823628	-0.173863	0.119763
H106	H	0.493424	-0.013963	-0.000011
C107	C	0.038719	-0.031226	-0.000022
N108	N	0.015976	-0.068035	-0.000011
H109	H	0.397674	0.003792	0.076977
H110	H	0.906173	0.004567	0.804224
C111	C	0.819417	-0.458367	0.204609
N112	N	0.819721	-0.437499	0.259315
C113	C	0.821622	-0.307110	0.204626
N114	N	0.821921	-0.286239	0.259328
C115	C	0.229644	0.134455	-0.089143
N116	N	0.194076	0.162110	-0.124311
C117	C	0.257825	-0.007305	0.089097
N118	N	0.233378	-0.035578	0.124259
C119	C	0.839940	-0.028138	0.419966
N120	N	0.847877	-0.064630	0.388400
C121	C	0.825068	-0.075190	0.138629
N122	N	0.825354	-0.054305	0.193320
H123	H	0.593026	0.147235	-0.000039
C124	C	0.001897	0.153811	-0.000027
N125	N	-0.035372	0.190008	-0.000022
H126	H	0.146171	0.142669	-0.000029
H127	H	0.819372	-0.465504	-0.185818
C128	C	0.817917	-0.564170	-0.204681
N129	N	0.817612	-0.585055	-0.259371
C130	C	0.799652	0.156847	0.419910
N131	N	0.791705	0.193340	0.388324
C132	C	0.839953	-0.028136	0.580042
N133	N	0.847900	-0.064626	0.611634
C134	C	0.719907	0.133594	0.655048
N135	N	0.680518	0.160934	0.623475
C136	C	0.820181	-0.412915	-0.204681
N137	N	0.819921	-0.433785	-0.259388
H138	H	0.177989	-0.017183	-0.000021
H139	H	0.624845	-0.012619	-0.000014
C140	C	0.825121	-0.075153	-0.138636
N141	N	0.825436	-0.054264	-0.193335
C142	C	0.823564	-0.181013	-0.138652
N143	N	0.823278	-0.201882	-0.193358
H144	H	0.821602	-0.314263	-0.185807
C145	C	0.919727	-0.004857	0.184835
N146	N	0.959158	-0.032166	0.153263
H147	H	0.815967	-0.697434	-0.119823
C148	C	0.719840	0.133572	0.184835
N149	N	0.680432	0.160899	0.153260
H150	H	0.906138	0.004564	0.334012
H151	H	0.814619	-0.788903	-0.119822
H152	H	0.815924	-0.697477	0.119724
C153	C	0.919768	-0.004851	0.655043
N154	N	0.959200	-0.032159	0.623469
