data_functionalizedCrystal
_audit_creation_method	'MofGen! by Chris Wilmer'
_symmetry_space_group_name_H-M	'P1'
_symmetry_Int_Tables_number	1
_symmetry_cell_setting	triclinic
loop_
_symmetry_equiv_pos_as_xyz
  x,y,z
_cell_length_a	21.295418
_cell_length_b	17.077402
_cell_length_c	17.077396
_cell_angle_alpha	90.029784
_cell_angle_beta	89.961209
_cell_angle_gamma	89.961304
loop_
_atom_site_label
_atom_site_type_symbol
_atom_site_fract_x
_atom_site_fract_y
_atom_site_fract_z
Zn1	Zn	0.962358	0.312177	-0.444240
Zn2	Zn	0.962284	0.443452	-0.312971
Zn3	Zn	0.857091	0.312240	-0.312944
Zn4	Zn	0.857065	0.443441	-0.444150
O5	O	0.909699	0.377827	-0.378576
O6	O	1.050438	0.329569	-0.426876
O7	O	0.948309	0.426077	-0.203120
O8	O	0.871097	0.202385	-0.330386
O9	O	1.050383	0.426016	-0.330433
O10	O	0.948436	0.202338	-0.426849
O11	O	0.871024	0.329677	-0.203100
O12	O	0.768998	0.329666	-0.330299
O13	O	0.871053	0.425997	-0.554009
O14	O	0.768979	0.426059	-0.426696
O15	O	0.948411	0.329558	-0.554075
O16	O	0.948284	0.553297	-0.330346
O17	O	0.870981	0.553289	-0.426723
C18	C	0.746148	0.377869	-0.378486
C19	C	0.676180	0.377905	-0.378466
C20	C	0.909639	0.581775	-0.378545
C21	C	0.909670	0.669025	-0.378558
C22	C	0.909738	0.377769	-0.583320
C23	C	0.909754	0.377745	-0.670570
C24	C	0.643320	0.428163	-0.428585
C25	C	0.577577	0.428144	-0.428620
C26	C	0.544697	0.377875	-0.378522
C27	C	0.577565	0.327607	-0.328400
C28	C	0.643306	0.327622	-0.328372
N29	N	0.441425	0.371744	-0.309865
N30	N	0.378974	0.371735	-0.309894
C31	C	0.346623	0.377825	-0.378605
N32	N	0.379082	0.383940	-0.447288
N33	N	0.441539	0.383954	-0.447258
C34	C	0.473412	0.377852	-0.378548
C35	C	0.242477	0.428064	-0.428767
C36	C	0.176733	0.428040	-0.428803
C37	C	0.176723	0.327507	-0.328576
C38	C	0.242465	0.327527	-0.328547
C39	C	0.275338	0.377810	-0.378641
C40	C	1.073890	0.377786	-0.378667
C41	C	1.143858	0.377769	-0.378706
C42	C	0.909778	0.173083	-0.378625
C43	C	0.909811	0.085833	-0.378645
C44	C	0.949964	0.709993	-0.328428
C45	C	0.949994	0.791974	-0.328448
C46	C	0.909728	0.832984	-0.378594
C47	C	0.869433	0.792010	-0.428729
C48	C	0.869406	0.710031	-0.428713
C49	C	0.869492	0.962880	-0.428759
C50	C	0.869518	1.044865	-0.428775
C51	C	0.950080	1.044822	-0.328495
C52	C	0.950053	0.962844	-0.328478
C53	C	0.909757	0.921875	-0.378612
C54	C	0.950036	0.327525	-0.711596
C55	C	0.950043	0.327499	-0.793577
C56	C	0.909772	0.377697	-0.834530
C57	C	0.869485	0.427919	-0.793498
C58	C	0.869475	0.427941	-0.711519
C59	C	0.869510	0.427872	-0.964369
C60	C	0.869521	0.427852	-1.046353
C61	C	0.950079	0.327430	-1.046426
C62	C	0.950069	0.327451	-0.964447
C63	C	0.909783	0.377675	-0.923421
C64	C	0.909698	0.377828	-0.174628
C65	C	0.909804	0.377632	-0.087379
H66	H	0.550817	0.469070	-0.469436
N67	N	0.143146	0.276142	-0.277415
N68	N	0.106524	0.226145	-0.305144
H69	H	0.082809	0.189863	-0.269013
H70	H	0.982865	0.286580	-0.931105
H71	H	0.982880	0.286535	-1.079833
H72	H	0.550790	0.286676	-0.287611
N73	N	0.991248	1.086650	-0.277277
N74	N	0.987103	1.077550	-0.204836
H75	H	1.016177	1.107092	-0.168663
H76	H	0.836667	0.468827	-0.678117
N77	N	0.828345	0.479199	-0.835320
N78	N	0.832480	0.551634	-0.826147
H79	H	0.803421	0.587852	-0.855680
N80	N	0.276044	0.276207	-0.277343
N81	N	0.334741	0.276229	-0.277322
H82	H	0.358458	0.239981	-0.241158
H83	H	0.982832	0.286650	-0.678258
N84	N	0.991094	0.668093	-0.277212
N85	N	0.991066	0.594899	-0.277202
H86	H	1.020116	0.565307	-0.241031
H87	H	0.982837	0.929453	-0.287641
H88	H	0.982847	0.286606	-0.826976
H89	H	0.982805	0.825326	-0.287627
H90	H	0.670061	0.286693	-0.287559
N91	N	0.828356	0.479100	-1.088175
N92	N	0.792369	0.523912	-1.051539
H93	H	0.763285	0.560095	-1.081075
H94	H	0.836596	0.676676	-0.469534
N95	N	0.276051	0.479430	-0.479938
N96	N	0.246701	0.524297	-0.524690
H97	H	0.270410	0.560575	-0.560830
H98	H	0.149980	0.468964	-0.469621
N99	N	0.828340	0.921029	-0.479979
N100	N	0.832484	0.930124	-0.552421
H101	H	0.803420	0.900565	-0.588593
N102	N	0.828292	0.833901	-0.479940
N103	N	0.770206	0.824827	-0.474636
H104	H	0.741147	0.854411	-0.510801
N105	N	0.828380	1.086746	-0.479998
N106	N	0.792407	1.050160	-0.524757
H107	H	0.763351	1.079738	-0.560933
N108	N	0.828352	0.479162	-0.922459
N109	N	0.770269	0.473967	-0.931575
H110	H	0.741202	0.510191	-0.901975
N111	N	0.676888	0.479528	-0.479758
N112	N	0.647535	0.524398	-0.524506
H113	H	0.671244	0.560675	-0.560649
