data_functionalizedCrystal
_audit_creation_method	'MofGen! by Chris Wilmer'
_symmetry_space_group_name_H-M	'P1'
_symmetry_Int_Tables_number	1
_symmetry_cell_setting	triclinic
loop_
_symmetry_equiv_pos_as_xyz
  x,y,z
_cell_length_a	11.026607
_cell_length_b	11.026607
_cell_length_c	13.448316
_cell_angle_alpha	89.996104
_cell_angle_beta	89.994389
_cell_angle_gamma	108.586017
loop_
_atom_site_label
_atom_site_type_symbol
_atom_site_fract_x
_atom_site_fract_y
_atom_site_fract_z
O1	O	1.726738	0.533627	-0.082689
O2	O	1.360158	0.472864	-0.082691
O3	O	1.513066	0.319956	-0.082687
O4	O	1.573830	0.686536	-0.082694
O5	O	1.513039	0.319938	0.082697
O6	O	1.360131	0.472846	0.082693
O7	O	1.726711	0.533610	0.082694
Cu8	Cu	1.543418	0.503227	0.097794
Cu9	Cu	1.543450	0.503247	-0.097791
O10	O	1.573802	0.686518	0.082690
C11	C	1.312485	0.461645	0.000001
C12	C	1.170471	0.428228	0.000000
C13	C	1.501843	0.272287	0.000004
C14	C	1.468426	0.130273	0.000000
C15	C	1.116821	0.520498	-0.000002
C16	C	0.970043	0.485962	-0.000003
C17	C	1.560695	0.076624	-0.000001
C18	C	1.526160	-0.070155	-0.000005
C19	C	1.774384	0.544828	0.000001
C20	C	1.916398	0.578245	-0.000005
C21	C	1.585026	0.734187	-0.000003
C22	C	1.618443	0.876200	-0.000006
N23	N	1.543405	0.503213	0.235359
N24	N	1.543472	0.503253	-0.235355
C25	C	1.611147	0.435547	0.287401
C26	C	1.611155	0.435548	0.391504
C27	C	1.543427	0.503223	0.443563
C28	C	1.475676	0.570891	0.391514
C29	C	1.475662	0.570882	0.287412
C30	C	1.475713	0.570908	0.608494
C31	C	1.475729	0.570919	0.712602
C32	C	1.611206	0.435573	0.712586
C33	C	1.611192	0.435564	0.608484
C34	C	1.543443	0.503235	0.556442
H35	H	1.179555	0.625061	0.000001
H36	H	1.723013	-0.061072	-0.000080
O37	O	1.676886	0.369643	0.441943
C38	C	1.703174	0.164426	0.473838
C39	C	1.628642	0.238911	0.416642
H40	H	1.664180	0.058711	0.453420
H41	H	1.808872	0.203305	0.453323
H42	H	1.691591	0.176116	0.557181
H43	H	1.640121	0.227251	0.333286
H44	H	1.522973	0.200014	0.437240
H45	H	1.421590	-0.132884	-0.000012
O46	O	1.343744	0.055258	0.000040
C47	C	1.195643	-0.159430	-0.000032
C48	C	1.336898	-0.074631	-0.000053
H49	H	1.190061	-0.264461	-0.000128
H50	H	1.146100	-0.138399	0.069198
H51	H	1.146187	-0.138195	-0.069228
H52	H	1.386464	-0.095817	0.069096
H53	H	1.386345	-0.095676	-0.069328
O54	O	1.676859	0.369841	0.557753
C55	C	1.844363	0.380242	0.439769
C56	C	1.770313	0.454962	0.497252
H57	H	1.919919	0.449026	0.390824
H58	H	1.892861	0.331720	0.494666
H59	H	1.775055	0.304633	0.391208
H60	H	1.839536	0.530632	0.545815
H61	H	1.721796	0.503394	0.442301
O62	O	1.676929	0.369648	0.763021
C63	C	1.703197	0.164423	0.794919
C64	C	1.628678	0.238917	0.737719
H65	H	1.664197	0.058709	0.774499
H66	H	1.808897	0.203295	0.774409
H67	H	1.691608	0.176113	0.878261
H68	H	1.640162	0.227258	0.654364
H69	H	1.523007	0.200028	0.758312
H70	H	1.420523	0.625988	0.433906
H71	H	0.907314	0.381393	-0.000026
O72	O	1.409805	0.636656	0.763020
C73	C	1.275440	0.770911	0.752058
C74	C	1.350030	0.696503	0.694836
H75	H	1.227114	0.819339	0.696955
H76	H	1.199705	0.701976	0.800781
H77	H	1.344366	0.846582	0.800811
H78	H	1.281203	0.620832	0.646028
H79	H	1.425781	0.765518	0.646176
H80	H	0.979125	0.682816	-0.000001
H81	H	1.666305	0.380445	0.245021
O82	O	1.410090	0.636734	0.557828
C83	C	1.420976	0.804872	0.440323
C84	C	1.495434	0.730404	0.497624
H85	H	1.489948	0.880638	0.391651
H86	H	1.345320	0.735980	0.391535
H87	H	1.372536	0.853185	0.495429
H88	H	1.543953	0.682085	0.442590
H89	H	1.571019	0.799354	0.546427
O90	O	1.410025	0.636821	0.236900
C91	C	1.383679	0.842030	0.205077
C92	C	1.458142	0.767520	0.262325
H93	H	1.422534	0.947709	0.225628
H94	H	1.395322	0.830507	0.121720
H95	H	1.277979	0.803005	0.225555
H96	H	1.563867	0.806495	0.241931
H97	H	1.446392	0.779041	0.345668
H98	H	1.107738	0.323666	-0.000023
H99	H	1.665258	0.139357	0.000006
