data_functionalizedCrystal
_audit_creation_method	'MofGen! by Chris Wilmer'
_symmetry_space_group_name_H-M	'P1'
_symmetry_Int_Tables_number	1
_symmetry_cell_setting	triclinic
loop_
_symmetry_equiv_pos_as_xyz
  x,y,z
_cell_length_a	19.805407
_cell_length_b	14.908178
_cell_length_c	19.805399
_cell_angle_alpha	93.324276
_cell_angle_beta	90.019573
_cell_angle_gamma	93.313831
loop_
_atom_site_label
_atom_site_type_symbol
_atom_site_fract_x
_atom_site_fract_y
_atom_site_fract_z
Zn1	Zn	1.019225	-0.359207	0.367165
Zn2	Zn	1.012625	-0.510084	0.247444
Zn3	Zn	0.906038	-0.359232	0.253989
Zn4	Zn	0.899490	-0.510036	0.360592
O5	O	0.959345	-0.434640	0.307297
O6	O	1.113065	-0.379231	0.351295
O7	O	0.998464	-0.490103	0.153594
O8	O	0.926556	-0.232974	0.274492
O9	O	1.108216	-0.490079	0.263336
O10	O	1.009713	-0.232956	0.357642
O11	O	0.920156	-0.379273	0.158402
O12	O	0.810454	-0.379227	0.268118
O13	O	0.915395	-0.489998	0.456182
O14	O	0.805643	-0.490022	0.346440
O15	O	1.003363	-0.379184	0.461011
O16	O	0.992115	-0.636332	0.256963
O17	O	0.908995	-0.636296	0.340093
C18	C	0.783489	-0.434622	0.307276
C19	C	0.708257	-0.434637	0.307282
C20	C	0.670421	-0.492414	0.347990
C21	C	0.599733	-0.492416	0.348000
C22	C	0.566881	-0.434644	0.307297
C23	C	0.604721	-0.376860	0.266588
C24	C	0.675409	-0.376854	0.266582
C25	C	0.319647	-0.376880	0.266609
C26	C	0.248955	-0.376891	0.266616
C27	C	0.243971	-0.492441	0.348027
C28	C	0.314659	-0.492436	0.348021
C29	C	0.352493	-0.434649	0.307315
C30	C	0.429142	-0.434647	0.307306
C31	C	0.490233	-0.434650	0.307302
C32	C	0.949146	-0.669050	0.297119
C33	C	0.944845	-0.769332	0.292788
C34	C	1.023290	-0.957604	0.371326
C35	C	1.019251	-1.051827	0.367258
C36	C	0.932726	-1.052005	0.280589
C37	C	0.936765	-0.957782	0.284657
C38	C	0.982049	-0.910584	0.330026
C39	C	0.986091	-0.816359	0.334089
C40	C	0.899563	-0.816538	0.247424
C41	C	0.895524	-0.910762	0.243357
C42	C	1.135886	-0.434658	0.307319
C43	C	1.211118	-0.434665	0.307328
C44	C	0.959385	-0.434583	0.483843
C45	C	0.959402	-0.434559	0.559076
C46	C	0.969601	-0.199314	0.317530
C47	C	0.973972	-0.099032	0.321891
C48	C	0.959346	-0.434631	0.131442
C49	C	0.959471	-0.434401	0.056220
C50	C	1.005209	-0.376855	0.596936
C51	C	1.005217	-0.376829	0.667625
C52	C	0.959421	-0.434511	0.700453
C53	C	0.913610	-0.492217	0.662589
C54	C	0.913599	-0.492238	0.591900
C55	C	0.913652	-0.492133	0.947666
C56	C	0.913667	-0.492110	1.018359
C57	C	1.005269	-0.376724	1.023390
C58	C	1.005258	-0.376745	0.952702
C59	C	0.959445	-0.434447	0.914844
C60	C	0.959436	-0.434474	0.838194
C61	C	0.959433	-0.434490	0.777102
H62	H	0.341403	-0.539483	0.381163
H63	H	1.022965	-0.777931	0.371029
Cl64	Cl	0.875787	-1.111355	0.223575
H65	H	0.876357	-0.539131	0.916849
H66	H	0.858654	-0.949203	0.206420
H67	H	1.052830	-1.090107	0.400892
H68	H	0.865984	-0.778244	0.213793
H69	H	1.042503	-0.329886	0.570212
H70	H	1.042518	-0.329843	0.698448
H71	H	1.042552	-0.329777	0.925977
Cl72	Cl	0.711714	-0.565051	0.399159
H73	H	0.706214	-0.329801	0.233437
H74	H	0.213158	-0.539491	0.381175
Cl75	Cl	0.552171	-0.565054	0.399178
Cl76	Cl	1.062862	-0.304179	1.070989
H77	H	0.876372	-0.539083	1.045085
Cl78	Cl	1.080224	-0.898266	0.428351
H79	H	0.577968	-0.329817	0.233450
H80	H	0.876292	-0.539217	0.561076
Cl81	Cl	0.207656	-0.304256	0.215444
Cl82	Cl	0.367201	-0.304230	0.215437
H83	H	0.876320	-0.539180	0.689323
