data_functionalizedCrystal
_audit_creation_method	'MofGen! by Chris Wilmer'
_symmetry_space_group_name_H-M	'P1'
_symmetry_Int_Tables_number	1
_symmetry_cell_setting	triclinic
loop_
_symmetry_equiv_pos_as_xyz
  x,y,z
_cell_length_a	10.489741
_cell_length_b	14.044220
_cell_length_c	13.101039
_cell_angle_alpha	86.332523
_cell_angle_beta	93.389339
_cell_angle_gamma	88.864026
loop_
_atom_site_label
_atom_site_type_symbol
_atom_site_fract_x
_atom_site_fract_y
_atom_site_fract_z
O1	O	-1.714050	-0.128652	-0.085154
O2	O	-1.214050	0.371348	0.414846
O3	O	-1.344130	-0.141213	-0.085170
O4	O	-0.844130	0.358787	0.414830
O5	O	-1.523536	0.003089	-0.085152
O6	O	-1.023536	0.503089	0.414848
O7	O	-1.534643	-0.272954	-0.085172
O8	O	-1.034643	0.227046	0.414828
O9	O	-1.510666	-0.007281	0.085277
O10	O	-1.010666	0.492719	0.585277
O11	O	-1.331259	-0.151584	0.085259
O12	O	-0.831259	0.348416	0.585259
O13	O	-1.701180	-0.139023	0.085275
O14	O	-1.201180	0.360977	0.585275
Zn15	Zn	-1.514176	-0.146950	0.112326
Zn16	Zn	-1.014176	0.353050	0.612326
Zn17	Zn	-1.531133	-0.133286	-0.112221
Zn18	Zn	-1.031133	0.366714	0.387779
O19	O	-1.521773	-0.283325	0.085257
O20	O	-1.021773	0.216675	0.585257
C21	C	-1.290067	-0.145450	0.000043
C22	C	-0.790067	0.354550	0.500043
C23	C	-1.148150	-0.142611	0.000037
C24	C	-0.648150	0.357389	0.500037
C25	C	-1.512240	0.033252	0.000063
C26	C	-1.012240	0.533252	0.500063
C27	C	-1.497740	0.138576	0.000063
C28	C	-0.997740	0.638576	0.500063
C29	C	-1.755243	-0.134786	0.000060
C30	C	-1.255243	0.365214	0.500060
C31	C	-1.897160	-0.137625	0.000060
C32	C	-1.397160	0.362375	0.500060
C33	C	-1.070696	-0.050795	0.000053
C34	C	-0.570696	0.449205	0.500053
C35	C	-0.989314	-0.089055	-0.083978
C36	C	-0.489314	0.410945	0.416022
C37	C	-0.976661	-0.099302	0.084051
C38	C	-0.476661	0.400698	0.584051
C39	C	-1.068642	-0.180904	-0.084064
C40	C	-0.568642	0.319096	0.415936
C41	C	-1.055992	-0.191143	0.084041
C42	C	-0.555992	0.308857	0.584041
C43	C	-0.974646	-0.229468	-0.000011
C44	C	-0.474646	0.270532	0.499989
C45	C	-1.533069	-0.313487	0.000040
C46	C	-1.033069	0.186513	0.500040
C47	C	-1.547569	-0.418812	0.000033
C48	C	-1.047569	0.081188	0.500033
N49	N	-1.502612	-0.156275	0.265573
N50	N	-1.002612	0.343725	0.765573
C51	C	-1.471233	0.331420	0.000047
C52	C	-0.971233	0.831420	0.500047
C53	C	-1.574071	0.388351	0.000049
C54	C	-1.074071	0.888351	0.500049
C55	C	-1.559322	0.495655	0.000040
C56	C	-1.059322	0.995655	0.500040
C57	C	-1.485980	0.224105	0.000056
C58	C	-0.985980	0.724105	0.500056
N59	N	-1.542706	-0.123954	-0.265468
N60	N	-1.042706	0.376046	0.234532
C61	C	-1.486881	-0.168970	0.474614
C62	C	-0.986881	0.331030	0.974614
C63	C	-1.558434	-0.111261	0.525497
C64	C	-1.058434	0.388739	1.025497
C65	C	-1.549680	-0.118325	0.641815
C66	C	-1.049680	0.381675	1.141815
C67	C	-1.495633	-0.161908	0.358286
C68	C	-0.995633	0.338092	0.858286
H69	H	-1.112738	0.024689	-0.000047
H70	H	-0.612738	0.524689	0.499953
O71	O	-0.950093	-0.031875	-0.178071
O72	O	-0.450093	0.468125	0.321929
H73	H	-0.988696	0.042269	-0.177894
H74	H	-0.488696	0.542269	0.322106
O75	O	-1.705374	0.346181	0.000065
O76	O	-1.205374	0.846181	0.500065
H77	H	-1.711741	0.297372	0.069539
H78	H	-1.211741	0.797372	0.569539
H79	H	-1.372122	0.363266	0.000041
H80	H	-0.872122	0.863266	0.500041
O81	O	-1.095242	-0.248278	0.178145
O82	O	-0.595242	0.251722	0.678145
H83	H	-1.055096	-0.322049	0.178791
H84	H	-0.555096	0.177951	0.678791
O85	O	-1.121815	-0.226558	-0.178291
O86	O	-0.621815	0.273442	0.321709
H87	H	-1.175126	-0.291020	-0.154782
H88	H	-0.675126	0.208980	0.345218
O89	O	-0.919339	-0.329552	-0.000058
O90	O	-0.419339	0.170448	0.499942
H91	H	-0.956491	-0.363178	-0.069876
H92	H	-0.456491	0.136822	0.430124
O93	O	-0.923305	-0.053561	0.178165
O94	O	-0.423305	0.446439	0.678165
H95	H	-0.961968	0.020596	0.177985
H96	H	-0.461968	0.520596	0.677985
O97	O	-1.648292	-0.038787	0.467499
O98	O	-1.148292	0.461213	0.967499
H99	H	-1.641164	-0.044544	0.383915
H100	H	-1.141164	0.455456	0.883915
O101	O	-1.397045	-0.241450	0.532613
O102	O	-0.897045	0.258550	1.032613
H103	H	-1.404198	-0.235701	0.616194
H104	H	-0.904198	0.264299	1.116194
