data_functionalizedCrystal
_audit_creation_method	'MofGen! by Chris Wilmer'
_symmetry_space_group_name_H-M	'P1'
_symmetry_Int_Tables_number	1
_symmetry_cell_setting	triclinic
loop_
_symmetry_equiv_pos_as_xyz
  x,y,z
_cell_length_a	11.026660
_cell_length_b	15.944551
_cell_length_c	9.482900
_cell_angle_alpha	99.319756
_cell_angle_beta	78.618380
_cell_angle_gamma	96.041786
loop_
_atom_site_label
_atom_site_type_symbol
_atom_site_fract_x
_atom_site_fract_y
_atom_site_fract_z
O1	O	1.591215	0.361988	0.120922
O2	O	2.091215	0.861988	0.620922
O3	O	1.237908	0.321937	0.120920
O4	O	1.737908	0.821937	0.620920
O5	O	1.424211	0.221145	0.120908
O6	O	1.924211	0.721145	0.620908
O7	O	1.404911	0.462780	0.120934
O8	O	1.904911	0.962780	0.620934
O9	O	1.462123	0.200625	-0.120887
O10	O	1.962123	0.700625	0.379113
O11	O	1.275819	0.301417	-0.120875
O12	O	1.775819	0.801417	0.379125
O13	O	1.629126	0.341467	-0.120874
O14	O	2.129126	0.841467	0.379126
Cu15	Cu	1.455934	0.319569	-0.142952
Cu16	Cu	1.955934	0.819569	0.357048
Cu17	Cu	1.411100	0.343836	0.142999
Cu18	Cu	1.911100	0.843836	0.642999
O19	O	1.442823	0.442260	-0.120861
O20	O	1.942823	0.942260	0.379139
C21	C	1.211652	0.304289	0.000022
C22	C	1.711652	0.804289	0.500022
C23	C	1.076937	0.282263	0.000022
C24	C	1.576937	0.782263	0.500022
C25	C	0.863899	0.320324	0.000030
C26	C	1.363899	0.820324	0.500030
C27	C	1.003134	0.343091	0.000029
C28	C	1.503134	0.843091	0.500029
C29	C	1.442366	0.179470	0.000010
C30	C	1.942366	0.679470	0.500010
C31	C	1.439965	0.085861	0.000009
C32	C	1.939965	0.585861	0.500009
C33	C	1.318743	-0.147318	0.000029
C34	C	1.818743	0.352682	0.500029
C35	C	1.393725	-0.209944	-0.119191
C36	C	1.893725	0.290056	0.380809
C37	C	1.435618	-0.085521	0.000020
C38	C	1.935618	0.414479	0.500020
C39	C	1.356375	-0.189692	0.119200
C40	C	1.856375	0.310308	0.619200
C41	C	1.431410	-0.251068	0.000037
C42	C	1.931410	0.248932	0.500037
C43	C	1.510648	-0.146922	-0.119297
C44	C	2.010648	0.353078	0.380703
C45	C	1.473265	-0.126657	0.119201
C46	C	1.973265	0.373343	0.619201
C47	C	1.548337	-0.189255	-0.000048
C48	C	2.048337	0.310745	0.499952
C49	C	1.438039	0.009846	0.000009
C50	C	1.938039	0.509846	0.500009
C51	C	1.429000	-0.346433	0.000038
C52	C	1.929000	0.153567	0.500038
C53	C	1.655381	0.359116	0.000028
C54	C	2.155381	0.859116	0.500028
C55	C	1.790094	0.381143	0.000038
C56	C	2.290094	0.881143	0.500038
C57	C	1.424667	0.483935	0.000040
C58	C	1.924667	0.983935	0.500040
C59	C	1.427067	0.577545	0.000050
C60	C	1.927067	1.077545	0.500050
N61	N	1.379566	0.360899	0.344121
N62	N	1.879566	0.860899	0.844121
N63	N	1.487478	0.302501	-0.344074
N64	N	1.987478	0.802501	0.155926
C65	C	1.446640	0.324608	0.416316
C66	C	1.946640	0.824608	0.916316
C67	C	1.420394	0.338797	0.583735
C68	C	1.920394	0.838797	1.083735
H69	H	1.221750	-0.128685	-0.000091
H70	H	1.721750	0.371315	0.499909
H71	H	0.829988	0.450067	0.000036
H72	H	1.329988	0.950067	0.500036
N73	N	1.055955	0.434395	0.000027
N74	N	1.555955	0.934395	0.500027
H75	H	1.147932	0.437717	0.000024
H76	H	1.647932	0.937717	0.500024
H77	H	1.013521	0.470875	0.089667
H78	H	1.513521	0.970875	0.589667
N79	N	0.811082	0.229022	0.000028
N80	N	1.311082	0.729022	0.500028
H81	H	0.853431	0.192491	-0.089608
H82	H	1.353431	0.692491	0.410392
H83	H	0.719105	0.225771	0.000085
H84	H	1.219105	0.725771	0.500085
H85	H	1.291122	-0.208689	0.219998
H86	H	1.791122	0.291311	0.719998
H87	H	1.360095	-0.246078	-0.219981
H88	H	1.860095	0.253922	0.280019
N89	N	1.597036	-0.121906	-0.252952
N90	N	2.097036	0.378094	0.247048
H91	H	1.598093	-0.058415	-0.252157
H92	H	2.098093	0.441585	0.247843
H93	H	1.567276	-0.153105	-0.342815
H94	H	2.067276	0.346895	0.157185
H95	H	1.523499	0.283037	0.354182
H96	H	2.023499	0.783037	0.854182
H97	H	1.506852	-0.090507	0.219997
H98	H	2.006852	0.409493	0.719997
N99	N	1.676958	-0.213748	-0.000122
N100	N	2.176958	0.286252	0.499878
H101	H	1.735058	-0.198274	-0.090209
H102	H	2.235058	0.301726	0.409791
H103	H	1.674401	-0.277165	0.000788
H104	H	2.174401	0.222835	0.500788
N105	N	1.318588	0.393876	0.666017
N106	N	1.818588	0.893876	1.166017
H107	H	1.314271	0.396206	0.773952
H108	H	1.814271	0.896206	1.273952
H109	H	1.236636	0.368901	0.639485
H110	H	1.736636	0.868901	1.139485
N111	N	1.589297	0.247433	0.573647
N112	N	2.089297	0.747433	1.073647
H113	H	1.593618	0.245103	0.465711
H114	H	2.093618	0.745103	0.965711
H115	H	1.571120	0.187954	0.600148
H116	H	2.071120	0.687954	1.100148
N117	N	1.024123	0.190956	-0.000000
N118	N	1.524123	0.690956	0.500000
H119	H	0.932146	0.187631	-0.000000
H120	H	1.432146	0.687631	0.500000
H121	H	1.038451	0.169690	0.089632
H122	H	1.538451	0.669690	0.589632
N123	N	1.277765	0.415975	0.426409
N124	N	1.777765	0.915975	0.926409
H125	H	1.273448	0.418305	0.534344
H126	H	1.773448	0.918305	1.034344
H127	H	1.195813	0.391000	0.399876
H128	H	1.695813	0.891000	0.899876
