data_functionalizedCrystal
_audit_creation_method	'MofGen! by Chris Wilmer'
_symmetry_space_group_name_H-M	'P1'
_symmetry_Int_Tables_number	1
_symmetry_cell_setting	triclinic
loop_
_symmetry_equiv_pos_as_xyz
  x,y,z
_cell_length_a	15.995300
_cell_length_b	15.995292
_cell_length_c	15.072220
_cell_angle_alpha	90.002061
_cell_angle_beta	89.985917
_cell_angle_gamma	83.470212
loop_
_atom_site_label
_atom_site_type_symbol
_atom_site_fract_x
_atom_site_fract_y
_atom_site_fract_z
O1	O	1.111000	0.107723	-0.073809
O2	O	0.867216	0.121095	-0.073803
O3	O	0.995797	-0.007483	-0.073807
O4	O	0.982418	0.236301	-0.073804
O5	O	0.995765	-0.007476	0.073758
O6	O	0.867184	0.121102	0.073763
O7	O	1.110968	0.107730	0.073756
Zn8	Zn	0.989071	0.114418	0.097189
Zn9	Zn	0.989113	0.114408	-0.097235
O10	O	0.982387	0.236309	0.073761
C11	C	0.836005	0.120553	-0.000019
C12	C	0.743052	0.118918	-0.000017
C13	C	0.572870	0.115899	-0.000024
C14	C	0.525385	0.207449	-0.000021
C15	C	0.428698	0.205779	-0.000358
C16	C	0.405314	0.112927	-0.000030
C17	C	0.446474	0.067501	-0.084131
C18	C	0.543107	0.069818	-0.084199
C19	C	0.543350	0.068471	0.083616
C20	C	0.446406	0.068479	0.084719
C21	C	0.310619	0.111242	-0.000036
C22	C	0.667565	0.117580	-0.000024
C23	C	0.995237	-0.038675	-0.000027
C24	C	0.993604	-0.131627	-0.000033
C25	C	0.987603	-0.469365	-0.000025
C26	C	1.080409	-0.446069	0.000302
C27	C	1.082173	-0.349394	-0.000034
C28	C	0.990581	-0.301809	-0.000029
C29	C	0.944200	-0.330906	-0.084292
C30	C	0.943083	-0.427697	-0.084359
C31	C	0.941152	-0.427545	0.083450
C32	C	0.944591	-0.331053	0.084561
C33	C	0.992259	-0.207114	-0.000034
C34	C	0.985922	-0.564060	-0.000026
C35	C	1.142179	0.108272	-0.000029
C36	C	1.235131	0.109907	-0.000037
C37	C	0.982947	0.267500	-0.000021
C38	C	0.984579	0.360453	-0.000020
N39	N	0.989048	0.114423	0.229877
N40	N	0.989142	0.114396	-0.229924
C41	C	0.989111	0.114405	0.589079
C42	C	0.920079	0.182974	0.551474
C43	C	0.920237	0.183224	0.448649
C44	C	0.989079	0.114414	0.410875
C45	C	1.076442	0.133481	0.448164
C46	C	1.076055	0.133968	0.551022
C47	C	0.971560	0.026566	0.551179
C48	C	0.969555	0.027152	0.448315
C49	C	0.989067	0.114418	0.310162
C50	C	0.989129	0.114403	0.689792
H51	H	0.418096	0.098638	-0.146954
H52	H	1.091525	0.198027	0.575004
C53	C	1.128728	-0.483898	0.081928
H54	H	1.184587	-0.469111	0.080886
H55	H	1.130140	-0.543421	0.080810
H56	H	1.101270	-0.462489	0.134453
H57	H	0.563830	0.098615	0.147380
C58	C	0.853153	-0.287836	-0.088536
H59	H	0.826272	-0.306322	-0.139979
H60	H	0.853652	-0.228554	-0.091065
H61	H	0.823361	-0.302072	-0.037185
C62	C	1.147501	0.067817	0.415108
H63	H	1.199759	0.080532	0.438443
H64	H	1.149501	0.068999	0.352135
H65	H	1.137086	0.013404	0.434369
H66	H	0.905290	0.012682	0.423945
H67	H	0.909239	0.008228	0.577170
H68	H	1.092282	0.196810	0.422395
C69	C	0.567868	0.114042	-0.169441
H70	H	0.518890	0.130429	-0.203700
H71	H	0.605882	0.076530	-0.202996
H72	H	0.594092	0.162465	-0.154211
H73	H	0.976434	-0.310855	-0.147003
H74	H	1.016570	-0.026263	0.422605
C75	C	0.391075	0.253775	-0.082274
H76	H	0.331785	0.252924	-0.082756
H77	H	0.414609	0.227641	-0.134595
H78	H	0.403611	0.310382	-0.079999
H79	H	0.875037	-0.442235	-0.088173
C80	C	0.425708	-0.022972	0.091923
H81	H	0.451318	-0.048254	0.143688
H82	H	0.446573	-0.053671	0.041077
H83	H	0.366460	-0.023411	0.095459
H84	H	0.872839	-0.441523	0.084021
H85	H	0.544999	0.243690	-0.060239
H86	H	0.419046	0.101651	0.146938
H87	H	0.575145	0.000972	0.084424
C88	C	0.980403	-0.465714	0.169734
H89	H	0.951457	-0.439610	0.219296
H90	H	1.038026	-0.456663	0.172319
H91	H	0.975931	-0.524423	0.170820
C92	C	0.832497	0.167941	0.414584
H93	H	0.832473	0.168086	0.351552
H94	H	0.791830	0.211271	0.435724
H95	H	0.819059	0.115039	0.435453
H96	H	1.118499	-0.330373	0.060368
C97	C	0.832067	0.167896	0.584935
H98	H	0.836630	0.119653	0.622144
H99	H	0.796981	0.159152	0.535740
H100	H	0.808297	0.215584	0.617588
H101	H	0.931130	0.247791	0.577313
C102	C	0.550321	0.257160	0.081443
H103	H	0.520975	0.312230	0.080208
H104	H	0.609197	0.260675	0.080331
H105	H	0.536157	0.229244	0.134057
H106	H	1.115996	-0.475096	-0.059789
C107	C	0.586730	-0.020993	-0.089067
H108	H	0.545369	-0.059136	-0.090999
H109	H	0.621223	-0.032383	-0.038216
H110	H	0.620497	-0.027487	-0.141011
H111	H	0.432389	-0.000724	-0.087023
C112	C	1.131560	-0.324536	-0.081782
H113	H	1.150615	-0.373551	-0.114920
H114	H	1.178543	-0.297715	-0.062999
H115	H	1.095979	-0.287016	-0.117874
C116	C	0.986470	-0.463935	-0.169475
H117	H	1.004619	-0.419482	-0.203682
H118	H	0.947869	-0.491942	-0.203137
H119	H	1.033690	-0.502725	-0.154123
C120	C	0.935379	0.271278	0.415391
H121	H	0.941466	0.307034	0.464744
H122	H	0.888875	0.294036	0.380414
H123	H	0.985156	0.267090	0.380508
H124	H	0.978363	-0.312491	0.146898
C125	C	0.854278	-0.286495	0.091450
H126	H	0.843387	-0.249313	0.042605
H127	H	0.848255	-0.255430	0.145234
H128	H	0.815472	-0.327254	0.090741
C129	C	1.147528	0.069066	0.584629
H130	H	1.176676	0.042525	0.535417
H131	H	1.124514	0.027924	0.619659
H132	H	1.185499	0.096719	0.619531
C133	C	1.039555	-0.042373	0.584034
H134	H	1.028615	-0.095302	0.560910
H135	H	1.038735	-0.044279	0.647018
H136	H	1.093266	-0.030066	0.564431
C137	C	0.390213	0.253999	0.081061
H138	H	0.433666	0.274792	0.114640
H139	H	0.361920	0.217212	0.116843
H140	H	0.351322	0.299762	0.061926
