data_functionalizedCrystal
_audit_creation_method	'MofGen! by Chris Wilmer'
_symmetry_space_group_name_H-M	'P1'
_symmetry_Int_Tables_number	1
_symmetry_cell_setting	triclinic
loop_
_symmetry_equiv_pos_as_xyz
  x,y,z
_cell_length_a	17.699083
_cell_length_b	17.699092
_cell_length_c	18.366186
_cell_angle_alpha	89.995439
_cell_angle_beta	89.996982
_cell_angle_gamma	83.284691
loop_
_atom_site_label
_atom_site_type_symbol
_atom_site_fract_x
_atom_site_fract_y
_atom_site_fract_z
O1	O	1.004083	0.095712	-0.060445
O2	O	1.504083	0.595712	0.439555
O3	O	0.783705	0.108164	-0.060468
O4	O	1.283705	0.608164	0.439532
O5	O	0.900117	-0.008251	-0.060454
O6	O	1.400117	0.491749	0.439546
O7	O	0.887671	0.212127	-0.060459
O8	O	1.387671	0.712127	0.439541
O9	O	0.900098	-0.008256	0.060645
O10	O	1.400098	0.491744	0.560645
O11	O	0.783686	0.108159	0.060631
O12	O	1.283686	0.608159	0.560631
O13	O	1.004064	0.095706	0.060655
O14	O	1.504064	0.595706	0.560655
Zn15	Zn	0.893872	0.101931	0.079870
Zn16	Zn	1.393872	0.601931	0.579870
Zn17	Zn	0.893898	0.101939	-0.079684
Zn18	Zn	1.393898	0.601939	0.420316
O19	O	0.887652	0.212121	0.060640
O20	O	1.387652	0.712121	0.560640
C21	C	0.755499	0.107715	0.000078
C22	C	1.255499	0.607715	0.500078
C23	C	0.671480	0.106377	0.000069
C24	C	1.171480	0.606377	0.500069
C25	C	0.899661	-0.036450	0.000094
C26	C	1.399661	0.463550	0.500094
C27	C	0.898319	-0.120468	0.000091
C28	C	1.398319	0.379532	0.500091
C29	C	0.622862	0.174710	0.000068
C30	C	1.122862	0.674710	0.500068
C31	C	0.543918	0.173448	0.000077
C32	C	1.043918	0.673448	0.500077
C33	C	0.513595	0.103851	0.000083
C34	C	1.013595	0.603851	0.500083
C35	C	0.562220	0.035513	0.000086
C36	C	1.062220	0.535513	0.500086
C37	C	0.641162	0.036776	0.000082
C38	C	1.141162	0.536776	0.500082
C39	C	0.243857	0.030418	0.000104
C40	C	0.743857	0.530418	0.500104
C41	C	0.164909	0.029160	0.000107
C42	C	0.664909	0.529160	0.500107
C43	C	0.146613	0.167089	0.000100
C44	C	0.646613	0.667089	0.500100
C45	C	0.225555	0.168352	0.000096
C46	C	0.725555	0.668352	0.500096
C47	C	0.274173	0.100014	0.000103
C48	C	0.774173	0.600014	0.500103
C49	C	0.359772	0.101384	0.000094
C50	C	0.859772	0.601384	0.500094
C51	C	0.427998	0.102481	0.000087
C52	C	0.927998	0.602481	0.500087
C53	C	0.897702	-0.159932	-0.065921
C54	C	1.397702	0.340068	0.434079
C55	C	0.896437	-0.238875	-0.065922
C56	C	1.396437	0.261125	0.434078
C57	C	0.895795	-0.278353	0.000090
C58	C	1.395795	0.221647	0.500090
C59	C	0.896410	-0.238883	0.066107
C60	C	1.396410	0.261117	0.566107
C61	C	0.897670	-0.159941	0.066107
C62	C	1.397670	0.340059	0.566107
C63	C	0.891330	-0.557248	0.066107
C64	C	1.391330	-0.057248	0.566107
C65	C	0.890073	-0.636196	0.066102
C66	C	1.390073	-0.136196	0.566102
C67	C	0.890097	-0.636183	-0.065922
C68	C	1.390097	-0.136183	0.434078
C69	C	0.891357	-0.557240	-0.065922
C70	C	1.391357	-0.057240	0.434078
C71	C	0.891968	-0.517777	0.000095
C72	C	1.391968	-0.017777	0.500095
C73	C	0.893338	-0.432178	0.000095
C74	C	1.393338	0.067822	0.500095
C75	C	0.894430	-0.363952	0.000090
C76	C	1.394430	0.136048	0.500090
C77	C	1.032271	0.096155	0.000106
C78	C	1.532271	0.596155	0.500106
C79	C	1.116289	0.097494	0.000111
C80	C	1.616289	0.597494	0.500111
C81	C	0.888109	0.240321	0.000090
C82	C	1.388109	0.740321	0.500090
C83	C	0.889450	0.324339	0.000089
C84	C	1.389450	0.824339	0.500089
N85	N	0.893859	0.101926	0.188761
N86	N	1.393859	0.601926	0.688761
N87	N	0.893916	0.101939	-0.188575
N88	N	1.393916	0.601939	0.311425
C89	C	0.945423	0.050403	0.226868
C90	C	1.445423	0.550403	0.726868
C91	C	0.945428	0.050399	0.303095
C92	C	1.445428	0.550399	0.803095
C93	C	0.893876	0.101932	0.341214
C94	C	1.393876	0.601932	0.841214
C95	C	0.842302	0.153459	0.303098
C96	C	1.342302	0.653459	0.803098
C97	C	0.842294	0.153456	0.226872
C98	C	1.342294	0.653456	0.726872
C99	C	0.883835	0.170881	0.461972
C100	C	1.383835	0.670881	0.961972
C101	C	0.883849	0.170885	0.538197
C102	C	1.383849	0.670885	1.038197
C103	C	0.893898	0.101942	0.576321
C104	C	1.393898	0.601942	1.076321
C105	C	0.903949	0.032991	0.538211
C106	C	1.403949	0.532991	1.038211
C107	C	0.903940	0.032988	0.461985
C108	C	1.403940	0.532988	0.961985
C109	C	0.893879	0.101941	0.423868
C110	C	1.393879	0.601941	0.923868
C111	C	0.945470	0.050410	0.697083
C112	C	1.445470	0.550410	1.197083
C113	C	0.945469	0.050406	0.773312
C114	C	1.445469	0.550406	1.273312
C115	C	0.842347	0.153473	0.773313
C116	C	1.342347	0.653473	1.273313
C117	C	0.842344	0.153471	0.697085
C118	C	1.342344	0.653471	1.197085
C119	C	0.893909	0.101940	0.658975
C120	C	1.393909	0.601940	1.158975
H121	H	0.647544	0.231383	0.000063
H122	H	1.147544	0.731383	0.500063
N123	N	0.898342	-0.117380	0.137310
N124	N	1.398342	0.382620	0.637310
H125	H	0.945763	-0.090848	0.140258
H126	H	1.445763	0.409152	0.640258
H127	H	0.851932	-0.078447	0.140207
H128	H	1.351932	0.421553	0.640207
H129	H	0.504335	0.229091	0.000076
H130	H	1.004335	0.729091	0.500076
H131	H	0.875639	0.227027	0.430937
H132	H	1.375639	0.727027	0.930937
N133	N	0.914798	-0.041380	0.579313
N134	N	1.414798	0.458620	1.079313
H135	H	0.868846	-0.045825	0.610946
H136	H	1.368846	0.454175	1.110946
H137	H	0.921187	-0.085005	0.543552
H138	H	1.421187	0.414995	1.043552
H139	H	0.895883	-0.271032	0.119855
H140	H	1.395883	0.228968	0.619855
N141	N	0.889381	-0.678779	0.137304
N142	N	1.389381	-0.178779	0.637304
H143	H	0.889958	-0.641801	0.179126
H144	H	1.389958	-0.141801	0.679126
H145	H	0.841959	-0.705315	0.140168
H146	H	1.341959	-0.205315	0.640168
N147	N	1.001035	-0.005176	0.185763
N148	N	1.501035	0.494824	0.685763
H149	H	1.033701	-0.037818	0.221475
H150	H	1.533701	0.462182	0.721475
H151	H	0.972121	-0.038604	0.154146
H152	H	1.472121	0.461396	0.654146
N153	N	0.873005	0.245249	0.579296
N154	N	1.373005	0.745249	1.079296
H155	H	0.826157	0.246954	0.610931
H156	H	1.326157	0.746954	1.110931
H157	H	0.919002	0.249647	0.610872
H158	H	1.419002	0.749647	1.110872
H159	H	0.987455	0.008449	0.666052
H160	H	1.487455	0.508449	1.166052
N161	N	0.094172	0.240798	0.000123
N162	N	0.594172	0.740798	0.500123
H163	H	0.125362	0.285077	0.000122
H164	H	0.625362	0.785077	0.500122
H165	H	0.061009	0.243293	-0.044761
H166	H	0.561009	0.743293	0.455239
H167	H	0.987457	0.008446	0.804339
H168	H	1.487457	0.508446	1.304339
H169	H	0.800327	0.195417	0.334138
H170	H	1.300327	0.695417	0.834138
N171	N	0.132201	-0.045908	0.000113
N172	N	0.632201	0.454092	0.500113
H173	H	0.174979	-0.089009	0.000119
H174	H	0.674979	0.410991	0.500119
H175	H	0.099844	-0.049430	0.045007
H176	H	0.599844	0.450570	0.545007
H177	H	0.250239	0.225025	0.000088
H178	H	0.750239	0.725025	0.500088
N179	N	0.786737	0.209051	0.814415
N180	N	1.286737	0.709051	1.314415
H181	H	0.794564	0.201234	0.868487
H182	H	1.294564	0.701234	1.368487
H183	H	0.795376	0.262733	0.801085
H184	H	1.295376	0.762733	1.301085
N185	N	0.786726	0.209047	0.655986
N186	N	1.286726	0.709047	1.155986
H187	H	0.795343	0.262755	0.669243
H188	H	1.295343	0.762755	1.169243
H189	H	0.794567	0.201162	0.601926
H190	H	1.294567	0.701162	1.101926
N191	N	0.892000	-0.514694	0.137309
N192	N	1.392000	-0.014694	0.637309
H193	H	0.939421	-0.488161	0.140256
H194	H	1.439421	0.011839	0.640256
H195	H	0.845590	-0.475761	0.140209
H196	H	1.345590	0.024239	0.640209
N197	N	0.889444	-0.678751	-0.137128
N198	N	1.389444	-0.178751	0.362872
H199	H	0.890053	-0.641763	-0.178944
H200	H	1.390053	-0.141763	0.321056
H201	H	0.935829	-0.717719	-0.139984
H202	H	1.435829	-0.217719	0.360016
H203	H	0.283433	-0.025227	0.000111
H204	H	0.783433	0.474773	0.500111
N205	N	1.001044	-0.005176	0.344209
N206	N	1.501044	0.494824	0.844209
H207	H	1.033707	-0.037821	0.308499
H208	H	1.533707	0.462179	0.808499
H209	H	1.034447	0.023765	0.375826
H210	H	1.534447	0.523765	0.875826
N211	N	0.529525	-0.039556	0.000089
N212	N	1.029525	0.460444	0.500089
H213	H	0.547264	-0.069488	0.044981
H214	H	1.047264	0.430512	0.544981
H215	H	0.472143	-0.029931	0.000061
H216	H	0.972143	0.470069	0.500061
H217	H	0.680748	-0.018868	0.000083
H218	H	1.180748	0.481132	0.500083
H219	H	0.898229	-0.127796	-0.119676
H220	H	1.398229	0.372204	0.380324
N221	N	0.914778	-0.041372	0.420879
N222	N	1.414778	0.458628	0.920879
H223	H	0.921146	-0.085051	0.456592
H224	H	1.421146	0.414949	0.956592
H225	H	0.868804	-0.045733	0.389261
H226	H	1.368804	0.454267	0.889261
H227	H	0.895937	-0.271004	-0.119676
H228	H	1.395937	0.228996	0.380324
H229	H	0.891883	-0.525102	-0.119676
H230	H	1.391883	-0.025102	0.380324
N231	N	0.786674	0.209027	0.185765
N232	N	1.286674	0.709027	0.685765
H233	H	0.754012	0.241672	0.221477
H234	H	1.254012	0.741672	0.721477
H235	H	0.815580	0.242452	0.154131
H236	H	1.315580	0.742452	0.654131
