data_functionalizedCrystal
_audit_creation_method	'MofGen! by Chris Wilmer'
_symmetry_space_group_name_H-M	'P1'
_symmetry_Int_Tables_number	1
_symmetry_cell_setting	triclinic
loop_
_symmetry_equiv_pos_as_xyz
  x,y,z
_cell_length_a	16.992695
_cell_length_b	17.699083
_cell_length_c	16.776229
_cell_angle_alpha	89.995692
_cell_angle_beta	90.003864
_cell_angle_gamma	93.024381
loop_
_atom_site_label
_atom_site_type_symbol
_atom_site_fract_x
_atom_site_fract_y
_atom_site_fract_z
O1	O	1.040087	-0.160466	0.066259
O2	O	1.540087	0.339534	0.566259
O3	O	0.811805	-0.158705	0.066268
O4	O	1.311805	0.341295	0.566268
O5	O	0.932396	-0.049798	0.066256
O6	O	1.432396	0.450202	0.566256
O7	O	0.919497	-0.269373	0.066271
O8	O	1.419497	0.230627	0.566271
O9	O	0.932382	-0.049797	-0.066320
O10	O	1.432382	0.450203	0.433680
O11	O	0.811792	-0.158704	-0.066309
O12	O	1.311792	0.341296	0.433691
O13	O	1.040074	-0.160465	-0.066317
O14	O	1.540074	0.339535	0.433683
Zn15	Zn	0.925930	-0.159584	-0.087362
Zn16	Zn	1.425930	0.340416	0.412638
Zn17	Zn	0.925948	-0.159586	0.087313
Zn18	Zn	1.425948	0.340414	0.587313
O19	O	0.919483	-0.269372	-0.066306
O20	O	1.419483	0.230628	0.433694
C21	C	0.782590	-0.156440	-0.000019
C22	C	1.282590	0.343560	0.499981
C23	C	0.695559	-0.149683	-0.000016
C24	C	1.195559	0.350317	0.499984
C25	C	1.069289	-0.162730	-0.000028
C26	C	1.569289	0.337270	0.499972
C27	C	1.156320	-0.169487	-0.000026
C28	C	1.656320	0.330513	0.499974
C29	C	0.931927	-0.021572	-0.000032
C30	C	1.431927	0.478428	0.499968
C31	C	0.930540	0.062533	-0.000032
C32	C	1.430540	0.562533	0.499968
C33	C	1.206685	-0.104290	-0.000028
C34	C	1.706685	0.395710	0.499972
C35	C	1.288459	-0.110643	-0.000030
C36	C	1.788459	0.389357	0.499970
C37	C	1.319867	-0.182195	-0.000025
C38	C	1.819867	0.317805	0.499975
C39	C	1.269496	-0.247398	-0.000026
C40	C	1.769496	0.252602	0.499974
C41	C	1.187723	-0.241043	-0.000029
C42	C	1.687723	0.258957	0.499971
C43	C	1.563415	-0.208531	-0.000020
C44	C	2.063415	0.291469	0.499980
C45	C	1.645194	-0.214881	-0.000015
C46	C	2.145194	0.285119	0.499985
C47	C	1.664152	-0.078125	-0.000020
C48	C	2.164152	0.421875	0.499980
C49	C	1.582376	-0.071777	-0.000019
C50	C	2.082376	0.428223	0.499981
C51	C	1.532012	-0.136980	-0.000024
C52	C	2.032012	0.363020	0.499976
N53	N	1.403454	-0.188691	-0.000025
N54	N	1.903454	0.311309	0.499975
N55	N	1.448427	-0.130483	-0.000030
N56	N	1.948427	0.369517	0.499970
C57	C	0.919952	-0.297598	-0.000016
C58	C	1.419952	0.202402	0.499984
C59	C	0.921339	-0.381703	-0.000010
C60	C	1.421339	0.118297	0.499990
N61	N	0.925924	-0.159583	-0.206574
N62	N	1.425924	0.340417	0.293426
C63	C	1.001324	0.106747	-0.000036
C64	C	1.501324	0.606747	0.499964
C65	C	1.000017	0.185771	-0.000029
C66	C	1.500017	0.685771	0.499971
C67	C	0.927924	0.220581	-0.000024
C68	C	1.427924	0.720581	0.499976
C69	C	0.857135	0.176361	-0.000018
C70	C	1.357135	0.676361	0.499982
C71	C	0.858443	0.097338	-0.000019
C72	C	1.358443	0.597338	0.499981
C73	C	0.851857	0.495053	-0.000011
C74	C	1.351857	0.995053	0.499989
C75	C	0.850554	0.574082	-0.000012
C76	C	1.350554	1.074082	0.499988
C77	C	0.993430	0.583486	-0.000021
C78	C	1.493430	1.083486	0.499979
C79	C	0.994739	0.504463	-0.000022
C80	C	1.494739	1.004463	0.499978
C81	C	0.923950	0.460250	-0.000012
C82	C	1.423950	0.960250	0.499988
C83	C	0.925368	0.374563	-0.000018
C84	C	1.425368	0.874563	0.499982
C85	C	0.926505	0.306267	-0.000023
C86	C	1.426505	0.806267	0.499977
C87	C	0.973382	-0.208387	-0.248286
C88	C	1.473382	0.291613	0.251714
C89	C	0.973391	-0.208384	-0.331738
C90	C	1.473391	0.291616	0.168262
C91	C	0.925937	-0.159582	-0.373476
C92	C	1.425937	0.340418	0.126524
C93	C	0.878477	-0.110773	-0.331758
C94	C	1.378477	0.389227	0.168242
C95	C	0.878473	-0.110772	-0.248308
C96	C	1.378473	0.389228	0.251692
C97	C	0.878492	-0.110775	-0.668306
C98	C	1.378492	0.389225	-0.168306
C99	C	0.878498	-0.110781	-0.751762
C100	C	1.378498	0.389219	-0.251762
C101	C	0.973411	-0.208387	-0.751736
C102	C	1.473411	0.291613	-0.251736
C103	C	0.973407	-0.208386	-0.668285
C104	C	1.473407	0.291614	-0.168285
C105	C	0.925950	-0.159575	-0.626574
C106	C	1.425950	0.340425	-0.126574
C107	C	0.925942	-0.159577	-0.536086
C108	C	1.425942	0.340423	-0.036086
C109	C	0.925940	-0.159583	-0.463963
C110	C	1.425940	0.340417	0.036037
N111	N	0.925961	-0.159581	0.206524
N112	N	1.425961	0.340419	0.706524
H113	H	1.181119	-0.046024	-0.000027
H114	H	1.681119	0.453976	0.499973
H115	H	1.522418	-0.261624	-0.000020
H116	H	2.022418	0.238376	0.499980
H117	H	0.791844	0.602420	-0.000009
H118	H	1.291844	1.102420	0.499991
Cl119	Cl	0.769453	0.041754	-0.000011
Cl120	Cl	1.269453	0.541754	0.499989
Cl121	Cl	0.762864	0.439481	0.000004
Cl122	Cl	1.262864	0.939481	0.500004
Cl123	Cl	1.124407	-0.323010	-0.000033
Cl124	Cl	1.624407	0.176990	0.499967
Cl125	Cl	1.308981	-0.337349	-0.000021
Cl126	Cl	1.808981	0.162651	0.499979
H127	H	1.329463	-0.057552	-0.000035
H128	H	1.829463	0.442448	0.499965
H129	H	1.670763	-0.273150	-0.000022
H130	H	2.170763	0.226850	0.499978
Cl131	Cl	1.033074	-0.269749	-0.804178
Cl132	Cl	1.533074	0.230251	-0.304178
Cl133	Cl	1.091960	0.062995	-0.000051
Cl134	Cl	1.591960	0.562995	0.499949
Cl135	Cl	0.818838	-0.049424	-0.804232
Cl136	Cl	1.318838	0.450576	-0.304232
H137	H	0.839827	-0.071031	-0.214347
H138	H	1.339827	0.428969	0.285653
H139	H	0.798436	0.204709	-0.000009
H140	H	1.298436	0.704709	0.499991
H141	H	1.012020	-0.248132	-0.214308
H142	H	1.512020	0.251868	0.285692
H143	H	1.012037	-0.248124	-0.365697
H144	H	1.512037	0.251876	0.134303
H145	H	1.012046	-0.248129	-0.634306
H146	H	1.512046	0.251871	-0.134306
Cl147	Cl	0.818801	-0.049440	-0.615880
Cl148	Cl	1.318801	0.450560	-0.115880
H149	H	0.839843	-0.071034	-0.365748
H150	H	1.339843	0.428966	0.134252
Cl151	Cl	1.542898	0.018177	0.000004
Cl152	Cl	2.042898	0.518177	0.500004
Cl153	Cl	1.089007	0.241352	-0.000036
Cl154	Cl	1.589007	0.741352	0.499964
H155	H	1.705166	-0.025041	-0.000017
H156	H	2.205166	0.474959	0.499983
Cl157	Cl	1.085373	0.460707	-0.000026
Cl158	Cl	1.585373	0.960707	0.499974
H159	H	1.051070	0.619494	-0.000025
H160	H	1.551070	1.119494	0.499975
