data_functionalizedCrystal
_audit_creation_method	'MofGen! by Chris Wilmer'
_symmetry_space_group_name_H-M	'P1'
_symmetry_Int_Tables_number	1
_symmetry_cell_setting	triclinic
loop_
_symmetry_equiv_pos_as_xyz
  x,y,z
_cell_length_a	12.759401
_cell_length_b	12.759393
_cell_length_c	12.759400
_cell_angle_alpha	89.969548
_cell_angle_beta	89.986894
_cell_angle_gamma	90.020112
loop_
_atom_site_label
_atom_site_type_symbol
_atom_site_fract_x
_atom_site_fract_y
_atom_site_fract_z
Zn1	Zn	-1.606267	-0.593997	-0.418257
Zn2	Zn	-1.106267	-0.093997	0.081743
Zn3	Zn	-1.606159	-0.418317	-0.593972
Zn4	Zn	-1.106159	0.081683	-0.093972
Zn5	Zn	-1.430566	-0.418335	-0.418303
Zn6	Zn	-0.930566	0.081665	0.081697
Zn7	Zn	-1.430558	-0.593957	-0.593890
Zn8	Zn	-0.930558	-0.093957	-0.093890
O9	O	-1.518388	-0.506152	-0.506105
O10	O	-1.018388	-0.006152	-0.006105
O11	O	-1.753274	-0.570702	-0.441581
O12	O	-1.253274	-0.070702	0.058419
O13	O	-1.582824	-0.271299	-0.570723
O14	O	-1.082824	0.228701	-0.070723
O15	O	-1.453922	-0.441661	-0.271276
O16	O	-0.953922	0.058339	0.228724
O17	O	-1.753194	-0.441631	-0.570678
O18	O	-1.253194	0.058369	-0.070678
O19	O	-1.583009	-0.570719	-0.271242
O20	O	-1.083009	-0.070719	0.228758
O21	O	-1.453817	-0.271311	-0.441660
O22	O	-0.953817	0.228689	0.058340
O23	O	-1.283544	-0.441622	-0.441580
O24	O	-0.783544	0.058378	0.058420
O25	O	-1.453909	-0.740984	-0.570537
O26	O	-0.953909	-0.240984	-0.070537
O27	O	-1.283538	-0.570651	-0.570583
O28	O	-0.783538	-0.070651	-0.070583
O29	O	-1.583001	-0.741013	-0.441501
O30	O	-1.083001	-0.241013	0.058499
O31	O	-1.582816	-0.441592	-0.740982
O32	O	-1.082816	0.058408	-0.240982
O33	O	-1.453803	-0.570634	-0.740922
O34	O	-0.953803	-0.070634	-0.240922
C35	C	-1.245420	-0.506135	-0.506078
C36	C	-0.745420	-0.006135	-0.006078
C37	C	-1.128644	-0.506153	-0.506092
C38	C	-0.628644	-0.006153	-0.006092
C39	C	-0.964075	-0.573238	-0.573377
C40	C	-0.464075	-0.073238	-0.073377
C41	C	-1.073799	-0.573228	-0.573368
C42	C	-0.573799	-0.073228	-0.073368
C43	C	-1.073758	-0.439075	-0.438827
C44	C	-0.573758	0.060925	0.061173
C45	C	-0.964036	-0.439080	-0.438842
C46	C	-0.464036	0.060920	0.061158
C47	C	-1.518326	-0.506130	-0.779073
C48	C	-1.018326	-0.006130	-0.279073
C49	C	-1.518395	-0.506156	-0.895849
C50	C	-1.018395	-0.006156	-0.395849
C51	C	-1.518466	-0.780185	-0.506005
C52	C	-1.018466	-0.280185	-0.006005
C53	C	-1.518500	-0.896962	-0.505962
C54	C	-1.018500	-0.396962	-0.005962
C55	C	-0.792421	-0.506167	-0.506126
C56	C	-0.292421	-0.006167	-0.006126
C57	C	-0.909197	-0.506168	-0.506115
C58	C	-0.409197	-0.006168	-0.006115
C59	C	-1.585723	-0.951841	-0.438761
C60	C	-1.085723	-0.451841	0.061239
C61	C	-1.585741	-1.061565	-0.438716
C62	C	-1.085741	-0.561565	0.061284
C63	C	-1.451309	-1.061522	-0.573080
C64	C	-0.951309	-0.561522	-0.073080
C65	C	-1.451287	-0.951799	-0.573119
C66	C	-0.951287	-0.451799	-0.073119
C67	C	-1.518370	-0.233184	-0.506130
C68	C	-1.018370	0.266816	-0.006130
C69	C	-1.518540	-0.116408	-0.505877
C70	C	-1.018540	0.383592	-0.005877
C71	C	-1.585711	-0.439072	-1.060439
C72	C	-1.085711	0.060928	-0.560439
C73	C	-1.585648	-0.439039	-0.950715
C74	C	-1.085648	0.060961	-0.450715
C75	C	-1.451194	-0.573303	-0.950713
C76	C	-0.951194	-0.073303	-0.450713
C77	C	-1.451252	-0.573330	-1.060435
C78	C	-0.951252	-0.073330	-0.560435
C79	C	-1.518478	-0.506197	-0.232072
C80	C	-1.018478	-0.006197	0.267928
C81	C	-1.518517	-0.506216	-0.115295
C82	C	-1.018517	-0.006216	0.384705
H83	H	-1.640450	-0.907195	-0.384074
H84	H	-1.140450	-0.407195	0.115926
H85	H	-1.396430	-0.627947	-0.906035
H86	H	-0.896430	-0.127947	-0.406035
H87	H	-0.919429	-0.627864	-0.628155
H88	H	-0.419429	-0.127864	-0.128155
N89	N	-1.132990	-0.645562	-0.645920
N90	N	-0.632990	-0.145562	-0.145920
H91	H	-1.081597	-0.688058	-0.688537
H92	H	-0.581597	-0.188058	-0.188537
H93	H	-1.178543	-0.694253	-0.603209
H94	H	-0.678543	-0.194253	-0.103209
H95	H	-1.640362	-0.384363	-0.906054
H96	H	-1.140362	0.115637	-0.406054
H97	H	-1.396530	-0.628009	-1.105101
H98	H	-0.896530	-0.128009	-0.605101
H99	H	-1.396538	-0.907116	-0.627841
H100	H	-0.896538	-0.407116	-0.127841
H101	H	-1.118421	-0.384456	-0.384054
H102	H	-0.618421	0.115544	0.115946
H103	H	-1.640479	-1.106243	-0.383993
H104	H	-1.140479	-0.606243	0.116007
H105	H	-1.396589	-1.106184	-0.627760
H106	H	-0.896589	-0.606184	-0.127760
H107	H	-0.919354	-0.384459	-0.384067
H108	H	-0.419354	0.115541	0.115933
H109	H	-1.640482	-0.384422	-1.105103
H110	H	-1.140482	0.115578	-0.605103
