data_functionalizedCrystal
_audit_creation_method	'MofGen! by Chris Wilmer'
_symmetry_space_group_name_H-M	'P1'
_symmetry_Int_Tables_number	1
_symmetry_cell_setting	triclinic
loop_
_symmetry_equiv_pos_as_xyz
  x,y,z
_cell_length_a	10.654541
_cell_length_b	17.699083
_cell_length_c	16.776229
_cell_angle_alpha	90.007545
_cell_angle_beta	89.993154
_cell_angle_gamma	96.116529
loop_
_atom_site_label
_atom_site_type_symbol
_atom_site_fract_x
_atom_site_fract_y
_atom_site_fract_z
O1	O	1.665988	-0.106296	-0.066285
O2	O	1.300331	-0.116425	-0.066288
O3	O	1.493490	-0.001237	-0.066280
O4	O	1.472829	-0.221484	-0.066294
O5	O	1.493465	-0.001230	0.066297
O6	O	1.300306	-0.116418	0.066288
O7	O	1.665962	-0.106288	0.066291
Zn8	Zn	1.483130	-0.111352	0.087339
Zn9	Zn	1.483164	-0.111362	-0.087336
O10	O	1.472803	-0.221477	0.066283
C11	C	1.492737	0.026968	0.000009
C12	C	1.490516	0.111001	0.000009
C13	C	1.253534	-0.115678	-0.000000
C14	C	1.114129	-0.113454	-0.000001
C15	C	1.712760	-0.107035	0.000001
C16	C	1.852165	-0.109260	-0.000003
C17	C	1.882547	0.028479	-0.000004
C18	C	1.963228	0.096301	-0.000008
C19	C	2.094209	0.094206	-0.000011
C20	C	2.144511	0.024283	-0.000007
C21	C	2.063829	-0.043538	-0.000003
C22	C	1.932846	-0.041436	-0.000002
C23	C	2.033448	-0.181276	0.000004
C24	C	1.902466	-0.179183	0.000001
C25	C	2.083749	-0.251199	0.000008
C26	C	2.003067	-0.319022	0.000007
C27	C	1.872078	-0.316925	0.000009
C28	C	1.821784	-0.247004	0.000006
C29	C	1.473556	-0.249682	-0.000007
C30	C	1.475777	-0.333714	-0.000013
N31	N	1.483116	-0.111345	0.206550
C32	C	1.603896	0.158901	0.000011
C33	C	1.601802	0.237858	0.000004
C34	C	1.486326	0.268912	0.000001
C35	C	1.372937	0.221005	-0.000004
C36	C	1.375033	0.142050	-0.000002
C37	C	1.364483	0.539422	-0.000010
C38	C	1.362396	0.618383	-0.000009
C39	C	1.591252	0.635230	-0.000004
C40	C	1.593348	0.556275	-0.000003
C41	C	1.479960	0.508375	-0.000011
C42	C	1.482232	0.422761	-0.000005
C43	C	1.484052	0.354524	0.000000
N44	N	1.483187	-0.111363	-0.206547
C45	C	1.568673	-0.060361	0.248271
C46	C	1.568680	-0.060360	0.331723
C47	C	1.483135	-0.111348	0.373453
C48	C	1.397569	-0.162335	0.331727
C49	C	1.397557	-0.162331	0.248276
C50	C	1.397615	-0.162350	0.668274
C51	C	1.397636	-0.162351	0.751730
C52	C	1.568737	-0.060379	0.751721
C53	C	1.568725	-0.060376	0.668271
C54	C	1.483156	-0.111359	0.626551
C55	C	1.483147	-0.111358	0.536063
C56	C	1.483148	-0.111353	0.463940
H57	H	1.775896	0.030192	-0.000010
Cl58	Cl	1.676274	0.003723	0.615813
Cl59	Cl	1.289990	-0.226426	0.195828
Cl60	Cl	1.733800	0.695452	0.000004
Cl61	Cl	1.657123	-0.244362	0.000005
H62	H	1.638409	-0.018863	0.785698
H63	H	1.327911	-0.203848	0.365708
H64	H	1.268356	0.643664	-0.000010
H65	H	1.638346	-0.018845	0.365692
H66	H	1.922258	0.153231	-0.000000
H67	H	1.282707	0.103050	-0.000004
H68	H	2.044034	-0.375948	0.000015
H69	H	1.272155	0.500431	-0.000017
H70	H	1.638338	-0.018844	0.214300
H71	H	2.159901	0.149433	-0.000013
H72	H	1.327970	-0.203873	0.785705
H73	H	2.251164	0.022584	-0.000000
Cl74	Cl	1.749075	0.119870	0.000023
Cl75	Cl	1.744344	0.298073	0.000009
H76	H	2.190402	-0.252900	0.000010
Cl77	Cl	1.290050	-0.226445	0.615832
H78	H	1.806393	-0.372154	0.000018
H79	H	1.278915	0.246296	-0.000012
Cl80	Cl	1.738523	0.517240	-0.000001
