data_functionalizedCrystal
_audit_creation_method	'MofGen! by Chris Wilmer'
_symmetry_space_group_name_H-M	'P1'
_symmetry_Int_Tables_number	1
_symmetry_cell_setting	triclinic
loop_
_symmetry_equiv_pos_as_xyz
  x,y,z
_cell_length_a	10.489741
_cell_length_b	10.489767
_cell_length_c	16.053802
_cell_angle_alpha	87.422641
_cell_angle_beta	87.395203
_cell_angle_gamma	95.455168
loop_
_atom_site_label
_atom_site_type_symbol
_atom_site_fract_x
_atom_site_fract_y
_atom_site_fract_z
O1	O	1.699401	-0.174646	-0.069407
O2	O	1.328209	-0.191538	-0.069423
O3	O	1.522230	0.002501	-0.069378
O4	O	1.505380	-0.368685	-0.069452
O5	O	1.511550	-0.008135	0.069479
O6	O	1.317529	-0.202174	0.069433
O7	O	1.688722	-0.185282	0.069449
Zn8	Zn	1.501429	-0.195417	0.091488
Zn9	Zn	1.515501	-0.181403	-0.091461
O10	O	1.494700	-0.379321	0.069404
C11	C	1.275337	-0.195580	0.000004
C12	C	1.133707	-0.191762	-0.000000
N13	N	1.491836	-0.204980	0.216346
C14	C	1.515609	0.044713	0.000058
C15	C	1.511776	0.186339	0.000081
C16	C	1.065553	-0.068302	0.000032
C17	C	0.978698	-0.121379	-0.068441
C18	C	0.968203	-0.131895	0.068460
C19	C	1.048723	-0.244887	-0.068530
C20	C	1.038232	-0.255390	0.068433
C21	C	0.951406	-0.308556	-0.000057
C22	C	1.741593	-0.181240	0.000021
C23	C	1.883223	-0.185057	0.000019
C24	C	1.386039	0.339195	0.000092
C25	C	1.454169	0.267048	-0.068381
C26	C	1.443669	0.256603	0.068521
C27	C	1.573146	0.366542	-0.068425
C28	C	1.562623	0.356098	0.068538
C29	C	1.630841	0.284001	0.000049
C30	C	1.501298	0.578461	0.000008
C31	C	1.505061	0.436819	0.000104
N32	N	1.525105	-0.171830	-0.216320
C33	C	1.574423	-0.122446	0.260059
C34	C	1.567724	-0.129148	0.347464
C35	C	1.478443	-0.218390	0.391155
C36	C	1.395847	-0.300928	0.347435
C37	C	1.402541	-0.294219	0.260032
C38	C	1.449203	-0.247659	0.652558
C39	C	1.442517	-0.254364	0.739967
C40	C	1.614394	-0.082582	0.739990
C41	C	1.621085	-0.075886	0.652585
C42	C	1.538484	-0.158419	0.608873
N43	N	1.471596	-0.225245	0.480497
N44	N	1.545326	-0.151557	0.519533
H45	H	1.115237	0.033198	-0.000033
Br46	Br	0.909139	-0.052183	0.164948
Br47	Br	0.934420	-0.026929	-0.164899
H48	H	0.901997	-0.410154	-0.000115
H49	H	1.627813	0.414260	-0.126361
H50	H	1.634972	-0.061942	0.383055
H51	H	1.734426	0.259530	0.000011
Br52	Br	1.352470	0.176799	0.164974
Br53	Br	1.274667	-0.422036	0.406726
Br54	Br	1.107532	-0.324493	-0.165127
Br55	Br	1.082572	-0.349781	0.164892
H56	H	1.408376	0.228007	-0.126271
H57	H	1.647130	-0.049781	0.224492
Br58	Br	1.290444	-0.406226	0.200707
Br59	Br	1.638876	0.421213	0.165030
Br60	Br	1.213538	0.380410	-0.000016
H61	H	1.693784	-0.003218	0.617014
H62	H	1.369810	-0.327041	0.775536
H63	H	1.681642	-0.015386	0.775588
Br64	Br	1.337108	-0.359666	0.593239
