data_functionalizedCrystal
_audit_creation_method	'MofGen! by Chris Wilmer'
_symmetry_space_group_name_H-M	'P1'
_symmetry_Int_Tables_number	1
_symmetry_cell_setting	triclinic
loop_
_symmetry_equiv_pos_as_xyz
  x,y,z
_cell_length_a	12.759394
_cell_length_b	12.759395
_cell_length_c	16.959447
_cell_angle_alpha	89.986775
_cell_angle_beta	90.028316
_cell_angle_gamma	89.987686
loop_
_atom_site_label
_atom_site_type_symbol
_atom_site_fract_x
_atom_site_fract_y
_atom_site_fract_z
Zn1	Zn	-0.418317	-1.606190	0.446897
Zn2	Zn	-0.594023	-1.606103	0.314723
Zn3	Zn	-0.418351	-1.430511	0.314737
Zn4	Zn	-0.593946	-1.430481	0.446864
O5	O	-0.506159	-1.518321	0.380805
O6	O	-0.441642	-1.753200	0.429371
O7	O	-0.570767	-1.582787	0.204114
O8	O	-0.271325	-1.453865	0.332287
O9	O	-0.570733	-1.753136	0.332264
O10	O	-0.271300	-1.582936	0.429385
O11	O	-0.441701	-1.453781	0.204124
O12	O	-0.441626	-1.283486	0.332256
O13	O	-0.570602	-1.453812	0.557479
O14	O	-0.570636	-1.283464	0.429329
O15	O	-0.441568	-1.582906	0.557503
O16	O	-0.741034	-1.582757	0.332232
O17	O	-0.740978	-1.453728	0.429315
C18	C	-0.506127	-1.245354	0.380791
C19	C	-0.506139	-1.128577	0.380803
C20	C	-0.371934	-1.128624	0.482085
C21	C	-0.304841	-1.073787	0.532731
C22	C	-0.304856	-0.964066	0.532739
C23	C	-0.371967	-0.909179	0.482094
C24	C	-0.439059	-0.964016	0.431448
C25	C	-0.439040	-1.073740	0.431447
C26	C	-0.573257	-0.963969	0.330163
C27	C	-0.573250	-1.073690	0.330158
C28	C	-0.640368	-0.909082	0.279518
C29	C	-0.707467	-0.963919	0.228875
C30	C	-0.707451	-1.073647	0.228869
C31	C	-0.640342	-1.128528	0.279512
C32	C	-0.779127	-1.518258	0.380786
C33	C	-0.895903	-1.518328	0.380804
C34	C	-0.895909	-1.652787	0.279787
C35	C	-0.950773	-1.720044	0.229287
C36	C	-1.060494	-1.720105	0.229309
C37	C	-1.115355	-1.652905	0.279837
C38	C	-1.060491	-1.585648	0.330336
C39	C	-0.950767	-1.585591	0.330307
C40	C	-1.060486	-1.451196	0.431356
C41	C	-0.950764	-1.451127	0.431332
C42	C	-1.115346	-1.383995	0.481884
C43	C	-1.060483	-1.316731	0.532381
C44	C	-0.950754	-1.316672	0.532357
C45	C	-0.895901	-1.383870	0.481831
C46	C	-0.232126	-1.518413	0.380841
C47	C	-0.115349	-1.518453	0.380857
C48	C	-0.506072	-1.518365	0.586973
C49	C	-0.506035	-1.518384	0.674830
C50	C	-0.506182	-0.792355	0.380816
C51	C	-0.506165	-0.909132	0.380810
C52	C	-0.506170	-1.518338	0.175439
C53	C	-0.505911	-1.518523	0.087582
C54	C	-0.573107	-1.451296	1.046296
C55	C	-0.438742	-1.585722	1.046316
C56	C	-0.438764	-1.585694	0.963770
C57	C	-0.505960	-1.518467	0.922483
C58	C	-0.573133	-1.451268	0.963742
C59	C	-0.371600	-1.652900	0.922505
C60	C	-0.371620	-1.652875	0.839954
C61	C	-0.438811	-1.585642	0.798665
C62	C	-0.505987	-1.518440	0.839929
C63	C	-0.573182	-1.451213	0.798642
C64	C	-0.640353	-1.384004	0.839905
C65	C	-0.640324	-1.384035	0.922454
C66	C	-0.438840	-1.585611	0.716117
C67	C	-0.573209	-1.451185	0.716089
H68	H	-0.762099	-0.919221	0.187640
F69	F	-0.644724	-1.379626	0.672155
F70	F	-0.778858	-1.132001	0.174960
H71	H	-0.371911	-1.217966	0.482080
H72	H	-0.250199	-1.118488	0.573964
F73	F	-0.367239	-1.657273	1.090258
F74	F	-0.779125	-1.384051	0.481981
H75	H	-0.640372	-0.819741	0.279526
H76	H	-0.906090	-1.261907	0.573482
F77	F	-0.300098	-1.724449	0.966449
F78	F	-0.300130	-1.724401	0.796046
F79	F	-0.640323	-1.245303	0.279514
F80	F	-0.233443	-0.905702	0.586638
H81	H	-0.806568	-1.652730	0.279754
H82	H	-0.627793	-1.396574	1.079895
H83	H	-1.105159	-1.262027	0.573520
F84	F	-0.371967	-0.792403	0.482096
H85	H	-0.695068	-1.329273	0.806279
F86	F	-0.892379	-1.791564	0.175518
H87	H	-0.384153	-1.640334	0.682524
H88	H	-0.695014	-1.329321	0.956057
H89	H	-1.105164	-1.774877	0.188192
F90	F	-1.232121	-1.383715	0.481644
F91	F	-1.232129	-1.652626	0.279595
