data_functionalizedCrystal
_audit_creation_method	'MofGen! by Chris Wilmer'
_symmetry_space_group_name_H-M	'P1'
_symmetry_Int_Tables_number	1
_symmetry_cell_setting	triclinic
loop_
_symmetry_equiv_pos_as_xyz
  x,y,z
_cell_length_a	11.792241
_cell_length_b	17.038272
_cell_length_c	10.268362
_cell_angle_alpha	89.994496
_cell_angle_beta	89.999626
_cell_angle_gamma	87.652486
loop_
_atom_site_label
_atom_site_type_symbol
_atom_site_fract_x
_atom_site_fract_y
_atom_site_fract_z
O1	O	1.516303	0.107207	-0.108175
O2	O	1.186930	0.118256	-0.108205
O3	O	1.349659	-0.001093	-0.108180
O4	O	1.353574	0.226556	-0.108200
O5	O	1.349643	-0.001098	0.108421
O6	O	1.186914	0.118251	0.108396
O7	O	1.516287	0.107202	0.108426
Cu8	Cu	1.351600	0.112726	0.128188
Cu9	Cu	1.351618	0.112732	-0.127967
O10	O	1.353558	0.226551	0.108401
C11	C	1.144571	0.117559	0.000092
C12	C	1.018375	0.115482	0.000080
C13	C	0.787328	0.111662	0.000118
C14	C	0.915899	0.113785	0.000097
C15	C	1.346090	-0.030239	0.000120
C16	C	1.335466	-0.117079	0.000119
C17	C	1.433006	-0.166762	0.000129
C18	C	1.423017	-0.248357	0.000116
C19	C	1.315487	-0.280267	0.000102
C20	C	1.217940	-0.230577	0.000087
C21	C	1.227930	-0.148984	0.000091
C22	C	1.280194	-0.526181	0.000081
C23	C	1.270211	-0.607780	0.000080
C24	C	1.475289	-0.625554	0.000107
C25	C	1.485270	-0.543958	0.000118
C26	C	1.387723	-0.494276	0.000097
C27	C	1.305274	-0.363669	0.000092
C28	C	1.397937	-0.410875	0.000097
C29	C	1.558647	0.107899	0.000127
C30	C	1.684843	0.109976	0.000130
C31	C	1.357127	0.255697	0.000098
C32	C	1.367751	0.342537	0.000091
N33	N	1.351595	0.112721	0.308354
N34	N	1.351631	0.112730	-0.308133
C35	C	1.351612	0.112730	0.574025
C36	C	1.351599	0.112728	0.426187
H37	H	1.502445	-0.288806	0.000127
N38	N	1.601258	-0.509557	0.000105
H39	H	1.609974	-0.476099	-0.080192
H40	H	1.609916	-0.476144	0.080449
H41	H	1.200764	-0.485738	0.000064
N42	N	1.101959	-0.264990	0.000063
H43	H	1.110429	-0.324218	0.000067
H44	H	1.058923	-0.246849	0.080355
H45	H	1.554706	-0.666014	0.000121
H46	H	1.148503	-0.108532	0.000083
N47	N	1.154228	-0.642200	0.000063
H48	H	1.093947	-0.598346	0.000046
H49	H	1.145634	-0.675664	-0.080234
N50	N	1.513914	-0.376464	0.000124
H51	H	1.522641	-0.342999	-0.080163
H52	H	1.522531	-0.343053	0.080478
H53	H	1.217723	-0.389660	0.000083
H54	H	1.520568	-0.140788	0.000149
