data_functionalizedCrystal
_audit_creation_method	'MofGen! by Chris Wilmer'
_symmetry_space_group_name_H-M	'P1'
_symmetry_Int_Tables_number	1
_symmetry_cell_setting	triclinic
loop_
_symmetry_equiv_pos_as_xyz
  x,y,z
_cell_length_a	10.654558
_cell_length_b	10.540539
_cell_length_c	9.730223
_cell_angle_alpha	90.000775
_cell_angle_beta	90.000400
_cell_angle_gamma	84.506904
loop_
_atom_site_label
_atom_site_type_symbol
_atom_site_fract_x
_atom_site_fract_y
_atom_site_fract_z
O1	O	1.667891	0.178345	-0.114264
O2	O	1.302419	0.195322	-0.114270
O3	O	1.493493	0.002124	-0.114265
O4	O	1.476817	0.371543	-0.114269
O5	O	1.493491	0.002129	0.114315
O6	O	1.302417	0.195327	0.114310
O7	O	1.667888	0.178350	0.114316
Zn8	Zn	1.485152	0.186839	0.150605
Zn9	Zn	1.485155	0.186833	-0.150559
O10	O	1.476815	0.371548	0.114311
C11	C	1.255620	0.194076	0.000019
C12	C	1.116176	0.190340	0.000017
C13	C	0.919637	0.185085	-0.124583
C14	C	1.050661	0.188584	-0.124584
C15	C	1.050662	0.188583	0.124626
C16	C	0.919642	0.185075	0.124626
C17	C	0.854127	0.183343	-0.249191
C18	C	0.919632	0.185097	-0.373802
C19	C	1.050656	0.188596	-0.373803
C20	C	1.116175	0.190341	-0.249194
C21	C	1.492241	-0.045176	0.000022
C22	C	1.488500	-0.186123	0.000015
C23	C	1.345129	-0.369502	-0.000500
C24	C	1.348922	-0.222885	0.000014
C25	C	1.555670	-0.247800	0.130547
C26	C	1.550906	-0.394343	0.130656
C27	C	1.553747	-0.394867	-0.129282
C28	C	1.555033	-0.247886	-0.131007
C29	C	1.714688	0.179597	0.000024
C30	C	1.854132	0.183333	0.000018
C31	C	1.478067	0.418848	0.000021
C32	C	1.481808	0.559795	0.000019
N33	N	1.485160	0.186843	0.356141
N34	N	1.485158	0.186819	-0.356095
C35	C	1.569789	0.101324	0.428070
C36	C	1.569786	0.101309	0.571953
C37	C	1.400520	0.272342	0.571966
C38	C	1.400518	0.272350	0.428086
C39	C	1.654431	0.015817	0.356125
C40	C	1.739068	-0.069707	0.428053
C41	C	1.739065	-0.069723	0.571936
C42	C	1.654424	0.015786	0.643891
H43	H	1.222864	0.193183	-0.249205
H44	H	1.103988	0.190013	-0.475267
H45	H	1.807973	-0.139333	0.369461
O46	O	1.309249	0.364592	0.350490
H47	H	1.250407	0.424064	0.424687
H48	H	0.866303	0.183671	0.226087
H49	H	1.501263	-0.422524	0.228230
O50	O	1.121317	0.190485	0.259021
H51	H	1.223427	0.193235	0.238088
H52	H	1.290216	-0.399690	0.092580
H53	H	0.747440	0.180498	-0.249204
O54	O	1.654425	0.015768	0.799081
H55	H	1.581355	0.089594	0.837026
O56	O	0.848977	0.183215	-0.508199
H57	H	0.746862	0.180501	-0.487269
O58	O	1.309260	0.364594	0.649565
H59	H	1.211207	0.347508	0.621968
H60	H	1.296069	-0.180267	-0.093556
H61	H	1.289993	-0.398086	-0.094107
O62	O	1.830353	-0.161951	0.649524
H63	H	1.889215	-0.221393	0.575320
H64	H	1.295697	-0.181110	0.093738
H65	H	1.651289	-0.442344	0.136580
O66	O	1.691443	-0.218228	0.137006
H67	H	1.712536	-0.159112	0.047037
O68	O	1.654440	0.015828	0.200938
H69	H	1.581376	0.089666	0.163007
O70	O	1.493874	-0.191351	0.259221
H71	H	1.393089	-0.209950	0.260512
O72	O	1.493913	-0.436628	-0.260341
H73	H	1.412223	-0.490170	-0.234776
O74	O	1.490035	-0.193645	-0.258932
H75	H	1.410678	-0.122986	-0.229336
H76	H	1.656796	-0.223698	-0.138888
O77	O	1.687288	-0.457470	-0.130465
H78	H	1.702410	-0.520577	-0.039463
