data_functionalizedCrystal
_audit_creation_method	'MofGen! by Chris Wilmer'
_symmetry_space_group_name_H-M	'P1'
_symmetry_Int_Tables_number	1
_symmetry_cell_setting	triclinic
loop_
_symmetry_equiv_pos_as_xyz
  x,y,z
_cell_length_a	16.992694
_cell_length_b	15.455341
_cell_length_c	16.992695
_cell_angle_alpha	92.817188
_cell_angle_beta	89.331777
_cell_angle_gamma	87.171364
loop_
_atom_site_label
_atom_site_type_symbol
_atom_site_fract_x
_atom_site_fract_y
_atom_site_fract_z
O1	O	-1.047581	-0.072023	0.163653
O2	O	-0.547581	0.427977	0.663653
O3	O	-0.819180	-0.072048	0.161821
O4	O	-0.319180	0.427952	0.661821
O5	O	-0.932465	-0.072029	0.048537
O6	O	-0.432465	0.427971	0.548537
O7	O	-0.934296	-0.072042	0.276937
O8	O	-0.434296	0.427958	0.776937
O9	O	-0.939003	0.072233	0.055070
O10	O	-0.439003	0.572233	0.555070
O11	O	-0.825718	0.072213	0.168353
O12	O	-0.325718	0.572213	0.668353
O13	O	-1.054119	0.072239	0.170185
O14	O	-0.554119	0.572239	0.670185
Cu15	Cu	-0.940515	0.085398	0.169866
Cu16	Cu	-0.440515	0.585398	0.669866
Cu17	Cu	-0.932784	-0.085208	0.162141
Cu18	Cu	-0.432784	0.414792	0.662141
O19	O	-0.940834	0.072219	0.283469
O20	O	-0.440834	0.572219	0.783469
C21	C	-0.793089	0.000079	0.162731
C22	C	-0.293089	0.500079	0.662731
C23	C	-0.705604	0.000070	0.155702
C24	C	-0.205604	0.500070	0.655702
C25	C	-0.933379	0.000102	0.022443
C26	C	-0.433379	0.500102	0.522443
C27	C	-0.926350	0.000101	-0.065041
C28	C	-0.426350	0.500101	0.434959
N29	N	-0.945959	0.205393	0.175299
N30	N	-0.445959	0.705393	0.675299
C31	C	-1.080210	0.000109	0.169275
C32	C	-0.580210	0.500109	0.669275
C33	C	-1.167695	0.000113	0.176304
C34	C	-0.667695	0.500113	0.676304
C35	C	-0.659613	0.000066	0.223520
C36	C	-0.159613	0.500066	0.723520
C37	C	-0.577412	0.000079	0.216911
C38	C	-0.077412	0.500079	0.716911
C39	C	-0.541205	0.000088	0.142484
C40	C	-0.041205	0.500088	0.642484
C41	C	-0.587202	0.000094	0.074661
C42	C	-0.087202	0.500094	0.574661
C43	C	-0.669401	0.000088	0.081271
C44	C	-0.169401	0.500088	0.581271
C45	C	-0.295891	0.000113	0.115091
C46	C	0.204109	0.500113	0.615091
C47	C	-0.213686	0.000116	0.108486
C48	C	0.286314	0.500116	0.608486
C49	C	-0.203903	0.000103	0.250737
C50	C	0.296097	0.500103	0.750737
C51	C	-0.286103	0.000091	0.257340
C52	C	0.213897	0.500091	0.757340
C53	C	-0.332093	0.000102	0.189517
C54	C	0.167907	0.500102	0.689517
N55	N	-0.457183	0.000098	0.135727
N56	N	0.042817	0.500098	0.635727
N57	N	-0.416114	0.000098	0.196275
N58	N	0.083886	0.500098	0.696275
N59	N	-0.927346	-0.205203	0.156701
N60	N	-0.427346	0.294797	0.656701
C61	C	-0.976020	0.749399	0.205408
C62	C	-0.476020	1.249399	0.705408
C63	C	-0.971907	0.658591	0.201293
C64	C	-0.471907	1.158591	0.701293
C65	C	-0.919123	0.613184	0.148468
C66	C	-0.419123	1.113184	0.648468
C67	C	-0.870443	0.658588	0.099760
C68	C	-0.370443	1.158588	0.599760
C69	C	-0.874553	0.749394	0.103879
C70	C	-0.374553	1.249394	0.603879
C71	C	-0.901389	0.341604	0.130710
C72	C	-0.401389	0.841604	0.630710
C73	C	-0.897285	0.250791	0.126593
C74	C	-0.397285	0.750791	0.626593
C75	C	-0.998748	0.250801	0.228128
C76	C	-0.498748	0.750801	0.728128
C77	C	-1.002856	0.341609	0.232239
C78	C	-0.502856	0.841609	0.732239
C79	C	-0.954174	0.387005	0.183533
C80	C	-0.454174	0.887005	0.683533
N81	N	-0.914920	0.520364	0.144260
N82	N	-0.414920	1.020364	0.644260
N83	N	-0.958374	0.479823	0.187746
N84	N	-0.458374	0.979823	0.687746
C85	C	-0.994168	0.000109	-0.111032
C86	C	-0.494168	0.500109	0.388968
C87	C	-0.987559	0.000100	-0.193233
C88	C	-0.487559	0.500100	0.306767
C89	C	-0.913131	0.000089	-0.229442
C90	C	-0.413131	0.500089	0.270558
C91	C	-0.845307	0.000078	-0.183445
C92	C	-0.345307	0.500078	0.316555
C93	C	-0.851917	0.000081	-0.101246
C94	C	-0.351917	0.500081	0.398754
C95	C	-0.885735	0.000074	-0.474757
C96	C	-0.385735	0.500074	0.025243
C97	C	-0.879131	0.000074	-0.556962
C98	C	-0.379131	0.500074	-0.056962
C99	C	-1.021383	0.000094	-0.566744
C100	C	-0.521383	0.500094	-0.066744
C101	C	-1.027987	0.000102	-0.484543
C102	C	-0.527987	0.500102	0.015457
C103	C	-0.960163	0.000087	-0.438554
C104	C	-0.460163	0.500087	0.061446
N105	N	-0.906373	0.000082	-0.313464
N106	N	-0.406373	0.500082	0.186536
N107	N	-0.966921	0.000087	-0.354533
N108	N	-0.466921	0.500087	0.145467
C109	C	-0.939921	0.000087	0.309563
C110	C	-0.439921	0.500087	0.809563
C111	C	-0.946949	0.000082	0.397047
C112	C	-0.446949	0.500082	0.897047
H113	H	-0.689087	0.000058	0.284126
H114	H	-0.189087	0.500058	0.784126
Br115	Br	-1.047665	0.811015	0.277096
Br116	Br	-0.547665	1.311015	0.777096
Br117	Br	-0.514998	0.000071	0.308954
Br118	Br	-0.014998	0.500071	0.808954
H119	H	-1.038381	0.213830	0.267782
H120	H	-0.538381	0.713830	0.767782
Br121	Br	-0.825673	0.189166	0.054868
Br122	Br	-0.325673	0.689166	0.554868
Br123	Br	-0.335236	0.000069	0.358351
Br124	Br	0.164764	0.500069	0.858351
Br125	Br	-1.128999	0.000090	-0.435409
Br126	Br	-0.628999	0.500090	0.064591
Br127	Br	-0.141484	0.000089	0.342777
Br128	Br	0.358516	0.500089	0.842777
H129	H	-1.011544	0.621632	0.240954
H130	H	-0.511544	1.121632	0.740954
H131	H	-0.184209	0.000123	0.047876
H132	H	0.315791	0.500123	0.547876
Br133	Br	-0.358297	0.000129	0.023045
Br134	Br	0.141703	0.500129	0.523045
H135	H	-1.045840	0.378574	0.275253
H136	H	-0.545840	0.878574	0.775253
Br137	Br	-0.835318	0.403202	0.064610
Br138	Br	-0.335318	0.903202	0.564610
H139	H	-0.557715	0.000114	0.014061
H140	H	-0.057715	0.500114	0.514061
H141	H	-1.054776	0.000124	-0.081557
H142	H	-0.554776	0.500124	0.418443
Br143	Br	-1.079602	0.000111	-0.255646
Br144	Br	-0.579602	0.500111	0.244354
H145	H	-0.827462	0.621610	0.056752
H146	H	-0.327462	1.121610	0.556752
Br147	Br	-0.744295	0.000048	-0.232586
Br148	Br	-0.244295	0.500048	0.267414
Br149	Br	-0.778115	0.000067	-0.606102
Br150	Br	-0.278115	0.500067	-0.106102
H151	H	-0.796692	0.000073	-0.063801
H152	H	-0.296692	0.500073	0.436199
H153	H	-0.834915	0.786356	0.064218
H154	H	-0.334915	1.286356	0.564218
H155	H	-0.830508	0.000061	-0.437322
H156	H	-0.330508	0.500061	0.062678
H157	H	-0.706846	0.000090	0.026046
H158	H	-0.206846	0.500090	0.526046
H159	H	-1.076601	0.000106	-0.604197
H160	H	-0.576601	0.500106	-0.104197
