data_functionalizedCrystal
_audit_creation_method	'MofGen! by Chris Wilmer'
_symmetry_space_group_name_H-M	'P1'
_symmetry_Int_Tables_number	1
_symmetry_cell_setting	triclinic
loop_
_symmetry_equiv_pos_as_xyz
  x,y,z
_cell_length_a	10.489716
_cell_length_b	17.038272
_cell_length_c	9.565339
_cell_angle_alpha	90.000028
_cell_angle_beta	90.003220
_cell_angle_gamma	87.820346
loop_
_atom_site_label
_atom_site_type_symbol
_atom_site_fract_x
_atom_site_fract_y
_atom_site_fract_z
O1	O	1.704386	0.110278	0.116250
O2	O	1.334157	0.120658	0.116256
O3	O	1.517071	0.001640	0.116242
O4	O	1.521472	0.229296	0.116264
O5	O	1.517056	0.001647	-0.116278
O6	O	1.334142	0.120665	-0.116264
O7	O	1.704371	0.110285	-0.116270
Zn8	Zn	1.519254	0.115476	-0.153185
Zn9	Zn	1.519274	0.115467	0.153171
O10	O	1.521457	0.229303	-0.116256
C11	C	1.286545	0.119882	-0.000004
C12	C	1.144695	0.117548	-0.000002
C13	C	1.053848	0.190534	0.000009
C14	C	0.972888	0.151971	-0.114646
C15	C	0.972907	0.151946	0.114601
C16	C	1.065603	0.079016	-0.114751
C17	C	1.065629	0.079002	0.114599
C18	C	0.984712	0.040385	-0.000084
C19	C	1.513061	-0.027508	-0.000018
C20	C	1.501119	-0.114369	-0.000017
C21	C	1.610758	-0.163854	-0.000020
C22	C	1.599530	-0.245469	-0.000007
C23	C	1.478662	-0.277597	-0.000000
C24	C	1.369015	-0.228106	0.000007
C25	C	1.380244	-0.146492	0.000004
C26	C	1.438991	-0.523583	0.000019
C27	C	1.427770	-0.605203	0.000019
C28	C	1.658286	-0.622560	0.000008
C29	C	1.669505	-0.540945	-0.000004
C30	C	1.559858	-0.491460	0.000010
C31	C	1.467182	-0.361021	0.000009
C32	C	1.571339	-0.408038	0.000011
C33	C	1.751984	0.111061	-0.000007
C34	C	1.893833	0.113395	0.000000
C35	C	1.525467	0.258451	0.000007
C36	C	1.537409	0.345312	0.000016
N37	N	1.519251	0.115483	-0.362264
C38	C	1.434630	0.170506	-0.453461
C39	C	1.551608	0.186329	-0.546640
C40	C	1.402323	0.099666	-0.546640
C41	C	1.636291	0.131342	-0.453391
C42	C	1.486927	0.044647	-0.453384
C43	C	1.603985	0.060440	-0.546520
N44	N	1.519287	0.115454	0.362250
H45	H	1.106033	0.048226	-0.211778
O46	O	1.349844	-0.392326	0.000189
C47	C	1.203380	-0.474366	0.120693
C48	C	1.336311	-0.438976	0.120643
H49	H	1.192385	-0.512077	0.218084
H50	H	1.192343	-0.512197	0.023452
H51	H	1.126957	-0.424971	0.120617
H52	H	1.412814	-0.488321	0.120768
H53	H	1.347238	-0.401125	0.217875
H54	H	1.688810	-0.285757	-0.000012
H55	H	1.578973	0.246222	-0.587601
O56	O	1.689369	0.004921	-0.595208
C57	C	1.784644	-0.057812	-0.797556
C58	C	1.687880	0.005074	-0.742604
H59	H	1.783492	-0.057698	-0.916732
H60	H	1.757929	-0.118054	-0.757647
H61	H	1.884226	-0.044200	-0.758956
H62	H	1.588265	-0.008464	-0.781182
H63	H	1.714705	0.065296	-0.782502
O64	O	1.728074	-0.132519	-0.000087
C65	C	1.847541	-0.014487	-0.000005
C66	C	1.714601	-0.049866	0.000031
H67	H	1.836693	0.052343	0.000120
H68	H	1.902191	-0.034759	-0.097336
H69	H	1.902165	-0.034861	0.097283
H70	H	1.659871	-0.029508	-0.097191
H71	H	1.660048	-0.029597	0.097426
O72	O	0.924218	0.188674	-0.230221
C73	C	0.735163	0.227015	-0.360200
C74	C	0.790112	0.185400	-0.229285
H75	H	0.626731	0.224396	-0.359472
H76	H	0.774697	0.196542	-0.457964
H77	H	0.763391	0.290970	-0.360035
H78	H	0.761905	0.121443	-0.229315
H79	H	0.750582	0.215934	-0.131581
O80	O	0.948526	-0.035419	-0.000412
C81	C	0.955098	-0.159513	-0.121539
C82	C	0.996145	-0.073681	-0.121351
H83	H	0.993603	-0.190478	-0.219293
H84	H	0.846520	-0.160810	-0.120709
H85	H	0.994860	-0.190809	-0.024684
H86	H	0.956472	-0.042334	-0.218189
H87	H	1.104728	-0.072441	-0.122108
H88	H	1.735219	0.144779	-0.412603
H89	H	1.363142	0.217081	-0.412600
O90	O	1.454022	-0.026751	-0.404530
C91	C	1.293535	-0.124154	-0.396601
C92	C	1.330644	-0.043279	-0.451997
H93	H	1.193794	-0.137549	-0.434980
H94	H	1.294669	-0.123632	-0.277427
H95	H	1.364725	-0.171183	-0.436467
H96	H	1.259490	0.003795	-0.412234
H97	H	1.329550	-0.043867	-0.571169
H98	H	1.270602	-0.254271	0.000021
O99	O	1.114048	0.042389	0.230372
C100	C	1.121620	0.039462	0.482105
C101	C	1.066710	0.081000	0.351096
H102	H	1.083349	0.070652	0.579744
H103	H	1.230154	0.041149	0.480530
H104	H	1.091939	-0.024211	0.483023
H105	H	1.096295	0.144688	0.350093
H106	H	0.958185	0.079249	0.352722
H107	H	1.290965	-0.106202	0.000006
O108	O	0.924640	0.188817	0.230200
C109	C	0.904706	0.309604	0.360779
C110	C	0.959453	0.267936	0.229826
H111	H	0.932808	0.373583	0.360505
H112	H	0.944407	0.279180	0.458516
H113	H	0.796283	0.306906	0.360215
H114	H	1.067874	0.270622	0.230254
H115	H	0.919653	0.298372	0.132148
O116	O	1.787014	-0.509867	0.000047
C117	C	2.014469	-0.535699	-0.000071
C118	C	1.881469	-0.570998	-0.000081
H119	H	2.090871	-0.585107	-0.000204
H120	H	2.025590	-0.497948	0.097254
H121	H	2.025402	-0.497901	-0.097365
H122	H	1.870444	-0.608832	0.097147
H123	H	1.870408	-0.608705	-0.097470
H124	H	1.747554	-0.662859	-0.000002
H125	H	1.084456	0.254021	-0.000092
H126	H	1.329340	-0.631358	0.000001
H127	H	1.349708	-0.483302	0.000031
H128	H	1.669749	-0.381876	0.000037
H129	H	1.303424	0.086300	-0.587604
