data_functionalizedCrystal
_audit_creation_method	'MofGen! by Chris Wilmer'
_symmetry_space_group_name_H-M	'P1'
_symmetry_Int_Tables_number	1
_symmetry_cell_setting	triclinic
loop_
_symmetry_equiv_pos_as_xyz
  x,y,z
_cell_length_a	8.559649
_cell_length_b	17.038272
_cell_length_c	7.088929
_cell_angle_alpha	83.325468
_cell_angle_beta	95.325015
_cell_angle_gamma	80.445110
loop_
_atom_site_label
_atom_site_type_symbol
_atom_site_fract_x
_atom_site_fract_y
_atom_site_fract_z
O1	O	2.101368	-0.017362	-0.158956
O2	O	1.641608	0.022690	-0.158968
O3	O	1.868757	-0.110988	-0.158947
O4	O	1.874219	0.116317	-0.158977
O5	O	1.899108	-0.128889	0.159031
O6	O	1.671959	0.004789	0.159010
O7	O	2.131720	-0.035263	0.159022
Cu8	Cu	1.904611	-0.016871	0.188050
Cu9	Cu	1.868717	0.004298	-0.187996
O10	O	1.904570	0.098416	0.159001
C11	C	1.597666	0.016775	0.000020
C12	C	1.421514	0.025810	0.000016
C13	C	1.878962	-0.148769	0.000042
C14	C	1.864133	-0.234674	0.000041
C15	C	2.000285	-0.292946	0.000046
C16	C	1.986340	-0.373660	0.000028
C17	C	1.836242	-0.396101	0.000018
C18	C	1.700079	-0.337821	0.000006
C19	C	1.714024	-0.257108	0.000011
C20	C	1.786975	-0.638906	-0.000010
C21	C	1.773041	-0.719626	-0.000009
C22	C	2.059303	-0.755459	0.000009
C23	C	2.073236	-0.674743	0.000025
C24	C	1.937072	-0.616470	0.000004
C25	C	1.821985	-0.478604	0.000005
C26	C	1.951329	-0.533968	0.000003
C27	C	2.175661	-0.029347	0.000030
C28	C	2.351812	-0.038381	0.000022
C29	C	1.894365	0.136197	0.000008
C30	C	1.909193	0.222102	-0.000003
N31	N	1.929868	-0.031762	0.452540
N32	N	1.843471	0.019182	-0.452486
H33	H	2.097211	-0.421103	0.000036
O34	O	1.441523	-0.112138	-0.000222
C35	C	1.522069	-0.112018	-0.164928
H36	H	1.533397	-0.047850	-0.219841
H37	H	1.645990	-0.150384	-0.127885
H38	H	1.451953	-0.137725	-0.280242
O39	O	1.331711	0.099563	0.000083
C40	C	1.169918	0.092475	0.000024
H41	H	1.161193	0.028532	0.060233
H42	H	1.109782	0.136318	0.092328
H43	H	1.107950	0.106845	-0.152531
O44	O	2.036602	-0.094839	0.549742
C45	C	1.995534	-0.167303	0.501022
H46	H	1.920662	-0.155390	0.355647
H47	H	2.108742	-0.212316	0.494361
H48	H	1.923994	-0.192799	0.613659
O49	O	2.191653	-0.811977	-0.000245
C50	C	2.266384	-0.793886	-0.164953
H51	H	2.230567	-0.727095	-0.219850
H52	H	2.401334	-0.809601	-0.127919
H53	H	2.227686	-0.830332	-0.280275
O54	O	1.736439	0.082134	0.450323
C55	C	1.582412	0.076278	0.499086
H56	H	1.592249	0.038259	0.644477
H57	H	1.513070	0.138901	0.505735
H58	H	1.517366	0.046941	0.386482
H59	H	1.650810	-0.737894	0.000014
H60	H	2.122512	-0.274683	0.000066
O61	O	2.218935	-0.652838	-0.000232
C62	C	2.219865	-0.597963	-0.164937
H63	H	2.092447	-0.567218	-0.219843
H64	H	2.293789	-0.550877	-0.127895
H65	H	2.274111	-0.631418	-0.280255
O66	O	1.676119	-0.500349	-0.000333
C67	C	1.576712	-0.460437	-0.164988
H68	H	1.653296	-0.442239	-0.280090
H69	H	1.497358	-0.502281	-0.220275
H70	H	1.499100	-0.404517	-0.127746
H71	H	1.676099	-0.591468	-0.000027
H72	H	1.577864	-0.356098	-0.000014
H73	H	1.603153	-0.209662	0.000006
O74	O	2.097019	-0.512060	-0.000242
C75	C	2.097942	-0.457184	-0.164947
H76	H	1.970520	-0.426450	-0.219867
H77	H	2.171842	-0.410089	-0.127899
H78	H	2.152212	-0.490636	-0.280256
