data_functionalizedCrystal
_audit_creation_method	'MofGen! by Chris Wilmer'
_symmetry_space_group_name_H-M	'P1'
_symmetry_Int_Tables_number	1
_symmetry_cell_setting	triclinic
loop_
_symmetry_equiv_pos_as_xyz
  x,y,z
_cell_length_a	19.077236
_cell_length_b	13.897448
_cell_length_c	19.077174
_cell_angle_alpha	92.273651
_cell_angle_beta	85.294282
_cell_angle_gamma	92.310527
loop_
_atom_site_label
_atom_site_type_symbol
_atom_site_fract_x
_atom_site_fract_y
_atom_site_fract_z
Zn1	Zn	1.093769	-0.348269	-0.441979
Zn2	Zn	1.593769	0.151731	0.058021
Zn3	Zn	1.088968	-0.503351	-0.324093
Zn4	Zn	1.588968	-0.003351	0.175907
Zn5	Zn	0.971150	-0.348284	-0.319362
Zn6	Zn	1.471150	0.151716	0.180638
Zn7	Zn	0.975859	-0.515739	-0.437198
Zn8	Zn	1.475859	-0.015739	0.062802
O9	O	1.032436	-0.428911	-0.380658
O10	O	1.532436	0.071089	0.119342
O11	O	1.191785	-0.363651	-0.430322
O12	O	1.691785	0.136349	0.069678
O13	O	1.069359	-0.477602	-0.224815
O14	O	1.569359	0.022398	0.275185
O15	O	0.987455	-0.213300	-0.335648
O16	O	1.487455	0.286700	0.164352
O17	O	1.188257	-0.477588	-0.343712
O18	O	1.688257	0.022412	0.156288
O19	O	1.077542	-0.213289	-0.425734
O20	O	1.577542	0.286711	0.074266
O21	O	0.982799	-0.363676	-0.221339
O22	O	1.482799	0.136324	0.278661
O23	O	0.873122	-0.375688	-0.331012
O24	O	1.373122	0.124312	0.168988
O25	O	0.995480	-0.498703	-0.536483
O26	O	1.495480	0.001297	-0.036483
O27	O	0.876582	-0.498717	-0.417586
O28	O	1.376582	0.001283	0.082414
O29	O	1.082108	-0.375663	-0.539995
O30	O	1.582108	0.124337	-0.039995
O31	O	1.073925	-0.639977	-0.339076
O32	O	1.573925	-0.139977	0.160924
O33	O	0.990824	-0.649079	-0.422174
O34	O	1.490824	-0.149079	0.077826
C35	C	0.849273	-0.438549	-0.373267
C36	C	1.349273	0.061451	0.126733
C37	C	0.770915	-0.442697	-0.370122
C38	C	1.270915	0.057303	0.129878
C39	C	0.735943	-0.385425	-0.413807
C40	C	1.235943	0.114575	0.086193
C41	C	0.662317	-0.389317	-0.410845
C42	C	1.162317	0.110683	0.089155
C43	C	0.623665	-0.450486	-0.364203
C44	C	1.123665	0.049514	0.135797
C45	C	0.658643	-0.507760	-0.320513
C46	C	1.158643	-0.007760	0.179487
C47	C	0.732267	-0.503862	-0.323472
C48	C	1.232267	-0.003862	0.176528
C49	C	0.403275	-0.468489	-0.350509
C50	C	0.903275	0.031511	0.149491
C51	C	0.329646	-0.472384	-0.347556
C52	C	0.829646	0.027616	0.152444
C53	C	0.333325	-0.353940	-0.437887
C54	C	0.833325	0.146060	0.062113
C55	C	0.406951	-0.350052	-0.440844
C56	C	0.906951	0.149948	0.059156
C57	C	0.441922	-0.407322	-0.397152
C58	C	0.941922	0.092678	0.102848
N59	N	0.548408	-0.454468	-0.361176
N60	N	1.048408	0.045532	0.138824
N61	N	0.517178	-0.403334	-0.400176
N62	N	1.017178	0.096666	0.099824
C63	C	1.032384	-0.679527	-0.380636
C64	C	1.532384	-0.179527	0.119364
C65	C	1.032427	-0.786739	-0.380652
C66	C	1.532427	-0.286739	0.119348
C67	C	1.032503	-0.983033	-0.380699
C68	C	1.532503	-0.483033	0.119301
C69	C	1.032459	-0.873801	-0.380675
C70	C	1.532459	-0.373801	0.119325
C71	C	1.216316	-0.419236	-0.388078
C72	C	1.716316	0.080764	0.111922
C73	C	1.294674	-0.415113	-0.391240
C74	C	1.794674	0.084887	0.108760
C75	C	1.039855	-0.438563	-0.564533
C76	C	1.539855	0.061437	-0.064533
C77	C	1.043016	-0.442676	-0.642889
C78	C	1.543016	0.057324	-0.142889
C79	C	1.032509	-0.177316	-0.380697
C80	C	1.532509	0.322684	0.119303
C81	C	1.032540	-0.070101	-0.380713
C82	C	1.532540	0.429899	0.119287
C83	C	0.999436	-0.385294	-0.677891
C84	C	1.499436	0.114706	-0.177891
C85	C	1.002404	-0.389167	-0.751515
C86	C	1.502404	0.110833	-0.251515
C87	C	1.048956	-0.450418	-0.790137
C88	C	1.548956	0.049582	-0.290137
C89	C	1.092537	-0.507806	-0.755130
C90	C	1.592537	-0.007806	-0.255130
C91	C	1.089566	-0.503938	-0.681507
C92	C	1.589566	-0.003938	-0.181507
C93	C	1.062673	-0.468353	-1.010520
C94	C	1.562673	0.031647	-0.510520
C95	C	1.065643	-0.472215	-1.084148
C96	C	1.565643	0.027785	-0.584148
C97	C	0.975508	-0.353576	-1.080528
C98	C	1.475508	0.146424	-0.580528
C99	C	0.972543	-0.349709	-1.006904
C100	C	1.472543	0.150291	-0.506904
C101	C	1.016122	-0.407101	-0.971904
C102	C	1.516122	0.092899	-0.471904
N103	N	1.051992	-0.454376	-0.865392
N104	N	1.551992	0.045624	-0.365392
N105	N	1.013082	-0.403148	-0.896649
N106	N	1.513082	0.096852	-0.396649
C107	C	1.025087	-0.419225	-0.197500
C108	C	1.525087	0.080775	0.302500
C109	C	1.022063	-0.414833	-0.119150
C110	C	1.522063	0.085167	0.380850
H111	H	0.633846	-0.342683	-0.446419
H112	H	1.133846	0.157317	0.053581
O113	O	1.136576	-0.565818	-0.643749
O114	O	1.636576	-0.065818	-0.143749
H115	H	1.169452	-0.609050	-0.682973
H116	H	1.669452	-0.109050	-0.182973
H117	H	0.760740	-0.550498	-0.287899
H118	H	1.260740	-0.050498	0.212101
O119	O	0.440990	-0.530261	-0.303391
O120	O	0.940990	-0.030261	0.196609
H121	H	0.473079	-0.483354	-0.268922
H122	H	0.973079	0.016646	0.231078
O123	O	1.115854	-0.538286	-1.125802
O124	O	1.615854	-0.038286	-0.625802
H125	H	1.110603	-0.531322	-1.182877
H126	H	1.610603	-0.031322	-0.682877
O127	O	0.295607	-0.292167	-0.485006
O128	O	0.795607	0.207833	0.014994
H129	H	0.309269	-0.215062	-0.473581
H130	H	0.809269	0.284938	0.026419
H131	H	0.767408	-0.335618	-0.451790
H132	H	1.267408	0.164382	0.048210
O133	O	0.287953	-0.538355	-0.297242
O134	O	0.787953	-0.038355	0.202758
H135	H	0.324638	-0.577517	-0.267351
H136	H	0.824638	-0.077517	0.232649
O137	O	0.448640	-0.284062	-0.491141
O138	O	0.948640	0.215938	0.008859
H139	H	0.411951	-0.244880	-0.521014
H140	H	0.911951	0.255120	-0.021014
H141	H	1.098150	-0.515096	-0.982031
H142	H	1.598150	-0.015096	-0.482031
O143	O	0.922343	-0.283626	-0.965257
O144	O	1.422343	0.216374	-0.465257
H145	H	0.867574	-0.303810	-0.977144
H146	H	1.367574	0.196190	-0.477144
O147	O	0.928506	-0.291683	-1.118283
O148	O	1.428506	0.208317	-0.618283
H149	H	0.895641	-0.248438	-1.079058
H150	H	1.395641	0.251562	-0.579058
H151	H	0.966914	-0.342444	-0.780010
H152	H	1.466914	0.157556	-0.280010
H153	H	0.627167	-0.557560	-0.282533
H154	H	1.127167	-0.057560	0.217467
O155	O	0.949230	-0.319226	-0.636236
O156	O	1.449230	0.180774	-0.136236
H157	H	0.919422	-0.279981	-0.672947
H158	H	1.419422	0.220019	-0.172947
H159	H	1.130437	-0.557683	-0.786581
H160	H	1.630437	-0.057683	-0.286581
