data_functionalizedCrystal
_audit_creation_method	'MofGen! by Chris Wilmer'
_symmetry_space_group_name_H-M	'P1'
_symmetry_Int_Tables_number	1
_symmetry_cell_setting	triclinic
loop_
_symmetry_equiv_pos_as_xyz
  x,y,z
_cell_length_a	19.288840
_cell_length_b	10.654551
_cell_length_c	17.766277
_cell_angle_alpha	89.996514
_cell_angle_beta	89.983415
_cell_angle_gamma	83.805689
loop_
_atom_site_label
_atom_site_type_symbol
_atom_site_fract_x
_atom_site_fract_y
_atom_site_fract_z
O1	O	0.922389	0.156507	-0.062716
O2	O	0.720265	0.177672	-0.062689
O3	O	0.825974	-0.015750	-0.062703
O4	O	0.816680	0.349929	-0.062701
O5	O	0.825955	-0.015760	0.062485
O6	O	0.720246	0.177662	0.062500
O7	O	0.922370	0.156497	0.062473
Cu8	Cu	0.821307	0.167079	0.073917
Cu9	Cu	0.821329	0.167090	-0.074133
O10	O	0.816661	0.349919	0.062487
C11	C	0.694374	0.176992	-0.000091
C12	C	0.617256	0.174963	-0.000081
C13	C	0.581057	0.173994	-0.068323
C14	C	0.508597	0.172074	-0.068333
C15	C	0.472342	0.171097	-0.000096
C16	C	0.508550	0.172074	0.068155
C17	C	0.581007	0.174007	0.068163
C18	C	0.362505	0.094476	0.052172
C19	C	0.290049	0.092536	0.052162
C20	C	0.248859	0.165142	-0.000115
C21	C	0.280135	0.239672	-0.052396
C22	C	0.352592	0.241605	-0.052388
C23	C	0.393774	0.169002	-0.000096
C24	C	0.134091	0.162092	-0.068372
C25	C	0.061629	0.160180	-0.068379
C26	C	0.061584	0.160168	0.068111
C27	C	0.134043	0.162093	0.068116
C28	C	0.170293	0.163049	-0.000128
C29	C	0.825282	-0.062538	-0.000111
C30	C	0.823240	-0.201937	-0.000115
C31	C	0.822292	-0.267423	-0.068354
C32	C	0.820367	-0.398402	-0.068350
C33	C	0.820341	-0.398398	0.068137
C34	C	0.822261	-0.267420	0.068132
C35	C	0.822310	-0.267427	-0.147154
C36	C	0.820386	-0.398406	-0.147150
C37	C	0.948261	0.157178	-0.000126
C38	C	1.025379	0.159206	-0.000141
C39	C	0.817353	0.396707	-0.000107
C40	C	0.819395	0.536106	-0.000107
N41	N	0.821296	0.167070	0.178047
N42	N	0.821345	0.167089	-0.178263
C43	C	0.868119	0.081464	0.217428
C44	C	0.868123	0.081459	0.296230
C45	C	0.821311	0.167080	0.335648
C46	C	0.774478	0.252692	0.296258
C47	C	0.774471	0.252687	0.217458
C48	C	0.812761	0.281502	0.460487
C49	C	0.812773	0.281509	0.539286
C50	C	0.821329	0.167095	0.578694
C51	C	0.829888	0.052669	0.539294
C52	C	0.829880	0.052664	0.460494
C53	C	0.821313	0.167094	0.421094
C54	C	0.868160	0.081476	0.703521
C55	C	0.868159	0.081469	0.782324
C56	C	0.774517	0.252713	0.782351
C57	C	0.774515	0.252709	0.703549
C58	C	0.821340	0.167092	0.664139
H59	H	0.163606	0.162884	-0.123941
H60	H	0.479118	0.171286	-0.123905
F61	F	0.917992	-0.009650	0.661577
H62	H	0.378053	0.302293	-0.094955
H63	H	0.246599	0.298800	-0.094963
H64	H	0.906254	0.011746	0.328299
H65	H	0.032156	0.159399	-0.123952
H66	H	0.819543	-0.451730	0.123702
H67	H	0.774317	-0.220109	-0.177407
F68	F	0.724633	0.343804	0.175544
F69	F	0.023003	0.159140	0.140735
F70	F	0.917951	-0.009660	0.175486
F71	F	0.724682	0.343828	0.661634
F72	F	0.724691	0.343829	0.824299
H73	H	0.906286	0.011752	0.814388
F74	F	0.172572	0.163118	0.140749
H75	H	0.805809	0.374681	0.571360
H76	H	0.264591	0.031843	0.094728
F77	F	0.838983	-0.069112	0.418564
F78	F	0.838999	-0.069108	0.581228
H79	H	0.872972	-0.238952	-0.171610
F80	F	0.803705	0.403288	0.418554
H81	H	0.736361	0.322404	0.328356
H82	H	0.396036	0.035349	0.094747
H83	H	0.610566	0.174772	-0.123893
F84	F	0.883130	-0.460269	-0.186699
F85	F	0.619535	0.175038	0.140799
F86	F	0.469963	0.171042	0.140778
F87	F	0.823250	-0.197725	0.140761
H88	H	0.769733	-0.426879	-0.171602
