data_functionalizedCrystal
_audit_creation_method	'MofGen! by Chris Wilmer'
_symmetry_space_group_name_H-M	'P1'
_symmetry_Int_Tables_number	1
_symmetry_cell_setting	triclinic
loop_
_symmetry_equiv_pos_as_xyz
  x,y,z
_cell_length_a	13.635800
_cell_length_b	9.514072
_cell_length_c	13.394072
_cell_angle_alpha	102.405321
_cell_angle_beta	140.832355
_cell_angle_gamma	61.156579
loop_
_atom_site_label
_atom_site_type_symbol
_atom_site_fract_x
_atom_site_fract_y
_atom_site_fract_z
V1	V	2.393639	-0.292452	0.509551
O2	O	2.335702	-0.058051	0.498537
O3	O	2.409552	-0.510535	0.507330
O4	O	2.515776	-0.319591	0.731207
O5	O	2.228742	-0.250316	0.273110
V6	V	2.611293	-0.260676	0.481117
O7	O	2.577149	-0.362153	0.571923
O8	O	2.652882	-0.190974	0.418745
O9	O	2.483777	-0.042593	0.483338
O10	O	2.727929	-0.495077	0.492131
O11	O	2.834888	-0.302811	0.717558
O12	O	2.377553	-0.233536	0.259461
V13	V	2.893639	-0.292452	0.509551
O14	O	2.835702	-0.058051	0.498537
O15	O	2.909552	-0.510535	0.507330
O16	O	3.015776	-0.319591	0.731207
O17	O	2.728742	-0.250316	0.273110
V18	V	3.111293	-0.260676	0.481117
O19	O	3.077149	-0.362153	0.571923
O20	O	3.152882	-0.190974	0.418745
O21	O	2.983777	-0.042593	0.483338
O22	O	3.227929	-0.495077	0.492131
O23	O	3.334888	-0.302811	0.717558
O24	O	2.877553	-0.233536	0.259461
C25	C	2.337076	-0.562710	0.499618
C26	C	2.391705	-0.741200	0.499279
C27	C	2.472573	-0.319140	0.785193
C28	C	2.613341	-0.342773	0.966406
C29	C	2.387923	0.009575	0.491046
C30	C	2.322920	0.188061	0.491395
C31	C	2.252422	-0.233991	0.205466
C32	C	2.101271	-0.210350	0.024252
C33	C	2.837076	-0.562710	0.499618
C34	C	2.891705	-0.741200	0.499279
C35	C	2.755906	-0.233996	1.205467
C36	C	2.615138	-0.210370	1.024255
C37	C	2.972573	-0.319140	0.785193
C38	C	3.113341	-0.342773	0.966406
C39	C	2.887923	0.009575	0.491046
C40	C	2.822920	0.188061	0.491395
C41	C	1.951029	-0.208400	-0.052517
C42	C	1.808984	-0.186167	-0.222790
C43	C	1.817190	-0.165897	-0.316289
C44	C	1.967446	-0.167844	-0.239510
C45	C	2.109482	-0.190064	-0.069242
C46	C	3.277578	-0.363031	1.059861
C47	C	3.409850	-0.385215	1.230128
C48	C	3.377886	-0.387153	1.306938
C49	C	3.213630	-0.366888	1.213470
C50	C	3.081357	-0.344693	1.043205
H51	H	2.492443	-0.817212	0.505827
H52	H	2.722170	-0.735928	0.484823
H53	H	2.222170	-0.735928	0.484823
O54	O	2.488427	-0.053688	0.917740
C55	C	2.371357	-0.064183	0.754451
H56	H	2.442629	-0.193650	0.755003
H57	H	2.244444	-0.042740	0.697644
C58	C	2.231102	0.229290	0.651401
C59	C	2.318645	0.070280	0.652077
H60	H	2.198578	0.312237	0.588248
H61	H	2.309968	0.236363	0.761410
H62	H	2.125351	0.247135	0.604064
H63	H	2.424404	0.052430	0.699431
H64	H	2.239794	0.063207	0.542073
O65	O	2.740212	-0.499569	1.072789
C66	C	2.913738	-0.529978	1.180670
H67	H	2.902586	-0.444073	1.121113
H68	H	2.975558	-0.504256	1.301358
C69	C	3.048539	-0.819495	1.289082
C70	C	3.034844	-0.713995	1.215927
H71	H	3.123248	-0.933007	1.310838
H72	H	2.931634	-0.799008	1.216406
H73	H	3.100051	-0.798040	1.389647
H74	H	2.983313	-0.735436	1.115355
H75	H	3.151744	-0.734490	1.288588
H76	H	1.944315	-0.224901	0.023589
H77	H	1.686653	-0.184586	-0.285278
H78	H	2.947632	-0.328203	0.967126
H79	H	2.992443	-0.817212	0.505827
H80	H	1.701533	-0.147825	-0.454927
O81	O	2.255339	-0.192010	0.005076
C82	C	2.232085	-0.169318	-0.113981
H83	H	2.133241	-0.208387	-0.224526
H84	H	2.176357	-0.031773	-0.155881
C85	C	2.536891	-0.229570	0.097669
C86	C	2.415500	-0.277569	-0.038098
H87	H	2.650029	-0.296337	0.144476
H88	H	2.552556	-0.244852	0.177880
H89	H	2.490428	-0.114948	0.062732
H90	H	2.461952	-0.392182	-0.003157
H91	H	2.399846	-0.262309	-0.118303
H92	H	1.974102	-0.151332	-0.315663
O93	O	3.506347	-0.408932	1.472361
C94	C	3.557711	-0.554252	1.547619
H95	H	3.444512	-0.583746	1.452290
H96	H	3.685859	-0.664044	1.599129
C97	C	3.732660	-0.488613	1.806104
C98	C	3.593619	-0.524830	1.689022
H99	H	3.754818	-0.470469	1.893333
H100	H	3.698061	-0.390711	1.755404
H101	H	3.839434	-0.580113	1.849011
H102	H	3.486843	-0.433322	1.646103
H103	H	3.628201	-0.622716	1.739718
H104	H	3.303637	-0.361461	0.997346
H105	H	3.543585	-0.401719	1.306208
H106	H	3.187629	-0.368471	1.276036
