data_functionalizedCrystal
_audit_creation_method	'MofGen! by Chris Wilmer'
_symmetry_space_group_name_H-M	'P1'
_symmetry_Int_Tables_number	1
_symmetry_cell_setting	triclinic
loop_
_symmetry_equiv_pos_as_xyz
  x,y,z
_cell_length_a	18.215405
_cell_length_b	18.215407
_cell_length_c	18.215399
_cell_angle_alpha	89.979405
_cell_angle_beta	90.030551
_cell_angle_gamma	89.975194
loop_
_atom_site_label
_atom_site_type_symbol
_atom_site_fract_x
_atom_site_fract_y
_atom_site_fract_z
Zn1	Zn	-0.292993	-1.125072	0.416118
Zn2	Zn	-0.416065	-1.124980	0.293046
Zn3	Zn	-0.293016	-1.002005	0.293063
Zn4	Zn	-0.416023	-1.001970	0.416069
O5	O	-0.354524	-1.063507	0.354574
O6	O	-0.309327	-1.228044	0.399805
O7	O	-0.399769	-1.108643	0.190064
O8	O	-0.190029	-1.018382	0.309414
O9	O	-0.399747	-1.227977	0.309384
O10	O	-0.190012	-1.108799	0.399822
O11	O	-0.309366	-1.018293	0.190077
O12	O	-0.309325	-0.899016	0.309367
O13	O	-0.399675	-1.018324	0.519060
O14	O	-0.399697	-0.898991	0.399739
O15	O	-0.309286	-1.108766	0.519095
O16	O	-0.519043	-1.108610	0.309337
O17	O	-0.519012	-1.018235	0.399722
C18	C	-0.354510	-0.872301	0.354550
C19	C	-0.354521	-0.790502	0.354558
C20	C	-0.545731	-1.063429	0.354538
C21	C	-0.627529	-1.063463	0.354548
C22	C	-0.401650	-0.602314	0.401553
C23	C	-0.401652	-0.525455	0.401561
C24	C	-0.307402	-0.525452	0.307598
C25	C	-0.307397	-0.602309	0.307594
C26	C	-0.354526	-0.640738	0.354570
C27	C	-0.354532	-0.487022	0.354582
C28	C	-0.354533	-0.403688	0.354591
C29	C	-0.354524	-0.724077	0.354563
C30	C	-0.815715	-1.110632	0.307571
C31	C	-0.892574	-1.110665	0.307589
C32	C	-0.892581	-1.016476	0.401629
C33	C	-0.815724	-1.016447	0.401615
C34	C	-0.777293	-1.063524	0.354581
C35	C	-0.931009	-1.063586	0.354614
C36	C	-1.014343	-1.063621	0.354634
C37	C	-0.693954	-1.063490	0.354563
C38	C	-0.162571	-1.063605	0.354625
C39	C	-0.080772	-1.063647	0.354648
C40	C	-0.354473	-1.063552	0.546527
C41	C	-0.354452	-1.063571	0.628326
C42	C	-0.354537	-0.255460	0.354595
C43	C	-0.354536	-0.337259	0.354595
C44	C	-0.354522	-1.063504	0.163368
C45	C	-0.354336	-1.063628	0.081569
C46	C	-0.307342	-1.110681	0.816540
C47	C	-0.307321	-1.110690	0.893398
C48	C	-0.401448	-1.016513	0.893350
C49	C	-0.401465	-1.016501	0.816493
C50	C	-0.354413	-1.063589	0.778089
C51	C	-0.354375	-1.063610	0.931806
C52	C	-0.354352	-1.063619	1.015139
C53	C	-0.354435	-1.063579	0.694750
H54	H	-0.440025	-0.494174	0.439819
O55	O	-0.774260	-1.161413	0.256854
H56	H	-0.813893	-1.194182	0.224175
H57	H	-0.269033	-0.494153	0.269351
H58	H	-0.269018	-0.633595	0.269335
H59	H	-0.269028	-1.149021	0.785274
H60	H	-0.923854	-1.149026	0.269310
O61	O	-0.452215	-0.965685	0.775012
H62	H	-0.484930	-0.932944	0.814627
H63	H	-0.923881	-0.978146	0.439921
H64	H	-0.440024	-0.633601	0.439805
H65	H	-0.268990	-1.149035	0.924701
H66	H	-0.439757	-0.978177	0.924627
O67	O	-0.774274	-0.965625	0.452310
H68	H	-0.813909	-0.932883	0.485006
