data_functionalizedCrystal
_audit_creation_method	'MofGen! by Chris Wilmer'
_symmetry_space_group_name_H-M	'P1'
_symmetry_Int_Tables_number	1
_symmetry_cell_setting	triclinic
loop_
_symmetry_equiv_pos_as_xyz
  x,y,z
_cell_length_a	14.519731
_cell_length_b	9.065218
_cell_length_c	8.140239
_cell_angle_alpha	90.002802
_cell_angle_beta	89.995496
_cell_angle_gamma	95.647631
loop_
_atom_site_label
_atom_site_type_symbol
_atom_site_fract_x
_atom_site_fract_y
_atom_site_fract_z
O1	O	0.135224	-1.957880	-0.136622
O2	O	0.635224	-1.457880	0.363378
O3	O	0.146316	-1.528389	-0.136625
O4	O	0.646316	-1.028389	0.363375
O5	O	0.006616	-1.754506	-0.136608
O6	O	0.506616	-1.254506	0.363392
O7	O	0.274924	-1.731764	-0.136638
O8	O	0.774924	-1.231764	0.363362
O9	O	0.006614	-1.754493	0.136619
O10	O	0.506614	-1.254493	0.636619
O11	O	0.146314	-1.528376	0.136602
O12	O	0.646314	-1.028376	0.636602
O13	O	0.135222	-1.957868	0.136605
O14	O	0.635222	-1.457868	0.636605
Zn15	Zn	0.140768	-1.743120	0.179984
Zn16	Zn	0.640768	-1.243120	0.679984
Zn17	Zn	0.140770	-1.743137	-0.180004
Zn18	Zn	0.640770	-1.243137	0.319996
O19	O	0.274922	-1.731751	0.136589
O20	O	0.774922	-1.231751	0.636589
C21	C	0.145249	-1.473416	-0.000011
C22	C	0.645249	-0.973416	0.499989
C23	C	0.142062	-1.309632	-0.000012
C24	C	0.642062	-0.809632	0.499988
C25	C	-0.027752	-1.753434	0.000005
C26	C	0.472248	-1.253434	0.500005
C27	C	-0.130156	-1.750241	0.000006
C28	C	0.369844	-1.250241	0.500006
C29	C	-0.213319	-1.747646	0.000003
C30	C	0.286681	-1.247646	0.500003
C31	C	-0.317651	-1.744404	-0.000010
C32	C	0.182349	-1.244404	0.499990
C33	C	-0.400809	-1.741831	-0.000021
C34	C	0.099191	-1.241831	0.499979
C35	C	-0.505148	-1.738589	-0.000030
C36	C	-0.005148	-1.238589	0.499970
C37	C	0.136289	-2.012841	-0.000012
C38	C	0.636289	-1.512841	0.499988
C39	C	0.139476	-2.176624	-0.000022
C40	C	0.639476	-1.676624	0.499978
C41	C	0.309290	-1.732823	-0.000029
C42	C	0.809290	-1.232823	0.499971
C43	C	0.411694	-1.736016	-0.000041
C44	C	0.911694	-1.236016	0.499959
N45	N	0.140766	-1.743120	0.425667
N46	N	0.640766	-1.243120	0.925667
N47	N	0.140765	-1.743149	-0.425687
N48	N	0.640765	-1.243149	0.074313
