data_functionalizedCrystal
_audit_creation_method	'MofGen! by Chris Wilmer'
_symmetry_space_group_name_H-M	'P1'
_symmetry_Int_Tables_number	1
_symmetry_cell_setting	triclinic
loop_
_symmetry_equiv_pos_as_xyz
  x,y,z
_cell_length_a	10.686220
_cell_length_b	18.050589
_cell_length_c	10.686551
_cell_angle_alpha	85.596139
_cell_angle_beta	90.308082
_cell_angle_gamma	94.409750
loop_
_atom_site_label
_atom_site_type_symbol
_atom_site_fract_x
_atom_site_fract_y
_atom_site_fract_z
Zn1	Zn	1.972217	-0.181059	-0.562396
Zn2	Zn	1.955936	-0.315479	-0.352644
Zn3	Zn	1.746328	-0.200057	-0.368714
Zn4	Zn	1.762366	-0.313974	-0.578422
O5	O	1.859212	-0.252642	-0.465544
O6	O	2.145602	-0.191569	-0.521139
O7	O	1.914605	-0.308749	-0.179231
O8	O	1.776395	-0.093607	-0.394425
O9	O	2.133640	-0.290327	-0.367036
O10	O	1.942354	-0.079649	-0.536722
O11	O	1.760607	-0.223949	-0.191038
O12	O	1.572911	-0.222489	-0.409965
O13	O	1.803729	-0.287762	-0.751841
O14	O	1.584694	-0.306184	-0.564036
O15	O	1.957906	-0.190110	-0.740067
O16	O	1.930156	-0.419209	-0.382576
O17	O	1.787942	-0.418104	-0.548454
C18	C	1.533286	-0.266235	-0.490484
C19	C	1.393856	-0.272067	-0.501183
C20	C	1.859059	-0.445602	-0.465535
C21	C	1.859111	-0.528144	-0.465564
C22	C	1.781855	-0.727018	-0.555733
C23	C	1.742482	-0.783311	-0.443604
C24	C	1.859236	-0.679268	-0.465571
C25	C	1.898671	-0.770054	-0.577708
C26	C	1.859354	-0.825247	-0.465588
C27	C	1.819798	-0.734480	-0.353387
C28	C	1.976046	-0.721212	-0.487563
C29	C	1.936711	-0.777484	-0.375352
C30	C	1.859164	-0.595174	-0.465563
C31	C	1.859425	-0.909341	-0.465583
C32	C	2.186411	-0.238997	-0.440508
C33	C	2.325843	-0.233182	-0.429838
C34	C	1.884423	-0.236649	-0.792743
C35	C	1.895166	-0.229833	-0.932176
C36	C	1.859402	-0.058926	-0.465578
C37	C	1.859483	0.023624	-0.465593
C38	C	1.834171	-0.268517	-0.139612
C39	C	1.823671	-0.275113	-0.000161
H40	H	1.716305	-0.704886	-0.631887
O41	O	1.740983	-0.327682	-0.942394
C42	C	1.770745	-0.399016	-0.972237
H43	H	1.873704	-0.396837	-1.000678
H44	H	1.709250	-0.417568	-1.053336
C45	C	1.620788	-0.457493	-0.821936
C46	C	1.747247	-0.454819	-0.856857
H47	H	1.606289	-0.491916	-0.750768
H48	H	1.600733	-0.409435	-0.801833
H49	H	1.569557	-0.472951	-0.889528
H50	H	1.798475	-0.439352	-0.789272
H51	H	1.767311	-0.502876	-0.876947
O52	O	1.383487	-0.188040	-0.347274
C53	C	1.353762	-0.114012	-0.377335
H54	H	1.262323	-0.114093	-0.432780
H55	H	1.432484	-0.082852	-0.436306
C56	C	1.450778	-0.075033	-0.187515
C57	C	1.338465	-0.075132	-0.255604
H58	H	1.441347	-0.051047	-0.112427
H59	H	1.470809	-0.124906	-0.167264
H60	H	1.516368	-0.049067	-0.236671
H61	H	1.272881	-0.101105	-0.206454
H62	H	1.318422	-0.025261	-0.275844
H63	H	1.931977	-0.785908	-0.672534
O64	O	1.336221	-0.317059	-0.583988
C65	C	1.377794	-0.293493	-0.706641
H66	H	1.473184	-0.260879	-0.702105
H67	H	1.307369	-0.256325	-0.754585
C68	C	1.272325	-0.402069	-0.787555
C69	C	1.389490	-0.362018	-0.781984
H70	H	1.279535	-0.444338	-0.834034
H71	H	1.244312	-0.417945	-0.704923
H72	H	1.213649	-0.371089	-0.827506
H73	H	1.448159	-0.392996	-0.742021
H74	H	1.417513	-0.346149	-0.864612
H75	H	1.643756	-0.810397	-0.425021
H76	H	1.964605	-0.185853	-0.980647
H77	H	1.786378	-0.718720	-0.258543
H78	H	2.002194	-0.799490	-0.299031
O79	O	2.093823	-0.688869	-0.509570
C80	C	2.133650	-0.648771	-0.406513
H81	H	2.078691	-0.672133	-0.319262
H82	H	2.116373	-0.587493	-0.427160
C83	C	2.342234	-0.627493	-0.491074
C84	C	2.274740	-0.656191	-0.383908
H85	H	2.429266	-0.632066	-0.477132
H86	H	2.315402	-0.654505	-0.560508
H87	H	2.327823	-0.576431	-0.508268
H88	H	2.289140	-0.707254	-0.366724
H89	H	2.301578	-0.629187	-0.314470
