data_functionalizedCrystal
_audit_creation_method	'MofGen! by Chris Wilmer'
_symmetry_space_group_name_H-M	'P1'
_symmetry_Int_Tables_number	1
_symmetry_cell_setting	triclinic
loop_
_symmetry_equiv_pos_as_xyz
  x,y,z
_cell_length_a	15.944551
_cell_length_b	10.489741
_cell_length_c	9.565339
_cell_angle_alpha	89.999484
_cell_angle_beta	89.999063
_cell_angle_gamma	84.018956
loop_
_atom_site_label
_atom_site_type_symbol
_atom_site_fract_x
_atom_site_fract_y
_atom_site_fract_z
O1	O	-1.115513	-0.164494	-0.116113
O2	O	-0.871085	-0.184775	-0.116148
O3	O	-0.998861	0.011041	-0.116121
O4	O	-0.987737	-0.360309	-0.116140
O5	O	-0.998850	0.011028	0.116399
O6	O	-0.871075	-0.184787	0.116372
O7	O	-1.115502	-0.164506	0.116407
Zn8	Zn	-0.993287	-0.174649	0.153307
Zn9	Zn	-0.993300	-0.174632	-0.153048
O10	O	-0.987727	-0.360322	0.116380
C11	C	-0.839781	-0.183939	0.000108
C12	C	-0.746520	-0.181415	0.000095
C13	C	-0.998015	0.058554	0.000138
C14	C	-0.995502	0.200149	0.000135
C15	C	-1.146807	-0.165342	0.000148
C16	C	-1.240068	-0.167866	0.000152
C17	C	-0.530897	-0.054006	0.000128
C18	C	-0.470238	-0.113164	-0.114520
C19	C	-0.575766	-0.176849	0.000111
C20	C	-0.470250	-0.113206	0.114727
C21	C	-0.410827	-0.172428	0.000134
C22	C	-0.516335	-0.236041	-0.114631
C23	C	-0.516354	-0.236065	0.114719
C24	C	-0.455713	-0.295313	0.000043
C25	C	-0.670784	-0.179391	0.000097
C26	C	-0.315811	-0.169895	0.000138
C27	C	-0.988572	-0.407835	0.000118
C28	C	-0.991086	-0.549430	0.000112
N29	N	-0.993284	-0.174659	0.362386
C30	C	-0.914202	0.267162	0.000113
C31	C	-0.952602	0.359811	0.114763
C32	C	-0.952631	0.359798	-0.114484
C33	C	-1.033936	0.290933	0.114879
C34	C	-1.033954	0.290910	-0.114470
C35	C	-1.072413	0.383533	0.000208
N36	N	-0.993310	-0.174612	-0.362128
C37	C	-0.934174	-0.265187	0.453577
C38	C	-1.010227	-0.289943	0.546766
C39	C	-0.917264	-0.149912	0.546753
C40	C	-1.069376	-0.199472	0.453523
C41	C	-0.976362	-0.059392	0.453503
C42	C	-1.052470	-0.084099	0.546649
H43	H	-0.563617	0.047944	-0.000009
H44	H	-0.962008	0.038036	0.412505
Cl45	Cl	-0.899506	0.406908	-0.264125
Cl46	Cl	-1.032354	-0.440409	0.610016
H47	H	-1.133691	-0.220499	0.412743
Cl48	Cl	-1.129746	0.034135	0.609359
Cl49	Cl	-0.817991	-0.117625	0.609984
H50	H	-0.536639	-0.287954	-0.211662
Cl51	Cl	-0.438714	-0.032944	-0.264162
H52	H	-0.423168	-0.397367	-0.000026
H53	H	-0.536793	-0.287984	0.211645
H54	H	-0.449847	-0.061230	0.211649
Cl55	Cl	-1.086996	0.244067	0.264696
Cl56	Cl	-1.175706	0.461278	0.000315
H57	H	-0.918198	0.390341	0.211682
Cl58	Cl	-0.811001	0.189073	0.000267
Cl59	Cl	-0.857069	-0.383487	0.390473
Cl60	Cl	-1.087027	0.243717	-0.264114
