data_functionalizedCrystal
_audit_creation_method	'MofGen! by Chris Wilmer'
_symmetry_space_group_name_H-M	'P1'
_symmetry_Int_Tables_number	1
_symmetry_cell_setting	triclinic
loop_
_symmetry_equiv_pos_as_xyz
  x,y,z
_cell_length_a	18.215407
_cell_length_b	18.215405
_cell_length_c	11.169409
_cell_angle_alpha	90.035722
_cell_angle_beta	90.021298
_cell_angle_gamma	90.016535
loop_
_atom_site_label
_atom_site_type_symbol
_atom_site_fract_x
_atom_site_fract_y
_atom_site_fract_z
Zn1	Zn	1.125112	-0.293032	0.678562
Zn2	Zn	1.625112	0.206968	1.178562
Zn3	Zn	1.125019	-0.416124	0.477867
Zn4	Zn	1.625019	0.083876	0.977867
Zn5	Zn	1.002037	-0.293064	0.477891
Zn6	Zn	1.502037	0.206936	0.977891
Zn7	Zn	1.002016	-0.416050	0.678506
Zn8	Zn	1.502016	0.083950	1.178506
O9	O	1.063546	-0.354567	0.578206
O10	O	1.563546	0.145433	1.078206
O11	O	1.228084	-0.309378	0.651952
O12	O	1.728084	0.190622	1.151952
O13	O	1.108675	-0.399843	0.309920
O14	O	1.608675	0.100157	0.809920
O15	O	1.018411	-0.190075	0.504543
O16	O	1.518411	0.309925	1.004543
O17	O	1.228016	-0.399813	0.504502
O18	O	1.728016	0.100187	1.004502
O19	O	1.108833	-0.190052	0.651975
O20	O	1.608833	0.309948	1.151975
O21	O	1.018320	-0.309432	0.309938
O22	O	1.518320	0.190568	0.809938
O23	O	0.899050	-0.309360	0.504490
O24	O	1.399050	0.190640	1.004490
O25	O	1.018376	-0.399688	0.846463
O26	O	1.518376	0.100312	1.346463
O27	O	0.899035	-0.399718	0.651881
O28	O	1.399035	0.100282	1.151881
O29	O	1.108813	-0.309307	0.846504
O30	O	1.608813	0.190693	1.346504
O31	O	1.108655	-0.519098	0.504449
O32	O	1.608655	-0.019098	1.004449
O33	O	1.018286	-0.519044	0.651858
O34	O	1.518286	-0.019044	1.151858
C35	C	0.872340	-0.354535	0.578183
C36	C	1.372340	0.145465	1.078183
C37	C	0.790541	-0.354539	0.578201
C38	C	1.290541	0.145461	1.078201
C39	C	0.525513	-0.307569	0.655106
C40	C	1.025513	0.192431	1.155106
C41	C	0.602372	-0.307557	0.655102
C42	C	1.102372	0.192443	1.155102
C43	C	0.602320	-0.401590	0.501333
C44	C	1.102320	0.098410	1.001333
C45	C	0.525463	-0.401605	0.501344
C46	C	1.025463	0.098395	1.001344
C47	C	0.487061	-0.354590	0.578228
C48	C	0.987061	0.145410	1.078228
C49	C	0.640777	-0.354563	0.578214
C50	C	1.140777	0.145437	1.078214
C51	C	0.724111	-0.354551	0.578209
C52	C	1.224111	0.145449	1.078209
C53	C	0.403722	-0.354604	0.578235
C54	C	0.903722	0.145396	1.078235
C55	C	1.063478	-0.545774	0.578171
C56	C	1.563478	-0.045774	1.078171
C57	C	1.063516	-0.627573	0.578196
C58	C	1.563516	-0.127573	1.078196
C59	C	1.110643	-0.892560	0.655081
C60	C	1.610643	-0.392560	1.155081
C61	C	1.110618	-0.815702	0.655063
C62	C	1.610618	-0.315702	1.155063
C63	C	1.016543	-0.815833	0.501401
C64	C	1.516543	-0.315833	1.001401
C65	C	1.016572	-0.892690	0.501414
C66	C	1.516572	-0.392690	1.001414
C67	C	1.063621	-0.931052	0.578261
C68	C	1.563621	-0.431052	1.078261
C69	C	1.063567	-0.777336	0.578229
C70	C	1.563567	-0.277336	1.078229
C71	C	1.063540	-0.694002	0.578209
C72	C	1.563540	-0.194002	1.078209
C73	C	1.063649	-1.014391	0.578280
C74	C	1.563649	-0.514391	1.078280
C75	C	1.255499	-0.354600	0.578231
C76	C	1.755499	0.145400	1.078231
C77	C	1.337298	-0.354615	0.578241
C78	C	1.837298	0.145385	1.078241
C79	C	1.063603	-0.354486	0.891249
C80	C	1.563603	0.145514	1.391249
C81	C	1.063627	-0.354451	1.024649
C82	C	1.563627	0.145549	1.524649
C83	C	1.063635	-0.162614	0.578268
C84	C	1.563635	0.337386	1.078268
C85	C	1.063672	-0.080816	0.578295
C86	C	1.563672	0.419184	1.078295
C87	C	1.063532	-0.354596	0.266382
C88	C	1.563532	0.145404	0.766382
C89	C	1.063651	-0.354423	0.132982
C90	C	1.563651	0.145577	0.632982
H91	H	1.148950	-0.923792	0.717659
H92	H	1.648950	-0.423792	1.217659
H93	H	0.978236	-0.784591	0.438836
H94	H	1.478236	-0.284591	0.938836
H95	H	1.148909	-0.784364	0.717615
H96	H	1.648909	-0.284364	1.217615
H97	H	0.633596	-0.439866	0.438734
H98	H	1.133596	0.060134	0.938734
C99	C	0.964842	-0.935037	0.416910
C100	C	1.464842	-0.435037	0.916910
C101	C	0.913082	-0.892844	0.332394
C102	C	1.413082	-0.392844	0.832394
C103	C	0.861357	-0.935191	0.247892
C104	C	1.361357	-0.435191	0.747892
C105	C	0.861391	-1.019731	0.247906
C106	C	1.361391	-0.519731	0.747906
C107	C	0.913152	-1.061929	0.332425
C108	C	1.413152	-0.561929	0.832425
C109	C	0.964878	-1.019582	0.416927
C110	C	1.464878	-0.519582	0.916927
H111	H	0.913055	-0.830258	0.332381
H112	H	1.413055	-0.330258	0.832381
H113	H	0.823039	-0.903953	0.185326
H114	H	1.323039	-0.403953	0.685326
H115	H	0.823100	-1.051079	0.185353
H116	H	1.323100	-0.551079	0.685353
H117	H	0.913179	-1.124515	0.332439
H118	H	1.413179	-0.624515	0.832439
H119	H	1.003196	-1.050820	0.479494
H120	H	1.503196	-0.550820	0.979494
H121	H	0.494249	-0.269286	0.717710
H122	H	0.994249	0.230714	1.217710
C123	C	0.644667	-0.255830	0.739667
C124	C	1.144667	0.244170	1.239667
C125	C	0.634130	-0.261922	0.876089
C126	C	1.134130	0.238078	1.376089
C127	C	0.676424	-0.210194	0.960661
C128	C	1.176424	0.289806	1.460661
C129	C	0.729255	-0.152373	0.908812
C130	C	1.229255	0.347627	1.408812
C131	C	0.739795	-0.146279	0.772383
C132	C	1.239795	0.353721	1.272383
C133	C	0.697501	-0.198007	0.687811
C134	C	1.197501	0.301993	1.187811
H135	H	0.595018	-0.304727	0.914478
H136	H	1.095018	0.195273	1.414478
H137	H	0.668621	-0.214706	1.061655
H138	H	1.168621	0.285294	1.561655
H139	H	0.760564	-0.114081	0.971417
H140	H	1.260564	0.385919	1.471417
H141	H	0.778907	-0.103474	0.733994
H142	H	1.278907	0.396526	1.233994
H143	H	0.705304	-0.193495	0.586817
H144	H	1.205304	0.306505	1.086817
C145	C	0.483160	-0.453332	0.416773
C146	C	0.983160	0.046668	0.916773
C147	C	0.525396	-0.505041	0.332193
C148	C	1.025396	-0.005041	0.832193
C149	C	0.483093	-0.556768	0.247632
C150	C	0.983093	-0.056768	0.747632
C151	C	0.398553	-0.556787	0.247651
C152	C	0.898553	-0.056787	0.747651
C153	C	0.356311	-0.505076	0.332234
C154	C	0.856311	-0.005076	0.832234
C155	C	0.398615	-0.453349	0.416795
C156	C	0.898615	0.046651	0.916795
H157	H	0.587982	-0.505029	0.332177
H158	H	1.087982	-0.005029	0.832177
H159	H	0.514363	-0.595047	0.185018
H160	H	1.014363	-0.095047	0.685018
H161	H	0.367237	-0.595078	0.185053
H162	H	0.867237	-0.095078	0.685053
H163	H	0.293725	-0.505088	0.332250
H164	H	0.793725	-0.005088	0.832250
H165	H	0.367345	-0.415069	0.479409
H166	H	0.867345	0.084931	0.979409
