data_functionalizedCrystal
_audit_creation_method	'MofGen! by Chris Wilmer'
_symmetry_space_group_name_H-M	'P1'
_symmetry_Int_Tables_number	1
_symmetry_cell_setting	triclinic
loop_
_symmetry_equiv_pos_as_xyz
  x,y,z
_cell_length_a	14.044191
_cell_length_b	14.044190
_cell_length_c	13.101039
_cell_angle_alpha	93.663707
_cell_angle_beta	86.337551
_cell_angle_gamma	93.191777
loop_
_atom_site_label
_atom_site_type_symbol
_atom_site_fract_x
_atom_site_fract_y
_atom_site_fract_z
O1	O	1.281983	0.225377	-0.085186
O2	O	1.005311	0.217064	-0.085198
O3	O	1.139490	0.082885	-0.085172
O4	O	1.147805	0.359556	-0.085212
O5	O	1.129864	0.092530	0.085256
O6	O	0.995685	0.226708	0.085230
O7	O	1.272357	0.235022	0.085242
Zn8	Zn	1.132493	0.232396	0.112295
Zn9	Zn	1.145175	0.219689	-0.112251
O10	O	1.138179	0.369200	0.085216
C11	C	0.964876	0.218249	0.000015
C12	C	0.858733	0.207402	0.000011
C13	C	0.613276	0.264503	0.000013
C14	C	0.664399	0.187587	0.000022
C15	C	0.772536	0.198615	0.000016
C16	C	0.505129	0.253476	0.000019
C17	C	1.131040	0.052086	0.000045
C18	C	1.120192	-0.054057	0.000054
C19	C	1.177295	-0.299516	0.000016
C20	C	1.100378	-0.248393	0.000020
C21	C	1.111405	-0.140254	0.000038
C22	C	1.166269	-0.407664	-0.000003
C23	C	1.312792	0.233836	0.000027
C24	C	1.418936	0.244683	0.000024
C25	C	1.146629	0.400000	-0.000003
C26	C	1.157477	0.506142	-0.000018
N27	N	1.123845	0.241069	0.265542
N28	N	1.153831	0.211010	-0.265498
C29	C	1.112079	0.252876	0.474582
C30	C	1.165594	0.199205	0.525469
C31	C	1.159047	0.205775	0.641786
C32	C	1.118624	0.246307	0.358255
H33	H	0.650720	0.338629	-0.000001
O34	O	1.011868	-0.292908	-0.000029
C35	C	0.942517	-0.224074	0.000012
H36	H	0.976704	-0.155933	-0.032248
H37	H	0.912524	-0.207664	0.081779
C38	C	0.819104	-0.346789	-0.027197
C39	C	0.861092	-0.263100	-0.066828
H40	H	0.768874	-0.370862	-0.068423
H41	H	0.865826	-0.393164	-0.027221
H42	H	0.794117	-0.333102	0.040941
H43	H	0.886088	-0.276790	-0.134960
H44	H	0.814372	-0.216727	-0.066817
O45	O	1.265803	-0.255006	-0.000012
C46	C	1.335157	-0.323830	0.000011
H47	H	1.304620	-0.395610	-0.032271
H48	H	1.355917	-0.331025	0.081775
C49	C	1.461631	-0.204168	-0.027159
C50	C	1.424127	-0.292327	-0.066816
H51	H	1.516513	-0.184735	-0.068376
H52	H	1.414906	-0.157799	-0.027170
H53	H	1.478923	-0.210176	0.040978
H54	H	1.406824	-0.286316	-0.134946
H55	H	1.470851	-0.338695	-0.066817
O56	O	0.619586	0.099212	-0.000020
C57	C	0.520026	0.107728	0.000004
H58	H	0.504888	0.178469	-0.032259
H59	H	0.487290	0.105418	0.081766
C60	C	0.494537	-0.062292	-0.027210
C61	C	0.475944	0.024590	-0.066844
H62	H	0.467343	-0.113577	-0.068441
H63	H	0.561612	-0.068031	-0.027223
H64	H	0.467256	-0.064204	0.040924
H65	H	0.503235	0.026506	-0.134972
H66	H	0.408872	0.030327	-0.066845
O67	O	1.225913	0.138395	0.473075
C68	C	1.218952	0.145133	0.366919
H69	H	1.190870	0.217342	0.352316
H70	H	1.167841	0.085553	0.336653
C71	C	1.352818	0.046742	0.329506
C72	C	1.318334	0.135435	0.311570
H73	H	1.414119	0.040756	0.295362
H74	H	1.357506	0.042200	0.401025
H75	H	1.310216	-0.002897	0.304284
H76	H	1.360929	0.185072	0.336803
H77	H	1.313656	0.139986	0.240053
O78	O	1.051645	0.313564	0.526975
C79	C	1.058476	0.306685	0.633129
H80	H	1.130499	0.278135	0.647646
H81	H	0.998615	0.255992	0.663593
C82	C	0.961048	0.441279	0.670494
C83	C	1.049512	0.406221	0.688324
H84	H	0.955515	0.502677	0.704543
H85	H	0.956443	0.445912	0.598976
H86	H	0.911175	0.399027	0.695881
H87	H	1.099383	0.448467	0.662926
H88	H	1.054125	0.401598	0.759840
