data_functionalizedCrystal
_audit_creation_method	'MofGen! by Chris Wilmer'
_symmetry_space_group_name_H-M	'P1'
_symmetry_Int_Tables_number	1
_symmetry_cell_setting	triclinic
loop_
_symmetry_equiv_pos_as_xyz
  x,y,z
_cell_length_a	19.188930
_cell_length_b	16.992694
_cell_length_c	16.053802
_cell_angle_alpha	92.750953
_cell_angle_beta	92.551696
_cell_angle_gamma	93.093497
loop_
_atom_site_label
_atom_site_type_symbol
_atom_site_fract_x
_atom_site_fract_y
_atom_site_fract_z
O1	O	0.145267	-1.043197	-0.069340
O2	O	0.143642	-0.814918	-0.069364
O3	O	0.043185	-0.935644	-0.069335
O4	O	0.245724	-0.922471	-0.069369
O5	O	0.048690	-0.928999	0.069522
O6	O	0.149147	-0.808273	0.069493
O7	O	0.150772	-1.036552	0.069517
Zn8	Zn	0.150834	-0.921357	0.091552
Zn9	Zn	0.143581	-0.930113	-0.091399
O10	O	0.251229	-0.915826	0.069488
C11	C	0.144306	-0.782390	0.000061
C12	C	0.138072	-0.695368	0.000053
C13	C	0.019902	-0.931895	0.000096
C14	C	-0.057677	-0.930614	0.000103
C15	C	0.150109	-1.069080	0.000090
C16	C	0.156342	-1.156102	0.000093
C17	C	-0.098456	-1.001452	0.000114
C18	C	-0.171350	-1.000250	0.000101
C19	C	-0.203463	-0.928204	0.000093
C20	C	-0.162676	-0.857356	0.000076
C21	C	-0.089783	-0.858561	0.000081
N22	N	-0.312817	-0.870872	0.047342
N23	N	-0.382063	-0.869732	0.047339
C24	C	-0.423085	-0.924569	0.000075
N25	N	-0.392247	-0.980600	-0.047175
N26	N	-0.322995	-0.981742	-0.047168
C27	C	-0.282503	-0.926889	0.000086
C28	C	-0.542905	-0.994108	0.000071
C29	C	-0.615801	-0.992903	0.000052
C30	C	-0.607124	-0.850007	0.000036
C31	C	-0.534230	-0.851215	0.000046
C32	C	-0.502125	-0.923267	0.000068
C33	C	0.274513	-0.919575	0.000055
C34	C	0.352091	-0.920856	0.000043
N35	N	0.155784	-0.915388	0.216410
C36	C	0.198212	-0.644922	0.000043
C37	C	0.192351	-0.563155	0.000056
C38	C	0.126351	-0.531836	0.000072
C39	C	0.066208	-0.582288	0.000084
C40	C	0.072069	-0.664054	0.000077
C41	C	0.102059	-0.288320	0.000098
C42	C	0.096203	-0.206548	0.000102
C43	C	0.222347	-0.187420	0.000076
C44	C	0.228202	-0.269188	0.000064
C45	C	0.168059	-0.319633	0.000081
N46	N	0.120359	-0.448257	0.000082
N47	N	0.174051	-0.403210	0.000076
N48	N	0.138625	-0.936088	-0.216258
C49	C	0.113057	-0.966776	0.260117
C50	C	0.116526	-0.962607	0.347523
C51	C	0.162727	-0.907054	0.391220
C52	C	0.205456	-0.855661	0.347508
C53	C	0.201983	-0.859826	0.260104
C54	C	0.177881	-0.888860	0.652626
C55	C	0.181353	-0.884700	0.740036
C56	C	0.092421	-0.991646	0.740045
C57	C	0.088955	-0.995810	0.652639
C58	C	0.131681	-0.944414	0.608934
N59	N	0.166276	-0.902794	0.480563
N60	N	0.128128	-0.948671	0.519593
H61	H	-0.072320	-1.060123	0.000129
H62	H	0.212672	-0.847013	0.617048
F63	F	0.256360	-0.509469	0.000042
F64	F	0.025954	-0.173219	0.000134
F65	F	-0.214758	-1.075649	0.000112
H66	H	0.281946	-0.294682	0.000042
H67	H	-0.516763	-1.052778	0.000085
H68	H	0.075438	-1.012016	0.224544
H69	H	0.243072	-0.810425	0.383092
H70	H	-0.633270	-0.791346	0.000025
H71	H	-0.649002	-1.050591	0.000057
F72	F	0.039783	-1.054936	0.606133
F73	F	0.071050	-1.017299	0.394038
H74	H	0.057635	-1.033489	0.775637
F75	F	-0.490829	-0.775818	0.000037
H76	H	0.251956	-0.670415	0.000030
F77	F	0.286351	-0.133728	0.000060
H78	H	0.053086	-0.329383	0.000112
F79	F	-0.046382	-0.783162	0.000069
H80	H	-0.188827	-0.798696	0.000068
F81	F	-0.004035	-0.548954	0.000106
F82	F	0.008060	-0.717742	0.000090
F83	F	0.230531	-0.825570	0.786537
H84	H	0.236775	-0.817980	0.224519
