data_functionalizedCrystal
_audit_creation_method	'MofGen! by Chris Wilmer'
_symmetry_space_group_name_H-M	'P1'
_symmetry_Int_Tables_number	1
_symmetry_cell_setting	triclinic
loop_
_symmetry_equiv_pos_as_xyz
  x,y,z
_cell_length_a	13.897448
_cell_length_b	21.395364
_cell_length_c	21.395355
_cell_angle_alpha	89.974323
_cell_angle_beta	90.015629
_cell_angle_gamma	89.988275
loop_
_atom_site_label
_atom_site_type_symbol
_atom_site_fract_x
_atom_site_fract_y
_atom_site_fract_z
Zn1	Zn	-0.384280	-0.957916	0.354293
Zn2	Zn	-0.545560	-0.957842	0.249521
Zn3	Zn	-0.384264	-0.853131	0.249527
Zn4	Zn	-0.545518	-0.853124	0.354259
O5	O	-0.464905	-0.905503	0.301900
O6	O	-0.405699	-1.045584	0.340406
O7	O	-0.524174	-0.943924	0.161844
O8	O	-0.249284	-0.867064	0.263442
O9	O	-0.524190	-1.045530	0.263430
O10	O	-0.249296	-0.944050	0.340413
O11	O	-0.405670	-0.866993	0.161849
O12	O	-0.405630	-0.765452	0.263409
O13	O	-0.524119	-0.867052	0.441941
O14	O	-0.524103	-0.765447	0.340354
O15	O	-0.405658	-0.944043	0.441966
O16	O	-0.680536	-0.943917	0.263397
O17	O	-0.680505	-0.866981	0.340348
C18	C	-0.464861	-0.742715	0.301879
C19	C	-0.464865	-0.673074	0.301885
C20	C	-0.715520	-0.905457	0.301882
C21	C	-0.822734	-0.905495	0.301895
C22	C	-0.403318	-0.171306	0.342040
C23	C	-0.403314	-0.236741	0.342042
C24	C	-0.464905	-0.269436	0.301901
C25	C	-0.526523	-0.236690	0.261768
C26	C	-0.526532	-0.171256	0.261772
C27	C	-0.472380	-0.373073	0.245436
C28	C	-0.472364	-0.438506	0.245431
C29	C	-0.464883	-0.471257	0.301888
C30	C	-0.457397	-0.438566	0.358352
C31	C	-0.457407	-0.373132	0.358357
C32	C	-0.464903	-0.340388	0.301892
C33	C	-0.403270	-0.574947	0.342023
C34	C	-0.403272	-0.640384	0.342025
C35	C	-0.526475	-0.640331	0.261746
C36	C	-0.526478	-0.574896	0.261749
C37	C	-0.464870	-0.542208	0.301887
C38	C	-1.019029	-0.905561	0.301934
C39	C	-0.909796	-0.905522	0.301914
C40	C	-0.213312	-0.905566	0.301932
C41	C	-0.106099	-0.905593	0.301945
C42	C	-0.464886	-0.905555	0.465323
C43	C	-0.464878	-0.905577	0.534965
C44	C	-0.464939	-0.068926	0.301916
C45	C	-0.464924	-0.138568	0.301910
C46	C	-0.464855	-0.905487	0.139112
C47	C	-0.464592	-0.905586	0.069471
C48	C	-0.403192	-0.945664	0.567692
C49	C	-0.403151	-0.945663	0.633127
C50	C	-0.464812	-0.905582	0.665833
C51	C	-0.526501	-0.865487	0.633098
C52	C	-0.526534	-0.865485	0.567664
C53	C	-0.551663	-0.900619	0.769501
C54	C	-0.551632	-0.900626	0.834934
C55	C	-0.464710	-0.905586	0.867654
C56	C	-0.377816	-0.910552	0.834932
C57	C	-0.377849	-0.910550	0.769498
C58	C	-0.464783	-0.905580	0.736785
C59	C	-0.402975	-0.945674	0.971334
C60	C	-0.402932	-0.945669	1.036770
C61	C	-0.526290	-0.865496	1.036740
C62	C	-0.526325	-0.865498	0.971304
C63	C	-0.464668	-0.905590	0.938605
H64	H	-0.353156	-0.144695	0.374726
C65	C	-0.336273	-0.539420	0.385501
C66	C	-0.274352	-0.501856	0.350097
C67	C	-0.212614	-0.469129	0.390128
H68	H	-0.373122	-0.513853	0.412773
H69	H	-0.299531	-0.568274	0.409395
H70	H	-0.311090	-0.473006	0.326214
H71	H	-0.237482	-0.527408	0.322827
H72	H	-0.175872	-0.497983	0.414021
H73	H	-0.249471	-0.443565	0.417397
H74	H	-0.170588	-0.443643	0.366112
H75	H	-0.622386	-0.896586	0.861571
C76	C	-0.593211	-0.822052	1.072354
C77	C	-0.580000	-0.830645	1.136664
C78	C	-0.641642	-0.790641	1.169494
H79	H	-0.579159	-0.779930	1.061690
H80	H	-0.658047	-0.831218	1.061669
H81	H	-0.515179	-0.821475	1.147344
H82	H	-0.594059	-0.872759	1.147346
H83	H	-0.706478	-0.799807	1.158809
H84	H	-0.627585	-0.748522	1.158825
H85	H	-0.632693	-0.796471	1.213131
C86	C	-0.449488	-0.337671	0.419686
C87	C	-0.527022	-0.353589	0.458311
C88	C	-0.519771	-0.320929	0.514810
H89	H	-0.390866	-0.348379	0.439867
H90	H	-0.450615	-0.294006	0.411629
H91	H	-0.525885	-0.397245	0.466369
H92	H	-0.585654	-0.342879	0.438150
H93	H	-0.520898	-0.277264	0.506753
H94	H	-0.461146	-0.331640	0.534985
H95	H	-0.572380	-0.331720	0.541022
H96	H	-0.307097	-0.914592	0.742859
H97	H	-0.353144	-0.263401	0.374720
H98	H	-0.576562	-0.832858	0.944657
C99	C	-0.449066	-0.474070	0.419668
C100	C	-0.362505	-0.458177	0.449141
C101	C	-0.354784	-0.490875	0.505623
H102	H	-0.501517	-0.463376	0.446038
H103	H	-0.450077	-0.517730	0.411617
H104	H	-0.361503	-0.414527	0.457195
H105	H	-0.310038	-0.468873	0.422790
H106	H	-0.355794	-0.534535	0.497571
H107	H	-0.407239	-0.480178	0.531987
H108	H	-0.296049	-0.480100	0.525624
H109	H	-0.478475	-0.346414	0.199459
C110	C	-0.336276	-0.675818	0.385622
C111	C	-0.282309	-0.633182	0.420759
C112	C	-0.220572	-0.665801	0.460920
H113	H	-0.373119	-0.701356	0.412939
H114	H	-0.294145	-0.701322	0.361710
H115	H	-0.324434	-0.607688	0.444669
H116	H	-0.245446	-0.607643	0.393459
H117	H	-0.178441	-0.691306	0.437008
H118	H	-0.257423	-0.691339	0.488232
H119	H	-0.183942	-0.636878	0.484761
H120	H	-0.576632	-0.666951	0.229068
C121	C	-0.593487	-0.821902	0.668491
C122	C	-0.647502	-0.786783	0.625820
C123	C	-0.709209	-0.746617	0.658400
H124	H	-0.635596	-0.845791	0.694029
H125	H	-0.556590	-0.794580	0.693992
H126	H	-0.684397	-0.814101	0.600330
H127	H	-0.605418	-0.762882	0.600281
H128	H	-0.672311	-0.719295	0.683902
H129	H	-0.751311	-0.770510	0.683937
H130	H	-0.745859	-0.722779	0.629454
C131	C	-0.593392	-0.539461	0.218103
C132	C	-0.647314	-0.582096	0.182937
C133	C	-0.708961	-0.549476	0.142717
H134	H	-0.635562	-0.513940	0.241954
H135	H	-0.556456	-0.513938	0.190812
H136	H	-0.684248	-0.607608	0.210224
H137	H	-0.605170	-0.607617	0.159072
H138	H	-0.672024	-0.523953	0.115426
H139	H	-0.751125	-0.523957	0.166573
H140	H	-0.745548	-0.578399	0.118848
C141	C	-0.593572	-0.822065	0.532046
C142	C	-0.655409	-0.857527	0.494489
C143	C	-0.717171	-0.817552	0.461661
H144	H	-0.630382	-0.798176	0.560821
H145	H	-0.556705	-0.794786	0.506469
H146	H	-0.692273	-0.884796	0.520064
H147	H	-0.618626	-0.881414	0.465703
H148	H	-0.680305	-0.790272	0.436084
H149	H	-0.753975	-0.793665	0.490440
H150	H	-0.759129	-0.841606	0.436171
C151	C	-0.480686	-0.473961	0.184120
C152	C	-0.567251	-0.458036	0.154643
C153	C	-0.574956	-0.490688	0.098165
H154	H	-0.428237	-0.463251	0.157751
H155	H	-0.479659	-0.517628	0.192176
H156	H	-0.568270	-0.414379	0.146585
H157	H	-0.619716	-0.468748	0.180994
H158	H	-0.573929	-0.534355	0.106221
H159	H	-0.522503	-0.479976	0.071801
H160	H	-0.633694	-0.479892	0.078160
C161	C	-0.593449	-0.272265	0.218287
C162	C	-0.655326	-0.309858	0.253692
C163	C	-0.716988	-0.342644	0.213661
H164	H	-0.630234	-0.243466	0.194371
H165	H	-0.556512	-0.297814	0.191036
H166	H	-0.692259	-0.284311	0.280933
H167	H	-0.618567	-0.338669	0.277607
H168	H	-0.680052	-0.368194	0.186409
H169	H	-0.753767	-0.313840	0.189747
H170	H	-0.758973	-0.368160	0.237677
H171	H	-0.352986	-0.978310	0.541072
C172	C	-0.593453	-0.135821	0.218128
C173	C	-0.647380	-0.178455	0.182964
C174	C	-0.709027	-0.145834	0.142745
H175	H	-0.635620	-0.110299	0.241980
H176	H	-0.556517	-0.110299	0.190836
H177	H	-0.684314	-0.203965	0.210252
H178	H	-0.605239	-0.203978	0.159099
H179	H	-0.672091	-0.120312	0.115453
H180	H	-0.751188	-0.120313	0.166602
H181	H	-0.745618	-0.174756	0.118877
C182	C	-0.336142	-0.989260	0.668557
C183	C	-0.282170	-1.024380	0.625915
C184	C	-0.220443	-1.064553	0.658527
H185	H	-0.294008	-0.965377	0.694075
H186	H	-0.373023	-1.016582	0.694080
H187	H	-0.245292	-0.997062	0.600402
H188	H	-0.324279	-1.048276	0.600395
H189	H	-0.257324	-1.091875	0.684051
H190	H	-0.178314	-1.040665	0.684045
H191	H	-0.183821	-1.088391	0.629600
C192	C	-0.283440	-0.915797	0.870475
C193	C	-0.271143	-0.862796	0.907996
C194	C	-0.184211	-0.867599	0.940740
H195	H	-0.284573	-0.952074	0.896073
H196	H	-0.231671	-0.918718	0.841631
H197	H	-0.322899	-0.859881	0.936835
H198	H	-0.269992	-0.826511	0.882413
H199	H	-0.132442	-0.870520	0.911896
H200	H	-0.185352	-0.903878	0.966335
H201	H	-0.175852	-0.831637	0.966197
C202	C	-0.335869	-0.989117	0.935857
C203	C	-0.240417	-0.975487	0.951747
C204	C	-0.178573	-1.015488	0.919073
H205	H	-0.349861	-1.031235	0.946573
H206	H	-0.344665	-0.983371	0.892193
H207	H	-0.231625	-0.981239	0.995401
H208	H	-0.226395	-0.933377	0.941029
H209	H	-0.187369	-1.009741	0.875409
H210	H	-0.192574	-1.057603	0.929791
H211	H	-0.113802	-1.006241	0.929845
C212	C	-0.335826	-0.989087	1.072335
C213	C	-0.273947	-0.953626	1.109865
C214	C	-0.212104	-0.993601	1.142629
H215	H	-0.372601	-1.016390	1.097929
H216	H	-0.299058	-1.012950	1.043504
H217	H	-0.310711	-0.929775	1.138693
H218	H	-0.237151	-0.926325	1.084287
H219	H	-0.175337	-1.017463	1.113798
H220	H	-0.248887	-1.020902	1.168220
H221	H	-0.170107	-0.969546	1.168093
C222	C	-0.646070	-0.895080	0.734033
C223	C	-0.691249	-0.838799	0.749948
C224	C	-0.778205	-0.833654	0.717282
H225	H	-0.633731	-0.895735	0.690373
H226	H	-0.686759	-0.929113	0.744750
H227	H	-0.650568	-0.804775	0.739227
H228	H	-0.703612	-0.838132	0.793602
H229	H	-0.818894	-0.867687	0.727999
H230	H	-0.765857	-0.834311	0.673623
H231	H	-0.808874	-0.795470	0.728079
