data_functionalizedCrystal
_audit_creation_method	'MofGen! by Chris Wilmer'
_symmetry_space_group_name_H-M	'P1'
_symmetry_Int_Tables_number	1
_symmetry_cell_setting	triclinic
loop_
_symmetry_equiv_pos_as_xyz
  x,y,z
_cell_length_a	12.759401
_cell_length_b	18.101397
_cell_length_c	12.759393
_cell_angle_alpha	89.962298
_cell_angle_beta	89.981425
_cell_angle_gamma	90.020892
loop_
_atom_site_label
_atom_site_type_symbol
_atom_site_fract_x
_atom_site_fract_y
_atom_site_fract_z
Zn1	Zn	1.606213	-0.294777	-0.593940
Zn2	Zn	2.106213	0.205223	-0.093940
Zn3	Zn	1.606090	-0.418639	-0.418242
Zn4	Zn	2.106090	0.081361	0.081758
Zn5	Zn	1.430515	-0.294817	-0.418279
Zn6	Zn	1.930515	0.205183	0.081721
Zn7	Zn	1.430486	-0.418582	-0.593883
Zn8	Zn	1.930486	0.081418	-0.093883
O9	O	1.518326	-0.356704	-0.506086
O10	O	2.018326	0.143296	-0.006086
O11	O	1.753218	-0.311215	-0.570642
O12	O	2.253218	0.188785	-0.070642
O13	O	1.582760	-0.402254	-0.271226
O14	O	2.082760	0.097746	0.228774
O15	O	1.453885	-0.191178	-0.441621
O16	O	1.953885	0.308822	0.058379
O17	O	1.753127	-0.402215	-0.441557
O18	O	2.253127	0.097785	0.058443
O19	O	1.582970	-0.191149	-0.570678
O20	O	2.082970	0.308851	-0.070678
O21	O	1.453766	-0.311282	-0.271253
O22	O	1.953766	0.188718	0.228747
O23	O	1.283490	-0.311227	-0.441565
O24	O	1.783490	0.188773	0.058435
O25	O	1.453836	-0.402119	-0.740912
O26	O	1.953836	0.097881	-0.240912
O27	O	1.283469	-0.402157	-0.570580
O28	O	1.783469	0.097843	-0.070580
O29	O	1.582942	-0.311160	-0.740954
O30	O	2.082942	0.188840	-0.240954
O31	O	1.582732	-0.522264	-0.441501
O32	O	2.082732	-0.022264	0.058499
O33	O	1.453716	-0.522223	-0.570544
O34	O	1.953716	-0.022223	-0.070544
C35	C	1.245358	-0.356691	-0.506071
C36	C	1.745358	0.143309	-0.006071
C37	C	1.128582	-0.356703	-0.506090
C38	C	1.628582	0.143297	-0.006090
C39	C	1.073768	-0.309405	-0.573408
C40	C	1.573768	0.190595	-0.073408
C41	C	0.964044	-0.309412	-0.573415
C42	C	1.464044	0.190588	-0.073415
C43	C	0.963958	-0.404023	-0.438783
C44	C	1.463958	0.095977	0.061217
C45	C	1.073680	-0.404011	-0.438771
C46	C	1.573680	0.095989	0.061229
C47	C	1.518236	-0.549114	-0.506035
C48	C	2.018236	-0.049114	-0.006035
C49	C	1.518294	-0.631428	-0.506049
C50	C	2.018294	-0.131428	-0.006049
C51	C	1.518428	-0.930519	-0.506144
C52	C	2.018428	-0.430519	-0.006144
C53	C	1.599374	-0.899189	-0.424737
C54	C	2.099374	-0.399189	0.075263
C55	C	1.599655	-0.813571	-0.424948
C56	C	2.099655	-0.313571	0.075052
C57	C	1.518361	-0.782137	-0.506096
C58	C	2.018361	-0.282137	-0.006096
C59	C	1.548380	-0.813134	-0.616837
C60	C	2.048380	-0.313134	-0.116837
C61	C	1.549006	-0.898779	-0.616393
C62	C	2.049006	-0.398779	-0.116393
C63	C	1.407247	-0.899031	-0.477770
C64	C	1.907247	-0.399031	0.022230
C65	C	1.407796	-0.813382	-0.475298
C66	C	1.907796	-0.313382	0.024702
C67	C	1.518322	-0.698277	-0.506075
C68	C	2.018322	-0.198277	-0.006075
C69	C	1.518470	-1.014379	-0.506172
C70	C	2.018470	-0.514379	-0.006172
C71	C	1.792359	-0.356717	-0.506102
C72	C	2.292359	0.143283	-0.006102
C73	C	1.909136	-0.356723	-0.506108
C74	C	2.409136	0.143277	-0.006108
C75	C	1.518399	-0.356629	-0.780120
C76	C	2.018399	0.143371	-0.280120
C77	C	1.518430	-0.356597	-0.896896
C78	C	2.018430	0.143403	-0.396896
C79	C	1.518445	-0.163542	-0.506160
C80	C	2.018445	0.336458	-0.006160
C81	C	1.518495	-0.081228	-0.506192
C82	C	2.018495	0.418772	-0.006192
C83	C	1.451287	-0.309219	-0.951772
C84	C	1.951287	0.190781	-0.451772
C85	C	1.451312	-0.309197	-1.061496
C86	C	1.951312	0.190803	-0.561496
C87	C	1.585631	-0.403931	-1.061459
C88	C	2.085631	0.096069	-0.561459
C89	C	1.585601	-0.403957	-0.951737
C90	C	2.085601	0.096043	-0.451737
C91	C	1.518313	-0.356725	-0.233119
C92	C	2.018313	0.143275	0.266881
C93	C	1.518485	-0.356548	-0.116343
C94	C	2.018485	0.143452	0.383657
H95	H	1.118311	-0.442528	-0.383947
H96	H	1.618311	0.057472	0.116053
H97	H	1.640279	-0.442540	-0.907056
H98	H	2.140279	0.057460	-0.407056
H99	H	1.344240	-0.791992	-0.530249
H100	H	1.844240	-0.291992	-0.030249
Br101	Br	0.889441	-0.468225	-0.347428
Br102	Br	1.389441	0.031775	0.152572
Br103	Br	1.676787	-0.468202	-1.135892
Br104	Br	2.176787	0.031798	-0.635892
H105	H	1.396593	-0.270656	-0.907124
H106	H	1.896593	0.229344	-0.407124
H107	H	1.379939	-0.920699	-0.398418
H108	H	1.879939	-0.420699	0.101582
Br109	Br	1.148275	-0.245200	-0.664766
Br110	Br	1.648275	0.254800	-0.164766
Br111	Br	1.568274	-0.778641	-0.288105
Br112	Br	2.068274	-0.278641	0.211895
H113	H	0.919419	-0.270896	-0.628230
H114	H	1.419419	0.229104	-0.128230
Br115	Br	1.568459	-0.933610	-0.287460
Br116	Br	2.068459	-0.433610	0.212540
Br117	Br	1.736921	-0.779320	-0.456243
Br118	Br	2.236921	-0.279320	0.043757
Br119	Br	1.735894	-0.934963	-0.455662
Br120	Br	2.235894	-0.434963	0.044338
H121	H	1.396636	-0.270618	-1.106171
H122	H	1.896636	0.229382	-0.606171
H123	H	1.630274	-0.918696	-0.640430
H124	H	2.130274	-0.418696	-0.140430
H125	H	1.492631	-0.919501	-0.679138
H126	H	1.992631	-0.419501	-0.179138
Br127	Br	1.453110	-0.779207	-0.720654
Br128	Br	1.953110	-0.279207	-0.220654
Br129	Br	1.682316	-0.777286	-0.657582
Br130	Br	2.182316	-0.277286	-0.157582
H131	H	1.385161	-0.793131	-0.393801
H132	H	1.885161	-0.293131	0.106199
H133	H	1.346935	-0.919292	-0.537062
H134	H	1.846935	-0.419292	-0.037062
