data_functionalizedCrystal
_audit_creation_method	'MofGen! by Chris Wilmer'
_symmetry_space_group_name_H-M	'P1'
_symmetry_Int_Tables_number	1
_symmetry_cell_setting	triclinic
loop_
_symmetry_equiv_pos_as_xyz
  x,y,z
_cell_length_a	14.519709
_cell_length_b	11.792254
_cell_length_c	10.268362
_cell_angle_alpha	89.995475
_cell_angle_beta	89.999088
_cell_angle_gamma	96.060629
loop_
_atom_site_label
_atom_site_type_symbol
_atom_site_fract_x
_atom_site_fract_y
_atom_site_fract_z
O1	O	-0.126460	1.506199	-0.108280
O2	O	-0.139475	1.175788	-0.108281
O3	O	0.001238	1.349754	-0.108292
O4	O	-0.267174	1.332233	-0.108268
O5	O	0.001244	1.349739	0.108308
O6	O	-0.139469	1.175773	0.108320
O7	O	-0.126454	1.506184	0.108321
Cu8	Cu	-0.132961	1.340977	0.128098
Cu9	Cu	-0.132968	1.340995	-0.128058
O10	O	-0.267168	1.332218	0.108332
C11	C	-0.138652	1.133494	0.000019
C12	C	-0.136199	1.007495	0.000018
C13	C	-0.134205	0.905169	0.000012
C14	C	-0.131711	0.776796	0.000011
C15	C	-0.301534	1.333042	0.000035
C16	C	-0.403924	1.335489	0.000044
C17	C	-0.778853	1.344497	-0.000008
C18	C	-0.674536	1.341995	0.000007
C19	C	-0.591392	1.339993	0.000019
C20	C	-0.487068	1.337491	0.000031
C21	C	0.035604	1.348930	0.000002
C22	C	0.137994	1.346483	-0.000015
C23	C	-0.127277	1.548478	0.000018
C24	C	-0.129731	1.674477	0.000011
N25	N	-0.132956	1.340973	0.308264
N26	N	-0.132966	1.341008	-0.308224
C27	C	-0.132966	1.340989	0.573934
C28	C	-0.132963	1.340976	0.426096
