data_functionalizedCrystal
_audit_creation_method	'MofGen! by Chris Wilmer'
_symmetry_space_group_name_H-M	'P1'
_symmetry_Int_Tables_number	1
_symmetry_cell_setting	triclinic
loop_
_symmetry_equiv_pos_as_xyz
  x,y,z
_cell_length_a	27.732048
_cell_length_b	15.995350
_cell_length_c	15.072220
_cell_angle_alpha	90.008851
_cell_angle_beta	89.993868
_cell_angle_gamma	96.932485
loop_
_atom_site_label
_atom_site_type_symbol
_atom_site_fract_x
_atom_site_fract_y
_atom_site_fract_z
O1	O	0.062301	-1.110190	-0.073717
O2	O	0.069995	-0.866315	-0.073737
O3	O	-0.004216	-0.995827	-0.073709
O4	O	0.136512	-0.980678	-0.073744
O5	O	-0.004212	-0.995795	0.073856
O6	O	0.069999	-0.866283	0.073828
O7	O	0.062305	-1.110158	0.073848
Zn8	Zn	0.066153	-0.988215	0.097267
Zn9	Zn	0.066148	-0.988257	-0.097156
O10	O	0.136516	-0.980646	0.073821
C11	C	-0.022222	-0.995493	0.000076
C12	C	-0.075881	-0.994535	0.000083
C13	C	0.069679	-0.835108	0.000044
C14	C	0.068726	-0.742170	0.000037
C15	C	0.062621	-1.141364	0.000066
C16	C	0.063575	-1.234302	0.000066
C17	C	-0.414392	-1.065040	0.000043
C18	C	-0.616067	-1.061487	0.000030
O19	O	-0.647045	-1.125959	-0.000004
N20	N	-0.635522	-0.984692	0.000025
C21	C	-0.604555	-0.908780	0.000017
O22	O	-0.625730	-0.843380	0.000003
C23	C	-0.402881	-0.912334	0.000023
C24	C	-0.383429	-0.989134	0.000037
C25	C	-0.394940	-1.141834	0.000056
C26	C	-0.344524	-1.142721	0.000064
C27	C	-0.313561	-1.066815	0.000059
C28	C	-0.333013	-0.990021	0.000045
C29	C	-0.371914	-0.836422	0.000009
C30	C	-0.321493	-0.837317	0.000008
C31	C	-0.302041	-0.914117	0.000023
C32	C	-0.251634	-0.915002	0.000048
N33	N	-0.232179	-0.991797	0.000053
C34	C	-0.263142	-1.067703	0.000059
C35	C	-0.710437	-0.906920	0.000015
C36	C	-0.760855	-0.906031	0.000015
C37	C	-0.772364	-1.058739	0.000027
C38	C	-0.721945	-1.059627	0.000033
C39	C	-0.690982	-0.983715	0.000021
C40	C	-0.157265	-1.069561	0.000076
C41	C	-0.106844	-1.070442	0.000088
C42	C	-0.095340	-0.917734	0.000072
C43	C	-0.145756	-0.916853	0.000065
C44	C	-0.176718	-0.992773	0.000064
O45	O	-0.220628	-0.850565	0.000072
O46	O	-0.241958	-1.133094	0.000053
C47	C	-0.464808	-1.064153	0.000035
C48	C	-0.484260	-0.987359	0.000022
C49	C	-0.453297	-0.911452	0.000016
C50	C	-0.534679	-0.986470	0.000022
C51	C	-0.565642	-1.062377	0.000027
C52	C	-0.546187	-1.139172	0.000032
C53	C	-0.495771	-1.140059	0.000040
C54	C	-0.472752	-0.834657	0.000011
C55	C	-0.523168	-0.833776	0.000004
C56	C	-0.554132	-0.909683	0.000009
C57	C	0.154523	-0.980980	0.000034
C58	C	0.208182	-0.981938	0.000021
N59	N	0.066156	-0.988193	0.229956
C60	C	0.065301	-0.404467	0.000056
C61	C	0.012449	-0.452585	0.000399
C62	C	0.013403	-0.549263	0.000060
C63	C	0.067000	-0.572006	0.000047
C64	C	0.093065	-0.530599	-0.084223
C65	C	0.091738	-0.433981	-0.084287
C66	C	0.092834	-0.433592	0.083522
C67	C	0.092822	-0.530537	0.084630
C68	C	0.067962	-0.666691	0.000039
C69	C	0.064340	-0.309782	0.000058
N70	N	0.066140	-0.988287	-0.229845
C71	C	0.066146	-0.988256	0.589158
C72	C	0.105721	-0.918727	0.551536
C73	C	0.105866	-0.918884	0.448710
C74	C	0.066151	-0.988224	0.410954
C75	C	0.077167	-1.075446	0.448249
C76	C	0.077448	-1.075056	0.551106
C77	C	0.015437	-0.971342	0.551269
C78	C	0.015775	-0.969333	0.448405
C79	C	0.066153	-0.988211	0.310240
C80	C	0.066145	-0.988274	0.689871
H81	H	-0.091010	-1.132984	0.000102
H82	H	0.132441	-0.544216	-0.087365
H83	H	0.073794	-0.558086	0.146972
H84	H	-0.571406	-1.200977	0.000040
H85	H	-0.685230	-0.845100	0.000005
H86	H	-0.014014	-1.022054	0.575598
Br87	Br	0.001840	-0.862397	0.407783
H88	H	0.131906	-0.545395	0.089710
Br89	Br	-0.053309	-0.814724	0.000065
H90	H	-0.328691	-1.205260	0.000072
Br91	Br	-0.398300	-0.732187	-0.000014
Br92	Br	0.031179	-1.163737	0.592590
Br93	Br	-0.279475	-0.734288	-0.000013
H94	H	-0.420146	-1.203650	0.000057
H95	H	0.143496	-0.929616	0.424088
Br96	Br	0.157782	-0.379817	0.084457
Br97	Br	0.168091	-0.936369	0.594567
Br98	Br	-0.199277	-1.172596	0.000074
H99	H	0.072726	-0.415932	-0.147272
Br100	Br	0.139085	-1.100064	0.591069
Br101	Br	0.030401	-1.163699	0.407492
H102	H	-0.161595	-0.854317	0.000078
H103	H	-0.015055	-1.016735	0.422708
Br104	Br	0.138102	-1.101085	0.405288
Br105	Br	-0.469380	-1.244293	0.000054
Br106	Br	-0.002209	-0.867677	0.594552
H107	H	-0.706111	-1.122164	0.000044
H108	H	0.099266	-0.853661	0.576294
Br109	Br	-0.549560	-0.729537	-0.000009
H110	H	-0.797583	-1.120545	0.000032
H111	H	-0.776688	-0.843493	0.000019
H112	H	-0.447546	-0.772844	0.000005
H113	H	0.099303	-0.854029	0.423496
Br114	Br	0.064038	-0.399719	0.189985
Br115	Br	-0.020748	-0.597072	0.100744
Br116	Br	0.062887	-0.578301	-0.188742
H117	H	-0.008675	-0.434323	0.060832
H118	H	-0.008581	-0.433276	-0.059692
H119	H	0.130541	-0.401231	-0.088120
Br120	Br	-0.020830	-0.596132	-0.100961
