data_functionalizedCrystal
_audit_creation_method	'MofGen! by Chris Wilmer'
_symmetry_space_group_name_H-M	'P1'
_symmetry_Int_Tables_number	1
_symmetry_cell_setting	triclinic
loop_
_symmetry_equiv_pos_as_xyz
  x,y,z
_cell_length_a	14.628931
_cell_length_b	14.560438
_cell_length_c	14.560438
_cell_angle_alpha	60.000905
_cell_angle_beta	90.000856
_cell_angle_gamma	59.999718
loop_
_atom_site_label
_atom_site_type_symbol
_atom_site_fract_x
_atom_site_fract_y
_atom_site_fract_z
Zr1	Zr	0.880617	1.005277	-0.120509
O2	O	0.734652	1.196880	-0.267154
O3	O	0.925362	0.813675	-0.075557
O4	O	0.925358	1.005279	-0.267158
O5	O	0.734661	1.005274	0.075588
O6	O	1.075790	1.005279	-0.267158
O7	O	0.734657	1.005276	-0.075553
O8	O	1.075798	0.662535	0.075581
O9	O	0.734653	1.348018	-0.267151
O10	O	1.056712	0.892483	-0.056383
O11	O	0.944449	0.892481	0.056412
O12	O	0.944444	1.118070	-0.169173
O13	O	0.832181	1.118068	-0.056378
Zr14	Zr	1.120544	1.005273	0.120543
Zr15	Zr	1.120538	1.005277	-0.120510
Zr16	Zr	0.880623	1.005273	0.120543
Zr17	Zr	0.880617	1.246324	-0.120504
Zr18	Zr	1.120544	0.764225	0.120538
O19	O	1.075799	1.196874	0.075591
O20	O	1.075790	1.196880	-0.267154
O21	O	0.734661	1.196874	0.075591
O22	O	1.266508	0.813670	0.267187
O23	O	1.266500	0.813675	-0.075558
O24	O	0.925371	0.813670	0.267188
O25	O	1.266500	1.005276	-0.075554
O26	O	1.075803	1.005270	0.267191
O27	O	0.925371	1.005270	0.267192
O28	O	1.266504	1.005274	0.075587
O29	O	0.925358	1.348018	-0.267151
O30	O	1.075802	0.662532	0.267185
O31	O	1.266508	0.662532	0.267185
O32	O	1.266503	0.662535	0.075580
O33	O	0.734658	1.348015	-0.075547
O34	O	0.925363	1.348015	-0.075547
O35	O	1.056717	0.892479	0.169207
O36	O	1.168980	0.892481	0.056412
O37	O	1.056712	1.118068	-0.056379
O38	O	0.944449	1.118066	0.056416
C39	C	1.000580	0.703761	0.000011
C40	C	1.000580	0.601430	0.000009
C41	C	1.059177	0.553355	-0.058869
C42	C	1.059182	0.457196	-0.058858
C43	C	0.941982	0.457199	0.058910
C44	C	0.941985	0.553350	0.058905
C45	C	0.700475	1.005275	0.000017
C46	C	0.598622	1.005275	0.000018
C47	C	0.553211	1.005276	-0.079113
C48	C	0.447941	1.005276	-0.079114
C49	C	1.300686	1.005275	0.000016
C50	C	1.402539	1.005275	0.000016
C51	C	1.000573	1.005280	-0.301503
C52	C	1.000570	1.005282	-0.403836
C53	C	1.000581	1.306789	0.000022
C54	C	1.000581	1.409120	0.000024
C55	C	0.941969	1.123034	-0.510787
C56	C	0.941982	1.123027	-0.606936
C57	C	1.059199	0.887507	-0.489168
C58	C	1.059192	0.887514	-0.393022
C59	C	1.000588	1.005270	0.301536
C60	C	1.000591	1.005268	0.403869
C61	C	1.300685	0.703761	0.000011
C62	C	1.402538	0.601430	0.000008
C63	C	1.000587	0.703756	0.301531
C64	C	1.000590	0.601423	0.403862
C65	C	1.300693	0.703756	0.301530
C66	C	1.402548	0.601423	0.403861
C67	C	0.700468	1.306794	-0.301496
C68	C	0.598613	1.409126	-0.403827
C69	C	0.700476	1.306789	0.000023
C70	C	0.598623	1.409120	0.000025
C71	C	1.000573	1.306794	-0.301497
C72	C	1.000571	1.409126	-0.403828
C73	C	1.391788	0.553353	-0.058868
C74	C	1.487494	0.457210	-0.058874
C75	C	1.604695	0.457225	0.058882
C76	C	1.508990	0.553373	0.058880
C77	C	1.059193	0.553344	0.510815
C78	C	1.059182	0.457201	0.606962
C79	C	0.941964	0.457220	0.489189
C80	C	0.941969	0.553368	0.393044
C81	C	1.509000	0.553346	0.393061
C82	C	1.604700	0.457202	0.489216
C83	C	1.487483	0.457217	0.606966
C84	C	1.391785	0.553366	0.510813
H85	H	0.894266	0.592491	0.106856
Cl86	Cl	0.868329	0.396742	0.132952
H87	H	1.691378	0.418084	0.106815
H88	H	1.106921	0.592472	0.519628
H89	H	1.106891	0.592498	-0.106823
H90	H	0.894242	0.592518	0.305952
Cl91	Cl	0.868278	0.396797	0.475601
Cl92	Cl	1.738525	0.396767	0.475632
Cl93	Cl	0.868310	1.271066	-0.741389
H94	H	0.408885	1.005284	-0.146865
H95	H	0.592269	1.005270	-0.146856
H96	H	0.441581	1.005281	0.067763
H97	H	1.478733	0.418075	0.694056
H98	H	1.517769	0.592474	0.305980
Cl99	Cl	1.257949	0.613818	0.524391
H100	H	1.106899	0.418054	-0.106800
Cl101	Cl	1.132866	0.739471	-0.258557
H102	H	1.478732	0.418072	-0.106818
Cl103	Cl	0.538335	1.005263	0.104622
H104	H	0.894235	1.218927	-0.519599
Cl105	Cl	1.257966	0.613771	-0.132885
Cl106	Cl	1.132882	0.739465	-0.475584
H107	H	1.106901	0.418061	0.694044
H108	H	1.517751	0.592521	0.106824
