data_functionalizedCrystal
_audit_creation_method	'MofGen! by Chris Wilmer'
_symmetry_space_group_name_H-M	'P1'
_symmetry_Int_Tables_number	1
_symmetry_cell_setting	triclinic
loop_
_symmetry_equiv_pos_as_xyz
  x,y,z
_cell_length_a	19.805407
_cell_length_b	18.050590
_cell_length_c	19.805399
_cell_angle_alpha	90.027426
_cell_angle_beta	90.017803
_cell_angle_gamma	90.015869
loop_
_atom_site_label
_atom_site_type_symbol
_atom_site_fract_x
_atom_site_fract_y
_atom_site_fract_z
Zn1	Zn	1.034773	-0.295730	0.382688
Zn2	Zn	1.034703	-0.419922	0.269500
Zn3	Zn	0.921587	-0.295744	0.269516
Zn4	Zn	0.921566	-0.419877	0.382651
O5	O	0.978157	-0.357818	0.326089
O6	O	1.129480	-0.312217	0.367683
O7	O	1.019678	-0.403475	0.174786
O8	O	0.936639	-0.191818	0.284551
O9	O	1.129429	-0.403460	0.284524
O10	O	1.019796	-0.191807	0.367698
O11	O	0.936572	-0.312242	0.174798
O12	O	0.826868	-0.312198	0.284515
O13	O	0.936604	-0.403383	0.477372
O14	O	0.826853	-0.403397	0.367634
O15	O	1.019776	-0.312173	0.477400
O16	O	1.019657	-0.523841	0.284488
O17	O	0.936536	-0.523807	0.367619
C18	C	0.802301	-0.357795	0.326073
C19	C	0.727069	-0.357803	0.326082
C20	C	0.691752	-0.310377	0.369448
C21	C	0.621064	-0.310380	0.369451
C22	C	0.585694	-0.357815	0.326090
C23	C	0.621016	-0.405244	0.282718
C24	C	0.691703	-0.405235	0.282713
C25	C	0.335942	-0.405277	0.282739
C26	C	0.265250	-0.405283	0.282749
C27	C	0.265304	-0.310422	0.369477
C28	C	0.335991	-0.310414	0.369472
C29	C	0.371306	-0.357839	0.326098
C30	C	0.447955	-0.357833	0.326095
C31	C	0.509047	-0.357825	0.326096
C32	C	0.978105	-0.550770	0.326062
C33	C	0.978145	-0.633316	0.326073
C34	C	1.023440	-0.832758	0.280930
C35	C	1.039973	-0.882093	0.342704
C36	C	0.978183	-0.784446	0.326100
C37	C	0.961720	-0.882194	0.264353
C38	C	0.978222	-0.930432	0.326121
C39	C	0.994748	-0.832694	0.387907
C40	C	0.916466	-0.832791	0.309515
C41	C	0.932975	-0.882103	0.371332
C42	C	0.978163	-0.700348	0.326087
C43	C	0.978242	-1.014528	0.326141
C44	C	1.154700	-0.357842	0.326106
C45	C	1.229932	-0.357852	0.326113
C46	C	0.978195	-0.357771	0.502632
C47	C	0.978211	-0.357752	0.577864
C48	C	0.978228	-0.164113	0.326131
C49	C	0.978258	-0.081567	0.326149
C50	C	0.978158	-0.357811	0.150233
C51	C	0.978273	-0.357622	0.075001
C52	C	1.021520	-0.310256	0.613223
C53	C	1.021527	-0.310235	0.683912
C54	C	0.978228	-0.357713	0.719239
C55	C	0.934915	-0.405210	0.683875
C56	C	0.934905	-0.405228	0.613188
C57	C	0.934953	-0.405141	0.968948
C58	C	0.934968	-0.405122	1.039640
C59	C	1.021575	-0.310148	1.039673
C60	C	1.021565	-0.310165	0.968985
C61	C	0.978250	-0.357660	0.933627
C62	C	0.978242	-0.357682	0.856979
C63	C	0.978239	-0.357695	0.795887
H64	H	0.592312	-0.271762	0.404766
O65	O	0.892999	-0.451323	1.073988
C66	C	0.931523	-0.499275	1.114880
H67	H	0.984824	-0.503878	1.093582
H68	H	0.933875	-0.476302	1.168459
C69	C	0.832957	-0.570819	1.142103
C70	C	0.898422	-0.576477	1.115941
H71	H	0.812538	-0.618439	1.142761
H72	H	0.807002	-0.538511	1.114555
H73	H	0.834926	-0.551671	1.186750
H74	H	0.896450	-0.595615	1.071293
H75	H	0.924375	-0.608790	1.143481
H76	H	0.720457	-0.443854	0.247399
H77	H	0.947779	-0.903936	0.212127
H78	H	0.364786	-0.271790	0.404783
O79	O	0.230860	-0.451440	0.240719
C80	C	0.189969	-0.499457	0.279178
H81	H	0.211296	-0.504125	0.332475
H82	H	0.136402	-0.476504	0.281558
C83	C	0.162660	-0.570877	0.180518
C84	C	0.188857	-0.576615	0.245977
H85	H	0.161970	-0.618470	0.160037
H86	H	0.190207	-0.538525	0.154607
H87	H	0.118023	-0.551746	0.182510
H88	H	0.233496	-0.595736	0.243983
H89	H	0.161317	-0.608971	0.271887
H90	H	0.236541	-0.271803	0.404792
H91	H	0.899692	-0.443825	0.940168
O92	O	1.063553	-0.263933	0.934704
C93	C	1.048794	-0.189914	0.952012
H94	H	0.994725	-0.186160	0.971434
H95	H	1.085092	-0.170498	0.993057
C96	C	1.123086	-0.144968	0.865382
C97	C	1.056675	-0.140357	0.889231
H98	H	1.127950	-0.114398	0.826657
H99	H	1.133032	-0.194836	0.853723
H100	H	1.153327	-0.128789	0.899592
H101	H	1.026437	-0.156545	0.855025
H102	H	1.046725	-0.090490	0.900883
H103	H	1.056843	-0.271473	1.068470
H104	H	1.056781	-0.271596	0.584465
O105	O	0.370137	-0.451416	0.240588
C106	C	0.323758	-0.493270	0.202309
H107	H	0.273383	-0.495888	0.230038
H108	H	0.316220	-0.465999	0.150951
C109	C	0.413199	-0.569078	0.158360
C110	C	0.351329	-0.572299	0.192419
H111	H	0.430207	-0.617825	0.152257
H112	H	0.444447	-0.540878	0.184147
H113	H	0.406909	-0.546348	0.115565
H114	H	0.357622	-0.595019	0.235217
H115	H	0.320083	-0.600504	0.166639
H116	H	0.592211	-0.443862	0.247410
H117	H	1.061725	-0.811091	0.242770
O118	O	1.102297	-0.907902	0.359345
C119	C	1.149843	-0.882751	0.311595
H120	H	1.122952	-0.868942	0.262284
H121	H	1.176093	-0.831049	0.331742
C122	C	1.235675	-0.960735	0.359397
C123	C	1.202648	-0.943780	0.298831
H124	H	1.268250	-0.998378	0.351525
H125	H	1.203644	-0.977678	0.391569
H126	H	1.257544	-0.917644	0.376180
H127	H	1.180773	-0.986867	0.282054
H128	H	1.234677	-0.926845	0.266656
H129	H	1.008637	-0.811043	0.440179
O130	O	0.892950	-0.451409	0.718221
C131	C	0.931472	-0.499359	0.759116
H132	H	0.984776	-0.503961	0.737821
H133	H	0.933822	-0.476385	0.812694
C134	C	0.832907	-0.570906	0.786335
C135	C	0.898374	-0.576562	0.760176
H136	H	0.812489	-0.618527	0.786992
H137	H	0.806953	-0.538599	0.758785
H138	H	0.834874	-0.551757	0.830981
H139	H	0.896405	-0.595701	0.715528
H140	H	0.924327	-0.608874	0.787718
O141	O	0.887412	-0.907759	0.417055
C142	C	0.905032	-0.882383	0.482054
H143	H	0.961183	-0.868559	0.483391
H144	H	0.874501	-0.830643	0.494589
C145	C	0.820703	-0.960208	0.532677
C146	C	0.889671	-0.943235	0.534320
H147	H	0.811225	-0.997742	0.564917
H148	H	0.808830	-0.977303	0.488885
H149	H	0.795269	-0.917086	0.543121
H150	H	0.915103	-0.986354	0.523867
H151	H	0.901548	-0.926149	0.578111
H152	H	1.056795	-0.271561	0.712699
O153	O	0.892915	-0.451477	0.578863
C154	C	0.907678	-0.525490	0.596134
H155	H	0.961750	-0.529236	0.615580
H156	H	0.871385	-0.544894	0.637149
C157	C	0.833376	-0.570466	0.509440
C158	C	0.899790	-0.575068	0.533319
H159	H	0.828508	-0.601049	0.470695
H160	H	0.823428	-0.520602	0.497806
H161	H	0.803140	-0.586635	0.543625
H162	H	0.930024	-0.558891	0.499138
H163	H	0.909743	-0.624930	0.544946
O164	O	0.726004	-0.264230	0.411594
C165	C	0.679670	-0.222385	0.449882
H166	H	0.629272	-0.219778	0.422165
H167	H	0.672166	-0.249657	0.501243
C168	C	0.769173	-0.146557	0.493810
C169	C	0.707275	-0.143350	0.459765
H170	H	0.786202	-0.097806	0.499909
H171	H	0.800389	-0.174750	0.468017
H172	H	0.762911	-0.169287	0.536607
H173	H	0.713539	-0.120629	0.416966
H174	H	0.676060	-0.115151	0.485551
O175	O	0.854219	-0.806961	0.292626
C176	C	0.837027	-0.832155	0.227453
H177	H	0.885012	-0.846018	0.198297
H178	H	0.804202	-0.883833	0.231702
C179	C	0.738836	-0.754112	0.225716
C180	C	0.797772	-0.771133	0.189904
H181	H	0.714618	-0.716473	0.202554
H182	H	0.750416	-0.737140	0.269625
H183	H	0.711489	-0.797182	0.229254
H184	H	0.825121	-0.728065	0.186374
H185	H	0.786195	-0.788096	0.145993
