data_functionalizedCrystal
_audit_creation_method	'MofGen! by Chris Wilmer'
_symmetry_space_group_name_H-M	'P1'
_symmetry_Int_Tables_number	1
_symmetry_cell_setting	triclinic
loop_
_symmetry_equiv_pos_as_xyz
  x,y,z
_cell_length_a	12.811445
_cell_length_b	10.654550
_cell_length_c	11.295501
_cell_angle_alpha	94.561700
_cell_angle_beta	99.997971
_cell_angle_gamma	84.264360
loop_
_atom_site_label
_atom_site_type_symbol
_atom_site_fract_x
_atom_site_fract_y
_atom_site_fract_z
O1	O	1.410050	0.188427	0.251283
O2	O	1.102466	0.204269	0.218072
O3	O	1.263329	0.013631	0.235437
O4	O	1.249186	0.379065	0.233918
O5	O	1.250503	-0.001639	0.036001
O6	O	1.089639	0.189000	0.018636
O7	O	1.397223	0.173158	0.051847
Cu8	Cu	1.242260	0.179685	0.017031
Cu9	Cu	1.257429	0.197742	0.252888
O10	O	1.236359	0.363796	0.034482
C11	C	1.056667	0.195278	0.114101
C12	C	0.939313	0.191218	0.101430
C13	C	0.732772	0.200262	0.295066
C14	C	0.622508	0.196449	0.283165
C15	C	0.608516	0.179787	0.065728
C16	C	0.718781	0.183601	0.077629
C17	C	0.780905	0.193836	0.192302
C18	C	0.891173	0.197640	0.204201
C19	C	0.877179	0.180988	-0.013234
C20	C	0.766914	0.177175	-0.025135
C21	C	1.255878	-0.040805	0.135608
C22	C	1.252771	-0.180258	0.135277
C23	C	1.347485	-0.259447	0.145500
C24	C	1.344559	-0.390476	0.145192
C25	C	1.152198	-0.363115	0.124433
C26	C	1.155125	-0.232087	0.124749
C27	C	1.445131	-0.207618	0.156028
C28	C	1.539852	-0.286808	0.166251
C29	C	1.536927	-0.417838	0.165943
C30	C	1.439280	-0.469676	0.155413
C31	C	1.443021	0.182150	0.155821
C32	C	1.560376	0.186210	0.168500
C33	C	1.243811	0.418232	0.134314
C34	C	1.246918	0.557685	0.134653
N35	N	1.231598	0.166983	-0.148856
C36	C	1.344836	0.301926	-0.385916
C37	C	1.336787	0.292317	-0.511449
C38	C	1.207457	0.138151	-0.525457
C39	C	1.215506	0.147760	-0.399924
C40	C	1.284197	0.229651	-0.330158
C41	C	1.292239	0.239266	-0.204623
C42	C	1.162916	0.085094	-0.218632
C43	C	1.154867	0.075485	-0.344165
N44	N	1.268099	0.210434	0.418776
H45	H	0.916380	0.175754	-0.096913
H46	H	1.151544	0.071465	-0.582280
O47	O	1.628852	-0.494906	0.175714
C48	C	1.730566	-0.666586	0.084059
C49	C	1.626399	-0.579413	0.072858
H50	H	1.728626	-0.734913	0.000901
H51	H	1.739386	-0.722307	0.167843
H52	H	1.800841	-0.607000	0.091696
H53	H	1.556062	-0.638902	0.065172
H54	H	1.617671	-0.523685	-0.010908
O55	O	1.411638	0.381498	-0.318315
C56	C	1.539003	0.533471	-0.317672
C57	C	1.463411	0.443382	-0.394369
H58	H	1.580865	0.583549	-0.379131
H59	H	1.600764	0.477084	-0.252659
H60	H	1.491276	0.606545	-0.264439
H61	H	1.511049	0.370290	-0.447677
H62	H	1.401649	0.499853	-0.459307
H63	H	1.619355	-0.244590	0.174854
O64	O	1.057437	-0.413680	0.114151
C65	C	0.967684	-0.603407	0.104528
C66	C	1.075072	-0.546314	0.116156
H67	H	0.981906	-0.710646	0.106170
H68	H	0.915443	-0.577383	0.015985
H69	H	0.926198	-0.564436	0.182914
H70	H	1.116648	-0.585254	0.037836
H71	H	1.127236	-0.572328	0.204746
O72	O	1.088159	-0.003956	-0.412119
C73	C	1.018414	-0.087066	-0.611715
C74	C	1.093988	0.002970	-0.534909
H75	H	1.023118	-0.081516	-0.711003
H76	H	0.933395	-0.058450	-0.596430
H77	H	1.042838	-0.187966	-0.584553
H78	H	1.069661	0.103897	-0.562024
H79	H	1.178988	-0.025753	-0.550202
O80	O	1.063180	-0.155041	0.114662
C81	C	0.948169	0.000807	-0.000390
C82	C	1.052339	-0.086363	0.010897
H83	H	0.939359	0.056337	-0.084291
H84	H	0.950085	0.069308	0.082646
H85	H	0.877898	-0.058767	-0.007918
H86	H	1.122665	-0.026891	0.018390
H87	H	1.050330	-0.154869	-0.072141
H88	H	1.113533	0.026249	-0.173221
H89	H	1.386167	0.351170	-0.556842
H90	H	1.348166	0.305951	-0.147822
H91	H	0.783356	0.208590	0.388437
O92	O	0.951360	0.207649	0.315678
C93	C	0.953600	0.223719	0.530089
C94	C	0.885315	0.212408	0.403912
H95	H	0.900233	0.227543	0.601461
H96	H	0.996516	0.313657	0.540191
H97	H	1.014626	0.138231	0.542021
H98	H	0.824232	0.297828	0.391894
H99	H	0.842474	0.122418	0.393869
H100	H	1.436907	-0.576369	0.155176
H101	H	0.583322	0.201684	0.366847
H102	H	0.557915	0.171465	-0.027633
H103	H	0.716317	0.168846	-0.118498
O104	O	1.448167	-0.080360	0.156403
C105	C	1.557905	0.092653	0.168152
C106	C	1.554624	-0.051482	0.167777
H107	H	1.643965	0.116045	0.177322
H108	H	1.521515	0.140748	0.247129
H109	H	1.510643	0.127869	0.080187
H110	H	1.601894	-0.086810	0.255686
H111	H	1.590976	-0.099490	0.088741
