data_functionalizedCrystal
_audit_creation_method	'MofGen! by Chris Wilmer'
_symmetry_space_group_name_H-M	'P1'
_symmetry_Int_Tables_number	1
_symmetry_cell_setting	triclinic
loop_
_symmetry_equiv_pos_as_xyz
  x,y,z
_cell_length_a	17.699097
_cell_length_b	16.176319
_cell_length_c	9.065218
_cell_angle_alpha	89.995087
_cell_angle_beta	84.152143
_cell_angle_gamma	89.988305
loop_
_atom_site_label
_atom_site_type_symbol
_atom_site_fract_x
_atom_site_fract_y
_atom_site_fract_z
O1	O	-1.005528	0.068825	-0.186654
O2	O	-0.505528	0.568825	0.313346
O3	O	-0.785340	0.068808	-0.210905
O4	O	-0.285340	0.568808	0.289095
O5	O	-0.899985	0.068815	0.015997
O6	O	-0.399985	0.568815	0.515997
O7	O	-0.890883	0.068818	-0.413556
O8	O	-0.390883	0.568818	0.086444
O9	O	-0.899969	-0.068678	0.016012
O10	O	-0.399969	0.431322	0.516012
O11	O	-0.785324	-0.068685	-0.210891
O12	O	-0.285324	0.431315	0.289109
O13	O	-1.005512	-0.068668	-0.186639
O14	O	-0.505512	0.431332	0.313361
Cu15	Cu	-0.895417	-0.081231	-0.198764
Cu16	Cu	-0.395417	0.418769	0.301236
Cu17	Cu	-0.895436	0.081371	-0.198781
Cu18	Cu	-0.395436	0.581371	0.301219
O19	O	-0.890867	-0.068675	-0.413542
O20	O	-0.390867	0.431325	0.086458
C21	C	-0.757129	0.000060	-0.210026
C22	C	-0.257129	0.500060	0.289974
C23	C	-0.673091	0.000053	-0.207409
C24	C	-0.173091	0.500053	0.292591
N25	N	-0.895409	-0.195596	-0.198751
N26	N	-0.395409	0.304404	0.301249
C27	C	-0.157256	0.075028	-0.191377
C28	C	0.342744	0.575028	0.308623
C29	C	-0.236219	0.075024	-0.193825
C30	C	0.263781	0.575024	0.306175
C31	C	-0.275686	0.000074	-0.195044
C32	C	0.224314	0.500074	0.304956
C33	C	-0.236186	-0.074878	-0.193799
C34	C	0.263814	0.425122	0.306201
C35	C	-0.157225	-0.074874	-0.191340
C36	C	0.342775	0.425126	0.308660
C37	C	-0.554628	-0.074896	-0.203715
C38	C	-0.054628	0.425104	0.296285
C39	C	-0.633594	-0.074894	-0.206179
C40	C	-0.133594	0.425106	0.293821
C41	C	-0.633622	0.075003	-0.206201
C42	C	-0.133622	0.575003	0.293799
C43	C	-0.554661	0.075007	-0.203741
C44	C	-0.054661	0.575007	0.296259
C45	C	-0.515168	0.000055	-0.202489
C46	C	-0.015168	0.500055	0.297511
C47	C	-0.429548	0.000059	-0.199831
C48	C	0.070452	0.500059	0.300169
C49	C	-0.361305	0.000069	-0.197713
C50	C	0.138695	0.500069	0.302287
C51	C	-0.946189	-0.238857	-0.098319
C52	C	-0.446189	0.261143	0.401681
C53	C	-0.946193	-0.325404	-0.098318
C54	C	-0.446193	0.174596	0.401682
C55	C	-0.895419	-0.368688	-0.198756
C56	C	-0.395419	0.131312	0.301244
C57	C	-0.844633	-0.325421	-0.299192
C58	C	-0.344633	0.174579	0.200808
C59	C	-0.844626	-0.238876	-0.299186
C60	C	-0.344626	0.261124	0.200814
C61	C	-0.844659	-0.674450	-0.299220
C62	C	-0.344659	-0.174450	0.200780
C63	C	-0.844672	-0.761001	-0.299222
C64	C	-0.344672	-0.261001	0.200778
C65	C	-0.946226	-0.760978	-0.098352
C66	C	-0.446226	-0.260978	0.401648
C67	C	-0.946219	-0.674432	-0.098345
C68	C	-0.446219	-0.174432	0.401655
C69	C	-0.895431	-0.631173	-0.198776
C70	C	-0.395431	-0.131173	0.301224
C71	C	-0.895426	-0.537329	-0.198774
C72	C	-0.395426	-0.037329	0.301226
C73	C	-0.895427	-0.462531	-0.198766
C74	C	-0.395427	0.037469	0.301234
C75	C	-0.033724	0.000079	-0.187519
C76	C	0.466276	0.500079	0.312481
C77	C	-0.117762	0.000081	-0.190136
C78	C	0.382238	0.500081	0.309864
C79	C	-0.899103	0.000070	0.070965
C80	C	-0.399103	0.500070	0.570965
C81	C	-0.896487	0.000074	0.234731
C82	C	-0.396487	0.500074	0.734731
N83	N	-0.895449	0.195736	-0.198782
N84	N	-0.395449	0.695736	0.301218
C85	C	-0.891750	0.000072	-0.468510
C86	C	-0.391750	0.500072	0.031490
C87	C	-0.894365	0.000074	-0.632276
C88	C	-0.394365	0.500074	-0.132276
H89	H	-0.125127	0.136061	-0.190395
H90	H	0.374873	0.636061	0.309605
H91	H	-0.803307	-0.639234	-0.380996
H92	H	-0.303307	-0.139234	0.119004
F93	F	-0.115193	-0.154642	-0.190009
F94	F	0.384807	0.345358	0.309991
F95	F	-1.000235	-0.192799	0.008576
F96	F	-0.500235	0.307201	0.508576
F97	F	-1.000239	-0.371446	0.008574
F98	F	-0.500239	0.128554	0.508574
H99	H	-0.665786	0.136032	-0.207214
H100	H	-0.165786	0.636032	0.292786
F101	F	-0.278249	0.154793	-0.195139
F102	F	0.221751	0.654793	0.304861
H103	H	-0.987567	-0.639193	-0.016564
H104	H	-0.487567	-0.139193	0.483436
F105	F	-0.790592	-0.371488	-0.406081
F106	F	-0.290592	0.128512	0.093919
H107	H	-0.522530	0.136039	-0.202756
H108	H	-0.022530	0.636039	0.297244
F109	F	-0.675596	-0.154670	-0.207475
F110	F	-0.175596	0.345330	0.292525
H111	H	-0.522484	-0.135926	-0.202674
H112	H	-0.022484	0.364074	0.297326
H113	H	-0.987579	-0.796209	-0.016571
H114	H	-0.487579	-0.296209	0.483429
H115	H	-0.268327	-0.135904	-0.194782
H116	H	0.231673	0.364096	0.305218
F117	F	-0.790628	-0.807066	-0.406126
F118	F	-0.290628	-0.307066	0.093874
F119	F	-0.790576	-0.192835	-0.406075
F120	F	-0.290576	0.307165	0.093925
