data_functionalizedCrystal
_audit_creation_method	'MofGen! by Chris Wilmer'
_symmetry_space_group_name_H-M	'P1'
_symmetry_Int_Tables_number	1
_symmetry_cell_setting	triclinic
loop_
_symmetry_equiv_pos_as_xyz
  x,y,z
_cell_length_a	6.394989
_cell_length_b	14.971486
_cell_length_c	14.048226
_cell_angle_alpha	90.001501
_cell_angle_beta	90.003392
_cell_angle_gamma	85.055920
loop_
_atom_site_label
_atom_site_type_symbol
_atom_site_fract_x
_atom_site_fract_y
_atom_site_fract_z
O1	O	-0.272212	-1.189891	-0.079045
O2	O	-0.304810	-0.929843	-0.079070
O3	O	0.015544	-1.063558	-0.079058
O4	O	-0.592566	-1.056176	-0.079057
O5	O	0.015563	-1.063542	0.079264
O6	O	-0.304791	-0.929827	0.079252
O7	O	-0.272193	-1.189874	0.079277
Zn8	Zn	-0.288489	-1.059848	0.104401
Zn9	Zn	-0.288514	-1.059870	-0.104194
O10	O	-0.592547	-1.056159	0.079264
C11	C	-0.303343	-0.896494	0.000088
C12	C	-0.298974	-0.797150	0.000078
N13	N	-0.288471	-1.059839	0.246762
N14	N	-0.288516	-1.059885	-0.246555
C15	C	0.093378	-1.062090	0.000099
C16	C	0.329624	-1.057629	0.000098
C17	C	-0.273661	-1.223223	0.000117
C18	C	-0.278029	-1.322567	0.000121
C19	C	-0.487173	-0.741960	0.000079
C20	C	-0.483056	-0.648616	0.000093
C21	C	-0.290737	-0.610464	0.000099
C22	C	-0.102524	-0.665661	0.000101
C23	C	-0.106643	-0.759003	0.000093
C24	C	-0.093951	-0.471106	0.000114
C25	C	-0.089830	-0.377757	0.000119
C26	C	-0.470364	-0.360719	0.000114
C27	C	-0.474483	-0.454061	0.000107
C28	C	-0.286268	-0.509252	0.000106
C29	C	-0.146677	-1.119068	0.296585
C30	C	-0.146676	-1.119074	0.396243
C31	C	-0.288480	-1.059855	0.446075
C32	C	-0.430281	-1.000620	0.396245
C33	C	-0.430271	-1.000610	0.296589
C34	C	-0.430296	-1.000646	0.603959
C35	C	-0.430310	-1.000656	0.703622
C36	C	-0.146701	-1.119110	0.703613
C37	C	-0.146691	-1.119100	0.603957
C38	C	-0.288495	-1.059866	0.554134
H39	H	-0.643782	-0.773016	0.000074
H40	H	-0.031240	-1.167340	0.744185
H41	H	-0.031212	-1.167295	0.256018
N42	N	0.006241	-1.182971	0.550201
H43	H	-0.018063	-1.246725	0.567532
H44	H	0.154469	-1.170929	0.567570
H45	H	-0.545780	-0.952433	0.744190
H46	H	-0.031215	-1.167302	0.436809
N47	N	-0.583217	-0.936727	0.242854
H48	H	-0.675834	-0.971939	0.201494
H49	H	-0.503082	-0.896234	0.201575
H50	H	-0.545762	-0.952408	0.563396
N51	N	-0.583213	-0.936745	0.449995
H52	H	-0.675841	-0.971969	0.491330
H53	H	-0.672896	-0.899232	0.403250
H54	H	-0.636307	-0.603684	0.000094
H55	H	-0.631086	-0.485121	0.000093
H56	H	-0.623615	-0.315778	0.000119
H57	H	0.066773	-0.346697	0.000125
N58	N	0.109057	-0.530629	0.000111
H59	H	0.115820	-0.569735	-0.058581
H60	H	0.115720	-0.569682	0.058837
N61	N	0.104896	-0.624505	0.000106
H62	H	0.187358	-0.644473	-0.058584
H63	H	0.187200	-0.644485	0.058835
N64	N	0.096350	-0.818529	0.000097
H65	H	0.180248	-0.806011	-0.058590
H66	H	0.064393	-0.883426	0.000132
