data_functionalizedCrystal
_audit_creation_method	'MofGen! by Chris Wilmer'
_symmetry_space_group_name_H-M	'P1'
_symmetry_Int_Tables_number	1
_symmetry_cell_setting	triclinic
loop_
_symmetry_equiv_pos_as_xyz
  x,y,z
_cell_length_a	11.792241
_cell_length_b	10.489716
_cell_length_c	10.868271
_cell_angle_alpha	89.998908
_cell_angle_beta	89.999461
_cell_angle_gamma	95.638724
loop_
_atom_site_label
_atom_site_type_symbol
_atom_site_fract_x
_atom_site_fract_y
_atom_site_fract_z
O1	O	-1.507366	0.174834	-0.102172
O2	O	-1.177072	0.192853	-0.102204
O3	O	-1.349750	-0.001782	-0.102192
O4	O	-1.334689	0.369469	-0.102185
O5	O	-1.349735	-0.001790	0.102453
O6	O	-1.177058	0.192845	0.102441
O7	O	-1.507352	0.174827	0.102472
Zn8	Zn	-1.342203	0.183835	0.134948
Zn9	Zn	-1.342222	0.183845	-0.134680
O10	O	-1.334675	0.369461	0.102460
C11	C	-1.134771	0.191717	0.000114
C12	C	-1.008749	0.188329	0.000102
C13	C	-0.778020	0.182100	0.000134
C14	C	-0.906415	0.185561	0.000116
C15	C	-1.348611	-0.049314	0.000127
C16	C	-1.345225	-0.190934	0.000115
C17	C	-1.451116	-0.288968	0.000136
C18	C	-1.395168	-0.366134	-0.100766
C19	C	-1.395130	-0.366106	0.100997
C20	C	-1.289322	-0.266234	-0.100871
C21	C	-1.289298	-0.266201	0.100983
C22	C	-1.233272	-0.343318	0.000056
C23	C	-0.549653	0.175962	0.000148
C24	C	-0.675676	0.179350	0.000144
C25	C	-1.335814	0.416994	0.000139
C26	C	-1.339199	0.558613	0.000142
N27	N	-1.342198	0.183827	0.318962
N28	N	-1.342235	0.183842	-0.318694
C29	C	-1.342216	0.183842	0.569968
C30	C	-1.342202	0.183837	0.430291
H31	H	-1.543223	-0.264606	0.000043
Br32	Br	-1.214873	-0.193382	0.243161
H33	H	-1.439847	-0.409734	0.186300
Br34	Br	-1.214869	-0.193810	-0.243214
Br35	Br	-1.469678	-0.438880	-0.242937
H36	H	-1.141096	-0.367434	-0.000007
