data_functionalizedCrystal
_audit_creation_method	'MofGen! by Chris Wilmer'
_symmetry_space_group_name_H-M	'P1'
_symmetry_Int_Tables_number	1
_symmetry_cell_setting	triclinic
loop_
_symmetry_equiv_pos_as_xyz
  x,y,z
_cell_length_a	9.065215
_cell_length_b	8.140239
_cell_length_c	9.065218
_cell_angle_alpha	89.998670
_cell_angle_beta	94.984709
_cell_angle_gamma	90.000939
loop_
_atom_site_label
_atom_site_type_symbol
_atom_site_fract_x
_atom_site_fract_y
_atom_site_fract_z
O1	O	-1.960398	-0.136587	0.216334
O2	O	-1.627064	0.196746	0.549667
O3	O	-1.293731	0.530080	0.883000
O4	O	-1.531112	-0.136594	0.234085
O5	O	-1.197779	0.196739	0.567418
O6	O	-0.864446	0.530073	0.900751
O7	O	-1.754628	-0.136587	0.010567
O8	O	-1.421295	0.196746	0.343900
O9	O	-1.087962	0.530080	0.677233
O10	O	-1.736882	-0.136594	0.439852
O11	O	-1.403548	0.196739	0.773185
O12	O	-1.070215	0.530073	1.106518
O13	O	-1.754621	0.136640	0.010565
O14	O	-1.421288	0.469973	0.343898
O15	O	-1.087954	0.803307	0.677232
O16	O	-1.531105	0.136633	0.234083
O17	O	-1.197772	0.469967	0.567416
O18	O	-0.864438	0.803300	0.900750
O19	O	-1.960390	0.136640	0.216332
O20	O	-1.627057	0.469973	0.549665
O21	O	-1.293724	0.803307	0.882999
Zn22	Zn	-1.745747	0.180017	0.225207
Zn23	Zn	-1.412413	0.513351	0.558541
Zn24	Zn	-1.079080	0.846684	0.891874
Zn25	Zn	-1.745756	-0.179971	0.225209
Zn26	Zn	-1.412423	0.153362	0.558543
Zn27	Zn	-1.079090	0.486696	0.891876
O28	O	-1.736875	0.136633	0.439850
O29	O	-1.403541	0.469967	0.773183
O30	O	-1.070208	0.803300	1.106517
C31	C	-1.476122	0.000019	0.232379
C32	C	-1.142789	0.333352	0.565712
C33	C	-0.809455	0.666685	0.899045
C34	C	-1.312279	0.000016	0.227281
C35	C	-0.978946	0.333349	0.560614
C36	C	-0.645612	0.666683	0.893947
C37	C	-1.752919	0.000024	-0.044421
C38	C	-1.419586	0.333357	0.288913
C39	C	-1.086252	0.666691	0.622246
C40	C	-1.747819	0.000016	-0.208264
C41	C	-1.414486	0.333349	0.125070
C42	C	-1.081153	0.666683	0.458403
C43	C	-2.015381	0.000024	0.218038
C44	C	-1.682047	0.333357	0.551371
C45	C	-1.348714	0.666691	0.884704
C46	C	-2.179224	0.000016	0.223136
C47	C	-1.845891	0.333349	0.556469
C48	C	-1.512557	0.666682	0.889802
N49	N	-1.745751	0.425700	0.225205
N50	N	-1.412418	0.759033	0.558538
N51	N	-1.079084	1.092367	0.891872
N52	N	-1.745763	-0.425654	0.225200
N53	N	-1.412430	-0.092320	0.558533
N54	N	-1.079097	0.241013	0.891867
C55	C	-1.738584	0.000019	0.494837
C56	C	-1.405250	0.333352	0.828171
C57	C	-1.071917	0.666685	1.161504
C58	C	-1.743683	0.000016	0.658680
C59	C	-1.410350	0.333349	0.992014
C60	C	-1.077017	0.666683	1.325347
