data_functionalizedCrystal
_audit_creation_method	'MofGen! by Chris Wilmer'
_symmetry_space_group_name_H-M	'P1'
_symmetry_Int_Tables_number	1
_symmetry_cell_setting	triclinic
loop_
_symmetry_equiv_pos_as_xyz
  x,y,z
_cell_length_a	18.215407
_cell_length_b	12.594516
_cell_length_c	12.594509
_cell_angle_alpha	90.024652
_cell_angle_beta	90.021453
_cell_angle_gamma	90.016501
loop_
_atom_site_label
_atom_site_type_symbol
_atom_site_fract_x
_atom_site_fract_y
_atom_site_fract_z
Zn1	Zn	1.125129	-0.423714	0.601870
Zn2	Zn	1.125053	-0.601719	0.423898
Zn3	Zn	1.002058	-0.423756	0.423900
Zn4	Zn	1.002046	-0.601652	0.601829
O5	O	1.063572	-0.512710	0.512874
O6	O	1.228103	-0.447337	0.578279
O7	O	1.108710	-0.578158	0.274952
O8	O	1.018420	-0.274805	0.447526
O9	O	1.228047	-0.578116	0.447523
O10	O	1.108840	-0.274773	0.578280
O11	O	1.018347	-0.447409	0.274954
O12	O	0.899072	-0.447344	0.447486
O13	O	1.018400	-0.578002	0.750780
O14	O	0.899064	-0.578043	0.578209
O15	O	1.108829	-0.447271	0.750811
O16	O	1.108699	-0.750656	0.447483
O17	O	1.018327	-0.750607	0.578208
C18	C	0.872365	-0.512692	0.512844
C19	C	0.790566	-0.512710	0.512856
C20	C	0.602387	-0.580872	0.580838
C21	C	0.525528	-0.580875	0.580851
C22	C	0.525508	-0.444568	0.444933
C23	C	0.602365	-0.444560	0.444926
C24	C	0.640803	-0.512718	0.512877
C25	C	0.487087	-0.512729	0.512898
C26	C	0.403753	-0.512732	0.512911
C27	C	0.724142	-0.512714	0.512865
C28	C	1.063523	-0.789251	0.512864
C29	C	1.063570	-0.907557	0.512895
C30	C	1.014412	-0.976822	0.583946
C31	C	0.996480	-1.047684	0.486823
C32	C	1.081568	-1.047493	0.610035
C33	C	1.045603	-0.976861	0.415720
C34	C	1.130722	-0.976663	0.538997
C35	C	1.112817	-1.047494	0.441807
C36	C	1.255524	-0.512729	0.512905
C37	C	1.337323	-0.512737	0.512919
C38	C	1.063622	-0.512624	0.790495
C39	C	1.063643	-0.512588	0.908801
C40	C	1.063640	-0.235089	0.512908
C41	C	1.063669	-0.116784	0.512922
C42	C	1.063564	-0.512719	0.236333
C43	C	1.063685	-0.512455	0.118028
C44	C	1.014490	-0.583603	1.048801
C45	C	0.996497	-0.486538	0.977996
C46	C	1.081603	-0.609643	0.978034
C47	C	1.045658	-0.415338	1.048781
C48	C	1.130794	-0.538508	1.048826
C49	C	1.112827	-0.441376	0.978053
H50	H	0.633681	-0.636368	0.636171
O51	O	0.488326	-0.647182	0.646901
C52	C	0.538736	-0.707313	0.706890
H53	H	0.593507	-0.710941	0.663278
H54	H	0.546944	-0.668435	0.787791
C55	C	0.441456	-0.816161	0.775613
C56	C	0.508725	-0.820624	0.722043
H57	H	0.422944	-0.886055	0.784965
H58	H	0.407493	-0.775648	0.735200
H59	H	0.448305	-0.783758	0.843024
H60	H	0.501874	-0.853014	0.654629
H61	H	0.542687	-0.861145	0.762445
H62	H	1.154412	-0.381196	0.947186
O63	O	1.099668	-0.707575	0.940784
C64	C	1.100065	-0.706041	0.828848
H65	H	1.063959	-0.638268	0.799349
H66	H	1.158622	-0.693944	0.799298
C67	C	1.114515	-0.895495	0.822571
C68	C	1.070164	-0.812261	0.786340
H69	H	1.096074	-0.961018	0.796349
H70	H	1.114250	-0.896530	0.897985
H71	H	1.163309	-0.885401	0.797944
H72	H	1.021373	-0.822349	0.810979
H73	H	1.070419	-0.811231	0.710930
O74	O	0.488133	-0.378519	0.378814
C75	C	0.443631	-0.439036	0.309990
H76	H	0.466779	-0.522855	0.303271
H77	H	0.385393	-0.442752	0.342902
C78	C	0.413990	-0.283951	0.207682
C79	C	0.442425	-0.386896	0.199422
H80	H	0.413242	-0.251787	0.139479
H81	H	0.443969	-0.243178	0.254052
H82	H	0.365460	-0.287061	0.235112
H83	H	0.490956	-0.383783	0.172005
H84	H	0.412453	-0.427667	0.153045
H85	H	1.187549	-0.560523	1.079961
O86	O	0.639654	-0.378466	0.378751
C87	C	0.620827	-0.401582	0.272631
H88	H	0.599683	-0.486607	0.267117
H89	H	0.576217	-0.344486	0.244903
C90	C	0.715055	-0.284675	0.208388
C91	C	0.689091	-0.389108	0.201614
H92	H	0.757162	-0.276977	0.164579
H93	H	0.727737	-0.269098	0.279882
H94	H	0.677873	-0.237107	0.185283
H95	H	0.726269	-0.436673	0.224731
H96	H	0.676417	-0.404693	0.130121
H97	H	0.939737	-1.078904	0.464768
H98	H	0.939726	-0.464552	0.946883
O99	O	0.964894	-0.655356	1.085747
C100	C	0.983231	-0.757429	1.048181
H101	H	1.017820	-0.749903	0.973144
H102	H	1.015840	-0.801572	1.111580
C103	C	0.870007	-0.828705	1.115030
C104	C	0.912484	-0.819462	1.022862
H105	H	0.826368	-0.866973	1.099416
H106	H	0.857653	-0.759938	1.140343
H107	H	0.897189	-0.865488	1.167853
H108	H	0.885305	-0.782668	0.970046
H109	H	0.924832	-0.888225	0.997540
H110	H	0.972766	-0.945789	0.643944
O111	O	1.162379	-1.084242	0.369918
C112	C	1.143193	-1.048037	0.267692
H113	H	1.082127	-1.028362	0.265584
H114	H	1.176339	-0.973833	0.247959
C115	C	1.234954	-1.159470	0.188120
C116	C	1.159950	-1.135313	0.185529
H117	H	1.245293	-1.213303	0.137436
H118	H	1.247882	-1.183859	0.256992
H119	H	1.262566	-1.097626	0.171679
H120	H	1.132339	-1.197153	0.201983
H121	H	1.147017	-1.110936	0.116658
H122	H	1.030355	-0.945964	0.333559
H123	H	1.187453	-0.945447	0.561099
O124	O	1.027348	-0.317391	1.085739
C125	C	0.963260	-0.324837	1.148038
H126	H	0.931260	-0.399013	1.124519
H127	H	0.979005	-0.329894	1.235505
C128	C	0.954515	-0.134839	1.158591
C129	C	0.915208	-0.225938	1.129698
H130	H	0.924875	-0.073831	1.147283
H131	H	0.997694	-0.129821	1.116623
H132	H	0.967633	-0.139067	1.231479
H133	H	0.902099	-0.221714	1.056809
H134	H	0.872026	-0.230952	1.171654
O135	O	1.099816	-1.084455	0.707992
C136	C	1.170069	-1.046694	0.736060
H137	H	1.201968	-1.025727	0.661084
H138	H	1.164250	-0.972967	0.787923
C139	C	1.172402	-1.159113	0.890029
C140	C	1.211583	-1.133370	0.797942
H141	H	1.198009	-1.212576	0.928205
H142	H	1.125069	-1.184551	0.871122
H143	H	1.167555	-1.097666	0.933236
H144	H	1.216421	-1.194813	0.754731
H145	H	1.258917	-1.107945	0.816843
