data_functionalizedCrystal
_audit_creation_method	'MofGen! by Chris Wilmer'
_symmetry_space_group_name_H-M	'P1'
_symmetry_Int_Tables_number	1
_symmetry_cell_setting	triclinic
loop_
_symmetry_equiv_pos_as_xyz
  x,y,z
_cell_length_a	9.065215
_cell_length_b	11.792241
_cell_length_c	10.868271
_cell_angle_alpha	90.005281
_cell_angle_beta	90.003765
_cell_angle_gamma	84.604057
loop_
_atom_site_label
_atom_site_type_symbol
_atom_site_fract_x
_atom_site_fract_y
_atom_site_fract_z
O1	O	1.958844	0.166417	0.102309
O2	O	2.292177	0.499750	0.435642
O3	O	2.625510	0.833083	0.768975
O4	O	1.529430	0.180071	0.102314
O5	O	1.862764	0.513405	0.435648
O6	O	2.196097	0.846738	0.768981
O7	O	1.754558	0.008131	0.102303
O8	O	2.087891	0.341464	0.435636
O9	O	2.421224	0.674798	0.768969
O10	O	1.733716	0.338357	0.102320
O11	O	2.067050	0.671690	0.435654
O12	O	2.400383	1.005023	0.768987
O13	O	1.754539	0.008124	-0.102342
O14	O	2.087873	0.341458	0.230991
O15	O	2.421206	0.674791	0.564325
O16	O	1.529412	0.180064	-0.102330
O17	O	1.862745	0.513398	0.231003
O18	O	2.196079	0.846731	0.564336
O19	O	1.958825	0.166410	-0.102336
O20	O	2.292159	0.499743	0.230997
O21	O	2.625492	0.833076	0.564331
Zn22	Zn	1.744116	0.173236	-0.134825
Zn23	Zn	2.077449	0.506569	0.198508
Zn24	Zn	2.410782	0.839903	0.531842
Zn25	Zn	1.744140	0.173245	0.134803
Zn26	Zn	2.077473	0.506578	0.468137
Zn27	Zn	2.410807	0.839912	0.801470
O28	O	1.733698	0.338350	-0.102324
O29	O	2.067031	0.671683	0.231009
O30	O	2.400365	1.005017	0.564342
C31	C	1.474447	0.178756	-0.000007
C32	C	1.807780	0.512090	0.333326
C33	C	2.141113	0.845423	0.666659
C34	C	1.310640	0.174835	-0.000005
C35	C	1.643974	0.508168	0.333328
C36	C	1.977307	0.841501	0.666661
C37	C	1.753239	-0.034171	-0.000019
C38	C	2.086573	0.299163	0.333314
C39	C	2.419906	0.632496	0.666647
C40	C	1.749321	-0.160206	-0.000018
C41	C	2.082654	0.173127	0.333315
C42	C	2.415988	0.506461	0.666649
C43	C	1.742116	-0.390958	0.000003
C44	C	2.075449	-0.057625	0.333336
C45	C	2.408782	0.275709	0.666669
C46	C	1.746119	-0.262551	-0.000009
C47	C	2.079452	0.070783	0.333325
C48	C	2.412786	0.404116	0.666658
C49	C	2.013809	0.167725	-0.000012
C50	C	2.347142	0.501058	0.333322
C51	C	2.680476	0.834391	0.666655
C52	C	2.177615	0.171646	-0.000005
C53	C	2.510949	0.504980	0.333328
C54	C	2.844282	0.838313	0.666661
C55	C	1.735016	0.380652	0.000000
C56	C	2.068350	0.713985	0.333334
C57	C	2.401683	1.047318	0.666667
C58	C	1.738935	0.506687	0.000007
C59	C	2.072268	0.840020	0.333340
C60	C	2.405601	1.173354	0.666674
N61	N	1.744110	0.173229	-0.318839
N62	N	2.077443	0.506562	0.014494
N63	N	2.410776	0.839896	0.347828
C64	C	1.744132	0.173243	-0.569845
C65	C	2.077466	0.506576	-0.236512
C66	C	2.410799	0.839909	0.096822
C67	C	1.744115	0.173238	-0.430168
C68	C	2.077448	0.506572	-0.096834
C69	C	2.410782	0.839905	0.236499
N70	N	1.744158	0.173243	0.318817
N71	N	2.077491	0.506576	0.652151
N72	N	2.410824	0.839910	0.985484
