data_functionalizedCrystal
_audit_creation_method	'MofGen! by Chris Wilmer'
_symmetry_space_group_name_H-M	'P1'
_symmetry_Int_Tables_number	1
_symmetry_cell_setting	triclinic
loop_
_symmetry_equiv_pos_as_xyz
  x,y,z
_cell_length_a	15.944499
_cell_length_b	11.792241
_cell_length_c	10.268362
_cell_angle_alpha	90.005428
_cell_angle_beta	90.007175
_cell_angle_gamma	83.835512
loop_
_atom_site_label
_atom_site_type_symbol
_atom_site_fract_x
_atom_site_fract_y
_atom_site_fract_z
O1	O	-1.115211	-0.146101	-0.108379
O2	O	-0.870737	-0.164209	-0.108364
O3	O	-0.998906	0.010066	-0.108363
O4	O	-0.987041	-0.320376	-0.108380
O5	O	-0.998895	0.010073	0.108238
O6	O	-0.870725	-0.164202	0.108236
O7	O	-1.115199	-0.146094	0.108222
Cu8	Cu	-0.992961	-0.155147	0.128006
Cu9	Cu	-0.992975	-0.155156	-0.128149
O10	O	-0.987030	-0.320369	0.108220
C11	C	-0.998155	0.052354	-0.000063
C12	C	-0.995924	0.178349	-0.000064
C13	C	-0.839433	-0.163464	-0.000062
C14	C	-0.746175	-0.161242	-0.000056
C15	C	-1.146503	-0.146839	-0.000083
C16	C	-1.239761	-0.149062	-0.000098
C17	C	-0.455096	-0.262491	-0.000081
C18	C	-0.515893	-0.209863	-0.106876
C19	C	-0.410502	-0.153167	-0.000086
C20	C	-0.515867	-0.209826	0.106675
C21	C	-0.575428	-0.157140	-0.000069
C22	C	-0.470071	-0.100508	-0.106969
C23	C	-0.470039	-0.100487	0.106678
C24	C	-0.530818	-0.047779	-0.000143
C25	C	-0.315491	-0.150881	-0.000097
C26	C	-0.670438	-0.159417	-0.000068
C27	C	-0.987781	-0.362657	-0.000083
C28	C	-0.990011	-0.488652	-0.000090
N29	N	-0.992958	-0.155141	0.308172
C30	C	-0.991822	0.409026	-0.000086
C31	C	-0.994102	0.280660	-0.000074
N32	N	-0.992984	-0.155153	-0.308315
C33	C	-0.992970	-0.155154	0.573843
C34	C	-0.992961	-0.155150	0.426005
H35	H	-0.422175	-0.353219	-0.000189
C36	C	-0.543262	-0.272312	0.228647
N37	N	-0.563890	-0.319384	0.320512
H38	H	-0.536204	-0.256109	-0.197162
H39	H	-0.563586	0.043031	-0.000195
H40	H	-0.449888	-0.054314	-0.197357
C41	C	-0.442565	-0.038071	0.228663
N42	N	-0.421868	0.008930	0.320553
