data_functionalizedCrystal
_audit_creation_method	'MofGen! by Chris Wilmer'
_symmetry_space_group_name_H-M	'P1'
_symmetry_Int_Tables_number	1
_symmetry_cell_setting	triclinic
loop_
_symmetry_equiv_pos_as_xyz
  x,y,z
_cell_length_a	13.033293
_cell_length_b	13.897448
_cell_length_c	13.034356
_cell_angle_alpha	82.789070
_cell_angle_beta	76.646206
_cell_angle_gamma	97.187372
loop_
_atom_site_label
_atom_site_type_symbol
_atom_site_fract_x
_atom_site_fract_y
_atom_site_fract_z
Zn1	Zn	1.700362	-0.090187	-0.807222
Zn2	Zn	2.033695	0.243146	-0.473888
Zn3	Zn	2.367029	0.576479	-0.140555
Zn4	Zn	1.677674	-0.274998	-0.629583
Zn5	Zn	2.011008	0.058336	-0.296250
Zn6	Zn	2.344341	0.391669	0.037084
Zn7	Zn	1.500147	-0.137156	-0.607013
Zn8	Zn	1.833480	0.196177	-0.273680
Zn9	Zn	2.166813	0.529511	0.059654
Zn10	Zn	1.522689	-0.274907	-0.784565
Zn11	Zn	1.856022	0.058427	-0.451231
Zn12	Zn	2.189355	0.391760	-0.117898
O13	O	1.600218	-0.194312	-0.707096
O14	O	1.933551	0.139021	-0.373762
O15	O	2.266885	0.472355	-0.040429
O16	O	1.846005	-0.095084	-0.802585
O17	O	2.179339	0.238249	-0.469252
O18	O	2.512672	0.571582	-0.135918
O19	O	1.635196	-0.276407	-0.477940
O20	O	1.968529	0.056926	-0.144607
O21	O	2.301863	0.390259	0.188726
O22	O	1.526767	0.004068	-0.633607
O23	O	1.860100	0.337401	-0.300274
O24	O	2.193433	0.670734	0.033059
O25	O	1.829337	-0.230864	-0.672075
O26	O	2.162670	0.102470	-0.338741
O27	O	2.496003	0.435803	-0.005408
O28	O	1.673864	0.038575	-0.780700
O29	O	2.007197	0.371909	-0.447366
O30	O	2.340531	0.705242	-0.114033
O31	O	1.504767	-0.175135	-0.461358
O32	O	1.838101	0.158198	-0.128025
O33	O	2.171434	0.491531	0.205308
O34	O	1.354484	-0.175047	-0.611638
O35	O	1.687817	0.158286	-0.278305
O36	O	2.021151	0.491619	0.055029
O37	O	1.565186	-0.230709	-0.936219
O38	O	1.898520	0.102625	-0.602885
O39	O	2.231853	0.435958	-0.269552
O40	O	1.371046	-0.276252	-0.742085
O41	O	1.704379	0.057081	-0.408751
O42	O	2.037712	0.390414	-0.075418
O43	O	1.695722	-0.094996	-0.952865
O44	O	2.029056	0.238337	-0.619531
O45	O	2.362389	0.571671	-0.286198
O46	O	1.657054	-0.409979	-0.650105
O47	O	1.990388	-0.076645	-0.316772
O48	O	2.323721	0.256688	0.016561
O49	O	1.543187	-0.409912	-0.763970
O50	O	1.876520	-0.076579	-0.430636
O51	O	2.209854	0.256755	-0.097303
C52	C	1.324221	-0.230737	-0.671954
C53	C	1.657554	0.102596	-0.338621
C54	C	1.990888	0.435929	-0.005288
C55	C	1.206151	-0.246340	-0.656946
C56	C	1.539485	0.086993	-0.323612
C57	C	1.872818	0.420327	0.009721
C58	C	1.161772	-0.186193	-0.714928
C59	C	1.495105	0.147140	-0.381595
C60	C	1.828439	0.480474	-0.048262
C61	C	1.039741	-0.202318	-0.699418
C62	C	1.373075	0.131016	-0.366085
C63	C	1.706408	0.464349	-0.032751
C64	C	1.600137	-0.444941	-0.707055
C65	C	1.933470	-0.111607	-0.373722
C66	C	2.266803	0.221726	-0.040388
C67	C	1.600203	-0.552143	-0.707085
C68	C	1.933537	-0.218810	-0.373752
C69	C	2.266870	0.114524	-0.040419
C70	C	1.600323	-0.748415	-0.707166
C71	C	1.933657	-0.415081	-0.373833
C72	C	2.266990	-0.081748	-0.040500
C73	C	1.600254	-0.639195	-0.707124
C74	C	1.933587	-0.305862	-0.373791
C75	C	2.266921	0.027471	-0.040457
C76	C	1.877293	-0.157745	-0.742375
C77	C	2.210626	0.175588	-0.409041
C78	C	2.543960	0.508922	-0.075708
C79	C	1.995366	-0.142162	-0.757409
C80	C	2.328699	0.191171	-0.424075
C81	C	2.662032	0.524504	-0.090742
C82	C	1.635500	-0.157603	-0.984162
C83	C	1.968833	0.175730	-0.650829
C84	C	2.302166	0.509064	-0.317496
C85	C	1.650534	-0.141960	-1.102232
C86	C	1.983868	0.191373	-0.768898
C87	C	2.317201	0.524707	-0.435565
C88	C	1.600332	0.057302	-0.707163
C89	C	1.933665	0.390636	-0.373830
C90	C	2.266998	0.723969	-0.040497
C91	C	1.600380	0.164525	-0.707192
C92	C	1.933713	0.497859	-0.373859
C93	C	2.267047	0.831192	-0.040525
C94	C	1.608187	-0.185972	-1.268666
C95	C	1.941520	0.147361	-0.935332
C96	C	2.274854	0.480695	-0.601999
C97	C	1.592645	-0.202141	-1.146634
C98	C	1.925978	0.131193	-0.813301
C99	C	2.259312	0.464526	-0.479968
C100	C	1.565135	-0.230800	-0.431114
C101	C	1.898468	0.102533	-0.097781
C102	C	2.231802	0.435866	0.235552
C103	C	1.550306	-0.246144	-0.313072
C104	C	1.883639	0.087189	0.020261
C105	C	2.216972	0.420522	0.353595
H106	H	1.047708	-0.078722	-0.818532
H107	H	1.381042	0.254612	-0.485199
H108	H	1.714375	0.587945	-0.151865
H109	H	1.489249	-0.309633	-1.260747
H110	H	1.822583	0.023700	-0.927414
H111	H	2.155916	0.357033	-0.594080
O112	O	1.136821	-0.330360	-0.575968
O113	O	1.470154	0.002973	-0.242635
O114	O	1.803487	0.336306	0.090698
H115	H	1.160344	-0.400914	-0.596710
H116	H	1.493677	-0.067580	-0.263377
H117	H	1.827011	0.265753	0.069956
O118	O	1.731416	-0.057848	-1.171521
O119	O	2.064749	0.275486	-0.838187
O120	O	2.398082	0.608819	-0.504854
H121	H	1.730923	-0.058337	-1.256494
H122	H	2.064256	0.274996	-0.923161
H123	H	2.397590	0.608330	-0.589828
O124	O	1.689075	-0.101869	-1.337952
O125	O	2.022409	0.231464	-1.004619
O126	O	2.355742	0.564797	-0.671285
H127	H	1.668200	-0.031364	-1.314404
H128	H	2.001533	0.301970	-0.981070
H129	H	2.334866	0.635303	-0.647737
O130	O	1.511740	-0.286237	-1.077348
O131	O	1.845073	0.047096	-0.744015
O132	O	2.178407	0.380429	-0.410681
H133	H	1.552853	-0.335700	-1.032833
H134	H	1.886186	-0.002367	-0.699499
H135	H	2.219519	0.330966	-0.366166
O136	O	1.231098	-0.102164	-0.795897
O137	O	1.564431	0.231169	-0.462564
O138	O	1.897765	0.564502	-0.129231
H139	H	1.316067	-0.102689	-0.795378
H140	H	1.649401	0.230645	-0.462044
H141	H	1.982734	0.563978	-0.128711
H142	H	0.987396	-0.265752	-0.638287
H143	H	1.320730	0.067581	-0.304954
H144	H	1.654063	0.400915	0.028379
