data_functionalizedCrystal
_audit_creation_method	'MofGen! by Chris Wilmer'
_symmetry_space_group_name_H-M	'P1'
_symmetry_Int_Tables_number	1
_symmetry_cell_setting	triclinic
loop_
_symmetry_equiv_pos_as_xyz
  x,y,z
_cell_length_a	15.944551
_cell_length_b	11.792241
_cell_length_c	10.268362
_cell_angle_alpha	89.999626
_cell_angle_beta	90.006236
_cell_angle_gamma	96.153923
loop_
_atom_site_label
_atom_site_type_symbol
_atom_site_fract_x
_atom_site_fract_y
_atom_site_fract_z
O1	O	0.115128	-1.505960	0.108177
O2	O	0.365128	-1.255960	0.358177
O3	O	0.615128	-1.005960	0.608177
O4	O	0.865128	-0.755960	0.858177
O5	O	0.126993	-1.175521	0.108207
O6	O	0.376993	-0.925521	0.358207
O7	O	0.626993	-0.675521	0.608207
O8	O	0.876993	-0.425521	0.858207
O9	O	-0.001173	-1.349764	0.108180
O10	O	0.248827	-1.099764	0.358180
O11	O	0.498827	-0.849764	0.608180
O12	O	0.748827	-0.599764	0.858180
O13	O	0.243295	-1.331717	0.108205
O14	O	0.493295	-1.081717	0.358205
O15	O	0.743295	-0.831717	0.608205
O16	O	0.993295	-0.581717	0.858205
O17	O	-0.001179	-1.349749	-0.108421
O18	O	0.248821	-1.099749	0.141579
O19	O	0.498821	-0.849749	0.391579
O20	O	0.748821	-0.599749	0.641579
O21	O	0.126988	-1.175506	-0.108393
O22	O	0.376988	-0.925506	0.141607
O23	O	0.626988	-0.675506	0.391607
O24	O	0.876988	-0.425506	0.641607
O25	O	0.115123	-1.505945	-0.108424
O26	O	0.365123	-1.255945	0.141576
O27	O	0.615123	-1.005945	0.391576
O28	O	0.865123	-0.755945	0.641576
Cu29	Cu	0.121055	-1.340724	-0.128186
Cu30	Cu	0.371055	-1.090724	0.121814
Cu31	Cu	0.621055	-0.840724	0.371814
Cu32	Cu	0.871055	-0.590724	0.621814
Cu33	Cu	0.121061	-1.340742	0.127970
Cu34	Cu	0.371061	-1.090742	0.377970
Cu35	Cu	0.621061	-0.840742	0.627970
Cu36	Cu	0.871061	-0.590742	0.877970
O37	O	0.243290	-1.331702	-0.108396
O38	O	0.493290	-1.081702	0.141604
O39	O	0.743290	-0.831702	0.391604
O40	O	0.993290	-0.581702	0.641604
C41	C	-0.032473	-1.349008	-0.000121
C42	C	0.217527	-1.099008	0.249879
C43	C	0.467527	-0.849008	0.499879
C44	C	0.717527	-0.599008	0.749879
C45	C	-0.125729	-1.346761	-0.000121
C46	C	0.124271	-1.096761	0.249879
C47	C	0.374271	-0.846761	0.499879
C48	C	0.624271	-0.596761	0.749879
C49	C	0.126245	-1.133229	-0.000089
C50	C	0.376245	-0.883229	0.249911
C51	C	0.626245	-0.633229	0.499911
C52	C	0.876245	-0.383229	0.749911
C53	C	0.124015	-1.007234	-0.000078
C54	C	0.374015	-0.757234	0.249922
C55	C	0.624015	-0.507234	0.499922
C56	C	0.874015	-0.257234	0.749922
C57	C	0.115871	-1.548237	-0.000124
C58	C	0.365871	-1.298237	0.249876
C59	C	0.615871	-1.048237	0.499876
C60	C	0.865871	-0.798237	0.749876
C61	C	0.118102	-1.674233	-0.000127
C62	C	0.368102	-1.424233	0.249873
C63	C	0.618102	-1.174233	0.499873
C64	C	0.868102	-0.924233	0.749873
C65	C	-0.341098	-1.233389	-0.000093
C66	C	-0.091098	-0.983389	0.249907
C67	C	0.158902	-0.733389	0.499907
C68	C	0.408902	-0.483389	0.749907
C69	C	-0.401880	-1.286028	-0.106895
C70	C	-0.151880	-1.036028	0.143105
C71	C	0.098120	-0.786028	0.393105
C72	C	0.348120	-0.536028	0.643105
C73	C	-0.296474	-1.342698	-0.000111
C74	C	-0.046474	-1.092698	0.249889
C75	C	0.203526	-0.842698	0.499889
C76	C	0.453526	-0.592698	0.749889
C77	C	-0.401858	-1.286069	0.106656
C78	C	-0.151858	-1.036069	0.356656
C79	C	0.098142	-0.786069	0.606656
C80	C	0.348142	-0.536069	0.856656
C81	C	-0.461404	-1.338765	-0.000095
C82	C	-0.211404	-1.088765	0.249905
C83	C	0.038596	-0.838765	0.499905
C84	C	0.288596	-0.588765	0.749905
C85	C	-0.356028	-1.395367	-0.107001
C86	C	-0.106028	-1.145367	0.142999
C87	C	0.143972	-0.895367	0.392999
C88	C	0.393972	-0.645367	0.642999
C89	C	-0.355999	-1.395392	0.106646
C90	C	-0.105999	-1.145392	0.356646
C91	C	0.144001	-0.895392	0.606646
C92	C	0.394001	-0.645392	0.856646
C93	C	-0.416764	-1.448111	-0.000182
C94	C	-0.166764	-1.198111	0.249818
C95	C	0.083236	-0.948111	0.499818
C96	C	0.333236	-0.698111	0.749818
C97	C	-0.201461	-1.344961	-0.000121
C98	C	0.048539	-1.094961	0.249879
C99	C	0.298539	-0.844961	0.499879
C100	C	0.548539	-0.594961	0.749879
C101	C	-0.556415	-1.336511	-0.000095
C102	C	-0.306415	-1.086511	0.249905
C103	C	-0.056415	-0.836511	0.499905
C104	C	0.193585	-0.586511	0.749905
C105	C	0.274590	-1.332459	-0.000093
C106	C	0.524590	-1.082459	0.249907
C107	C	0.774590	-0.832459	0.499907
C108	C	1.024590	-0.582459	0.749907
C109	C	0.367846	-1.334705	-0.000084
C110	C	0.617846	-1.084705	0.249916
C111	C	0.867846	-0.834705	0.499916
C112	C	1.117846	-0.584705	0.749916
N113	N	0.121050	-1.340720	-0.308352
N114	N	0.371050	-1.090720	-0.058352
N115	N	0.621050	-0.840720	0.191648
N116	N	0.871050	-0.590720	0.441648
C117	C	0.119913	-0.776555	-0.000116
C118	C	0.369913	-0.526555	0.249884
C119	C	0.619913	-0.276555	0.499884
C120	C	0.869913	-0.026555	0.749884
C121	C	0.122192	-0.904922	-0.000095
C122	C	0.372192	-0.654922	0.249905
C123	C	0.622192	-0.404922	0.499905
C124	C	0.872192	-0.154922	0.749905
C125	C	0.121060	-1.340736	-0.574022
C126	C	0.371060	-1.090736	-0.324022
C127	C	0.621060	-0.840736	-0.074022
C128	C	0.871060	-0.590736	0.175978
C129	C	0.121057	-1.340724	-0.426184
C130	C	0.371057	-1.090724	-0.176184
C131	C	0.621057	-0.840724	0.073816
C132	C	0.871057	-0.590724	0.323816
N133	N	0.121060	-1.340756	0.308135
N134	N	0.371060	-1.090756	0.558135
N135	N	0.621060	-0.840756	0.808135
N136	N	0.871060	-0.590756	1.058135
H137	H	-0.308200	-1.142657	-0.000191
H138	H	-0.058200	-0.892657	0.249809
H139	H	0.191800	-0.642657	0.499809
H140	H	0.441800	-0.392657	0.749809
C141	C	-0.429335	-1.223560	-0.228862
C142	C	-0.179335	-0.973560	0.021138
C143	C	0.070665	-0.723560	0.271138
C144	C	0.320665	-0.473560	0.521138
N145	N	-0.450012	-1.176501	-0.320722
N146	N	-0.200012	-0.926501	-0.070722
N147	N	0.049988	-0.676501	0.179278
N148	N	0.299988	-0.426501	0.429278
C149	C	-0.328745	-1.457761	-0.229121
C150	C	-0.078745	-1.207761	0.020879
C151	C	0.171255	-0.957761	0.270879
C152	C	0.421255	-0.707761	0.520879
N153	N	-0.308194	-1.504751	-0.321103
N154	N	-0.058194	-1.254751	-0.071103
N155	N	0.191806	-1.004751	0.178897
N156	N	0.441806	-0.754751	0.428897
H157	H	-0.449513	-1.538922	-0.000251
H158	H	-0.199513	-1.288922	0.249749
H159	H	0.050487	-1.038922	0.499749
H160	H	0.300487	-0.788922	0.749749
C161	C	-0.429272	-1.223594	0.228635
C162	C	-0.179272	-0.973594	0.478635
C163	C	0.070728	-0.723594	0.728635
C164	C	0.320728	-0.473594	0.978635
N165	N	-0.449916	-1.176531	0.320505
N166	N	-0.199916	-0.926531	0.570505
N167	N	0.050084	-0.676531	0.820505
N168	N	0.300084	-0.426531	1.070505
C169	C	-0.328516	-1.457806	0.228624
C170	C	-0.078516	-1.207806	0.478624
C171	C	0.171484	-0.957806	0.728624
C172	C	0.421484	-0.707806	0.978624
N173	N	-0.307813	-1.504807	0.320508
N174	N	-0.057813	-1.254807	0.570508
N175	N	0.192187	-1.004807	0.820508
N176	N	0.442187	-0.754807	1.070508
