data_functionalizedCrystal
_audit_creation_method	'MofGen! by Chris Wilmer'
_symmetry_space_group_name_H-M	'P1'
_symmetry_Int_Tables_number	1
_symmetry_cell_setting	triclinic
loop_
_symmetry_equiv_pos_as_xyz
  x,y,z
_cell_length_a	10.968094
_cell_length_b	15.538191
_cell_length_c	9.482944
_cell_angle_alpha	77.137994
_cell_angle_beta	91.590689
_cell_angle_gamma	66.440016
loop_
_atom_site_label
_atom_site_type_symbol
_atom_site_fract_x
_atom_site_fract_y
_atom_site_fract_z
O1	O	1.570232	0.101956	0.272464
O2	O	1.209767	0.124432	0.182166
O3	O	1.460167	-0.025391	0.244885
O4	O	1.319831	0.251779	0.209744
O5	O	1.437839	-0.051184	0.481083
O6	O	1.187439	0.098639	0.418363
O7	O	1.547903	0.076164	0.508661
Cu8	Cu	1.365632	0.085046	0.485079
Cu9	Cu	1.392038	0.115549	0.205748
O10	O	1.297503	0.225986	0.445941
C11	C	1.153596	0.111850	0.288990
C12	C	1.019495	0.112775	0.255396
C13	C	1.463686	-0.073687	0.366657
C14	C	1.507423	-0.179167	0.377599
C15	C	0.809539	0.100773	0.328048
C16	C	0.948134	0.099822	0.362782
C17	C	1.072924	-0.457943	0.268786
C18	C	1.114050	-0.557062	0.279092
C19	C	1.345376	-0.584306	0.337039
C20	C	1.304270	-0.485186	0.326732
C21	C	1.168043	-0.422012	0.292607
C22	C	1.399388	-0.449255	0.350552
C23	C	1.358285	-0.350145	0.340252
C24	C	1.222062	-0.286965	0.306133
C25	C	1.126939	-0.322901	0.282307
C26	C	1.535615	-0.512433	0.384687
C27	C	1.630733	-0.476502	0.408507
C28	C	1.589631	-0.377388	0.398198
C29	C	1.453408	-0.314208	0.364078
C30	C	1.684754	-0.341452	0.422024
C31	C	1.643650	-0.242341	0.411724
C32	C	1.412304	-0.215098	0.353779
C33	C	1.604075	0.088746	0.401834
C34	C	1.738177	0.087822	0.435418
C35	C	1.293984	0.274283	0.324166
C36	C	1.250249	0.379764	0.313215
N37	N	1.347069	0.063591	0.681547
N38	N	1.410615	0.136997	0.009283
C39	C	1.371129	0.091367	0.927189
C40	C	1.386560	0.109227	0.763639
H41	H	0.768032	0.112559	0.210411
H42	H	1.016009	-0.271459	0.254508
H43	H	0.961995	-0.406500	0.240988
H44	H	1.741649	-0.527952	0.436298
H45	H	0.989642	0.088025	0.480429
O46	O	1.464429	0.199498	0.948821
C47	C	1.385220	0.292750	0.966049
H48	H	1.326160	0.286075	1.061817
H49	H	1.312589	0.338202	0.862235
C50	C	1.549127	0.350432	0.878112
C51	C	1.476597	0.342233	0.995744
H52	H	1.605490	0.380959	0.896423
H53	H	1.602491	0.287608	0.866500
H54	H	1.488589	0.388306	0.791612
H55	H	1.537135	0.304351	1.082237
H56	H	1.423246	0.405053	1.007371
O57	O	0.787469	0.073871	0.575802
C58	C	0.699633	0.148101	0.634017
H59	H	0.594980	0.180241	0.570457
H60	H	0.737398	0.207388	0.625107
C61	C	0.822576	0.066208	0.873567
C62	C	0.694036	0.105677	0.795509
H63	H	0.819127	0.040041	0.973185
H64	H	0.881756	0.016199	0.834347
H65	H	0.854033	0.115621	0.866126
H66	H	0.662588	0.056262	0.802936
H67	H	0.634850	0.155677	0.834735
O68	O	0.969835	0.127011	0.115038
C69	C	0.847908	0.210891	0.076730
H70	H	0.844281	0.260365	0.150569
H71	H	0.760416	0.189085	0.090353
C72	C	0.842265	0.204378	-0.173953
C73	C	0.837815	0.265146	-0.083271
H74	H	0.836034	0.237844	-0.272651
H75	H	0.924406	0.147865	-0.148145
H76	H	0.769353	0.186211	-0.162583
H77	H	0.910735	0.283302	-0.094628
H78	H	0.755685	0.321664	-0.109086
H79	H	1.795669	-0.392905	0.449822
O80	O	1.440378	0.171732	0.703183
C81	C	1.361168	0.264985	0.720411
H82	H	1.302108	0.258310	0.816179
H83	H	1.288538	0.310436	0.616597
C84	C	1.525076	0.322667	0.632474
C85	C	1.452545	0.314468	0.750106
H86	H	1.581439	0.353193	0.650785
H87	H	1.578439	0.259842	0.620862
H88	H	1.464537	0.360540	0.545974
H89	H	1.513083	0.276585	0.836599
H90	H	1.399194	0.377287	0.761733
H91	H	1.301838	0.011299	0.732337
O92	O	1.735934	-0.207293	0.434634
C93	C	1.730655	-0.137440	0.308066
H94	H	1.627923	-0.106321	0.240588
H95	H	1.811677	-0.173002	0.240672
C96	C	1.880391	-0.093352	0.434880
C97	C	1.754210	-0.055126	0.352008
H98	H	1.894927	-0.042579	0.461983
H99	H	1.883953	-0.140417	0.520150
H100	H	1.947896	-0.122987	0.378706
H101	H	1.686708	-0.025503	0.408188
H102	H	1.750637	-0.008054	0.266748
O103	O	1.279953	-0.153792	0.320418
C104	C	1.231206	-0.156345	0.182957
H105	H	1.297788	-0.227730	0.157893
H106	H	1.232225	-0.093106	0.095523
C107	C	1.004865	-0.060455	0.215551
C108	C	1.086636	-0.148135	0.184772
H109	H	0.915685	-0.055386	0.216666
H110	H	1.037706	-0.058731	0.308159
H111	H	1.005729	-0.007765	0.142685
H112	H	1.085784	-0.200823	0.257647
H113	H	1.053791	-0.149867	0.092176
H114	H	1.036581	-0.586313	0.259713
O115	O	1.477655	-0.645803	0.370109
C116	C	1.493538	-0.740991	0.374134
H117	H	1.403967	-0.737941	0.305930
H118	H	1.499978	-0.782132	0.491748
C119	C	1.733195	-0.797262	0.395553
C120	C	1.623188	-0.793516	0.311773
H121	H	1.813171	-0.829664	0.357093
H122	H	1.722496	-0.733133	0.392847
H123	H	1.738544	-0.831544	0.493559
H124	H	1.617830	-0.759224	0.213774
H125	H	1.633889	-0.857640	0.314461
H126	H	1.188597	-0.206264	0.297756
H127	H	1.569078	-0.593133	0.393059
H128	H	1.325907	0.039075	0.977989
