data_functionalizedCrystal
_audit_creation_method	'MofGen! by Chris Wilmer'
_symmetry_space_group_name_H-M	'P1'
_symmetry_Int_Tables_number	1
_symmetry_cell_setting	triclinic
loop_
_symmetry_equiv_pos_as_xyz
  x,y,z
_cell_length_a	21.395362
_cell_length_b	15.297327
_cell_length_c	15.298259
_cell_angle_alpha	91.656652
_cell_angle_beta	80.357612
_cell_angle_gamma	99.725883
loop_
_atom_site_label
_atom_site_type_symbol
_atom_site_fract_x
_atom_site_fract_y
_atom_site_fract_z
Zn1	Zn	0.859493	-0.262567	0.555940
Zn2	Zn	0.853313	-0.434418	0.434798
Zn3	Zn	0.769262	-0.287998	0.409448
Zn4	Zn	0.734046	-0.409069	0.581169
O5	O	0.804029	-0.348513	0.495339
O6	O	0.946350	-0.285329	0.539921
O7	O	0.854315	-0.436247	0.308871
O8	O	0.798556	-0.162035	0.407712
O9	O	0.941809	-0.411587	0.450919
O10	O	0.864849	-0.143351	0.515340
O11	O	0.792563	-0.328672	0.290246
O12	O	0.676914	-0.304092	0.432176
O13	O	0.738535	-0.368383	0.700387
O14	O	0.651041	-0.393042	0.558339
O15	O	0.830701	-0.260749	0.681851
O16	O	0.820167	-0.553644	0.475382
O17	O	0.732542	-0.535020	0.582921
C18	C	0.641244	-0.348577	0.495245
C19	C	0.571600	-0.348621	0.495230
C20	C	0.771878	-0.576115	0.534659
C21	C	0.758178	-0.673479	0.551510
C22	C	0.525429	-0.395027	0.560852
C23	C	0.459992	-0.394998	0.560887
C24	C	0.440730	-0.348577	0.495286
C25	C	0.486911	-0.302161	0.429658
C26	C	0.552346	-0.302184	0.429630
C27	C	0.345836	-0.355186	0.415216
C28	C	0.280401	-0.355170	0.415244
C29	C	0.238908	-0.348503	0.495373
C30	C	0.262854	-0.341870	0.575480
C31	C	0.328288	-0.341892	0.575451
C32	C	0.369778	-0.348547	0.495310
C33	C	0.121782	-0.394880	0.561039
C34	C	0.056346	-0.394845	0.561074
C35	C	0.083265	-0.302014	0.429839
C36	C	0.148701	-0.302043	0.429810
C37	C	0.167955	-0.348480	0.495410
C38	C	0.902171	-0.986567	0.375203
C39	C	0.915043	-0.895089	0.359366
C40	C	0.875828	-0.839682	0.407401
C41	C	0.823739	-0.875762	0.471275
C42	C	0.810863	-0.967249	0.487108
C43	C	0.784520	-0.820365	0.519306
C44	C	0.732430	-0.856444	0.583180
C45	C	0.719557	-0.947923	0.599011
C46	C	0.758772	-1.003330	0.550976
C47	C	0.797396	-0.728877	0.503473
C48	C	0.706087	-0.709560	0.615378
C49	C	0.693216	-0.801037	0.631214
C50	C	0.967448	-0.348449	0.495433
C51	C	1.037088	-0.348422	0.495474
C52	C	0.781379	-0.308901	0.723788
C53	C	0.771728	-0.292021	0.821139
C54	C	0.836320	-0.120018	0.455884
C55	C	0.850081	-0.022648	0.439071
C56	C	0.826635	-0.387907	0.267768
C57	C	0.836442	-0.404540	0.170375
C58	C	0.873126	-0.468481	1.134337
C59	C	0.882191	-0.484346	1.042872
C60	C	0.854576	-0.436266	0.987434
C61	C	0.817895	-0.372319	1.023471
C62	C	0.808826	-0.356457	1.114946
C63	C	0.790275	-0.324242	0.968043
C64	C	0.753594	-0.260295	1.004079
C65	C	0.744527	-0.244435	1.095545
C66	C	0.772142	-0.292515	1.150983
C67	C	0.799344	-0.340104	0.876568
C68	C	0.735044	-0.228080	0.857176
C69	C	0.725979	-0.212215	0.948641
H70	H	0.541100	-0.432838	0.614269
C71	C	0.685629	-0.141880	0.988285
H72	H	0.670483	-0.115509	0.942173
H73	H	0.650058	-0.169212	1.029741
H74	H	0.711460	-0.097513	1.017387
C75	C	0.704663	-0.175188	0.796208
H76	H	0.681510	-0.134842	0.830771
H77	H	0.737561	-0.143197	0.753947
H78	H	0.676163	-0.214905	0.766300
C79	C	0.409198	-0.445986	0.633116
H80	H	0.430038	-0.473630	0.672191
H81	H	0.384668	-0.405856	0.665539
H82	H	0.381559	-0.489926	0.606187
H83	H	0.714652	-0.192373	1.124884
C84	C	0.922543	-0.554674	1.003236
H85	H	0.937697	-0.581029	1.049349
H86	H	0.896723	-0.599041	0.974128
H87	H	0.958118	-0.527330	0.961784
H88	H	0.829215	-0.392166	0.847235
H89	H	0.674154	-0.664447	0.654490
H90	H	0.677136	-0.977297	0.651011
C91	C	0.354631	-0.334594	0.663557
H92	H	0.399543	-0.335570	0.652061
H93	H	0.347010	-0.280594	0.692264
H94	H	0.333598	-0.383131	0.700700
C95	C	0.744615	-1.103955	0.568403
H96	H	0.707978	-1.117509	0.613325
H97	H	0.736503	-1.134502	0.515457
H98	H	0.780632	-1.121931	0.587198
H99	H	0.839807	-0.699510	0.451466
C100	C	0.217220	-0.334533	0.663626
H101	H	0.174821	-0.335458	0.652173
H102	H	0.217631	-0.383069	0.700763
H103	H	0.231049	-0.280533	0.692315
C104	C	0.903497	-0.521362	1.195318
H105	H	0.892843	-0.502752	1.254953
H106	H	0.887495	-0.582824	1.190486
H107	H	0.948895	-0.511120	1.178141
H108	H	0.650804	-0.830426	0.683221
H109	H	0.886311	-0.765198	0.394502
H110	H	0.861958	-0.449189	0.912960
H111	H	0.589940	-0.264392	0.376192
C112	C	0.142966	-0.445947	0.633201
H113	H	0.106094	-0.473570	0.672298
H114	H	0.166402	-0.489895	0.606211
H115	H	0.169463	-0.405871	0.665627
C116	C	0.005556	-0.445908	0.633252
H117	H	0.026398	-0.473577	0.672306
H118	H	-0.019007	-0.405836	0.665713
H119	H	-0.022052	-0.489834	0.606261
H120	H	0.067583	-0.264212	0.376428
C121	C	0.199490	-0.251009	0.357615
H122	H	0.178648	-0.223364	0.318545
H123	H	0.227108	-0.207081	0.384581
H124	H	0.224043	-0.291106	0.325166
H125	H	0.957453	-0.865717	0.307360
C126	C	0.762170	-0.275061	1.251596
H127	H	0.736371	-0.230090	1.265120
H128	H	0.741298	-0.328007	1.282049
H129	H	0.802697	-0.256302	1.269687
C130	C	0.945302	-1.047513	0.322376
H131	H	0.930175	-1.107162	0.340959
H132	H	0.944110	-1.042766	0.260923
H133	H	0.988235	-1.030217	0.332669
C134	C	0.391480	-0.362470	0.327065
H135	H	0.367848	-0.366416	0.279363
H136	H	0.424062	-0.311474	0.319530
H137	H	0.410681	-0.414016	0.327915
C138	C	0.254055	-0.362528	0.327140
H139	H	0.209138	-0.361590	0.338634
H140	H	0.275073	-0.314018	0.289961
H141	H	0.261689	-0.416548	0.298476
C142	C	0.465724	-0.251099	0.357499
H143	H	0.420140	-0.257739	0.366909
H144	H	0.483506	-0.190025	0.360245
H145	H	0.480450	-0.274044	0.300822
