data_functionalizedCrystal
_audit_creation_method	'MofGen! by Chris Wilmer'
_symmetry_space_group_name_H-M	'P1'
_symmetry_Int_Tables_number	1
_symmetry_cell_setting	triclinic
loop_
_symmetry_equiv_pos_as_xyz
  x,y,z
_cell_length_a	27.732048
_cell_length_b	27.732048
_cell_length_c	14.421503
_cell_angle_alpha	89.997938
_cell_angle_beta	89.987968
_cell_angle_gamma	97.357346
loop_
_atom_site_label
_atom_site_type_symbol
_atom_site_fract_x
_atom_site_fract_y
_atom_site_fract_z
O1	O	-0.057510	0.640930	-0.076978
O2	O	0.275823	0.974263	0.256356
O3	O	0.609156	1.307597	0.589689
O4	O	-0.066256	0.500137	-0.077003
O5	O	0.267078	0.833470	0.256330
O6	O	0.600411	1.166803	0.589663
O7	O	0.008514	0.574906	-0.077002
O8	O	0.341847	0.908239	0.256331
O9	O	0.675180	1.241573	0.589665
O10	O	-0.132280	0.566161	-0.076979
O11	O	0.201054	0.899494	0.256354
O12	O	0.534387	1.232827	0.589688
O13	O	0.008503	0.574894	0.077222
O14	O	0.341836	0.908227	0.410555
O15	O	0.675169	1.241560	0.743888
O16	O	-0.066267	0.500124	0.077220
O17	O	0.267066	0.833458	0.410554
O18	O	0.600400	1.166791	0.743887
O19	O	-0.057521	0.640918	0.077246
O20	O	0.275812	0.974251	0.410579
O21	O	0.609145	1.307584	0.743913
Cu22	Cu	-0.061895	0.570520	0.091315
Cu23	Cu	0.271438	0.903853	0.424648
Cu24	Cu	0.604771	1.237187	0.757982
Cu25	Cu	-0.061882	0.570535	-0.091072
Cu26	Cu	0.271451	0.903868	0.242261
Cu27	Cu	0.604785	1.237201	0.575594
O28	O	-0.132291	0.566148	0.077245
O29	O	0.201042	0.899482	0.410578
O30	O	0.534376	1.232815	0.743911
C31	C	-0.066078	0.482124	0.000105
C32	C	0.267256	0.815457	0.333438
C33	C	0.600589	1.148790	0.666772
C34	C	-0.065525	0.428469	0.000094
C35	C	0.267808	0.761802	0.333428
C36	C	0.601142	1.095135	0.666761
C37	C	-0.106229	0.089654	0.000141
C38	C	0.227105	0.422987	0.333474
C39	C	0.560438	0.756320	0.666808
C40	C	-0.104178	-0.112006	0.000149
C41	C	0.229156	0.221327	0.333482
C42	C	0.562489	0.554661	0.666816
O43	O	-0.141398	-0.143262	0.000195
O44	O	0.191935	0.190072	0.333528
O45	O	0.525268	0.523405	0.666862
N46	N	-0.059843	-0.131130	0.000140
N47	N	0.273491	0.202204	0.333473
N48	N	0.606824	0.535537	0.666807
C49	C	-0.016017	-0.099835	0.000135
C50	C	0.317316	0.233498	0.333469
C51	C	0.650650	0.566832	0.666802
O52	O	0.021740	-0.120728	0.000137
O53	O	0.355073	0.212605	0.333471
O54	O	0.688407	0.545938	0.666804
C55	C	-0.018068	0.101824	0.000134
C56	C	0.315265	0.435157	0.333467
C57	C	0.648598	0.768490	0.666801
C58	C	-0.062407	0.120944	0.000133
C59	C	0.270927	0.454278	0.333467
C60	C	0.604260	0.787611	0.666800
C61	C	-0.150563	0.108775	0.000141
C62	C	0.182770	0.442108	0.333475
C63	C	0.516103	0.775442	0.666808
C64	C	-0.151076	0.159187	0.000134
C65	C	0.182258	0.492520	0.333468
C66	C	0.515591	0.825853	0.666801
C67	C	-0.107253	0.190477	0.000127
C68	C	0.226080	0.523811	0.333460
C69	C	0.559413	0.857144	0.666794
C70	C	-0.062919	0.171356	0.000126
C71	C	0.270415	0.504690	0.333460
C72	C	0.603748	0.838023	0.666793
C73	C	0.025757	0.133117	0.000136
C74	C	0.359090	0.466451	0.333469
C75	C	0.692423	0.799784	0.666803
C76	C	0.025240	0.183535	0.000138
C77	C	0.358573	0.516868	0.333471
C78	C	0.691906	0.850201	0.666805
C79	C	-0.019098	0.202655	0.000137
C80	C	0.314235	0.535989	0.333471
C81	C	0.647568	0.869322	0.666804
C82	C	-0.019609	0.253059	0.000112
C83	C	0.313724	0.586392	0.333445
C84	C	0.647058	0.919725	0.666778
N85	N	-0.063944	0.272183	0.000121
N86	N	0.269389	0.605516	0.333454
N87	N	0.602723	0.938849	0.666787
C88	C	-0.107766	0.240892	0.000128
C89	C	0.225567	0.574225	0.333462
C90	C	0.558900	0.907559	0.666795
C91	C	-0.014943	-0.205709	0.000134
C92	C	0.318390	0.127624	0.333467
C93	C	0.651724	0.460957	0.666801
C94	C	-0.014430	-0.256124	0.000133
C95	C	0.318903	0.077210	0.333466
C96	C	0.652237	0.410543	0.666799
C97	C	-0.102591	-0.268291	0.000148
C98	C	0.230742	0.065042	0.333482
C99	C	0.564076	0.398376	0.666815
C100	C	-0.103104	-0.217876	0.000143
C101	C	0.230230	0.115458	0.333476
C102	C	0.563563	0.448791	0.666810
C103	C	-0.059278	-0.186585	0.000143
C104	C	0.274055	0.146748	0.333476
C105	C	0.607388	0.480081	0.666810
C106	C	-0.108839	0.346761	0.000113
C107	C	0.224495	0.680094	0.333446
C108	C	0.557828	1.013428	0.666779
C109	C	-0.109347	0.397178	0.000102
C110	C	0.223986	0.730511	0.333435
C111	C	0.557319	1.063845	0.666768
C112	C	-0.021186	0.409341	0.000091
C113	C	0.312147	0.742674	0.333425
C114	C	0.645480	1.076008	0.666758
C115	C	-0.020678	0.358929	0.000097
C116	C	0.312656	0.692262	0.333431
C117	C	0.645989	1.025595	0.666764
C118	C	-0.064508	0.327639	0.000111
C119	C	0.268825	0.660973	0.333444
C120	C	0.602159	0.994306	0.666778
O121	O	0.017592	0.284343	0.000076
O122	O	0.350925	0.617676	0.333409
O123	O	0.684259	0.951009	0.666743
O124	O	-0.145518	0.261794	0.000147
O125	O	0.187816	0.595128	0.333480
O126	O	0.521149	0.928461	0.666813
C127	C	-0.105716	0.039242	0.000148
C128	C	0.227617	0.372575	0.333481
C129	C	0.560950	0.705908	0.666815
C130	C	-0.061382	0.020120	0.000148
C131	C	0.271951	0.353454	0.333481
C132	C	0.605285	0.686787	0.666814
C133	C	-0.017560	0.051411	0.000140
C134	C	0.315774	0.384744	0.333473
C135	C	0.649107	0.718078	0.666807
C136	C	-0.060869	-0.030294	0.000146
C137	C	0.272464	0.303039	0.333480
C138	C	0.605798	0.636373	0.666813
C139	C	-0.104691	-0.061585	0.000154
C140	C	0.228642	0.271749	0.333487
C141	C	0.561975	0.605082	0.666820
C142	C	-0.149026	-0.042461	0.000163
C143	C	0.184307	0.290872	0.333496
C144	C	0.517640	0.624206	0.666829
C145	C	-0.149539	0.007951	0.000156
C146	C	0.183795	0.341284	0.333489
C147	C	0.517128	0.674618	0.666822
C148	C	0.026775	0.032287	0.000131
C149	C	0.360109	0.365621	0.333464
C150	C	0.693442	0.698954	0.666798
C151	C	0.027284	-0.018125	0.000137
C152	C	0.360617	0.315208	0.333470
C153	C	0.693951	0.648541	0.666804
C154	C	-0.016538	-0.049416	0.000145
C155	C	0.316795	0.283917	0.333478
C156	C	0.650129	0.617251	0.666811
C157	C	-0.150292	0.566338	0.000136
C158	C	0.183041	0.899671	0.333469
C159	C	0.516374	1.233005	0.666803
C160	C	-0.203947	0.566891	0.000145
C161	C	0.129386	0.900224	0.333479
C162	C	0.462720	1.233557	0.666812
C163	C	-0.542762	0.526187	0.000093
C164	C	-0.209429	0.859520	0.333426
C165	C	0.123904	1.192854	0.666760
C166	C	-0.744422	0.528238	0.000082
C167	C	-0.411088	0.861571	0.333416
C168	C	-0.077755	1.194905	0.666749
O169	O	-0.775677	0.491017	0.000035
O170	O	-0.442344	0.824351	0.333368
O171	O	-0.109011	1.157684	0.666702
N172	N	-0.763546	0.572573	0.000092
N173	N	-0.430212	0.905907	0.333425
N174	N	-0.096879	1.239240	0.666758
C175	C	-0.732251	0.616399	0.000098
C176	C	-0.398918	0.949732	0.333431
C177	C	-0.065584	1.283066	0.666764
O178	O	-0.753144	0.654156	0.000096
O179	O	-0.419811	0.987489	0.333429
O180	O	-0.086477	1.320822	0.666763
C181	C	-0.530592	0.614347	0.000102
C182	C	-0.197259	0.947681	0.333435
C183	C	0.136074	1.281014	0.666769
C184	C	-0.511472	0.570009	0.000102
C185	C	-0.178138	0.903343	0.333435
C186	C	0.155195	1.236676	0.666768
C187	C	-0.523641	0.481853	0.000092
C188	C	-0.190308	0.815186	0.333425
C189	C	0.143026	1.148519	0.666759
C190	C	-0.473229	0.481340	0.000100
C191	C	-0.139896	0.814674	0.333433
C192	C	0.193438	1.148007	0.666766
C193	C	-0.441938	0.525162	0.000108
C194	C	-0.108605	0.858496	0.333442
C195	C	0.224728	1.191829	0.666775
C196	C	-0.461060	0.569497	0.000110
C197	C	-0.127726	0.902830	0.333443
C198	C	0.205607	1.236164	0.666776
C199	C	-0.499299	0.658172	0.000101
C200	C	-0.165965	0.991506	0.333435
C201	C	0.167368	1.324839	0.666768
C202	C	-0.448881	0.657656	0.000100
C203	C	-0.115548	0.990989	0.333433
C204	C	0.217785	1.324322	0.666767
C205	C	-0.429761	0.613317	0.000100
C206	C	-0.096427	0.946651	0.333433
C207	C	0.236906	1.279984	0.666767
C208	C	-0.379357	0.612807	0.000126
C209	C	-0.046024	0.946140	0.333459
C210	C	0.287310	1.279474	0.666793
N211	N	-0.360233	0.568472	0.000117
N212	N	-0.026900	0.901805	0.333450
N213	N	0.306433	1.235138	0.666783
C214	C	-0.391524	0.524649	0.000108
C215	C	-0.058191	0.857983	0.333441
C216	C	0.275143	1.191316	0.666774
C217	C	-0.838125	0.617473	0.000098
C218	C	-0.504792	0.950806	0.333431
C219	C	-0.171458	1.284139	0.666764
C220	C	-0.888539	0.617986	0.000098
C221	C	-0.555206	0.951319	0.333432
C222	C	-0.221873	1.284652	0.666765
C223	C	-0.900707	0.529825	0.000081
C224	C	-0.567374	0.863158	0.333414
C225	C	-0.234040	1.196491	0.666748
C226	C	-0.850291	0.529312	0.000087
C227	C	-0.516958	0.862646	0.333420
C228	C	-0.183625	1.195979	0.666754
C229	C	-0.819001	0.573138	0.000088
C230	C	-0.485668	0.906471	0.333421
C231	C	-0.152335	1.239804	0.666755
C232	C	-0.285655	0.523577	0.000125
C233	C	0.047679	0.856910	0.333458
C234	C	0.381012	1.190244	0.666791
C235	C	-0.235238	0.523069	0.000136
C236	C	0.098096	0.856402	0.333470
C237	C	0.431429	1.189735	0.666803
C238	C	-0.223075	0.611229	0.000149
C239	C	0.110259	0.944563	0.333482
C240	C	0.443592	1.277896	0.666815
C241	C	-0.273487	0.611738	0.000142
C242	C	0.059846	0.945071	0.333475
C243	C	0.393179	1.278405	0.666809
C244	C	-0.304777	0.567908	0.000127
C245	C	0.028557	0.901241	0.333460
C246	C	0.361890	1.234575	0.666794
O247	O	-0.348073	0.650008	0.000163
O248	O	-0.014740	0.983341	0.333496
O249	O	0.318594	1.316674	0.666830
O250	O	-0.370621	0.486898	0.000089
O251	O	-0.037288	0.820231	0.333422
O252	O	0.296045	1.153565	0.666756
C253	C	-0.593174	0.526699	0.000085
C254	C	-0.259841	0.860033	0.333419
C255	C	0.073493	1.193366	0.666752
C256	C	-0.612295	0.571034	0.000086
C257	C	-0.278962	0.904367	0.333420
C258	C	0.054371	1.237700	0.666753
C259	C	-0.581005	0.614856	0.000095
C260	C	-0.247671	0.948189	0.333429
C261	C	0.085662	1.281523	0.666762
C262	C	-0.662710	0.571547	0.000087
C263	C	-0.329377	0.904880	0.333420
C264	C	0.003957	1.238213	0.666754
C265	C	-0.694001	0.527725	0.000078
C266	C	-0.360667	0.861058	0.333411
C267	C	-0.027334	1.194391	0.666745
C268	C	-0.674877	0.483389	0.000069
C269	C	-0.341543	0.816723	0.333402
C270	C	-0.008210	1.150056	0.666735
C271	C	-0.624465	0.482877	0.000076
C272	C	-0.291131	0.816210	0.333410
C273	C	0.042202	1.149544	0.666743
C274	C	-0.600129	0.659191	0.000105
C275	C	-0.266795	0.992525	0.333438
C276	C	0.066538	1.325858	0.666771
C277	C	-0.650541	0.659700	0.000098
C278	C	-0.317208	0.993033	0.333431
C279	C	0.016126	1.326367	0.666765
C280	C	-0.681832	0.615878	0.000089
C281	C	-0.348498	0.949211	0.333422
C282	C	-0.015165	1.282544	0.666756
C283	C	0.026515	0.574716	0.000105
C284	C	0.359848	0.908050	0.333438
C285	C	0.693182	1.241383	0.666771
C286	C	0.080170	0.574164	0.000089
C287	C	0.413503	0.907497	0.333423
C288	C	0.746837	1.240830	0.666756
C289	C	-0.057699	0.658931	0.000136
C290	C	0.275634	0.992264	0.333469
C291	C	0.608967	1.325598	0.666802
C292	C	-0.058252	0.712586	0.000140
C293	C	0.275081	1.045919	0.333474
C294	C	0.608414	1.379252	0.666807
N295	N	-0.061904	0.570513	0.219596
N296	N	0.271429	0.903846	0.552929
N297	N	0.604763	1.237180	0.886263
N298	N	-0.061869	0.570545	-0.219353
N299	N	0.271464	0.903878	0.113980
N300	N	0.604797	1.237212	0.447313
C301	C	-0.096462	0.535934	0.469249
C302	C	0.236871	0.869267	0.802582
C303	C	0.570205	1.202600	1.135916
C304	C	-0.105518	0.579543	0.531062
C305	C	0.227815	0.912876	0.864395
C306	C	0.561149	1.246209	1.197729
C307	C	-0.061892	0.570525	0.408758
C308	C	0.271441	0.903858	0.742091
C309	C	0.604774	1.237192	1.075424
C310	C	-0.052848	0.526927	0.531039
C311	C	0.280486	0.860260	0.864372
C312	C	0.613819	1.193594	1.197705
C313	C	-0.061882	0.570532	0.591479
C314	C	0.271451	0.903866	0.924812
C315	C	0.604784	1.237199	1.258146
C316	C	-0.070970	0.614156	0.469210
C317	C	0.262363	0.947489	0.802543
C318	C	0.595697	1.280823	1.135876
C319	C	-0.018281	0.561512	0.469181
C320	C	0.315052	0.894845	0.802514
C321	C	0.648386	1.228178	1.135847
C322	C	-0.027318	0.605152	0.530966
C323	C	0.306015	0.938486	0.864299
C324	C	0.639349	1.271819	1.197632
C325	C	-0.061900	0.570520	0.303496
C326	C	0.271434	0.903853	0.636830
C327	C	0.604767	1.237187	0.970163
C328	C	-0.061875	0.570543	0.696738
C329	C	0.271458	0.903876	1.030071
C330	C	0.604792	1.237209	1.363405
H331	H	0.061861	0.117558	0.000137
H332	H	0.395195	0.450892	0.333470
H333	H	0.728528	0.784225	0.666804
H334	H	-0.184708	-0.067947	0.000165
H335	H	0.148625	0.265386	0.333498
H336	H	0.481959	0.598720	0.666832
Br337	Br	-0.145224	0.487226	0.424077
Br338	Br	0.188110	0.820559	0.757411
Br339	Br	0.521443	1.153893	1.090744
H340	H	-0.139207	-0.202311	0.000148
H341	H	0.194126	0.131022	0.333481
H342	H	0.527459	0.464355	0.666814
H343	H	-0.219673	0.486962	0.000141
H344	H	0.113660	0.820295	0.333474
H345	H	0.446994	1.153628	0.666807
H346	H	0.014492	0.434827	0.000082
H347	H	0.347826	0.768160	0.333415
H348	H	0.681159	1.101494	0.666748
H349	H	0.018584	0.553867	0.441979
H350	H	0.351917	0.887201	0.775312
H351	H	0.685251	1.220534	1.108646
Br352	Br	0.021419	0.653964	0.575856
Br353	Br	0.354752	0.987298	0.909189
Br354	Br	0.688085	1.320631	1.242522
H355	H	-0.812652	0.653163	0.000100
H356	H	-0.479319	0.986496	0.333433
H357	H	-0.145985	1.319829	0.666767
Br358	Br	0.084721	0.225997	0.000143
Br359	Br	0.418054	0.559331	0.333476
Br360	Br	0.751387	0.892664	0.666810
H361	H	-0.045202	0.490054	0.558200
H362	H	0.288131	0.823387	0.891534
H363	H	0.621464	1.156721	1.224867
Br364	Br	-0.166981	0.592263	0.576364
Br365	Br	0.166352	0.925597	0.909697
Br366	Br	0.499686	1.258930	1.243031
Br367	Br	-0.299438	0.671911	0.000182
Br368	Br	0.033895	1.005245	0.333515
Br369	Br	0.367229	1.338578	0.666848
H370	H	-0.078660	0.651037	0.442165
H371	H	0.254673	0.984370	0.775498
H372	H	0.588007	1.317703	1.108831
H373	H	-0.145454	0.412743	0.000101
H374	H	0.187879	0.746076	0.333434
H375	H	0.521213	1.079410	0.666767
Br376	Br	-0.598524	0.422701	0.000076
Br377	Br	-0.265190	0.756034	0.333410
Br378	Br	0.068143	1.089367	0.666743
Br379	Br	0.039496	0.332978	0.000101
Br380	Br	0.372829	0.666311	0.333434
Br381	Br	0.706162	0.999644	0.666768
H382	H	-0.185643	0.023514	0.000156
H383	H	0.147690	0.356847	0.333490
H384	H	0.481023	0.690181	0.666823
H385	H	-0.187180	0.174750	0.000134
H386	H	0.146153	0.508083	0.333467
H387	H	0.479487	0.841417	0.666800
Br388	Br	-0.717353	0.423917	0.000063
Br389	Br	-0.384019	0.757250	0.333396
Br390	Br	-0.050686	1.090584	0.666730
Br391	Br	-0.168323	0.304305	0.000133
Br392	Br	0.165010	0.637638	0.333466
Br393	Br	0.498344	0.970971	0.666800
H394	H	-0.186251	0.083302	0.000151
H395	H	0.147083	0.416636	0.333484
H396	H	0.480416	0.749969	0.666818
Br397	Br	0.086255	0.074746	0.000124
Br398	Br	0.419588	0.408079	0.333457
Br399	Br	0.752922	0.741413	0.666791
H400	H	-0.138273	-0.293777	0.000155
H401	H	0.195061	0.039557	0.333488
H402	H	0.528394	0.372890	0.666821
Br403	Br	0.045745	-0.282067	0.000106
Br404	Br	0.379079	0.051267	0.333439
Br405	Br	0.712412	0.384600	0.666772
H406	H	0.020747	-0.180236	0.000134
H407	H	0.354080	0.153097	0.333468
H408	H	0.687414	0.486430	0.666801
Br409	Br	-0.824347	0.469137	0.000087
Br410	Br	-0.491014	0.802471	0.333420
Br411	Br	-0.157681	1.135804	0.666754
H412	H	-0.423407	0.693344	0.000096
H413	H	-0.090073	1.026678	0.333429
H414	H	0.243260	1.360011	0.666763
H415	H	-0.311125	0.487886	0.000112
H416	H	0.022208	0.821220	0.333446
H417	H	0.355542	1.154553	0.666779
Br418	Br	0.087463	-0.044068	0.000122
Br419	Br	0.420796	0.289266	0.333456
Br420	Br	0.754130	0.622599	0.666789
H421	H	-0.457666	0.445236	0.000092
H422	H	-0.124333	0.778569	0.333425
H423	H	0.209001	1.111902	0.666758
H424	H	-0.926193	0.494143	0.000078
H425	H	-0.592859	0.827476	0.333411
H426	H	-0.259526	1.160810	0.666744
Br427	Br	-0.914482	0.678161	0.000116
Br428	Br	-0.581149	1.011495	0.333449
Br429	Br	-0.247816	1.344828	0.666783
H430	H	-0.549113	0.446165	0.000082
H431	H	-0.215780	0.779499	0.333415
H432	H	0.117553	1.112832	0.666748
H433	H	-0.514857	0.694277	0.000101
H434	H	-0.181524	1.027610	0.333434
H435	H	0.151809	1.360944	0.666767
Br436	Br	-0.180600	0.670699	0.000170
Br437	Br	0.152734	1.004033	0.333504
Br438	Br	0.486067	1.337366	0.666837
H439	H	-0.666104	0.695808	0.000105
H440	H	-0.332770	1.029141	0.333439
H441	H	0.000563	1.362475	0.666772
Br442	Br	-0.557670	0.718671	0.000118
Br443	Br	-0.224336	1.052004	0.333451
Br444	Br	0.108997	1.385337	0.666784
