data_functionalizedCrystal
_audit_creation_method	'MofGen! by Chris Wilmer'
_symmetry_space_group_name_H-M	'P1'
_symmetry_Int_Tables_number	1
_symmetry_cell_setting	triclinic
loop_
_symmetry_equiv_pos_as_xyz
  x,y,z
_cell_length_a	15.944493
_cell_length_b	23.532407
_cell_length_c	14.421503
_cell_angle_alpha	89.999621
_cell_angle_beta	89.992936
_cell_angle_gamma	83.161861
loop_
_atom_site_label
_atom_site_type_symbol
_atom_site_fract_x
_atom_site_fract_y
_atom_site_fract_z
O1	O	1.113942	0.073285	-0.077109
O2	O	0.869309	0.082375	-0.077115
O3	O	0.999003	-0.005074	-0.077095
O4	O	0.984249	0.160734	-0.077129
O5	O	0.998981	-0.005061	0.077129
O6	O	0.869288	0.082388	0.077109
O7	O	1.113921	0.073298	0.077114
Cu8	Cu	0.991602	0.077844	0.091193
Cu9	Cu	0.991628	0.077829	-0.091194
O10	O	0.984227	0.160747	0.077094
C11	C	0.838007	0.082010	-0.000004
C12	C	0.744768	0.080896	-0.000005
C13	C	0.508574	0.132371	-0.000016
C14	C	0.458239	0.104619	0.076034
C15	C	0.574064	0.078832	-0.000003
C16	C	0.458265	0.104593	-0.076019
C17	C	0.409171	0.076843	-0.000005
C18	C	0.524957	0.051095	0.076110
C19	C	0.524986	0.051077	-0.076011
C20	C	0.474684	0.023286	0.000058
C21	C	0.669054	0.079980	-0.000001
C22	C	0.314184	0.075691	0.000000
C23	C	0.998616	-0.026285	0.000019
C24	C	0.997486	-0.089506	0.000026
C25	C	1.067151	-0.488350	-0.000023
C26	C	1.066102	-0.547754	-0.000030
O27	O	1.130682	-0.584257	-0.000063
N28	N	0.988999	-0.570668	-0.000031
C29	C	0.912941	-0.534174	-0.000034
O30	O	0.847263	-0.559119	-0.000037
C31	C	0.913991	-0.474771	-0.000034
C32	C	0.991099	-0.451861	-0.000023
C33	C	1.144253	-0.465439	-0.000013
C34	C	1.145302	-0.406038	-0.000004
C35	C	1.069249	-0.369549	-0.000005
C36	C	0.992148	-0.392460	-0.000015
C37	C	0.837934	-0.438278	-0.000044
C38	C	0.838991	-0.378872	-0.000044
C39	C	0.916098	-0.355962	-0.000034
C40	C	0.917144	-0.296571	-0.000007
N41	N	0.994247	-0.273657	-0.000005
C42	C	1.070300	-0.310146	-0.000005
C43	C	0.910741	-0.658925	-0.000037
C44	C	0.909690	-0.718327	-0.000031
C45	C	1.062852	-0.731902	-0.000028
C46	C	1.063902	-0.672499	-0.000027
C47	C	0.987844	-0.636011	-0.000036
C48	C	1.072497	-0.185401	0.000015
C49	C	1.073539	-0.125996	0.000027
C50	C	0.920378	-0.112425	0.000019
C51	C	0.919335	-0.171826	0.000012
C52	C	0.995402	-0.208313	0.000006
O53	O	0.852598	-0.260033	0.000022
O54	O	1.135967	-0.285193	-0.000014
C55	C	1.145223	0.073663	0.000001
C56	C	1.238462	0.074777	-0.000003
C57	C	0.984614	0.181958	-0.000022
C58	C	0.985743	0.245179	-0.000035
N59	N	0.991590	0.077855	0.219475
N60	N	0.991646	0.077814	-0.219475
C61	C	0.931610	0.118273	0.469119
C62	C	1.007419	0.129319	0.530921
C63	C	0.991611	0.077841	0.408636
C64	C	0.915821	0.066808	0.530928
C65	C	0.991624	0.077829	0.591357
C66	C	1.067458	0.088912	0.469077
C67	C	0.975811	0.026380	0.469079
C68	C	1.051675	0.037404	0.530853
C69	C	0.991602	0.077849	0.303375
C70	C	0.991641	0.077820	0.696616
H71	H	0.553966	0.028504	0.140468
C72	C	0.418871	0.135169	0.162875
C73	C	0.351809	0.187549	0.152477
C74	C	0.312444	0.218103	0.239314
C75	C	0.340143	0.196277	0.336551
C76	C	0.407209	0.143895	0.346953
C77	C	0.446573	0.113340	0.260116
H78	H	0.331301	0.203708	0.080493
H79	H	0.262797	0.256880	0.231613
H80	H	0.311003	0.218895	0.400833
H81	H	0.427716	0.127735	0.418937
H82	H	0.496220	0.074563	0.267817
C83	C	1.120299	-0.008796	0.567255
C84	C	1.095544	-0.057837	0.628313
C85	C	1.164170	-0.104033	0.664719
C86	C	1.257551	-0.101187	0.640067
C87	C	1.282312	-0.052144	0.579006
C88	C	1.213686	-0.005948	0.542600
H89	H	1.026413	-0.059945	0.646564
H90	H	1.145840	-0.140338	0.709920
H91	H	1.308353	-0.135384	0.667017
H92	H	1.351443	-0.050035	0.560755
H93	H	1.232015	0.030357	0.497399
H94	H	1.126690	-0.653850	-0.000020
C95	C	0.827070	-0.618790	-0.000029
C96	C	0.763755	-0.621361	-0.080109
C97	C	0.680085	-0.581230	-0.080102
C98	C	0.659731	-0.538527	-0.000015
C99	C	0.723047	-0.535954	0.080071
C100	C	0.806717	-0.576085	0.080064
H101	H	0.778822	-0.652974	-0.139400
H102	H	0.633214	-0.583135	-0.139388
H103	H	0.597793	-0.508820	-0.000010
H104	H	0.707981	-0.504341	0.139362
H105	H	0.853588	-0.574180	0.139350
C106	C	0.755324	-0.338735	-0.000051
C107	C	0.692017	-0.341302	-0.080141
C108	C	0.608352	-0.301166	-0.080145
C109	C	0.587993	-0.258463	-0.000059
C110	C	0.651301	-0.255894	0.080037
C111	C	0.734966	-0.296030	0.080041
H112	H	0.707087	-0.372915	-0.139431
H113	H	0.561487	-0.303068	-0.139438
H114	H	0.526059	-0.228752	-0.000062
H115	H	0.636231	-0.224281	0.139327
H116	H	0.781831	-0.294128	0.139334
C117	C	0.564376	0.020559	-0.162861
C118	C	0.614292	0.053349	-0.232080
C119	C	0.653683	0.022839	-0.318942
C120	C	0.643157	-0.040461	-0.336586
C121	C	0.593239	-0.073255	-0.267365
C122	C	0.553848	-0.042745	-0.180502
H123	H	0.622086	0.100211	-0.219021
H124	H	0.690636	0.047116	-0.370184
H125	H	0.672317	-0.063046	-0.400886
H126	H	0.585445	-0.120117	-0.280423
H127	H	0.516896	-0.067022	-0.129261
C128	C	0.863133	0.164497	0.432488
C129	C	0.887950	0.212895	0.370064
C130	C	0.819478	0.259120	0.333432
C131	C	0.726190	0.256947	0.359224
C132	C	0.701369	0.208547	0.421651
C133	C	0.769841	0.162322	0.458284
H134	H	0.957011	0.214506	0.350968
H135	H	0.837853	0.294949	0.287218
H136	H	0.675504	0.291165	0.332106
H137	H	0.632308	0.206936	0.440747
H138	H	0.751466	0.126493	0.504497
H139	H	0.858458	-0.082705	0.000022
H140	H	0.856548	-0.190480	0.000029
C141	C	0.418930	0.135140	-0.162869
C142	C	0.322960	0.139213	-0.179210
C143	C	0.283628	0.169765	-0.266055
C144	C	0.340266	0.196245	-0.336558
C145	C	0.436242	0.192173	-0.320219
C146	C	0.475574	0.161621	-0.233375
H147	H	0.281028	0.119611	-0.127017
H148	H	0.212580	0.172779	-0.278150
H149	H	0.311149	0.218861	-0.400846
H150	H	0.478173	0.211775	-0.372412
H151	H	0.546622	0.158607	-0.221280
C152	C	0.957711	-0.032385	0.432343
C153	C	0.873945	-0.055360	0.456701
C154	C	0.855833	-0.114125	0.419962
C155	C	0.921487	-0.149915	0.358864
C156	C	1.005259	-0.126940	0.334503
C157	C	1.023371	-0.068176	0.371242
H158	H	0.825338	-0.028866	0.501932
H159	H	0.793819	-0.131131	0.437996
H160	H	0.908080	-0.193416	0.331668
H161	H	1.053866	-0.153435	0.289272
H162	H	1.085385	-0.051169	0.353208
C163	C	1.158363	-0.100796	0.000034
C164	C	1.221386	-0.114572	0.080115
C165	C	1.306207	-0.089375	0.080119
C166	C	1.328004	-0.050401	0.000041
C167	C	1.264978	-0.036623	-0.080046
C168	C	1.180158	-0.061820	-0.080050
H169	H	1.205253	-0.143425	0.139399
H170	H	1.352863	-0.099575	0.139406
H171	H	1.390793	-0.031749	0.000044
H172	H	1.281112	-0.007770	-0.139330
H173	H	1.133502	-0.051620	-0.139337
H174	H	1.124778	-0.761623	-0.000031
H175	H	1.134437	-0.215103	0.000006
C176	C	0.454385	-0.039078	0.000075
C177	C	0.484836	-0.079355	0.080546
C178	C	0.464572	-0.141726	0.080544
C179	C	0.413858	-0.163821	0.000072
C180	C	0.383404	-0.123544	-0.080405
C181	C	0.403668	-0.061172	-0.080403
H182	H	0.522380	-0.063000	0.140122
H183	H	0.487116	-0.171542	0.140119
H184	H	0.398858	-0.209992	0.000070
H185	H	0.345860	-0.139899	-0.139981
H186	H	0.381124	-0.031356	-0.139978
C187	C	1.230124	-0.380844	-0.000011
C188	C	1.293155	-0.394622	0.080064
C189	C	1.377983	-0.369434	0.080050
C190	C	1.399780	-0.330469	-0.000039
C191	C	1.336747	-0.316689	-0.080120
C192	C	1.251919	-0.341877	-0.080106
H193	H	1.277021	-0.423468	0.139356
H194	H	1.424644	-0.379635	0.139331
H195	H	1.462575	-0.311823	-0.000050
H196	H	1.352881	-0.287843	-0.139412
H197	H	1.205259	-0.331676	-0.139388
H198	H	1.206187	-0.495143	-0.000016
H199	H	1.020795	0.172833	0.558084
H200	H	1.131571	0.098291	0.442023
H201	H	0.523809	0.178488	0.000045
C202	C	0.824870	-0.743523	-0.000031
C203	C	0.761827	-0.729750	0.080052
C204	C	0.677004	-0.754944	0.080046
C205	C	0.655222	-0.793909	-0.000043
C206	C	0.718266	-0.807684	-0.080132
C207	C	0.803090	-0.782490	-0.080126
H208	H	0.777950	-0.700904	0.139344
H209	H	0.630334	-0.744747	0.139333
H210	H	0.592430	-0.812559	-0.000048
H211	H	0.702143	-0.836530	-0.139424
H212	H	0.849759	-0.792687	-0.139413
H213	H	0.775145	-0.456921	-0.000058
H214	H	0.851722	0.057483	0.558099
