data_functionalizedCrystal
_audit_creation_method	'MofGen! by Chris Wilmer'
_symmetry_space_group_name_H-M	'P1'
_symmetry_Int_Tables_number	1
_symmetry_cell_setting	triclinic
loop_
_symmetry_equiv_pos_as_xyz
  x,y,z
_cell_length_a	17.077404
_cell_length_b	12.827892
_cell_length_c	17.077396
_cell_angle_alpha	89.974288
_cell_angle_beta	89.982756
_cell_angle_gamma	90.015617
loop_
_atom_site_label
_atom_site_type_symbol
_atom_site_fract_x
_atom_site_fract_y
_atom_site_fract_z
Zn1	Zn	1.200078	-0.416018	-0.443862
Zn2	Zn	1.533411	-0.082685	-0.110529
Zn3	Zn	1.866745	0.250649	0.222804
Zn4	Zn	1.200007	-0.590783	-0.312605
Zn5	Zn	1.533341	-0.257450	0.020729
Zn6	Zn	1.866674	0.075884	0.354062
Zn7	Zn	1.068815	-0.416057	-0.312610
Zn8	Zn	1.402148	-0.082724	0.020723
Zn9	Zn	1.735482	0.250609	0.354056
Zn10	Zn	1.068795	-0.590719	-0.443828
Zn11	Zn	1.402128	-0.257385	-0.110495
Zn12	Zn	1.735462	0.075948	0.222838
O13	O	1.134424	-0.503394	-0.378226
O14	O	1.467757	-0.170061	-0.044893
O15	O	1.801091	0.163272	0.288440
O16	O	1.309916	-0.439212	-0.426463
O17	O	1.643249	-0.105878	-0.093129
O18	O	1.976582	0.227455	0.240204
O19	O	1.182583	-0.567649	-0.202758
O20	O	1.515917	-0.234315	0.130575
O21	O	1.849250	0.099018	0.463908
O22	O	1.086265	-0.269816	-0.330038
O23	O	1.419599	0.063517	0.003295
O24	O	1.752932	0.396851	0.336629
O25	O	1.309864	-0.567611	-0.330028
O26	O	1.643197	-0.234277	0.003305
O27	O	1.976530	0.099056	0.336638
O28	O	1.182704	-0.269787	-0.426468
O29	O	1.516037	0.063546	-0.093135
O30	O	1.849370	0.396879	0.240198
O31	O	1.086197	-0.439279	-0.202763
O32	O	1.419530	-0.105945	0.130571
O33	O	1.752863	0.227388	0.463904
O34	O	0.958965	-0.439216	-0.330005
O35	O	1.292299	-0.105883	0.003329
O36	O	1.625632	0.227451	0.336662
O37	O	1.086231	-0.567501	-0.553680
O38	O	1.419564	-0.234167	-0.220346
O39	O	1.752898	0.099166	0.112987
O40	O	0.958951	-0.567539	-0.426410
O41	O	1.292284	-0.234205	-0.093077
O42	O	1.625617	0.099128	0.240257
O43	O	1.182684	-0.439149	-0.553705
O44	O	1.516018	-0.105816	-0.220371
O45	O	1.849351	0.227518	0.112962
O46	O	1.182564	-0.737011	-0.329995
O47	O	1.515897	-0.403677	0.003338
O48	O	1.849231	-0.070344	0.336672
O49	O	1.086163	-0.736963	-0.426404
O50	O	1.419496	-0.403630	-0.093071
O51	O	1.752829	-0.070296	0.240262
C52	C	0.930476	-0.503375	-0.378205
C53	C	1.263809	-0.170042	-0.044871
C54	C	1.597143	0.163291	0.288462
C55	C	0.843226	-0.503392	-0.378214
C56	C	1.176560	-0.170059	-0.044881
C57	C	1.509893	0.163274	0.288453
C58	C	0.802249	-0.570311	-0.428332
C59	C	1.135582	-0.236978	-0.094998
C60	C	1.468916	0.096356	0.238335
C61	C	0.720269	-0.570313	-0.428344
C62	C	1.053602	-0.236980	-0.095011
C63	C	1.386935	0.096353	0.238322
C64	C	0.679267	-0.503401	-0.378235
C65	C	1.012600	-0.170068	-0.044901
C66	C	1.345933	0.163265	0.288432
C67	C	0.720250	-0.436476	-0.328115
C68	C	1.053583	-0.103142	0.005219
C69	C	1.386916	0.230191	0.338552
C70	C	0.802229	-0.436469	-0.328107
C71	C	1.135562	-0.103135	0.005227
C72	C	1.468895	0.230198	0.338560
C73	C	0.549380	-0.436496	-0.328134
C74	C	0.882713	-0.103163	0.005200
C75	C	1.216046	0.230171	0.338533
C76	C	0.467395	-0.436504	-0.328140
C77	C	0.800728	-0.103171	0.005193
C78	C	1.134062	0.230163	0.338526
C79	C	0.467420	-0.570341	-0.428371
C80	C	0.800753	-0.237007	-0.095038
C81	C	1.134086	0.096326	0.238295
C82	C	0.549398	-0.570334	-0.428363
C83	C	0.882732	-0.237000	-0.095030
C84	C	1.216065	0.096333	0.238303
C85	C	0.590376	-0.503409	-0.378242
C86	C	0.923709	-0.170076	-0.044909
C87	C	1.257042	0.163258	0.288425
C88	C	1.134375	-0.774904	-0.378213
C89	C	1.467708	-0.441571	-0.044879
C90	C	1.801041	-0.108238	0.288454
C91	C	1.134426	-0.891057	-0.378233
C92	C	1.467759	-0.557724	-0.044900
C93	C	1.801092	-0.224391	0.288434
C94	C	1.182185	-0.942831	-0.330579
C95	C	1.515518	-0.609498	0.002754
C96	C	1.848851	-0.276164	0.336087
C97	C	1.182238	-1.062881	-0.330599
C98	C	1.515572	-0.729548	0.002734
C99	C	1.848905	-0.396215	0.336067
C100	C	1.339168	-0.503414	-0.378249
C101	C	1.672501	-0.170081	-0.044915
C102	C	2.005835	0.163253	0.288418
C103	C	1.426418	-0.503422	-0.378258
C104	C	1.759751	-0.170089	-0.044925
C105	C	2.093085	0.163244	0.288409
C106	C	1.134463	-0.503313	-0.582971
C107	C	1.467797	-0.169980	-0.249637
C108	C	1.801130	0.163353	0.083696
C109	C	1.134480	-0.503279	-0.670221
C110	C	1.467813	-0.169946	-0.336887
C111	C	1.801147	0.163388	-0.003554
C112	C	1.134495	-0.230824	-0.378257
C113	C	1.467828	0.102509	-0.044924
C114	C	1.801161	0.435843	0.288409
C115	C	1.134525	-0.114671	-0.378271
C116	C	1.467858	0.218662	-0.044937
C117	C	1.801191	0.551996	0.288396
C118	C	1.084307	-0.436428	-0.711212
C119	C	1.417640	-0.103095	-0.377879
C120	C	1.750974	0.230238	-0.044546
C121	C	1.084320	-0.436405	-0.793193
C122	C	1.417653	-0.103071	-0.459860
C123	C	1.750986	0.230262	-0.126526
C124	C	1.134510	-0.503227	-0.834180
C125	C	1.467844	-0.169894	-0.500847
C126	C	1.801177	0.163440	-0.167513
C127	C	1.184686	-0.570085	-0.793183
C128	C	1.518019	-0.236751	-0.459849
C129	C	1.851352	0.096582	-0.126516
C130	C	1.184668	-0.570113	-0.711204
C131	C	1.518002	-0.236780	-0.377870
C132	C	1.851335	0.096554	-0.044537
C133	C	1.184720	-0.570019	-0.964053
C134	C	1.518053	-0.236686	-0.630719
C135	C	1.851386	0.096647	-0.297386
C136	C	1.184738	-0.569990	-1.046037
C137	C	1.518072	-0.236657	-0.712704
C138	C	1.851405	0.096677	-0.379371
C139	C	1.084371	-0.436311	-1.046042
C140	C	1.417704	-0.102978	-0.712709
C141	C	1.751038	0.230355	-0.379375
C142	C	1.084354	-0.436339	-0.964063
C143	C	1.417687	-0.103006	-0.630730
C144	C	1.751020	0.230327	-0.297396
C145	C	1.134530	-0.503196	-0.923071
C146	C	1.467864	-0.169863	-0.589738
C147	C	1.801197	0.163471	-0.256405
C148	C	1.134430	-0.503400	-0.174279
C149	C	1.467763	-0.170066	0.159055
C150	C	1.801096	0.163267	0.492388
C151	C	1.134565	-0.503140	-0.087029
C152	C	1.467898	-0.169806	0.246304
C153	C	1.801232	0.163527	0.579637
H154	H	0.434052	-0.624830	-0.469184
H155	H	0.767385	-0.291497	-0.135851
H156	H	1.100719	0.041837	0.197483
H157	H	1.043488	-0.381922	-0.930693
H158	H	1.376821	-0.048589	-0.597360
H159	H	1.710154	0.284744	-0.264027
Cl160	Cl	0.853743	-0.352336	-0.265101
Cl161	Cl	1.187077	-0.019003	0.068232
Cl162	Cl	1.520410	0.314330	0.401566
H163	H	1.225530	-0.624542	-0.677829
H164	H	1.558864	-0.291208	-0.344496
H165	H	1.892197	0.042125	-0.011163
H166	H	1.043516	-0.381873	-1.079421
H167	H	1.376850	-0.048539	-0.746088
H168	H	1.710183	0.284794	-0.412755
Cl169	Cl	0.600893	-0.352361	-0.265123
Cl170	Cl	0.934226	-0.019027	0.068210
Cl171	Cl	1.267560	0.314306	0.401544
Cl172	Cl	1.071386	-1.045942	-0.441261
Cl173	Cl	1.404720	-0.712609	-0.107927
Cl174	Cl	1.738053	-0.379275	0.225406
Cl175	Cl	1.245260	-0.874056	-0.267569
Cl176	Cl	1.578593	-0.540723	0.065764
Cl177	Cl	1.911927	-0.207389	0.399097
Cl178	Cl	0.668705	-0.352350	-0.265124
Cl179	Cl	1.002038	-0.019017	0.068209
Cl180	Cl	1.335371	0.314316	0.401542
H181	H	1.093580	-0.935609	-0.419049
H182	H	1.426914	-0.602275	-0.085715
H183	H	1.760247	-0.268942	0.247618
H184	H	1.043440	-0.382008	-0.677846
H185	H	1.376774	-0.048675	-0.344513
H186	H	1.710107	0.284659	-0.011180
H187	H	1.043461	-0.381972	-0.826565
H188	H	1.376794	-0.048639	-0.493231
H189	H	1.710127	0.284694	-0.159898
H190	H	1.225586	-0.624452	-0.930680
H191	H	1.558919	-0.291119	-0.597346
H192	H	1.892252	0.042215	-0.264013
Cl193	Cl	0.853786	-0.654439	-0.491327
Cl194	Cl	1.187119	-0.321105	-0.157994
Cl195	Cl	1.520453	0.012228	0.175340
H196	H	0.686908	-0.624806	-0.469154
H197	H	1.020242	-0.291473	-0.135821
H198	H	1.353575	0.041861	0.197512
Cl199	Cl	1.247778	-0.654097	-0.844710
Cl200	Cl	1.581111	-0.320764	-0.511376
Cl201	Cl	1.914445	0.012570	-0.178043
Cl202	Cl	1.247841	-0.653990	-1.097563
Cl203	Cl	1.581174	-0.320656	-0.764230
Cl204	Cl	1.914507	0.012677	-0.430897
Cl205	Cl	1.245366	-1.131617	-0.267603
Cl206	Cl	1.578699	-0.798284	0.065731
Cl207	Cl	1.912032	-0.464950	0.399064
Cl208	Cl	0.600943	-0.654460	-0.491354
Cl209	Cl	0.934276	-0.321126	-0.158020
Cl210	Cl	1.267609	0.012207	0.175313
H211	H	0.434014	-0.382006	-0.287346
H212	H	0.767347	-0.048673	0.045987
H213	H	1.100680	0.284661	0.379321
