data_functionalizedCrystal
_audit_creation_method	'MofGen! by Chris Wilmer'
_symmetry_space_group_name_H-M	'P1'
_symmetry_Int_Tables_number	1
_symmetry_cell_setting	triclinic
loop_
_symmetry_equiv_pos_as_xyz
  x,y,z
_cell_length_a	13.897449
_cell_length_b	13.897441
_cell_length_c	13.897448
_cell_angle_alpha	90.030599
_cell_angle_beta	89.981481
_cell_angle_gamma	89.976606
loop_
_atom_site_label
_atom_site_type_symbol
_atom_site_fract_x
_atom_site_fract_y
_atom_site_fract_z
Zn1	Zn	1.474703	-0.545450	0.383963
Zn2	Zn	1.474597	-0.384151	0.545285
Zn3	Zn	1.313392	-0.384161	0.384007
Zn4	Zn	1.313373	-0.545396	0.545220
O5	O	1.394016	-0.464789	0.464619
O6	O	1.609670	-0.524071	0.405371
O7	O	1.453176	-0.249171	0.523937
O8	O	1.334842	-0.405582	0.249020
O9	O	1.609592	-0.405566	0.523893
O10	O	1.453356	-0.524081	0.248987
O11	O	1.334739	-0.249178	0.405447
O12	O	1.178408	-0.405530	0.405384
O13	O	1.334811	-0.680385	0.523783
O14	O	1.178394	-0.523990	0.523826
O15	O	1.453339	-0.680424	0.405308
O16	O	1.453158	-0.405514	0.680258
O17	O	1.334708	-0.523980	0.680210
C18	C	1.143402	-0.464756	0.464604
C19	C	1.036188	-0.464764	0.464621
C20	C	0.949118	-0.464780	0.464624
C21	C	0.839886	-0.464810	0.464631
C22	C	1.394085	-0.716382	0.464533
C23	C	1.394114	-0.823596	0.464497
C24	C	1.394140	-1.019892	0.464432
C25	C	1.394122	-0.910659	0.464471
C26	C	1.645609	-0.464824	0.464634
C27	C	1.752823	-0.464838	0.464641
C28	C	1.393946	-0.464761	0.715233
C29	C	1.394004	-0.464782	0.822447
C30	C	1.394003	-0.214175	0.464634
C31	C	1.394161	-0.106962	0.464399
C32	C	1.394113	-0.464839	0.213026
C33	C	1.394154	-0.464859	0.105812
C34	C	1.394105	-0.464842	1.018742
C35	C	1.394046	-0.464812	0.909510
