data_functionalizedCrystal
_audit_creation_method	'MofGen! by Chris Wilmer'
_symmetry_space_group_name_H-M	'P1'
_symmetry_Int_Tables_number	1
_symmetry_cell_setting	triclinic
loop_
_symmetry_equiv_pos_as_xyz
  x,y,z
_cell_length_a	15.538191
_cell_length_b	17.699083
_cell_length_c	16.176319
_cell_angle_alpha	89.992304
_cell_angle_beta	89.990661
_cell_angle_gamma	65.277554
loop_
_atom_site_label
_atom_site_type_symbol
_atom_site_fract_x
_atom_site_fract_y
_atom_site_fract_z
O1	O	-1.250479	0.245973	0.068751
O2	O	-0.976020	0.158526	0.068752
O3	O	-1.121003	0.314557	0.068745
O4	O	-1.105495	0.089941	0.068759
O5	O	-1.120983	0.314559	-0.068749
O6	O	-0.976000	0.158528	-0.068741
O7	O	-1.250459	0.245975	-0.068742
Cu8	Cu	-1.113227	0.202251	-0.081296
Cu9	Cu	-1.113251	0.202249	0.081306
O10	O	-1.105475	0.089943	-0.068734
C11	C	-0.940893	0.149378	0.000006
C12	C	-0.836257	0.122125	0.000006
C13	C	-1.120438	0.342603	-0.000002
C14	C	-1.118771	0.426166	-0.000003
C15	C	-1.285585	0.255123	0.000006
C16	C	-1.390221	0.282375	0.000012
C17	C	-0.549086	0.392872	0.000001
C18	C	-0.450762	0.367245	0.000004
C19	C	-0.427989	0.223099	0.000013
C20	C	-0.526313	0.248714	0.000007
C21	C	-0.586855	0.333602	0.000002
C22	C	-0.564082	0.189444	0.000007
C23	C	-0.662398	0.215057	0.000005
C24	C	-0.722945	0.299940	0.000003
C25	C	-0.685171	0.359215	-0.000000
C26	C	-0.503539	0.104556	0.000018
C27	C	-0.541308	0.045286	0.000018
C28	C	-0.639625	0.070899	0.000010
C29	C	-0.700173	0.155782	0.000008
C30	C	-0.677400	0.011624	0.000013
C31	C	-0.775716	0.037238	0.000011
C32	C	-0.798489	0.181396	0.000006
C33	C	-1.106041	0.061897	0.000014
C34	C	-1.107708	-0.021665	0.000020
N35	N	-1.113218	0.202255	-0.195661
C36	C	-1.203873	0.498041	-0.000004
C37	C	-1.202301	0.576554	0.000003
C38	C	-1.115626	0.583192	0.000006
C39	C	-1.030517	0.511309	0.000010
C40	C	-1.032090	0.432797	0.000009
C41	C	-1.024171	0.827938	0.000017
C42	C	-1.022605	0.906458	0.000016
C43	C	-1.194382	0.971696	0.000011
C44	C	-1.195955	0.893184	0.000010
C45	C	-1.110847	0.821308	0.000018
C46	C	-1.112552	0.736175	0.000012
C47	C	-1.113919	0.668323	0.000007
C48	C	-1.177436	0.271330	-0.238928
C49	C	-1.177441	0.271332	-0.325476
C50	C	-1.113231	0.202256	-0.368753
C51	C	-1.049006	0.133177	-0.325480
C52	C	-1.048998	0.133178	-0.238934
C53	C	-1.049038	0.133172	-0.674508
C54	C	-1.049054	0.133175	-0.761059
C55	C	-1.177481	0.271326	-0.761049
C56	C	-1.177473	0.271327	-0.674504
C57	C	-1.113245	0.202250	-0.631238
C58	C	-1.113239	0.202249	-0.537393
C59	C	-1.113240	0.202254	-0.462596
N60	N	-1.113268	0.202253	0.195671
H61	H	-0.847785	0.250520	-0.000003
H62	H	-1.274454	0.492646	-0.000012
H63	H	-0.996744	0.076926	-0.639287
C64	C	-0.439918	0.482234	0.070679
C65	C	-0.409245	0.432402	0.000002
H66	H	-0.414290	0.522459	0.070676
H67	H	-0.419131	0.448417	0.118617
H68	H	-0.507136	0.509631	0.070668
H69	H	-0.342027	0.404999	0.000016
H70	H	-0.430027	0.466223	-0.047949
H71	H	-0.378683	0.153983	0.000020
H72	H	-0.628093	-0.057491	0.000025
H73	H	-0.423484	0.083705	0.000022
H74	H	-0.996704	0.076931	-0.203706
C75	C	-1.233030	0.417615	-0.648046
C76	C	-1.248049	0.347324	-0.627014
H77	H	-1.276597	0.464551	-0.618748
H78	H	-1.242172	0.427412	-0.705790
H79	H	-1.170139	0.408555	-0.633849
H80	H	-1.310938	0.356381	-0.641217
H81	H	-1.238915	0.337525	-0.569257
C82	C	-0.380483	-0.057988	0.000018
C83	C	-0.474755	-0.048020	0.000017
H84	H	-0.339400	-0.115592	0.000010
H85	H	-0.369061	-0.032580	0.047964
H86	H	-0.369052	-0.032560	-0.047930
H87	H	-0.486189	-0.073442	0.047969
H88	H	-0.486182	-0.073439	-0.047934
C89	C	-1.292298	1.097831	0.070699
C90	C	-1.287939	1.050704	0.000015
H91	H	-1.350058	1.146602	0.070701
H92	H	-1.240462	1.113021	0.070697
H93	H	-1.289347	1.065831	0.118638
H94	H	-1.290884	1.082702	-0.047924
H95	H	-1.339790	1.035515	0.000010
C96	C	-0.916320	0.012500	0.000004
C97	C	-0.817240	-0.027910	0.000004
H98	H	-0.941953	-0.027722	0.000005
H99	H	-0.937093	0.046311	-0.047940
H100	H	-0.937107	0.046307	0.047954
H101	H	-0.796452	-0.061712	-0.047950
H102	H	-0.796458	-0.061735	0.047952
H103	H	-0.962790	0.374274	0.000010
H104	H	-0.952019	0.911855	0.000017
H105	H	-1.271600	0.635075	0.000000
H106	H	-1.266535	0.887787	0.000004
C107	C	-0.991999	0.071827	-0.458150
C108	C	-0.978427	0.057245	-0.373049
H109	H	-0.948430	0.024945	-0.487514
H110	H	-0.981880	0.119558	-0.472344
H111	H	-1.054890	0.080853	-0.472309
H112	H	-0.915538	0.048225	-0.358889
H113	H	-0.988539	0.009500	-0.358850
H114	H	-0.803000	0.320793	0.000012
H115	H	-0.954870	0.769424	0.000024
H116	H	-1.229726	0.327578	-0.203697
C117	C	-0.697819	0.499146	-0.000004
C118	C	-0.751728	0.452526	-0.000003
H119	H	-0.738910	0.556749	0.000002
H120	H	-0.658997	0.486165	-0.047949
H121	H	-0.658999	0.486151	0.047945
H122	H	-0.790542	0.465517	-0.047955
H123	H	-0.790566	0.465513	0.047948
H124	H	-0.598383	0.461996	-0.000007
H125	H	-0.959944	0.516719	0.000018
C126	C	-1.304414	0.407878	-0.316773
C127	C	-1.248046	0.347254	-0.373035
H128	H	-1.348010	0.454747	-0.346136
H129	H	-1.265248	0.424373	-0.283036
H130	H	-1.338223	0.385630	-0.282998
H131	H	-1.214231	0.369500	-0.406806
H132	H	-1.287216	0.330759	-0.406786
C133	C	-1.340762	0.360556	-0.787672
C134	C	-1.248075	0.347266	-0.808609
H135	H	-1.384340	0.407434	-0.817036
H136	H	-1.349938	0.370437	-0.729942
H137	H	-1.350869	0.312813	-0.801855
H138	H	-1.237965	0.395007	-0.794421
H139	H	-1.238894	0.337390	-0.866352
H140	H	-0.996763	0.076923	-0.796295
