data_functionalizedCrystal
_audit_creation_method	'MofGen! by Chris Wilmer'
_symmetry_space_group_name_H-M	'P1'
_symmetry_Int_Tables_number	1
_symmetry_cell_setting	triclinic
loop_
_symmetry_equiv_pos_as_xyz
  x,y,z
_cell_length_a	19.077115
_cell_length_b	19.121063
_cell_length_c	19.077174
_cell_angle_alpha	94.804191
_cell_angle_beta	85.484425
_cell_angle_gamma	90.263014
loop_
_atom_site_label
_atom_site_type_symbol
_atom_site_fract_x
_atom_site_fract_y
_atom_site_fract_z
Zn1	Zn	1.079659	-0.341255	-0.455830
Zn2	Zn	1.070212	-0.453789	-0.342559
Zn3	Zn	0.957448	-0.331437	-0.332827
Zn4	Zn	0.957108	-0.453743	-0.455677
O5	O	1.016107	-0.395056	-0.396723
O6	O	1.176886	-0.360311	-0.444942
O7	O	1.051443	-0.433469	-0.242451
O8	O	0.977756	-0.234459	-0.345134
O9	O	1.169946	-0.442989	-0.361723
O10	O	1.067543	-0.241672	-0.435505
O11	O	0.968596	-0.343578	-0.235300
O12	O	0.858923	-0.343533	-0.344985
O13	O	0.977176	-0.442910	-0.554515
O14	O	0.858673	-0.433390	-0.435243
O15	O	1.067214	-0.360266	-0.554628
O16	O	1.051113	-0.552063	-0.361574
O17	O	0.968016	-0.552030	-0.444680
C18	C	0.833263	-0.387392	-0.389042
C19	C	0.755042	-0.384131	-0.385773
C20	C	0.314753	-0.360712	-0.362334
C21	C	0.388250	-0.363780	-0.365410
C22	C	0.424879	-0.412169	-0.413869
C23	C	0.388007	-0.457488	-0.459261
C24	C	0.314511	-0.454416	-0.456189
C25	C	0.644675	-0.426378	-0.428093
C26	C	0.718175	-0.429448	-0.431160
C27	C	0.718413	-0.335739	-0.337309
C28	C	0.644916	-0.332674	-0.334238
C29	C	0.608051	-0.377990	-0.379633
N30	N	0.500005	-0.415308	-0.417012
N31	N	0.532927	-0.374848	-0.376493
C32	C	1.008522	-0.577531	-0.404183
C33	C	1.005343	-0.655598	-0.407400
C34	C	1.047150	-0.692272	-0.365681
C35	C	1.044164	-0.765625	-0.368712
C36	C	0.999367	-0.802303	-0.413457
C37	C	0.957558	-0.765624	-0.455181
C38	C	0.960549	-0.692273	-0.452154
C39	C	0.988176	-1.023777	-0.424763
C40	C	0.985187	-1.097133	-0.427786
C41	C	1.071794	-1.097129	-0.341317
C42	C	1.074777	-1.023776	-0.338291
C43	C	1.032971	-0.987104	-0.380017
C44	C	0.996312	-0.877281	-0.416554
C45	C	1.036030	-0.912127	-0.376923
C46	C	1.199665	-0.402750	-0.404435
C47	C	1.277886	-0.406029	-0.407722
C48	C	1.023211	-0.402678	-0.580910
C49	C	1.026238	-0.405927	-0.659399
C50	C	1.023741	-0.211869	-0.389251
C51	C	1.026994	-0.133806	-0.386067
C52	C	0.984528	-0.360652	-0.692550
C53	C	0.987369	-0.363710	-0.766299
C54	C	1.031925	-0.412039	-0.806896
C55	C	1.073636	-0.457319	-0.773740
C56	C	1.070791	-0.454264	-0.699992
C57	C	1.045057	-0.426198	-1.027858
C58	C	1.047901	-0.429248	-1.101611
C59	C	0.961632	-0.335640	-1.094165
C60	C	0.958794	-0.332586	-1.020416
C61	C	1.000503	-0.377868	-0.987266
N62	N	1.034832	-0.415165	-0.882280
N63	N	0.997592	-0.374746	-0.911884
C64	C	1.009074	-0.387414	-0.213253
C65	C	1.006191	-0.383973	-0.134762
H66	H	0.748437	-0.298844	-0.300352
H67	H	0.927675	-0.298775	-1.121163
H68	H	1.109911	-0.496673	-0.806800
H69	H	0.954135	-0.993924	-0.458737
H70	H	1.084187	-0.468604	-1.134663
H71	H	1.104761	-0.491126	-0.673002
H72	H	0.615098	-0.293276	-0.294772
H73	H	0.948717	-1.126995	-0.464236
H74	H	1.078207	-0.795481	-0.334739
H75	H	0.418263	-0.326882	-0.328448
H76	H	0.948250	-0.321293	-0.659501
H77	H	1.079011	-0.463077	-1.000877
H78	H	0.953402	-0.326845	-0.793287
H79	H	0.284935	-0.321309	-0.322873
H80	H	0.747997	-0.468852	-0.470625
H81	H	0.614668	-0.463280	-0.465054
H82	H	0.417836	-0.496884	-0.498721
H83	H	1.083625	-0.662413	-0.329241
H84	H	0.284495	-0.491316	-0.493150
H85	H	0.922510	-0.293233	-0.987367
H86	H	0.959837	-0.907152	-0.452985
H87	H	1.072507	-0.882262	-0.340494
H88	H	1.111254	-0.993914	-0.301855
H89	H	1.105831	-1.126995	-0.307347
H90	H	0.921087	-0.795493	-0.491617
H91	H	0.926506	-0.662414	-0.486127
