data_functionalizedCrystal
_audit_creation_method	'MofGen! by Chris Wilmer'
_symmetry_space_group_name_H-M	'P1'
_symmetry_Int_Tables_number	1
_symmetry_cell_setting	triclinic
loop_
_symmetry_equiv_pos_as_xyz
  x,y,z
_cell_length_a	16.109301
_cell_length_b	17.019294
_cell_length_c	14.586319
_cell_angle_alpha	86.117240
_cell_angle_beta	89.998857
_cell_angle_gamma	83.427995
loop_
_atom_site_label
_atom_site_type_symbol
_atom_site_fract_x
_atom_site_fract_y
_atom_site_fract_z
O1	O	1.103039	0.101396	-0.084193
O2	O	0.860966	0.114014	-0.085202
O3	O	0.988756	-0.007130	-0.075627
O4	O	0.975250	0.222539	-0.093768
O5	O	0.988747	-0.007131	0.076854
O6	O	0.860957	0.114012	0.067279
O7	O	1.103030	0.101394	0.068288
Cu8	Cu	0.981993	0.107703	0.081706
Cu9	Cu	0.982003	0.107705	-0.098621
O10	O	0.975241	0.222537	0.058713
C11	C	0.829987	0.113502	-0.008923
C12	C	0.737693	0.111969	-0.008807
C13	C	0.988239	-0.036520	0.002933
C14	C	0.986703	-0.124090	0.009843
C15	C	0.428635	0.178844	-0.014073
C16	C	0.515354	0.180291	-0.014193
C17	C	0.535356	0.036558	-0.002852
C18	C	0.448639	0.035112	-0.002739
C19	C	0.395280	0.106257	-0.008345
C20	C	0.568716	0.109151	-0.008578
C21	C	0.662741	0.110719	-0.008707
C22	C	0.301249	0.104689	-0.008217
C23	C	0.985988	-0.165225	-0.070027
C24	C	0.984539	-0.247505	-0.063530
C25	C	0.983811	-0.288650	0.022837
C26	C	0.984524	-0.247509	0.102713
C27	C	0.985967	-0.165229	0.096216
C28	C	0.979449	-0.537082	0.046613
C29	C	0.978009	-0.619368	0.053104
C30	C	0.978022	-0.619358	-0.113140
C31	C	0.979470	-0.537077	-0.119630
C32	C	0.980178	-0.495943	-0.039754
C33	C	0.982333	-0.372754	0.029479
C34	C	0.981651	-0.411839	-0.046397
C35	C	1.134009	0.101906	-0.007994
C36	C	1.226303	0.103438	-0.008116
C37	C	0.975757	0.251927	-0.019849
C38	C	0.977294	0.339497	-0.026766
N39	N	0.981992	0.107701	0.208538
N40	N	0.982011	0.107701	-0.225452
C41	C	1.038596	0.054076	0.447783
C42	C	1.038598	0.054075	0.543764
C43	C	0.925401	0.161328	0.535296
C44	C	0.925396	0.161325	0.439317
C45	C	0.981997	0.107700	0.395563
C46	C	0.982006	0.107701	0.587523
C47	C	0.982008	0.107699	0.691590
C48	C	0.981994	0.107701	0.291489
H49	H	0.385192	0.236775	-0.018639
H50	H	0.542506	0.239398	-0.018858
C51	C	1.087550	-0.082480	0.429073
C52	C	1.100803	-0.004892	0.399711
H53	H	1.125951	-0.118891	0.399400
H54	H	1.095641	-0.090128	0.493704
H55	H	1.032071	-0.091044	0.414013
H56	H	1.156280	0.003674	0.414778
H57	H	1.092718	0.002759	0.335066
H58	H	0.879303	0.204993	0.396796
H59	H	0.578811	-0.021365	0.001715
C60	C	0.988167	-0.039100	0.160070
C61	C	0.986753	-0.120009	0.184010
H62	H	0.988644	-0.011185	0.214274
H63	H	1.036863	-0.031645	0.125341
H64	H	0.939943	-0.019598	0.124372
H65	H	1.034980	-0.139513	0.219704
H66	H	0.938051	-0.127469	0.218755
C67	C	0.477115	-0.106823	0.008470
C68	C	0.411970	-0.044682	0.003561
H69	H	0.454475	-0.156081	0.012362
H70	H	0.510522	-0.103268	-0.044980
H71	H	0.510522	-0.103269	0.061368
H72	H	0.378566	-0.048233	-0.049340
H73	H	0.378549	-0.048239	0.057017
H74	H	1.084684	0.010408	0.586279
H75	H	0.981743	-0.406264	0.099800
H76	H	0.977412	-0.652865	0.123438
H77	H	0.980042	-0.503602	0.111654
C78	C	0.875155	0.208961	0.678666
C79	C	0.863195	0.220277	0.583394
H80	H	0.836754	0.245361	0.708356
H81	H	0.866186	0.156319	0.698556
H82	H	0.930634	0.217543	0.693700
H83	H	0.807717	0.211690	0.568360
H84	H	0.872157	0.272932	0.563498
H85	H	0.986585	-0.131731	-0.140356
H86	H	0.980064	-0.503583	-0.189959
C87	C	0.984771	-0.239240	-0.228504
C88	C	0.983800	-0.292727	-0.151326
H89	H	0.984331	-0.267162	-0.282707
H90	H	0.936865	-0.201135	-0.228091
H91	H	1.033785	-0.213160	-0.227062
H92	H	0.934782	-0.318803	-0.152765
H93	H	1.031710	-0.330846	-0.151740
H94	H	0.983926	-0.281015	0.173035
C95	C	0.975809	-0.745482	-0.177000
C96	C	0.977233	-0.664574	-0.200936
H97	H	0.975313	-0.773393	-0.231206
H98	H	1.024029	-0.764992	-0.141315
H99	H	0.927109	-0.752931	-0.142259
H100	H	1.025936	-0.657124	-0.235672
H101	H	0.929008	-0.645058	-0.236636
H102	H	0.982238	-0.378335	-0.116717
