data_functionalizedCrystal
_audit_creation_method	'MofGen! by Chris Wilmer'
_symmetry_space_group_name_H-M	'P1'
_symmetry_Int_Tables_number	1
_symmetry_cell_setting	triclinic
loop_
_symmetry_equiv_pos_as_xyz
  x,y,z
_cell_length_a	16.959454
_cell_length_b	16.625548
_cell_length_c	16.959447
_cell_angle_alpha	89.981950
_cell_angle_beta	90.021798
_cell_angle_gamma	89.997942
loop_
_atom_site_label
_atom_site_type_symbol
_atom_site_fract_x
_atom_site_fract_y
_atom_site_fract_z
Zn1	Zn	0.314643	1.232781	-0.446979
Zn2	Zn	0.446835	1.232740	-0.314821
Zn3	Zn	0.314677	1.097949	-0.314814
Zn4	Zn	0.446786	1.097964	-0.446957
O5	O	0.380735	1.165358	-0.380893
O6	O	0.332185	1.345608	-0.429460
O7	O	0.429340	1.214837	-0.204209
O8	O	0.204062	1.115845	-0.332353
O9	O	0.429306	1.345578	-0.332364
O10	O	0.204036	1.214906	-0.429454
O11	O	0.332244	1.115806	-0.204204
O12	O	0.332195	0.985118	-0.332331
O13	O	0.429221	1.115870	-0.557571
O14	O	0.429255	0.985129	-0.429416
O15	O	0.332136	1.214920	-0.557587
O16	O	0.557440	1.214851	-0.332342
O17	O	0.557403	1.115831	-0.429422
C18	C	0.380724	0.955867	-0.380871
C19	C	0.380738	0.866246	-0.380880
C20	C	0.174567	1.165378	-0.380905
C21	C	0.086710	1.165386	-0.380911
C22	C	-0.284781	1.217007	-0.431480
C23	C	-0.284750	1.113855	-0.330368
C24	C	-0.202204	1.113843	-0.330365
C25	C	-0.160943	1.165415	-0.380920
C26	C	-0.202227	1.216999	-0.431477
C27	C	-0.160913	1.062266	-0.279803
C28	C	-0.078362	1.062253	-0.279797
C29	C	-0.037099	1.113821	-0.330357
C30	C	-0.078389	1.165407	-0.380917
C31	C	-0.037128	1.216979	-0.431471
C32	C	-0.078416	1.268561	-0.482036
C33	C	-0.160965	1.268568	-0.482037
C34	C	0.045449	1.113814	-0.330356
C35	C	0.045426	1.216970	-0.431468
C36	C	0.380743	0.538071	-0.380914
C37	C	0.380740	0.629379	-0.380902
C38	C	0.380741	0.702156	-0.380896
C39	C	0.380737	0.793470	-0.380886
C40	C	0.586101	1.165361	-0.380897
C41	C	0.673958	1.165435	-0.380926
C42	C	0.380669	1.165401	-0.587061
C43	C	0.380641	1.165420	-0.674918
C44	C	0.380747	1.375667	-0.380915
C45	C	0.380752	1.465288	-0.380925
C46	C	0.330005	1.113930	-1.046397
C47	C	0.431112	1.217052	-1.046390
C48	C	0.431130	1.217038	-0.963844
C49	C	0.380586	1.165468	-0.922571
C50	C	0.330023	1.113913	-0.963844
C51	C	0.481698	1.268587	-0.922565
C52	C	0.481719	1.268574	-0.840014
C53	C	0.431170	1.217008	-0.798739
C54	C	0.380604	1.165451	-0.840017
C55	C	0.330060	1.113882	-0.798744
C56	C	0.279490	1.062328	-0.840021
C57	C	0.279474	1.062347	-0.922569
C58	C	0.431186	1.216989	-0.716191
C59	C	0.330079	1.113864	-0.716191
C60	C	0.380744	1.165362	-0.175527
C61	C	0.380549	1.165499	-0.087670
H62	H	0.079015	1.258961	-0.472643
N63	N	0.224971	1.006715	-0.795499
H64	H	0.192930	0.974060	-0.834169
H65	H	0.257152	0.969390	-0.761242
N66	N	0.224960	1.006722	-0.967087
H67	H	0.232630	1.014548	-1.025644
H68	H	0.237287	0.949141	-0.952635
N69	N	0.275559	1.058238	-0.671686
H70	H	0.307684	1.020858	-0.637429
H71	H	0.238948	1.091057	-0.637490
N72	N	-0.205505	1.324201	-0.536559
H73	H	-0.191131	1.381807	-0.524289
H74	H	-0.191151	1.311623	-0.593015
N75	N	-0.329243	1.058228	-0.275844
H76	H	-0.314854	1.070736	-0.219369
H77	H	-0.387789	1.066084	-0.283581
H78	H	0.288830	1.071959	-1.080008
N79	N	0.485636	1.272659	-1.090901
H80	H	0.477956	1.264843	-1.149458
H81	H	0.473345	1.330246	-1.076487
H82	H	0.522857	1.310563	-0.956175
H83	H	0.522897	1.310551	-0.806413
H84	H	0.472354	1.258969	-0.682587
H85	H	-0.318400	1.259002	-0.472652
N86	N	-0.033910	1.324190	-0.536556
H87	H	0.024648	1.316356	-0.528875
H88	H	-0.048351	1.311653	-0.593010
H89	H	-0.194510	1.020281	-0.238639
H90	H	-0.044752	1.020251	-0.238625
H91	H	0.079063	1.071820	-0.289185
