data_functionalizedCrystal
_audit_creation_method	'MofGen! by Chris Wilmer'
_symmetry_space_group_name_H-M	'P1'
_symmetry_Int_Tables_number	1
_symmetry_cell_setting	triclinic
loop_
_symmetry_equiv_pos_as_xyz
  x,y,z
_cell_length_a	10.967874
_cell_length_b	9.616153
_cell_length_c	11.026607
_cell_angle_alpha	89.995207
_cell_angle_beta	83.619819
_cell_angle_gamma	102.130893
loop_
_atom_site_label
_atom_site_type_symbol
_atom_site_fract_x
_atom_site_fract_y
_atom_site_fract_z
O1	O	1.694002	0.521597	-0.170542
O2	O	1.334370	0.435416	-0.186861
O3	O	1.484380	0.471359	-0.001800
O4	O	1.543992	0.485655	-0.355603
O5	O	1.484370	0.240065	-0.001787
O6	O	1.334360	0.204123	-0.186848
O7	O	1.693991	0.290304	-0.170529
Zn8	Zn	1.514174	0.210490	-0.178686
Zn9	Zn	1.514188	0.515230	-0.178704
O10	O	1.543981	0.254361	-0.355590
C11	C	1.287608	0.308565	-0.185666
C12	C	1.148286	0.275178	-0.182111
C13	C	1.086178	0.380111	-0.180532
C14	C	0.942181	0.345607	-0.176858
N15	N	1.514173	0.002516	-0.178674
C16	C	1.594872	-0.198475	-0.080021
C17	C	1.594516	-0.037393	-0.079644
C18	C	1.377520	-0.088763	-0.149880
C19	C	1.377977	-0.249871	-0.149188
C20	C	1.569061	-0.204202	-0.306468
C21	C	1.571824	-0.042311	-0.305631
C22	C	1.740753	0.417158	-0.171724
C23	C	1.880075	0.450554	-0.175280
C24	C	1.473377	0.353079	0.043509
C25	C	1.440594	0.345227	0.178496
N26	N	1.514196	0.723206	-0.178706
C27	C	1.554984	0.372644	-0.400899
C28	C	1.587768	0.380505	-0.535886
C29	C	1.531115	0.366922	0.251547
C30	C	1.497234	0.358807	0.391064
H31	H	1.094855	0.159798	-0.180748
H32	H	1.633696	0.391495	0.210801
C33	C	1.302008	0.312015	0.233536
N34	N	1.197622	0.286995	0.274991
H35	H	1.139610	0.495491	-0.181908
C36	C	0.870008	0.189720	-0.175009
N37	N	0.815645	0.072309	-0.173614
H38	H	1.695176	0.026304	-0.096951
C39	C	1.731224	-0.218169	-0.103043
N40	N	1.833927	-0.233015	-0.120383
C41	C	0.952245	0.606441	-0.177129
N42	N	1.006605	0.723853	-0.178520
C43	C	1.358641	0.325594	0.446099
N44	N	1.254255	0.300573	0.487553
H45	H	1.668121	-0.221111	-0.333877
C46	C	1.726361	0.413715	0.409082
N47	N	1.830748	0.438727	0.367631
H48	H	1.557227	-0.248030	0.014231
H49	H	1.333188	-0.059027	-0.057722
H50	H	1.556503	-0.007952	0.015150
C51	C	1.292441	-0.323089	-0.242513
N52	N	1.228008	-0.378231	-0.312797
C53	C	1.292847	-0.057277	-0.244323
N54	N	1.229072	-0.033556	-0.315458
C55	C	1.318537	-0.314942	-0.023267
N56	N	1.273767	-0.363946	0.071581
C57	C	1.707828	0.041963	-0.335119
N58	N	1.810266	0.105446	-0.357326
H59	H	1.519057	-0.014681	-0.382588
C60	C	1.490037	-0.274683	-0.405699
N61	N	1.430513	-0.327780	-0.480432
