data_functionalizedCrystal
_audit_creation_method	'MofGen! by Chris Wilmer'
_symmetry_space_group_name_H-M	'P1'
_symmetry_Int_Tables_number	1
_symmetry_cell_setting	triclinic
loop_
_symmetry_equiv_pos_as_xyz
  x,y,z
_cell_length_a	21.395362
_cell_length_b	19.077068
_cell_length_c	19.077569
_cell_angle_alpha	89.935763
_cell_angle_beta	92.333493
_cell_angle_gamma	92.343691
loop_
_atom_site_label
_atom_site_type_symbol
_atom_site_fract_x
_atom_site_fract_y
_atom_site_fract_z
Zn1	Zn	0.963028	-0.263493	0.408896
Zn2	Zn	1.463028	0.236507	0.908896
Zn3	Zn	0.954544	-0.385725	0.296099
Zn4	Zn	1.454544	0.114275	0.796099
Zn5	Zn	0.853882	-0.268267	0.291362
Zn6	Zn	1.353882	0.231733	0.791362
Zn7	Zn	0.854180	-0.381002	0.413530
Zn8	Zn	1.354180	0.118998	0.913530
O9	O	0.906408	-0.324622	0.352472
O10	O	1.406408	0.175378	0.852472
O11	O	1.049582	-0.279686	0.393977
O12	O	1.549582	0.220314	0.893977
O13	O	0.937515	-0.374119	0.197137
O14	O	1.437515	0.125881	0.697137
O15	O	0.871786	-0.169299	0.303032
O16	O	1.371786	0.330701	0.803032
O17	O	1.043349	-0.369489	0.311105
O18	O	1.543349	0.130511	0.811105
O19	O	0.951975	-0.165791	0.389384
O20	O	1.451975	0.334209	0.889384
O21	O	0.863559	-0.287823	0.193657
O22	O	1.363559	0.212177	0.693657
O23	O	0.766241	-0.283243	0.307525
O24	O	1.266241	0.216757	0.807525
O25	O	0.872295	-0.361439	0.511249
O26	O	1.372295	0.138561	1.011249
O27	O	0.766461	-0.366069	0.397280
O28	O	1.266461	0.133931	0.897280
O29	O	0.952264	-0.275105	0.507845
O30	O	1.452264	0.224895	1.007845
O31	O	0.937805	-0.483434	0.315598
O32	O	1.437805	0.016566	0.815598
O33	O	0.864068	-0.479963	0.401873
O34	O	1.364068	0.020037	0.901873
C35	C	0.743616	-0.324662	0.352392
C36	C	1.243616	0.175338	0.852392
C37	C	0.673973	-0.324696	0.352375
C38	C	1.173973	0.175304	0.852375
C39	C	0.641386	-0.367885	0.399046
C40	C	1.141386	0.132115	0.899046
C41	C	0.575953	-0.367867	0.399076
C42	C	1.075953	0.132133	0.899076
C43	C	0.543108	-0.324667	0.352424
C44	C	1.043108	0.175333	0.852424
C45	C	0.575703	-0.281469	0.305749
C46	C	1.075703	0.218531	0.805749
C47	C	0.641136	-0.281483	0.305725
C48	C	1.141136	0.218517	0.805725
C49	C	0.437231	-0.321558	0.288936
C50	C	0.937231	0.178442	0.788936
C51	C	0.371799	-0.321549	0.288960
C52	C	0.871799	0.178451	0.788960
C53	C	0.341292	-0.324618	0.352500
C54	C	0.841292	0.175382	0.852500
C55	C	0.376224	-0.327711	0.416018
C56	C	0.876224	0.172289	0.916018
C57	C	0.441656	-0.327726	0.415994
C58	C	0.941656	0.172274	0.915994
C59	C	0.472157	-0.324646	0.352445
C60	C	0.972157	0.175354	0.852445
C61	C	0.237754	-0.367790	0.399208
C62	C	0.737754	0.132210	0.899208
C63	C	0.172319	-0.367766	0.399239
C64	C	0.672319	0.132234	0.899239
C65	C	0.172070	-0.281372	0.305906
C66	C	0.672070	0.218628	0.805906
C67	C	0.237504	-0.281391	0.305881
C68	C	0.737504	0.218609	0.805881
C69	C	0.270342	-0.324604	0.352531
C70	C	0.770342	0.175396	0.852531
C71	C	0.900066	-0.507195	0.359768
C72	C	1.400066	-0.007195	0.859768
C73	C	0.897411	-0.585300	0.362912
C74	C	1.397411	-0.085300	0.862912
C75	C	0.934586	-0.623775	0.319508
C76	C	1.434586	-0.123775	0.819508
C77	C	0.932093	-0.697162	0.322470
C78	C	1.432093	-0.197162	0.822470
C79	C	0.892420	-0.732073	0.368833
C80	C	1.392420	-0.232073	0.868833
C81	C	0.855243	-0.693592	0.412242
C82	C	1.355243	-0.193592	0.912242
C83	C	0.857740	-0.620206	0.409283
C84	C	1.357740	-0.120206	0.909283
C85	C	0.880834	-0.951362	0.382499
C86	C	1.380834	-0.451362	0.882499
C87	C	0.878339	-1.024754	0.385453
C88	C	1.378339	-0.524754	0.885453
C89	C	0.955190	-1.028319	0.295681
C90	C	1.455190	-0.528319	0.795681
C91	C	0.957680	-0.954932	0.292723
C92	C	1.457680	-0.454932	0.792723
C93	C	0.920506	-0.916457	0.336135
C94	C	1.420506	-0.416457	0.836135
N95	N	0.889869	-0.807086	0.371860
N96	N	1.389869	-0.307086	0.871860
N97	N	0.923061	-0.841445	0.333111
N98	N	1.423061	-0.341445	0.833111
C99	C	1.069836	-0.324582	0.352553
C100	C	1.569836	0.175418	0.852553
C101	C	1.139479	-0.324565	0.352587
C102	C	1.639479	0.175435	0.852587
C103	C	0.913259	-0.317213	0.535756
C104	C	1.413259	0.182787	1.035756
C105	C	0.916179	-0.314056	0.613861
C106	C	1.416179	0.185944	1.113861
C107	C	0.912793	-0.141335	0.345163
C108	C	1.412793	0.358665	0.845163
C109	C	0.915514	-0.063229	0.342048
C110	C	1.415514	0.436771	0.842048
C111	C	0.899622	-0.331951	0.169898
C112	C	1.399622	0.168049	0.669898
C113	C	0.896831	-0.334911	0.091786
C114	C	1.396831	0.165089	0.591786
C115	C	0.875915	-0.357518	0.652328
C116	C	1.375915	0.142482	1.152328
C117	C	0.878664	-0.354551	0.725716
C118	C	1.378664	0.145449	1.225716
C119	C	0.921673	-0.308118	0.760635
C120	C	1.421673	0.191882	1.260635
C121	C	0.961941	-0.264654	0.722163
C122	C	1.461941	0.235346	1.222163
C123	C	0.959195	-0.267624	0.648777
C124	C	1.459195	0.232376	1.148777
C125	C	0.934352	-0.294417	0.979927
C126	C	1.434352	0.205583	1.479927
C127	C	0.937094	-0.291448	1.053319
C128	C	1.437094	0.208552	1.553319
C129	C	0.853818	-0.381347	1.056867
C130	C	1.353818	0.118653	1.556867
C131	C	0.851073	-0.384311	0.983479
C132	C	1.351073	0.115689	1.483479
C133	C	0.891343	-0.340849	0.945013
C134	C	1.391343	0.159151	1.445013
N135	N	0.924482	-0.305083	0.835650
N136	N	1.424482	0.194917	1.335650
N137	N	0.888536	-0.343888	0.870000
N138	N	1.388536	0.156112	1.370000
H139	H	0.145329	-0.246194	0.267924
H140	H	0.645329	0.253806	0.767924
H141	H	0.850564	-0.920042	0.417845
H142	H	1.350564	-0.420042	0.917845
H143	H	0.822943	-0.722022	0.449995
H144	H	1.322943	-0.222022	0.949995
C145	C	0.470313	-0.318377	0.219918
C146	C	0.970313	0.181623	0.719918
C147	C	0.450769	-0.376490	0.178672
C148	C	0.950769	0.123510	0.678672
C149	C	0.481237	-0.373590	0.115096
C150	C	0.981237	0.126410	0.615096
H151	H	0.460269	-0.276512	0.195718
H152	H	0.960269	0.223488	0.695718
H153	H	0.514288	-0.318865	0.228972
H154	H	1.014288	0.181135	0.728972
H155	H	0.406804	-0.375995	0.169616
H156	H	0.906804	0.124005	0.669616
H157	H	0.460814	-0.418363	0.202850
H158	H	0.960814	0.081637	0.702850
H159	H	0.525212	-0.374079	0.124149
H160	H	1.025212	0.125921	0.624149
H161	H	0.471191	-0.331723	0.090902
H162	H	0.971191	0.168277	0.590902
H163	H	0.467986	-0.413022	0.087105
H164	H	0.967986	0.086978	0.587105
H165	H	0.145788	-0.402935	0.437249
H166	H	0.645788	0.097065	0.937249
C167	C	0.272773	-0.234480	0.255124
C168	C	0.772773	0.265520	0.755124
C169	C	0.230006	-0.196655	0.214261
C170	C	0.730006	0.303345	0.714261
C171	C	0.262472	-0.153437	0.167491
C172	C	0.762472	0.346563	0.667491
H173	H	0.300402	-0.202763	0.280743
H174	H	0.800402	0.297237	0.780743
H175	H	0.296172	-0.262545	0.225487
H176	H	0.796172	0.237455	0.725487
H177	H	0.206618	-0.168593	0.243895
H178	H	0.706618	0.331407	0.743895
H179	H	0.202376	-0.228355	0.188628
H180	H	0.702376	0.271645	0.688628
H181	H	0.285871	-0.181502	0.137854
H182	H	0.785871	0.318498	0.637854
H183	H	0.290100	-0.121724	0.193115
H184	H	0.790100	0.378276	0.693115
H185	H	0.233460	-0.127772	0.139755
H186	H	0.733460	0.372228	0.639755
C187	C	0.676594	-0.234709	0.255010
C188	C	1.176594	0.265291	0.755010
C189	C	0.711053	-0.276261	0.211490
C190	C	1.211053	0.223739	0.711490
C191	C	0.743733	-0.233198	0.164768
C192	C	1.243733	0.266802	0.664768
H193	H	0.647734	-0.208961	0.227162
H194	H	1.147734	0.291039	0.727162
H195	H	0.704258	-0.203064	0.280690
H196	H	1.204258	0.296936	0.780690
H197	H	0.683392	-0.307893	0.185813
H198	H	1.183392	0.192107	0.685813
H199	H	0.739924	-0.302008	0.239319
H200	H	1.239924	0.197992	0.739319
H201	H	0.771397	-0.201553	0.190448
H202	H	1.271397	0.298447	0.690448
H203	H	0.714868	-0.207452	0.136925
H204	H	1.214868	0.292548	0.636925
H205	H	0.767121	-0.261384	0.135239
H206	H	1.267121	0.238616	0.635239
H207	H	0.470095	-0.330243	0.467713
H208	H	0.970095	0.169757	0.967713
C209	C	0.972405	-0.739085	0.275421
C210	C	1.472405	-0.239085	0.775421
C211	C	0.933913	-0.783192	0.232046
C212	C	1.433913	-0.283192	0.732046
C213	C	0.971055	-0.821854	0.188753
C214	C	1.471055	-0.321854	0.688753
H215	H	0.996447	-0.707918	0.247317
H216	H	1.496447	-0.207918	0.747317
H217	H	0.999664	-0.766571	0.303584
H218	H	1.499664	-0.266571	0.803584
H219	H	0.906666	-0.755709	0.203886
H220	H	1.406666	-0.255709	0.703886
H221	H	0.909872	-0.814373	0.260131
H222	H	1.409872	-0.314373	0.760131
H223	H	0.998314	-0.849340	0.216916
H224	H	1.498314	-0.349340	0.716916
H225	H	0.995095	-0.790682	0.160654
H226	H	1.495095	-0.290682	0.660654
H227	H	0.944945	-0.851790	0.159323
H228	H	1.444945	-0.351790	0.659323
H229	H	0.351386	-0.330209	0.467759
H230	H	0.851386	0.169791	0.967759
H231	H	0.827469	-0.588879	0.444629
H232	H	1.327469	-0.088879	0.944629
H233	H	0.845878	-0.389944	0.757033
H234	H	1.345878	0.110056	1.257033
C235	C	0.677122	-0.414677	0.449739
C236	C	1.177122	0.085323	0.949739
C237	C	0.717809	-0.373144	0.493232
C238	C	1.217809	0.126856	0.993232
C239	C	0.750745	-0.416222	0.539936
C240	C	1.250745	0.083778	1.039936
H241	H	0.648411	-0.440408	0.477607
H242	H	1.148411	0.059592	0.977607
H243	H	0.700586	-0.446337	0.424044
H244	H	1.200586	0.053663	0.924044
H245	H	0.694347	-0.341496	0.518925
H246	H	1.194347	0.158504	1.018925
H247	H	0.746532	-0.347414	0.465384
H248	H	1.246532	0.152586	0.965384
H249	H	0.774209	-0.447882	0.514241
H250	H	1.274209	0.052118	1.014241
H251	H	0.722030	-0.441950	0.567799
H252	H	1.222030	0.058050	1.067799
H253	H	0.778359	-0.388048	0.569447
H254	H	1.278359	0.111952	1.069447
H255	H	0.343362	-0.319034	0.237239
H256	H	0.843362	0.180966	0.737239
C257	C	0.835280	-1.062788	0.435722
C258	C	1.335280	-0.562788	0.935722
C259	C	0.841036	-1.135292	0.429003
C260	C	1.341036	-0.635292	0.929003
C261	C	0.801375	-1.170352	0.475287
C262	C	1.301375	-0.670352	0.975287
H263	H	0.846550	-1.048910	0.482496
H264	H	1.346550	-0.548910	0.982496
H265	H	0.793195	-1.051275	0.424893
H266	H	1.293195	-0.551275	0.924893
H267	H	0.883112	-1.146800	0.439837
H268	H	1.383112	-0.646800	0.939837
H269	H	0.829762	-1.149191	0.382239
H270	H	1.329762	-0.649191	0.882239
H271	H	0.759290	-1.158838	0.464458
H272	H	1.259290	-0.658838	0.964458
H273	H	0.812648	-1.156468	0.522058
H274	H	1.312648	-0.656468	1.022058
H275	H	0.805271	-1.219549	0.470730
H276	H	1.305271	-0.719549	0.970730
C277	C	0.978100	-0.247144	0.938294
C278	C	1.478100	0.252856	1.438294
C279	C	1.016337	-0.205830	0.984584
C280	C	1.516337	0.294170	1.484584
C281	C	1.056640	-0.162265	0.946254
C282	C	1.556640	0.337735	1.446254
H283	H	1.003453	-0.275096	0.910747
H284	H	1.503453	0.224904	1.410747
H285	H	0.954143	-0.217652	0.908445
H286	H	1.454143	0.282348	1.408445
H287	H	1.040292	-0.235319	1.014420
H288	H	1.540292	0.264681	1.514420
H289	H	0.991001	-0.177864	1.012132
H290	H	1.491001	0.322136	1.512132
H291	H	1.032684	-0.132773	0.916405
H292	H	1.532684	0.367227	1.416405
H293	H	1.081989	-0.190223	0.918708
H294	H	1.581989	0.309777	1.418708
H295	H	1.082585	-0.134224	0.977656
H296	H	1.582585	0.365776	1.477656
C297	C	0.829300	-0.408053	0.614457
C298	C	1.329300	0.091947	1.114457
C299	C	0.841208	-0.476852	0.635079
C300	C	1.341208	0.023148	1.135079
C301	C	0.798287	-0.523429	0.600201
C302	C	1.298287	-0.023429	1.100201
H303	H	0.787980	-0.397394	0.626024
H304	H	1.287980	0.102606	1.126024
H305	H	0.833437	-0.403645	0.565237
H306	H	1.333437	0.096355	1.065237
H307	H	0.837065	-0.481258	0.684288
H308	H	1.337065	0.018742	1.184288
H309	H	0.882520	-0.487533	0.623512
H310	H	1.382520	0.012467	1.123512
H311	H	0.802424	-0.519021	0.550980
H312	H	1.302424	-0.019021	1.050980
H313	H	0.756969	-0.512764	0.611770
H314	H	1.256969	-0.012764	1.111770
H315	H	0.806364	-0.570115	0.614183
H316	H	1.306364	-0.070115	1.114183
H317	H	0.548956	-0.246293	0.267766
H318	H	1.048956	0.253707	0.767766
C319	C	1.008537	-0.214152	0.760107
C320	C	1.508537	0.285848	1.260107
C321	C	0.976204	-0.167403	0.800408
C322	C	1.476204	0.332597	1.300408
C323	C	1.019107	-0.120862	0.835363
C324	C	1.519107	0.379138	1.335363
H325	H	1.035989	-0.239783	0.789877
H326	H	1.535989	0.260217	1.289877
H327	H	1.032116	-0.188651	0.726706
H328	H	1.532116	0.311349	1.226706
H329	H	0.952636	-0.192901	0.833805
H330	H	1.452636	0.307099	1.333805
H331	H	0.948756	-0.141755	0.770656
H332	H	1.448756	0.358245	1.270656
H333	H	1.042686	-0.095361	0.801962
H334	H	1.542686	0.404639	1.301962
H335	H	1.046556	-0.146499	0.865128
H336	H	1.546556	0.353501	1.365128
H337	H	0.997176	-0.089134	0.862706
H338	H	1.497176	0.410866	1.362706
C339	C	0.804341	-0.434780	0.945698
C340	C	1.304341	0.065220	1.445698
C341	C	0.769671	-0.472214	0.995094
C342	C	1.269671	0.027786	1.495094
C343	C	0.726612	-0.518709	0.960316
C344	C	1.226612	-0.018709	1.460316
H345	H	0.776855	-0.409124	0.915994
H346	H	1.276855	0.090876	1.415994
H347	H	0.826141	-0.466595	0.918310
H348	H	1.326141	0.033405	1.418310
H349	H	0.747872	-0.440404	1.022470
H350	H	1.247872	0.059596	1.522470
H351	H	0.797140	-0.497884	1.024800
H352	H	1.297140	0.002116	1.524800
H353	H	0.748412	-0.550523	0.932928
H354	H	1.248412	-0.050523	1.432928
H355	H	0.699131	-0.493047	0.930613
H356	H	1.199131	0.006953	1.430613
H357	H	0.703087	-0.544118	0.993826
H358	H	1.203087	-0.044118	1.493826
H359	H	0.991981	-0.232232	0.617458
H360	H	1.491981	0.267768	1.117458
C361	C	0.810177	-0.428506	1.098756
C362	C	1.310177	0.071494	1.598756
C363	C	0.821796	-0.415982	1.170500
C364	C	1.321796	0.084018	1.670500
C365	C	0.781613	-0.459423	1.209109
C366	C	1.281613	0.040577	1.709109
H367	H	0.767963	-0.418763	1.086386
H368	H	1.267963	0.081237	1.586386
H369	H	0.817263	-0.476217	1.088658
H370	H	1.317263	0.023783	1.588658
H371	H	0.814706	-0.368282	1.180593
H372	H	1.314706	0.131718	1.680593
H373	H	0.864003	-0.425730	1.182891
H374	H	1.364003	0.074270	1.682891
H375	H	0.788698	-0.507135	1.199011
H376	H	1.288698	-0.007135	1.699011
H377	H	0.739400	-0.449676	1.196733
H378	H	1.239400	0.050324	1.696733
H379	H	0.789494	-0.450937	1.257791
H380	H	1.289494	0.049063	1.757791
H381	H	0.972115	-0.253630	1.081748
H382	H	1.472115	0.246370	1.581748
H383	H	0.549415	-0.403037	0.437084
H384	H	1.049415	0.096963	0.937084
H385	H	0.989985	-0.926509	0.254970
H386	H	1.489985	-0.426509	0.754970
H387	H	0.264492	-0.402972	0.437196
H388	H	0.764492	0.097028	0.937196
C389	C	0.977616	-0.585970	0.269058
C390	C	1.477616	-0.085970	0.769058
C391	C	0.960825	-0.606694	0.200236
C392	C	1.460825	-0.106694	0.700236
C393	C	1.000457	-0.571892	0.153744
C394	C	1.500457	-0.071892	0.653744
H395	H	0.973816	-0.536746	0.273414
H396	H	1.473816	-0.036746	0.773414
H397	H	1.019694	-0.597539	0.279843
H398	H	1.519694	-0.097539	0.779843
H399	H	0.918757	-0.595120	0.189454
H400	H	1.418757	-0.095120	0.689454
H401	H	0.964629	-0.655913	0.195858
H402	H	1.464629	-0.155913	0.695858
H403	H	1.042535	-0.583461	0.164529
H404	H	1.542535	-0.083461	0.664529
H405	H	0.996654	-0.522669	0.158106
H406	H	1.496654	-0.022669	0.658106
H407	H	0.989074	-0.585953	0.107044
H408	H	1.489074	-0.085953	0.607044
C409	C	0.995533	-1.070215	0.248643
C410	C	1.495533	-0.570215	0.748643
C411	C	0.984872	-1.141955	0.261170
C412	C	1.484872	-0.641955	0.761170
C413	C	1.022038	-1.180570	0.217861
C414	C	1.522038	-0.680570	0.717861
H415	H	0.985083	-1.060218	0.200905
H416	H	1.485083	-0.560218	0.700905
H417	H	1.038432	-1.057750	0.258516
H418	H	1.538432	-0.557750	0.758516
H419	H	0.941983	-1.154416	0.251292
H420	H	1.441983	-0.654416	0.751292
H421	H	0.995326	-1.151974	0.308899
H422	H	1.495326	-0.651974	0.808899
H423	H	1.064936	-1.168105	0.227734
H424	H	1.564936	-0.668105	0.727734
H425	H	1.011584	-1.170567	0.170126
H426	H	1.511584	-0.670567	0.670126
H427	H	1.014813	-1.229249	0.226359
H428	H	1.514813	-0.729249	0.726359
