data_functionalizedCrystal
_audit_creation_method	'MofGen! by Chris Wilmer'
_symmetry_space_group_name_H-M	'P1'
_symmetry_Int_Tables_number	1
_symmetry_cell_setting	triclinic
loop_
_symmetry_equiv_pos_as_xyz
  x,y,z
_cell_length_a	10.654541
_cell_length_b	19.188930
_cell_length_c	9.130307
_cell_angle_alpha	89.991600
_cell_angle_beta	89.999822
_cell_angle_gamma	83.814355
loop_
_atom_site_label
_atom_site_type_symbol
_atom_site_fract_x
_atom_site_fract_y
_atom_site_fract_z
O1	O	1.665764	0.098053	-0.121773
O2	O	1.300087	0.107397	-0.121788
O3	O	1.493478	0.001138	-0.121751
O4	O	1.472373	0.204312	-0.121809
O5	O	1.493472	0.001137	0.121848
O6	O	1.300081	0.107396	0.121811
O7	O	1.665758	0.098052	0.121826
Cu8	Cu	1.482919	0.102724	0.144061
Cu9	Cu	1.482926	0.102725	-0.144023
O10	O	1.472367	0.204311	0.121790
C11	C	1.253300	0.106711	0.000011
C12	C	1.113900	0.104659	0.000006
C13	C	1.492792	-0.024878	0.000052
C14	C	1.490740	-0.102396	0.000065
C15	C	1.083241	0.231721	-0.000048
C16	C	1.002423	0.294284	-0.000081
C17	C	0.871446	0.292352	-0.000082
C18	C	0.821285	0.227849	-0.000046
C19	C	0.902103	0.165286	-0.000013
C20	C	1.033082	0.167225	-0.000016
C21	C	0.932762	0.038226	0.000052
C22	C	1.063740	0.040156	0.000043
C23	C	0.882602	-0.026277	0.000089
C24	C	0.963421	-0.088842	0.000111
C25	C	1.094405	-0.086908	0.000111
C26	C	1.144558	-0.022408	0.000076
C27	C	1.604215	-0.146578	0.000076
C28	C	1.602288	-0.219414	0.000053
C29	C	1.486878	-0.248065	0.000047
C30	C	1.373388	-0.203873	0.000028
C31	C	1.375319	-0.131038	0.000036
N32	N	1.398659	-0.356647	0.082945
N33	N	1.396833	-0.425838	0.082940
C34	C	1.481054	-0.467512	0.000017
N35	N	1.567190	-0.437383	-0.082881
N36	N	1.569020	-0.368186	-0.082869
C37	C	1.484772	-0.327041	0.000037
C38	C	1.592448	-0.590672	0.000001
C39	C	1.590515	-0.663510	-0.000031
C40	C	1.361612	-0.647967	-0.000042
C41	C	1.363548	-0.575131	-0.000024
C42	C	1.478969	-0.546488	0.000005
C43	C	1.712544	0.098738	0.000025
C44	C	1.851944	0.100790	0.000019
C45	C	1.473053	0.230327	-0.000017
C46	C	1.475105	0.307845	-0.000039
N47	N	1.482923	0.102723	0.346684
N48	N	1.482932	0.102721	-0.346646
C49	C	1.654240	0.008658	0.346706
C50	C	1.739906	-0.038372	0.423384
C51	C	1.739919	-0.038373	0.576717
C52	C	1.654253	0.008661	0.653377
C53	C	1.568586	0.055691	0.576699
C54	C	1.568585	0.055688	0.423362
C55	C	1.397265	0.149751	0.576677
C56	C	1.397257	0.149756	0.423343
C57	C	1.311599	0.196785	0.653336
C58	C	1.225937	0.243819	0.576658
C59	C	1.225929	0.243818	0.423315
C60	C	1.311590	0.196786	0.346665
H61	H	1.043278	0.346802	-0.000107
H62	H	1.682925	-0.699483	-0.000030
H63	H	1.156164	0.282114	0.360892
C64	C	1.340534	-0.054228	-0.125134
C65	C	1.288529	-0.020278	0.000072
H66	H	1.429415	-0.052907	-0.125135
H67	H	1.322236	-0.101590	-0.125095
H68	H	1.305234	-0.031202	-0.210086
H69	H	1.323823	-0.043308	0.085025
H70	H	1.306838	0.027092	0.000046
C71	C	1.336537	0.262698	0.126984
C72	C	1.311587	0.196784	0.178119
H73	H	1.336544	0.262691	0.022929
H74	H	1.273259	0.297431	0.161652
H75	H	1.416741	0.272667	0.161674
H76	H	1.231379	0.186817	0.143437
H77	H	1.374869	0.162041	0.143436
C78	C	0.625310	0.259665	-0.125273
C79	C	0.677313	0.225725	-0.000036
H80	H	0.536429	0.258348	-0.125268
H81	H	0.643615	0.307026	-0.125283
H82	H	0.660606	0.236630	-0.210204
H83	H	0.642024	0.248763	0.084896
H84	H	0.658998	0.178355	-0.000013
C85	C	1.149879	0.285579	0.811699
C86	C	1.131783	0.295515	0.660922
H87	H	1.091756	0.317498	0.863720
H88	H	1.136504	0.238915	0.836826
H89	H	1.233647	0.293597	0.836807
H90	H	1.048017	0.287491	0.635812
H91	H	1.145147	0.342189	0.635785
C92	C	1.629310	-0.057262	0.873039
C93	C	1.654262	0.008655	0.821923
H94	H	1.629322	-0.057265	0.977094
H95	H	1.549112	-0.067226	0.838362
H96	H	1.692590	-0.091997	0.838346
H97	H	1.590976	0.043390	0.856608
H98	H	1.734471	0.018626	0.856616
C99	C	1.727401	-0.517756	-0.125201
C100	C	1.719310	-0.559178	0.000012
H101	H	1.805717	-0.498310	-0.125188
H102	H	1.721898	-0.545837	-0.210139
H103	H	1.660082	-0.481020	-0.125176
H104	H	1.786623	-0.595917	-0.000018
H105	H	1.724825	-0.531094	0.084972
C106	C	0.833906	-0.164732	-0.125069
C107	C	0.908285	-0.159738	0.000149
H108	H	0.799872	-0.208503	-0.125049
H109	H	0.767040	-0.127751	-0.125067
H110	H	0.884374	-0.161339	-0.210013
H111	H	0.857815	-0.163126	0.085094
H112	H	0.975160	-0.196729	0.000160
H113	H	1.311608	0.196779	0.778188
C114	C	1.137101	-0.567086	-0.000014
C115	C	1.238810	-0.526561	-0.000011
H116	H	1.060091	-0.537099	0.000001
H117	H	1.141106	-0.595806	-0.084963
H118	H	1.141119	-0.595830	0.084934
H119	H	1.234797	-0.497821	-0.084965
H120	H	1.234803	-0.497829	0.084947
H121	H	1.698200	-0.123262	0.000095
C122	C	0.703317	-0.063630	0.125330
C123	C	0.738631	-0.028404	0.000087
H124	H	0.614434	-0.064940	0.125325
H125	H	0.744268	-0.110115	0.125347
H126	H	0.727284	-0.039716	0.210257
H127	H	0.714672	-0.052321	-0.084841
H128	H	0.697665	0.018090	0.000056
H129	H	1.654248	0.008659	0.221854
C130	C	1.111543	-0.212699	0.000168
C131	C	1.183237	-0.155682	0.000139
H132	H	1.166383	-0.255157	0.000175
H133	H	1.059827	-0.210806	0.085114
H134	H	1.059812	-0.210807	-0.084784
H135	H	1.234962	-0.157571	0.085096
H136	H	1.234975	-0.157575	-0.084816
C137	C	1.700955	-0.337970	0.000064
C138	C	1.727027	-0.267992	0.000075
H139	H	1.777965	-0.367957	0.000071
H140	H	1.653609	-0.346714	0.084996
H141	H	1.653624	-0.346699	-0.084901
H142	H	1.774350	-0.259262	0.085046
H143	H	1.774393	-0.259245	-0.084866
C144	C	1.814383	-0.158850	0.376106
C145	C	1.834068	-0.090052	0.339074
H146	H	1.872509	-0.190748	0.324039
H147	H	1.826676	-0.165594	0.478378
H148	H	1.730617	-0.166867	0.350990
H149	H	1.917832	-0.082033	0.364200
H150	H	1.821786	-0.083305	0.236778
C151	C	1.910905	-0.052633	0.749158
C152	C	1.834081	-0.090070	0.661010
H153	H	1.969029	-0.084551	0.801200
H154	H	1.955904	-0.023344	0.689325
H155	H	1.859879	-0.024624	0.816747
H156	H	1.885107	-0.118076	0.593412
H157	H	1.789078	-0.119371	0.720848
H158	H	1.279421	-0.227205	0.000020
H159	H	1.189888	0.233300	-0.000080
H160	H	0.805642	0.343297	-0.000099
H161	H	1.282910	-0.095064	0.000027
H162	H	1.267643	-0.671293	-0.000054
