data_functionalizedCrystal
_audit_creation_method	'MofGen! by Chris Wilmer'
_symmetry_space_group_name_H-M	'P1'
_symmetry_Int_Tables_number	1
_symmetry_cell_setting	triclinic
loop_
_symmetry_equiv_pos_as_xyz
  x,y,z
_cell_length_a	10.540539
_cell_length_b	17.038272
_cell_length_c	9.016244
_cell_angle_alpha	89.997742
_cell_angle_beta	89.994699
_cell_angle_gamma	87.818524
loop_
_atom_site_label
_atom_site_type_symbol
_atom_site_fract_x
_atom_site_fract_y
_atom_site_fract_z
O1	O	1.696177	0.110247	-0.123272
O2	O	1.327733	0.120634	-0.123290
O3	O	1.509765	0.001613	-0.123269
O4	O	1.514144	0.229268	-0.123293
O5	O	1.509737	0.001615	0.123411
O6	O	1.327704	0.120637	0.123390
O7	O	1.696149	0.110249	0.123409
Cu8	Cu	1.511924	0.115443	0.145924
Cu9	Cu	1.511957	0.115440	-0.145805
O10	O	1.514116	0.229271	0.123388
C11	C	1.280343	0.119857	0.000048
C12	C	1.139177	0.117526	0.000041
C13	C	0.947420	0.028219	0.000626
C14	C	1.094259	0.030581	0.000055
C15	C	1.081424	0.159366	-0.140824
C16	C	0.934603	0.156399	-0.140927
C17	C	0.934247	0.158170	0.139595
C18	C	1.081304	0.158971	0.141442
C19	C	1.505768	-0.027537	0.000071
C20	C	1.493883	-0.114398	0.000070
C21	C	1.602994	-0.163886	0.000077
C22	C	1.591820	-0.245501	0.000062
C23	C	1.471534	-0.277626	0.000051
C24	C	1.362416	-0.228133	0.000039
C25	C	1.373591	-0.146519	0.000044
C26	C	1.432055	-0.523611	0.000029
C27	C	1.420888	-0.605231	0.000029
C28	C	1.650293	-0.622593	0.000049
C29	C	1.661457	-0.540977	0.000062
C30	C	1.552339	-0.491491	0.000042
C31	C	1.460110	-0.361050	0.000041
C32	C	1.563764	-0.408069	0.000042
C33	C	1.743538	0.111027	0.000068
C34	C	1.884704	0.113358	0.000065
C35	C	1.518114	0.258421	0.000045
C36	C	1.529998	0.345282	0.000036
N37	N	1.511910	0.115445	0.351110
N38	N	1.511981	0.115432	-0.350991
C39	C	1.414197	0.178900	0.586131
C40	C	1.414449	0.179138	0.414240
C41	C	1.646365	0.134015	0.413453
C42	C	1.645841	0.134465	0.585397
C43	C	1.476465	0.033212	0.585660
C44	C	1.473470	0.033745	0.413706
H45	H	1.133790	-0.002340	0.101034
O46	O	1.281796	0.164346	0.640972
H47	H	1.284263	0.111724	0.713637
H48	H	1.661700	-0.381909	0.000018
H49	H	1.119403	0.128406	0.245654
O50	O	1.445702	0.259939	0.359722
H51	H	1.365908	0.284267	0.291422
O52	O	0.879454	0.241356	0.140864
H53	H	0.823114	0.251277	0.243627
H54	H	0.915619	-0.006128	0.101649
H55	H	1.675791	0.194450	0.625482
O56	O	0.889000	0.120896	0.281041
H57	H	0.830687	0.070009	0.253463
H58	H	1.109733	0.223216	-0.146072
H59	H	1.721345	0.090100	0.626988
O60	O	0.893412	0.115432	-0.280389
H61	H	0.841156	0.062393	-0.250200
H62	H	0.892467	0.218928	-0.147327
O63	O	1.732736	-0.129243	0.000089
H64	H	1.722181	-0.064178	0.000105
O65	O	1.282435	0.164360	0.358398
H66	H	1.284810	0.110234	0.289794
H67	H	1.264477	-0.254296	0.000021
H68	H	1.362173	-0.387215	0.000035
H69	H	1.343202	-0.483328	0.000013
O70	O	1.570728	-0.029391	0.639532
H71	H	1.667360	-0.015390	0.601240
O72	O	1.745541	0.074461	0.359291
H73	H	1.699942	0.030893	0.287184
H74	H	1.680669	-0.285790	0.000071
O75	O	1.255910	-0.093138	0.000052
H76	H	1.170390	-0.129186	0.000061
O77	O	0.903186	-0.017099	-0.132417
H78	H	0.930738	0.013586	-0.235441
H79	H	1.322932	-0.631384	0.000044
H80	H	1.676795	0.193323	0.370370
O81	O	1.134236	0.120863	-0.279695
H82	H	1.201600	0.071936	-0.248742
H83	H	1.380079	0.015538	0.629105
O84	O	1.342389	0.015102	0.359757
H85	H	1.342072	0.013060	0.236714
H86	H	1.759406	-0.514827	0.000071
H87	H	1.111442	0.222360	0.149940
O88	O	1.767981	-0.675966	0.000067
H89	H	1.768400	-0.713558	-0.100482
H90	H	1.437522	0.239555	0.629319
O91	O	1.560796	-0.031820	0.356818
H92	H	1.555776	-0.033749	0.233914
H93	H	1.132923	-0.002574	-0.101092
