data_functionalizedCrystal
_audit_creation_method	'MofGen! by Chris Wilmer'
_symmetry_space_group_name_H-M	'P1'
_symmetry_Int_Tables_number	1
_symmetry_cell_setting	triclinic
loop_
_symmetry_equiv_pos_as_xyz
  x,y,z
_cell_length_a	10.654545
_cell_length_b	10.489716
_cell_length_c	9.130313
_cell_angle_alpha	89.998959
_cell_angle_beta	90.003278
_cell_angle_gamma	84.506107
loop_
_atom_site_label
_atom_site_type_symbol
_atom_site_fract_x
_atom_site_fract_y
_atom_site_fract_z
O1	O	1.667912	0.179134	0.121770
O2	O	1.302439	0.196209	0.121775
O3	O	1.493508	0.002067	0.121778
O4	O	1.476843	0.373275	0.121768
O5	O	1.493493	0.002067	-0.121821
O6	O	1.302425	0.196209	-0.121824
O7	O	1.667897	0.179134	-0.121828
Cu8	Cu	1.485160	0.187671	-0.144069
Cu9	Cu	1.485177	0.187671	0.144015
O10	O	1.476829	0.373275	-0.121831
C11	C	1.255633	0.194957	-0.000023
C12	C	1.116188	0.191209	-0.000021
C13	C	1.050675	0.189445	-0.132808
C14	C	0.919654	0.185903	-0.132807
C15	C	0.919671	0.185894	0.132777
C16	C	1.050690	0.189427	0.132776
C17	C	1.492248	-0.045464	-0.000017
C18	C	1.488502	-0.187093	-0.000004
C19	C	1.605671	-0.284826	-0.000018
C20	C	1.543764	-0.362155	0.120085
C21	C	1.543722	-0.362119	-0.120084
C22	C	1.426643	-0.262558	0.120200
C23	C	1.426619	-0.262516	-0.120078
C24	C	1.364625	-0.339797	0.000056
C25	C	1.714703	0.180386	-0.000027
C26	C	1.854148	0.184134	-0.000019
C27	C	1.478088	0.420807	-0.000033
C28	C	1.481834	0.562436	-0.000037
N29	N	1.485157	0.187671	-0.346691
C30	C	1.562018	0.265757	-0.423341
C31	C	1.562038	0.265750	-0.576678
C32	C	1.408325	0.109567	-0.576701
C33	C	1.408313	0.109569	-0.423367
N34	N	1.485190	0.187662	0.346638
H35	H	0.866326	0.184445	0.240896
C36	C	1.613235	0.479917	-0.376140
C37	C	1.646494	0.351596	-0.339060
H38	H	1.665398	0.532907	-0.324117
H39	H	1.527529	0.502800	-0.351016
H40	H	1.624245	0.491070	-0.478434
H41	H	1.635476	0.340440	-0.236767
H42	H	1.732222	0.328705	-0.364174
H43	H	1.593232	-0.405675	0.221626
C44	C	1.772862	0.317843	-0.623826
C45	C	1.646524	0.351590	-0.660927
H46	H	1.825021	0.370845	-0.675832
H47	H	1.795419	0.230795	-0.648957
H48	H	1.783829	0.329023	-0.521529
H49	H	1.635556	0.340400	-0.763223
H50	H	1.623960	0.438658	-0.635806
C51	C	1.197472	0.057498	-0.376192
C52	C	1.323811	0.023735	-0.339108
H53	H	1.145310	0.004512	-0.324167
H54	H	1.186492	0.046317	-0.478473
H55	H	1.174930	0.144560	-0.351060
H56	H	1.346356	-0.063326	-0.364250
H57	H	1.334798	0.034905	-0.236804
H58	H	1.104000	0.190896	-0.240939
C59	C	1.234371	-0.232874	-0.258404
C60	C	1.359899	-0.203728	-0.257158
H61	H	1.193192	-0.196586	-0.343046
H62	H	1.192628	-0.198624	-0.173155
H63	H	1.232163	-0.323182	-0.259880
H64	H	1.362106	-0.113419	-0.255671
H65	H	1.401653	-0.237972	-0.342429
H66	H	1.262631	-0.364176	0.000122
C67	C	1.445309	-0.140397	0.340188
C68	C	1.359940	-0.204090	0.257451
H69	H	1.404135	-0.104311	0.424927
H70	H	1.475592	-0.074234	0.282909
H71	H	1.514087	-0.199459	0.368859
H72	H	1.291166	-0.145026	0.228770
H73	H	1.329638	-0.270260	0.314740
H74	H	1.345760	0.045981	-0.639150
H75	H	1.104033	0.190860	0.240913
C76	C	0.932805	0.186286	-0.395322
C77	C	0.847641	0.183973	-0.278771
H78	H	0.888344	0.185101	-0.485436
H79	H	0.992823	0.113415	-0.389804
H80	H	0.974990	0.261925	-0.389781
H81	H	0.805463	0.108328	-0.284306
H82	H	0.787601	0.256851	-0.284292
C83	C	1.804313	-0.302027	0.126129
C84	C	1.743231	-0.251508	0.000178
H85	H	1.889225	-0.281430	0.126267
H86	H	1.802899	-0.392423	0.126972
H87	H	1.762248	-0.266469	0.210568
H88	H	1.785290	-0.287073	-0.084262
H89	H	1.744652	-0.161094	-0.000679
H90	H	1.593203	-0.405616	-0.221620
