data_functionalizedCrystal
_audit_creation_method	'MofGen! by Chris Wilmer'
_symmetry_space_group_name_H-M	'P1'
_symmetry_Int_Tables_number	1
_symmetry_cell_setting	triclinic
loop_
_symmetry_equiv_pos_as_xyz
  x,y,z
_cell_length_a	23.096457
_cell_length_b	14.560438
_cell_length_c	14.560438
_cell_angle_alpha	90.001144
_cell_angle_beta	60.000457
_cell_angle_gamma	60.002684
loop_
_atom_site_label
_atom_site_type_symbol
_atom_site_fract_x
_atom_site_fract_y
_atom_site_fract_z
Zr1	Zr	0.633723	-0.120472	0.884789
O2	O	0.754508	-0.267112	0.738145
O3	O	0.512937	-0.075525	0.929740
O4	O	0.633721	-0.267118	0.929744
O5	O	0.633726	0.075620	0.738142
O6	O	0.633720	-0.267116	1.080884
O7	O	0.633724	-0.075519	0.738141
O8	O	0.417660	0.075609	1.080877
O9	O	0.849786	-0.267105	0.738149
O10	O	0.562617	-0.056347	1.061709
O11	O	0.562619	0.056445	0.948916
O12	O	0.704827	-0.169132	0.948920
O13	O	0.704828	-0.056340	0.836127
Zr14	Zr	0.633724	0.120579	1.125842
Zr15	Zr	0.633721	-0.120469	1.125840
Zr16	Zr	0.633725	0.120576	0.884790
Zr17	Zr	0.785680	-0.120462	0.884795
Zr18	Zr	0.481766	0.120569	1.125836
O19	O	0.754509	0.075632	1.080891
O20	O	0.754506	-0.267108	1.080889
O21	O	0.754511	0.075628	0.738147
O22	O	0.512939	0.267219	1.272486
O23	O	0.512935	-0.075521	1.272484
O24	O	0.512941	0.267215	0.929742
O25	O	0.633721	-0.075513	1.272489
O26	O	0.633726	0.267225	1.080887
O27	O	0.633726	0.267223	0.929747
O28	O	0.633722	0.075626	1.272490
O29	O	0.849785	-0.267103	0.929753
O30	O	0.417662	0.267210	1.080878
O31	O	0.417661	0.267212	1.272482
O32	O	0.417659	0.075611	1.272481
O33	O	0.849788	-0.075504	0.738150
O34	O	0.849787	-0.075502	0.929754
O35	O	0.562620	0.169239	1.061711
O36	O	0.562618	0.056447	1.174504
O37	O	0.704827	-0.056338	1.061715
O38	O	0.704829	0.056454	0.948921
C39	C	0.443648	0.000041	1.005308
C40	C	0.379138	0.000036	1.005305
C41	C	0.633725	0.000050	0.703797
C42	C	0.633726	0.000049	0.601465
C43	C	0.633726	0.301568	1.005317
C44	C	0.633727	0.403899	1.005318
C45	C	0.348836	-0.058844	1.064175
C46	C	0.288214	-0.058835	1.064186
C47	C	0.257907	0.000040	1.005305
C48	C	0.288213	0.058933	0.946433
C49	C	0.348828	0.058931	0.946433
N50	N	0.195512	-0.008126	0.909488
N51	N	0.137931	-0.008130	0.909490
C52	C	0.075275	0.000050	1.005304
N53	N	0.072383	0.008213	1.101114
N54	N	0.129971	0.008212	1.101110
C55	C	0.192180	0.000049	1.005300
C56	C	-0.020761	-0.058823	1.064191
C57	C	-0.081388	-0.058806	1.064205
C58	C	-0.081382	0.058954	0.946442
C59	C	-0.020762	0.058944	0.946438
C60	C	0.009548	0.000050	1.005310
C61	C	0.823799	0.000066	1.005323
C62	C	0.888309	0.000071	1.005326
C63	C	0.633720	-0.301461	1.005314
C64	C	0.633719	-0.403792	1.005313
C65	C	0.707958	0.393105	0.946444
C66	C	0.707954	0.489260	0.946439
C67	C	0.559483	0.607000	1.064188
C68	C	0.559487	0.510846	1.064187
C69	C	0.633726	-0.083216	0.553388
C70	C	0.633721	-0.083210	0.457240
C71	C	0.633717	0.083332	0.457252
C72	C	0.633717	0.083329	0.553402
C73	C	0.633721	0.000057	1.306834
C74	C	0.633721	0.000058	1.409166
C75	C	0.443646	0.000044	1.306826
C76	C	0.379135	0.000041	1.409156
C77	C	0.443651	0.301555	1.005309
C78	C	0.379142	0.403882	1.005307
C79	C	0.443649	0.301558	1.306828
C80	C	0.379140	0.403887	1.409158
C81	C	0.823797	-0.301451	0.703803
C82	C	0.888307	-0.403780	0.601473
C83	C	0.823800	0.000063	0.703805
C84	C	0.888311	0.000066	0.601475
C85	C	0.823795	-0.301448	1.005322
C86	C	0.888304	-0.403775	1.005324
C87	C	0.348840	-0.058848	1.398334
C88	C	0.288234	-0.058874	1.494474
C89	C	0.257920	-0.000003	1.601436
C90	C	0.288221	0.058888	1.612257
C91	C	0.348830	0.058906	1.516117
C92	C	0.348848	0.510823	1.064184
C93	C	0.288244	0.606980	1.064178
C94	C	0.257930	0.596192	1.005301
C95	C	0.288230	0.489240	0.946417
C96	C	0.348837	0.393086	0.946417
C97	C	0.348844	0.393065	1.516101
C98	C	0.288239	0.489204	1.612261
C99	C	0.257927	0.596163	1.601475
C100	C	0.288228	0.606983	1.494521
C101	C	0.348836	0.510845	1.398364
C102	C	0.918609	-0.392958	0.494530
C103	C	0.979233	-0.489097	0.398370
C104	C	1.009549	-0.596056	0.409156
C105	C	0.979244	-0.606876	0.516110
C106	C	0.918625	-0.510738	0.612267
C107	C	0.918612	0.058945	0.612297
C108	C	0.979235	0.058944	0.516157
C109	C	1.009551	0.000070	0.409195
C110	C	0.979247	-0.058816	0.398374
C111	C	0.918630	-0.058821	0.494514
C112	C	0.918599	-0.392952	1.064212
C113	C	0.979204	-0.489089	1.064236
C114	C	1.009517	-0.596050	1.005364
C115	C	0.979216	-0.606871	0.946474
C116	C	0.918609	-0.510734	0.946457
H117	H	0.373510	-0.106796	1.112115
F118	F	0.886383	-0.121485	0.482978
F119	F	0.255953	0.121599	0.883776
H120	H	0.633714	0.151139	0.592551
H121	H	1.058910	0.000083	0.330921
F122	F	0.886377	-0.522273	0.726081
H123	H	1.003940	-0.106750	0.311273
F124	F	1.011515	-0.720719	0.527571
F125	F	0.381094	-0.121514	1.284505
H126	H	0.373495	0.519672	1.311290
F127	F	0.255951	-0.121495	1.126855
H128	H	0.893927	-0.305868	1.112153
H129	H	0.633732	-0.151026	0.592519
F130	F	1.011444	-0.477549	1.126912
F131	F	0.480476	0.720824	1.126840
F132	F	0.480477	0.522338	1.126845
F133	F	0.255949	0.121541	1.726103
H134	H	1.058868	-0.674321	1.005386
F135	F	0.381098	0.279239	1.527605
H136	H	1.003897	-0.480265	0.311293
F137	F	0.381079	0.121603	0.883774
F138	F	0.786970	0.279287	0.883788
F139	F	0.886361	0.121608	0.726126
F140	F	1.011492	-0.720715	0.883814
F141	F	0.011491	0.121610	0.883778
H142	H	0.893950	-0.519563	0.898498
F143	F	0.381097	0.522330	1.126858
F144	F	0.633711	0.171957	0.406092
F145	F	0.193421	0.698473	1.703825
H146	H	0.633720	-0.151011	0.418100
F147	F	0.255994	-0.121552	1.482935
H148	H	0.263540	0.480473	0.898481
F149	F	0.193413	-0.000031	1.703748
F150	F	1.011473	0.121625	0.527696
F151	F	0.886354	-0.279132	0.483025
F152	F	0.256006	0.720795	1.126856
F153	F	0.011494	-0.121495	1.126854
H154	H	-0.106064	-0.106748	1.112151
H155	H	0.208580	0.674496	1.005310
H156	H	0.373489	0.106867	1.524945
F157	F	1.074065	-0.698366	0.306806
H158	H	0.373495	0.306013	0.898476
H159	H	-0.106057	0.106891	0.898500
F160	F	0.255999	0.477665	1.726078
H161	H	0.263538	0.694082	1.485756
H162	H	0.768400	0.480461	0.898496
