data_functionalizedCrystal
_audit_creation_method	'MofGen! by Chris Wilmer'
_symmetry_space_group_name_H-M	'P1'
_symmetry_Int_Tables_number	1
_symmetry_cell_setting	triclinic
loop_
_symmetry_equiv_pos_as_xyz
  x,y,z
_cell_length_a	11.792241
_cell_length_b	16.109296
_cell_length_c	15.186229
_cell_angle_alpha	89.996416
_cell_angle_beta	90.004715
_cell_angle_gamma	83.826352
loop_
_atom_site_label
_atom_site_type_symbol
_atom_site_fract_x
_atom_site_fract_y
_atom_site_fract_z
O1	O	-0.145850	-1.103823	0.073177
O2	O	-0.164012	-0.861846	0.073187
O3	O	0.010291	-0.988707	0.073187
O4	O	-0.320153	-0.976962	0.073177
O5	O	0.010282	-0.988692	-0.073270
O6	O	-0.164021	-0.861831	-0.073270
O7	O	-0.145860	-1.103808	-0.073280
Zn8	Zn	-0.154942	-0.982817	-0.096528
Zn9	Zn	-0.154929	-0.982837	0.096435
O10	O	-0.320163	-0.976947	-0.073280
C11	C	-0.163282	-0.830860	-0.000040
C12	C	-0.161079	-0.738554	-0.000036
C13	C	-0.257306	-0.430008	-0.000056
C14	C	-0.259386	-0.516738	-0.000051
C15	C	-0.052585	-0.535638	-0.000033
C16	C	-0.050506	-0.448909	-0.000032
C17	C	-0.152870	-0.396096	-0.000048
C18	C	-0.157029	-0.569555	-0.000043
C19	C	-0.159283	-0.663592	-0.000037
C20	C	-0.150616	-0.302053	-0.000053
C21	C	-0.362442	-0.977693	-0.000053
C22	C	-0.488437	-0.979901	-0.000057
C23	C	-0.719113	-0.983961	-0.000035
C24	C	-0.590748	-0.981705	-0.000047
C25	C	0.052571	-0.987961	-0.000038
C26	C	0.178565	-0.985753	-0.000029
N27	N	-0.154950	-0.982810	-0.228221
C28	C	-0.146596	-0.134793	-0.000052
C29	C	-0.148819	-0.227097	-0.000055
C30	C	-0.223790	-1.033558	-0.453948
C31	C	-0.223782	-1.033567	-0.546138
C32	C	-0.086065	-0.932101	-0.546138
C33	C	-0.086068	-0.932097	-0.453950
C34	C	-0.154937	-0.982824	-0.407858
C35	C	-0.154926	-0.982837	-0.592235
C36	C	-0.154916	-0.982846	-0.692192
C37	C	-0.154945	-0.982816	-0.307895
N38	N	-0.154912	-0.982851	0.228128
H39	H	-0.344428	-0.544344	-0.000057
O40	O	0.046741	-0.587061	-0.000064
C41	C	0.022515	-0.670883	-0.000047
H42	H	-0.066632	-0.674605	-0.027781
H43	H	0.026827	-0.695950	0.070215
C44	C	0.220140	-0.718986	-0.023417
C45	C	0.110652	-0.723558	-0.057486
H46	H	0.274510	-0.751480	-0.058844
H47	H	0.236464	-0.662514	-0.023425
H48	H	0.223718	-0.739874	0.035134
H49	H	0.107072	-0.702661	-0.116032
H50	H	0.094330	-0.780028	-0.057490
H51	H	0.034543	-0.421299	-0.000022
H52	H	-0.029996	-0.890800	-0.583678
O53	O	-0.019150	-0.882733	-0.409309
C54	C	0.041650	-0.837971	-0.469757
H55	H	-0.005329	-0.833328	-0.535477
H56	H	0.130727	-0.871821	-0.479551
C57	C	0.108897	-0.755321	-0.353063
C58	C	0.051191	-0.749614	-0.433779
H59	H	0.114788	-0.700820	-0.330869
H60	H	0.067939	-0.785480	-0.312337
H61	H	0.183122	-0.783534	-0.361235
H62	H	-0.023037	-0.721412	-0.425604
H63	H	0.092137	-0.719448	-0.474504
H64	H	-0.340658	-0.387009	-0.000069
H65	H	-0.279867	-1.074863	-0.416422
H66	H	-0.279847	-1.074880	-0.583661
