data_functionalizedCrystal
_audit_creation_method	'MofGen! by Chris Wilmer'
_symmetry_space_group_name_H-M	'P1'
_symmetry_Int_Tables_number	1
_symmetry_cell_setting	triclinic
loop_
_symmetry_equiv_pos_as_xyz
  x,y,z
_cell_length_a	18.050591
_cell_length_b	25.639239
_cell_length_c	18.050582
_cell_angle_alpha	90.024638
_cell_angle_beta	90.020922
_cell_angle_gamma	90.034692
loop_
_atom_site_label
_atom_site_type_symbol
_atom_site_fract_x
_atom_site_fract_y
_atom_site_fract_z
Zn1	Zn	1.135238	-0.208240	0.420021
Zn2	Zn	1.468572	0.125094	0.753354
Zn3	Zn	1.801905	0.458427	1.086687
Zn4	Zn	1.135126	-0.295667	0.295826
Zn5	Zn	1.468460	0.037666	0.629160
Zn6	Zn	1.801793	0.370999	0.962493
Zn7	Zn	1.011058	-0.208242	0.295832
Zn8	Zn	1.344391	0.125092	0.629165
Zn9	Zn	1.677724	0.458425	0.962498
Zn10	Zn	1.010983	-0.295640	0.419962
Zn11	Zn	1.344316	0.037693	0.753295
Zn12	Zn	1.677650	0.371027	1.086628
O13	O	1.073101	-0.251947	0.357910
O14	O	1.406435	0.081386	0.691243
O15	O	1.739768	0.414719	1.024577
O16	O	1.239148	-0.219848	0.403568
O17	O	1.572482	0.113485	0.736902
O18	O	1.905815	0.446819	1.070235
O19	O	1.118653	-0.284083	0.191902
O20	O	1.451986	0.049251	0.525236
O21	O	1.785320	0.382584	0.858569
O22	O	1.027609	-0.135076	0.312333
O23	O	1.360942	0.198257	0.645666
O24	O	1.694275	0.531590	0.978999
O25	O	1.239066	-0.284081	0.312323
O26	O	1.572399	0.049253	0.645657
O27	O	1.905733	0.382586	0.978990
O28	O	1.118844	-0.135075	0.403574
O29	O	1.452177	0.198259	0.736907
O30	O	1.785510	0.531592	1.070241
O31	O	1.027500	-0.219851	0.191906
O32	O	1.360833	0.113482	0.525240
O33	O	1.694167	0.446815	0.858573
O34	O	0.907123	-0.219825	0.312276
O35	O	1.240457	0.113509	0.645609
O36	O	1.573790	0.446842	0.978942
O37	O	1.027481	-0.284034	0.523894
O38	O	1.360815	0.049300	0.857228
O39	O	1.694148	0.382633	1.190561
O40	O	0.907068	-0.284036	0.403473
O41	O	1.240402	0.049298	0.736807
O42	O	1.573735	0.382631	1.070140
O43	O	1.118771	-0.219821	0.523938
O44	O	1.452105	0.113512	0.857271
O45	O	1.785438	0.446846	1.190604
O46	O	1.118580	-0.368829	0.312266
O47	O	1.451914	-0.035496	0.645599
O48	O	1.785247	0.297838	0.978933
O49	O	1.027373	-0.368809	0.403468
O50	O	1.360706	-0.035475	0.736801
O51	O	1.694039	0.297858	1.070135
C52	C	0.880149	-0.251928	0.357869
C53	C	1.213483	0.081406	0.691202
C54	C	1.546816	0.414739	1.024536
C55	C	0.797604	-0.251932	0.357869
C56	C	1.130937	0.081401	0.691202
C57	C	1.464270	0.414735	1.024536
C58	C	1.072977	-0.387790	0.357876
C59	C	1.406310	-0.054456	0.691209
C60	C	1.739643	0.278877	1.024543
C61	C	1.072991	-0.445904	0.357886
C62	C	1.406324	-0.112570	0.691220
C63	C	1.739658	0.220763	1.024553
C64	C	0.598161	-0.216974	0.308390
C65	C	0.931495	0.116360	0.641723
C66	C	1.264828	0.449693	0.975057
C67	C	0.548729	-0.264661	0.290112
C68	C	0.882062	0.068672	0.623445
C69	C	1.215396	0.402006	0.956778
C70	C	0.646473	-0.251948	0.357903
C71	C	0.979806	0.081385	0.691236
C72	C	1.313140	0.414719	1.024569
C73	C	0.548824	-0.204277	0.376179
C74	C	0.882157	0.129056	0.709513
C75	C	1.215490	0.462390	1.042846
C76	C	0.500488	-0.251959	0.357934
C77	C	0.833821	0.081374	0.691267
C78	C	1.167155	0.414708	1.024600
C79	C	0.598128	-0.299660	0.339589
C80	C	0.931462	0.033673	0.672922
C81	C	1.264795	0.367006	1.006255
C82	C	0.598227	-0.239244	0.425688
C83	C	0.931560	0.094089	0.759021
C84	C	1.264894	0.427423	1.092355
C85	C	0.548817	-0.286965	0.407435
C86	C	0.882151	0.046369	0.740769
C87	C	1.215484	0.379702	1.074102
C88	C	0.730571	-0.251941	0.357883
C89	C	1.063905	0.081393	0.691216
C90	C	1.397238	0.414726	1.024550
C91	C	0.416392	-0.251971	0.357954
C92	C	0.749725	0.081362	0.691287
C93	C	1.083058	0.414695	1.024620
C94	C	1.120717	-0.806265	0.310502
C95	C	1.454051	-0.472932	0.643836
C96	C	1.787384	-0.139598	0.977169
C97	C	1.120746	-0.860869	0.310512
C98	C	1.454079	-0.527536	0.643846
C99	C	1.787413	-0.194202	0.977179
O100	O	1.161195	-0.889104	0.270187
O101	O	1.494528	-0.555771	0.603521
O102	O	1.827862	-0.222438	0.936854
N103	N	1.073232	-0.888186	0.357959
N104	N	1.406565	-0.554853	0.691293
N105	N	1.739899	-0.221520	1.024626
C106	C	1.025691	-0.860896	0.405405
C107	C	1.359025	-0.527563	0.738738
C108	C	1.692358	-0.194230	1.072072
O109	O	0.985280	-0.889145	0.445764
O110	O	1.318613	-0.555812	0.779097
O111	O	1.651947	-0.222479	1.112431
C112	C	1.025667	-0.806293	0.405398
C113	C	1.359000	-0.472960	0.738732
C114	C	1.692334	-0.139626	1.072065
C115	C	1.073179	-0.778979	0.357943
C116	C	1.406512	-0.445645	0.691276
C117	C	1.739845	-0.112312	1.024609
C118	C	1.168226	-0.778951	0.263051
C119	C	1.501559	-0.445617	0.596385
C120	C	1.834892	-0.112284	0.929718
C121	C	1.168196	-0.724350	0.263040
C122	C	1.501529	-0.391017	0.596374
C123	C	1.834862	-0.057683	0.929707
C124	C	1.120657	-0.697064	0.310481
C125	C	1.453991	-0.363730	0.643814
C126	C	1.787324	-0.030397	0.977147
C127	C	1.073149	-0.724378	0.357932
C128	C	1.406482	-0.391045	0.691265
C129	C	1.739815	-0.057711	1.024599
C130	C	0.978131	-0.779004	0.452847
C131	C	1.311464	-0.445670	0.786180
C132	C	1.644797	-0.112337	1.119514
C133	C	0.978111	-0.724397	0.452837
C134	C	1.311444	-0.391063	0.786170
C135	C	1.644777	-0.057730	1.119503
C136	C	1.025622	-0.697083	0.405381
C137	C	1.358956	-0.363749	0.738714
C138	C	1.692289	-0.030416	1.072048
C139	C	1.025580	-0.642491	0.405362
C140	C	1.358914	-0.309158	0.738695
C141	C	1.692247	0.024175	1.072028
N142	N	1.073094	-0.615174	0.357914
N143	N	1.406428	-0.281841	0.691248
N144	N	1.739761	0.051492	1.024581
C145	C	1.120633	-0.642460	0.310474
C146	C	1.453966	-0.309127	0.643807
C147	C	1.787299	0.024206	0.977141
C148	C	1.025747	-0.975567	0.405416
C149	C	1.359081	-0.642233	0.738750
C150	C	1.692414	-0.308900	1.072083
C151	C	1.025768	-1.030169	0.405420
C152	C	1.359101	-0.696836	0.738753
C153	C	1.692434	-0.363502	1.072087
C154	C	1.120823	-1.030138	0.310528
C155	C	1.454157	-0.696805	0.643861
C156	C	1.787490	-0.363472	0.977195
C157	C	1.120799	-0.975535	0.310521
C158	C	1.454132	-0.642202	0.643855
C159	C	1.787465	-0.308868	0.977188
C160	C	1.073261	-0.948250	0.357969
C161	C	1.406595	-0.614916	0.691303
C162	C	1.739928	-0.281583	1.024636
C163	C	1.120566	-0.527795	0.310455
C164	C	1.453899	-0.194462	0.643788
C165	C	1.787233	0.138871	0.977121
C166	C	1.120530	-0.473190	0.310446
C167	C	1.453863	-0.139857	0.643779
C168	C	1.787196	0.193477	0.977113
C169	C	1.025477	-0.473226	0.405340
C170	C	1.358810	-0.139892	0.738674
C171	C	1.692144	0.193441	1.072007
C172	C	1.025510	-0.527826	0.405347
C173	C	1.358843	-0.194493	0.738680
C174	C	1.692177	0.138840	1.072013
C175	C	1.073061	-0.555110	0.357901
C176	C	1.406394	-0.221776	0.691235
C177	C	1.739727	0.111557	1.024568
O178	O	0.985154	-0.614222	0.445668
O179	O	1.318488	-0.280888	0.779001
O180	O	1.651821	0.052445	1.112335
O181	O	1.161044	-0.614205	0.270129
O182	O	1.494377	-0.280871	0.603462
O183	O	1.827711	0.052462	0.936796
C184	C	1.266807	-0.251967	0.357952
C185	C	1.600140	0.081366	0.691285
C186	C	1.933474	0.414700	1.024618
C187	C	1.349353	-0.251976	0.357970
C188	C	1.682686	0.081358	0.691303
C189	C	2.016019	0.414691	1.024636
C190	C	1.073131	-0.251924	0.551616
C191	C	1.406464	0.081409	0.884949
C192	C	1.739797	0.414743	1.218282
C193	C	1.073143	-0.251914	0.634162
C194	C	1.406476	0.081419	0.967495
C195	C	1.739810	0.414753	1.300828
C196	C	1.073247	-0.115574	0.357961
C197	C	1.406580	0.217759	0.691294
C198	C	1.739914	0.551093	1.024627
C199	C	1.073309	-0.057460	0.357982
C200	C	1.406642	0.275873	0.691315
C201	C	1.739976	0.609207	1.024649
C202	C	1.073115	-0.251933	0.164958
C203	C	1.406449	0.081401	0.498291
C204	C	1.739782	0.414734	0.831625
C205	C	1.073247	-0.251795	0.082413
C206	C	1.406580	0.081538	0.415746
C207	C	1.739913	0.414871	0.749079
C208	C	1.023537	-0.286785	0.833589
C209	C	1.356871	0.046548	1.166922
C210	C	1.690204	0.379881	1.500256
C211	C	1.091289	-0.299569	0.882987
C212	C	1.424623	0.033764	1.216320
C213	C	1.757956	0.367098	1.549653
C214	C	1.073180	-0.251874	0.785292
C215	C	1.406513	0.081459	1.118625
C216	C	1.739846	0.414792	1.451959
C217	C	1.005465	-0.239076	0.882976
C218	C	1.338798	0.094257	1.216309
C219	C	1.672132	0.427591	1.549643
C220	C	1.073209	-0.251837	0.931277
C221	C	1.406542	0.081497	1.264611
C222	C	1.739876	0.414830	1.597944
C223	C	1.140967	-0.264683	0.833603
C224	C	1.474300	0.068650	1.166936
C225	C	1.807634	0.401984	1.500269
C226	C	1.055097	-0.204168	0.833588
C227	C	1.388430	0.129166	1.166921
C228	C	1.721764	0.462499	1.500254
C229	C	1.122896	-0.216933	0.882963
C230	C	1.456229	0.116400	1.216297
C231	C	1.789562	0.449733	1.549630
C232	C	1.073162	-0.251897	0.701194
C233	C	1.406495	0.081436	1.034527
C234	C	1.739828	0.414769	1.367860
C235	C	1.073235	-0.251814	1.015374
C236	C	1.406568	0.081520	1.348707
C237	C	1.739901	0.414853	1.682041
H238	H	0.619827	-0.187429	0.266473
H239	H	0.953160	0.145905	0.599807
H240	H	1.286493	0.479238	0.933140
H241	H	0.526989	-0.275415	0.232800
H242	H	0.860322	0.057919	0.566133
H243	H	1.193655	0.391252	0.899467
N244	N	1.219504	-0.808375	0.211880
N245	N	1.552838	-0.475042	0.545213
N246	N	1.886171	-0.141709	0.878547
H247	H	1.249592	-0.782779	0.181824
H248	H	1.582926	-0.449445	0.515157
H249	H	1.916259	-0.116112	0.848491
H250	H	1.189308	-0.831061	0.177480
H251	H	1.522641	-0.497728	0.510813
H252	H	1.855975	-0.164394	0.844147
N253	N	0.520293	-0.326188	0.462918
N254	N	0.853627	0.007145	0.796252
N255	N	1.186960	0.340478	1.129585
H256	H	0.538325	-0.362170	0.449030
H257	H	0.871658	-0.028837	0.782363
H258	H	1.204992	0.304497	1.115696
H259	H	0.464346	-0.325720	0.462911
H260	H	0.797679	0.007613	0.796244
H261	H	1.131013	0.340947	1.129578
N262	N	0.929598	-0.224746	0.911700
N263	N	1.262931	0.108587	1.245034
N264	N	1.596265	0.441920	1.578367
H265	H	0.930286	-0.224504	0.967649
H266	H	1.263619	0.108829	1.300982
H267	H	1.596952	0.442162	1.634316
H268	H	0.892172	-0.251165	0.893687
H269	H	1.225505	0.082168	1.227020
H270	H	1.558839	0.415502	1.560354
N271	N	0.627048	-0.224987	0.501583
N272	N	0.960382	0.108347	0.834917
N273	N	1.293715	0.441680	1.168250
H274	H	0.609146	-0.188947	0.515335
H275	H	0.942480	0.144386	0.848668
H276	H	1.275813	0.477720	1.182001
H277	H	0.682993	-0.225456	0.501070
H278	H	1.016326	0.107877	0.834403
H279	H	1.349660	0.441210	1.167737
N280	N	1.034786	-0.150768	0.804810
N281	N	1.368119	0.182566	1.138144
N282	N	1.701453	0.515899	1.471477
H283	H	1.076910	-0.136537	0.774030
H284	H	1.410243	0.196796	1.107364
H285	H	1.743576	0.530129	1.440697
H286	H	1.025076	-0.126619	0.847942
H287	H	1.358410	0.206714	1.181276
H288	H	1.691743	0.540047	1.514609
H289	H	1.106602	-0.339897	0.904685
H290	H	1.439935	-0.006564	1.238018
H291	H	1.773268	0.326769	1.571352
H292	H	1.198261	-0.275538	0.812006
H293	H	1.531595	0.057795	1.145339
H294	H	1.864928	0.391129	1.478672
H295	H	1.206886	-0.702114	0.224400
H296	H	1.540219	-0.368781	0.557734
H297	H	1.873553	-0.035447	0.891067
H298	H	1.159487	-0.953299	0.271879
H299	H	1.492821	-0.619966	0.605213
H300	H	1.826154	-0.286632	0.938546
H301	H	0.981596	-0.316347	0.811910
H302	H	1.314929	0.016986	1.145244
H303	H	1.648263	0.350320	1.478577
H304	H	0.986769	-0.451001	0.443964
H305	H	1.320103	-0.117667	0.777297
H306	H	1.653436	0.215666	1.110630
H307	H	1.164937	-0.187394	0.904505
H308	H	1.498271	0.145939	1.237839
H309	H	1.831604	0.479272	1.571172
N310	N	0.520136	-0.150871	0.396645
N311	N	0.853469	0.182463	0.729978
N312	N	1.186803	0.515796	1.063311
H313	H	0.489372	-0.153408	0.443232
H314	H	0.822705	0.179926	0.776565
H315	H	1.156038	0.513259	1.109898
H316	H	0.488578	-0.136919	0.354914
H317	H	0.821911	0.196415	0.688247
H318	H	1.155245	0.529748	1.021581
H319	H	0.987030	-0.953354	0.444052
H320	H	1.320364	-0.620020	0.777385
H321	H	1.653697	-0.286687	1.110719
N322	N	1.171779	-0.443728	0.259265
N323	N	1.505113	-0.110395	0.592599
N324	N	1.838446	0.222939	0.925932
H325	H	1.160290	-0.453261	0.206193
H326	H	1.493623	-0.119928	0.539526
H327	H	1.826956	0.213406	0.872859
H328	H	1.224817	-0.453203	0.270924
H329	H	1.558150	-0.119870	0.604257
H330	H	1.891484	0.213464	0.937591
N331	N	0.626688	-0.353085	0.319042
N332	N	0.960022	-0.019751	0.652375
N333	N	1.293355	0.313582	0.985708
H334	H	0.682640	-0.352747	0.319135
H335	H	1.015973	-0.019414	0.652468
H336	H	1.349307	0.313920	0.985802
H337	H	0.608191	-0.362732	0.268029
H338	H	0.941525	-0.029398	0.601363
H339	H	1.274858	0.303935	0.934696
H340	H	1.159534	-1.052365	0.271902
H341	H	1.492868	-0.719031	0.605235
H342	H	1.826201	-0.385698	0.938569
N343	N	0.974260	-0.557287	0.456526
N344	N	1.307593	-0.223954	0.789859
N345	N	1.640927	0.109380	1.123192
H346	H	1.004431	-0.579905	0.490979
H347	H	1.337764	-0.246572	0.824312
H348	H	1.671098	0.086761	1.157645
H349	H	0.939887	-0.579950	0.426263
H350	H	1.273221	-0.246617	0.759597
H351	H	1.606554	0.086717	1.092930
N352	N	1.171846	-0.557212	0.259272
N353	N	1.505180	-0.223878	0.592605
N354	N	1.838513	0.109455	0.925938
H355	H	1.141699	-0.579899	0.224827
H356	H	1.475032	-0.246565	0.558161
H357	H	1.808366	0.086768	0.891494
H358	H	1.206254	-0.579802	0.289531
H359	H	1.539587	-0.246469	0.622865
H360	H	1.872921	0.086864	0.956198
H361	H	0.987072	-1.052404	0.444056
H362	H	1.320405	-0.719070	0.777389
H363	H	1.653738	-0.385737	1.110723
H364	H	0.939401	-0.702184	0.491477
H365	H	1.272734	-0.368850	0.824810
H366	H	1.606067	-0.035517	1.158144
H367	H	0.939438	-0.801234	0.491487
H368	H	1.272771	-0.467900	0.824820
H369	H	1.606104	-0.134567	1.158154
