data_functionalizedCrystal
_audit_creation_method	'MofGen! by Chris Wilmer'
_symmetry_space_group_name_H-M	'P1'
_symmetry_Int_Tables_number	1
_symmetry_cell_setting	triclinic
loop_
_symmetry_equiv_pos_as_xyz
  x,y,z
_cell_length_a	10.686220
_cell_length_b	12.759400
_cell_length_c	10.686551
_cell_angle_alpha	94.404840
_cell_angle_beta	89.691918
_cell_angle_gamma	94.394725
loop_
_atom_site_label
_atom_site_type_symbol
_atom_site_fract_x
_atom_site_fract_y
_atom_site_fract_z
Zn1	Zn	1.972298	-0.256137	0.562391
Zn2	Zn	1.956076	-0.446297	0.352635
Zn3	Zn	1.746417	-0.283013	0.368709
Zn4	Zn	1.762506	-0.444167	0.578413
O5	O	1.859324	-0.357404	0.465537
O6	O	2.145687	-0.271006	0.521134
O7	O	1.914742	-0.436775	0.179222
O8	O	1.776436	-0.132422	0.394422
O9	O	2.133769	-0.410715	0.367028
O10	O	1.942390	-0.112676	0.536719
O11	O	1.760707	-0.316812	0.191031
O12	O	1.573010	-0.314747	0.409958
O13	O	1.803857	-0.407086	0.751833
O14	O	1.584830	-0.433147	0.564027
O15	O	1.957990	-0.268941	0.740061
O16	O	1.930343	-0.593040	0.382564
O17	O	1.788128	-0.591476	0.548442
C18	C	1.533404	-0.376633	0.490476
C19	C	1.393976	-0.384883	0.501175
C20	C	1.859257	-0.630376	0.465522
C21	C	1.859346	-0.747145	0.465549
C22	C	1.945723	-0.791644	0.539712
C23	C	1.945783	-0.901362	0.539738
C24	C	1.773086	-0.922075	0.391428
C25	C	1.773021	-0.812358	0.391409
C26	C	2.032048	-0.726431	0.613852
C27	C	2.118433	-0.770929	0.688020
C28	C	2.118494	-0.880647	0.688046
C29	C	2.032169	-0.945868	0.613904
C30	C	2.186517	-0.338100	0.440501
C31	C	2.325947	-0.329874	0.429832
C32	C	1.884528	-0.334778	0.792737
C33	C	1.895268	-0.325137	0.932170
C34	C	1.859428	-0.083361	0.465576
C35	C	1.859472	0.033419	0.465593
C36	C	1.834290	-0.379861	0.139604
C37	C	1.823793	-0.389192	0.000153
H38	H	1.374370	-0.276468	0.360565
C39	C	1.328564	-0.457043	0.594754
C40	C	1.184455	-0.465480	0.605686
C41	C	1.119043	-0.537639	0.699262
C42	C	1.197740	-0.601361	0.781906
C43	C	1.341858	-0.592926	0.770977
C44	C	1.407270	-0.520767	0.677400
H45	H	1.126190	-0.418307	0.544505
H46	H	1.012357	-0.543883	0.707352
H47	H	1.149318	-0.654777	0.851177
H48	H	1.400122	-0.640099	0.832157
H49	H	1.513956	-0.514523	0.669310
C50	C	2.213508	-0.929598	0.769631
C51	C	2.308456	-0.857862	0.851179
C52	C	2.403479	-0.906809	0.932762
C53	C	2.403553	-1.027492	0.932797
C54	C	2.308601	-1.099235	0.851245
C55	C	2.213578	-1.050288	0.769662
H56	H	2.308405	-0.768519	0.851156
H57	H	2.473768	-0.853700	0.993132
H58	H	2.473894	-1.063726	0.993189
H59	H	2.308652	-1.188578	0.851268
H60	H	2.143289	-1.103397	0.709292
H61	H	1.964688	-0.262920	0.980642
C62	C	1.678145	-0.993815	0.309866
C63	C	1.725050	-1.072825	0.207270
C64	C	1.630110	-1.144564	0.125703
C65	C	1.488266	-1.137293	0.146732
C66	C	1.441354	-1.058280	0.249333
C67	C	1.536293	-0.986541	0.330900
H68	H	1.830058	-1.078210	0.191698
H69	H	1.664838	-1.203054	0.049750
H70	H	1.417986	-1.190399	0.086351
H71	H	1.336345	-1.052895	0.264905
H72	H	1.501565	-0.928050	0.406853
H73	H	2.032011	-0.637092	0.613836
H74	H	1.754387	-0.451411	0.951686
H75	H	2.188709	-0.717821	0.748392
H76	H	2.032212	-1.035207	0.613947
C77	C	1.678011	-0.763401	0.309826
C78	C	1.583068	-0.835128	0.228261
C79	C	1.488052	-0.786171	0.146680
C80	C	1.487980	-0.665486	0.146664
C81	C	1.582926	-0.593752	0.228232
C82	C	1.677942	-0.642710	0.309813
H83	H	1.583118	-0.924472	0.228270
H84	H	1.417767	-0.839273	0.086298
H85	H	1.417644	-0.629245	0.086273
H86	H	1.582876	-0.504408	0.228223
H87	H	1.748227	-0.589607	0.370195
