data_functionalizedCrystal
_audit_creation_method	'MofGen! by Chris Wilmer'
_symmetry_space_group_name_H-M	'P1'
_symmetry_Int_Tables_number	1
_symmetry_cell_setting	triclinic
loop_
_symmetry_equiv_pos_as_xyz
  x,y,z
_cell_length_a	18.878441
_cell_length_b	31.640172
_cell_length_c	31.640172
_cell_angle_alpha	89.994287
_cell_angle_beta	60.008073
_cell_angle_gamma	59.988762
loop_
_atom_site_label
_atom_site_type_symbol
_atom_site_fract_x
_atom_site_fract_y
_atom_site_fract_z
Zr1	Zr	0.775244	0.407177	-0.055495
O2	O	0.923022	0.339685	-0.122967
O3	O	0.627466	0.427867	-0.034813
O4	O	0.775225	0.427865	-0.122979
O5	O	0.775278	0.339688	0.034747
O6	O	0.775209	0.497422	-0.122986
O7	O	0.775263	0.339687	-0.034801
O8	O	0.510896	0.497426	0.034726
O9	O	1.039591	0.339684	-0.122965
O10	O	0.688237	0.488601	-0.025996
O11	O	0.688260	0.436691	0.025913
O12	O	0.862227	0.436689	-0.077891
O13	O	0.862249	0.384780	-0.025982
Zr14	Zr	0.775242	0.518114	0.055414
Zr15	Zr	0.775219	0.518112	-0.055507
Zr16	Zr	0.775267	0.407178	0.055426
Zr17	Zr	0.961158	0.407175	-0.055493
Zr18	Zr	0.589328	0.518115	0.055411
O19	O	0.923020	0.497423	0.034732
O20	O	0.922987	0.497421	-0.122984
O21	O	0.923055	0.339687	0.034749
O22	O	0.627464	0.585606	0.122886
O23	O	0.627431	0.585604	-0.034830
O24	O	0.627499	0.427870	0.122903
O25	O	0.775208	0.585603	-0.034828
O26	O	0.775261	0.497426	0.122898
O27	O	0.775277	0.427868	0.122905
O28	O	0.775223	0.585604	0.034720
O29	O	1.039571	0.427863	-0.122975
O30	O	0.510915	0.497428	0.122894
O31	O	0.510895	0.585607	0.122884
O32	O	0.510876	0.585606	0.034716
O33	O	1.039609	0.339685	-0.034797
O34	O	1.039590	0.427864	-0.034807
O35	O	0.688259	0.488602	0.077810
O36	O	0.688237	0.540511	0.025901
O37	O	0.862226	0.488599	-0.025994
O38	O	0.862249	0.436690	0.025915
C39	C	0.542692	0.462647	-0.000044
C40	C	0.463767	0.462648	-0.000045
C41	C	0.775274	0.323882	-0.000025
C42	C	0.775284	0.276786	-0.000020
C43	C	0.775231	-0.059486	0.038283
C44	C	0.775260	0.117495	0.038291
O45	O	0.775230	0.140388	0.070889
N46	N	0.775256	0.139629	-0.000024
C47	C	0.775238	0.117516	-0.038341
O48	O	0.775224	0.140406	-0.070927
C49	C	0.775202	-0.059462	-0.038346
C50	C	0.775216	-0.081597	-0.000032
C51	C	0.775244	-0.081620	0.076595
C52	C	0.775243	-0.125865	0.076591
C53	C	0.775228	-0.147975	0.038275
C54	C	0.775214	-0.125841	-0.000036
C55	C	0.775177	-0.081572	-0.076661
C56	C	0.775165	-0.125819	-0.076659
C57	C	0.775179	-0.147953	-0.038344
C58	C	0.775198	-0.192196	-0.038356
N59	N	0.775202	-0.214329	-0.000041
C60	C	0.775217	-0.192219	0.038275
C61	C	0.775258	0.210432	-0.038336
C62	C	0.775269	0.254676	-0.038335
C63	C	0.775290	0.254653	0.038298
C64	C	0.775286	0.210406	0.038294
C65	C	0.775263	0.188299	-0.000021
C66	C	0.775214	-0.285136	0.038263
C67	C	0.775217	-0.329385	0.038254
C68	C	0.775191	-0.329356	-0.038377
C69	C	0.775194	-0.285112	-0.038370
C70	C	0.775202	-0.263002	-0.000046
O71	O	0.775216	-0.215113	-0.070933
O72	O	0.775208	-0.215110	0.070862
C73	C	0.775233	-0.015242	0.038287
C74	C	0.775220	0.006892	-0.000024
C75	C	0.775205	-0.015218	-0.038340
C76	C	0.775230	0.051136	-0.000023
C77	C	0.775245	0.073246	0.038292
C78	C	0.775250	0.051113	0.076607
C79	C	0.775248	0.006868	0.076603
C80	C	0.775200	0.006915	-0.076655
C81	C	0.775203	0.051159	-0.076648
C82	C	0.775218	0.073270	-0.038332
C83	C	0.426675	0.489743	-0.027141
C84	C	0.352511	0.489745	-0.027137
C85	C	0.315444	0.462648	-0.000040
C86	C	0.352539	0.435552	0.027060
C87	C	0.426696	0.435554	0.027059
C88	C	0.197972	0.435550	0.027060
C89	C	0.123810	0.435548	0.027060
C90	C	0.123787	0.489741	-0.027137
C91	C	0.197945	0.489742	-0.027138
C92	C	0.235035	0.462646	-0.000039
C93	C	1.007794	0.462644	-0.000037
C94	C	1.086719	0.462643	-0.000036
C95	C	0.775214	0.462643	-0.138786
C96	C	0.775204	0.462643	-0.185875
C97	C	0.775212	0.601409	-0.000056
C98	C	0.775202	0.648504	-0.000061
C99	C	0.866073	0.435553	-0.504999
C100	C	0.866090	0.435553	-0.681995
O101	O	0.943330	0.412527	-0.727919
N102	N	0.775270	0.462650	-0.677036
C103	C	0.684440	0.489751	-0.627824
O104	O	0.607192	0.512802	-0.627668
C105	C	0.684423	0.489753	-0.450830
C106	C	0.775249	0.462650	-0.455792
C107	C	0.956891	0.408453	-0.509959
C108	C	0.956886	0.408451	-0.465713
C109	C	0.866062	0.435548	-0.416506
C110	C	0.775244	0.462648	-0.411546
C111	C	0.593594	0.516857	-0.401619
C112	C	0.593598	0.516856	-0.357370
C113	C	0.684424	0.489753	-0.362332
C114	C	0.684415	0.489744	-0.318093
N115	N	0.775235	0.462647	-0.323051
C116	C	0.866059	0.435549	-0.372258
C117	C	0.684455	0.489747	-0.720751
C118	C	0.684458	0.489746	-0.764999
C119	C	0.866109	0.435549	-0.819166
C120	C	0.866105	0.435547	-0.774917
C121	C	0.775275	0.462650	-0.725709
C122	C	0.866041	0.435547	-0.279335
C123	C	0.866027	0.435545	-0.235082
C124	C	0.684377	0.489744	-0.180919
C125	C	0.684390	0.489743	-0.225167
C126	C	0.775230	0.462644	-0.274377
O127	O	0.607215	0.512763	-0.272153
O128	O	0.943295	0.412511	-0.372403
C129	C	0.866078	0.435555	-0.549246
C130	C	0.775260	0.462655	-0.544285
C131	C	0.684436	0.489752	-0.495078
C132	C	0.775264	0.462653	-0.588534
C133	C	0.866087	0.435556	-0.637740
C134	C	0.956907	0.408459	-0.642699
C135	C	0.956902	0.408457	-0.598452
C136	C	0.593616	0.516849	-0.490120
C137	C	0.593629	0.516848	-0.534369
C138	C	0.684452	0.489751	-0.583576
C139	C	0.775272	0.462647	0.138705
C140	C	0.775282	0.462648	0.185794
C141	C	0.542661	0.601411	-0.000059
C142	C	0.463725	0.648507	-0.000065
C143	C	0.542721	0.462649	0.138702
C144	C	0.463806	0.462650	0.185790
C145	C	0.542691	0.601413	0.138687
C146	C	0.463765	0.648509	0.185770
C147	C	1.007795	0.323878	-0.138768
C148	C	1.086721	0.276781	-0.185851
C149	C	1.007824	0.323880	-0.000022
C150	C	1.086761	0.276784	-0.000016
C151	C	1.007764	0.462642	-0.138783
C152	C	1.086680	0.462640	-0.185871
C153	C	0.426656	0.643527	-0.027163
C154	C	0.352498	0.687774	-0.027179
C155	C	0.315405	0.737001	-0.000095
C156	C	0.352481	0.741980	0.027004
C157	C	0.426643	0.697733	0.027017
C158	C	0.426746	0.489748	0.234998
C159	C	0.352607	0.489747	0.279246
C160	C	0.315524	0.462651	0.274286
C161	C	0.352591	0.435551	0.225073
C162	C	0.426734	0.435549	0.180826
C163	C	0.426688	0.697727	0.180784
C164	C	0.352539	0.741983	0.225019
C165	C	0.315463	0.737021	0.274239
C166	C	0.352546	0.687798	0.279223
C167	C	0.426699	0.643543	0.234989
C168	C	1.123807	0.227564	-0.180865
C169	C	1.197979	0.183308	-0.225100
C170	C	1.235059	0.188270	-0.274320
C171	C	1.197971	0.237493	-0.279304
C172	C	1.123805	0.281748	-0.235070
C173	C	1.123837	0.281764	0.027077
C174	C	1.198016	0.237517	0.027081
C175	C	1.235112	0.188290	-0.000005
C176	C	1.198032	0.183311	-0.027101
C177	C	1.123860	0.227558	-0.027108
C178	C	1.123740	0.489741	-0.180894
C179	C	1.197879	0.489750	-0.225134
C180	C	1.234963	0.462655	-0.274351
C181	C	1.197896	0.435553	-0.279326
C182	C	1.123753	0.435548	-0.235087
H183	H	0.775231	-0.347407	0.069455
H184	H	1.295449	0.152230	-0.310335
H185	H	1.228051	0.511818	-0.221073
F186	F	0.466082	0.703041	0.055862
H187	H	1.093611	0.321822	-0.239135
F188	F	1.237463	0.242827	0.055924
H189	H	0.940062	0.413483	-0.859239
H190	H	1.228163	0.143233	-0.221032
H191	H	0.322347	0.683765	0.319304
H192	H	0.456857	0.603448	-0.049225
F193	F	0.466163	0.406709	0.128457
H194	H	0.322319	0.683710	-0.049246
H195	H	0.775240	0.192435	-0.069539
F196	F	1.084326	0.406697	-0.240392
H197	H	0.456865	0.701777	0.140711
H198	H	1.295336	0.462663	-0.310369
F199	F	0.236541	0.784126	0.321314
F200	F	1.053572	0.379608	-0.603741
H201	H	1.228171	0.241527	-0.319384
H202	H	0.228129	0.511803	-0.049206
F203	F	1.084285	0.518582	-0.128519
H204	H	1.228102	0.413493	-0.319404
F205	F	0.236472	0.784088	-0.000112
H206	H	0.322353	0.782059	0.220952
F207	F	0.775137	-0.149343	-0.117440
F208	F	0.466196	0.518590	0.240288
F209	F	0.313168	0.518594	0.331617
H210	H	0.322269	0.782066	0.049055
H211	H	1.093639	0.321843	0.049137
F212	F	1.237521	0.130916	-0.055925
F213	F	0.313113	0.406716	0.219802
H214	H	1.295508	0.152266	0.000005
H215	H	0.775219	-0.267138	0.069471
H216	H	0.456877	0.603469	0.239055
H217	H	1.093620	0.223513	-0.140792
F218	F	1.084402	0.222250	-0.055942
H219	H	0.322348	0.413493	0.049126
F220	F	0.496921	0.545707	-0.304999
H221	H	0.775253	-0.063621	0.107798
F222	F	0.775251	-0.149416	0.117372
H223	H	0.775304	0.272662	0.069495
F224	F	0.775300	0.186853	0.079074
H225	H	0.775197	-0.267095	-0.069573
H226	H	0.940063	0.413478	-0.778963
F227	F	0.236613	0.462659	0.321383
H228	H	0.775273	0.272690	-0.069539
H229	H	0.775164	-0.063556	-0.107860
F230	F	0.237444	0.406712	0.055902
H231	H	0.775259	-0.011150	0.107802
F232	F	0.775270	0.074650	0.117384
F233	F	0.775178	-0.352896	-0.079154
H234	H	0.775199	0.069176	-0.107852
H235	H	0.456855	0.511805	-0.049210
F236	F	0.775184	-0.016611	-0.117437
H237	H	0.322311	0.511808	-0.049201
H238	H	0.610431	0.511805	-0.140847
H239	H	0.610432	0.511805	-0.221126
H240	H	0.093583	0.511804	-0.049201
F241	F	0.466169	0.406717	0.055900
F242	F	0.962701	0.406694	-0.240369
F243	F	0.084362	0.406710	0.055901
H244	H	0.940011	0.413480	-0.319399
H245	H	1.030855	0.386387	-0.550023
F246	F	1.053556	0.379597	-0.471002
H247	H	0.610486	0.511819	-0.680685
F248	F	0.496923	0.545703	-0.396326
F249	F	0.587789	0.518584	-0.759711
H250	H	1.030859	0.386393	-0.682772
H251	H	0.519662	0.538917	-0.530319
H252	H	0.519655	0.538916	-0.450057
