data_functionalizedCrystal
_audit_creation_method	'MofGen! by Chris Wilmer'
_symmetry_space_group_name_H-M	'P1'
_symmetry_Int_Tables_number	1
_symmetry_cell_setting	triclinic
loop_
_symmetry_equiv_pos_as_xyz
  x,y,z
_cell_length_a	21.395364
_cell_length_b	29.839131
_cell_length_c	21.395356
_cell_angle_alpha	89.963003
_cell_angle_beta	89.976411
_cell_angle_gamma	90.050179
loop_
_atom_site_label
_atom_site_type_symbol
_atom_site_fract_x
_atom_site_fract_y
_atom_site_fract_z
Zn1	Zn	0.957834	-0.178686	-0.354221
Zn2	Zn	0.957730	-0.253813	-0.249426
Zn3	Zn	0.853050	-0.178717	-0.249458
Zn4	Zn	0.853010	-0.253809	-0.354167
O5	O	0.905406	-0.216256	-0.301818
O6	O	1.045498	-0.188640	-0.340329
O7	O	0.943817	-0.243866	-0.161753
O8	O	0.867011	-0.115846	-0.263391
O9	O	1.045421	-0.243835	-0.263337
O10	O	0.943995	-0.115823	-0.340360
O11	O	0.866910	-0.188694	-0.161776
O12	O	0.765367	-0.188690	-0.263338
O13	O	0.866941	-0.243829	-0.441852
O14	O	0.765337	-0.243859	-0.340267
O15	O	0.943955	-0.188636	-0.441892
O16	O	0.943778	-0.316679	-0.263285
O17	O	0.866840	-0.316677	-0.340237
C18	C	0.742618	-0.216278	-0.301800
C19	C	0.672977	-0.216298	-0.301808
C20	C	0.640326	-0.187605	-0.341959
C21	C	0.574890	-0.187593	-0.341962
C22	C	0.542109	-0.216282	-0.301819
C23	C	0.574767	-0.244978	-0.261660
C24	C	0.640202	-0.244986	-0.261654
C25	C	0.438380	-0.256741	-0.296772
C26	C	0.372947	-0.256733	-0.296782
C27	C	0.340288	-0.216258	-0.301833
C28	C	0.373070	-0.175788	-0.306887
C29	C	0.438504	-0.175795	-0.306881
C30	C	0.471156	-0.216277	-0.301821
C31	C	0.236684	-0.187549	-0.341990
C32	C	0.171248	-0.187536	-0.341988
C33	C	0.171126	-0.244925	-0.261689
C34	C	0.236561	-0.244934	-0.261687
C35	C	0.269337	-0.216246	-0.301841
C36	C	0.905310	-0.332979	-0.301765
C37	C	0.905327	-0.382913	-0.301763
C38	C	0.945483	-0.692509	-0.341953
C39	C	0.945551	-0.880182	-0.341991
O40	O	0.979599	-0.904407	-0.376122
N41	N	0.905512	-0.903698	-0.301887
C42	C	0.865451	-0.880293	-0.261775
O43	O	0.831393	-0.904600	-0.227670
C44	C	0.865380	-0.692620	-0.261741
C45	C	0.905426	-0.669107	-0.301842
C46	C	0.985524	-0.668996	-0.382051
C47	C	0.985509	-0.622081	-0.382039
C48	C	0.945453	-0.598679	-0.341928
C49	C	0.905411	-0.622192	-0.301830
C50	C	0.825317	-0.669216	-0.221632
C51	C	0.825301	-0.622295	-0.221628
C52	C	0.865347	-0.598782	-0.261730
C53	C	0.865339	-0.551874	-0.261707
N54	N	0.905377	-0.528359	-0.301810
C55	C	0.945434	-0.551761	-0.341921
C56	C	0.865492	-0.978823	-0.261795
C57	C	0.865510	-1.025741	-0.261802
C58	C	0.945609	-1.025628	-0.342019
C59	C	0.945593	-0.978709	-0.342008
C60	C	0.905530	-0.955308	-0.301898
C61	C	0.945400	-0.453235	-0.341892
C62	C	0.945383	-0.406315	-0.341874
C63	C	0.865283	-0.406433	-0.261660
C64	C	0.865301	-0.453348	-0.261675
C65	C	0.905362	-0.476748	-0.301796
O66	O	0.831304	-0.527620	-0.227599
O67	O	0.979477	-0.527445	-0.376030
C68	C	0.945498	-0.739425	-0.341965
C69	C	0.905456	-0.762938	-0.301867
C70	C	0.865399	-0.739536	-0.261756
C71	C	0.905474	-0.809856	-0.301874
C72	C	0.945531	-0.833258	-0.341985
C73	C	0.985569	-0.809743	-0.382088
C74	C	0.985554	-0.762827	-0.382076
C75	C	0.825361	-0.763052	-0.221653
C76	C	0.825380	-0.809967	-0.221668
C77	C	0.865436	-0.833369	-0.261779
C78	C	1.068829	-0.216234	-0.301836
C79	C	1.138470	-0.216225	-0.301844
C80	C	0.905455	-0.216228	-0.465241
C81	C	0.905476	-0.216216	-0.534883
C82	C	0.905519	-0.099078	-0.301885
C83	C	0.905567	-0.049143	-0.301913
C84	C	0.865441	-0.187485	-0.567598
C85	C	0.865439	-0.187477	-0.633033
C86	C	0.905483	-0.216195	-0.665751
C87	C	0.945521	-0.244932	-0.633028
C88	C	0.945517	-0.244943	-0.567594
C89	C	0.961935	-0.219716	-0.769436
C90	C	0.961939	-0.219703	-0.834869
C91	C	0.905493	-0.216165	-0.867572
C92	C	0.849041	-0.212631	-0.834833
C93	C	0.849038	-0.212642	-0.769399
C94	C	0.905491	-0.216187	-0.736703
C95	C	0.865453	-0.187423	-0.971240
C96	C	0.865449	-0.187417	-1.036676
C97	C	0.945537	-0.244871	-1.036670
C98	C	0.945534	-0.244878	-0.971234
C99	C	0.905493	-0.216152	-0.938523
C100	C	0.905393	-0.216251	-0.139030
C101	C	0.905493	-0.216137	-0.069390
H102	H	0.977995	-0.387172	-0.374529
N103	N	0.673813	-0.158297	-0.382959
N104	N	0.732236	-0.158303	-0.382946
H105	H	0.755889	-0.137603	-0.411900
H106	H	0.263146	-0.268301	-0.228994
H107	H	0.346261	-0.289687	-0.292670
H108	H	0.803078	-0.209747	-0.861458
N109	N	0.986435	-0.274229	-0.937822
N110	N	1.022184	-0.299871	-0.967039
H111	H	1.051070	-0.320603	-0.943443
H112	H	0.832671	-0.387371	-0.229001
H113	H	0.832839	-0.164078	-0.659675
N114	N	1.026466	-0.738820	-0.423041
N115	N	1.062225	-0.759728	-0.458847
H116	H	1.091121	-0.742775	-0.487782
N117	N	0.784377	-0.598385	-0.180663
N118	N	0.744432	-0.572223	-0.202666
H119	H	0.715530	-0.555337	-0.173735
H120	H	0.792707	-0.688352	-0.188977
N121	N	0.986416	-0.274297	-0.534182
N122	N	1.022164	-0.299940	-0.563398
H123	H	1.051050	-0.320672	-0.539801
H124	H	0.803073	-0.209766	-0.742746
N125	N	1.019606	-0.223311	-0.868298
N126	N	1.069999	-0.226477	-0.839095
H127	H	1.110728	-0.229026	-0.862702
N128	N	1.026487	-0.833659	-0.423052
N129	N	1.026490	-0.875550	-0.423049
H130	H	1.055385	-0.892444	-0.451979
N131	N	0.824555	-0.158075	-0.937831
N132	N	0.788810	-0.132423	-0.967053
H133	H	0.759927	-0.111694	-0.943460
H134	H	0.978017	-0.472282	-0.374566
N135	N	0.824542	-0.158068	-1.070087
N136	N	0.788796	-0.132425	-1.040869
H137	H	0.759904	-0.111697	-1.064465
H138	H	0.548301	-0.164225	-0.374657
N139	N	0.824527	-0.158154	-0.534184
N140	N	0.784583	-0.173974	-0.497651
H141	H	0.755685	-0.153261	-0.474050
N142	N	0.824561	-0.954930	-0.220818
N143	N	0.788819	-0.975937	-0.185018
H144	H	0.759912	-0.959064	-0.156075
N145	N	0.784448	-0.739147	-0.180676
N146	N	0.806499	-0.712972	-0.140762
H147	H	0.777603	-0.696090	-0.111819
N148	N	0.137660	-0.274231	-0.220673
N149	N	0.144949	-0.271196	-0.162867
H150	H	0.121312	-0.291893	-0.133896
N151	N	0.986432	-0.274208	-1.070091
N152	N	0.986428	-0.274197	-1.128514
H153	H	1.015309	-0.294918	-1.152122
H154	H	0.464965	-0.289703	-0.292659
N155	N	0.270160	-0.158236	-0.382994
N156	N	0.262911	-0.116777	-0.378946
H157	H	0.286551	-0.096073	-0.407905
N158	N	1.019602	-0.223334	-0.736045
N159	N	1.069999	-0.226484	-0.765281
H160	H	1.110726	-0.229039	-0.741699
N161	N	0.986417	-0.274267	-0.666455
N162	N	0.986415	-0.274254	-0.724877
H163	H	1.015297	-0.294975	-0.748486
H164	H	0.465192	-0.142843	-0.310994
H165	H	0.346480	-0.142828	-0.310999
N166	N	0.673557	-0.274305	-0.220650
N167	N	0.710035	-0.302959	-0.242616
H168	H	0.733594	-0.323668	-0.213657
N169	N	0.137903	-0.158215	-0.382998
N170	N	0.167178	-0.132602	-0.418839
H171	H	0.143628	-0.111891	-0.447802
H172	H	0.832908	-1.044882	-0.229141
N173	N	0.541275	-0.274277	-0.220654
N174	N	0.482852	-0.274267	-0.220664
H175	H	0.459198	-0.294959	-0.191701
H176	H	1.018116	-0.602939	-0.414695
H177	H	1.018143	-0.688045	-0.414718
N178	N	0.986504	-0.954700	-0.382972
N179	N	1.022267	-0.975606	-0.418777
H180	H	1.051162	-0.958652	-0.447711
H181	H	0.832698	-0.472494	-0.229017
N182	N	0.986526	-1.049544	-0.382984
N183	N	0.986532	-1.091434	-0.382980
H184	H	1.015426	-1.108328	-0.411912
N185	N	0.784472	-0.833975	-0.180693
N186	N	0.748712	-0.813069	-0.144886
H187	H	0.719818	-0.830023	-0.115950
