data_functionalizedCrystal
_audit_creation_method	'MofGen! by Chris Wilmer'
_symmetry_space_group_name_H-M	'P1'
_symmetry_Int_Tables_number	1
_symmetry_cell_setting	triclinic
loop_
_symmetry_equiv_pos_as_xyz
  x,y,z
_cell_length_a	16.109295
_cell_length_b	8.597226
_cell_length_c	15.186229
_cell_angle_alpha	82.296036
_cell_angle_beta	89.997290
_cell_angle_gamma	84.403067
loop_
_atom_site_label
_atom_site_type_symbol
_atom_site_fract_x
_atom_site_fract_y
_atom_site_fract_z
O1	O	-0.124125	-2.082375	0.231246
O2	O	-0.133638	-1.625433	0.196572
O3	O	-0.007955	-1.866461	0.214863
O4	O	-0.249809	-1.841347	0.212955
O5	O	-0.007947	-1.866459	0.068406
O6	O	-0.133630	-1.625431	0.050114
O7	O	-0.124118	-2.082373	0.084789
Zn8	Zn	-0.128873	-1.853902	0.044198
Zn9	Zn	-0.128883	-1.853904	0.237162
O10	O	-0.249801	-1.841345	0.066498
C11	C	-0.132611	-1.566960	0.118906
C12	C	-0.129552	-1.392734	0.105685
C13	C	0.023033	-1.865444	0.141559
C14	C	0.115354	-1.862399	0.141335
C15	C	0.336500	-1.998337	0.151683
C16	C	0.423244	-1.995463	0.151479
C17	C	0.405740	-1.709496	0.129774
C18	C	0.318997	-1.712371	0.129984
C19	C	0.284380	-1.856796	0.140934
C20	C	0.457867	-1.851047	0.140521
C21	C	0.551919	-1.847931	0.140300
C22	C	0.190322	-1.859914	0.141157
C23	C	0.719212	-1.842371	0.139825
C24	C	0.626893	-1.845445	0.140120
C25	C	-0.125143	-1.140846	0.162452
C26	C	-0.128195	-1.315074	0.175666
N27	N	-0.128884	-1.853907	0.368855
N28	N	-0.128865	-1.853911	-0.087494
C29	C	-0.073342	-1.960840	0.602693
C30	C	-0.073340	-1.960845	0.694883
C31	C	-0.184413	-1.746973	0.678662
C32	C	-0.184419	-1.746977	0.586474
C33	C	-0.128879	-1.853909	0.548492
C34	C	-0.128871	-1.853909	0.732870
C35	C	-0.128869	-1.853913	0.832826
C36	C	-0.128881	-1.853907	0.448529
H37	H	-0.129374	-1.381882	0.245694
O38	O	0.473788	-2.133060	0.162043
C39	C	0.457915	-2.220728	0.244555
H40	H	0.392442	-2.182155	0.266907
H41	H	0.462953	-2.351628	0.237428
H42	H	0.505513	-2.199294	0.296049
H43	H	0.276558	-1.597105	0.121234
H44	H	-0.028119	-2.047912	0.571771
H45	H	-0.028118	-2.047919	0.739012
H46	H	-0.229632	-1.659909	0.709596
O47	O	-0.238399	-1.642944	0.533941
C48	C	-0.287429	-1.548580	0.587232
H49	H	-0.253316	-1.546943	0.652820
H50	H	-0.298929	-1.423227	0.551078
H51	H	-0.349685	-1.599261	0.600891
H52	H	0.433936	-1.591910	0.120857
O53	O	-0.128001	-1.313022	0.022165
C54	C	-0.054536	-1.236091	0.011633
H55	H	-0.005211	-1.297975	0.061600
H56	H	-0.030388	-1.240044	-0.058675
H57	H	-0.068601	-1.108049	0.023457
O58	O	0.302773	-2.138527	0.162438
C59	C	0.253128	-2.148752	0.239073
H60	H	0.232530	-2.025038	0.254965
H61	H	0.195837	-2.211292	0.226757
H62	H	0.290870	-2.218194	0.297463
