data_functionalizedCrystal
_audit_creation_method	'MofGen! by Chris Wilmer'
_symmetry_space_group_name_H-M	'P1'
_symmetry_Int_Tables_number	1
_symmetry_cell_setting	triclinic
loop_
_symmetry_equiv_pos_as_xyz
  x,y,z
_cell_length_a	12.759401
_cell_length_b	10.685594
_cell_length_c	12.759393
_cell_angle_alpha	94.343437
_cell_angle_beta	89.979062
_cell_angle_gamma	94.386505
loop_
_atom_site_label
_atom_site_type_symbol
_atom_site_fract_x
_atom_site_fract_y
_atom_site_fract_z
Zn1	Zn	1.574226	-0.502246	-0.626086
Zn2	Zn	1.560654	-0.713289	-0.463880
Zn3	Zn	1.398521	-0.502313	-0.450426
Zn4	Zn	1.385059	-0.713201	-0.639512
O5	O	1.479615	-0.607763	-0.544976
O6	O	1.719446	-0.530250	-0.604581
O7	O	1.539100	-0.685368	-0.315079
O8	O	1.433142	-0.325725	-0.462478
O9	O	1.709475	-0.685303	-0.485409
O10	O	1.562232	-0.325676	-0.591535
O11	O	1.419982	-0.530365	-0.305193
O12	O	1.249714	-0.530279	-0.475496
O13	O	1.410199	-0.685153	-0.784748
O14	O	1.239824	-0.685218	-0.614417
O15	O	1.549179	-0.530165	-0.774884
O16	O	1.526047	-0.889857	-0.498428
O17	O	1.397038	-0.889793	-0.627464
C18	C	1.206649	-0.607747	-0.544954
C19	C	1.089870	-0.607771	-0.544972
C20	C	1.029878	-0.688570	-0.617210
C21	C	0.920154	-0.688575	-0.617231
C22	C	0.930424	-0.526978	-0.472767
C23	C	1.040146	-0.526968	-0.472751
C24	C	1.458638	-0.935610	-0.565886
C25	C	1.449760	-1.075865	-0.574866
C26	C	1.753647	-0.607779	-0.544999
C27	C	1.870423	-0.607786	-0.545008
C28	C	1.479701	-0.607641	-0.819002
C29	C	1.479738	-0.607590	-0.935775
C30	C	1.500703	-0.278635	-0.524008
C31	C	1.509689	-0.138380	-0.515072
C32	C	1.552111	-0.526875	-0.985502
C33	C	1.552132	-0.526820	-1.095223
C34	C	1.407404	-0.688207	-1.105481
C35	C	1.407379	-0.688254	-0.995762
C36	C	1.479595	-0.607792	-0.272011
C37	C	1.479785	-0.607488	-0.155215
H38	H	1.088994	-0.461163	-0.413925
O39	O	1.622290	-0.448330	-0.927267
C40	C	1.607406	-0.322557	-0.946087
H41	H	1.523888	-0.316173	-0.975826
H42	H	1.665858	-0.289550	-1.007686
C43	C	1.727585	-0.246219	-0.806735
C44	C	1.625004	-0.238377	-0.843253
H45	H	1.738445	-0.194291	-0.743304
H46	H	1.737617	-0.330955	-0.794058
H47	H	1.776284	-0.218716	-0.858077
H48	H	1.576308	-0.265895	-0.791917
H49	H	1.614965	-0.153644	-0.855920
H50	H	1.348437	-0.753981	-0.955274
O51	O	1.078017	-0.767090	-0.687471
C52	C	1.001531	-0.838425	-0.751218
H53	H	0.926624	-0.786752	-0.751638
H54	H	0.983715	-0.934208	-0.718727
C55	C	1.135234	-0.920230	-0.863661
C56	C	1.043236	-0.856758	-0.864183
H57	H	1.160960	-0.931544	-0.933342
H58	H	1.186765	-0.872174	-0.820711
H59	H	1.120375	-1.000042	-0.836580
H60	H	1.058098	-0.776942	-0.891251
H61	H	0.991708	-0.904801	-0.907140
O62	O	0.861843	-0.766886	-0.687502
C63	C	0.802982	-0.695153	-0.750880
H64	H	0.842409	-0.595778	-0.751167
H65	H	0.720088	-0.690765	-0.718138
C66	C	0.748977	-0.879020	-0.863603
C67	C	0.797407	-0.756968	-0.863962
H68	H	0.745534	-0.917151	-0.933356
H69	H	0.788630	-0.927349	-0.820902
H70	H	0.679904	-0.875346	-0.836312
H71	H	0.866483	-0.760644	-0.891239
H72	H	0.757766	-0.708640	-0.906670
H73	H	0.889925	-0.461193	-0.413966
O74	O	1.578862	-1.074173	-0.445683
C75	C	1.523847	-0.998034	-0.372972
H76	H	1.438607	-1.037919	-0.368934
H77	H	1.526461	-0.898173	-0.399134
C78	C	1.680058	-0.946896	-0.268622
C79	C	1.575367	-0.995890	-0.263655
H80	H	1.711839	-0.945567	-0.201190
H81	H	1.717124	-0.998188	-0.317609
H82	H	1.682222	-0.863683	-0.290427
H83	H	1.573204	-1.079106	-0.241863
H84	H	1.538301	-0.944611	-0.214661
O85	O	1.380581	-1.140148	-0.644197
C86	C	1.435603	-1.216235	-0.716941
H87	H	1.514019	-1.235800	-0.681196
H88	H	1.450283	-1.165434	-0.791594
C89	C	1.273639	-1.317510	-0.787746
C90	C	1.369947	-1.341549	-0.743840
H91	H	1.233138	-1.394807	-0.804343
H92	H	1.236569	-1.266246	-0.738740
H93	H	1.285886	-1.275173	-0.849952
H94	H	1.357699	-1.383871	-0.681629
H95	H	1.407014	-1.392824	-0.792836
O96	O	1.622294	-0.448277	-1.143562
C97	C	1.567716	-0.366758	-1.201839
H98	H	1.485461	-0.358977	-1.168263
H99	H	1.561616	-0.405726	-1.287481
C100	C	1.728475	-0.245139	-1.236403
C101	C	1.627451	-0.235574	-1.195159
H102	H	1.765324	-0.164221	-1.232288
H103	H	1.765247	-0.300062	-1.197145
H104	H	1.723379	-0.277617	-1.307768
H105	H	1.632550	-0.203112	-1.123793
H106	H	1.590682	-0.180642	-1.234406
H107	H	1.348494	-0.753884	-1.154335
