data_functionalizedCrystal
_audit_creation_method	'MofGen! by Chris Wilmer'
_symmetry_space_group_name_H-M	'P1'
_symmetry_Int_Tables_number	1
_symmetry_cell_setting	triclinic
loop_
_symmetry_equiv_pos_as_xyz
  x,y,z
_cell_length_a	16.992694
_cell_length_b	23.532407
_cell_length_c	16.053802
_cell_angle_alpha	92.544672
_cell_angle_beta	87.249047
_cell_angle_gamma	86.758451
loop_
_atom_site_label
_atom_site_type_symbol
_atom_site_fract_x
_atom_site_fract_y
_atom_site_fract_z
O1	O	1.042772	0.118472	-0.069339
O2	O	0.814498	0.117146	-0.069363
O3	O	0.935518	0.035219	-0.069335
O4	O	0.921752	0.200399	-0.069367
O5	O	0.928857	0.039709	0.069523
O6	O	0.807837	0.121636	0.069494
O7	O	1.036111	0.122961	0.069519
Zn8	Zn	0.920917	0.123011	0.091553
Zn9	Zn	0.929693	0.117096	-0.091397
O10	O	0.915091	0.204888	0.069490
C11	C	0.781969	0.117687	0.000063
C12	C	0.694964	0.112604	0.000054
C13	C	0.644342	0.161650	0.000045
C14	C	0.562592	0.156871	0.000058
C15	C	0.531466	0.103045	0.000073
C16	C	0.582095	0.053995	0.000084
C17	C	0.663843	0.058775	0.000078
C18	C	0.288022	0.083234	0.000099
C19	C	0.206267	0.078457	0.000103
C20	C	0.186770	0.181334	0.000078
C21	C	0.268521	0.186109	0.000066
C22	C	0.319142	0.137059	0.000082
N23	N	0.447905	0.098158	0.000083
N24	N	0.402702	0.141946	0.000078
C25	C	0.931837	0.016231	0.000096
C26	C	0.930783	-0.047038	0.000102
C27	C	0.995791	-0.442917	0.000063
C28	C	0.994812	-0.502366	0.000057
O29	O	1.055075	-0.536121	0.000033
N30	N	0.922865	-0.528562	0.000050
C31	C	0.851893	-0.495307	0.000041
O32	O	0.790607	-0.523048	0.000033
C33	C	0.852873	-0.435859	0.000041
C34	C	0.924824	-0.409666	0.000057
C35	C	1.067736	-0.416723	0.000078
C36	C	1.068715	-0.357278	0.000086
C37	C	0.997748	-0.324027	0.000079
C38	C	0.925803	-0.350221	0.000065
C39	C	0.781902	-0.402605	0.000026
C40	C	0.782889	-0.343154	0.000026
C41	C	0.854840	-0.316960	0.000042
C42	C	0.855814	-0.257525	0.000066
N43	N	0.927761	-0.231328	0.000073
C44	C	0.998728	-0.264579	0.000080
C45	C	0.849841	-0.620151	0.000038
C46	C	0.848860	-0.679598	0.000044
C47	C	0.991779	-0.686653	0.000058
C48	C	0.992759	-0.627205	0.000059
C49	C	0.921788	-0.593955	0.000045
C50	C	1.000777	-0.139740	0.000097
C51	C	1.001749	-0.080289	0.000109
C52	C	0.858831	-0.073240	0.000090
C53	C	0.857858	-0.132685	0.000083
C54	C	0.928838	-0.165934	0.000084
O55	O	0.795583	-0.223734	0.000087
O56	O	1.060004	-0.236831	0.000076
C57	C	1.068641	0.122420	0.000091
C58	C	1.155645	0.127503	0.000094
C59	C	0.918773	0.223877	0.000058
C60	C	0.919827	0.287146	0.000046
N61	N	0.914933	0.127048	0.216412
N62	N	0.935683	0.113055	-0.216256
C63	C	0.966445	0.092202	0.260118
C64	C	0.962267	0.095032	0.347524
C65	C	0.906579	0.132711	0.391222
C66	C	0.855061	0.167558	0.347510
C67	C	0.859236	0.164725	0.260106
C68	C	0.888340	0.145069	0.652627
C69	C	0.884170	0.147901	0.740038
C70	C	0.991376	0.075374	0.740045
C71	C	0.995550	0.072546	0.652640
C72	C	0.944029	0.107392	0.608935
N73	N	0.902308	0.135606	0.480565
N74	N	0.948296	0.104494	0.519594
H75	H	0.329228	0.043294	0.000113
C76	C	0.702757	-0.431411	0.000011
C77	C	0.685885	-0.473633	-0.072097
C78	C	0.606735	-0.502440	-0.072110
C79	C	0.544457	-0.489025	-0.000014
C80	C	0.561327	-0.446801	0.072099
C81	C	0.640477	-0.417994	0.072112
H82	H	0.731988	-0.483565	-0.125471
H83	H	0.594247	-0.533696	-0.125493
H84	H	0.485865	-0.510349	-0.000024
H85	H	0.515223	-0.436869	0.125474
H86	H	0.652965	-0.386737	0.125496
C87	C	0.802572	0.203058	0.212026
C88	C	0.741343	0.244525	0.260090
C89	C	0.684675	0.282857	0.212012
C90	C	0.689235	0.279721	0.115871
C91	C	0.750467	0.238252	0.067802
C92	C	0.807135	0.199921	0.115880
H93	H	0.737965	0.246848	0.331264
H94	H	0.639347	0.313555	0.247596
H95	H	0.647286	0.308097	0.080281
H96	H	0.753845	0.235929	-0.003372
H97	H	0.852463	0.169222	0.080296
H98	H	0.799269	-0.154012	0.000093
H99	H	0.556745	0.010169	0.000109
C100	C	0.704817	-0.306579	0.000014
C101	C	0.649193	-0.314167	-0.072102
C102	C	0.571122	-0.277593	-0.072112
C103	C	0.548676	-0.233431	-0.000007
C104	C	0.604301	-0.225842	0.072114
C105	C	0.682372	-0.262415	0.072124
H106	H	0.665808	-0.346859	-0.125483
H107	H	0.529945	-0.283211	-0.125501
H108	H	0.490883	-0.206357	-0.000014
H109	H	0.587686	-0.193149	0.125495
H110	H	0.723549	-0.256797	0.125513
H111	H	1.011796	0.061523	0.224545
C112	C	1.078854	-0.176308	0.000105
C113	C	1.134473	-0.168716	0.072224
C114	C	1.212548	-0.205284	0.072239
C115	C	1.235004	-0.249444	0.000135
C116	C	1.179384	-0.257038	-0.071990
C117	C	1.101309	-0.220470	-0.072004
H118	H	1.117850	-0.136024	0.125605
H119	H	1.253721	-0.199662	0.125631
H120	H	1.292800	-0.276513	0.000146
H121	H	1.196007	-0.289730	-0.125370
H122	H	1.060135	-0.226092	-0.125396
H123	H	1.049564	-0.713737	0.000061
H124	H	1.004212	0.066657	0.383109
C125	C	0.302747	0.245322	0.000059
C126	C	0.280007	0.289427	0.072160
C127	C	0.314229	0.348642	0.072152
C128	C	0.371191	0.363753	0.000042
C129	C	0.393934	0.319646	-0.072065
C130	C	0.359712	0.260431	-0.072056
H131	H	0.237838	0.278242	0.125545
H132	H	0.297392	0.381292	0.125530
H133	H	0.396524	0.407587	0.000036
H134	H	0.436104	0.330831	-0.125450
H135	H	0.376549	0.227781	-0.125435
H136	H	0.705059	0.018836	0.000085
H137	H	0.801051	-0.046156	0.000087
H138	H	1.060343	-0.058966	0.000124
C139	C	1.145808	-0.453292	0.000090
C140	C	1.201426	-0.445693	0.072208
C141	C	1.279504	-0.482257	0.072228
C142	C	1.301965	-0.526420	0.000129
C143	C	1.246346	-0.534022	-0.071995
C144	C	1.168268	-0.497458	-0.072014
H145	H	1.184801	-0.412998	0.125585
H146	H	1.320677	-0.476629	0.125619
H147	H	1.359763	-0.553487	0.000144
H148	H	1.262971	-0.566716	-0.125371
H149	H	1.127095	-0.503085	-0.125405
H150	H	1.051348	-0.605882	0.000071
H151	H	1.040895	0.041865	0.617062
C152	C	1.048041	0.037041	0.788120
C153	C	1.043453	0.040151	0.884262
C154	C	1.100119	0.001814	0.932335
C155	C	1.161372	-0.039632	0.884268
C156	C	1.165962	-0.042744	0.788121
C157	C	1.109296	-0.004407	0.740048
H158	H	0.998108	0.070833	0.919849
H159	H	1.096720	0.004118	1.003510
H160	H	1.203319	-0.068011	0.919855
H161	H	1.211307	-0.073427	0.752534
H162	H	1.112695	-0.006711	0.668873
H163	H	0.669678	0.205481	0.000032
C164	C	0.822905	0.189349	0.788104
C165	C	0.734234	0.183900	0.776106
C166	C	0.672974	0.225347	0.824171
C167	C	0.700385	0.272244	0.884234
C168	C	0.789060	0.277696	0.896234
C169	C	0.850321	0.236248	0.848169
H170	H	0.713939	0.149182	0.731642
H171	H	0.607331	0.221311	0.815287
H172	H	0.655037	0.302926	0.919814
H173	H	0.809356	0.312413	0.940699
H174	H	0.915964	0.240284	0.857053
H175	H	0.521379	0.196809	0.000049
H176	H	0.145546	0.221267	0.000067
H177	H	0.180928	0.034624	0.000115
H178	H	1.127305	-0.335957	0.000095
H179	H	0.790270	-0.700919	0.000046
H180	H	0.846391	0.173443	0.617050
H181	H	0.809714	0.198235	0.383094
H182	H	0.792043	-0.593082	0.000034
