data_functionalizedCrystal
_audit_creation_method	'MofGen! by Chris Wilmer'
_symmetry_space_group_name_H-M	'P1'
_symmetry_Int_Tables_number	1
_symmetry_cell_setting	triclinic
loop_
_symmetry_equiv_pos_as_xyz
  x,y,z
_cell_length_a	16.959454
_cell_length_b	17.639664
_cell_length_c	16.959447
_cell_angle_alpha	101.179552
_cell_angle_beta	90.026736
_cell_angle_gamma	78.751461
loop_
_atom_site_label
_atom_site_type_symbol
_atom_site_fract_x
_atom_site_fract_y
_atom_site_fract_z
Zn1	Zn	-0.070039	-1.208364	0.203061
Zn2	Zn	-0.202247	-1.208287	0.070906
Zn3	Zn	-0.096828	-1.076195	0.097572
Zn4	Zn	-0.228944	-1.076160	0.229710
O5	O	-0.149515	-1.142252	0.150312
O6	O	-0.065193	-1.318963	0.163218
O7	O	-0.188302	-1.190747	-0.036164
O8	O	0.017346	-1.093775	0.111573
O9	O	-0.162326	-1.318906	0.066124
O10	O	0.037028	-1.190879	0.189075
O11	O	-0.110851	-1.093700	-0.016572
O12	O	-0.136737	-0.965581	0.137413
O13	O	-0.207826	-1.093715	0.336783
O14	O	-0.233802	-0.965555	0.234495
O15	O	-0.091080	-1.190845	0.317203
O16	O	-0.316409	-1.190713	0.091965
O17	O	-0.336023	-1.093639	0.208638
C18	C	-0.191074	-0.936889	0.191740
C19	C	-0.208872	-0.849033	0.209481
C20	C	-0.284564	-0.725213	0.284946
C21	C	-0.267834	-0.807766	0.268269
C22	C	-0.166615	-0.807757	0.167351
C23	C	-0.183333	-0.725202	0.184022
C24	C	-0.242309	-0.683936	0.242820
C25	C	-0.141079	-0.683926	0.141896
C26	C	-0.157800	-0.601378	0.158564
C27	C	-0.216775	-0.560106	0.217357
C28	C	-0.259030	-0.601389	0.259487
C29	C	-0.082108	-0.725193	0.083095
C30	C	-0.039853	-0.683916	0.040969
C31	C	-0.056570	-0.601367	0.057640
C32	C	-0.115544	-0.560096	0.116433
C33	C	-0.014314	-0.560085	0.015510
C34	C	-0.031035	-0.477537	0.032177
C35	C	-0.132265	-0.477548	0.133101
C36	C	-0.354894	-1.142185	0.150312
C37	C	-0.442742	-1.142229	0.150324
C38	C	-0.824441	-1.091779	0.211044
C39	C	-0.803940	-1.192944	0.089617
C40	C	-0.721400	-1.192917	0.089616
C41	C	-0.690377	-1.142319	0.150328
C42	C	-0.741894	-1.091748	0.211043
C43	C	-0.669878	-1.243481	0.028898
C44	C	-0.587333	-1.243455	0.028893
C45	C	-0.556307	-1.192860	0.089610
C46	C	-0.607830	-1.142288	0.150327
C47	C	-0.576806	-1.091690	0.211040
C48	C	-0.628326	-1.041121	0.271761
C49	C	-0.710868	-1.041153	0.271759
C50	C	-0.473765	-1.192828	0.089612
C51	C	-0.494259	-1.091659	0.211038
C52	C	0.056671	-1.142340	0.150325
C53	C	0.144536	-1.142377	0.150331
C54	C	-0.149443	-1.142284	0.356474
C55	C	-0.149412	-1.142298	0.444328
C56	C	-0.107793	-0.348416	0.108717
C57	C	-0.090011	-0.436272	0.090975
C58	C	-0.149520	-1.142264	-0.055056
C59	C	-0.149297	-1.142403	-0.142941
C60	C	-0.210094	-1.091822	0.825981
C61	C	-0.088525	-1.192964	0.805588
C62	C	-0.088546	-1.192943	0.723047
C63	C	-0.149342	-1.142361	0.691968
C64	C	-0.210118	-1.091801	0.743432
C65	C	-0.027776	-1.243509	0.671576
C66	C	-0.027795	-1.243490	0.589029
C67	C	-0.088589	-1.192904	0.557950
C68	C	-0.149367	-1.142340	0.609419
C69	C	-0.210163	-1.091759	0.578341
C70	C	-0.270938	-1.041191	0.629809
C71	C	-0.270912	-1.041214	0.712353
C72	C	-0.088615	-1.192880	0.475406
C73	C	-0.210187	-1.091738	0.495791
H74	H	-0.332580	-0.691612	0.332832
H75	H	-0.118599	-0.841367	0.119476
H76	H	-0.695145	-1.284669	-0.020536
Br77	Br	-0.325189	-0.863782	0.325443
Br78	Br	0.040180	-0.739927	-0.038827
H79	H	-0.866392	-1.050609	0.260483
Br80	Br	-0.452161	-1.022992	0.293444
H81	H	-0.039135	-1.234054	0.433504
Br82	Br	0.065711	-0.616098	-0.064293
Br83	Br	-0.292567	-1.023192	0.895827
Br84	Br	0.026302	-0.421514	-0.025001
H85	H	-0.068497	-0.792409	0.069526
Br86	Br	-0.339058	-0.545377	0.339297
H87	H	-0.603058	-0.999920	0.321191
H88	H	-0.180281	-0.443947	0.180987
Br89	Br	-0.780791	-0.972531	0.354158
Br90	Br	-0.239478	-0.448076	0.239970
Br91	Br	-0.353387	-0.972596	0.782205
Br92	Br	-0.353450	-0.972553	0.587620
Br93	Br	-0.517419	-1.312087	-0.053507
Br94	Br	-0.006026	-1.261616	0.847765
Br95	Br	-0.846045	-1.261609	0.007225
H96	H	-0.431822	-1.233996	0.040170
Br97	Br	0.054722	-1.312159	0.713755
Br98	Br	-0.292696	-1.023080	0.453622
H99	H	0.021692	-1.284665	0.547130
