data_functionalizedCrystal
_audit_creation_method	'MofGen! by Chris Wilmer'
_symmetry_space_group_name_H-M	'P1'
_symmetry_Int_Tables_number	1
_symmetry_cell_setting	triclinic
loop_
_symmetry_equiv_pos_as_xyz
  x,y,z
_cell_length_a	12.837943
_cell_length_b	17.038272
_cell_length_c	11.295483
_cell_angle_alpha	94.391706
_cell_angle_beta	85.461227
_cell_angle_gamma	92.970248
loop_
_atom_site_label
_atom_site_type_symbol
_atom_site_fract_x
_atom_site_fract_y
_atom_site_fract_z
O1	O	1.400057	0.199823	-0.099006
O2	O	1.097361	0.189716	-0.099013
O3	O	1.246909	0.080820	-0.099000
O4	O	1.250509	0.308719	-0.099019
O5	O	1.233773	0.090368	0.099049
O6	O	1.084224	0.199264	0.099036
O7	O	1.386921	0.209371	0.099043
Cu8	Cu	1.234373	0.205189	0.117123
Cu9	Cu	1.249908	0.193897	-0.117093
O10	O	1.237372	0.318267	0.099030
C11	C	1.051871	0.191076	0.000011
C12	C	0.935896	0.180893	0.000008
C13	C	1.237069	0.056221	0.000024
C14	C	1.227305	-0.031301	0.000024
C15	C	0.705733	0.303310	0.000015
C16	C	0.596764	0.293746	0.000014
C17	C	0.608986	0.152201	0.000013
C18	C	0.717955	0.161765	0.000014
C19	C	0.766324	0.237322	0.000014
C20	C	0.875296	0.246885	0.000007
C21	C	0.887516	0.105342	0.000014
C22	C	0.778546	0.095777	0.000013
C23	C	1.316945	-0.074719	0.000027
C24	C	1.307766	-0.156956	0.000015
C25	C	1.208945	-0.195773	0.000009
C26	C	1.119299	-0.152349	0.000002
C27	C	1.128480	-0.070114	0.000005
C28	C	1.176511	-0.443954	-0.000008
C29	C	1.167337	-0.526195	-0.000007
C30	C	1.355805	-0.530796	0.000004
C31	C	1.364977	-0.448559	0.000014
C32	C	1.275331	-0.405143	0.000001
C33	C	1.199560	-0.279832	0.000001
C34	C	1.284718	-0.321086	0.000000
C35	C	1.432411	0.208011	0.000017
C36	C	1.548386	0.218194	0.000011
C37	C	1.247213	0.342865	0.000003
C38	C	1.256977	0.430387	-0.000004
N39	N	1.223454	0.213132	0.281859
N40	N	1.260835	0.185950	-0.281829
C41	C	1.339435	0.128734	0.531158
C42	C	1.331191	0.134742	0.655821
C43	C	1.198717	0.231151	0.655850
C44	C	1.206961	0.225143	0.531187
C45	C	1.277323	0.173934	0.468845
C46	C	1.285572	0.167930	0.344180
C47	C	1.153093	0.264335	0.344211
C48	C	1.144849	0.270343	0.468874
H49	H	0.914677	0.308407	0.000008
H50	H	1.141422	0.272839	0.706625
O51	O	0.562028	0.078804	0.000227
C52	C	0.585596	0.043020	0.102782
H53	H	0.607227	0.090512	0.174472
H54	H	0.514423	0.006289	0.137215
H55	H	0.654195	0.003326	0.079587
H56	H	0.745116	0.364831	0.000013
H57	H	1.445447	-0.416960	0.000019
O58	O	1.412977	-0.037061	-0.000180
C59	C	1.474869	-0.063513	-0.102739
H60	H	1.421961	-0.088224	-0.174430
H61	H	1.525933	-0.012135	-0.137169
H62	H	1.526758	-0.111566	-0.079551
O63	O	0.731520	0.022392	-0.000201
C64	C	0.675633	0.007696	-0.102757
H65	H	0.709757	0.047288	-0.174445
H66	H	0.682082	-0.056663	-0.137193
H67	H	0.589868	0.020578	-0.079563
O68	O	1.103499	-0.317442	0.000160
C69	C	1.041619	-0.291027	0.102749
H70	H	1.072804	-0.230326	0.136953
H71	H	0.957256	-0.287221	0.079680
H72	H	1.044756	-0.334172	0.174568
H73	H	1.342867	0.126235	0.293423
H74	H	0.547433	0.347481	0.000019
H75	H	0.936862	0.051609	0.000005
H76	H	1.380760	-0.192303	0.000021
H77	H	1.428789	-0.566154	0.000012
O78	O	1.071262	-0.563782	-0.000079
C79	C	0.994104	-0.507828	-0.000066
H80	H	1.030759	-0.451687	-0.037554
H81	H	0.929371	-0.532752	-0.057579
H82	H	0.959789	-0.493799	0.094943
H83	H	1.396734	0.087042	0.480399
O84	O	1.076356	0.319992	0.529387
C85	C	0.973949	0.298009	0.498925
H86	H	0.970148	0.233308	0.464652
H87	H	0.916957	0.307088	0.580920
H88	H	0.951934	0.335853	0.426572
H89	H	1.102521	0.301142	0.293462
O90	O	1.041449	-0.027910	-0.000206
C91	C	1.047940	0.014869	-0.102763
H92	H	1.103405	-0.014675	-0.174451
H93	H	0.966987	0.016182	-0.137198
H94	H	1.078678	0.077691	-0.079572
H95	H	1.103515	-0.408614	-0.000018
H96	H	1.038837	-0.183960	-0.000010
H97	H	1.365179	-0.289479	-0.000021
O98	O	1.391636	0.090803	0.716168
C99	C	1.455481	0.044302	0.634406
H100	H	1.465386	0.072376	0.545541
H101	H	1.535372	0.040267	0.670406
H102	H	1.417315	-0.017338	0.621156
