data_functionalizedCrystal
_audit_creation_method	'MofGen! by Chris Wilmer'
_symmetry_space_group_name_H-M	'P1'
_symmetry_Int_Tables_number	1
_symmetry_cell_setting	triclinic
loop_
_symmetry_equiv_pos_as_xyz
  x,y,z
_cell_length_a	15.944551
_cell_length_b	15.944551
_cell_length_c	9.730223
_cell_angle_alpha	89.995714
_cell_angle_beta	89.997716
_cell_angle_gamma	96.501262
loop_
_atom_site_label
_atom_site_type_symbol
_atom_site_fract_x
_atom_site_fract_y
_atom_site_fract_z
O1	O	0.108328	-1.114519	-0.114150
O2	O	0.121685	-0.869970	-0.114184
O3	O	-0.007268	-0.998923	-0.114153
O4	O	0.237281	-0.985566	-0.114180
O5	O	-0.007265	-0.998921	0.114426
O6	O	0.121688	-0.869968	0.114396
O7	O	0.108332	-1.114518	0.114430
Zn8	Zn	0.115010	-0.992243	0.150705
Zn9	Zn	0.115006	-0.992245	-0.150459
O10	O	0.237285	-0.985565	0.114400
C11	C	-0.038561	-0.998367	0.000137
C12	C	-0.131807	-0.996705	0.000137
C13	C	0.121132	-0.838675	0.000102
C14	C	0.119470	-0.745429	0.000089
C15	C	0.108885	-1.145813	0.000142
C16	C	0.110547	-1.239059	0.000145
C17	C	-0.346663	-0.912801	0.000106
C18	C	-0.407679	-0.951762	0.112816
C19	C	-0.302533	-0.993698	0.000126
C20	C	-0.407666	-0.951783	-0.112546
C21	C	-0.467445	-0.990787	0.000110
C22	C	-0.362320	-1.032682	0.112928
C23	C	-0.362300	-1.032691	-0.112535
C24	C	-0.423298	-1.071711	0.000202
C25	C	-0.207530	-0.995372	0.000137
C26	C	-0.562446	-0.989119	0.000109
C27	C	0.268577	-0.986120	0.000107
C28	C	0.361823	-0.987782	0.000097
C29	C	0.035565	-0.530572	0.000125
C30	C	0.074526	-0.469553	-0.112582
C31	C	0.116462	-0.574703	0.000105
C32	C	0.074548	-0.469574	0.112780
C33	C	0.113551	-0.409790	0.000127
C34	C	0.155445	-0.514912	-0.112694
C35	C	0.155456	-0.514939	0.112769
C36	C	0.194476	-0.453937	0.000035
C37	C	0.118137	-0.669705	0.000091
C38	C	0.111883	-0.314789	0.000131
N39	N	0.115013	-0.992248	0.356242
N40	N	0.114997	-0.992247	-0.355995
C41	C	0.057932	-1.049362	0.428181
C42	C	0.057921	-1.049360	0.572064
C43	C	0.172081	-0.935126	0.572055
C44	C	0.172086	-0.935124	0.428175
C45	C	-0.007975	-1.115317	0.428187
C46	C	-0.007985	-1.115315	0.572070
H47	H	-0.313356	-0.845652	0.000209
H48	H	-0.031573	-0.563905	-0.000008
H49	H	-0.427786	-0.917545	0.208093
H50	H	-0.342328	-1.066869	0.208320
O51	O	-0.080569	-1.091729	0.625493
C52	C	-0.120344	-1.157758	0.706981
H53	H	-0.071532	-1.200045	0.742642
H54	H	-0.171072	-1.196509	0.643895
C55	C	-0.221157	-1.068477	0.789242
C56	C	-0.161204	-1.120411	0.833051
H57	H	-0.246365	-1.045441	0.867004
H58	H	-0.194362	-1.023992	0.734338
H59	H	-0.263422	-1.100777	0.736669
H60	H	-0.118935	-1.088108	0.885607
H61	H	-0.187993	-1.164889	0.887966
H62	H	0.189634	-0.534900	-0.208082
H63	H	-0.456457	-1.138919	0.000275
H64	H	-0.342171	-1.066878	-0.207817
O65	O	-0.084877	-1.099010	0.381513
C66	C	-0.120760	-1.167376	0.301021
H67	H	-0.091494	-1.226810	0.330748
H68	H	-0.108023	-1.152902	0.187698
C69	C	-0.252642	-1.108323	0.289511
C70	C	-0.216701	-1.181323	0.326030
H71	H	-0.311823	-1.116925	0.304931
H72	H	-0.228466	-1.062262	0.343735
H73	H	-0.242019	-1.096269	0.195076
H74	H	-0.227315	-1.193370	0.420467
H75	H	-0.240881	-1.227387	0.271822
O76	O	0.227406	-0.879607	0.642087
C77	C	0.182379	-0.827778	0.725273
H78	H	0.116672	-0.861233	0.746825
H79	H	0.176634	-0.765703	0.669812
C80	C	0.310420	-0.768734	0.835478
C81	C	0.229719	-0.809827	0.861958
H82	H	0.339622	-0.757656	0.919789
H83	H	0.340756	-0.803649	0.779431
H84	H	0.305620	-0.717009	0.789257
H85	H	0.234519	-0.861555	0.908162
H86	H	0.199384	-0.774919	0.918016
H87	H	-0.427744	-0.917557	-0.207840
H88	H	0.040308	-0.449443	-0.207860
H89	H	0.261683	-0.420779	-0.000035
O90	O	0.196120	-0.538943	0.226576
C91	C	0.153262	-0.516090	0.345179
H92	H	0.084781	-0.509324	0.318185
H93	H	0.185033	-0.453452	0.386300
C94	C	0.240144	-0.593195	0.488810
C95	C	0.156033	-0.584891	0.455657
H96	H	0.241856	-0.635631	0.556961
H97	H	0.269021	-0.608589	0.408906
H98	H	0.266610	-0.540992	0.523069
H99	H	0.129571	-0.637090	0.421383
H100	H	0.127151	-0.569507	0.535558
O101	O	0.033604	-0.445722	0.226412
C102	C	-0.050149	-0.485114	0.225967
H103	H	-0.054176	-0.544515	0.159993
H104	H	-0.093711	-0.439863	0.181977
C105	C	-0.072407	-0.436075	0.455056
C106	C	-0.077351	-0.509036	0.374034
H107	H	-0.089189	-0.450828	0.546390
H108	H	-0.015982	-0.409533	0.455355
H109	H	-0.108709	-0.398372	0.418381
H110	H	-0.041042	-0.546732	0.410699
H111	H	-0.133772	-0.535585	0.373745
O112	O	0.227610	-0.879606	0.358505
C113	C	0.277966	-0.829177	0.452853
H114	H	0.278939	-0.863614	0.555418
H115	H	0.250640	-0.766788	0.468149
C116	C	0.367375	-0.769553	0.270727
C117	C	0.368577	-0.811852	0.396697
H118	H	0.423267	-0.758862	0.236086
H119	H	0.333448	-0.803525	0.207162
H120	H	0.344600	-0.717567	0.283491
H121	H	0.391342	-0.863841	0.383927
H122	H	0.402510	-0.777888	0.460259
O123	O	0.015928	-1.187857	0.375130
C124	C	0.098274	-1.197904	0.420009
H125	H	0.112382	-1.160581	0.518855
H126	H	0.145680	-1.173657	0.337459
C127	C	0.087804	-1.337889	0.325618
C128	C	0.105128	-1.292054	0.447028
H129	H	0.092034	-1.395965	0.342279
H130	H	0.032326	-1.331120	0.295377
H131	H	0.127311	-1.317674	0.256838
H132	H	0.065615	-1.312262	0.515800
H133	H	0.160599	-1.298828	0.477282
H134	H	0.005849	-1.179743	0.611129
