data_functionalizedCrystal
_audit_creation_method	'MofGen! by Chris Wilmer'
_symmetry_space_group_name_H-M	'P1'
_symmetry_Int_Tables_number	1
_symmetry_cell_setting	triclinic
loop_
_symmetry_equiv_pos_as_xyz
  x,y,z
_cell_length_a	12.759401
_cell_length_b	15.297327
_cell_length_c	12.759393
_cell_angle_alpha	99.642489
_cell_angle_beta	89.981827
_cell_angle_gamma	99.706546
loop_
_atom_site_label
_atom_site_type_symbol
_atom_site_fract_x
_atom_site_fract_y
_atom_site_fract_z
Zn1	Zn	1.533794	-0.359111	-0.666298
Zn2	Zn	1.503244	-0.509996	-0.521003
Zn3	Zn	1.358087	-0.359156	-0.490647
Zn4	Zn	1.327653	-0.509929	-0.696631
O5	O	1.430695	-0.434548	-0.593645
O6	O	1.676760	-0.379135	-0.647034
O7	O	1.483941	-0.490034	-0.369965
O8	O	1.406917	-0.232904	-0.488548
O9	O	1.654316	-0.489990	-0.540287
O10	O	1.536007	-0.232871	-0.617599
O11	O	1.377295	-0.379212	-0.347662
O12	O	1.207031	-0.379147	-0.517961
O13	O	1.355046	-0.489876	-0.839619
O14	O	1.184671	-0.489919	-0.669297
O15	O	1.506497	-0.379070	-0.817334
O16	O	1.454430	-0.636233	-0.569700
O17	O	1.325424	-0.636183	-0.698733
C18	C	1.157731	-0.434531	-0.593627
C19	C	1.040951	-0.434546	-0.593649
C20	C	0.974455	-0.492317	-0.672357
C21	C	0.864729	-0.492329	-0.672371
C22	C	0.888004	-0.376795	-0.514959
C23	C	0.997730	-0.376779	-0.514950
C24	C	1.017677	-0.550084	-0.751056
C25	C	0.951179	-0.607861	-0.829770
C26	C	0.841453	-0.607872	-0.829783
C27	C	0.798224	-0.550107	-0.751083
C28	C	1.383338	-0.668942	-0.640825
C29	C	1.363175	-0.769217	-0.661044
C30	C	1.575237	-1.051852	-0.449496
C31	C	1.594181	-0.957639	-0.430494
C32	C	1.536432	-0.910529	-0.488130
C33	C	1.459734	-0.957641	-0.564771
C34	C	1.440783	-1.051863	-0.583769
C35	C	1.401977	-0.910540	-0.622403
C36	C	1.325280	-0.957652	-0.699043
C37	C	1.306332	-1.051865	-0.718038
C38	C	1.364082	-1.098975	-0.660403
C39	C	1.420928	-0.816317	-0.603405
C40	C	1.286474	-0.816329	-0.737677
C41	C	1.267530	-0.910542	-0.756679
C42	C	1.704724	-0.434565	-0.593663
C43	C	1.821500	-0.434573	-0.593671
C44	C	1.430784	-0.434460	-0.867661
C45	C	1.430823	-0.434423	-0.984430
C46	C	1.478265	-0.199239	-0.546304
C47	C	1.498536	-0.098964	-0.526130
C48	C	1.352028	-0.492062	-1.160611
C49	C	1.351989	-0.492095	-1.050894
C50	C	1.509694	-0.376707	-1.027687
C51	C	1.509728	-0.376671	-1.137402
C52	C	1.273195	-0.549745	-1.227071
C53	C	1.194322	-0.607460	-1.183821
C54	C	1.194283	-0.607493	-1.074104
C55	C	1.273117	-0.549811	-1.007636
C56	C	1.430679	-0.434570	-0.320682
C57	C	1.430895	-0.434353	-0.203862
H58	H	0.787315	-0.654911	-0.893882
H59	H	0.852798	-0.329765	-0.450884
Br60	Br	1.273057	-0.549851	-0.858732
Br61	Br	1.273250	-0.549710	-1.375975
Br62	Br	1.698274	-0.893707	-0.326496
Br63	Br	1.616736	-0.298320	-1.196101
Br64	Br	1.616671	-0.298424	-0.937482
H65	H	0.708878	-0.550113	-0.751108
Br66	Br	1.163446	-0.974490	-0.860691
Br67	Br	1.166589	-0.550077	-0.751036
H68	H	1.551859	-0.833816	-0.472653
H69	H	1.348664	-1.175691	-0.675872
H70	H	1.239447	-0.777972	-0.784607
Br71	Br	1.009846	-0.686245	-0.936579
H72	H	1.051874	-0.329730	-0.450866
H73	H	1.130053	-0.654479	-1.038892
Br74	Br	1.087328	-0.685727	-1.274020
H75	H	1.622242	-1.090217	-0.402571
Br76	Br	1.525012	-0.752391	-0.499394
Br77	Br	1.202236	-1.115802	-0.822044
