data_functionalizedCrystal
_audit_creation_method	'MofGen! by Chris Wilmer'
_symmetry_space_group_name_H-M	'P1'
_symmetry_Int_Tables_number	1
_symmetry_cell_setting	triclinic
loop_
_symmetry_equiv_pos_as_xyz
  x,y,z
_cell_length_a	10.968094
_cell_length_b	10.065875
_cell_length_c	10.723023
_cell_angle_alpha	98.874128
_cell_angle_beta	95.409225
_cell_angle_gamma	86.881123
loop_
_atom_site_label
_atom_site_type_symbol
_atom_site_fract_x
_atom_site_fract_y
_atom_site_fract_z
O1	O	1.614660	-0.266219	-0.217645
O2	O	1.264651	-0.183907	-0.221218
O3	O	1.447729	-0.226967	-0.038160
O4	O	1.431582	-0.223159	-0.400703
O5	O	1.412819	-0.445745	-0.073214
O6	O	1.229741	-0.402685	-0.256271
O7	O	1.579751	-0.484997	-0.252699
Zn8	Zn	1.399204	-0.478577	-0.260050
Zn9	Zn	1.445198	-0.190327	-0.213866
O10	O	1.396673	-0.441937	-0.435756
C11	C	1.202379	-0.282757	-0.235837
C12	C	1.068839	-0.251352	-0.227161
C13	C	0.853194	-0.318218	-0.232469
C14	C	0.991211	-0.350689	-0.241448
N15	N	1.367822	-0.675302	-0.291569
C16	C	1.434272	-0.758709	-0.224824
C17	C	1.410129	-0.910198	-0.249092
C18	C	1.642023	-0.386145	-0.238078
C19	C	1.775564	-0.417541	-0.246754
C20	C	1.429099	-0.336079	-0.009143
C21	C	1.425585	-0.335248	0.129545
N22	N	1.476589	0.006395	-0.182338
C23	C	1.415303	-0.332823	-0.464773
C24	C	1.418819	-0.333645	-0.603459
C25	C	1.442102	-0.221544	0.209528
C26	C	1.438470	-0.220682	0.352869
H27	H	0.811281	-0.526614	-0.265625
H28	H	1.452610	-0.123336	0.421584
H29	H	1.033131	-0.142271	-0.208284
H30	H	1.458926	-0.124834	0.171885
O31	O	1.565844	-0.945045	-0.092779
C32	C	1.679958	-1.006443	-0.123521
H33	H	1.664672	-1.106672	-0.187477
H34	H	1.737419	-1.024498	-0.032971
H35	H	1.730060	-0.937809	-0.174971
O36	O	1.033769	-0.480852	-0.263749
C37	C	1.004311	-0.549259	-0.166000
H38	H	0.989769	-0.473490	-0.077507
H39	H	1.082544	-0.623673	-0.143965
H40	H	0.916801	-0.605930	-0.197484
O41	O	1.523353	-0.709911	-0.135180
C42	C	1.470756	-0.614888	-0.042612
H43	H	1.380375	-0.572416	-0.084851
H44	H	1.536120	-0.529697	-0.009723
H45	H	1.453243	-0.665709	0.041589
H46	H	1.293054	-0.716042	-0.366674
O47	O	1.401769	-0.449833	0.314688
C48	C	1.285381	-0.497757	0.325501
H49	H	1.253710	-0.455256	0.422470
H50	H	1.291240	-0.612339	0.314437
H51	H	1.217081	-0.464432	0.248342
H52	H	0.817478	-0.209145	-0.213584
H53	H	1.408747	-0.431954	0.167186
H54	H	1.335357	-0.950933	-0.324202
