data_functionalizedCrystal
_audit_creation_method	'MofGen! by Chris Wilmer'
_symmetry_space_group_name_H-M	'P1'
_symmetry_Int_Tables_number	1
_symmetry_cell_setting	triclinic
loop_
_symmetry_equiv_pos_as_xyz
  x,y,z
_cell_length_a	25.639243
_cell_length_b	25.639240
_cell_length_c	25.639233
_cell_angle_alpha	90.025929
_cell_angle_beta	90.015962
_cell_angle_gamma	90.035481
loop_
_atom_site_label
_atom_site_type_symbol
_atom_site_fract_x
_atom_site_fract_y
_atom_site_fract_z
Zn1	Zn	0.799247	-0.208176	0.295630
Zn2	Zn	1.049247	0.041824	0.545630
Zn3	Zn	1.299247	0.291824	0.795630
Zn4	Zn	1.549247	0.541824	1.045630
Zn5	Zn	0.799179	-0.295595	0.208183
Zn6	Zn	1.049179	-0.045595	0.458183
Zn7	Zn	1.299179	0.204405	0.708183
Zn8	Zn	1.549179	0.454405	0.958183
Zn9	Zn	0.711823	-0.208180	0.208203
Zn10	Zn	0.961823	0.041820	0.458203
Zn11	Zn	1.211823	0.291820	0.708203
Zn12	Zn	1.461823	0.541820	0.958203
Zn13	Zn	0.711777	-0.295587	0.295582
Zn14	Zn	0.961777	-0.045587	0.545582
Zn15	Zn	1.211777	0.204413	0.795582
Zn16	Zn	1.461777	0.454413	1.045582
O17	O	0.755506	-0.251885	0.251900
O18	O	1.005506	-0.001885	0.501900
O19	O	1.255506	0.248115	0.751900
O20	O	1.505506	0.498115	1.001900
O21	O	0.872403	-0.219775	0.284041
O22	O	1.122403	0.030225	0.534041
O23	O	1.372403	0.280225	0.784041
O24	O	1.622403	0.530225	1.034041
O25	O	0.787582	-0.284004	0.135020
O26	O	1.037582	-0.034004	0.385020
O27	O	1.287582	0.215996	0.635020
O28	O	1.537582	0.465996	0.885020
O29	O	0.723467	-0.135014	0.219829
O30	O	0.973467	0.114986	0.469829
O31	O	1.223467	0.364986	0.719829
O32	O	1.473467	0.614986	0.969829
O33	O	0.872353	-0.284001	0.219794
O34	O	1.122353	-0.034001	0.469794
O35	O	1.372353	0.215999	0.719794
O36	O	1.622353	0.465999	0.969794
O37	O	0.787697	-0.135012	0.284061
O38	O	1.037697	0.114988	0.534061
O39	O	1.287697	0.364988	0.784061
O40	O	1.537697	0.614988	1.034061
O41	O	0.723402	-0.219781	0.135035
O42	O	0.973402	0.030219	0.385035
O43	O	1.223402	0.280219	0.635035
O44	O	1.473402	0.530219	0.885035
O45	O	0.638652	-0.219772	0.219783
O46	O	0.888652	0.030228	0.469783
O47	O	1.138652	0.280228	0.719783
O48	O	1.388652	0.530228	0.969783
O49	O	0.723389	-0.283987	0.368754
O50	O	0.973389	-0.033987	0.618754
O51	O	1.223389	0.216013	0.868754
O52	O	1.473389	0.466013	1.118754
O53	O	0.638618	-0.283990	0.283980
O54	O	0.888618	-0.033990	0.533980
O55	O	1.138618	0.216010	0.783980
O56	O	1.388618	0.466010	1.033980
O57	O	0.787653	-0.219767	0.368789
O58	O	1.037653	0.030233	0.618789
O59	O	1.287653	0.280233	0.868789
O60	O	1.537653	0.530233	1.118789
O61	O	0.787538	-0.368759	0.219749
O62	O	1.037538	-0.118759	0.469749
O63	O	1.287538	0.131241	0.719749
O64	O	1.537538	0.381241	0.969749
O65	O	0.723324	-0.368753	0.283960
O66	O	0.973324	-0.118753	0.533960
O67	O	1.223324	0.131247	0.783960
O68	O	1.473324	0.381247	1.033960
C69	C	0.619664	-0.251881	0.251879
C70	C	0.869664	-0.001881	0.501879
C71	C	1.119664	0.248119	0.751879
C72	C	1.369664	0.498119	1.001879
C73	C	0.561550	-0.251892	0.251882
C74	C	0.811550	-0.001892	0.501882
C75	C	1.061550	0.248108	0.751882
C76	C	1.311550	0.498108	1.001882
C77	C	0.755433	-0.387727	0.251859
C78	C	1.005433	-0.137727	0.501859
C79	C	1.255433	0.112273	0.751859
C80	C	1.505433	0.362273	1.001859
C81	C	0.755449	-0.445841	0.251859
C82	C	1.005449	-0.195841	0.501859
C83	C	1.255449	0.054159	0.751859
C84	C	1.505449	0.304159	1.001859
C85	C	0.201207	-0.218495	0.285409
C86	C	0.451207	0.031505	0.535409
C87	C	0.701207	0.281505	0.785409
C88	C	0.951207	0.531505	1.035409
C89	C	0.146603	-0.218494	0.285412
C90	C	0.396603	0.031506	0.535412
C91	C	0.646603	0.281506	0.785412
C92	C	0.896603	0.531506	1.035412
O93	O	0.118383	-0.190088	0.313891
O94	O	0.368383	0.059912	0.563891
O95	O	0.618383	0.309912	0.813891
O96	O	0.868383	0.559912	1.063891
N97	N	0.119267	-0.251883	0.251914
N98	N	0.369267	-0.001883	0.501914
N99	N	0.619267	0.248117	0.751914
N100	N	0.869267	0.498117	1.001914
C101	C	0.146539	-0.285271	0.218407
C102	C	0.396539	-0.035271	0.468407
C103	C	0.646539	0.214729	0.718407
C104	C	0.896539	0.464729	0.968407
O105	O	0.118274	-0.313670	0.189914
O106	O	0.368274	-0.063670	0.439914
O107	O	0.618274	0.186330	0.689914
O108	O	0.868274	0.436330	0.939914
C109	C	0.201142	-0.285268	0.218401
C110	C	0.451142	-0.035268	0.468401
C111	C	0.701142	0.214732	0.718401
C112	C	0.951142	0.464732	0.968401
C113	C	0.228475	-0.251881	0.251905
C114	C	0.478475	-0.001881	0.501905
C115	C	0.728475	0.248119	0.751905
C116	C	0.978475	0.498119	1.001905
C117	C	0.228540	-0.185109	0.318909
C118	C	0.478540	0.064891	0.568909
C119	C	0.728540	0.314891	0.818909
C120	C	0.978540	0.564891	1.068909
C121	C	0.283140	-0.185111	0.318907
C122	C	0.533140	0.064889	0.568907
C123	C	0.783140	0.314889	0.818907
C124	C	1.033140	0.564889	1.068907
C125	C	0.310408	-0.218497	0.285403
C126	C	0.560408	0.031503	0.535403
C127	C	0.810408	0.281503	0.785403
C128	C	1.060408	0.531503	1.035403
C129	C	0.283076	-0.251882	0.251903
C130	C	0.533076	-0.001882	0.501903
C131	C	0.783076	0.248118	0.751903
C132	C	1.033076	0.498118	1.001903
C133	C	0.228413	-0.318653	0.184892
C134	C	0.478413	-0.068653	0.434892
C135	C	0.728413	0.181347	0.684892
C136	C	0.978413	0.431347	0.934892
C137	C	0.283020	-0.318647	0.184889
C138	C	0.533020	-0.068647	0.434889
C139	C	0.783020	0.181353	0.684889
C140	C	1.033020	0.431353	0.934889
C141	C	0.310353	-0.285260	0.218393
C142	C	0.560353	-0.035260	0.468393
C143	C	0.810353	0.214740	0.718393
C144	C	1.060353	0.464740	0.968393
C145	C	0.364944	-0.285270	0.218396
C146	C	0.614944	-0.035270	0.468396
C147	C	0.864944	0.214730	0.718396
C148	C	1.114944	0.464730	0.968396
N149	N	0.392279	-0.251881	0.251894
N150	N	0.642279	-0.001881	0.501894
N151	N	0.892279	0.248119	0.751894
N152	N	1.142279	0.498119	1.001894
C153	C	0.365011	-0.218494	0.285398
C154	C	0.615011	0.031506	0.535398
C155	C	0.865011	0.281506	0.785398
C156	C	1.115011	0.531506	1.035398
C157	C	0.031869	-0.285273	0.218420
C158	C	0.281869	-0.035273	0.468420
C159	C	0.531869	0.214727	0.718420
C160	C	0.781869	0.464727	0.968420
C161	C	-0.022734	-0.285279	0.218428
C162	C	0.227266	-0.035279	0.468428
C163	C	0.477266	0.214721	0.718428
C164	C	0.727266	0.464721	0.968428
C165	C	-0.022667	-0.218501	0.285432
C166	C	0.227333	0.031499	0.535432
C167	C	0.477333	0.281499	0.785432
C168	C	0.727333	0.531499	1.035432
C169	C	0.031937	-0.218498	0.285427
C170	C	0.281937	0.031502	0.535427
C171	C	0.531937	0.281502	0.785427
C172	C	0.781937	0.531502	1.035427
C173	C	0.059204	-0.251884	0.251918
C174	C	0.309204	-0.001884	0.501918
C175	C	0.559204	0.248116	0.751918
C176	C	0.809204	0.498116	1.001918
C177	C	0.479676	-0.218500	0.285390
C178	C	0.729676	0.031500	0.535390
C179	C	0.979676	0.281500	0.785390
C180	C	1.229676	0.531500	1.035390
C181	C	0.534282	-0.218506	0.285386
C182	C	0.784282	0.031494	0.535386
C183	C	1.034282	0.281494	0.785386
C184	C	1.284282	0.531494	1.035386
C185	C	0.534210	-0.285281	0.218380
C186	C	0.784210	-0.035281	0.468380
C187	C	1.034210	0.214719	0.718380
C188	C	1.284210	0.464719	0.968380
C189	C	0.479609	-0.285278	0.218385
C190	C	0.729609	-0.035278	0.468385
C191	C	0.979609	0.214722	0.718385
C192	C	1.229609	0.464722	0.968385
C193	C	0.452344	-0.251883	0.251892
C194	C	0.702344	-0.001883	0.501892
C195	C	0.952344	0.248117	0.751892
C196	C	1.202344	0.498117	1.001892
O197	O	0.393198	-0.313659	0.189930
O198	O	0.643198	-0.063659	0.439930
O199	O	0.893198	0.186341	0.689930
O200	O	1.143198	0.436341	0.939930
O201	O	0.393283	-0.190095	0.313881
O202	O	0.643283	0.059905	0.563881
O203	O	0.893283	0.309905	0.813881
O204	O	1.143283	0.559905	1.063881
C205	C	0.788967	-0.806164	0.285405
C206	C	1.038967	-0.556164	0.535405
C207	C	1.288967	-0.306164	0.785405
C208	C	1.538967	-0.056164	1.035405
C209	C	0.788983	-0.860769	0.285416
C210	C	1.038983	-0.610769	0.535416
C211	C	1.288983	-0.360769	0.785416
C212	C	1.538983	-0.110769	1.035416
O213	O	0.817394	-0.888972	0.313897
O214	O	1.067394	-0.638972	0.563897
O215	O	1.317394	-0.388972	0.813897
O216	O	1.567394	-0.138972	1.063897
N217	N	0.755579	-0.888124	0.251950
N218	N	1.005579	-0.638124	0.501950
N219	N	1.255579	-0.388124	0.751950
N220	N	1.505579	-0.138124	1.001950
C221	C	0.722154	-0.860871	0.218475
C222	C	0.972154	-0.610871	0.468475
C223	C	1.222154	-0.360871	0.718475
C224	C	1.472154	-0.110871	0.968475
O225	O	0.693742	-0.889153	0.190011
O226	O	0.943742	-0.639153	0.440011
O227	O	1.193742	-0.389153	0.690011
O228	O	1.443742	-0.139153	0.940011
C229	C	0.722136	-0.806268	0.218467
C230	C	0.972136	-0.556268	0.468467
C231	C	1.222136	-0.306268	0.718467
C232	C	1.472136	-0.056268	0.968467
C233	C	0.755546	-0.778916	0.251932
C234	C	1.005546	-0.528916	0.501932
C235	C	1.255546	-0.278916	0.751932
C236	C	1.505546	-0.028916	1.001932
C237	C	0.822374	-0.778812	0.318867
C238	C	1.072374	-0.528812	0.568867
C239	C	1.322374	-0.278812	0.818867
C240	C	1.572374	-0.028812	1.068867
C241	C	0.822359	-0.724212	0.318856
C242	C	1.072359	-0.474212	0.568856
C243	C	1.322359	-0.224212	0.818856
C244	C	1.572359	0.025788	1.068856
C245	C	0.788938	-0.696963	0.285383
C246	C	1.038938	-0.446963	0.535383
C247	C	1.288938	-0.196963	0.785383
C248	C	1.538938	0.053037	1.035383
C249	C	0.755531	-0.724315	0.251920
C250	C	1.005531	-0.474315	0.501920
C251	C	1.255531	-0.224315	0.751920
C252	C	1.505531	0.025685	1.001920
C253	C	0.688708	-0.779017	0.184996
C254	C	0.938708	-0.529017	0.434996
C255	C	1.188708	-0.279017	0.684996
C256	C	1.438708	-0.029017	0.934996
C257	C	0.688693	-0.724410	0.184991
C258	C	0.938693	-0.474410	0.434991
C259	C	1.188693	-0.224410	0.684991
C260	C	1.438693	0.025590	0.934991
C261	C	0.722103	-0.697058	0.218455
C262	C	0.972103	-0.447058	0.468455
C263	C	1.222103	-0.197058	0.718455
C264	C	1.472103	0.052942	0.968455
C265	C	0.722095	-0.642466	0.218435
C266	C	0.972095	-0.392466	0.468435
C267	C	1.222095	-0.142466	0.718435
C268	C	1.472095	0.107534	0.968435
N269	N	0.755499	-0.615112	0.251901
N270	N	1.005499	-0.365112	0.501901
N271	N	1.255499	-0.115112	0.751901
N272	N	1.505499	0.134888	1.001901
C273	C	0.788920	-0.642360	0.285375
C274	C	1.038920	-0.392360	0.535375
C275	C	1.288920	-0.142360	0.785375
C276	C	1.538920	0.107640	1.035375
C277	C	0.722193	-0.975542	0.218494
C278	C	0.972193	-0.725542	0.468494
C279	C	1.222193	-0.475542	0.718494
C280	C	1.472193	-0.225542	0.968494
C281	C	0.722213	-1.030144	0.218499
C282	C	0.972213	-0.780144	0.468499
C283	C	1.222213	-0.530144	0.718499
C284	C	1.472213	-0.280144	0.968499
C285	C	0.789041	-1.030038	0.285441
C286	C	1.039041	-0.780038	0.535441
C287	C	1.289041	-0.530038	0.785441
C288	C	1.539041	-0.280038	1.035441
C289	C	0.789024	-0.975435	0.285433
C290	C	1.039024	-0.725435	0.535433
C291	C	1.289024	-0.475435	0.785433
C292	C	1.539024	-0.225435	1.035433
C293	C	0.755597	-0.948187	0.251960
C294	C	1.005597	-0.698187	0.501960
C295	C	1.255597	-0.448187	0.751960
C296	C	1.505597	-0.198187	1.001960
C297	C	0.788887	-0.527695	0.285348
C298	C	1.038887	-0.277695	0.535348
C299	C	1.288887	-0.027695	0.785348
C300	C	1.538887	0.222305	1.035348
C301	C	0.788870	-0.473090	0.285332
C302	C	1.038870	-0.223090	0.535332
C303	C	1.288870	0.026910	0.785332
C304	C	1.538870	0.276910	1.035332
C305	C	0.722040	-0.473201	0.218392
C306	C	0.972040	-0.223201	0.468392
C307	C	1.222040	0.026799	0.718392
C308	C	1.472040	0.276799	0.968392
C309	C	0.722058	-0.527801	0.218406
C310	C	0.972058	-0.277801	0.468406
C311	C	1.222058	-0.027801	0.718406
C312	C	1.472058	0.222199	0.968406
C313	C	0.755483	-0.555047	0.251888
C314	C	1.005483	-0.305047	0.501888
C315	C	1.255483	-0.055047	0.751888
C316	C	1.505483	0.194953	1.001888
O317	O	0.693697	-0.614229	0.189971
O318	O	0.943697	-0.364229	0.439971
O319	O	1.193697	-0.114229	0.689971
O320	O	1.443697	0.135771	0.939971
O321	O	0.817322	-0.614072	0.313839
O322	O	1.067322	-0.364072	0.563839
O323	O	1.317322	-0.114072	0.813839
O324	O	1.567322	0.135928	1.063839
C325	C	0.891879	-0.251888	0.251921
C326	C	1.141879	-0.001888	0.501921
C327	C	1.391879	0.248112	0.751921
C328	C	1.641879	0.498112	1.001921
C329	C	0.949993	-0.251890	0.251930
C330	C	1.199993	-0.001890	0.501930
C331	C	1.449993	0.248110	0.751930
C332	C	1.699993	0.498110	1.001930
C333	C	0.755523	-0.251875	0.388273
C334	C	1.005523	-0.001875	0.638273
C335	C	1.255523	0.248125	0.888273
C336	C	1.505523	0.498125	1.138273
C337	C	0.755530	-0.251871	0.446387
C338	C	1.005530	-0.001871	0.696387
C339	C	1.255530	0.248129	0.946387
C340	C	1.505530	0.498129	1.196387
C341	C	0.755595	-0.115511	0.251952
C342	C	1.005595	0.134489	0.501952
C343	C	1.255595	0.384489	0.751952
C344	C	1.505595	0.634489	1.001952
C345	C	0.755633	-0.057397	0.251975
C346	C	1.005633	0.192603	0.501975
C347	C	1.255633	0.442603	0.751975
C348	C	1.505633	0.692603	1.001975
C349	C	0.755520	-0.251856	0.116057
C350	C	1.005520	-0.001856	0.366057
C351	C	1.255520	0.248144	0.616057
C352	C	1.505520	0.498144	0.866057
C353	C	0.755614	-0.251713	0.057943
C354	C	1.005614	-0.001713	0.307943
C355	C	1.255614	0.248287	0.557943
C356	C	1.505614	0.498287	0.807943
C357	C	0.789035	-0.218333	0.806774
C358	C	1.039035	0.031667	1.056774
C359	C	1.289035	0.281667	1.306774
C360	C	1.539035	0.531667	1.556774
C361	C	0.789041	-0.218318	0.861378
C362	C	1.039041	0.031682	1.111378
C363	C	1.289041	0.281682	1.361378
C364	C	1.539041	0.531682	1.611378
O365	O	0.817486	-0.189864	0.889635
O366	O	1.067486	0.060136	1.139635
O367	O	1.317486	0.310136	1.389635
O368	O	1.567486	0.560136	1.639635
N369	N	0.755588	-0.251749	0.888669
N370	N	1.005588	-0.001749	1.138669
N371	N	1.255588	0.248251	1.388669
N372	N	1.505588	0.498251	1.638669
C373	C	0.722122	-0.285192	0.861354
C374	C	0.972122	-0.035192	1.111354
C375	C	1.222122	0.214808	1.361354
C376	C	1.472122	0.464808	1.611354
O377	O	0.693668	-0.313626	0.889581
O378	O	0.943668	-0.063626	1.139581
O379	O	1.193668	0.186374	1.389581
O380	O	1.443668	0.436374	1.639581
C381	C	0.722114	-0.285204	0.806750
C382	C	0.972114	-0.035204	1.056750
C383	C	1.222114	0.214796	1.306750
C384	C	1.472114	0.464796	1.556750
C385	C	0.755573	-0.251775	0.779462
C386	C	1.005573	-0.001775	1.029462
C387	C	1.255573	0.248225	1.279462
C388	C	1.505573	0.498225	1.529462
C389	C	0.822491	-0.184906	0.779485
C390	C	1.072491	0.065094	1.029485
C391	C	1.322491	0.315094	1.279485
C392	C	1.572491	0.565094	1.529485
C393	C	0.822485	-0.184921	0.724884
C394	C	1.072485	0.065079	0.974884
C395	C	1.322485	0.315079	1.224884
C396	C	1.572485	0.565079	1.474884
C397	C	0.789023	-0.218363	0.697572
C398	C	1.039023	0.031637	0.947572
C399	C	1.289023	0.281637	1.197572
C400	C	1.539023	0.531637	1.447572
C401	C	0.755567	-0.251790	0.724861
C402	C	1.005567	-0.001790	0.974861
C403	C	1.255567	0.248210	1.224861
C404	C	1.505567	0.498210	1.474861
C405	C	0.688646	-0.318644	0.779436
C406	C	0.938646	-0.068644	1.029436
C407	C	1.188646	0.181356	1.279436
C408	C	1.438646	0.431356	1.529436
C409	C	0.688640	-0.318653	0.724828
C410	C	0.938640	-0.068653	0.974828
C411	C	1.188640	0.181347	1.224828
C412	C	1.438640	0.431347	1.474828
C413	C	0.722099	-0.285223	0.697540
C414	C	0.972099	-0.035223	0.947540
C415	C	1.222099	0.214777	1.197540
C416	C	1.472099	0.464777	1.447540
C417	C	0.722099	-0.285247	0.642949
C418	C	0.972099	-0.035247	0.892949
C419	C	1.222099	0.214753	1.142949
C420	C	1.472099	0.464753	1.392949
N421	N	0.755552	-0.251817	0.615657
N422	N	1.005552	-0.001817	0.865657
N423	N	1.255552	0.248183	1.115657
N424	N	1.505552	0.498183	1.365657
C425	C	0.789014	-0.218375	0.642969
C426	C	1.039014	0.031625	0.892969
C427	C	1.289014	0.281625	1.142969
C428	C	1.539014	0.531625	1.392969
C429	C	0.722143	-0.285165	0.976024
C430	C	0.972143	-0.035165	1.226024
C431	C	1.222143	0.214835	1.476024
C432	C	1.472143	0.464835	1.726024
C433	C	0.722154	-0.285157	1.030627
C434	C	0.972154	-0.035157	1.280627
C435	C	1.222154	0.214843	1.530627
C436	C	1.472154	0.464843	1.780627
C437	C	0.789072	-0.218282	1.030647
C438	C	1.039072	0.031718	1.280647
C439	C	1.289072	0.281718	1.530647
C440	C	1.539072	0.531718	1.780647
C441	C	0.789063	-0.218293	0.976044
C442	C	1.039063	0.031707	1.226044
C443	C	1.289063	0.281707	1.476044
C444	C	1.539063	0.531707	1.726044
C445	C	0.755596	-0.251735	0.948733
C446	C	1.005596	-0.001735	1.198733
C447	C	1.255596	0.248265	1.448733
C448	C	1.505596	0.498265	1.698733
C449	C	0.789000	-0.218410	0.528304
C450	C	1.039000	0.031590	0.778304
C451	C	1.289000	0.281590	1.028304
C452	C	1.539000	0.531590	1.278304
C453	C	0.788992	-0.218429	0.473699
C454	C	1.038992	0.031571	0.723699
C455	C	1.288992	0.281571	0.973699
C456	C	1.538992	0.531571	1.223699
C457	C	0.722072	-0.285302	0.473683
C458	C	0.972072	-0.035302	0.723683
C459	C	1.222072	0.214698	0.973683
C460	C	1.472072	0.464698	1.223683
C461	C	0.722081	-0.285285	0.528283
C462	C	0.972081	-0.035285	0.778283
C463	C	1.222081	0.214715	1.028283
C464	C	1.472081	0.464715	1.278283
C465	C	0.755547	-0.251834	0.555593
C466	C	1.005547	-0.001834	0.805593
C467	C	1.255547	0.248166	1.055593
C468	C	1.505547	0.498166	1.305593
O469	O	0.693668	-0.313686	0.614657
O470	O	0.943668	-0.063686	0.864657
O471	O	1.193668	0.186314	1.114657
O472	O	1.443668	0.436314	1.364657
O473	O	0.817459	-0.189941	0.614735
O474	O	1.067459	0.060059	0.864735
O475	O	1.317459	0.310059	1.114735
O476	O	1.567459	0.560059	1.364735
H477	H	0.556534	-0.191317	0.312670
H478	H	0.806534	0.058683	0.562670
H479	H	1.056534	0.308683	0.812670
H480	H	1.306534	0.558683	1.062670
Cl481	Cl	0.194066	-0.360618	0.142760
Cl482	Cl	0.444066	-0.110618	0.392760
Cl483	Cl	0.694066	0.139382	0.642760
Cl484	Cl	0.944066	0.389382	0.892760
Cl485	Cl	0.066292	-0.176523	0.327546
Cl486	Cl	0.316292	0.073477	0.577546
Cl487	Cl	0.566292	0.323477	0.827546
Cl488	Cl	0.816292	0.573477	1.077546
Cl489	Cl	0.831126	-0.176266	0.941744
Cl490	Cl	1.081126	0.073734	1.191744
Cl491	Cl	1.331126	0.323734	1.441744
Cl492	Cl	1.581126	0.573734	1.691744
H493	H	0.305218	-0.345834	0.157601
H494	H	0.555218	-0.095834	0.407601
H495	H	0.805218	0.154166	0.657601
H496	H	1.055218	0.404166	0.907601
Cl497	Cl	0.568500	-0.327250	0.176264
Cl498	Cl	0.818500	-0.077250	0.426264
Cl499	Cl	1.068500	0.172750	0.676264
Cl500	Cl	1.318500	0.422750	0.926264
Cl501	Cl	0.680170	-0.941293	0.176406
Cl502	Cl	0.930170	-0.691293	0.426406
Cl503	Cl	1.180170	-0.441293	0.676406
Cl504	Cl	1.430170	-0.191293	0.926406
H505	H	0.816249	-0.191169	0.550533
H506	H	1.066249	0.058831	0.800533
H507	H	1.316249	0.308831	1.050533
H508	H	1.566249	0.558831	1.300533
H509	H	0.816317	-0.191050	1.052894
H510	H	1.066317	0.058950	1.302894
H511	H	1.316317	0.308950	1.552894
H512	H	1.566317	0.558950	1.802894
Cl513	Cl	-0.057088	-0.327258	0.176312
Cl514	Cl	0.192912	-0.077258	0.426312
Cl515	Cl	0.442912	0.172742	0.676312
Cl516	Cl	0.692912	0.422742	0.926312
H517	H	0.694830	-0.312531	0.451436
H518	H	0.944830	-0.062531	0.701436
H519	H	1.194830	0.187469	0.951436
H520	H	1.444830	0.437469	1.201436
Cl521	Cl	0.646668	-0.690159	0.142908
Cl522	Cl	0.896668	-0.440159	0.392908
Cl523	Cl	1.146668	-0.190159	0.642908
Cl524	Cl	1.396668	0.059841	0.892908
Cl525	Cl	-0.056957	-0.176527	0.327549
Cl526	Cl	0.193043	0.073473	0.577549
Cl527	Cl	0.443043	0.323473	0.827549
Cl528	Cl	0.693043	0.573473	1.077549
H529	H	0.054066	-0.312464	0.191135
H530	H	0.304066	-0.062464	0.441135
H531	H	0.554066	0.187536	0.691135
H532	H	0.804066	0.437536	0.941135
Cl533	Cl	0.194270	-0.143133	0.361034
Cl534	Cl	0.444270	0.106867	0.611034
Cl535	Cl	0.694270	0.356867	0.861034
Cl536	Cl	0.944270	0.606867	1.111034
H537	H	0.457483	-0.191305	0.312673
H538	H	0.707483	0.058695	0.562673
H539	H	0.957483	0.308695	0.812673
H540	H	1.207483	0.558695	1.062673
Cl541	Cl	0.445247	-0.327266	0.176281
Cl542	Cl	0.695247	-0.077266	0.426281
Cl543	Cl	0.945247	0.172734	0.676281
Cl544	Cl	1.195247	0.422734	0.926281
Cl545	Cl	0.831057	-1.064303	0.327523
Cl546	Cl	1.081057	-0.814303	0.577523
Cl547	Cl	1.331057	-0.564303	0.827523
Cl548	Cl	1.581057	-0.314303	1.077523
Cl549	Cl	0.864394	-0.813058	0.360956
Cl550	Cl	1.114394	-0.563058	0.610956
Cl551	Cl	1.364394	-0.313058	0.860956
Cl552	Cl	1.614394	-0.063058	1.110956
Cl553	Cl	0.680026	-0.438935	0.176314
Cl554	Cl	0.930026	-0.188935	0.426314
Cl555	Cl	1.180026	0.061065	0.676314
Cl556	Cl	1.430026	0.311065	0.926314
Cl557	Cl	0.680069	-0.327214	0.941696
Cl558	Cl	0.930069	-0.077214	1.191696
Cl559	Cl	1.180069	0.172786	1.441696
Cl560	Cl	1.430069	0.422786	1.691696
H561	H	0.816079	-0.450821	0.312583
H562	H	1.066079	-0.200821	0.562583
H563	H	1.316079	0.049179	0.812583
H564	H	1.566079	0.299179	1.062583
H565	H	0.694857	-0.550072	0.191153
H566	H	0.944857	-0.300072	0.441153
H567	H	1.194857	-0.050072	0.691153
H568	H	1.444857	0.199928	0.941153
H569	H	0.816101	-0.549872	0.312616
H570	H	1.066101	-0.299872	0.562616
H571	H	1.316101	-0.049872	0.812616
H572	H	1.566101	0.200128	1.062616
H573	H	0.661400	-0.345866	0.801645
H574	H	0.911400	-0.095866	1.051645
H575	H	1.161400	0.154134	1.301645
H576	H	1.411400	0.404134	1.551645
Cl577	Cl	0.864358	-0.689835	0.360932
Cl578	Cl	1.114358	-0.439835	0.610932
Cl579	Cl	1.364358	-0.189835	0.860932
Cl580	Cl	1.614358	0.060165	1.110932
Cl581	Cl	0.680097	-0.327192	1.064926
Cl582	Cl	0.930097	-0.077192	1.314926
Cl583	Cl	1.180097	0.172808	1.564926
Cl584	Cl	1.430097	0.422808	1.814926
Cl585	Cl	0.680217	-1.064523	0.176420
Cl586	Cl	0.930217	-0.814523	0.426420
Cl587	Cl	1.180217	-0.564523	0.676420
Cl588	Cl	1.430217	-0.314523	0.926420
Cl589	Cl	0.831025	-0.941055	0.327505
Cl590	Cl	1.081025	-0.691055	0.577505
Cl591	Cl	1.331025	-0.441055	0.827505
Cl592	Cl	1.581025	-0.191055	1.077505
Cl593	Cl	0.646563	-0.360695	0.690498
Cl594	Cl	0.896563	-0.110695	0.940498
Cl595	Cl	1.146563	0.139305	1.190498
Cl596	Cl	1.396563	0.389305	1.440498
Cl597	Cl	0.831059	-0.176402	0.439396
Cl598	Cl	1.081059	0.073598	0.689396
Cl599	Cl	1.331059	0.323598	0.939396
Cl600	Cl	1.581059	0.573598	1.189396
Cl601	Cl	0.317493	-0.143133	0.361026
Cl602	Cl	0.567493	0.106867	0.611026
Cl603	Cl	0.817493	0.356867	0.861026
Cl604	Cl	1.067493	0.606867	1.111026
Cl605	Cl	0.646702	-0.813389	0.142925
Cl606	Cl	0.896702	-0.563389	0.392925
Cl607	Cl	1.146702	-0.313389	0.642925
Cl608	Cl	1.396702	-0.063389	0.892925
Cl609	Cl	0.864547	-0.142890	0.690587
Cl610	Cl	1.114547	0.107110	0.940587
Cl611	Cl	1.364547	0.357110	1.190587
Cl612	Cl	1.614547	0.607110	1.440587
H613	H	0.849740	-0.157671	0.801717
H614	H	1.099740	0.092329	1.051717
H615	H	1.349740	0.342329	1.301717
H616	H	1.599740	0.592329	1.551717
H617	H	0.694841	-0.312510	0.550503
H618	H	0.944841	-0.062510	0.800503
H619	H	1.194841	0.187490	1.050503
H620	H	1.444841	0.437490	1.300503
