data_functionalizedCrystal
_audit_creation_method	'MofGen! by Chris Wilmer'
_symmetry_space_group_name_H-M	'P1'
_symmetry_Int_Tables_number	1
_symmetry_cell_setting	triclinic
loop_
_symmetry_equiv_pos_as_xyz
  x,y,z
_cell_length_a	18.215407
_cell_length_b	16.120531
_cell_length_c	18.215399
_cell_angle_alpha	87.133706
_cell_angle_beta	89.980167
_cell_angle_gamma	87.067235
loop_
_atom_site_label
_atom_site_type_symbol
_atom_site_fract_x
_atom_site_fract_y
_atom_site_fract_z
Zn1	Zn	1.110178	0.331906	-0.430942
Zn2	Zn	1.610178	0.831906	0.069058
Zn3	Zn	1.103830	0.471328	-0.314104
Zn4	Zn	1.603830	0.971328	0.185896
Zn5	Zn	0.987109	0.331934	-0.307891
Zn6	Zn	1.487109	0.831934	0.192109
Zn7	Zn	0.980822	0.471282	-0.437126
Zn8	Zn	1.480822	0.971282	0.062874
O9	O	1.045485	0.401612	-0.372516
O10	O	1.545485	0.901612	0.127484
O11	O	1.212320	0.350409	-0.415455
O12	O	1.712320	0.850409	0.084545
O13	O	1.088321	0.452868	-0.210296
O14	O	1.588321	0.952868	0.289704
O15	O	1.008722	0.215264	-0.319025
O16	O	1.508722	0.715264	0.180975
O17	O	1.207656	0.452841	-0.329614
O18	O	1.707656	0.952841	0.170386
O19	O	1.099141	0.215244	-0.409431
O20	O	1.599141	0.715244	0.090569
O21	O	1.002567	0.350456	-0.205732
O22	O	1.502567	0.850456	0.294268
O23	O	0.883291	0.350411	-0.325022
O24	O	1.383291	0.850411	0.174978
O25	O	0.998007	0.452762	-0.539289
O26	O	1.498007	0.952762	-0.039289
O27	O	0.878672	0.452789	-0.419971
O28	O	1.378672	0.952789	0.080029
O29	O	1.093044	0.350364	-0.534745
O30	O	1.593044	0.850364	-0.034745
O31	O	1.082225	0.587988	-0.335611
O32	O	1.582225	1.087988	0.164389
O33	O	0.991851	0.587954	-0.425996
O34	O	1.491851	1.087954	0.074004
C35	C	0.854279	0.401598	-0.372494
C36	C	1.354279	0.901598	0.127506
C37	C	0.772480	0.401612	-0.372503
C38	C	1.272480	0.901612	0.127497
C39	C	0.581896	0.455004	-0.421888
C40	C	1.081896	0.955004	0.078112
C41	C	0.505037	0.455007	-0.421897
C42	C	1.005037	0.955007	0.078103
C43	C	0.509825	0.348236	-0.323160
C44	C	1.009825	0.848236	0.176840
C45	C	0.586683	0.348229	-0.323155
C46	C	1.086683	0.848229	0.176845
C47	C	0.622716	0.401619	-0.372518
C48	C	1.122716	0.901619	0.127482
C49	C	0.468999	0.401627	-0.372532
C50	C	0.968999	0.901627	0.127468
C51	C	0.385666	0.401630	-0.372542
C52	C	0.885666	0.901630	0.127458
C53	C	0.706055	0.401615	-0.372509
C54	C	1.206055	0.901615	0.127491
C55	C	1.035687	0.618221	-0.382165
C56	C	1.535687	1.118221	0.117835
C57	C	1.031563	0.710887	-0.386317
C58	C	1.531563	1.210887	0.113683
C59	C	1.024037	0.880549	-0.393914
C60	C	1.524037	1.380549	0.106086
C61	C	1.066960	0.921836	-0.351076
C62	C	1.566960	1.421836	0.148924
C63	C	1.062773	1.016241	-0.355303
C64	C	1.562773	1.516241	0.144697
C65	C	1.028223	0.786135	-0.389688
C66	C	1.528223	1.286135	0.110312
C67	C	1.237437	0.401627	-0.372538
C68	C	1.737437	0.901627	0.127462
C69	C	1.319236	0.401634	-0.372547
C70	C	1.819236	0.901634	0.127453
C71	C	1.045532	0.401555	-0.564466
C72	C	1.545532	0.901555	-0.064466
C73	C	1.045552	0.401531	-0.646264
C74	C	1.545552	0.901531	-0.146264
C75	C	1.055315	1.184158	-0.362831
C76	C	1.555315	1.684158	0.137169
C77	C	1.059437	1.091492	-0.358670
C78	C	1.559437	1.591492	0.141330
C79	C	1.095057	0.348162	-0.832091
C80	C	1.595057	0.848162	-0.332091
C81	C	1.095067	0.348138	-0.908949
C82	C	1.595067	0.848138	-0.408949
C83	C	0.996105	0.454770	-0.913669
C84	C	1.496105	0.954770	-0.413669
C85	C	0.996092	0.454790	-0.836813
C86	C	1.496092	0.954790	-0.336813
C87	C	1.045573	0.401487	-0.796026
C88	C	1.545573	0.901487	-0.296026
C89	C	1.045595	0.401443	-0.949740
C90	C	1.545595	0.901443	-0.449740
C91	C	1.045606	0.401417	-1.033072
C92	C	1.545606	0.901417	-0.533072
C93	C	1.045562	0.401511	-0.712688
C94	C	1.545562	0.901511	-0.212688
C95	C	1.045483	0.401610	-0.181309
C96	C	1.545483	0.901610	0.318691
C97	C	1.045616	0.401399	-0.099501
C98	C	1.545616	0.901399	0.400499
H99	H	0.619919	0.304751	-0.282952
H100	H	1.119919	0.804751	0.217048
H101	H	1.106852	0.886281	-0.311226
H102	H	1.606852	1.386281	0.188774
N103	N	0.974001	0.925156	-0.443900
N104	N	1.474001	1.425156	0.056100
N105	N	0.970631	1.002895	-0.447301
N106	N	1.470631	1.502895	0.052699
H107	H	0.935292	1.034409	-0.482602
H108	H	1.435292	1.534409	0.017398
H109	H	1.135346	0.304757	-0.798884
H110	H	1.635346	0.804757	-0.298884
N111	N	0.618692	0.509544	-0.472312
N112	N	1.118692	1.009544	0.027688
N113	N	0.582233	0.557206	-0.516388
N114	N	1.082233	1.057206	-0.016388
H115	H	0.608218	0.595726	-0.552003
H116	H	1.108218	1.095726	-0.052003
N117	N	1.145616	0.293658	-0.945777
N118	N	1.645616	0.793658	-0.445777
N119	N	1.189785	0.246069	-0.909348
N120	N	1.689785	0.746069	-0.409348
H121	H	1.225487	0.207589	-0.935356
H122	H	1.725487	0.707589	-0.435356
N123	N	0.945569	0.509209	-0.955344
N124	N	1.445569	1.009209	-0.455344
N125	N	0.945587	0.509186	-1.023965
N126	N	1.445587	1.009186	-0.523965
H127	H	0.909895	0.547635	-1.053399
H128	H	1.409895	1.047635	-0.553399
H129	H	0.955791	0.498213	-0.807447
H130	H	1.455791	0.998213	-0.307447
H131	H	0.480477	0.304769	-0.282970
H132	H	0.980477	0.804769	0.217030
N133	N	0.463352	0.509540	-0.472335
N134	N	0.963352	1.009540	0.027665
N135	N	0.495537	0.557198	-0.516405
N136	N	0.995537	1.057198	-0.016405
H137	H	0.466098	0.595714	-0.552032
H138	H	0.966098	1.095714	-0.052032
