data_functionalizedCrystal
_audit_creation_method	'MofGen! by Chris Wilmer'
_symmetry_space_group_name_H-M	'P1'
_symmetry_Int_Tables_number	1
_symmetry_cell_setting	triclinic
loop_
_symmetry_equiv_pos_as_xyz
  x,y,z
_cell_length_a	19.188930
_cell_length_b	23.532407
_cell_length_c	18.266242
_cell_angle_alpha	89.988983
_cell_angle_beta	89.977082
_cell_angle_gamma	82.996728
loop_
_atom_site_label
_atom_site_type_symbol
_atom_site_fract_x
_atom_site_fract_y
_atom_site_fract_z
O1	O	0.925922	0.071102	-0.061124
O2	O	1.425922	0.571102	0.438876
O3	O	0.722581	0.080673	-0.061074
O4	O	1.222581	0.580673	0.438926
O5	O	0.830383	-0.007031	-0.061087
O6	O	1.330383	0.492969	0.438913
O7	O	0.818120	0.158806	-0.061111
O8	O	1.318120	0.658806	0.438889
O9	O	0.830365	-0.007035	0.060675
O10	O	1.330365	0.492965	0.560675
O11	O	0.722562	0.080669	0.060688
O12	O	1.222562	0.580669	0.560688
O13	O	0.925904	0.071097	0.060638
O14	O	1.425904	0.571097	0.560638
Zn15	Zn	0.824230	0.075882	0.079995
Zn16	Zn	1.324230	0.575882	0.579995
Zn17	Zn	0.824254	0.075888	-0.080431
Zn18	Zn	1.324254	0.575888	0.419569
O19	O	0.818102	0.158802	0.060651
O20	O	1.318102	0.658802	0.560651
C21	C	0.696561	0.080361	-0.000187
C22	C	1.196561	0.580361	0.499813
C23	C	0.619060	0.079431	-0.000168
C24	C	1.119060	0.579431	0.499832
C25	C	0.573972	0.130893	-0.000187
C26	C	1.073972	0.630893	0.499813
C27	C	0.501151	0.130019	-0.000194
C28	C	1.001151	0.630019	0.499806
C29	C	0.473421	0.077680	-0.000198
C30	C	0.973421	0.577680	0.499802
C31	C	0.518519	0.026211	-0.000175
C32	C	1.018519	0.526211	0.499825
C33	C	0.591339	0.027086	-0.000160
C34	C	1.091339	0.527086	0.499840
N35	N	0.365575	0.037674	-0.041663
N36	N	0.865575	0.537674	0.458337
N37	N	0.296399	0.036846	-0.041679
N38	N	0.796399	0.536846	0.458321
C39	C	0.254021	0.075038	-0.000243
C40	C	0.754021	0.575038	0.499757
N41	N	0.283431	0.114099	0.041201
N42	N	0.783431	0.614099	0.541201
N43	N	0.352613	0.114929	0.041214
N44	N	0.852613	0.614929	0.541214
C45	C	0.394462	0.076724	-0.000214
C46	C	0.894462	0.576724	0.499786
C47	C	0.129971	0.125556	-0.000269
C48	C	0.629971	0.625556	0.499731
C49	C	0.057149	0.124680	-0.000272
C50	C	0.557149	0.624680	0.499728
C51	C	0.074520	0.020870	-0.000260
C52	C	0.574520	0.520870	0.499740
C53	C	0.147340	0.021748	-0.000250
C54	C	0.647340	0.521748	0.499750
C55	C	0.175061	0.074092	-0.000257
C56	C	0.675061	0.574092	0.499743
C57	C	0.830062	-0.028250	-0.000204
C58	C	1.330062	0.471750	0.499796
C59	C	0.829123	-0.091469	-0.000198
C60	C	1.329123	0.408531	0.499802
C61	C	0.887029	-0.490449	-0.000252
C62	C	1.387029	0.009551	0.499748
C63	C	0.886157	-0.549851	-0.000258
C64	C	1.386157	-0.049851	0.499742
O65	O	0.939837	-0.586482	-0.000298
O66	O	1.439837	-0.086482	0.499702
N67	N	0.822068	-0.572613	-0.000242
N68	N	1.322068	-0.072613	0.499758
C69	C	0.758848	-0.535970	-0.000228
C70	C	1.258848	-0.035970	0.499772
O71	O	0.704255	-0.560786	-0.000215
O72	O	1.204255	-0.060786	0.499785
C73	C	0.759721	-0.476569	-0.000228
C74	C	1.259721	0.023431	0.499772
C75	C	0.823814	-0.453810	-0.000236
C76	C	1.323814	0.046190	0.499764
C77	C	0.951117	-0.467690	-0.000262
C78	C	1.451117	0.032310	0.499738
C79	C	0.951989	-0.408292	-0.000255
C80	C	1.451989	0.091708	0.499745
C81	C	0.888773	-0.371653	-0.000239
C82	C	1.388773	0.128347	0.499761
C83	C	0.824685	-0.394412	-0.000230
C84	C	1.324685	0.105588	0.499770
C85	C	0.696501	-0.439927	-0.000219
C86	C	1.196501	0.060073	0.499781
C87	C	0.697379	-0.380523	-0.000219
C88	C	1.197379	0.119477	0.499781
C89	C	0.761472	-0.357764	-0.000228
C90	C	1.261472	0.142236	0.499772
C91	C	0.762342	-0.298376	-0.000207
C92	C	1.262342	0.201624	0.499793
N93	N	0.826430	-0.275614	-0.000223
N94	N	1.326430	0.224386	0.499777
C95	C	0.889646	-0.312252	-0.000239
C96	C	1.389646	0.187748	0.499761
C97	C	0.757019	-0.660717	-0.000229
C98	C	1.257019	-0.160717	0.499771
C99	C	0.756146	-0.720116	-0.000224
C100	C	1.256146	-0.220116	0.499776
C101	C	0.883455	-0.733993	-0.000256
C102	C	1.383455	-0.233993	0.499744
C103	C	0.884328	-0.674592	-0.000255
C104	C	1.384328	-0.174592	0.499745
C105	C	0.821108	-0.637954	-0.000245
C106	C	1.321108	-0.137954	0.499755
C107	C	0.891472	-0.187512	-0.000224
C108	C	1.391472	0.312488	0.499776
C109	C	0.892339	-0.128108	-0.000214
C110	C	1.392339	0.371892	0.499786
C111	C	0.765029	-0.114236	-0.000187
C112	C	1.265029	0.385764	0.499813
C113	C	0.764163	-0.173634	-0.000193
C114	C	1.264163	0.326366	0.499807
C115	C	0.827390	-0.210272	-0.000214
C116	C	1.327390	0.289728	0.499786
O117	O	0.708690	-0.261710	-0.000170
O118	O	1.208690	0.238290	0.499830
O119	O	0.944230	-0.287428	-0.000261
O120	O	1.444230	0.212572	0.499739
C121	C	0.951923	0.071410	-0.000251
C122	C	1.451923	0.571410	0.499749
C123	C	1.029425	0.072340	-0.000275
C124	C	1.529425	0.572340	0.499725
C125	C	0.818423	0.180021	-0.000234
C126	C	1.318423	0.680021	0.499766
C127	C	0.819362	0.243240	-0.000244
C128	C	1.319362	0.743240	0.499756
N129	N	0.824219	0.075878	0.189482
N130	N	1.324219	0.575878	0.689482
N131	N	0.824271	0.075888	-0.189918
N132	N	1.324271	0.575888	0.310082
C133	C	0.871970	0.037062	0.227785
C134	C	1.371970	0.537062	0.727785
C135	C	0.871974	0.037059	0.304430
C136	C	1.371974	0.537059	0.804430
C137	C	0.824235	0.075883	0.342769
C138	C	1.324235	0.575883	0.842769
C139	C	0.776475	0.114702	0.304457
C140	C	1.276475	0.614702	0.804457
C141	C	0.776468	0.114700	0.227813
C142	C	1.276468	0.614700	0.727813
N143	N	0.814998	0.126298	0.463096
N144	N	1.314998	0.626298	0.963096
N145	N	0.815010	0.126298	0.535904
N146	N	1.315010	0.626298	1.035904
C147	C	0.824254	0.075891	0.573691
C148	C	1.324254	0.575891	1.073691
N149	N	0.833500	0.025481	0.535921
N150	N	1.333500	0.525481	1.035921
N151	N	0.833492	0.025482	0.463106
N152	N	1.333492	0.525482	0.963106
C153	C	0.824238	0.075889	0.425876
C154	C	1.324238	0.575889	0.925876
C155	C	0.872012	0.037068	0.695102
C156	C	1.372012	0.537068	1.195102
C157	C	0.872012	0.037065	0.771748
C158	C	1.372012	0.537065	1.271748
C159	C	0.776516	0.114713	0.771773
C160	C	1.276516	0.614713	1.271773
C161	C	0.776513	0.114711	0.695128
C162	C	1.276513	0.614711	1.195128
C163	C	0.824265	0.075890	0.656797
C164	C	1.324265	0.575890	1.156797
H165	H	0.051943	-0.021745	-0.000309
H166	H	0.551943	0.478255	0.499691
H167	H	0.713561	-0.084394	-0.000171
H168	H	1.213561	0.415606	0.499829
O169	O	0.730074	0.152338	0.341777
O170	O	1.230074	0.652338	0.841777
C171	C	0.687211	0.121924	0.386132
C172	C	1.187211	0.621924	0.886132
H173	H	0.715333	0.077303	0.397611
H174	H	1.215333	0.577303	0.897611
H175	H	0.676007	0.145719	0.440026
H176	H	1.176007	0.645719	0.940026
H177	H	0.635635	0.118156	0.356625
H178	H	1.135635	0.618156	0.856625
H179	H	0.705535	-0.630888	-0.000215
H180	H	1.205535	-0.130888	0.499785
O181	O	0.191043	-0.028295	-0.000272
O182	O	0.691043	0.471705	0.499728
C183	C	0.150957	-0.074680	-0.000258
C184	C	0.650957	0.425320	0.499742
H185	H	0.096515	-0.060088	-0.023322
H186	H	0.596515	0.439912	0.476678
H187	H	0.178090	-0.110726	-0.035600
H188	H	0.678090	0.389274	0.464400
H189	H	0.145850	-0.090735	0.058158
H190	H	0.645850	0.409265	0.558158
O191	O	0.693904	-0.742248	-0.000080
O192	O	1.193904	-0.242248	0.499920
C193	C	0.689581	-0.776217	0.062969
C194	C	1.189581	-0.276217	0.562969
H195	H	0.725961	-0.762267	0.107041
H196	H	1.225961	-0.262267	0.607041
H197	H	0.633270	-0.770752	0.084148
H198	H	1.133270	-0.270752	0.584148
H199	H	0.706018	-0.823098	0.048702
H200	H	1.206018	-0.323098	0.548702
O201	O	0.634179	-0.461930	-0.000247
O202	O	1.134179	0.038070	0.499753
C203	C	0.578580	-0.416844	-0.000219
C204	C	1.078580	0.083156	0.499781
H205	H	0.597880	-0.376536	-0.023269
H206	H	1.097880	0.123464	0.476731
H207	H	0.533814	-0.429138	-0.035566
H208	H	1.033814	0.070862	0.464434
H209	H	0.559087	-0.408400	0.058199
H210	H	1.059087	0.091600	0.558199
H211	H	0.737582	0.146309	0.196626
H212	H	1.237582	0.646309	0.696626
O213	O	0.918417	-0.000700	0.657975
O214	O	1.418417	0.499300	1.157975
C215	C	0.960572	-0.034958	0.708223
C216	C	1.460572	0.465042	1.208223
H217	H	0.931956	-0.035543	0.762871
H218	H	1.431956	0.464457	1.262871
H219	H	0.971539	-0.080462	0.686084
H220	H	1.471539	0.419538	1.186084
H221	H	1.012308	-0.016571	0.716344
H222	H	1.512308	0.483429	1.216344
O223	O	0.635240	-0.022854	-0.000116
O224	O	1.135240	0.477146	0.499884
C225	C	0.705457	-0.010857	-0.000126
C226	C	1.205457	0.489143	0.499874
H227	H	0.707927	0.033867	0.022923
H228	H	1.207927	0.533867	0.522923
H229	H	0.738663	-0.043673	0.035231
H230	H	1.238663	0.456327	0.535231
H231	H	0.726562	-0.013065	-0.058539
H232	H	1.226562	0.486935	0.441461
O233	O	0.918304	-0.000701	0.808990
O234	O	1.418304	0.499299	1.308990
C235	C	0.881169	-0.035756	0.853365
C236	C	1.381169	0.464244	1.353365
H237	H	0.826115	-0.036612	0.830296
H238	H	1.326115	0.463388	1.330296
H239	H	0.909977	-0.081079	0.854230
H240	H	1.409977	0.418921	1.354230
H241	H	0.877388	-0.017926	0.911449
H242	H	1.377388	0.482074	1.411449
H243	H	0.944533	-0.109581	-0.000220
H244	H	1.444533	0.390419	0.499780
H245	H	0.464433	0.171927	-0.000208
H246	H	0.964433	0.671927	0.499792
H247	H	1.002598	-0.497516	-0.000278
H248	H	1.502598	0.002484	0.499722
H249	H	0.645897	-0.350694	-0.000212
H250	H	1.145897	0.149306	0.499788
O251	O	0.918279	-0.000806	0.190696
O252	O	1.418279	0.499194	0.690696
C253	C	0.907215	-0.057101	0.209625
C254	C	1.407215	0.442899	0.709625
H255	H	0.851282	-0.057162	0.230654
H256	H	1.351282	0.442838	0.730654
H257	H	0.915468	-0.085808	0.159326
H258	H	1.415468	0.414192	0.659326
H259	H	0.945948	-0.073855	0.254200
H260	H	1.445948	0.426145	0.754200
H261	H	0.737643	0.146322	0.802988
H262	H	1.237643	0.646322	1.302988
H263	H	0.936518	-0.656067	-0.000263
H264	H	1.436518	-0.156067	0.499737
H265	H	0.495937	-0.016404	-0.000188
H266	H	0.995937	0.483596	0.499812
O267	O	0.918266	-0.000703	0.341685
O268	O	1.418266	0.499297	0.841685
C269	C	0.881128	-0.035752	0.386066
C270	C	1.381128	0.464248	0.886066
H271	H	0.826075	-0.036611	0.362994
H272	H	1.326075	0.463389	0.862994
H273	H	0.909936	-0.081075	0.386944
H274	H	1.409936	0.418925	0.886944
H275	H	0.877342	-0.017912	0.444146
H276	H	1.377342	0.482088	0.944146
O277	O	0.730202	0.152503	0.657951
O278	O	1.230202	0.652503	1.157951
C279	C	0.741150	0.208857	0.676673
C280	C	1.241150	0.708857	1.176673
H281	H	0.797048	0.209021	0.697712
H282	H	1.297048	0.709021	1.197712
H283	H	0.732914	0.237456	0.626266
H284	H	1.232914	0.737456	1.126266
H285	H	0.702340	0.225663	0.721178
H286	H	1.202340	0.725663	1.221178
O287	O	0.600783	0.181788	-0.000154
O288	O	1.100783	0.681788	0.499846
C289	C	0.545365	0.227023	-0.000189
C290	C	1.045365	0.727023	0.499811
H291	H	0.495989	0.211181	0.022851
H292	H	0.995989	0.711181	0.522851
H293	H	0.560308	0.263576	0.035162
H294	H	1.060308	0.763576	0.535162
H295	H	0.534985	0.242891	-0.058609
H296	H	1.034985	0.742891	0.441391
H297	H	0.152543	0.168178	-0.000265
H298	H	0.652543	0.668178	0.499735
O299	O	0.013447	0.174725	-0.000321
O300	O	0.513447	0.674725	0.499679
C301	C	0.053534	0.221110	-0.000307
C302	C	0.553534	0.721110	0.499693
H303	H	0.108000	0.206518	-0.023349
H304	H	0.608000	0.706518	0.476651
H305	H	0.026439	0.257157	-0.035669
H306	H	0.526439	0.757157	0.464331
H307	H	0.058579	0.237164	0.058106
H308	H	0.558579	0.737164	0.558106
O309	O	0.701950	-0.195815	-0.000276
O310	O	1.201950	0.304185	0.499724
C311	C	0.697639	-0.229731	-0.063353
C312	C	1.197639	0.270269	0.436647
H313	H	0.752778	-0.244649	-0.084392
H314	H	1.252778	0.255351	0.415608
H315	H	0.670084	-0.268569	-0.049174
H316	H	1.170084	0.231431	0.450826
H317	H	0.666570	-0.203402	-0.107499
H318	H	1.166570	0.296598	0.392501
O319	O	0.952954	-0.223014	-0.000209
O320	O	1.452954	0.276986	0.499791
C321	C	1.009699	-0.190178	-0.000234
C322	C	1.509699	0.309822	0.499766
H323	H	0.991646	-0.145806	0.022824
H324	H	1.491646	0.354194	0.522824
H325	H	1.053963	-0.212194	0.035108
H326	H	1.553963	0.287806	0.535108
H327	H	1.029375	-0.185981	-0.058653
H328	H	1.529375	0.314019	0.441347
H329	H	1.004180	-0.389768	-0.000265
H330	H	1.504180	0.110232	0.499735
H331	H	0.934929	-0.763836	-0.000272
H332	H	1.434929	-0.263836	0.499728
