data_functionalizedCrystal
_audit_creation_method	'MofGen! by Chris Wilmer'
_symmetry_space_group_name_H-M	'P1'
_symmetry_Int_Tables_number	1
_symmetry_cell_setting	triclinic
loop_
_symmetry_equiv_pos_as_xyz
  x,y,z
_cell_length_a	15.995350
_cell_length_b	17.699083
_cell_length_c	16.776229
_cell_angle_alpha	90.005210
_cell_angle_beta	90.000050
_cell_angle_gamma	83.387695
loop_
_atom_site_label
_atom_site_type_symbol
_atom_site_fract_x
_atom_site_fract_y
_atom_site_fract_z
O1	O	-1.110787	-0.097546	0.066222
O2	O	-0.610787	0.402454	0.566222
O3	O	-0.866988	-0.109593	0.066239
O4	O	-0.366988	0.390407	0.566239
O5	O	-0.995776	0.006608	0.066223
O6	O	-0.495776	0.506608	0.566223
O7	O	-0.982000	-0.213747	0.066238
O8	O	-0.482000	0.286253	0.566238
O9	O	-0.995764	0.006588	-0.066353
O10	O	-0.495764	0.506588	0.433647
O11	O	-0.866976	-0.109613	-0.066338
O12	O	-0.366976	0.390387	0.433662
O13	O	-1.110776	-0.097566	-0.066354
O14	O	-0.610776	0.402434	0.433646
Zn15	Zn	-0.988874	-0.103593	-0.087395
Zn16	Zn	-0.488874	0.396407	0.412605
Zn17	Zn	-0.988889	-0.103566	0.087280
Zn18	Zn	-0.488889	0.396434	0.587280
O19	O	-0.981988	-0.213768	-0.066338
O20	O	-0.481988	0.286232	0.433662
C21	C	-0.995276	0.034796	-0.000065
C22	C	-0.495276	0.534796	0.499935
C23	C	-0.993795	0.118816	-0.000065
C24	C	-0.493795	0.618816	0.499935
C25	C	-0.835788	-0.109105	-0.000047
C26	C	-0.335788	0.390895	0.499953
C27	C	-0.742841	-0.107612	-0.000041
C28	C	-0.242841	0.392388	0.499959
C29	C	-1.141975	-0.098054	-0.000066
C30	C	-0.641975	0.401946	0.499934
C31	C	-1.234923	-0.099547	-0.000067
C32	C	-0.734923	0.400453	0.499933
C33	C	-0.405104	-0.102250	-0.000058
C34	C	0.094896	0.397750	0.499942
C35	C	-0.452706	-0.019493	-0.000360
C36	C	0.047294	0.480507	0.499640
C37	C	-0.549394	-0.020987	-0.000055
C38	C	-0.049394	0.479013	0.499945
C39	C	-0.572659	-0.104910	-0.000050
C40	C	-0.072659	0.395090	0.499950
C41	C	-0.531496	-0.145716	0.075657
C42	C	-0.031496	0.354284	0.575657
C43	C	-0.434864	-0.143637	0.075715
C44	C	0.065136	0.356363	0.575715
C45	C	-0.434508	-0.145370	-0.075049
C46	C	0.065492	0.354630	0.424951
C47	C	-0.531454	-0.145351	-0.076044
C48	C	-0.031454	0.354649	0.423956
C49	C	-0.667354	-0.106417	-0.000043
C50	C	-0.167354	0.393583	0.499957
C51	C	-0.310409	-0.100745	-0.000060
C52	C	0.189591	0.399255	0.499940
C53	C	-0.982487	-0.241955	-0.000048
C54	C	-0.482487	0.258045	0.499952
C55	C	-0.983968	-0.325976	-0.000043
C56	C	-0.483968	0.174024	0.499957
N57	N	-0.988869	-0.103611	-0.206607
N58	N	-0.488869	0.396389	0.293393
C59	C	-1.069391	0.167312	-0.000072
C60	C	-0.569391	0.667312	0.499928
C61	C	-1.067994	0.246257	-0.000065
C62	C	-0.567994	0.746257	0.499935
C63	C	-0.991001	0.276706	-0.000057
C64	C	-0.491001	0.776706	0.499943
C65	C	-0.915400	0.228205	-0.000048
C66	C	-0.415400	0.728205	0.499952
C67	C	-0.916797	0.149261	-0.000050
C68	C	-0.416797	0.649261	0.499950
C69	C	-0.909763	0.546577	-0.000041
C70	C	-0.409763	1.046577	0.499959
C71	C	-0.908372	0.625527	-0.000042
C72	C	-0.408372	1.125527	0.499958
C73	C	-1.060960	0.643574	-0.000056
C74	C	-0.560960	1.143574	0.499944
C75	C	-1.062358	0.564630	-0.000058
C76	C	-0.562358	1.064630	0.499942
C77	C	-0.986757	0.516135	-0.000045
C78	C	-0.486757	1.016135	0.499955
C79	C	-0.988272	0.430533	-0.000051
C80	C	-0.488272	0.930533	0.499949
C81	C	-0.989485	0.362306	-0.000056
C82	C	-0.489485	0.862306	0.499944
C83	C	-0.938214	-0.057618	-0.751778
C84	C	-0.438214	0.442382	-0.251778
C85	C	-0.938212	-0.057624	-0.668326
C86	C	-0.438212	0.442376	-0.168326
C87	C	-0.988893	-0.103560	-0.626606
C88	C	-0.488893	0.396440	-0.126606
C89	C	-1.039586	-0.149487	-0.668343
C90	C	-0.539586	0.350513	-0.168343
C91	C	-1.039592	-0.149476	-0.751793
C92	C	-0.539592	0.350524	-0.251793
C93	C	-1.039564	-0.149531	-0.331795
C94	C	-0.539564	0.350469	0.168205
C95	C	-1.039552	-0.149540	-0.248339
C96	C	-0.539552	0.350460	0.251661
C97	C	-0.938184	-0.057679	-0.248328
C98	C	-0.438184	0.442321	0.251672
C99	C	-0.938190	-0.057668	-0.331779
C100	C	-0.438190	0.442332	0.168221
C101	C	-0.988886	-0.103592	-0.373508
C102	C	-0.488886	0.396408	0.126492
C103	C	-0.988888	-0.103583	-0.463996
C104	C	-0.488888	0.396417	0.036004
C105	C	-0.988886	-0.103573	-0.536119
C106	C	-0.488886	0.396427	-0.036119
N107	N	-0.988901	-0.103543	0.206491
N108	N	-0.488901	0.396457	0.706491
H109	H	-0.577883	0.011090	-0.054326
H110	H	-0.077883	0.511090	0.445674
H111	H	-0.852711	0.253002	-0.000037
H112	H	-0.352711	0.753002	0.499963
H113	H	-0.546694	-0.206551	-0.080614
H114	H	-0.046694	0.293449	0.419386
H115	H	-1.080856	-0.186885	-0.634368
H116	H	-0.580856	0.313115	-0.134368
Br117	Br	-0.595915	0.032626	0.090708
Br118	Br	-0.095915	0.532626	0.590708
Br119	Br	-0.869391	0.004681	-0.611694
Br120	Br	-0.369391	0.504681	-0.111694
H121	H	-0.896917	-0.020265	-0.365743
H122	H	-0.396917	0.479735	0.134257
H123	H	-0.896938	-0.020215	-0.785740
H124	H	-0.396938	0.479785	-0.285740
H125	H	-1.080867	-0.186872	-0.785769
H126	H	-0.580867	0.313128	-0.285769
H127	H	-1.129552	0.285740	-0.000071
H128	H	-0.629552	0.785740	0.499929
H129	H	-0.434247	0.013578	-0.054652
H130	H	0.065753	0.513578	0.445348
H131	H	-0.402623	-0.206386	-0.075558
H132	H	0.097377	0.293614	0.424442
H133	H	-0.896907	-0.020284	-0.214342
H134	H	-0.396907	0.479716	0.285658
Br135	Br	-1.108361	-0.211861	-0.388418
Br136	Br	-0.608361	0.288139	0.111582
H137	H	-0.433185	0.013442	0.053630
H138	H	0.066815	0.513442	0.553630
Br139	Br	-0.404453	-0.094011	0.170034
Br140	Br	0.095547	0.405989	0.670034
Br141	Br	-0.380904	-0.244901	0.081447
Br142	Br	0.119096	0.255099	0.581447
Br143	Br	-1.108337	-0.211889	-0.191719
Br144	Br	-0.608337	0.288111	0.308281
H145	H	-0.545496	-0.207372	0.078476
H146	H	-0.045496	0.292628	0.578476
Br147	Br	-0.578889	-0.098452	0.169563
Br148	Br	-0.078889	0.401548	0.669563
H149	H	-0.558826	-0.115562	-0.132052
H150	H	-0.058826	0.384438	0.367948
H151	H	-0.414023	-0.118324	-0.132434
H152	H	0.085977	0.381676	0.367566
Br153	Br	-1.173887	0.125997	-0.000094
Br154	Br	-0.673887	0.625997	0.499906
Br155	Br	-1.166852	0.523310	-0.000068
Br156	Br	-0.666852	1.023310	0.499932
Br157	Br	-1.163564	0.709392	-0.000073
Br158	Br	-0.663564	1.209392	0.499927
H159	H	-0.848204	0.507102	-0.000031
H160	H	-0.348204	1.007102	0.499969
Br161	Br	-0.803874	0.666850	-0.000033
Br162	Br	-0.303874	1.166850	0.499967
Br163	Br	-0.814199	0.083444	-0.000035
Br164	Br	-0.314199	0.583444	0.499965
