data_functionalizedCrystal
_audit_creation_method	'MofGen! by Chris Wilmer'
_symmetry_space_group_name_H-M	'P1'
_symmetry_Int_Tables_number	1
_symmetry_cell_setting	triclinic
loop_
_symmetry_equiv_pos_as_xyz
  x,y,z
_cell_length_a	14.971486
_cell_length_b	17.038272
_cell_length_c	13.448316
_cell_angle_alpha	89.993314
_cell_angle_beta	89.998199
_cell_angle_gamma	87.362843
loop_
_atom_site_label
_atom_site_type_symbol
_atom_site_fract_x
_atom_site_fract_y
_atom_site_fract_z
O1	O	1.194577	0.101898	-0.082578
O2	O	0.935090	0.114100	-0.082605
O3	O	1.063291	-0.005818	-0.082584
O4	O	1.066375	0.221816	-0.082599
O5	O	1.063273	-0.005826	0.082800
O6	O	0.935072	0.114093	0.082779
O7	O	1.194559	0.101890	0.082806
Cu8	Cu	1.064814	0.107991	0.097893
Cu9	Cu	1.064835	0.107999	-0.097692
O10	O	1.066358	0.221809	0.082785
C11	C	0.901716	0.113551	0.000083
C12	C	0.802296	0.111915	0.000073
C13	C	0.750345	0.182364	0.000070
C14	C	0.656930	0.180823	0.000085
C15	C	0.615468	0.108832	0.000096
C16	C	0.667426	0.038378	0.000102
C17	C	0.760839	0.039920	0.000095
C18	C	0.472723	0.035169	0.000116
C19	C	0.379303	0.033626	0.000122
C20	C	0.368815	0.176072	0.000107
C21	C	0.462228	0.177614	0.000099
C22	C	0.514179	0.107159	0.000103
C23	C	1.060477	-0.034954	0.000108
C24	C	1.052107	-0.121756	0.000107
C25	C	1.128951	-0.171781	0.000116
C26	C	1.121081	-0.253341	0.000105
C27	C	1.036367	-0.284874	0.000093
C28	C	0.959518	-0.234843	0.000081
C29	C	0.967388	-0.153285	0.000084
C30	C	1.008563	-0.530664	0.000077
C31	C	1.000698	-0.612229	0.000077
C32	C	1.162262	-0.630721	0.000099
C33	C	1.170125	-0.549161	0.000108
C34	C	1.093276	-0.499137	0.000091
C35	C	1.028321	-0.368241	0.000086
C36	C	1.101323	-0.415771	0.000091
C37	C	1.227933	0.102440	0.000115
C38	C	1.327353	0.104075	0.000119
C39	C	1.069172	0.250944	0.000091
C40	C	1.077542	0.337746	0.000086
N41	N	1.064806	0.107984	0.235458
N42	N	1.064850	0.108000	-0.235257
C43	C	1.121593	0.054906	0.287507
C44	C	1.121599	0.054905	0.391611
C45	C	1.064821	0.107987	0.443662
C46	C	1.008026	0.161068	0.391605
C47	C	1.008017	0.161064	0.287504
C48	C	1.008052	0.161073	0.608585
C49	C	1.008062	0.161078	0.712694
C50	C	1.121634	0.054914	0.712692
C51	C	1.121624	0.054911	0.608591
C52	C	1.064831	0.107992	0.556541
H53	H	0.784097	0.240987	0.000060
C54	C	1.184080	-0.003477	0.551328
C55	C	1.175812	-0.092521	0.565651
C56	C	1.238266	-0.150910	0.508387
C57	C	1.308988	-0.120256	0.436801
C58	C	1.317258	-0.031207	0.422475
C59	C	1.254804	0.027182	0.479739
H60	H	1.123458	-0.115217	0.618646
H61	H	1.232144	-0.216830	0.518993
H62	H	1.355220	-0.163479	0.394411
H63	H	1.369613	-0.008511	0.369480
H64	H	1.260927	0.093102	0.469134
H65	H	0.961801	0.204295	0.566210
C66	C	1.184103	-0.003479	0.769945
C67	C	1.184111	-0.003480	0.884452
C68	C	1.246581	-0.061867	0.941712
C69	C	1.309043	-0.120253	0.884464
C70	C	1.309038	-0.120254	0.769950
C71	C	1.246568	-0.061867	0.712691
H72	H	1.137870	0.039742	0.926837
H73	H	1.246584	-0.061866	1.026483
H74	H	1.355287	-0.163475	0.926851
H75	H	1.355279	-0.163477	0.727566
H76	H	1.246565	-0.061868	0.627920
H77	H	1.167833	0.011684	0.245134
C78	C	0.945598	0.219464	0.769948
C79	C	0.883122	0.277842	0.712692
C80	C	0.820655	0.336229	0.769943
C81	C	0.820666	0.336238	0.884451
C82	C	0.883144	0.277858	0.941713
C83	C	0.945610	0.219471	0.884461
H84	H	0.883112	0.277837	0.627921
H85	H	0.774405	0.379445	0.727553
H86	H	0.774424	0.379460	0.926832
H87	H	0.883154	0.277863	1.026484
H88	H	0.991861	0.176255	0.926851
H89	H	0.633660	-0.020239	0.000126
H90	H	0.959346	-0.393925	0.000078
H91	H	0.614636	0.238189	0.000081
C92	C	1.194506	-0.381087	0.000106
C93	C	1.222110	-0.327567	0.085993
C94	C	1.315294	-0.292874	0.086013
C95	C	1.380874	-0.311701	0.000147
C96	C	1.353271	-0.365223	-0.085746
C97	C	1.260087	-0.399917	-0.085767
H98	H	1.173562	-0.313627	0.149562
H99	H	1.335726	-0.253252	0.149598
H100	H	1.449854	-0.286019	0.000162
H101	H	1.401819	-0.379163	-0.149315
H102	H	1.239655	-0.439538	-0.149351
H103	H	0.803137	-0.017447	0.000097
H104	H	1.167839	0.011685	0.433989
H105	H	0.326511	0.233438	0.000107
C106	C	0.924027	-0.475649	0.000076
C107	C	0.856303	-0.479232	-0.085802
C108	C	0.771761	-0.424213	-0.085798
C109	C	0.754943	-0.365613	0.000084
C110	C	0.822669	-0.362028	0.085969
C111	C	0.907211	-0.417046	0.085964
H112	H	0.868750	-0.522613	-0.149383
H113	H	0.721626	-0.426868	-0.149376
H114	H	0.692360	-0.324885	0.000088
H115	H	0.810221	-0.318646	0.149550
H116	H	0.957346	-0.414392	0.149542
H117	H	0.495983	0.236235	0.000080
H118	H	0.961791	0.204285	0.433991
H119	H	0.345548	-0.024995	0.000133
H120	H	0.515019	-0.022203	0.000121
H121	H	1.197934	-0.146113	0.000132
H122	H	1.183656	-0.294068	0.000115
C123	C	1.263316	-0.514482	0.000115
C124	C	1.290940	-0.460969	0.086000
C125	C	1.384132	-0.426292	0.086012
C126	C	1.449701	-0.445129	0.000138
C127	C	1.422079	-0.498645	-0.085754
C128	C	1.328886	-0.533322	-0.085765
H129	H	1.242400	-0.447022	0.149575
H130	H	1.404580	-0.386676	0.149595
H131	H	1.518688	-0.419460	0.000146
H132	H	1.470618	-0.512592	-0.149328
H133	H	1.308439	-0.572938	-0.149348
H134	H	1.224829	-0.671459	0.000111
H135	H	0.904813	-0.112555	0.000077
H136	H	0.931710	-0.637900	0.000083
H137	H	0.890541	-0.260524	0.000065
H138	H	0.961773	0.204284	0.245126
