data_functionalizedCrystal
_audit_creation_method	'MofGen! by Chris Wilmer'
_symmetry_space_group_name_H-M	'P1'
_symmetry_Int_Tables_number	1
_symmetry_cell_setting	triclinic
loop_
_symmetry_equiv_pos_as_xyz
  x,y,z
_cell_length_a	14.971487
_cell_length_b	12.503572
_cell_length_c	14.044220
_cell_angle_alpha	86.156832
_cell_angle_beta	91.598360
_cell_angle_gamma	86.483614
loop_
_atom_site_label
_atom_site_type_symbol
_atom_site_fract_x
_atom_site_fract_y
_atom_site_fract_z
O1	O	-1.201389	0.089168	0.118070
O2	O	-0.942156	0.089204	0.132861
O3	O	-1.067881	0.089176	-0.012523
O4	O	-1.075664	0.089196	0.263454
O5	O	-1.058427	-0.089464	-0.001571
O6	O	-0.932703	-0.089436	0.143813
O7	O	-1.191935	-0.089472	0.129022
Cu8	Cu	-1.061456	-0.105765	0.137417
Cu9	Cu	-1.072636	0.105497	0.124465
O10	O	-1.066211	-0.089444	0.274406
C11	C	-0.904053	-0.000111	0.137675
C12	C	-0.804600	-0.000098	0.135691
C13	C	-0.754104	-0.000092	0.221101
C14	C	-0.660656	-0.000106	0.219233
C15	C	-0.617708	-0.000118	0.131954
C16	C	-0.668211	-0.000127	0.046538
C17	C	-0.761656	-0.000121	0.048407
C18	C	-0.473441	-0.000137	0.042647
C19	C	-0.379990	-0.000141	0.040777
C20	C	-0.372442	-0.000122	0.213473
C21	C	-0.465887	-0.000116	0.215343
C22	C	-0.516384	-0.000123	0.129926
N23	N	-1.053599	-0.254356	0.146526
C24	C	-1.042041	-0.473468	0.159934
C25	C	-1.092054	-0.526807	0.101944
C26	C	-1.085624	-0.648728	0.109405
C27	C	-1.048471	-0.351535	0.152475
C28	C	-0.230039	-0.000148	0.124207
C29	C	-0.329493	-0.000135	0.126187
C30	C	-1.059748	-0.000144	-0.042365
C31	C	-1.049587	-0.000144	-0.147603
N32	N	-1.080500	0.254088	0.115349
C33	C	-1.031011	-0.000126	-0.340286
C34	C	-1.103077	-0.000133	-0.397837
C35	C	-1.092742	-0.000123	-0.505053
C36	C	-1.041345	-0.000136	-0.233060
C37	C	-1.074344	-0.000122	0.304248
C38	C	-1.084506	-0.000115	0.409485
H39	H	-0.789066	-0.000081	0.292174
H40	H	-0.994398	-0.519365	0.215181
C41	C	-1.156429	-0.464810	0.027310
H42	H	-1.186960	-0.514311	-0.008096
H43	H	-1.198717	-0.420937	0.058763
H44	H	-1.123315	-0.420941	-0.014792
H45	H	-1.172542	-0.000070	-0.366591
H46	H	-0.514553	-0.000145	-0.026908
H47	H	-0.961556	-0.000114	-0.371535
H48	H	-0.802770	-0.000125	-0.021143
C49	C	-0.513129	-0.000105	0.311347
H50	H	-0.469673	-0.000112	0.361951
H51	H	-0.552716	0.062191	0.311846
H52	H	-0.546134	-0.062408	0.319479
C53	C	-0.316899	-0.000117	0.307430
H54	H	-0.255095	-0.000134	0.293820
H55	H	-0.333949	0.062186	0.339391
H56	H	-0.327376	-0.062413	0.347036
C57	C	-0.332747	-0.000161	-0.055227
H58	H	-0.376202	-0.000179	-0.105830
H59	H	-0.299740	0.062133	-0.063368
H60	H	-0.293161	-0.062466	-0.055716
C61	C	-0.620974	-0.000139	-0.049470
H62	H	-0.664434	-0.000151	-0.100069
H63	H	-0.587968	0.062155	-0.057609
H64	H	-0.581389	-0.062445	-0.049969
H65	H	-0.619546	-0.000099	0.288782
