data_functionalizedCrystal
_audit_creation_method	'MofGen! by Chris Wilmer'
_symmetry_space_group_name_H-M	'P1'
_symmetry_Int_Tables_number	1
_symmetry_cell_setting	triclinic
loop_
_symmetry_equiv_pos_as_xyz
  x,y,z
_cell_length_a	14.908571
_cell_length_b	18.050589
_cell_length_c	18.050583
_cell_angle_alpha	89.968090
_cell_angle_beta	86.690916
_cell_angle_gamma	86.724558
loop_
_atom_site_label
_atom_site_type_symbol
_atom_site_fract_x
_atom_site_fract_y
_atom_site_fract_z
Zn1	Zn	1.379121	-0.361211	-0.485330
Zn2	Zn	1.712455	-0.027877	-0.151997
Zn3	Zn	2.045788	0.305456	0.181336
Zn4	Zn	1.379010	-0.485418	-0.361145
Zn5	Zn	1.712343	-0.152085	-0.027811
Zn6	Zn	2.045677	0.181248	0.305522
Zn7	Zn	1.228268	-0.354076	-0.354001
Zn8	Zn	1.561602	-0.020742	-0.020668
Zn9	Zn	1.894935	0.312591	0.312665
Zn10	Zn	1.228208	-0.478184	-0.478142
Zn11	Zn	1.561541	-0.144851	-0.144809
Zn12	Zn	1.894875	0.188482	0.188524
O13	O	1.303652	-0.419722	-0.419655
O14	O	1.636985	-0.086389	-0.086321
O15	O	1.970319	0.246944	0.247012
O16	O	1.505350	-0.383700	-0.474855
O17	O	1.838684	-0.050367	-0.141521
O18	O	2.172017	0.282966	0.191812
O19	O	1.358992	-0.468037	-0.256271
O20	O	1.692326	-0.134704	0.077062
O21	O	2.025659	0.198630	0.410395
O22	O	1.248351	-0.251101	-0.371441
O23	O	1.581684	0.082232	-0.038108
O24	O	1.915018	0.415566	0.295225
O25	O	1.505269	-0.474955	-0.383616
O26	O	1.838602	-0.141622	-0.050282
O27	O	2.171935	0.191712	0.283051
O28	O	1.359182	-0.256343	-0.467928
O29	O	1.692516	0.076990	-0.134595
O30	O	2.025849	0.410324	0.198739
O31	O	1.248243	-0.371540	-0.251023
O32	O	1.581576	-0.038207	0.082310
O33	O	1.914910	0.295126	0.415643
O34	O	1.102017	-0.364526	-0.364471
O35	O	1.435350	-0.031192	-0.031138
O36	O	1.768683	0.302141	0.302195
O37	O	1.248248	-0.462626	-0.583022
O38	O	1.581582	-0.129293	-0.249688
O39	O	1.914915	0.204041	0.083645
O40	O	1.101972	-0.455708	-0.455677
O41	O	1.435306	-0.122374	-0.122344
O42	O	1.768639	0.210959	0.210990
O43	O	1.359124	-0.376686	-0.588303
O44	O	1.692457	-0.043352	-0.254969
O45	O	2.025791	0.289981	0.078364
O46	O	1.358934	-0.588380	-0.376646
O47	O	1.692267	-0.255046	-0.043312
O48	O	2.025601	0.078287	0.290021
O49	O	1.248140	-0.583065	-0.462604
O50	O	1.581474	-0.249732	-0.129270
O51	O	1.914807	0.083602	0.204063
C52	C	1.069261	-0.408558	-0.408519
C53	C	1.402594	-0.075225	-0.075186
C54	C	1.735927	0.258109	0.258147
C55	C	0.968987	-0.403800	-0.403773
C56	C	1.302321	-0.070467	-0.070440
C57	C	1.635654	0.262867	0.262893
C58	C	1.303543	-0.612669	-0.419637
C59	C	1.636876	-0.279336	-0.086304
C60	C	1.970210	0.053997	0.247029
C61	C	1.303579	-0.695217	-0.419658
C62	C	1.636912	-0.361883	-0.086325
C63	C	1.970246	-0.028550	0.247008
C64	C	0.780565	-0.489954	-0.489700
C65	C	1.113898	-0.156621	-0.156367
C66	C	1.447231	0.176713	0.176967
C67	C	0.686349	-0.485486	-0.485243
C68	C	1.019682	-0.152152	-0.151910
C69	C	1.353016	0.181181	0.181423
C70	C	0.686338	-0.390391	-0.390407
C71	C	1.019671	-0.057058	-0.057074
C72	C	1.353004	0.276275	0.276259
C73	C	0.780554	-0.394860	-0.394864
C74	C	1.113887	-0.061526	-0.061531
C75	C	1.447220	0.271807	0.271803
C76	C	0.827664	-0.444644	-0.444511
C77	C	1.160997	-0.111310	-0.111178
C78	C	1.494331	0.222023	0.222155
C79	C	0.921882	-0.449115	-0.448964
C80	C	1.255215	-0.115782	-0.115630
C81	C	1.588548	0.217551	0.217703
C82	C	0.921869	-0.354018	-0.354132
C83	C	1.255202	-0.020684	-0.020799
C84	C	1.588535	0.312649	0.312535
C85	C	0.827653	-0.349549	-0.349675
C86	C	1.160986	-0.016216	-0.016342
C87	C	1.494319	0.317117	0.316991
C88	C	1.243389	-0.891807	-0.466388
C89	C	1.576722	-0.558474	-0.133054
C90	C	1.910055	-0.225140	0.200279
C91	C	1.221402	-0.940211	-0.397578
C92	C	1.554736	-0.606878	-0.064245
C93	C	1.888069	-0.273545	0.269089
C94	C	1.303668	-0.846351	-0.419672
C95	C	1.637001	-0.513018	-0.086339
C96	C	1.970334	-0.179685	0.246994
C97	C	1.325698	-0.945031	-0.488492
C98	C	1.659031	-0.611697	-0.155159
C99	C	1.992365	-0.278364	0.178175
C100	C	1.303752	-0.992340	-0.419692
C101	C	1.637085	-0.659007	-0.086358
C102	C	1.970418	-0.325674	0.246975
C103	C	1.281638	-0.893666	-0.350825
C104	C	1.614972	-0.560333	-0.017491
C105	C	1.948305	-0.227000	0.315842
C106	C	1.385972	-0.898483	-0.441786
C107	C	1.719305	-0.565150	-0.108453
C108	C	2.052639	-0.231816	0.224880
C109	C	1.364017	-0.946867	-0.372931
C110	C	1.697351	-0.613533	-0.039598
C111	C	2.030684	-0.280200	0.293736
C112	C	1.303617	-0.762251	-0.419662
C113	C	1.636950	-0.428917	-0.086329
C114	C	1.970284	-0.095584	0.247005
C115	C	1.303802	-1.076439	-0.419694
C116	C	1.637136	-0.743106	-0.086361
C117	C	1.970469	-0.409773	0.246972
C118	C	1.538958	-0.430930	-0.430834
C119	C	1.872292	-0.097597	-0.097501
C120	C	2.205625	0.235736	0.235833
C121	C	1.639232	-0.435707	-0.435598
C122	C	1.972565	-0.102373	-0.102264
C123	C	2.305899	0.230960	0.231069
C124	C	1.303692	-0.419645	-0.613362
C125	C	1.637025	-0.086311	-0.280029
C126	C	1.970359	0.247022	0.053304
C127	C	1.303709	-0.419612	-0.695909
C128	C	1.637042	-0.086279	-0.362576
C129	C	1.970376	0.247055	-0.029242
C130	C	1.303786	-0.226023	-0.419690
C131	C	1.637119	0.107310	-0.086356
C132	C	1.970453	0.440644	0.246977
C133	C	1.303843	-0.143480	-0.419705
C134	C	1.637176	0.189853	-0.086371
C135	C	1.970510	0.523187	0.246962
C136	C	1.364063	-0.372857	-0.898234
C137	C	1.697397	-0.039523	-0.564901
C138	C	2.030730	0.293810	-0.231568
C139	C	1.281783	-0.350766	-0.943726
C140	C	1.615116	-0.017433	-0.610393
C141	C	1.948450	0.315900	-0.277060
C142	C	1.303745	-0.419601	-0.847041
C143	C	1.637078	-0.086267	-0.513708
C144	C	1.970412	0.247066	-0.180374
C145	C	1.386059	-0.441646	-0.948633
C146	C	1.719392	-0.108312	-0.615299
C147	C	2.052725	0.225021	-0.281966
C148	C	1.303787	-0.419589	-0.993028
C149	C	1.637121	-0.086256	-0.659695
C150	C	1.970454	0.247078	-0.326362
C151	C	1.221421	-0.397473	-0.891444
C152	C	1.554754	-0.064140	-0.558110
C153	C	1.888088	0.269193	-0.224777
C154	C	1.325752	-0.488387	-0.896348
C155	C	1.659085	-0.155054	-0.563015
C156	C	1.992419	0.178280	-0.229682
C157	C	1.243415	-0.466320	-0.941815
C158	C	1.576748	-0.132986	-0.608482
C159	C	1.910082	0.200347	-0.275148
C160	C	1.303722	-0.419606	-0.762942
C161	C	1.637055	-0.086272	-0.429608
C162	C	1.970389	0.247061	-0.096275
C163	C	1.303801	-0.419584	-1.077125
C164	C	1.637134	-0.086251	-0.743792
C165	C	1.970468	0.247083	-0.410459
C166	C	1.303664	-0.419748	-0.226703
C167	C	1.636998	-0.086415	0.106630
C168	C	1.970331	0.246918	0.439964
C169	C	1.303822	-0.419580	-0.144165
C170	C	1.637155	-0.086247	0.189168
C171	C	1.970489	0.247086	0.522501
H172	H	0.960237	-0.489653	-0.489388
H173	H	1.293571	-0.156320	-0.156055
H174	H	1.626904	0.177014	0.177279
H175	H	1.263182	-0.292590	-0.964571
H176	H	1.596515	0.040743	-0.631238
H177	H	1.929849	0.374077	-0.297904
H178	H	0.647964	-0.349855	-0.349992
H179	H	0.981298	-0.016522	-0.016658
H180	H	1.314631	0.316811	0.316675
H181	H	1.344298	-0.967558	-0.546685
H182	H	1.677632	-0.634224	-0.213351
H183	H	2.010965	-0.300891	0.119982
C184	C	1.127430	-0.965152	-0.372313
C185	C	1.460764	-0.631819	-0.038979
C186	C	1.794097	-0.298486	0.294354
H187	H	1.131576	-0.994325	-0.328690
H188	H	1.464910	-0.660992	0.004643
H189	H	1.798243	-0.327658	0.337976
H190	H	1.104810	-0.993767	-0.410484
H191	H	1.438143	-0.660433	-0.077150
H192	H	1.771477	-0.327100	0.256183
H193	H	1.087931	-0.922744	-0.362167
H194	H	1.421264	-0.589410	-0.028834
H195	H	1.754597	-0.256077	0.304500
C196	C	0.775827	-0.294796	-0.295064
C197	C	1.109160	0.038537	0.038269
C198	C	1.442493	0.371871	0.371603
H199	H	0.712969	-0.298627	-0.298877
H200	H	1.046302	0.034706	0.034456
H201	H	1.379636	0.368039	0.367790
H202	H	0.791292	-0.245642	-0.306739
H203	H	1.124625	0.087691	0.026594
H204	H	1.457959	0.421025	0.359928
H205	H	0.791238	-0.306353	-0.245876
H206	H	1.124572	0.026980	0.087457
H207	H	1.457905	0.360314	0.420791
C208	C	1.127381	-0.372182	-0.857810
C209	C	1.460714	-0.038849	-0.524477
C210	C	1.794047	0.294485	-0.191143
H211	H	1.127948	-0.372315	-0.805207
H212	H	1.461281	-0.038982	-0.471874
H213	H	1.794615	0.294352	-0.138541
H214	H	1.084515	-0.405159	-0.873052
H215	H	1.417848	-0.071825	-0.539718
H216	H	1.751182	0.261508	-0.206385
H217	H	1.111672	-0.323456	-0.874412
H218	H	1.445006	0.009877	-0.541079
H219	H	1.778339	0.343211	-0.207746
H220	H	1.262958	-0.871225	-0.292613
H221	H	1.596291	-0.537892	0.040721
H222	H	1.929624	-0.204558	0.374054
C223	C	1.479922	-0.873519	-0.467070
C224	C	1.813255	-0.540186	-0.133736
C225	C	2.146589	-0.206853	0.199597
H226	H	1.503021	-0.845676	-0.428545
H227	H	1.836355	-0.512343	-0.095212
H228	H	2.169688	-0.179010	0.238122
H229	H	1.475568	-0.843583	-0.510154
H230	H	1.808902	-0.510249	-0.176820
H231	H	2.142235	-0.176916	0.156513
H232	H	1.519144	-0.915903	-0.478102
H233	H	1.852478	-0.582570	-0.144768
H234	H	2.185811	-0.249237	0.188565
C235	C	1.432926	-0.979225	-0.319512
C236	C	1.766260	-0.645891	0.013821
C237	C	2.099593	-0.312558	0.347154
H238	H	1.417159	-0.961515	-0.270669
H239	H	1.750492	-0.628181	0.062665
H240	H	2.083826	-0.294848	0.395998
H241	H	1.491187	-0.964278	-0.334795
H242	H	1.824521	-0.630945	-0.001462
H243	H	2.157854	-0.297612	0.331872
H244	H	1.432928	-1.031851	-0.320107
H245	H	1.766261	-0.698518	0.013226
H246	H	2.099595	-0.365184	0.346560
C247	C	0.634538	-0.535326	-0.534948
C248	C	0.967872	-0.201993	-0.201615
C249	C	1.301205	0.131340	0.131719
H250	H	0.571679	-0.525532	-0.525189
H251	H	0.905012	-0.192199	-0.191855
H252	H	1.238346	0.141134	0.141478
H253	H	0.649954	-0.585944	-0.524729
H254	H	0.983287	-0.252611	-0.191396
H255	H	1.316621	0.080723	0.141937
H256	H	0.650009	-0.525238	-0.585598
H257	H	0.983342	-0.191905	-0.252265
H258	H	1.316676	0.141428	0.081069
H259	H	1.414989	-0.333296	-0.878999
H260	H	1.748322	0.000037	-0.545666
H261	H	2.081656	0.333371	-0.212332
H262	H	0.960227	-0.317124	-0.317334
H263	H	1.293560	0.016209	0.015999
H264	H	1.626893	0.349542	0.349332
C265	C	1.174456	-0.519708	-0.967614
C266	C	1.507789	-0.186375	-0.634281
C267	C	1.841123	0.146958	-0.300947
H268	H	1.116052	-0.503925	-0.947844
H269	H	1.449385	-0.170592	-0.614511
H270	H	1.782719	0.162742	-0.281178
H271	H	1.189575	-0.568407	-0.950646
H272	H	1.522908	-0.235074	-0.617313
H273	H	1.856242	0.098259	-0.283980
H274	H	1.175187	-0.519715	-1.020276
H275	H	1.508520	-0.186381	-0.686942
H276	H	1.841854	0.146952	-0.353609
C277	C	1.350908	-0.566956	-0.868162
C278	C	1.684241	-0.233622	-0.534829
C279	C	2.017574	0.099711	-0.201496
H280	H	1.302739	-0.583668	-0.836919
H281	H	1.636073	-0.250335	-0.503585
H282	H	1.969406	0.082999	-0.170252
H283	H	1.403497	-0.565923	-0.840955
H284	H	1.736830	-0.232589	-0.507622
H285	H	2.070164	0.100744	-0.174289
H286	H	1.361997	-0.599754	-0.909230
H287	H	1.695331	-0.266421	-0.575897
H288	H	2.028664	0.066912	-0.242563
C289	C	1.174429	-0.859262	-0.519669
C290	C	1.507762	-0.525929	-0.186336
C291	C	1.841096	-0.192596	0.146997
H292	H	1.116007	-0.873454	-0.503841
H293	H	1.449340	-0.540121	-0.170507
H294	H	1.782674	-0.206787	0.162826
H295	H	1.189475	-0.877571	-0.568401
H296	H	1.522808	-0.544238	-0.235068
H297	H	1.856142	-0.210904	0.098266
H298	H	1.175251	-0.806675	-0.519623
H299	H	1.508584	-0.473342	-0.186289
H300	H	1.841918	-0.140009	0.147044
C301	C	1.480071	-0.466847	-0.982389
C302	C	1.813405	-0.133514	-0.649056
C303	C	2.146738	0.199820	-0.315723
H304	H	1.522836	-0.433586	-0.967527
H305	H	1.856169	-0.100253	-0.634193
H306	H	2.189502	0.233080	-0.300860
H307	H	1.479284	-0.467102	-1.034973
H308	H	1.812618	-0.133768	-0.701640
H309	H	2.145951	0.199565	-0.368306
H310	H	1.496101	-0.515397	-0.965477
H311	H	1.829434	-0.182064	-0.632144
H312	H	2.162768	0.151269	-0.298811
H313	H	0.818923	-0.530494	-0.530121
H314	H	1.152256	-0.197160	-0.196787
H315	H	1.485589	0.136173	0.136546
