data_functionalizedCrystal
_audit_creation_method	'MofGen! by Chris Wilmer'
_symmetry_space_group_name_H-M	'P1'
_symmetry_Int_Tables_number	1
_symmetry_cell_setting	triclinic
loop_
_symmetry_equiv_pos_as_xyz
  x,y,z
_cell_length_a	12.759395
_cell_length_b	15.299816
_cell_length_c	12.759387
_cell_angle_alpha	99.651108
_cell_angle_beta	89.980929
_cell_angle_gamma	80.351966
loop_
_atom_site_label
_atom_site_type_symbol
_atom_site_fract_x
_atom_site_fract_y
_atom_site_fract_z
Zn1	Zn	1.678537	-0.358972	-0.666415
Zn2	Zn	1.708805	-0.509813	-0.521162
Zn3	Zn	1.502849	-0.359021	-0.490761
Zn4	Zn	1.533188	-0.509750	-0.696788
O5	O	1.605845	-0.434389	-0.593782
O6	O	1.829574	-0.378988	-0.647158
O7	O	1.681455	-0.489857	-0.370117
O8	O	1.500790	-0.232806	-0.488628
O9	O	1.851812	-0.489810	-0.540441
O10	O	1.629867	-0.232771	-0.617680
O11	O	1.530140	-0.379070	-0.347782
O12	O	1.359851	-0.379009	-0.518080
O13	O	1.552498	-0.489702	-0.839771
O14	O	1.382141	-0.489749	-0.669447
O15	O	1.659286	-0.378927	-0.817456
O16	O	1.710874	-0.636012	-0.569893
O17	O	1.581848	-0.635966	-0.698925
C18	C	1.332875	-0.434378	-0.593761
C19	C	1.216102	-0.434395	-0.593782
C20	C	1.239388	-0.549895	-0.751221
C21	C	1.196172	-0.607652	-0.829944
C22	C	1.086453	-0.607663	-0.829960
C23	C	1.019946	-0.549909	-0.751244
C24	C	1.063162	-0.492152	-0.672520
C25	C	1.172885	-0.492149	-0.672512
C26	C	1.039874	-0.376648	-0.515088
C27	C	1.149594	-0.376641	-0.515067
C28	C	0.973367	-0.318894	-0.436373
C29	C	1.016584	-0.261140	-0.357643
C30	C	1.126310	-0.261132	-0.357630
C31	C	1.192810	-0.318884	-0.436343
C32	C	1.652966	-0.668713	-0.641027
C33	C	1.673221	-0.768958	-0.661274
C34	C	1.461769	-1.051905	-0.449431
C35	C	1.442733	-0.957720	-0.430411
C36	C	1.500354	-0.910525	-0.488125
C37	C	1.577013	-0.957524	-0.564863
C38	C	1.596045	-1.051719	-0.583891
C39	C	1.634630	-0.910338	-0.622584
C40	C	1.711289	-0.957338	-0.699322
C41	C	1.730318	-1.051523	-0.718346
C42	C	1.672697	-1.098718	-0.660632
C43	C	1.615598	-0.816144	-0.603556
C44	C	1.749873	-0.815958	-0.738015
C45	C	1.768909	-0.910143	-0.757036
C46	C	1.879881	-0.434401	-0.593803
C47	C	1.996658	-0.434406	-0.593812
C48	C	1.605900	-0.434302	-0.867798
C49	C	1.605923	-0.434265	-0.984567
C50	C	1.558568	-0.199149	-0.546375
C51	C	1.538421	-0.098904	-0.526173
C52	C	1.717175	-0.318851	-1.180761
C53	C	1.772763	-0.261193	-1.114284
C54	C	1.772739	-0.261223	-1.004568
C55	C	1.717124	-0.318919	-0.961329
C56	C	1.661535	-0.376577	-1.027806
C57	C	1.661562	-0.376539	-1.137522
C58	C	1.550335	-0.491923	-1.051044
C59	C	1.550351	-0.491890	-1.160759
C60	C	1.494719	-0.549619	-1.007804
C61	C	1.439123	-0.607274	-1.074281
C62	C	1.439148	-0.607241	-1.184002
C63	C	1.494762	-0.549548	-1.227236
C64	C	1.605837	-0.434411	-0.320818
C65	C	1.605966	-0.434194	-0.203999
H66	H	0.884028	-0.318903	-0.436394
H67	H	1.494709	-0.549643	-0.918468
Br68	Br	1.184949	-0.182736	-0.250791
Br69	Br	1.341720	-0.318884	-0.436326
H70	H	1.818047	-0.214220	-1.149502
H71	H	1.553181	-0.777886	-0.541076
Br72	Br	1.363712	-0.685503	-1.274215
Br73	Br	1.848191	-0.182980	-0.914346
Br74	Br	1.872945	-0.973938	-0.861176
Br75	Br	1.338686	-0.893941	-0.326286
Br76	Br	1.474108	-0.782701	-0.462721
Br77	Br	1.383559	-1.115958	-0.371135
Br78	Br	1.698776	-1.226546	-0.686197
Br79	Br	1.494791	-0.549491	-1.376134
H80	H	1.393851	-0.654249	-1.039066
H81	H	1.792734	-1.089787	-0.780836
Br82	Br	1.717184	-0.318786	-1.329657
Br83	Br	1.717113	-0.318973	-0.812430
Br84	Br	1.388299	-0.549900	-0.751190
Br85	Br	1.286436	-0.686034	-0.936763
H86	H	1.051267	-0.654689	-0.894068
H87	H	0.962425	-0.214117	-0.293563
H88	H	0.930606	-0.549915	-0.751271
Br89	Br	1.828073	-0.751916	-0.816351
