data_functionalizedCrystal
_audit_creation_method	'MofGen! by Chris Wilmer'
_symmetry_space_group_name_H-M	'P1'
_symmetry_Int_Tables_number	1
_symmetry_cell_setting	triclinic
loop_
_symmetry_equiv_pos_as_xyz
  x,y,z
_cell_length_a	16.120484
_cell_length_b	13.897449
_cell_length_c	13.897441
_cell_angle_alpha	90.022859
_cell_angle_beta	92.865635
_cell_angle_gamma	87.074557
loop_
_atom_site_label
_atom_site_type_symbol
_atom_site_fract_x
_atom_site_fract_y
_atom_site_fract_z
Zn1	Zn	-0.331884	-1.455180	-0.564879
Zn2	Zn	-0.471315	-1.446872	-0.411749
Zn3	Zn	-0.331920	-1.293867	-0.403594
Zn4	Zn	-0.471257	-1.285653	-0.572993
O5	O	-0.401594	-1.370393	-0.488304
O6	O	-0.350389	-1.589059	-0.544584
O7	O	-0.452863	-1.426537	-0.275688
O8	O	-0.215249	-1.322180	-0.418180
O9	O	-0.452828	-1.582956	-0.432080
O10	O	-0.215223	-1.440696	-0.536676
O11	O	-0.350450	-1.314125	-0.269696
O12	O	-0.350394	-1.157797	-0.426047
O13	O	-0.452729	-1.308180	-0.706896
O14	O	-0.452764	-1.151761	-0.550504
O15	O	-0.350332	-1.432731	-0.700935
O16	O	-0.587973	-1.418572	-0.439947
O17	O	-0.587930	-1.300124	-0.558412
C18	C	-0.401577	-1.119780	-0.488272
C19	C	-0.401590	-1.012565	-0.488282
C20	C	-0.401589	-0.816270	-0.488300
C21	C	-0.401587	-0.925503	-0.488287
C22	C	-0.618201	-1.357581	-0.500966
C23	C	-0.710867	-1.352189	-0.506415
C24	C	-0.880528	-1.342348	-0.516384
C25	C	-0.921819	-1.398611	-0.460240
C26	C	-1.016224	-1.393136	-0.465786
C27	C	-0.786114	-1.347822	-0.510838
C28	C	-0.184140	-1.383281	-0.475613
C29	C	-0.091475	-1.388774	-0.470205
C30	C	-0.401520	-1.370466	-0.739893
C31	C	-0.401489	-1.370497	-0.847105
C32	C	-0.401605	-0.621985	-0.488327
C33	C	-0.401596	-0.729200	-0.488313
C34	C	-0.401432	-1.370526	-1.043397
C35	C	-0.401466	-1.370507	-0.934166
C36	C	-0.401607	-1.370380	-0.237690
C37	C	-0.401403	-1.370549	-0.130465
H38	H	-0.886268	-1.450890	-0.408007
O39	O	-0.922839	-1.279848	-0.578637
C40	C	-0.901742	-1.184922	-0.556227
H41	H	-0.838517	-1.186537	-0.515508
H42	H	-0.898864	-1.141789	-0.625632
H43	H	-0.950786	-1.149679	-0.509422
