data_functionalizedCrystal
_audit_creation_method	'MofGen! by Chris Wilmer'
_symmetry_space_group_name_H-M	'P1'
_symmetry_Int_Tables_number	1
_symmetry_cell_setting	triclinic
loop_
_symmetry_equiv_pos_as_xyz
  x,y,z
_cell_length_a	14.971486
_cell_length_b	14.971506
_cell_length_c	13.448316
_cell_angle_alpha	89.994977
_cell_angle_beta	89.998199
_cell_angle_gamma	83.618258
loop_
_atom_site_label
_atom_site_type_symbol
_atom_site_fract_x
_atom_site_fract_y
_atom_site_fract_z
O1	O	1.186956	0.116564	-0.082574
O2	O	1.686956	0.616564	0.417426
O3	O	0.926557	0.130522	-0.082601
O4	O	1.426557	0.630522	0.417399
O5	O	1.063726	-0.006656	-0.082584
O6	O	1.563726	0.493344	0.417416
O7	O	1.049786	0.253742	-0.082591
O8	O	1.549786	0.753742	0.417409
O9	O	1.063709	-0.006664	0.082800
O10	O	1.563709	0.493336	0.582800
O11	O	0.926539	0.130514	0.082783
O12	O	1.426539	0.630514	0.582783
O13	O	1.186939	0.116555	0.082810
O14	O	1.686939	0.616555	0.582810
Cu15	Cu	1.056737	0.123534	0.097897
Cu16	Cu	1.556737	0.623534	0.597897
Cu17	Cu	1.056758	0.123544	-0.097688
Cu18	Cu	1.556758	0.623544	0.402312
O19	O	1.049769	0.253733	0.082793
O20	O	1.549769	0.753733	0.582793
C21	C	0.893223	0.129894	0.000088
C22	C	1.393223	0.629894	0.500088
C23	C	0.793926	0.128023	0.000078
C24	C	1.293926	0.628023	0.500078
C25	C	1.063091	-0.039984	0.000106
C26	C	1.563091	0.460016	0.500106
C27	C	1.061213	-0.139281	0.000102
C28	C	1.561213	0.360719	0.500102
C29	C	0.736707	0.208612	0.000077
C30	C	1.236707	0.708612	0.500077
C31	C	0.643407	0.206849	0.000092
C32	C	1.143407	0.706849	0.500092
C33	C	0.607329	0.124496	0.000100
C34	C	1.107329	0.624496	0.500100
C35	C	0.664556	0.043901	0.000104
C36	C	1.164556	0.543901	0.500104
C37	C	0.757853	0.045665	0.000096
C38	C	1.257853	0.545665	0.500096
C39	C	0.470093	0.040230	0.000118
C40	C	0.970093	0.540230	0.500118
C41	C	0.376789	0.038466	0.000124
C42	C	0.876789	0.538466	0.500124
C43	C	0.355647	0.201414	0.000113
C44	C	0.855647	0.701414	0.500113
C45	C	0.448944	0.203178	0.000106
C46	C	0.948944	0.703178	0.500106
C47	C	0.506165	0.122582	0.000107
C48	C	1.006165	0.622582	0.500107
C49	C	1.220272	0.117184	0.000119
C50	C	1.720272	0.617184	0.500119
C51	C	1.319569	0.119054	0.000123
C52	C	1.819569	0.619054	0.500123
C53	C	1.134631	-0.577563	0.000110
C54	C	1.634631	-0.077563	0.500110
C55	C	1.136389	-0.484263	0.000117
C56	C	1.636389	0.015737	0.500117
C57	C	1.055796	-0.427043	0.000105
C58	C	1.555796	0.072957	0.500105
C59	C	0.973441	-0.463127	0.000097
C60	C	1.473441	0.036873	0.500097
C61	C	0.971685	-0.556426	0.000097
C62	C	1.471685	-0.056426	0.500097
C63	C	0.977108	-0.268664	0.000093
C64	C	1.477108	0.231336	0.500093
C65	C	0.978864	-0.175359	0.000091
C66	C	1.478864	0.324641	0.500091
C67	C	1.141812	-0.196501	0.000113
C68	C	1.641812	0.303499	0.500113
C69	C	1.140055	-0.289800	0.000113
C70	C	1.640055	0.210200	0.500113
C71	C	1.057700	-0.325878	0.000103
C72	C	1.557700	0.174122	0.500103
C73	C	1.050404	0.287062	0.000101
C74	C	1.550404	0.787062	0.500101
C75	C	1.052282	0.386358	0.000099
C76	C	1.552282	0.886358	0.500099
N77	N	1.056730	0.123526	0.235462
N78	N	1.556730	0.623526	0.735462
N79	N	1.056773	0.123544	-0.235252
N80	N	1.556773	0.623544	0.264748
C81	C	1.117487	0.062809	0.287509
C82	C	1.617487	0.562809	0.787509
C83	C	1.117493	0.062808	0.391613
C84	C	1.617493	0.562808	0.891613
C85	C	1.056744	0.123530	0.443666
C86	C	1.556744	0.623530	0.943666
C87	C	0.995980	0.184250	0.391611
C88	C	1.495980	0.684250	0.891611
C89	C	0.995971	0.184246	0.287510
C90	C	1.495971	0.684246	0.787510
C91	C	0.996005	0.184256	0.608591
C92	C	1.496005	0.684256	1.108591
C93	C	0.996015	0.184262	0.712700
C94	C	1.496015	0.684262	1.212700
C95	C	1.117527	0.062818	0.712694
C96	C	1.617527	0.562818	1.212694
C97	C	1.117518	0.062814	0.608593
C98	C	1.617518	0.562814	1.108593
C99	C	1.056754	0.123536	0.556545
C100	C	1.556754	0.623536	1.056545
H101	H	0.596822	0.272472	0.000090
H102	H	1.096822	0.772472	0.500090
O103	O	0.293933	0.288342	0.000126
O104	O	0.793933	0.788342	0.500126
H105	H	0.306757	0.327747	-0.067291
H106	H	0.806757	0.827747	0.432709
H107	H	1.166959	0.013366	0.245134
H108	H	1.666959	0.513366	0.745134
O109	O	0.487864	0.291997	0.000092
O110	O	0.987864	0.791997	0.500092
H111	H	0.529875	0.296685	0.067492
H112	H	1.029875	0.796685	0.567492
H113	H	0.910045	-0.298035	0.000098
H114	H	1.410045	0.201965	0.500098
O115	O	1.225207	-0.445346	0.000106
O116	O	1.725207	0.054654	0.500106
H117	H	1.280952	-0.500808	0.000094
H118	H	1.780952	-0.000808	0.500094
O119	O	0.337877	-0.050358	0.000151
O120	O	0.837877	0.449642	0.500151
H121	H	0.263388	-0.038041	0.000148
H122	H	0.763388	0.461959	0.500148
H123	H	0.804441	-0.019958	0.000096
H124	H	1.304441	0.480042	0.500096
H125	H	0.904628	-0.585799	0.000096
H126	H	1.404628	-0.085799	0.500096
H127	H	0.516680	-0.025399	0.000121
H128	H	1.016680	0.474601	0.500121
O129	O	1.226977	-0.351521	0.000134
O130	O	1.726977	0.148479	0.500134
H131	H	1.284539	-0.310762	0.000153
H132	H	1.784539	0.189238	0.500153
O133	O	1.221561	-0.639271	0.000126
O134	O	1.721561	-0.139271	0.500126
H135	H	1.206508	-0.710210	0.000117
H136	H	1.706508	-0.210210	0.500117
O137	O	0.930424	0.249723	0.231373
O138	O	1.430424	0.749723	0.731373
H139	H	0.940611	0.239508	0.150240
H140	H	1.440611	0.739508	0.650240
O141	O	0.625649	-0.044925	0.000121
O142	O	1.125649	0.455075	0.500121
H143	H	0.583652	-0.049632	-0.067287
H144	H	1.083652	0.450368	0.432713
H145	H	1.208869	-0.167123	0.000029
H146	H	1.708869	0.332877	0.500029
H147	H	1.166965	0.013367	0.433989
H148	H	1.666965	0.513367	0.933989
O149	O	0.891943	-0.113638	0.000091
O150	O	1.391943	0.386362	0.500091
H151	H	0.834381	-0.154397	0.000101
H152	H	1.334381	0.345603	0.500101
O153	O	0.886515	-0.401414	0.000094
O154	O	1.386515	0.098586	0.500094
H155	H	0.847113	-0.414255	-0.067313
H156	H	1.347113	0.085745	0.432687
H157	H	1.166988	0.013374	0.566211
H158	H	1.666988	0.513374	1.066211
H159	H	1.167002	0.013377	0.755077
H160	H	1.667002	0.513377	1.255077
H161	H	0.946547	0.233707	0.755077
H162	H	1.446547	0.733707	1.255077
O163	O	0.930474	0.249751	0.552448
O164	O	1.430474	0.749751	1.052448
H165	H	0.888240	0.291984	0.606131
H166	H	1.388240	0.791984	1.106131
O167	O	0.930463	0.249753	0.447748
O168	O	1.430463	0.749753	0.947748
H169	H	0.886958	0.212038	0.495200
H170	H	1.386958	0.712038	0.995200
H171	H	0.766074	0.275673	0.000069
H172	H	1.266074	0.775673	0.500069
