data_functionalizedCrystal
_audit_creation_method	'MofGen! by Chris Wilmer'
_symmetry_space_group_name_H-M	'P1'
_symmetry_Int_Tables_number	1
_symmetry_cell_setting	triclinic
loop_
_symmetry_equiv_pos_as_xyz
  x,y,z
_cell_length_a	27.732048
_cell_length_b	27.732064
_cell_length_c	26.809956
_cell_angle_alpha	89.999459
_cell_angle_beta	89.989448
_cell_angle_gamma	82.646039
loop_
_atom_site_label
_atom_site_type_symbol
_atom_site_fract_x
_atom_site_fract_y
_atom_site_fract_z
O1	O	0.640939	0.057515	-0.041411
O2	O	1.140939	0.557515	0.458589
O3	O	0.500146	0.066261	-0.041426
O4	O	1.000146	0.566261	0.458574
O5	O	0.574911	-0.008508	-0.041420
O6	O	1.074911	0.491492	0.458580
O7	O	0.566174	0.132284	-0.041417
O8	O	1.066174	0.632284	0.458583
O9	O	0.574888	-0.008508	0.041539
O10	O	1.074888	0.491492	0.541539
O11	O	0.500123	0.066261	0.041534
O12	O	1.000123	0.566261	0.541534
O13	O	0.640916	0.057515	0.041548
O14	O	1.140916	0.557515	0.541548
Zn15	Zn	0.570516	0.061888	0.054712
Zn16	Zn	1.070516	0.561888	0.554712
Zn17	Zn	0.570546	0.061888	-0.054590
Zn18	Zn	1.070546	0.561888	0.445410
O19	O	0.566151	0.132284	0.041542
O20	O	1.066151	0.632284	0.541542
C21	C	0.482127	0.066077	0.000052
C22	C	0.982127	0.566077	0.500052
C23	C	0.428473	0.065524	0.000046
C24	C	0.928473	0.565524	0.500046
C25	C	0.574715	-0.026515	0.000058
C26	C	1.074715	0.473485	0.500058
C27	C	0.574159	-0.080169	0.000053
C28	C	1.074159	0.419831	0.500053
C29	C	0.526192	-0.457242	0.000047
C30	C	1.026192	0.042758	0.500047
C31	C	0.528238	-0.255582	0.000046
C32	C	1.028238	0.244418	0.500046
O33	O	0.491017	-0.224329	0.000022
O34	O	0.991017	0.275671	0.500022
N35	N	0.572572	-0.236454	0.000051
N36	N	1.072572	0.263546	0.500051
C37	C	0.616398	-0.267745	0.000052
C38	C	1.116398	0.232255	0.500052
O39	O	0.654154	-0.246849	0.000051
O40	O	1.154154	0.253151	0.500051
C41	C	0.614351	-0.469405	0.000049
C42	C	1.114351	0.030595	0.500049
C43	C	0.570014	-0.488529	0.000049
C44	C	1.070014	0.011471	0.500049
C45	C	0.481858	-0.476367	0.000047
C46	C	0.981858	0.023633	0.500047
C47	C	0.481347	-0.526779	0.000049
C48	C	0.981347	-0.026779	0.500049
C49	C	0.525169	-0.558066	0.000052
C50	C	1.025169	-0.058066	0.500052
C51	C	0.569503	-0.538941	0.000052
C52	C	1.069503	-0.038941	0.500052
C53	C	0.658177	-0.500695	0.000047
C54	C	1.158177	-0.000695	0.500047
C55	C	0.657661	-0.551112	0.000044
C56	C	1.157661	-0.051112	0.500044
C57	C	0.613324	-0.570237	0.000045
C58	C	1.113324	-0.070237	0.500045
C59	C	0.612814	-0.620640	0.000058
C60	C	1.112814	-0.120640	0.500058
N61	N	0.568480	-0.639768	0.000053
N62	N	1.068480	-0.139768	0.500053
C63	C	0.524658	-0.608481	0.000050
C64	C	1.024658	-0.108481	0.500050
C65	C	0.617469	-0.161871	0.000055
C66	C	1.117469	0.338129	0.500055
C67	C	0.617981	-0.111456	0.000056
C68	C	1.117981	0.388544	0.500056
C69	C	0.529821	-0.099296	0.000049
C70	C	1.029821	0.400704	0.500049
C71	C	0.529310	-0.149712	0.000051
C72	C	1.029310	0.350288	0.500051
C73	C	0.573135	-0.180998	0.000050
C74	C	1.073135	0.319002	0.500050
C75	C	0.523588	-0.714350	0.000057
C76	C	1.023588	-0.214350	0.500057
C77	C	0.523080	-0.764767	0.000062
C78	C	1.023080	-0.264767	0.500062
C79	C	0.611241	-0.776923	0.000066
C80	C	1.111241	-0.276923	0.500066
C81	C	0.611748	-0.726511	0.000064
C82	C	1.111748	-0.226511	0.500064
C83	C	0.567918	-0.695225	0.000057
C84	C	1.067918	-0.195225	0.500057
O85	O	0.650016	-0.651921	0.000076
O86	O	1.150016	-0.151921	0.500076
O87	O	0.486907	-0.629387	0.000041
O88	O	0.986907	-0.129387	0.500041
C89	C	0.526703	-0.406830	0.000044
C90	C	1.026703	0.093170	0.500044
C91	C	0.571036	-0.387705	0.000044
C92	C	1.071036	0.112295	0.500044
C93	C	0.614859	-0.418992	0.000046
C94	C	1.114859	0.081008	0.500046
C95	C	0.571548	-0.337290	0.000045
C96	C	1.071548	0.162710	0.500045
C97	C	0.527726	-0.306003	0.000043
C98	C	1.027726	0.193997	0.500043
C99	C	0.483391	-0.325131	0.000038
C100	C	0.983391	0.174869	0.500038
C101	C	0.482880	-0.375543	0.000041
C102	C	0.982880	0.124457	0.500041
C103	C	0.659193	-0.399865	0.000051
C104	C	1.159193	0.100135	0.500051
C105	C	0.659701	-0.349452	0.000049
C106	C	1.159701	0.150548	0.500049
C107	C	0.615878	-0.318165	0.000046
C108	C	1.115878	0.181835	0.500046
C109	C	0.089660	0.106228	0.000069
C110	C	0.589660	0.606228	0.500069
C111	C	-0.112000	0.104177	0.000073
C112	C	0.388000	0.604177	0.500073
O113	O	-0.143253	0.141397	0.000096
O114	O	0.356747	0.641397	0.500096
N115	N	-0.131126	0.059842	0.000071
N116	N	0.368874	0.559842	0.500071
C117	C	-0.099834	0.016017	0.000072
C118	C	0.400166	0.516017	0.500072
O119	O	-0.120730	-0.021740	0.000075
O120	O	0.379270	0.478260	0.500075
C121	C	0.101825	0.018068	0.000071
C122	C	0.601825	0.518068	0.500071
C123	C	0.120948	0.062406	0.000068
C124	C	0.620948	0.562406	0.500068
C125	C	0.108784	0.150562	0.000066
C126	C	0.608784	0.650562	0.500066
C127	C	0.159196	0.151074	0.000062
C128	C	0.659196	0.651074	0.500062
C129	C	0.190484	0.107252	0.000061
C130	C	0.690484	0.607252	0.500061
C131	C	0.171360	0.062918	0.000064
C132	C	0.671360	0.562918	0.500064
C133	C	0.133116	-0.025756	0.000075
C134	C	0.633116	0.474244	0.500075
C135	C	0.183533	-0.025240	0.000076
C136	C	0.683533	0.474760	0.500076
C137	C	0.202656	0.019098	0.000073
C138	C	0.702656	0.519098	0.500073
C139	C	0.253060	0.019609	0.000059
C140	C	0.753060	0.519609	0.500059
N141	N	0.272186	0.063944	0.000061
N142	N	0.772186	0.563944	0.500061
C143	C	0.240898	0.107765	0.000062
C144	C	0.740898	0.607765	0.500062
C145	C	-0.205708	0.014943	0.000071
C146	C	0.294292	0.514943	0.500071
C147	C	-0.256123	0.014430	0.000070
C148	C	0.243877	0.514430	0.500070
C149	C	-0.268285	0.102590	0.000073
C150	C	0.231715	0.602590	0.500073
C151	C	-0.217870	0.103103	0.000070
C152	C	0.282130	0.603103	0.500070
C153	C	-0.186582	0.059278	0.000073
C154	C	0.313418	0.559278	0.500073
C155	C	0.346768	0.108838	0.000053
C156	C	0.846768	0.608838	0.500053
C157	C	0.397185	0.109346	0.000047
C158	C	0.897185	0.609346	0.500047
C159	C	0.409342	0.021186	0.000048
C160	C	0.909342	0.521186	0.500048
C161	C	0.358930	0.020678	0.000051
C162	C	0.858930	0.520678	0.500051
C163	C	0.327643	0.064507	0.000055
C164	C	0.827643	0.564507	0.500055
O165	O	0.284342	-0.017592	0.000042
O166	O	0.784342	0.482408	0.500042
O167	O	0.261803	0.145516	0.000069
O168	O	0.761803	0.645516	0.500069
C169	C	0.039248	0.105716	0.000073
C170	C	0.539248	0.605716	0.500073
C171	C	0.020124	0.061381	0.000075
C172	C	0.520124	0.561381	0.500075
C173	C	0.051412	0.017560	0.000074
C174	C	0.551412	0.517560	0.500074
C175	C	-0.030290	0.060868	0.000075
C176	C	0.469710	0.560868	0.500075
C177	C	-0.061578	0.104690	0.000076
C178	C	0.438422	0.604690	0.500076
C179	C	-0.042452	0.149025	0.000078
C180	C	0.457548	0.649025	0.500078
C181	C	0.007960	0.149537	0.000074
C182	C	0.507960	0.649537	0.500074
C183	C	0.032286	-0.026775	0.000072
C184	C	0.532286	0.473225	0.500072
C185	C	-0.018127	-0.027284	0.000076
C186	C	0.481873	0.472716	0.500076
C187	C	-0.049415	0.016538	0.000077
C188	C	0.450585	0.516538	0.500077
C189	C	0.658934	0.057699	0.000069
C190	C	1.158934	0.557699	0.500069
C191	C	0.712589	0.058252	0.000072
C192	C	1.212589	0.558252	0.500072
C193	C	0.566347	0.150291	0.000063
C194	C	1.066347	0.650291	0.500063
C195	C	0.566903	0.203945	0.000065
C196	C	1.066903	0.703945	0.500065
N197	N	0.570499	0.061888	0.129308
N198	N	1.070499	0.561888	0.629308
N199	N	0.570567	0.061885	-0.129186
N200	N	1.070567	0.561885	0.370814
C201	C	0.599638	0.090999	0.473938
C202	C	1.099638	0.590999	0.973938
C203	C	0.599654	0.090998	0.682816
C204	C	1.099654	0.590998	1.182816
O205	O	0.624416	0.115744	0.709823
O206	O	1.124416	0.615744	1.209823
N207	N	0.570558	0.061883	0.708935
N208	N	1.070558	0.561883	1.208935
C209	C	0.541458	0.032764	0.682832
C210	C	1.041458	0.532764	1.182832
O211	O	0.516714	0.007996	0.709841
O212	O	1.016714	0.507996	1.209841
C213	C	0.541445	0.032762	0.473955
C214	C	1.041445	0.532762	0.973955
C215	C	0.570539	0.061883	0.447839
C216	C	1.070539	0.561883	0.947839
C217	C	0.628731	0.120116	0.447822
C218	C	1.128731	0.620116	0.947822
C219	C	0.628725	0.120118	0.395605
C220	C	1.128725	0.620118	0.895605
C221	C	0.599626	0.091002	0.369506
C222	C	1.099626	0.591002	0.869506
C223	C	0.570533	0.061884	0.395622
C224	C	1.070533	0.561884	0.895622
C225	C	0.512348	0.003640	0.447853
C226	C	1.012348	0.503640	0.947853
C227	C	0.512348	0.003641	0.395631
C228	C	1.012348	0.503641	0.895631
C229	C	0.541443	0.032762	0.369514
C230	C	1.041443	0.532762	0.869514
C231	C	0.541428	0.032770	0.317307
C232	C	1.041428	0.532770	0.817307
N233	N	0.570525	0.061885	0.291187
N234	N	1.070525	0.561885	0.791187
C235	C	0.599623	0.091001	0.317287
C236	C	1.099623	0.591001	0.817287
C237	C	0.541466	0.032767	0.792496
C238	C	1.041466	0.532767	1.292496
C239	C	0.541468	0.032768	0.844714
C240	C	1.041468	0.532768	1.344714
C241	C	0.599665	0.091002	0.844695
C242	C	1.099665	0.591002	1.344695
C243	C	0.599660	0.091004	0.792475
C244	C	1.099660	0.591004	1.292475
C245	C	0.570562	0.061882	0.766376
C246	C	1.070562	0.561882	1.266376
C247	C	0.599608	0.091003	0.207629
C248	C	1.099608	0.591003	0.707629
C249	C	0.599598	0.091004	0.155408
C250	C	1.099598	0.591004	0.655408
C251	C	0.541403	0.032768	0.155432
C252	C	1.041403	0.532768	0.655432
C253	C	0.541411	0.032769	0.207649
C254	C	1.041411	0.532769	0.707649
C255	C	0.570517	0.061888	0.233746
C256	C	1.070517	0.561888	0.733746
O257	O	0.516683	0.008033	0.290267
O258	O	1.016683	0.508033	0.790267
O259	O	0.624372	0.115757	0.290269
O260	O	1.124372	0.615757	0.790269
C261	C	0.599644	0.090997	0.526155
C262	C	1.099644	0.590997	1.026155
C263	C	0.570552	0.061879	0.552271
C264	C	1.070552	0.561879	1.052271
C265	C	0.541453	0.032763	0.526172
C266	C	1.041453	0.532763	1.026172
C267	C	0.570554	0.061880	0.604490
C268	C	1.070554	0.561880	1.104490
C269	C	0.599653	0.090996	0.630590
C270	C	1.099653	0.590996	1.130590
C271	C	0.628749	0.120111	0.604470
C272	C	1.128749	0.620111	1.104470
C273	C	0.628743	0.120113	0.552254
C274	C	1.128743	0.620113	1.052254
C275	C	0.512357	0.003648	0.552291
C276	C	1.012357	0.503648	1.052291
C277	C	0.512365	0.003649	0.604508
C278	C	1.012365	0.503649	1.104508
C279	C	0.541464	0.032765	0.630607
C280	C	1.041464	0.532765	1.130607
H281	H	0.486974	-0.780335	0.000065
H282	H	0.986974	-0.280335	0.500065
Cl283	Cl	0.713918	-0.476665	0.000034
Cl284	Cl	1.213918	0.023335	0.500034
H285	H	0.693350	-0.576584	0.000041
H286	H	1.193350	-0.076584	0.500041
Cl287	Cl	0.665317	0.156725	0.480623
Cl288	Cl	1.165317	0.656725	0.980623
Cl289	Cl	0.468486	-0.675027	0.000051
Cl290	Cl	0.968486	-0.175027	0.500051
H291	H	0.434826	-0.014492	0.000045
H292	H	0.934826	0.485508	0.500045
Cl293	Cl	0.425606	-0.550813	0.000044
Cl294	Cl	0.925606	-0.050813	0.500044
Cl295	Cl	0.222863	-0.080337	0.000080
Cl296	Cl	0.722863	0.419663	0.500080
H297	H	0.083313	0.186249	0.000069
H298	H	0.583313	0.686249	0.500069
H299	H	-0.033692	-0.063392	0.000074
H300	H	0.466308	0.436608	0.500074
H301	H	0.653160	-0.187341	0.000054
H302	H	1.153160	0.312659	0.500054
H303	H	0.057756	-0.062461	0.000073
H304	H	0.557756	0.437539	0.500073
Cl305	Cl	0.427139	-0.399577	0.000040
Cl306	Cl	0.927139	0.100423	0.500040
Cl307	Cl	0.636173	0.127619	0.122579
Cl308	Cl	1.136173	0.627619	0.622579
Cl309	Cl	-0.166382	-0.040157	0.000074
Cl310	Cl	0.333618	0.459843	0.500074
Cl311	Cl	0.426759	-0.437043	0.000042
Cl312	Cl	0.926759	0.062957	0.500042
H313	H	0.517713	0.009063	0.228914
H314	H	1.017713	0.509063	0.728914
Cl315	Cl	0.636239	0.127611	0.759648
Cl316	Cl	1.136239	0.627611	1.259648
Cl317	Cl	0.504872	-0.003836	0.759693
Cl318	Cl	1.004872	0.496164	1.259693
H319	H	0.647851	-0.710939	0.000070
H320	H	1.147851	-0.210939	0.500070
H321	H	0.488653	-0.020073	0.374384
H322	H	0.988653	0.479927	0.874384
Cl323	Cl	0.504823	-0.003832	0.122612
Cl324	Cl	1.004823	0.496168	0.622612
H325	H	0.652440	0.143821	0.625730
H326	H	1.152440	0.643821	1.125730
Cl327	Cl	0.665318	0.156727	0.519429
Cl328	Cl	1.165318	0.656727	1.019429
H329	H	0.343359	-0.015426	0.000046
H330	H	0.843359	0.484574	0.500046
Cl331	Cl	0.475782	-0.032961	0.637334
Cl332	Cl	0.975782	0.467039	1.137334
Cl333	Cl	-0.307628	0.157680	0.000076
Cl334	Cl	0.192372	0.657680	0.500076
H335	H	0.646920	-0.802406	0.000071
H336	H	1.146920	-0.302406	0.500071
H337	H	0.447710	-0.299648	0.000039
H338	H	0.947710	0.200352	0.500039
H339	H	0.493206	-0.165279	0.000054
H340	H	0.993206	0.334721	0.500054
Cl341	Cl	-0.193834	0.158843	0.000068
Cl342	Cl	0.306166	0.658843	0.500068
Cl343	Cl	0.715445	-0.325417	0.000047
Cl344	Cl	1.215445	0.174583	0.500047
Cl345	Cl	-0.280157	-0.041311	0.000062
Cl346	Cl	0.219843	0.458689	0.500062
Cl347	Cl	0.714290	-0.439190	0.000056
Cl348	Cl	1.214290	0.060810	0.500056
H349	H	0.412752	0.145453	0.000045
H350	H	0.912752	0.645453	0.500045
H351	H	0.623309	0.114714	0.228871
H352	H	1.123309	0.614714	0.728871
H353	H	0.321299	0.144528	0.000059
H354	H	0.821299	0.644528	0.500059
Cl355	Cl	-0.081795	0.204115	0.000077
Cl356	Cl	0.418205	0.704115	0.500077
H357	H	0.494139	-0.073813	0.000049
H358	H	0.994139	0.426187	0.500049
Cl359	Cl	0.109088	-0.081499	0.000070
Cl360	Cl	0.609088	0.418501	0.500070
Cl361	Cl	0.031993	0.205279	0.000070
Cl362	Cl	0.531993	0.705279	0.500070
H363	H	0.652418	0.143829	0.374346
H364	H	1.152418	0.643829	0.874346
H365	H	0.174761	0.187179	0.000059
H366	H	0.674761	0.687179	0.500059
Cl367	Cl	0.636248	0.127603	0.877515
Cl368	Cl	1.136248	0.627603	1.377515
H369	H	0.517771	0.009061	0.865974
H370	H	1.017771	0.509061	1.365974
H371	H	0.654085	-0.095890	0.000064
H372	H	1.154085	0.404110	0.500064
Cl373	Cl	0.475770	-0.032971	0.480673
Cl374	Cl	0.975770	0.467029	0.980673
Cl375	Cl	0.475763	-0.032951	0.519488
Cl376	Cl	0.975763	0.467049	1.019488
