data_functionalizedCrystal
_audit_creation_method	'MofGen! by Chris Wilmer'
_symmetry_space_group_name_H-M	'P1'
_symmetry_Int_Tables_number	1
_symmetry_cell_setting	triclinic
loop_
_symmetry_equiv_pos_as_xyz
  x,y,z
_cell_length_a	6.817900
_cell_length_b	7.190334
_cell_length_c	12.850283
_cell_angle_alpha	94.836986
_cell_angle_beta	91.777414
_cell_angle_gamma	119.388224
loop_
_atom_site_label
_atom_site_type_symbol
_atom_site_fract_x
_atom_site_fract_y
_atom_site_fract_z
V1	V	4.161859	0.655560	0.141789
O2	O	4.210399	0.652909	-0.008515
O3	O	4.051286	0.641624	0.282781
O4	O	4.200285	0.945785	0.138862
O5	O	4.060368	0.346643	0.136400
V6	V	4.642293	0.619759	0.123899
O7	O	4.429895	0.734092	0.181032
O8	O	4.824455	0.541227	0.084656
O9	O	4.529659	0.633695	-0.017092
O10	O	4.711150	0.622410	0.274203
O11	O	4.861180	0.928676	0.129288
O12	O	4.380660	0.329534	0.126827
C13	C	3.869680	0.619242	0.434599
C14	C	3.878348	0.628842	0.317172
C15	C	4.068428	1.016828	0.133586
C16	C	4.182828	1.258484	0.132097
C17	C	4.353512	0.656149	-0.168899
C18	C	4.365937	0.646487	-0.051477
V19	V	4.129458	0.623039	0.625558
O20	O	4.172304	0.630781	0.778480
O21	O	4.036793	0.625594	0.478743
O22	O	3.887071	0.321344	0.622616
O23	O	4.323062	0.937137	0.633611
V24	V	4.668772	0.716152	0.672686
O25	O	4.337965	0.571303	0.599972
O26	O	4.934177	0.819830	0.724767
O27	O	4.526474	0.687844	0.806366
O28	O	4.749507	0.721955	0.526673
O29	O	4.598749	0.415599	0.671543
O30	O	4.676196	0.992094	0.662492
C31	C	4.530175	1.043435	0.647176
C32	C	4.622920	1.282697	0.644507
