data_functionalizedCrystal
_audit_creation_method	'MofGen! by Chris Wilmer'
_symmetry_space_group_name_H-M	'P1'
_symmetry_Int_Tables_number	1
_symmetry_cell_setting	triclinic
loop_
_symmetry_equiv_pos_as_xyz
  x,y,z
_cell_length_a	19.851628
_cell_length_b	14.809436
_cell_length_c	14.809374
_cell_angle_alpha	60.797024
_cell_angle_beta	89.999435
_cell_angle_gamma	67.428520
loop_
_atom_site_label
_atom_site_type_symbol
_atom_site_fract_x
_atom_site_fract_y
_atom_site_fract_z
Zr1	Zr	0.744015	0.955323	-0.203757
O2	O	0.661497	1.113235	-0.350913
O3	O	0.757632	0.777555	-0.145677
O4	O	0.785183	0.926709	-0.332222
O5	O	0.625500	0.993576	-0.031969
O6	O	0.896034	0.926725	-0.332231
O7	O	0.633947	0.964081	-0.164367
O8	O	0.846751	0.659916	0.001465
O9	O	0.674783	1.260386	-0.365665
O10	O	0.860277	0.858040	-0.136581
O11	O	0.771246	0.880040	-0.037767
O12	O	0.803684	1.055649	-0.257401
O13	O	0.714653	1.077650	-0.158587
Zr14	Zr	0.907337	1.002389	0.007389
Zr15	Zr	0.920809	0.955348	-0.203771
Zr16	Zr	0.730543	1.002364	0.007403
Zr17	Zr	0.765204	1.190011	-0.227285
Zr18	Zr	0.886149	0.767701	0.030917
O19	O	0.893720	1.180157	-0.050691
O20	O	0.912876	1.113271	-0.350933
O21	O	0.642342	1.180122	-0.050671
O22	O	0.989855	0.844477	0.154545
O23	O	1.009011	0.777591	-0.145697
O24	O	0.738477	0.844442	0.154565
O25	O	1.025853	0.964136	-0.164399
O26	O	0.866170	1.031003	0.135854
O27	O	0.755319	1.030988	0.135863
O28	O	1.017406	0.993632	-0.032001
O29	O	0.815311	1.260406	-0.365676
O30	O	0.836042	0.697307	0.169309
O31	O	0.976570	0.697327	0.169297
O32	O	0.987278	0.659935	0.001453
O33	O	0.664074	1.297777	-0.197821
O34	O	0.804602	1.297797	-0.197833
O35	O	0.847669	0.902063	0.061033
O36	O	0.936700	0.880063	-0.037781
O37	O	0.880106	1.077673	-0.158600
O38	O	0.791076	1.099673	-0.059786
C39	C	0.799172	0.685297	-0.068754
C40	C	0.790177	0.585666	-0.058765
C41	C	0.604534	0.978825	-0.098166
C42	C	0.529480	0.978815	-0.098160
C43	C	0.821026	0.427376	-0.093032
C44	C	0.830333	0.530338	-0.103342
C45	C	0.378974	0.871095	-0.032299
C46	C	0.314438	0.939652	0.000751
C47	C	0.392052	0.978845	-0.098175
C48	C	0.322851	0.910287	-0.131191
C49	C	0.259306	0.978865	-0.098189
C50	C	0.328501	1.047414	-0.065071
C51	C	0.336926	1.018021	-0.197063
C52	C	0.272387	1.086660	-0.164046
C53	C	0.468525	0.978830	-0.098165
C54	C	0.182832	0.978889	-0.098199
C55	C	1.046819	0.978888	-0.098202
C56	C	1.121873	0.978898	-0.098208
C57	C	0.842528	0.920015	-0.362312
C58	C	0.848247	0.900045	-0.451955
C59	C	0.852180	1.272415	-0.127614
C60	C	0.861175	1.372046	-0.137603
C61	C	0.822723	0.989169	-0.551855
C62	C	0.828633	0.968531	-0.644507
C63	C	0.808825	1.037698	0.165945
C64	C	0.803106	1.057668	0.255587
C65	C	1.020315	0.685329	-0.068772
C66	C	1.086374	0.585708	-0.058790
C67	C	0.782321	0.744139	0.195375
C68	C	0.767607	0.664478	0.295006
C69	C	1.003464	0.744170	0.195357
C70	C	1.063803	0.664520	0.294982
C71	C	0.647889	1.213543	-0.391725
C72	C	0.587550	1.293193	-0.491350
C73	C	0.631038	1.272384	-0.127596
C74	C	0.564979	1.372005	-0.137578
C75	C	0.869032	1.213574	-0.391743
C76	C	0.883746	1.293235	-0.491374
C77	C	1.077504	0.527427	-0.105683
C78	C	1.139569	0.433832	-0.096325
C79	C	1.210502	0.398514	-0.040066
C80	C	1.219370	0.456804	0.006828
C81	C	1.157307	0.550403	-0.002537
C82	C	0.800588	0.638566	0.393376
C83	C	0.786760	0.563731	0.486996
C84	C	0.739954	0.514803	0.482246
C85	C	0.706969	0.540721	0.383866
C86	C	0.720793	0.615561	0.290247
C87	C	1.138619	0.615631	0.290187
C88	C	1.195323	0.540802	0.383786
C89	C	1.177208	0.514857	0.482179
C90	C	1.102384	0.563755	0.486971
C91	C	1.045683	0.638588	0.393373
C92	C	0.512734	1.342093	-0.486556
C93	C	0.456033	1.416951	-0.580158
C94	C	0.474149	1.442901	-0.678552
C95	C	0.548972	1.393997	-0.683343
C96	C	0.605672	1.319147	-0.589743
C97	C	0.573850	1.430293	-0.090694
C98	C	0.511789	1.523910	-0.100078
C99	C	0.440857	1.559230	-0.156341
C100	C	0.431988	1.500936	-0.203231
C101	C	0.494049	1.407327	-0.193853
C102	C	0.930555	1.342141	-0.486589
C103	C	0.944396	1.416980	-0.580194
C104	C	0.911422	1.442918	-0.678583
C105	C	0.864610	1.394004	-0.683365
C106	C	0.850775	1.319159	-0.589761
H107	H	0.779765	0.398516	-0.047236
Cl108	Cl	0.823155	1.426635	-0.807065
H109	H	0.374226	1.529709	-0.249040
H110	H	0.519025	1.571359	-0.061889
H111	H	0.776878	1.149257	-0.761357
Cl112	Cl	0.482882	1.334053	-0.252792
H113	H	0.395113	1.456756	-0.576235
H114	H	0.693936	0.636646	0.210154
H115	H	0.854866	0.876943	-0.627565
H116	H	0.497969	1.320969	-0.406447
H117	H	0.984764	0.678384	0.397292
H118	H	0.427973	1.503850	-0.754759
Cl119	Cl	0.782232	1.130570	-0.578014
H120	H	0.812656	1.279347	-0.593672
H121	H	0.304185	0.906539	0.084374
Cl122	Cl	1.168469	0.623654	0.056433
H123	H	0.390329	1.635455	-0.163969
H124	H	0.957409	1.321036	-0.406485
H125	H	0.982511	1.456801	-0.576280
H126	H	1.153383	0.636743	0.210079
H127	H	0.922693	1.503863	-0.754794
H128	H	1.087645	0.542619	0.567096
Cl129	Cl	0.894051	0.574871	-0.174039
Cl130	Cl	0.888748	0.758644	-0.425797
Cl131	Cl	0.571733	1.426627	-0.807047
Cl132	Cl	0.333213	1.136878	-0.021819
Cl133	Cl	1.288517	0.280840	-0.028300
Cl134	Cl	0.828236	0.531160	0.610661
Cl135	Cl	0.726460	0.541134	0.011935
H136	H	0.902443	0.400898	-0.183389
H137	H	0.666589	1.279331	-0.593658
H138	H	1.256244	0.500996	0.379865
Cl139	Cl	0.663016	1.385917	-0.019964
H140	H	0.838700	0.678398	0.397263
H141	H	1.223385	0.453921	0.558385
Cl142	Cl	0.988340	0.571810	-0.176421
Cl143	Cl	0.449661	0.730458	0.053796
H144	H	0.226701	1.177850	-0.219756
Cl145	Cl	0.352799	1.069083	-0.326138
H146	H	0.319724	0.852302	-0.159109
H147	H	1.277132	0.428034	0.052634
Cl148	Cl	1.128402	0.360566	-0.155280
H149	H	0.668859	0.500873	0.380014
H150	H	0.728704	0.453865	0.558485
