data_functionalizedCrystal
_audit_creation_method	'MofGen! by Chris Wilmer'
_symmetry_space_group_name_H-M	'P1'
_symmetry_Int_Tables_number	1
_symmetry_cell_setting	triclinic
loop_
_symmetry_equiv_pos_as_xyz
  x,y,z
_cell_length_a	15.995350
_cell_length_b	15.995350
_cell_length_c	11.892095
_cell_angle_alpha	93.891441
_cell_angle_beta	86.104556
_cell_angle_gamma	83.492375
loop_
_atom_site_label
_atom_site_type_symbol
_atom_site_fract_x
_atom_site_fract_y
_atom_site_fract_z
O1	O	1.116333	0.102579	-0.093902
O2	O	0.872559	0.115906	-0.093924
O3	O	1.001110	-0.012645	-0.093911
O4	O	0.987783	0.231130	-0.093915
O5	O	0.990392	-0.001943	0.094095
O6	O	0.861841	0.126608	0.094082
O7	O	1.105615	0.113281	0.094105
Zn8	Zn	0.982026	0.121644	0.123943
Zn9	Zn	0.996148	0.107543	-0.123763
O10	O	0.977064	0.241832	0.094092
C11	C	0.836006	0.120705	0.000076
C12	C	0.743056	0.119053	0.000067
C13	C	0.995200	-0.038489	0.000090
C14	C	0.993549	-0.131440	0.000083
C15	C	0.405307	0.113122	0.000091
C16	C	0.452717	0.021594	0.000511
C17	C	0.549432	0.023222	0.000080
C18	C	0.572868	0.116064	0.000080
C19	C	0.537901	0.155110	-0.107277
C20	C	0.441270	0.152805	-0.107359
C21	C	0.428743	0.166867	0.106439
C22	C	0.525608	0.166925	0.107850
C23	C	0.667566	0.117731	0.000070
C24	C	0.310609	0.111457	0.000093
C25	C	0.987616	-0.469187	0.000086
C26	C	0.896089	-0.421777	-0.000344
C27	C	0.897717	-0.325063	0.000080
C28	C	0.990559	-0.301627	0.000084
C29	C	1.029595	-0.336593	0.107447
C30	C	1.027290	-0.433223	0.107537
C31	C	1.041370	-0.445751	-0.106261
C32	C	1.041429	-0.348887	-0.107680
C33	C	0.992227	-0.206929	0.000087
C34	C	0.985951	-0.563885	0.000091
C35	C	1.142169	0.108481	0.000102
C36	C	1.235119	0.110133	0.000103
C37	C	0.982975	0.267676	0.000088
C38	C	0.984626	0.360626	0.000087
N39	N	0.972395	0.131266	0.292997
N40	N	1.005786	0.097914	-0.292816
C41	C	1.072808	0.030909	0.529655
C42	C	1.066082	0.037641	0.647996
C43	C	0.952212	0.151458	0.648022
C44	C	0.958938	0.144726	0.529681
C45	C	1.019239	0.084450	0.470501
C46	C	1.025969	0.077723	0.352158
C47	C	0.912096	0.191535	0.352187
C48	C	0.905370	0.198267	0.470528
H49	H	0.573473	-0.007893	0.077038
H50	H	0.403568	0.141568	0.187813
H51	H	0.903111	0.200527	0.696222
C52	C	0.421756	-0.021926	0.104519
N53	N	0.398429	-0.054706	0.182860
C54	C	0.432131	-0.033512	-0.102910
N55	N	0.416622	-0.075017	-0.180808
H56	H	1.109702	-0.005958	0.696155
C57	C	1.139142	-0.035390	0.464554
N58	N	1.189105	-0.085328	0.415522
H59	H	0.409300	0.219744	-0.112231
H60	H	0.581685	-0.016902	-0.077011
H61	H	0.855294	-0.437014	0.076213
H62	H	1.075071	0.028646	0.303975
H63	H	1.012941	-0.326159	-0.187105
C64	C	1.007196	-0.479753	-0.216195
N65	N	0.981447	-0.505361	-0.298992
H66	H	0.857587	-0.292810	0.077167
C67	C	0.557295	0.246948	-0.112678
N68	N	0.571905	0.316121	-0.116745
C69	C	0.976615	-0.451778	0.215947
N70	N	0.938442	-0.465748	0.297603
C71	C	0.839036	0.264560	0.535639
N72	N	0.789072	0.314494	0.584680
C73	C	1.133398	-0.328639	-0.116431
N74	N	1.202672	-0.313391	-0.123011
C75	C	0.855683	-0.292581	-0.103887
N76	N	0.824017	-0.268119	-0.182196
H77	H	1.094228	-0.465194	0.112411
H78	H	0.427537	0.115307	-0.187611
H79	H	0.868479	0.235134	0.304011
C80	C	0.582380	0.106591	-0.215217
N81	N	0.615880	0.070041	-0.296515
H82	H	0.548396	0.138482	0.187273
C83	C	0.852576	-0.452742	-0.104349
N84	N	0.819800	-0.476073	-0.182687
H85	H	0.540603	0.234998	0.114335
H86	H	0.396940	0.234408	0.107165
C87	C	1.121428	-0.317185	0.112864
N88	N	1.190594	-0.302559	0.116946
C89	C	1.132614	-0.488719	-0.107238
N90	N	1.201335	-0.521087	-0.107966
C91	C	0.981067	-0.292114	0.215381
N92	N	0.944510	-0.258615	0.296675
