data_functionalizedCrystal
_audit_creation_method	'MofGen! by Chris Wilmer'
_symmetry_space_group_name_H-M	'P1'
_symmetry_Int_Tables_number	1
_symmetry_cell_setting	triclinic
loop_
_symmetry_equiv_pos_as_xyz
  x,y,z
_cell_length_a	8.559649
_cell_length_b	12.837942
_cell_length_c	7.681481
_cell_angle_alpha	83.650030
_cell_angle_beta	94.912730
_cell_angle_gamma	82.303802
loop_
_atom_site_label
_atom_site_type_symbol
_atom_site_fract_x
_atom_site_fract_y
_atom_site_fract_z
O1	O	2.101388	-0.023861	-0.146421
O2	O	1.644237	0.029033	-0.146427
O3	O	1.862677	-0.147510	-0.146413
O4	O	1.882948	0.152683	-0.146435
O5	O	1.889556	-0.169284	0.146446
O6	O	1.671117	0.007260	0.146433
O7	O	2.128267	-0.045635	0.146438
Zn8	Zn	1.903960	-0.022644	0.192933
Zn9	Zn	1.868545	0.006043	-0.192922
O10	O	1.909828	0.130909	0.146425
C11	C	1.598757	0.022155	0.000003
C12	C	1.423194	0.034087	0.000001
C13	C	1.869268	-0.196472	0.000015
C14	C	1.848841	-0.309923	0.000012
C15	C	2.094398	-0.570428	-0.000022
C16	C	2.075213	-0.677026	-0.000025
C17	C	1.791286	-0.629719	-0.000010
C18	C	1.810471	-0.523121	-0.000007
C19	C	1.962032	-0.493480	-0.000010
C20	C	1.981217	-0.386881	0.000006
C21	C	1.697290	-0.339575	0.000008
C22	C	1.678105	-0.446173	0.000005
C23	C	2.173747	-0.038756	0.000005
C24	C	2.349309	-0.050687	-0.000005
C25	C	1.903237	0.179872	-0.000008
C26	C	1.923662	0.293323	-0.000016
N27	N	1.928141	-0.042224	0.456269
N28	N	1.844375	0.025614	-0.456257
H29	H	2.104626	-0.362751	0.000010
H30	H	2.217806	-0.546296	-0.000007
C31	C	1.730561	0.118085	0.443574
C32	C	1.775795	0.213351	0.488247
C33	C	1.670999	0.298560	0.395978
H34	H	1.626172	0.113337	0.473644
H35	H	1.733202	0.116021	0.320597
H36	H	1.773138	0.215415	0.611197
H37	H	1.880167	0.218134	0.458172
H38	H	1.673640	0.296495	0.273001
H39	H	1.566616	0.293801	0.426055
H40	H	1.701684	0.363207	0.426263
H41	H	1.589510	-0.276912	0.000032
H42	H	1.420374	-0.132400	0.000000
C43	C	1.626884	-0.662131	0.000078
C44	C	1.638427	-0.771958	0.000108
C45	C	1.487014	-0.801856	0.000215
H46	H	1.562181	-0.627451	-0.102014
H47	H	1.581055	-0.642606	0.102252
H48	H	1.684233	-0.791473	-0.102055
H49	H	1.703100	-0.806665	0.102193
H50	H	1.441185	-0.782331	0.102389
H51	H	1.422323	-0.767169	-0.101879
H52	H	1.494827	-0.876377	0.000252
C53	C	1.513491	-0.478274	-0.000353
C54	C	1.418682	-0.426885	-0.151035
C55	C	1.267035	-0.456439	-0.151434
H56	H	1.467479	-0.458690	0.101660
H57	H	1.520946	-0.552772	-0.000456
H58	H	1.411221	-0.352403	-0.150917
H59	H	1.464643	-0.446461	-0.253073
H60	H	1.274490	-0.530937	-0.151536
H61	H	1.221039	-0.436854	-0.049414
H62	H	1.202693	-0.421584	-0.253677
C63	C	2.042049	-0.134699	0.556317
C64	C	1.996855	-0.229962	0.511579
C65	C	2.101756	-0.315170	0.603692
H66	H	2.039518	-0.132719	0.679304
H67	H	2.146403	-0.129867	0.526131
H68	H	1.892528	-0.234793	0.541777
H69	H	1.999394	-0.231977	0.388608
H70	H	2.206109	-0.310338	0.573506
H71	H	2.099217	-0.313179	0.726674
H72	H	2.071115	-0.379815	0.573338
H73	H	2.182999	-0.739675	-0.000040
H74	H	1.352135	0.115796	-0.000022
