data_functionalizedCrystal
_audit_creation_method	'MofGen! by Chris Wilmer'
_symmetry_space_group_name_H-M	'P1'
_symmetry_Int_Tables_number	1
_symmetry_cell_setting	triclinic
loop_
_symmetry_equiv_pos_as_xyz
  x,y,z
_cell_length_a	12.594517
_cell_length_b	16.959454
_cell_length_c	16.959447
_cell_angle_alpha	90.026736
_cell_angle_beta	90.020251
_cell_angle_gamma	90.015013
loop_
_atom_site_label
_atom_site_type_symbol
_atom_site_fract_x
_atom_site_fract_y
_atom_site_fract_z
Zn1	Zn	-1.627179	0.314773	-0.447053
Zn2	Zn	-1.627074	0.446965	-0.314883
Zn3	Zn	-1.449200	0.314793	-0.314877
Zn4	Zn	-1.449152	0.446901	-0.447008
O5	O	-1.538151	0.380858	-0.380955
O6	O	-1.776111	0.332326	-0.429542
O7	O	-1.603455	0.429467	-0.204271
O8	O	-1.472873	0.204179	-0.332427
O9	O	-1.776034	0.429448	-0.332437
O10	O	-1.603633	0.204164	-0.429536
O11	O	-1.472772	0.332361	-0.204267
O12	O	-1.300248	0.332299	-0.332383
O13	O	-1.472792	0.429339	-0.557625
O14	O	-1.300213	0.429359	-0.429459
O15	O	-1.603587	0.332265	-0.557658
O16	O	-1.603409	0.557568	-0.332393
O17	O	-1.472691	0.557521	-0.429465
C18	C	-1.261610	0.380825	-0.380916
C19	C	-1.143305	0.380830	-0.380918
C20	C	-1.538062	0.586224	-0.380942
C21	C	-1.538121	0.674081	-0.380963
C22	C	-1.538196	0.380793	-0.587124
C23	C	-1.538215	0.380765	-0.674980
C24	C	-1.074040	0.327962	-0.328215
C25	C	-1.003225	0.400058	-0.308770
C26	C	-1.003321	0.308756	-0.400365
C27	C	-1.074048	0.452963	-0.361435
C28	C	-1.074151	0.361612	-0.453064
C29	C	-1.003367	0.433758	-0.433645
C30	C	-0.815772	0.380876	-0.380981
C31	C	-0.934078	0.380843	-0.380954
C32	C	-1.538270	0.174690	-0.380986
C33	C	-1.538320	0.086833	-0.380999
C34	C	-1.470185	1.045562	-0.431495
C35	C	-1.606414	1.045551	-0.330496
C36	C	-1.606377	0.963005	-0.330489
C37	C	-1.538242	0.921734	-0.380985
C38	C	-1.470143	0.963008	-0.431488
C39	C	-1.674466	0.921724	-0.279981
C40	C	-1.674431	0.839173	-0.279971
C41	C	-1.606300	0.797900	-0.330472
C42	C	-1.538200	0.839180	-0.380977
C43	C	-1.470065	0.797909	-0.431473
C44	C	-1.401969	0.839187	-0.481984
C45	C	-1.402013	0.921736	-0.481988
C46	C	-1.606257	0.715352	-0.330467
C47	C	-1.470023	0.715356	-0.431466
C48	C	-1.470243	0.431223	-1.046441
C49	C	-1.606441	0.330139	-1.046471
C50	C	-1.606413	0.330156	-0.963925
C51	C	-1.538299	0.380708	-0.922634
C52	C	-1.470214	0.431243	-0.963888
C53	C	-1.674504	0.279627	-0.922665
C54	C	-1.674479	0.279642	-0.840114
C55	C	-1.606360	0.330191	-0.798821
C56	C	-1.538271	0.380728	-0.840080
C57	C	-1.470158	0.431280	-0.798788
C58	C	-1.402063	0.481814	-0.840046
C59	C	-1.402095	0.481792	-0.922595
C60	C	-1.606328	0.330213	-0.716272
C61	C	-1.470130	0.431300	-0.716235
C62	C	-1.538168	0.380866	-0.175589
C63	C	-1.538356	0.380671	-0.087733
H64	H	-0.972072	0.416324	-0.247773
H65	H	-1.105071	0.283304	-0.283596
C66	C	-1.328061	0.794473	-0.536936
C67	C	-1.351167	0.814503	-0.615162
C68	C	-1.283099	0.773331	-0.665804
H69	H	-1.337725	0.739387	-0.529798
H70	H	-1.256542	0.808056	-0.525369
H71	H	-1.422668	0.800914	-0.626725
H72	H	-1.341496	0.869581	-0.622325
H73	H	-1.211581	0.786914	-0.654238
H74	H	-1.292769	0.718248	-0.658660
H75	H	-1.298761	0.786921	-0.718886
H76	H	-1.661772	0.289071	-0.682684
C77	C	-1.748279	0.224655	-0.967541
C78	C	-1.688060	0.173959	-1.014925
C79	C	-1.755988	0.123302	-1.056273
H80	H	-1.794660	0.254806	-0.999805
H81	H	-1.788817	0.194518	-0.931177
H82	H	-1.647540	0.204094	-1.051284
H83	H	-1.641682	0.143791	-0.982680
H84	H	-1.796526	0.093164	-1.019910
H85	H	-1.802365	0.153459	-1.088533
H86	H	-1.715139	0.088894	-1.088422
H87	H	-0.972532	0.478523	-0.478230
C88	C	-1.115081	0.534332	-0.339447
C89	C	-1.029057	0.584853	-0.325843
C90	C	-1.066817	0.659816	-0.305594
H91	H	-1.157009	0.530736	-0.293041
H92	H	-1.157111	0.554515	-0.381357
H93	H	-0.987045	0.564676	-0.283937
H94	H	-0.987120	0.588473	-0.372239
H95	H	-1.108847	0.679999	-0.347504
H96	H	-1.108745	0.656212	-0.259190
H97	H	-1.008457	0.694106	-0.296369
C98	C	-1.327998	0.536561	-0.967345
C99	C	-1.222686	0.519331	-0.947282
C100	C	-1.154402	0.569762	-0.988500
H101	H	-1.343400	0.589703	-0.953837
H102	H	-1.337701	0.529306	-1.022429
H103	H	-1.212988	0.526593	-0.892210
H104	H	-1.207251	0.466199	-0.960792
H105	H	-1.164105	0.562507	-1.043584
H106	H	-1.169814	0.622900	-0.974988
H107	H	-1.082940	0.558074	-0.974899
H108	H	-1.346572	0.955352	-0.523110
C109	C	-1.396388	1.090332	-0.486465
C110	C	-1.419506	1.070207	-0.564686
C111	C	-1.351556	1.111442	-0.615346
H112	H	-1.324837	1.076880	-0.474948
H113	H	-1.406179	1.145414	-0.479295
H114	H	-1.409705	1.015138	-0.571852
H115	H	-1.491044	1.083661	-0.576228
H116	H	-1.361347	1.166524	-0.608176
H117	H	-1.280009	1.097987	-0.603822
H118	H	-1.367238	1.097799	-0.668425
H119	H	-1.661881	1.079159	-0.289380
C120	C	-1.748336	0.224844	-0.795181
C121	C	-1.733741	0.235682	-0.714050
C122	C	-1.801756	0.185214	-0.672632
H123	H	-1.732839	0.171705	-0.808638
H124	H	-1.819881	0.236409	-0.808655
H125	H	-1.662212	0.224112	-0.700581
H126	H	-1.749246	0.288810	-0.700569
H127	H	-1.873301	0.196778	-0.686106
H128	H	-1.786253	0.132078	-0.686096
H129	H	-1.791870	0.192565	-0.617581
C130	C	-1.680215	0.275163	-1.091343
C131	C	-1.619994	0.224472	-1.138731
C132	C	-1.687919	0.173808	-1.180074
H133	H	-1.726605	0.305309	-1.123604
H134	H	-1.720742	0.245021	-1.054976
H135	H	-1.579485	0.254610	-1.175094
H136	H	-1.573606	0.194308	-1.106490
H137	H	-1.728446	0.143667	-1.143707
H138	H	-1.734307	0.203961	-1.212330
H139	H	-1.647069	0.139404	-1.212226
C140	C	-1.748287	0.966674	-0.225164
C141	C	-1.733721	1.047801	-0.235964
C142	C	-1.801670	1.089237	-0.185451
H143	H	-1.732710	0.953239	-0.172038
H144	H	-1.819846	0.953194	-0.236712
H145	H	-1.662177	1.061276	-0.224411
H146	H	-1.749305	1.061260	-0.289080
H147	H	-1.873230	1.075757	-0.196998
H148	H	-1.786087	1.075796	-0.132327
H149	H	-1.791803	1.144286	-0.192776
H150	H	-1.105329	0.345325	-0.514042
H151	H	-0.972198	0.247806	-0.416770
C152	C	-1.680000	0.670493	-0.275535
C153	C	-1.619747	0.623171	-0.224816
C154	C	-1.687646	0.581843	-0.174193
H155	H	-1.726358	0.638188	-0.305710
H156	H	-1.720563	0.706869	-0.245413
H157	H	-1.579203	0.586799	-0.254935
H158	H	-1.573392	0.655456	-0.194624
H159	H	-1.728209	0.618219	-0.144071
H160	H	-1.734001	0.549543	-0.204374
H161	H	-1.646775	0.549736	-0.139769
H162	H	-1.729879	0.805569	-0.238844
C163	C	-1.396216	0.486101	-0.671264
C164	C	-1.410746	0.475295	-0.590140
C165	C	-1.342666	0.525756	-0.548689
H166	H	-1.411696	0.539241	-0.684689
H167	H	-1.324689	0.474511	-0.684742
H168	H	-1.482257	0.486891	-0.576667
H169	H	-1.395258	0.422166	-0.576691
H170	H	-1.271139	0.514165	-0.562167
H171	H	-1.358152	0.578892	-0.562121
H172	H	-1.352509	0.518426	-0.493643
C173	C	-1.328259	0.536836	-0.795247
C174	C	-1.351421	0.615040	-0.815297
C175	C	-1.283473	0.665749	-0.774030
H176	H	-1.256710	0.525368	-0.808723
H177	H	-1.338021	0.529661	-0.740169
H178	H	-1.341650	0.622211	-0.870362
H179	H	-1.422958	0.626532	-0.801818
H180	H	-1.293235	0.658574	-0.718952
H181	H	-1.211928	0.654274	-0.787510
H182	H	-1.299186	0.718816	-0.787622
H183	H	-1.414543	0.681758	-0.472589
H184	H	-1.414799	0.472364	-1.080037
