data_functionalizedCrystal
_audit_creation_method	'MofGen! by Chris Wilmer'
_symmetry_space_group_name_H-M	'P1'
_symmetry_Int_Tables_number	1
_symmetry_cell_setting	triclinic
loop_
_symmetry_equiv_pos_as_xyz
  x,y,z
_cell_length_a	16.992694
_cell_length_b	16.053919
_cell_length_c	16.992695
_cell_angle_alpha	87.291003
_cell_angle_beta	90.668223
_cell_angle_gamma	87.284492
loop_
_atom_site_label
_atom_site_type_symbol
_atom_site_fract_x
_atom_site_fract_y
_atom_site_fract_z
O1	O	-1.053991	0.069324	-0.170043
O2	O	-0.720658	0.402658	0.163290
O3	O	-0.387325	0.735991	0.496624
O4	O	-0.825592	0.069349	-0.168213
O5	O	-0.492259	0.402682	0.165120
O6	O	-0.158926	0.736016	0.498454
O7	O	-0.938876	0.069330	-0.054928
O8	O	-0.605543	0.402663	0.278406
O9	O	-0.272209	0.735997	0.611739
O10	O	-0.940708	0.069343	-0.283328
O11	O	-0.607374	0.402676	0.050005
O12	O	-0.274041	0.736010	0.383338
O13	O	-0.932574	-0.069526	-0.048661
O14	O	-0.599241	0.263807	0.284672
O15	O	-0.265908	0.597140	0.618006
O16	O	-0.819291	-0.069508	-0.161946
O17	O	-0.485957	0.263826	0.171387
O18	O	-0.152624	0.597159	0.504720
O19	O	-1.047690	-0.069532	-0.163776
O20	O	-0.714356	0.263801	0.169557
O21	O	-0.381023	0.597135	0.502890
Zn22	Zn	-0.932490	-0.091566	-0.161866
Zn23	Zn	-0.599156	0.241767	0.171467
Zn24	Zn	-0.265823	0.575100	0.504800
Zn25	Zn	-0.940792	0.091383	-0.170123
Zn26	Zn	-0.607459	0.424716	0.163210
Zn27	Zn	-0.274126	0.758050	0.496544
O28	O	-0.934406	-0.069513	-0.277062
O29	O	-0.601073	0.263820	0.056272
O30	O	-0.267740	0.597153	0.389605
C31	C	-0.793082	-0.000076	-0.162724
C32	C	-0.459748	0.333257	0.170609
C33	C	-0.126415	0.666590	0.503943
C34	C	-0.705597	-0.000067	-0.155696
C35	C	-0.372264	0.333266	0.177638
C36	C	-0.038931	0.666600	0.510971
C37	C	-0.933369	-0.000098	-0.022434
C38	C	-0.600036	0.333236	0.310899
C39	C	-0.266703	0.666569	0.644232
C40	C	-0.926341	-0.000097	0.065050
C41	C	-0.593007	0.333237	0.398384
C42	C	-0.259674	0.666570	0.731717
N43	N	-0.926829	-0.216424	-0.156231
N44	N	-0.593496	0.116909	0.177102
N45	N	-0.260163	0.450242	0.510435
C46	C	-1.080201	-0.000105	-0.169265
C47	C	-0.746867	0.333228	0.164068
C48	C	-0.413534	0.666561	0.497401
C49	C	-1.167685	-0.000109	-0.176294
C50	C	-0.834352	0.333224	0.157039
C51	C	-0.501018	0.666558	0.490373
C52	C	-0.659607	-0.000064	-0.223514
C53	C	-0.326273	0.333270	0.109820
C54	C	0.007060	0.666603	0.443153
C55	C	-0.577405	-0.000076	-0.216904
C56	C	-0.244072	0.333258	0.116429
C57	C	0.089261	0.666591	0.449762
C58	C	-0.541197	-0.000085	-0.142476
C59	C	-0.207863	0.333249	0.190857
C60	C	0.125470	0.666582	0.524190
C61	C	-0.587193	-0.000091	-0.074653
C62	C	-0.253860	0.333243	0.258680
C63	C	0.079473	0.666576	0.592014
C64	C	-0.669393	-0.000085	-0.081263
C65	C	-0.336060	0.333249	0.252070
C66	C	-0.002726	0.666582	0.585404
C67	C	-0.295881	-0.000109	-0.115081
C68	C	0.037452	0.333225	0.218253
C69	C	0.370785	0.666558	0.551586
C70	C	-0.213676	-0.000112	-0.108476
C71	C	0.119658	0.333221	0.224857
C72	C	0.452991	0.666555	0.558191
C73	C	-0.203893	-0.000099	-0.250728
C74	C	0.129440	0.333234	0.082605
C75	C	0.462773	0.666568	0.415939
C76	C	-0.286095	-0.000088	-0.257332
C77	C	0.047238	0.333245	0.076002
C78	C	0.380572	0.666579	0.409335
C79	C	-0.332084	-0.000098	-0.189508
C80	C	0.001249	0.333235	0.143825
C81	C	0.334582	0.666569	0.477159
N82	N	-0.457174	-0.000094	-0.135719
N83	N	-0.123841	0.333239	0.197615
N84	N	0.209493	0.666572	0.530948
N85	N	-0.416105	-0.000094	-0.196266
N86	N	-0.082772	0.333239	0.137067
N87	N	0.250561	0.666572	0.470401
C88	C	-0.897707	-0.740046	-0.126975
C89	C	-0.564374	-0.406712	0.206358
C90	C	-0.231040	-0.073379	0.539691
C91	C	-0.901663	-0.652640	-0.130947
C92	C	-0.568330	-0.319307	0.202386
C93	C	-0.234997	0.014026	0.535719
C94	C	-0.954368	-0.608950	-0.183701
C95	C	-0.621035	-0.275617	0.149633
C96	C	-0.287701	0.057717	0.482966
C97	C	-1.003125	-0.652669	-0.232479
C98	C	-0.669792	-0.319336	0.100854
C99	C	-0.336459	0.013997	0.434187
C100	C	-0.999172	-0.740073	-0.228503
C101	C	-0.665839	-0.406740	0.104830
C102	C	-0.332506	-0.073406	0.438164
C103	C	-0.971634	-0.347547	-0.201034
C104	C	-0.638300	-0.014214	0.132300
C105	C	-0.304967	0.319119	0.465633
C106	C	-0.975581	-0.260138	-0.205008
C107	C	-0.642248	0.073196	0.128325
C108	C	-0.308914	0.406529	0.461658
C109	C	-0.874120	-0.260115	-0.103475
C110	C	-0.540786	0.073219	0.229859
C111	C	-0.207453	0.406552	0.563192
C112	C	-0.870168	-0.347520	-0.099506
C113	C	-0.536835	-0.014187	0.233827
C114	C	-0.203501	0.319147	0.567161
C115	C	-0.918928	-0.391232	-0.148282
C116	C	-0.585595	-0.057898	0.185052
C117	C	-0.252262	0.275435	0.518385
N118	N	-0.958412	-0.519608	-0.187764
N119	N	-0.625078	-0.186275	0.145570
N120	N	-0.291745	0.147059	0.478903
N121	N	-0.914888	-0.480572	-0.144214
N122	N	-0.581555	-0.147239	0.189119
N123	N	-0.248221	0.186094	0.522452
N124	N	-0.946459	0.216241	-0.175752
N125	N	-0.613125	0.549574	0.157581
N126	N	-0.279792	0.882908	0.490915
C127	C	-0.939913	-0.000084	-0.309555
C128	C	-0.606579	0.333250	0.023778
C129	C	-0.273246	0.666583	0.357111
C130	C	-0.946942	-0.000079	-0.397040
C131	C	-0.613608	0.333254	-0.063707
C132	C	-0.280275	0.666588	0.269627
C133	C	-0.994158	-0.000105	0.111042
C134	C	-0.660825	0.333228	0.444375
C135	C	-0.327492	0.666562	0.777708
C136	C	-0.987550	-0.000096	0.193242
C137	C	-0.654216	0.333237	0.526575
C138	C	-0.320883	0.666570	0.859909
C139	C	-0.913123	-0.000086	0.229450
C140	C	-0.579789	0.333248	0.562783
C141	C	-0.246456	0.666581	0.896116
C142	C	-0.845300	-0.000075	0.183452
C143	C	-0.511967	0.333258	0.516786
C144	C	-0.178633	0.666592	0.850119
C145	C	-0.851910	-0.000078	0.101253
C146	C	-0.518576	0.333256	0.434587
C147	C	-0.185243	0.666589	0.767920
C148	C	-0.885729	-0.000071	0.474763
C149	C	-0.552395	0.333262	0.808097
C150	C	-0.219062	0.666596	1.141430
C151	C	-0.879124	-0.000071	0.556969
C152	C	-0.545791	0.333262	0.890302
C153	C	-0.212457	0.666596	1.223635
C154	C	-1.021375	-0.000091	0.566753
C155	C	-0.688041	0.333242	0.900086
C156	C	-0.354708	0.666576	1.233419
C157	C	-1.027977	-0.000099	0.484552
C158	C	-0.694644	0.333235	0.817885
C159	C	-0.361311	0.666568	1.151218
C160	C	-0.960155	-0.000083	0.438561
C161	C	-0.626822	0.333250	0.771895
C162	C	-0.293488	0.666583	1.105228
N163	N	-0.906366	-0.000079	0.313472
N164	N	-0.573032	0.333254	0.646805
N165	N	-0.239699	0.666587	0.980138
N166	N	-0.966913	-0.000084	0.354541
N167	N	-0.633580	0.333250	0.687874
N168	N	-0.300246	0.666583	1.021207
H169	H	-0.689081	-0.000056	-0.284121
H170	H	-0.355748	0.333278	0.049212
H171	H	-0.022415	0.666611	0.382546
H172	H	-0.315571	-0.000071	-0.317939
H173	H	0.017763	0.333263	0.015394
H174	H	0.351096	0.666596	0.348728
Br175	Br	-0.807950	-0.200788	-0.037281
Br176	Br	-0.474617	0.132546	0.296052
Br177	Br	-0.141284	0.465879	0.629385
H178	H	-0.830503	-0.000059	0.437328
H179	H	-0.497169	0.333274	0.770661
H180	H	-0.163836	0.666608	1.103994
H181	H	-1.046042	-0.617090	-0.275429
H182	H	-0.712709	-0.283756	0.057905
H183	H	-0.379376	0.049577	0.391238
Br184	Br	-0.835473	-0.593318	-0.064771
Br185	Br	-0.502139	-0.259985	0.268562
Br186	Br	-0.168806	0.073348	0.601896
H187	H	-1.018499	-0.224567	-0.247972
H188	H	-0.685165	0.108766	0.085362
H189	H	-0.351832	0.442099	0.418695
Br190	Br	-0.514992	-0.000069	-0.308948
Br191	Br	-0.181659	0.333265	0.024385
Br192	Br	0.151675	0.666598	0.357719
H193	H	-1.054765	-0.000119	0.081568
H194	H	-0.721431	0.333214	0.414901
H195	H	-0.388098	0.666548	0.748235
Br196	Br	-0.164535	-0.000142	-0.007459
Br197	Br	0.168798	0.333191	0.325874
Br198	Br	0.502132	0.666524	0.659208
H199	H	-0.796685	-0.000071	0.063808
H200	H	-0.463352	0.333263	0.397141
H201	H	-0.130018	0.666596	0.730474
H202	H	-1.011337	-0.383127	-0.240751
H203	H	-0.678004	-0.049794	0.092582
H204	H	-0.344670	0.283540	0.425916
H205	H	-1.038872	-0.775663	-0.268222
H206	H	-0.705539	-0.442330	0.065112
H207	H	-0.372205	-0.108997	0.398445
Br208	Br	-0.141476	-0.000086	-0.342769
Br209	Br	0.191858	0.333247	-0.009435
Br210	Br	0.525191	0.666581	0.323898
H211	H	-0.818513	-0.000076	0.586447
H212	H	-0.485180	0.333258	0.919780
H213	H	-0.151846	0.666591	1.253113
Br214	Br	-0.744291	-0.000046	0.232590
Br215	Br	-0.410958	0.333287	0.565923
Br216	Br	-0.077624	0.666621	0.899256
H217	H	-0.557705	-0.000110	-0.014051
H218	H	-0.224372	0.333223	0.319282
H219	H	0.108961	0.666557	0.652615
H220	H	-0.333316	-0.000118	-0.059854
H221	H	0.000017	0.333216	0.273480
H222	H	0.333350	0.666549	0.606813
Br223	Br	-1.079593	-0.000107	0.255656
Br224	Br	-0.746259	0.333226	0.588990
Br225	Br	-0.412926	0.666559	0.922323
Br226	Br	-0.731810	-0.000096	0.010780
Br227	Br	-0.398477	0.333237	0.344113
Br228	Br	-0.065143	0.666570	0.677447
Br229	Br	-0.826170	-0.799331	-0.055384
Br230	Br	-0.492836	-0.465998	0.277950
Br231	Br	-0.159503	-0.132665	0.611283
H232	H	-0.827251	-0.383087	-0.056548
H233	H	-0.493918	-0.049753	0.276786
H234	H	-0.160585	0.283580	0.610119
H235	H	-1.076592	-0.000102	0.604207
H236	H	-0.743258	0.333232	0.937540
H237	H	-0.409925	0.666565	1.270873
H238	H	-1.088584	-0.000108	0.455078
H239	H	-0.755250	0.333226	0.788411
H240	H	-0.421917	0.666559	1.121744
