data_functionalizedCrystal
_audit_creation_method	'MofGen! by Chris Wilmer'
_symmetry_space_group_name_H-M	'P1'
_symmetry_Int_Tables_number	1
_symmetry_cell_setting	triclinic
loop_
_symmetry_equiv_pos_as_xyz
  x,y,z
_cell_length_a	13.635800
_cell_length_b	17.458045
_cell_length_c	9.582880
_cell_angle_alpha	87.839588
_cell_angle_beta	111.207034
_cell_angle_gamma	73.632038
loop_
_atom_site_label
_atom_site_type_symbol
_atom_site_fract_x
_atom_site_fract_y
_atom_site_fract_z
V1	V	2.065875	-0.110227	0.467927
O2	O	2.050806	0.005644	0.457651
O3	O	2.048802	-0.218895	0.466043
O4	O	2.061135	-0.108379	0.671406
O5	O	2.038387	-0.105637	0.250867
V6	V	2.304244	-0.096385	0.441805
O7	O	2.203946	-0.140589	0.525228
O8	O	2.391272	-0.066023	0.384504
O9	O	2.209714	0.012283	0.443689
O10	O	2.378012	-0.212256	0.452081
O11	O	2.390431	-0.100975	0.658866
O12	O	2.197381	-0.098233	0.238326
V13	V	2.565875	-0.110227	0.467927
O14	O	2.550806	0.005644	0.457651
O15	O	2.548802	-0.218895	0.466043
O16	O	2.561135	-0.108379	0.671406
O17	O	2.538387	-0.105637	0.250867
V18	V	2.804244	-0.096385	0.441805
O19	O	2.703946	-0.140589	0.525228
O20	O	2.891272	-0.066023	0.384504
O21	O	2.709714	0.012283	0.443689
O22	O	2.878012	-0.212256	0.452081
O23	O	2.890431	-0.100975	0.658866
O24	O	2.697381	-0.098233	0.238326
C25	C	1.972406	-0.245391	0.459001
C26	C	1.999220	-0.334228	0.458817
C27	C	1.919765	-0.371901	0.451212
C28	C	1.944960	-0.455371	0.451021
C29	C	2.049615	-0.501168	0.458445
C30	C	2.129074	-0.463489	0.466046
C31	C	2.103875	-0.380019	0.466226
C32	C	2.134847	-0.751241	0.458702
C33	C	2.160042	-0.834717	0.458526
C34	C	1.975926	-0.826593	0.443498
C35	C	1.950737	-0.743123	0.443688
C36	C	2.030196	-0.705450	0.451281
N37	N	2.075372	-0.586488	0.458255
N38	N	2.004435	-0.620131	0.451460
C39	C	1.988138	-0.104416	0.720960
C40	C	2.024952	-0.103624	0.887313
C41	C	2.117781	0.038774	0.450727
C42	C	2.080587	0.127610	0.450921
C43	C	2.102048	-0.102199	0.188765
C44	C	2.054854	-0.102987	0.022410
C45	C	2.472406	-0.245391	0.459001
C46	C	2.499220	-0.334228	0.458817
C47	C	2.488138	-0.104416	0.720960
C48	C	2.524952	-0.103624	0.887313
C49	C	2.617781	0.038774	0.450727
C50	C	2.580587	0.127610	0.450921
C51	C	2.602048	-0.102199	0.188765
C52	C	2.554854	-0.102987	0.022410
C53	C	2.603878	-0.380016	0.466256
C54	C	2.629092	-0.463490	0.466106
C55	C	2.549644	-0.501173	0.458506
C56	C	2.444978	-0.455379	0.451070
C57	C	2.419768	-0.371908	0.451231
C58	C	2.648424	0.173398	0.443486
C59	C	2.613482	0.256871	0.443643
C60	C	2.510707	0.294555	0.451247
C61	C	2.442865	0.248761	0.458679
C62	C	2.477804	0.165290	0.458510
H63	H	1.880252	-0.486039	0.444807
H64	H	2.482271	0.362523	0.451382
C65	C	2.688125	0.307230	0.435486
C66	C	2.805043	0.288314	0.559966
C67	C	2.879688	0.338669	0.551812
C68	C	2.837415	0.407939	0.419177
C69	C	2.720492	0.426858	0.294688
C70	C	2.645846	0.376503	0.302842
H71	H	2.836341	0.237033	0.658158
H72	H	2.966243	0.324664	0.643968
H73	H	2.892672	0.445215	0.413141
H74	H	2.689193	0.478139	0.196495
H75	H	2.559291	0.390508	0.210686
H76	H	1.834549	-0.334620	0.445178
H77	H	1.865518	-0.705840	0.437636
H78	H	1.911237	-0.857275	0.437314
H79	H	2.359183	0.279456	0.464868
H80	H	2.245266	-0.872003	0.464572
H81	H	2.422560	0.128015	0.464578
H82	H	2.732112	0.142727	0.437295
H83	H	2.199555	-0.720579	0.464897
H84	H	2.714319	-0.500763	0.472157
H85	H	2.214285	-0.500782	0.472084
H86	H	2.168575	-0.349346	0.472410
H87	H	2.570186	-0.569142	0.458376
H88	H	2.668580	-0.349344	0.472436
H89	H	2.334543	-0.334633	0.445165
H90	H	2.380298	-0.486074	0.444882
