data_functionalizedCrystal
_audit_creation_method	'MofGen! by Chris Wilmer'
_symmetry_space_group_name_H-M	'P1'
_symmetry_Int_Tables_number	1
_symmetry_cell_setting	triclinic
loop_
_symmetry_equiv_pos_as_xyz
  x,y,z
_cell_length_a	12.645331
_cell_length_b	18.101397
_cell_length_c	12.645323
_cell_angle_alpha	89.967526
_cell_angle_beta	89.977324
_cell_angle_gamma	90.019444
loop_
_atom_site_label
_atom_site_type_symbol
_atom_site_fract_x
_atom_site_fract_y
_atom_site_fract_z
Zn1	Zn	1.620711	-0.294844	-0.599390
Zn2	Zn	2.120711	0.205156	-0.099390
Zn3	Zn	1.620584	-0.418694	-0.422107
Zn4	Zn	2.120584	0.081306	0.077893
Zn5	Zn	1.443425	-0.294869	-0.422135
Zn6	Zn	1.943425	0.205131	0.077865
Zn7	Zn	1.443399	-0.418646	-0.599322
Zn8	Zn	1.943399	0.081354	-0.099322
O9	O	1.532030	-0.356763	-0.510738
O10	O	2.032030	0.143237	-0.010738
O11	O	1.769041	-0.311283	-0.575890
O12	O	2.269041	0.188717	-0.075890
O13	O	1.597042	-0.402299	-0.273763
O14	O	2.097042	0.097701	0.226237
O15	O	1.467007	-0.191233	-0.445688
O16	O	1.967007	0.308767	0.054312
O17	O	1.768948	-0.402275	-0.445641
O18	O	2.268948	0.097725	0.054359
O19	O	1.597258	-0.191214	-0.575917
O20	O	2.097258	0.308786	-0.075917
O21	O	1.466884	-0.311325	-0.273784
O22	O	1.966884	0.188675	0.226216
O23	O	1.295075	-0.311278	-0.445622
O24	O	1.795075	0.188722	0.054378
O25	O	1.466961	-0.402193	-0.747679
O26	O	1.966961	0.097807	-0.247679
O27	O	1.295055	-0.402217	-0.575801
O28	O	1.795055	0.097783	-0.075801
O29	O	1.597232	-0.311236	-0.747729
O30	O	2.097232	0.188764	-0.247729
O31	O	1.597016	-0.522321	-0.445575
O32	O	2.097016	-0.022321	0.054425
O33	O	1.466838	-0.522285	-0.575774
O34	O	1.966838	-0.022285	-0.075774
C35	C	1.256600	-0.356746	-0.510708
C36	C	1.756600	0.143254	-0.010708
C37	C	1.138770	-0.356756	-0.510720
C38	C	1.638770	0.143244	-0.010720
C39	C	1.531939	-0.549174	-0.510687
C40	C	2.031939	-0.049174	-0.010687
C41	C	1.531997	-0.631488	-0.510701
C42	C	2.031997	-0.131488	-0.010701
C43	C	0.971183	-0.299283	-0.429276
C44	C	1.471183	0.200717	0.070724
C45	C	1.093743	-0.299432	-0.428917
C46	C	1.593743	0.200568	0.071083
C47	C	1.094244	-0.434770	-0.480190
C48	C	1.594244	0.065230	0.019810
C49	C	0.971646	-0.434456	-0.479635
C50	C	1.471646	0.065544	0.020365
C51	C	0.971622	-0.336957	-0.623008
C52	C	1.471622	0.163043	-0.123008
C53	C	1.094228	-0.335215	-0.622384
C54	C	1.594228	0.164785	-0.122384
C55	C	1.532132	-0.930579	-0.510797
C56	C	2.032132	-0.430579	-0.010797
C57	C	1.613808	-0.899245	-0.428660
C58	C	2.113808	-0.399245	0.071340
C59	C	1.614091	-0.813627	-0.428873
C60	C	2.114091	-0.313627	0.071127
C61	C	1.532065	-0.782196	-0.510748
C62	C	2.032065	-0.282196	-0.010748
C63	C	1.562356	-0.813201	-0.622490
C64	C	2.062356	-0.313201	-0.122490
C65	C	1.562988	-0.898846	-0.622043
C66	C	2.062988	-0.398846	-0.122043
C67	C	1.419948	-0.899087	-0.482160
C68	C	1.919948	-0.399087	0.017840
C69	C	1.420502	-0.813438	-0.479666
C70	C	1.920502	-0.313438	0.020334
C71	C	1.532026	-0.698337	-0.510728
C72	C	2.032026	-0.198337	-0.010728
C73	C	1.532175	-1.014438	-0.510826
C74	C	2.032175	-0.514438	-0.010826
C75	C	1.808535	-0.356781	-0.510770
C76	C	2.308535	0.143219	-0.010770
C77	C	1.926365	-0.356789	-0.510783
C78	C	2.426365	0.143211	-0.010783
C79	C	1.532108	-0.356706	-0.787244
C80	C	2.032108	0.143294	-0.287244
C81	C	1.532141	-0.356682	-0.905074
C82	C	2.032141	0.143318	-0.405074
C83	C	1.532150	-0.163601	-0.510813
C84	C	2.032150	0.336399	-0.010813
C85	C	1.532201	-0.081287	-0.510845
C86	C	2.032201	0.418713	-0.010845
C87	C	1.449935	-0.413633	-1.072607
C88	C	1.949935	0.086367	-0.572607
C89	C	1.450150	-0.413915	-0.950047
C90	C	1.950150	0.086085	-0.450047
C91	C	1.643839	-0.377863	-0.949590
C92	C	2.143839	0.122137	-0.449590
C93	C	1.643388	-0.378220	-1.072188
C94	C	2.143388	0.121780	-0.572188
C95	C	1.503705	-0.278231	-1.072287
C96	C	2.003705	0.221769	-0.572287
C97	C	1.501213	-0.278701	-0.949680
C98	C	2.001213	0.221299	-0.449680
C99	C	1.532013	-0.356767	-0.235309
C100	C	2.032013	0.143233	0.264691
C101	C	1.532185	-0.356583	-0.117479
C102	C	2.032185	0.143417	0.382521
H103	H	1.123847	-0.241582	-0.448055
H104	H	1.623847	0.258418	0.051945
H105	H	0.940729	-0.281063	-0.650770
H106	H	1.440729	0.218937	-0.150770
H107	H	1.696454	-0.920714	-0.447390
H108	H	2.196454	-0.420714	0.052610
H109	H	1.706748	-0.338471	-1.101874
H110	H	2.206748	0.161529	-0.601874
H111	H	1.595140	-0.792667	-0.346018
H112	H	2.095140	-0.292667	0.153982
H113	H	0.940334	-0.312246	-0.346603
H114	H	1.440334	0.187754	0.153397
H115	H	1.123336	-0.277805	-0.645405
H116	H	1.623336	0.222195	-0.145405
H117	H	1.667529	-0.435497	-1.100788
H118	H	2.167529	0.064503	-0.600788
H119	H	1.595085	-0.919890	-0.345557
H120	H	2.095085	-0.419890	0.154443
H121	H	1.697191	-0.793084	-0.447820
H122	H	2.197191	-0.293084	0.052180
H123	H	0.942640	-0.378842	-0.683738
H124	H	1.442640	0.121158	-0.183738
H125	H	1.706764	-0.337625	-0.920462
H126	H	2.206764	0.162375	-0.420462
H127	H	1.359094	-0.919351	-0.541984
H128	H	1.859094	-0.419351	-0.041984
H129	H	1.668394	-0.434540	-0.918890
H130	H	2.168394	0.065460	-0.418890
H131	H	1.468552	-0.471356	-1.103415
H132	H	1.968552	0.028644	-0.603415
H133	H	1.423673	-0.258923	-1.103195
H134	H	1.923673	0.241077	-0.603195
H135	H	1.419013	-0.262727	-0.920584
H136	H	1.919013	0.237273	-0.420584
H137	H	1.644990	-0.918766	-0.646300
H138	H	2.144990	-0.418766	-0.146300
H139	H	1.468951	-0.472001	-0.920722
H140	H	1.968951	0.027999	-0.420722
H141	H	0.941998	-0.478752	-0.536411
H142	H	1.441998	0.021248	-0.036411
H143	H	1.124883	-0.374044	-0.686362
H144	H	1.624883	0.125956	-0.186362
H145	H	1.506106	-0.919571	-0.685350
H146	H	2.006106	-0.419571	-0.185350
H147	H	1.504687	-0.792840	-0.685334
H148	H	2.004687	-0.292840	-0.185334
H149	H	1.556744	-0.233948	-0.919067
H150	H	2.056744	0.266052	-0.419067
H151	H	1.123411	-0.478761	-0.537692
H152	H	1.623411	0.021239	-0.037692
H153	H	1.563612	-0.235726	-1.101308
H154	H	2.063612	0.264274	-0.601308
H155	H	1.643440	-0.791694	-0.647158
H156	H	2.143440	-0.291694	-0.147158
H157	H	1.123020	-0.312540	-0.345755
H158	H	1.623020	0.187460	0.154245
H159	H	0.941723	-0.241259	-0.448208
H160	H	1.441723	0.258741	0.051792
H161	H	1.392393	-0.920749	-0.402091
H162	H	1.892393	-0.420749	0.097909
H163	H	0.942999	-0.451274	-0.397592
H164	H	1.442999	0.048726	0.102408
H165	H	1.124898	-0.451877	-0.399029
H166	H	1.624898	0.048123	0.100971
H167	H	1.397662	-0.793181	-0.397433
H168	H	1.897662	-0.293181	0.102567
H169	H	1.356374	-0.792050	-0.535110
H170	H	1.856374	-0.292050	-0.035110
H171	H	1.366861	-0.400505	-1.102083
H172	H	1.866861	0.099495	-0.602083
H173	H	1.367322	-0.400660	-0.919947
H174	H	1.867322	0.099340	-0.419947
