data_functionalizedCrystal
_audit_creation_method	'MofGen! by Chris Wilmer'
_symmetry_space_group_name_H-M	'P1'
_symmetry_Int_Tables_number	1
_symmetry_cell_setting	triclinic
loop_
_symmetry_equiv_pos_as_xyz
  x,y,z
_cell_length_a	10.686220
_cell_length_b	12.827892
_cell_length_c	10.685314
_cell_angle_alpha	85.660270
_cell_angle_beta	98.357367
_cell_angle_gamma	85.601134
loop_
_atom_site_label
_atom_site_type_symbol
_atom_site_fract_x
_atom_site_fract_y
_atom_site_fract_z
Zn1	Zn	1.885474	0.332140	-0.569045
Zn2	Zn	2.385474	0.832140	-0.069045
Zn3	Zn	1.901608	0.492428	-0.356827
Zn4	Zn	2.401608	0.992428	0.143173
Zn5	Zn	1.689484	0.332227	-0.373079
Zn6	Zn	2.189484	0.832227	0.126921
Zn7	Zn	1.673192	0.521373	-0.585267
Zn8	Zn	2.173192	1.021373	-0.085267
O9	O	1.787439	0.419542	-0.471054
O10	O	2.287439	0.919542	0.028946
O11	O	2.065229	0.341253	-0.527303
O12	O	2.565229	0.841253	-0.027303
O13	O	1.887040	0.459100	-0.181368
O14	O	2.387040	0.959100	0.318632
O15	O	1.715548	0.185976	-0.399087
O16	O	2.215548	0.685976	0.100913
O17	O	2.077083	0.459016	-0.371387
O18	O	2.577083	0.959016	0.128613
O19	O	1.859541	0.185912	-0.543062
O20	O	2.359541	0.685912	-0.043062
O21	O	1.731193	0.341401	-0.193308
O22	O	2.231193	0.841401	0.306692
O23	O	1.509707	0.369467	-0.414817
O24	O	2.009707	0.869467	0.085183
O25	O	1.687781	0.508348	-0.760730
O26	O	2.187781	1.008348	-0.260730
O27	O	1.497737	0.508432	-0.570710
O28	O	1.997737	1.008432	-0.070710
O29	O	1.843743	0.369320	-0.748812
O30	O	2.343743	0.869320	-0.248812
O31	O	1.871242	0.642507	-0.387117
O32	O	2.371242	1.142507	0.112883
O33	O	1.703426	0.663773	-0.554951
O34	O	2.203426	1.163773	-0.054951
C35	C	1.457668	0.442101	-0.496288
C36	C	1.957668	0.942101	0.003712
C37	C	1.316589	0.451779	-0.507113
C38	C	1.816589	0.951779	-0.007113
C39	C	1.787349	0.691058	-0.471056
C40	C	2.287349	1.191058	0.028944
C41	C	1.787423	0.807208	-0.471090
C42	C	2.287423	1.307208	0.028910
C43	C	1.870547	0.848435	-0.388122
C44	C	2.370547	1.348435	0.111878
C45	C	1.870626	0.968483	-0.388156
C46	C	2.370626	1.468483	0.111844
C47	C	2.118498	0.396896	-0.445723
C48	C	2.618498	0.896896	0.054277
C49	C	2.259575	0.387246	-0.434928
C50	C	2.759575	0.887246	0.065072
C51	C	1.762145	0.442053	-0.802112
C52	C	2.262145	0.942053	-0.302112
C53	C	1.751366	0.451646	-0.943189
C54	C	2.251366	0.951646	-0.443189
C55	C	1.787551	1.146967	-0.471095
C56	C	2.287551	1.646967	0.028905
C57	C	1.787569	1.030817	-0.471153
C58	C	2.287569	1.530817	0.028847
C59	C	1.812708	0.397038	-0.141279
C60	C	2.312708	0.897038	0.358721
C61	C	1.823733	0.387135	-0.000184
C62	C	2.323733	0.887135	0.499816
H63	H	1.941660	0.794859	-0.317069
H64	H	2.441660	1.294859	0.182931
H65	H	1.318701	0.324593	-0.364834
H66	H	1.818701	0.824593	0.135166
N67	N	1.916734	0.304247	-0.921858
N68	N	2.416734	0.804247	-0.421858
H69	H	1.963496	0.262563	-0.979934
H70	H	2.463496	0.762563	-0.479934
H71	H	1.869243	0.255718	-0.870822
H72	H	2.369243	0.755718	-0.370822
H73	H	1.716321	0.860787	-0.542150
H74	H	2.216321	1.360787	-0.042150
H75	H	1.681160	0.514214	-1.002322
H76	H	2.181160	1.014214	-0.502322
H77	H	1.941788	1.003978	-0.317121
H78	H	2.441788	1.503978	0.182879
N79	N	1.238285	0.534777	-0.599943
N80	N	1.738285	1.034777	-0.099943
H81	H	1.178805	0.500119	-0.663019
H82	H	1.678805	1.000119	-0.163019
H83	H	1.296457	0.576442	-0.646484
H84	H	1.796457	1.076442	-0.146484
N85	N	1.693289	0.983812	-0.565241
N86	N	2.193289	1.483812	-0.065241
H87	H	1.740346	0.938937	-0.620093
H88	H	2.240346	1.438937	-0.120093
H89	H	1.637893	1.041965	-0.620548
H90	H	2.137893	1.541965	-0.120548
