data_functionalizedCrystal
_audit_creation_method	'MofGen! by Chris Wilmer'
_symmetry_space_group_name_H-M	'P1'
_symmetry_Int_Tables_number	1
_symmetry_cell_setting	triclinic
loop_
_symmetry_equiv_pos_as_xyz
  x,y,z
_cell_length_a	17.000371
_cell_length_b	15.995292
_cell_length_c	15.500227
_cell_angle_alpha	92.845027
_cell_angle_beta	87.398169
_cell_angle_gamma	79.533932
loop_
_atom_site_label
_atom_site_type_symbol
_atom_site_fract_x
_atom_site_fract_y
_atom_site_fract_z
O1	O	0.098679	1.107647	0.071968
O2	O	0.111397	0.862928	0.071964
O3	O	-0.010831	1.000482	0.071960
O4	O	0.220907	0.970093	0.071972
O5	O	-0.003443	0.992137	-0.071928
O6	O	0.118785	0.854583	-0.071924
O7	O	0.106067	1.099302	-0.071921
Cu8	Cu	0.113101	0.976181	-0.085060
Cu9	Cu	0.104363	0.986049	0.085104
O10	O	0.228295	0.961748	-0.071916
C11	C	0.114573	0.827598	0.000020
C12	C	0.113022	0.734759	0.000018
C13	C	0.107316	0.397442	0.000028
C14	C	0.195521	0.414277	0.000354
C15	C	0.197214	0.510810	0.000026
C16	C	0.110147	0.564789	0.000024
C17	C	0.070260	0.534169	-0.082143
C18	C	0.069201	0.437453	-0.082208
C19	C	0.058998	0.447220	0.081420
C20	C	0.062212	0.543535	0.082502
C21	C	0.111743	0.659367	0.000018
C22	C	0.105719	0.302863	0.000027
C23	C	-0.036791	0.997942	0.000016
C24	C	-0.125151	1.002796	0.000017
C25	C	-0.157162	0.928102	0.000020
C26	C	-0.240185	0.932667	0.000018
C27	C	-0.291197	1.011928	0.000019
C28	C	-0.259181	1.086628	0.000013
C29	C	-0.176158	1.082061	0.000010
C30	C	-0.542347	1.029568	0.000025
C31	C	-0.625375	1.034129	0.000031
C32	C	-0.606373	0.880167	0.000034
C33	C	-0.523350	0.875608	0.000035
C34	C	-0.491341	0.950307	0.000025
C35	C	-0.376061	1.016597	0.000019
C36	C	-0.406478	0.945637	0.000019
C37	C	0.254255	0.964288	0.000029
C38	C	0.342614	0.959435	0.000034
C39	C	0.102890	1.134632	0.000026
C40	C	0.104442	1.227471	0.000033
N41	N	0.119245	0.969245	-0.204745
C42	C	0.067472	1.027549	-0.250024
C43	C	0.072127	1.022312	-0.340596
C44	C	0.128559	0.958773	-0.385889
C45	C	0.180334	0.900463	-0.340604
C46	C	0.175675	0.905698	-0.250033
C47	C	0.145329	0.939916	-0.659355
C48	C	0.149985	0.934688	-0.749933
C49	C	0.041776	1.056536	-0.749918
C50	C	0.037126	1.061768	-0.659346
C51	C	0.088898	1.003455	-0.614069
C52	C	0.133319	0.953419	-0.478469
C53	C	0.084133	1.008806	-0.521491
N54	N	0.098212	0.992992	0.204789
H55	H	0.104028	0.548427	-0.143290
H56	H	0.004709	0.427448	-0.085942
N57	N	0.091361	0.411883	0.163919
H58	H	0.137676	0.363240	0.149365
H59	H	0.110333	0.458173	0.199573
H60	H	0.021522	1.079292	-0.213152
N61	N	-0.102145	0.842613	0.000026
H62	H	-0.135025	0.795988	0.000026
H63	H	-0.064549	0.834270	-0.053316
H64	H	-0.666908	1.098676	0.000038
H65	H	-0.417604	1.081132	0.000022
H66	H	0.226280	0.848725	-0.377487
H67	H	0.029968	1.069787	-0.377462
H68	H	0.217834	0.858220	-0.213168
H69	H	-0.001593	0.581471	0.087463
H70	H	-0.266244	0.871844	0.000026
N71	N	-0.141631	1.162625	0.000005
H72	H	-0.081296	1.147706	-0.000004
H73	H	-0.157560	1.193938	-0.053339
H74	H	0.091205	0.563265	0.143289
H75	H	0.228728	0.530710	0.058928
H76	H	-0.005967	0.438040	0.081974
N77	N	0.023263	1.077321	-0.472632
H78	H	0.051760	1.114317	-0.435033
H79	H	-0.008822	1.113409	-0.515103
N80	N	-0.468332	0.790119	0.000035
H81	H	-0.501209	0.743492	0.000036
H82	H	-0.430737	0.781779	-0.053307
H83	H	-0.516296	1.090393	0.000019
N84	N	0.201180	0.877026	-0.610540
H85	H	0.234503	0.908593	-0.572947
H86	H	0.168770	0.844374	-0.573029
N87	N	-0.640897	0.799603	0.000042
H88	H	-0.701231	0.814519	0.000043
H89	H	-0.619501	0.762097	-0.053301
N90	N	0.194189	0.884901	-0.527331
H91	H	0.249874	0.891297	-0.511561
H92	H	0.184130	0.827092	-0.511574
N93	N	-0.314196	1.172118	0.000003
H94	H	-0.371649	1.163678	0.000007
H95	H	-0.306566	1.208032	0.053342
N96	N	0.236500	0.378320	0.078405
H97	H	0.237940	0.314868	0.077198
H98	H	0.293011	0.389806	0.077394
N99	N	-0.351454	0.860155	0.000005
H100	H	-0.319315	0.857927	0.053339
H101	H	-0.384374	0.813568	-0.000027
N102	N	-0.023739	1.130300	-0.610496
H103	H	-0.055833	1.166441	-0.652924
H104	H	-0.060871	1.103010	-0.572931
N105	N	-0.014062	1.119426	-0.798752
H106	H	-0.002550	1.106472	-0.863001
H107	H	-0.071345	1.114829	-0.782932
H108	H	0.195943	0.882944	-0.786806
H109	H	0.006347	0.570577	-0.085200
H110	H	0.232345	0.379371	-0.058238
H111	H	0.102901	0.404825	-0.143628
N112	N	0.247259	0.527277	-0.078119
H113	H	0.268298	0.471783	-0.112491
H114	H	0.213210	0.567671	-0.115501
