data_functionalizedCrystal
_audit_creation_method	'MofGen! by Chris Wilmer'
_symmetry_space_group_name_H-M	'P1'
_symmetry_Int_Tables_number	1
_symmetry_cell_setting	triclinic
loop_
_symmetry_equiv_pos_as_xyz
  x,y,z
_cell_length_a	19.288840
_cell_length_b	17.699092
_cell_length_c	17.766277
_cell_angle_alpha	89.995315
_cell_angle_beta	89.983415
_cell_angle_gamma	83.206192
loop_
_atom_site_label
_atom_site_type_symbol
_atom_site_fract_x
_atom_site_fract_y
_atom_site_fract_z
O1	O	0.921478	0.094327	-0.062717
O2	O	1.254812	0.427660	0.270616
O3	O	1.588145	0.760993	0.603949
O4	O	0.719231	0.107083	-0.062691
O5	O	1.052564	0.440416	0.270643
O6	O	1.385897	0.773750	0.603976
O7	O	0.826066	-0.009492	-0.062703
O8	O	1.159399	0.323841	0.270630
O9	O	1.492732	0.657174	0.603964
O10	O	0.814644	0.210902	-0.062705
O11	O	1.147977	0.544236	0.270628
O12	O	1.481310	0.877569	0.603962
O13	O	0.826047	-0.009498	0.062486
O14	O	1.159380	0.323835	0.395819
O15	O	1.492713	0.657168	0.729152
O16	O	0.719212	0.107077	0.062498
O17	O	1.052545	0.440411	0.395831
O18	O	1.385879	0.773744	0.729164
O19	O	0.921460	0.094321	0.062471
O20	O	1.254793	0.427654	0.395805
O21	O	1.588126	0.760987	0.729138
Cu22	Cu	0.820334	0.100698	0.073915
Cu23	Cu	1.153667	0.434032	0.407249
Cu24	Cu	1.487001	0.767365	0.740582
Cu25	Cu	0.820356	0.100705	-0.074135
Cu26	Cu	1.153690	0.434039	0.259199
Cu27	Cu	1.487023	0.767372	0.592532
O28	O	0.814625	0.210896	0.062484
O29	O	1.147958	0.544230	0.395817
O30	O	1.481291	0.877563	0.729150
C31	C	0.693344	0.106673	-0.000093
C32	C	1.026677	0.440006	0.333240
C33	C	1.360011	0.773340	0.666574
C34	C	0.616238	0.105450	-0.000083
C35	C	0.949571	0.438784	0.333250
C36	C	1.282905	0.772117	0.666584
C37	C	0.580044	0.104866	-0.068325
C38	C	0.913377	0.438199	0.265008
C39	C	1.246711	0.771533	0.598341
C40	C	0.507596	0.103709	-0.068334
C41	C	0.840929	0.437042	0.264999
C42	C	1.174262	0.770375	0.598332
C43	C	0.471346	0.103120	-0.000098
C44	C	0.804679	0.436454	0.333236
C45	C	1.138013	0.769787	0.666569
C46	C	0.507548	0.103709	0.068154
C47	C	0.840882	0.437042	0.401487
C48	C	1.174215	0.770376	0.734820
C49	C	0.579994	0.104874	0.068161
C50	C	0.913328	0.438207	0.401494
C51	C	1.246661	0.771541	0.734827
C52	C	0.361955	0.056941	0.052171
C53	C	0.695288	0.390274	0.385505
C54	C	1.028621	0.723608	0.718838
C55	C	0.289511	0.055771	0.052161
C56	C	0.622844	0.389105	0.385495
C57	C	0.956177	0.722438	0.718828
C58	C	0.247898	0.099531	-0.000117
C59	C	0.581231	0.432864	0.333216
C60	C	0.914565	0.766198	0.666549
C61	C	0.278740	0.144451	-0.052398
C62	C	0.612073	0.477784	0.280935
C63	C	0.945407	0.811117	0.614268
C64	C	0.351186	0.145615	-0.052391
C65	C	0.684519	0.478949	0.280942
C66	C	1.017852	0.812282	0.614276
C67	C	0.392791	0.101858	-0.000098
C68	C	0.726124	0.435191	0.333235
C69	C	1.059457	0.768525	0.666569
C70	C	0.133147	0.097693	-0.068374
C71	C	0.466481	0.431027	0.264959
C72	C	0.799814	0.764360	0.598293
C73	C	0.060697	0.096541	-0.068380
C74	C	0.394030	0.429874	0.264953
C75	C	0.727364	0.763207	0.598286
C76	C	0.060652	0.096533	0.068110
C77	C	0.393985	0.429867	0.401443
C78	C	0.727319	0.763200	0.734776
C79	C	0.133100	0.097693	0.068114
C80	C	0.466433	0.431027	0.401447
C81	C	0.799766	0.764360	0.734781
C82	C	0.169344	0.098270	-0.000130
C83	C	0.502677	0.431603	0.333203
C84	C	0.836010	0.764936	0.666537
C85	C	0.825646	-0.037692	-0.000110
C86	C	1.158979	0.295642	0.333223
C87	C	1.492313	0.628975	0.666557
C88	C	0.824415	-0.121708	-0.000113
C89	C	1.157749	0.211626	0.333220
C90	C	1.491082	0.544959	0.666554
C91	C	0.823849	-0.161171	-0.068354
C92	C	1.157182	0.172162	0.264979
C93	C	1.490515	0.505496	0.598312
C94	C	0.822688	-0.240112	-0.068355
C95	C	1.156021	0.093221	0.264978
C96	C	1.489355	0.426554	0.598312
C97	C	0.822098	-0.279589	-0.000114
C98	C	1.155432	0.053744	0.333220
C99	C	1.488765	0.387077	0.666553
C100	C	0.822663	-0.240120	0.068132
C101	C	1.155996	0.093213	0.401466
C102	C	1.489329	0.426547	0.734799
C103	C	0.823819	-0.161180	0.068132
C104	C	1.157152	0.172154	0.401466
C105	C	1.490485	0.505487	0.734799
C106	C	0.818000	-0.558478	0.068134
C107	C	1.151334	-0.225145	0.401468
C108	C	1.484667	0.108189	0.734801
C109	C	0.816847	-0.637424	0.068129
C110	C	1.150180	-0.304091	0.401462
C111	C	1.483513	0.029242	0.734796
C112	C	0.816870	-0.637411	-0.068353
C113	C	1.150203	-0.304077	0.264980
C114	C	1.483536	0.029256	0.598314
C115	C	0.818025	-0.558470	-0.068353
C116	C	1.151359	-0.225137	0.264980
C117	C	1.484692	0.108196	0.598313
C118	C	0.818586	-0.519007	-0.000107
C119	C	1.151919	-0.185674	0.333226
C120	C	1.485253	0.147659	0.666559
C121	C	0.819844	-0.433410	-0.000107
C122	C	1.153177	-0.100077	0.333226
C123	C	1.486510	0.233257	0.666559
C124	C	0.820846	-0.365186	-0.000113
C125	C	1.154179	-0.031852	0.333220
C126	C	1.487513	0.301481	0.666554
C127	C	0.947346	0.094731	-0.000128
C128	C	1.280680	0.428064	0.333205
C129	C	1.614013	0.761398	0.666539
C130	C	1.024452	0.095954	-0.000143
C131	C	1.357786	0.429287	0.333190
C132	C	1.691119	0.762620	0.666524
C133	C	0.815044	0.239096	-0.000111
C134	C	1.148378	0.572429	0.333222
C135	C	1.481711	0.905762	0.666555
C136	C	0.816275	0.323111	-0.000113
C137	C	1.149608	0.656445	0.333220
C138	C	1.482942	0.989778	0.666554
N139	N	0.820324	0.100693	0.178046
N140	N	1.153657	0.434026	0.511379
N141	N	1.486990	0.767360	0.844712
N142	N	0.820372	0.100705	-0.178265
N143	N	1.153706	0.434038	0.155068
N144	N	1.487039	0.767371	0.488402
C145	C	0.867645	0.049099	0.217427
C146	C	1.200979	0.382432	0.550760
C147	C	1.534312	0.715765	0.884094
C148	C	0.867649	0.049095	0.296229
C149	C	1.200983	0.382428	0.629562
C150	C	1.534316	0.715762	0.962896
C151	C	0.820338	0.100699	0.335646
C152	C	1.153672	0.434032	0.668979
C153	C	1.487005	0.767366	1.002313
C154	C	0.773008	0.152297	0.296255
C155	C	1.106341	0.485631	0.629589
C156	C	1.439674	0.818964	0.962922
C157	C	0.773000	0.152294	0.217455
C158	C	1.106334	0.485628	0.550788
C159	C	1.439667	0.818961	0.884122
C160	C	0.811123	0.169661	0.460484
C161	C	1.144456	0.502995	0.793818
C162	C	1.477789	0.836328	1.127151
C163	C	0.811135	0.169665	0.539283
C164	C	1.144468	0.502999	0.872616
C165	C	1.477802	0.836332	1.205950
C166	C	0.820357	0.100708	0.578693
C167	C	1.153690	0.434041	0.912026
C168	C	1.487023	0.767375	1.245359
C169	C	0.829581	0.031744	0.539293
C170	C	1.162914	0.365077	0.872627
C171	C	1.496248	0.698411	1.205960
C172	C	0.829574	0.031741	0.460493
C173	C	1.162907	0.365074	0.793826
C174	C	1.496241	0.698408	1.127160
C175	C	0.820341	0.100708	0.421092
C176	C	1.153674	0.434041	0.754425
C177	C	1.487007	0.767374	1.087759
C178	C	0.867685	0.049106	0.703520
C179	C	1.201019	0.382439	1.036853
C180	C	1.534352	0.715772	1.370187
C181	C	0.867685	0.049101	0.782323
C182	C	1.201018	0.382434	1.115656
C183	C	1.534351	0.715768	1.448990
C184	C	0.773046	0.152310	0.782348
C185	C	1.106380	0.485643	1.115681
C186	C	1.439713	0.818977	1.449015
C187	C	0.773044	0.152308	0.703546
C188	C	1.106377	0.485641	1.036880
C189	C	1.439710	0.818975	1.370213
C190	C	0.820367	0.100707	0.664137
C191	C	1.153700	0.434040	0.997470
C192	C	1.487034	0.767373	1.330804
H193	H	0.244860	0.180087	-0.094966
H194	H	0.578193	0.513420	0.238367
H195	H	0.911526	0.846754	0.571701
O196	O	0.824432	-0.118616	0.141738
O197	O	1.157766	0.214717	0.475071
O198	O	1.491099	0.548051	0.808405
H199	H	0.825328	-0.057091	0.130274
H200	H	1.158662	0.276242	0.463608
H201	H	1.491995	0.609576	0.796941
O202	O	0.384504	0.194023	-0.108767
O203	O	0.717837	0.527357	0.224566
O204	O	1.051170	0.860690	0.557899
H205	H	0.363236	0.254588	-0.101070
H206	H	0.696570	0.587921	0.232263
H207	H	1.029903	0.921254	0.565597
H208	H	0.837083	-0.024412	0.428418
H209	H	1.170416	0.308921	0.761751
H210	H	1.503749	0.642255	1.095084
O211	O	0.822039	-0.282703	0.141734
O212	O	1.155372	0.050630	0.475068
O213	O	1.488706	0.383964	0.808401
H214	H	0.774196	-0.311770	0.145007
H215	H	1.107529	0.021563	0.478340
H216	H	1.440862	0.354897	0.811673
O217	O	0.172135	0.098325	0.141725
O218	O	0.505468	0.431658	0.475058
O219	O	0.838801	0.764991	0.808391
H220	H	0.211431	0.047286	0.145001
H221	H	0.544765	0.380619	0.478334
H222	H	0.878098	0.713952	0.811668
H223	H	0.162657	0.098171	-0.123942
H224	H	0.495991	0.431504	0.209391
H225	H	0.829324	0.764837	0.542724
H226	H	0.609463	0.105350	0.123734
H227	H	0.942796	0.438684	0.457067
H228	H	1.276130	0.772017	0.790400
H229	H	0.031229	0.096070	-0.123954
H230	H	0.364562	0.429403	0.209380
H231	H	0.697895	0.762736	0.542713
O232	O	0.824484	-0.118599	-0.141961
O233	O	1.157817	0.214735	0.191372
O234	O	1.491150	0.548068	0.524706
H235	H	0.825389	-0.057077	-0.130500
H236	H	1.158722	0.276257	0.202834
H237	H	1.492055	0.609590	0.536167
H238	H	0.906217	0.007086	0.671432
H239	H	1.239550	0.340420	1.004765
H240	H	1.572884	0.673753	1.338098
H241	H	0.822230	-0.272240	-0.123924
H242	H	1.155563	0.061093	0.209410
H243	H	1.488896	0.394426	0.542743
O244	O	0.818661	-0.515895	-0.141959
O245	O	1.151994	-0.182562	0.191375
O246	O	1.485328	0.150771	0.524708
H247	H	0.819566	-0.454374	-0.130494
H248	H	1.152899	-0.121040	0.202840
H249	H	1.486232	0.212293	0.536173
H250	H	0.816410	-0.669550	-0.123922
H251	H	1.149743	-0.336217	0.209411
H252	H	1.483076	-0.002884	0.542744
H253	H	0.906218	0.007083	0.814388
H254	H	1.239551	0.340416	1.147721
H255	H	1.572884	0.673749	1.481055
H256	H	0.816365	-0.669564	0.123702
H257	H	1.149698	-0.336231	0.457036
H258	H	1.483031	-0.002898	0.790369
O259	O	0.918696	-0.006554	0.338714
O260	O	1.252030	0.326779	0.672047
O261	O	1.585363	0.660113	1.005380
H262	H	0.910748	0.002116	0.400129
H263	H	1.244081	0.335450	0.733462
H264	H	1.577414	0.668783	1.066796
H265	H	0.818471	-0.526359	0.123704
H266	H	1.151804	-0.193026	0.457037
H267	H	1.485137	0.140308	0.790371
H268	H	0.906177	0.007080	0.185342
H269	H	1.239510	0.340413	0.518676
H270	H	1.572844	0.673747	0.852009
O271	O	0.468566	0.103166	0.141830
O272	O	0.801899	0.436500	0.475163
O273	O	1.135233	0.769833	0.808496
H274	H	0.476284	0.155004	0.174437
H275	H	0.809617	0.488337	0.507770
H276	H	1.142950	0.821671	0.841103
H277	H	0.031138	0.096059	0.123669
H278	H	0.364471	0.429392	0.457003
H279	H	0.697804	0.762726	0.790336
H280	H	0.837090	-0.024408	0.571379
H281	H	1.170423	0.308925	0.904712
H282	H	1.503757	0.642259	1.238045
H283	H	0.734522	0.194324	0.814441
H284	H	1.067855	0.527657	1.147774
H285	H	1.401189	0.860991	1.481108
H286	H	0.734513	0.194324	0.671480
H287	H	1.067846	0.527657	1.004813
H288	H	1.401179	0.860991	1.338146
O289	O	0.468554	0.103069	-0.141946
O290	O	0.801887	0.436403	0.191388
O291	O	1.135220	0.769736	0.524721
H292	H	0.429264	0.154115	-0.145226
H293	H	0.762598	0.487448	0.188107
H294	H	1.095931	0.820781	0.521441
O295	O	0.801200	0.244043	0.581777
O296	O	1.134534	0.577377	0.915110
O297	O	1.467867	0.910710	1.248444
H298	H	0.794777	0.291993	0.541137
H299	H	1.128111	0.625326	0.874470
H300	H	1.461444	0.958660	1.207803
O301	O	0.801181	0.244041	0.417980
O302	O	1.134514	0.577374	0.751313
O303	O	1.467848	0.910708	1.084646
H304	H	0.794781	0.291995	0.458612
H305	H	1.128115	0.625328	0.791946
H306	H	1.461448	0.958661	1.125279
O307	O	0.721981	0.207962	0.338762
O308	O	1.055314	0.541296	0.672096
O309	O	1.388648	0.874629	1.005429
H310	H	0.729941	0.199303	0.400174
H311	H	1.063275	0.532637	0.733508
H312	H	1.396608	0.865970	1.066841
H313	H	0.734464	0.194310	0.185390
H314	H	1.067798	0.527643	0.518723
H315	H	1.401131	0.860976	0.852056
H316	H	0.609549	0.105335	-0.123895
H317	H	0.942883	0.438669	0.209438
H318	H	1.276216	0.772002	0.542772
H319	H	0.264406	0.019192	0.094728
H320	H	0.597739	0.352525	0.428061
H321	H	0.931072	0.685858	0.761395
H322	H	0.395830	0.021305	0.094746
H323	H	0.729164	0.354638	0.428080
H324	H	1.062497	0.687971	0.761413
