data_functionalizedCrystal
_audit_creation_method	'MofGen! by Chris Wilmer'
_symmetry_space_group_name_H-M	'P1'
_symmetry_Int_Tables_number	1
_symmetry_cell_setting	triclinic
loop_
_symmetry_equiv_pos_as_xyz
  x,y,z
_cell_length_a	16.959454
_cell_length_b	19.805407
_cell_length_c	19.805399
_cell_angle_alpha	89.983114
_cell_angle_beta	89.976206
_cell_angle_gamma	90.020075
loop_
_atom_site_label
_atom_site_type_symbol
_atom_site_fract_x
_atom_site_fract_y
_atom_site_fract_z
Zn1	Zn	-0.314689	1.034748	-0.382744
Zn2	Zn	-0.446875	1.034680	-0.269566
Zn3	Zn	-0.314714	0.921567	-0.269569
Zn4	Zn	-0.446829	0.921538	-0.382713
O5	O	-0.380777	0.978133	-0.326148
O6	O	-0.332232	1.129455	-0.367743
O7	O	-0.429373	1.019660	-0.174850
O8	O	-0.204100	0.936621	-0.284596
O9	O	-0.429348	1.129406	-0.284591
O10	O	-0.204081	1.019774	-0.367745
O11	O	-0.332275	0.936556	-0.174852
O12	O	-0.332231	0.826847	-0.284565
O13	O	-0.429271	0.936572	-0.477434
O14	O	-0.429295	0.826826	-0.367692
O15	O	-0.332188	1.019746	-0.477457
O16	O	-0.557479	1.019631	-0.284561
O17	O	-0.557446	0.936506	-0.367690
C18	C	-0.380762	0.802277	-0.326126
C19	C	-0.380774	0.727045	-0.326133
C20	C	-0.431392	0.691708	-0.369347
C21	C	-0.431393	0.621019	-0.369356
C22	C	-0.380780	0.585670	-0.326148
C23	C	-0.330157	0.621012	-0.282932
C24	C	-0.330152	0.691700	-0.282926
C25	C	-0.330175	0.335939	-0.282954
C26	C	-0.330185	0.265247	-0.282962
C27	C	-0.431415	0.265259	-0.369384
C28	C	-0.431411	0.335946	-0.369379
C29	C	-0.380785	0.371282	-0.326166
C30	C	-0.380783	0.447931	-0.326157
C31	C	-0.380786	0.509023	-0.326153
C32	C	-0.586143	0.978077	-0.326136
C33	C	-0.674000	0.978114	-0.326154
C34	C	-1.045488	0.934913	-0.369428
C35	C	-1.045462	1.021542	-0.282937
C36	C	-0.962917	1.021519	-0.282930
C37	C	-0.921652	0.978191	-0.326173
C38	C	-0.962934	0.934887	-0.369422
C39	C	-0.921629	1.064817	-0.239677
C40	C	-0.839078	1.064795	-0.239669
C41	C	-0.797812	1.021470	-0.282915
C42	C	-0.839099	0.978164	-0.326167
C43	C	-0.797835	0.934837	-0.369409
C44	C	-0.839120	0.891534	-0.412665
C45	C	-0.921669	0.891562	-0.412669
C46	C	-0.715264	1.021442	-0.282911
C47	C	-0.715281	0.934810	-0.369403
C48	C	-0.174608	0.978209	-0.326174
C49	C	-0.086752	0.978241	-0.326186
C50	C	-0.380722	0.978163	-0.502691
C51	C	-0.380698	0.978176	-0.577923
C52	C	-0.380792	1.154676	-0.326170
C53	C	-0.380799	1.229908	-0.326180
C54	C	-0.330135	0.934916	-0.613267
C55	C	-0.330119	0.934925	-0.683956
C56	C	-0.380664	0.978198	-0.719298
C57	C	-0.431233	1.021460	-0.683949
C58	C	-0.431252	1.021447	-0.613262
C59	C	-0.431160	1.021513	-0.969022
C60	C	-0.431135	1.021525	-1.039714
C61	C	-0.330027	0.934992	-1.039716
C62	C	-0.330046	0.934979	-0.969029
C63	C	-0.380617	0.978238	-0.933686
C64	C	-0.380634	0.978226	-0.857037
C65	C	-0.380644	0.978214	-0.795946
C66	C	-0.380774	0.978143	-0.150292
C67	C	-0.380575	0.978261	-0.075060
H68	H	-0.288930	0.720471	-0.247741
H69	H	-0.472392	1.056690	-0.712730
H70	H	-0.288944	0.592225	-0.247754
H71	H	-0.472634	0.236479	-0.404573
Br72	Br	-0.977632	1.123619	-0.180998
Br73	Br	-0.261393	0.876282	-1.087686
H74	H	-0.681689	0.899530	-0.404619
Br75	Br	-0.783109	0.832729	-0.471344
H76	H	-0.955290	0.856306	-0.447884
Br77	Br	-0.499788	1.080226	-0.921065
Br78	Br	-1.101514	0.876153	-0.428134
H79	H	-0.472420	1.056678	-0.584485
H80	H	-0.472627	0.364724	-0.404561
Br81	Br	-1.101464	1.080340	-0.224252
Br82	Br	-0.261528	0.876190	-0.565309
H83	H	-0.472609	0.720484	-0.404530
H84	H	-0.805468	1.100054	-0.204449
Br85	Br	-0.261442	0.876254	-0.921068
H86	H	-0.288948	0.899696	-0.712730
H87	H	-0.681653	1.056695	-0.247691
H88	H	-0.472298	1.056764	-1.068488
H89	H	-0.288965	0.236467	-0.247776
H90	H	-0.288958	0.364701	-0.247763
Br91	Br	-0.500090	0.573063	-0.428008
