data_functionalizedCrystal
_audit_creation_method	'MofGen! by Chris Wilmer'
_symmetry_space_group_name_H-M	'P1'
_symmetry_Int_Tables_number	1
_symmetry_cell_setting	triclinic
loop_
_symmetry_equiv_pos_as_xyz
  x,y,z
_cell_length_a	10.489746
_cell_length_b	9.565339
_cell_length_c	11.792241
_cell_angle_alpha	89.999915
_cell_angle_beta	84.367358
_cell_angle_gamma	90.000667
loop_
_atom_site_label
_atom_site_type_symbol
_atom_site_fract_x
_atom_site_fract_y
_atom_site_fract_z
O1	O	1.693503	0.116167	0.160157
O2	O	2.193503	0.616167	0.660157
O3	O	1.322257	0.116190	0.175182
O4	O	1.822257	0.616190	0.675182
O5	O	1.516889	0.116168	0.002523
O6	O	2.016889	0.616168	0.502523
O7	O	1.498871	0.116189	0.332815
O8	O	1.998871	0.616189	0.832815
O9	O	1.516874	-0.116352	0.002534
O10	O	2.016874	0.383648	0.502534
O11	O	1.322242	-0.116330	0.175193
O12	O	1.822242	0.383670	0.675193
O13	O	1.693488	-0.116353	0.160167
O14	O	2.193488	0.383647	0.660167
Zn15	Zn	1.507862	-0.153259	0.167682
Zn16	Zn	2.007862	0.346741	0.667682
Zn17	Zn	1.507883	0.153096	0.167668
Zn18	Zn	2.007883	0.653096	0.667668
O19	O	1.498856	-0.116331	0.332826
O20	O	1.998856	0.383669	0.832826
C21	C	1.274722	-0.000067	0.174051
C22	C	1.774722	0.499933	0.674051
C23	C	1.133104	-0.000058	0.170652
C24	C	1.633104	0.499942	0.670652
N25	N	1.507858	-0.362339	0.167691
N26	N	2.007858	0.137661	0.667691
C27	C	0.980628	-0.000085	0.058783
C28	C	1.480628	0.499915	0.558783
C29	C	1.057823	-0.114722	0.114718
C30	C	1.557823	0.385278	0.614718
C31	C	1.057794	0.114525	0.114734
C32	C	1.557794	0.614525	0.614734
C33	C	0.957971	-0.114825	0.220589
C34	C	1.457971	0.385175	0.720589
C35	C	0.957936	0.114525	0.220589
C36	C	1.457936	0.614525	0.720589
C37	C	1.035083	-0.000140	0.276602
C38	C	1.535083	0.499860	0.776602
C39	C	1.417820	-0.453532	0.247513
C40	C	1.917820	0.046468	0.747513
C41	C	1.533238	-0.546716	0.270481
C42	C	2.033238	-0.046716	0.770481
C43	C	1.392489	-0.546709	0.144732
C44	C	1.892489	-0.046709	0.644732
C45	C	1.623335	-0.453472	0.190710
C46	C	2.123335	0.046528	0.690710
C47	C	1.482510	-0.453457	0.064916
C48	C	1.982510	0.046543	0.564916
C49	C	1.598012	-0.546599	0.087841
C50	C	2.098012	-0.046599	0.587841
C51	C	1.741023	-0.000093	0.161298
C52	C	2.241023	0.499907	0.661298
C53	C	1.882641	-0.000093	0.164697
C54	C	2.382641	0.499907	0.664697
C55	C	1.515750	-0.000092	-0.039765
C56	C	2.015750	0.499908	0.460235
C57	C	1.512362	-0.000090	-0.165788
C58	C	2.012362	0.499910	0.334212
N59	N	1.507897	0.362175	0.167650
N60	N	2.007897	0.862175	0.667650
C61	C	1.506133	-0.000066	-0.396517
C62	C	2.006133	0.499934	0.103483
C63	C	1.509594	-0.000079	-0.268123
C64	C	2.009594	0.499921	0.231877
C65	C	1.499995	-0.000069	0.375115
C66	C	1.999995	0.499931	0.875115
C67	C	1.503383	-0.000061	0.501138
C68	C	2.003383	0.499939	1.001138
H69	H	0.956221	-0.000206	-0.033314
H70	H	1.456221	0.499794	0.466686
F71	F	1.114839	-0.241414	0.056286
F72	F	1.614839	0.258586	0.556286
F73	F	0.901200	-0.241650	0.278996
F74	F	1.401200	0.258350	0.778996
F75	F	1.697663	-0.599684	-0.000416
F76	F	2.197663	-0.099684	0.499584
H77	H	1.341747	-0.412668	0.315079
H78	H	1.841747	0.087332	0.815079
H79	H	1.059245	-0.000197	0.368768
H80	H	1.559245	0.499803	0.868768
H81	H	1.101396	0.211444	0.069998
H82	H	1.601396	0.711444	0.569998
F83	F	1.454406	-0.399868	-0.048629
F84	F	1.954406	0.100132	0.451371
F85	F	0.900884	0.241219	0.278973
F86	F	1.400884	0.741219	0.778973
H87	H	1.554704	-0.587680	0.357377
H88	H	2.054704	-0.087680	0.857377
F89	F	1.264945	-0.600244	0.119370
F90	F	1.764945	-0.100244	0.619370
F91	F	1.750912	-0.400171	0.216202
F92	F	2.250912	0.099829	0.716202
