data_functionalizedCrystal
_audit_creation_method	'MofGen! by Chris Wilmer'
_symmetry_space_group_name_H-M	'P1'
_symmetry_Int_Tables_number	1
_symmetry_cell_setting	triclinic
loop_
_symmetry_equiv_pos_as_xyz
  x,y,z
_cell_length_a	25.639239
_cell_length_b	12.759395
_cell_length_c	12.759387
_cell_angle_alpha	89.979326
_cell_angle_beta	90.036418
_cell_angle_gamma	89.963837
loop_
_atom_site_label
_atom_site_type_symbol
_atom_site_fract_x
_atom_site_fract_y
_atom_site_fract_z
Zn1	Zn	-0.208158	-1.606094	0.593969
Zn2	Zn	-0.295604	-1.605911	0.418272
Zn3	Zn	-0.208181	-1.430392	0.418305
Zn4	Zn	-0.295561	-1.430311	0.593910
O5	O	-0.251876	-1.518177	0.506114
O6	O	-0.219767	-1.753090	0.570673
O7	O	-0.284035	-1.582585	0.271255
O8	O	-0.135013	-1.453809	0.441645
O9	O	-0.284013	-1.752956	0.441589
O10	O	-0.134996	-1.582897	0.570705
O11	O	-0.219805	-1.453632	0.271279
O12	O	-0.219763	-1.283360	0.441589
O13	O	-0.283939	-1.453671	0.740939
O14	O	-0.283961	-1.283300	0.570605
O15	O	-0.219725	-1.582818	0.740982
O16	O	-0.368764	-1.582506	0.441532
O17	O	-0.368732	-1.453494	0.570573
C18	C	-0.251860	-1.245209	0.506095
C19	C	-0.251866	-1.128432	0.506112
C20	C	-0.185075	-1.128553	0.640744
C21	C	-0.151684	-1.073752	0.708067
C22	C	-0.151691	-0.964031	0.708078
C23	C	-0.185091	-0.909107	0.640756
C24	C	-0.218481	-0.963908	0.573433
C25	C	-0.218472	-1.073632	0.573431
C26	C	-0.285269	-0.963787	0.438797
C27	C	-0.285266	-1.073509	0.438790
C28	C	-0.318669	-0.908864	0.371475
C29	C	-0.352063	-0.963664	0.304155
C30	C	-0.352055	-1.073392	0.304148
C31	C	-0.318656	-1.128309	0.371467
C32	C	-0.387719	-1.518000	0.506066
C33	C	-0.445833	-1.518020	0.506080
C34	C	-0.806200	-1.585529	0.439037
C35	C	-0.860804	-1.585569	0.439051
O36	O	-0.889044	-1.642784	0.381995
N37	N	-0.888115	-1.518361	0.506184
C38	C	-0.860819	-1.451115	0.573314
O39	O	-0.889063	-1.393954	0.630418
C40	C	-0.806216	-1.451081	0.573305
C41	C	-0.778907	-1.518286	0.506160
C42	C	-0.778891	-1.652729	0.371899
C43	C	-0.724291	-1.652687	0.371883
C44	C	-0.696999	-1.585444	0.439006
C45	C	-0.724307	-1.518244	0.506145
C46	C	-0.778921	-1.383841	0.640440
C47	C	-0.724314	-1.383813	0.640425
C48	C	-0.697005	-1.451018	0.573280
C49	C	-0.642414	-1.450958	0.573253
N50	N	-0.615103	-1.518167	0.506120
C51	C	-0.642395	-1.585409	0.438997
C52	C	-0.975490	-1.451195	0.573330
C53	C	-1.030092	-1.451223	0.573335
C54	C	-1.030073	-1.585679	0.439073
C55	C	-0.975470	-1.585644	0.439064
C56	C	-0.948179	-1.518403	0.506198
C57	C	-0.527730	-1.585315	0.438970
C58	C	-0.473125	-1.585263	0.438957
C59	C	-0.473148	-1.450812	0.573223
C60	C	-0.527749	-1.450859	0.573232
C61	C	-0.555039	-1.518119	0.506102
O62	O	-0.614139	-1.393776	0.630282
O63	O	-0.614144	-1.642571	0.381913
C64	C	-0.115503	-1.518383	0.506185
C65	C	-0.057389	-1.518470	0.506216
C66	C	-0.251825	-1.518256	0.780148
C67	C	-0.251803	-1.518290	0.896924
C68	C	-0.251887	-0.792210	0.506128
C69	C	-0.251879	-0.908987	0.506120
C70	C	-0.251889	-1.518158	0.233146
C71	C	-0.251764	-1.518328	0.116370
C72	C	-0.184941	-1.652780	0.896989
C73	C	-0.151502	-1.720039	0.951882
C74	C	-0.151483	-1.720065	1.061603
C75	C	-0.184906	-1.652821	1.116435
C76	C	-0.218344	-1.585562	1.061542
C77	C	-0.218361	-1.585546	0.951817
C78	C	-0.285203	-1.451068	1.061477
C79	C	-0.285225	-1.451046	0.951756
C80	C	-0.318625	-1.383825	1.116309
C81	C	-0.352067	-1.316569	1.061415
C82	C	-0.352085	-1.316547	0.951687
C83	C	-0.318664	-1.383787	0.896863
H84	H	-0.379252	-0.918937	0.249343
C85	C	-0.114949	-1.134169	0.782119
H86	H	-0.119728	-1.207364	0.772481
H87	H	-0.079810	-1.116216	0.766884
H88	H	-0.122652	-1.116208	0.852684
C89	C	-0.185096	-0.788417	0.640763
H90	H	-0.160427	-0.763646	0.690501
H91	H	-0.176015	-0.763577	0.573000
H92	H	-0.218850	-0.763569	0.658813
H93	H	-0.124499	-0.919412	0.762892
C94	C	-0.318680	-0.788173	0.371482
H95	H	-0.343350	-0.763314	0.321743
H96	H	-0.327767	-0.763372	0.439247
H97	H	-0.284929	-0.763374	0.353441
H98	H	-0.185063	-1.217894	0.640737
C99	C	-0.114703	-1.794050	1.121988
H100	H	-0.094803	-1.834099	1.073623
H101	H	-0.091913	-1.753910	1.164803
H102	H	-0.134708	-1.839803	1.164781
C103	C	-0.388788	-1.133665	0.230096
H104	H	-0.408681	-1.085237	0.190014
H105	H	-0.368759	-1.176474	0.184393
H106	H	-0.411595	-1.176455	0.270205
H107	H	-0.318644	-1.217650	0.371462
H108	H	-0.702096	-1.329058	0.695097
H109	H	-0.801107	-1.707492	0.317238
C110	C	-0.388878	-1.242579	0.891313
H111	H	-0.408783	-1.202550	0.939686
H112	H	-0.368890	-1.196822	0.848502
H113	H	-0.411671	-1.282743	0.848517
C114	C	-0.694256	-1.726592	0.298007
H115	H	-0.657826	-1.716936	0.307590
H116	H	-0.703162	-1.797187	0.313426
H117	H	-0.703248	-1.711228	0.227411
H118	H	-0.184958	-1.652776	0.807647
H119	H	-0.450892	-1.639990	0.384276
H120	H	-0.124290	-1.774786	0.907226
C121	C	-0.557741	-1.659291	0.365121
H122	H	-0.533651	-1.699294	0.325131
H123	H	-0.579006	-1.705070	0.405342
H124	H	-0.579077	-1.619132	0.319307
C125	C	-0.945436	-1.659577	0.365214
H126	H	-0.969515	-1.699630	0.325247
H127	H	-0.924168	-1.619406	0.319396
H128	H	-0.924102	-1.705328	0.405447
H129	H	-0.184883	-1.652839	1.205776
C130	C	-1.060102	-1.659643	0.365235
H131	H	-1.096532	-1.650038	0.374868
H132	H	-1.051188	-1.644296	0.294629
H133	H	-1.051117	-1.730226	0.380672
H134	H	-1.052322	-1.396488	0.628001
H135	H	-0.953272	-1.396430	0.627996
C136	C	-0.808948	-1.309922	0.714308
H137	H	-0.784866	-1.269886	0.754286
H138	H	-0.830288	-1.264170	0.674100
H139	H	-0.830209	-1.350112	0.760131
H140	H	-0.549985	-1.396138	0.627909
C141	C	-0.318605	-1.383853	1.236999
H142	H	-0.293908	-1.433548	1.261840
H143	H	-0.309553	-1.316077	1.261820
H144	H	-0.352346	-1.401974	1.261795
H145	H	-0.379274	-1.261819	1.106068
C146	C	-0.318683	-1.383760	0.776172
H147	H	-0.343386	-1.334077	0.751329
H148	H	-0.284944	-1.365649	0.751372
H149	H	-0.327740	-1.451541	0.751356
C150	C	-0.443120	-1.376856	0.647057
H151	H	-0.406690	-1.386471	0.637435
H152	H	-0.452105	-1.306275	0.631634
H153	H	-0.452034	-1.392216	0.717666
