data_functionalizedCrystal
_audit_creation_method	'MofGen! by Chris Wilmer'
_symmetry_space_group_name_H-M	'P1'
_symmetry_Int_Tables_number	1
_symmetry_cell_setting	triclinic
loop_
_symmetry_equiv_pos_as_xyz
  x,y,z
_cell_length_a	19.120785
_cell_length_b	19.077105
_cell_length_c	19.076919
_cell_angle_alpha	90.076224
_cell_angle_beta	89.729181
_cell_angle_gamma	90.062222
loop_
_atom_site_label
_atom_site_type_symbol
_atom_site_fract_x
_atom_site_fract_y
_atom_site_fract_z
Zn1	Zn	-0.338642	1.044402	-0.425356
Zn2	Zn	-0.005308	1.377736	-0.092023
Zn3	Zn	0.328025	1.711069	0.241310
Zn4	Zn	-0.451190	1.044433	-0.302844
Zn5	Zn	-0.117857	1.377767	0.030490
Zn6	Zn	0.215476	1.711100	0.363823
Zn7	Zn	-0.329265	0.932004	-0.303567
Zn8	Zn	0.004069	1.265338	0.029767
Zn9	Zn	0.337402	1.598671	0.363100
Zn10	Zn	-0.450768	0.922272	-0.415615
Zn11	Zn	-0.117435	1.255606	-0.082282
Zn12	Zn	0.215898	1.588939	0.251051
O13	O	-0.392466	0.985778	-0.361846
O14	O	-0.059133	1.319111	-0.028512
O15	O	0.274200	1.652445	0.304821
O16	O	-0.357673	1.142570	-0.412879
O17	O	-0.024339	1.475904	-0.079546
O18	O	0.308994	1.809237	0.253788
O19	O	-0.431269	1.033605	-0.204775
O20	O	-0.097936	1.366939	0.128558
O21	O	0.235398	1.700272	0.461892
O22	O	-0.232557	0.950974	-0.324102
O23	O	0.100776	1.284307	0.009232
O24	O	0.434110	1.617641	0.342565
O25	O	-0.440362	1.142593	-0.322870
O26	O	-0.107028	1.475926	0.010464
O27	O	0.226305	1.809260	0.343797
O28	O	-0.239446	1.033553	-0.413580
O29	O	0.093887	1.366886	-0.080247
O30	O	0.427220	1.700219	0.253087
O31	O	-0.341691	0.951004	-0.205306
O32	O	-0.008357	1.284337	0.128027
O33	O	0.324976	1.617671	0.461360
O34	O	-0.341281	0.832549	-0.314656
O35	O	-0.007948	1.165883	0.018677
O36	O	0.325385	1.499216	0.352011
O37	O	-0.439642	0.934387	-0.515072
O38	O	-0.106309	1.267721	-0.181739
O39	O	0.227025	1.601054	0.151595
O40	O	-0.430549	0.825399	-0.396978
O41	O	-0.097216	1.158733	-0.063644
O42	O	0.236117	1.492066	0.269689
O43	O	-0.357263	1.024116	-0.522229
O44	O	-0.023930	1.357449	-0.188895
O45	O	0.309403	1.690783	0.144438
O46	O	-0.549086	1.024169	-0.313424
O47	O	-0.215753	1.357502	0.019909
O48	O	0.117581	1.690835	0.353243
O49	O	-0.548776	0.934417	-0.396277
O50	O	-0.215443	1.267751	-0.062943
O51	O	0.117891	1.601084	0.270390
C52	C	-0.384853	0.803522	-0.354839
C53	C	-0.051519	1.136855	-0.021505
C54	C	0.281814	1.470188	0.311828
C55	C	-0.381613	0.725550	-0.351857
C56	C	-0.048280	1.058883	-0.018524
C57	C	0.285054	1.392217	0.314810
C58	C	-0.426633	0.685215	-0.393243
C59	C	-0.093300	1.018548	-0.059910
C60	C	0.240034	1.351882	0.273424
C61	C	-0.423580	0.611953	-0.390445
C62	C	-0.090246	0.945286	-0.057112
C63	C	0.243087	1.278619	0.276222
C64	C	-0.375510	0.579027	-0.346257
C65	C	-0.042176	0.912360	-0.012924
C66	C	0.291157	1.245694	0.320410
C67	C	-0.330485	0.619368	-0.304869
C68	C	0.002848	0.952701	0.028464
C69	C	0.336182	1.286034	0.361797
C70	C	-0.333535	0.692629	-0.307671
C71	C	-0.000202	1.025962	0.025662
C72	C	0.333132	1.359295	0.358995
C73	C	-0.361393	0.360318	-0.333292
C74	C	-0.028060	0.693651	0.000041
C75	C	0.305274	1.026984	0.333374
C76	C	-0.358348	0.287052	-0.330492
C77	C	-0.025014	0.620385	0.002841
C78	C	0.308319	0.953718	0.336175
C79	C	-0.451442	0.279642	-0.416069
C80	C	-0.118109	0.612975	-0.082736
C81	C	0.215225	0.946308	0.250598
C82	C	-0.454491	0.352904	-0.418864
C83	C	-0.121157	0.686238	-0.085531
C84	C	0.212176	1.019571	0.247803
C85	C	-0.409464	0.393238	-0.377479
C86	C	-0.076130	0.726572	-0.044146
C87	C	0.257203	1.059905	0.289188
N88	N	-0.372389	0.504141	-0.343395
N89	N	-0.039056	0.837475	-0.010061
N90	N	0.294277	1.170808	0.323272
N91	N	-0.412581	0.468123	-0.380346
N92	N	-0.079248	0.801456	-0.047012
N93	N	0.254086	1.134789	0.286321
C94	C	-0.574330	0.978259	-0.353731
C95	C	-0.240997	1.311592	-0.020397
C96	C	0.092337	1.644925	0.312936
C97	C	-0.652136	0.975105	-0.350285
C98	C	-0.318802	1.308438	-0.016952
C99	C	0.014531	1.641772	0.316381
C100	C	-1.092013	0.955094	-0.328482
C101	C	-0.758679	1.288428	0.004852
C102	C	-0.425346	1.621761	0.338185
C103	C	-1.018906	0.958059	-0.331719
C104	C	-0.685573	1.291392	0.001614
C105	C	-0.352239	1.624726	0.334948
C106	C	-0.985880	1.002504	-0.379958
C107	C	-0.652547	1.335837	-0.046625
C108	C	-0.319214	1.669170	0.286708
C109	C	-1.025965	1.043981	-0.424968
C110	C	-0.692632	1.377314	-0.091635
C111	C	-0.359299	1.710648	0.241699
C112	C	-1.099070	1.041012	-0.421734
C113	C	-0.765737	1.374345	-0.088400
C114	C	-0.432404	1.707679	0.244933
C115	C	-0.765326	1.013613	-0.392060
C116	C	-0.431993	1.346947	-0.058727
C117	C	-0.098659	1.680280	0.274606
C118	C	-0.692215	1.016581	-0.395290
C119	C	-0.358882	1.349914	-0.061957
C120	C	-0.025549	1.683247	0.271377
C121	C	-0.685161	0.930657	-0.302041
C122	C	-0.351828	1.263991	0.031292
C123	C	-0.018494	1.597324	0.364625
C124	C	-0.758268	0.927696	-0.298808
C125	C	-0.424935	1.261029	0.034525
C126	C	-0.091601	1.594362	0.367858
C127	C	-0.798347	0.969170	-0.343820
C128	C	-0.465013	1.302504	-0.010487
C129	C	-0.131680	1.635837	0.322846
C130	C	-0.911154	1.005537	-0.383267
C131	C	-0.577820	1.338870	-0.049934
C132	C	-0.244487	1.672203	0.283399
C133	C	-0.873072	0.966133	-0.340514
C134	C	-0.539739	1.299466	-0.007181
C135	C	-0.206405	1.632800	0.326152
C136	C	-0.209894	0.993345	-0.370008
C137	C	0.123440	1.326679	-0.036675
C138	C	0.456773	1.660012	0.296659
C139	C	-0.132092	0.996570	-0.373486
C140	C	0.201241	1.329903	-0.040153
C141	C	0.534575	1.663237	0.293180
C142	C	-0.399452	0.978163	-0.544815
C143	C	-0.066118	1.311496	-0.211482
C144	C	0.267215	1.644829	0.121852
C145	C	-0.402428	0.974917	-0.622786
C146	C	-0.069095	1.308251	-0.289452
C147	C	0.264238	1.641584	0.043881
C148	C	-0.400110	1.168746	-0.368880
C149	C	-0.066777	1.502080	-0.035547
C150	C	0.266556	1.835413	0.297786
C151	C	-0.403368	1.246716	-0.371878
C152	C	-0.070034	1.580050	-0.038545
C153	C	0.263299	1.913383	0.294789
C154	C	-0.360939	1.020107	-0.663144
C155	C	-0.027605	1.353440	-0.329810
C156	C	0.305728	1.686774	0.003523
C157	C	-0.363732	1.017049	-0.736405
C158	C	-0.030399	1.350383	-0.403072
C159	C	0.302934	1.683716	-0.069739
C160	C	-0.408020	0.968805	-0.769307
C161	C	-0.074687	1.302138	-0.435974
C162	C	0.258646	1.635471	-0.102641
C163	C	-0.449512	0.923610	-0.728944
C164	C	-0.116178	1.256944	-0.395611
C165	C	0.217155	1.590277	-0.062277
C166	C	-0.446714	0.926665	-0.655684
C167	C	-0.113380	1.259998	-0.322351
C168	C	0.219953	1.593332	0.010983
C169	C	-0.420984	0.954656	-0.988012
C170	C	-0.087651	1.287989	-0.654679
C171	C	0.245682	1.621323	-0.321345
C172	C	-0.423781	0.951606	-1.061277
C173	C	-0.090448	1.284939	-0.727944
C174	C	0.242886	1.618273	-0.394611
C175	C	-0.338000	1.045045	-1.068733
C176	C	-0.004667	1.378378	-0.735400
C177	C	0.328666	1.711711	-0.402067
C178	C	-0.335209	1.048098	-0.995472
C179	C	-0.001876	1.381431	-0.662138
C180	C	0.331457	1.714765	-0.328805
C181	C	-0.376698	1.002901	-0.955115
C182	C	-0.043364	1.336234	-0.621781
C183	C	0.289969	1.669568	-0.288448
N184	N	-0.410879	0.965680	-0.844192
N185	N	-0.077546	1.299013	-0.510859
N186	N	0.255788	1.632346	-0.177526
N187	N	-0.373835	1.006023	-0.880231
N188	N	-0.040502	1.339357	-0.546898
N189	N	0.292832	1.672690	-0.213564
C190	C	-0.385459	0.993406	-0.179592
C191	C	-0.052126	1.326740	0.153742
C192	C	0.281207	1.660073	0.487075
C193	C	-0.382291	0.996796	-0.101635
C194	C	-0.048958	1.330129	0.231698
C195	C	0.284376	1.663462	0.565031
H196	H	-0.324734	0.393149	-0.299588
H197	H	0.008600	0.726483	0.033745
H198	H	0.341933	1.059816	0.367078
N199	N	-0.469003	0.902297	-1.094876
N200	N	-0.135669	1.235630	-0.761543
N201	N	0.197664	1.568963	-0.428210
N202	N	-0.506026	0.861931	-1.058837
N203	N	-0.172693	1.195265	-0.725503
N204	N	0.160641	1.528598	-0.392170
H205	H	-0.537954	0.827100	-1.082566
H206	H	-0.204621	1.160433	-0.749232
H207	H	0.128712	1.493767	-0.415899
H208	H	-0.324877	1.059395	-0.636360
H209	H	0.008457	1.392729	-0.303027
H210	H	0.341790	1.726062	0.030306
H211	H	-0.485569	0.884326	-0.755739
H212	H	-0.152236	1.217659	-0.422406
H213	H	0.181097	1.550993	-0.089072
H214	H	-0.291342	0.592554	-0.268894
H215	H	0.041991	0.925887	0.064440
H216	H	0.375324	1.259220	0.397773
N217	N	-0.463367	0.908485	-0.946805
N218	N	-0.130034	1.241819	-0.613472
N219	N	0.203299	1.575152	-0.280139
N220	N	-0.502908	0.865416	-0.976194
N221	N	-0.169574	1.198749	-0.642860
N222	N	0.163759	1.532083	-0.309527
H223	H	-0.532844	0.832806	-0.947090
H224	H	-0.199510	1.166139	-0.613756
H225	H	0.133823	1.499472	-0.280423
N226	N	-0.503591	0.386546	-0.463996
N227	N	-0.170258	0.719879	-0.130663
N228	N	0.163076	1.053212	0.202671
N229	N	-0.506312	0.451957	-0.466486
N230	N	-0.172979	0.785291	-0.133152
N231	N	0.160355	1.118624	0.200181
H232	H	-0.540994	0.475718	-0.498356
H233	H	-0.207661	0.809052	-0.165023
H234	H	0.125673	1.142385	0.168311
N235	N	-1.125739	0.909684	-0.279212
N236	N	-0.792406	1.243017	0.054121
N237	N	-0.459073	1.576351	0.387455
N238	N	-1.165630	0.862277	-0.300330
N239	N	-0.832297	1.195610	0.033003
N240	N	-0.498963	1.528944	0.366336
H241	H	-1.189446	0.830202	-0.265533
H242	H	-0.856113	1.163536	0.067800
H243	H	-0.522780	1.496869	0.401134
N244	N	-0.489094	0.880495	-0.614467
N245	N	-0.155761	1.213829	-0.281134
N246	N	0.177572	1.547162	0.052199
N247	N	-0.528633	0.837421	-0.643851
N248	N	-0.195300	1.170754	-0.310517
N249	N	0.138034	1.504087	0.022816
H250	H	-0.558563	0.804809	-0.614743
H251	H	-0.225230	1.138142	-0.281409
H252	H	0.108103	1.471475	0.051924
H253	H	-0.986273	0.924286	-0.295073
H254	H	-0.652940	1.257619	0.038260
H255	H	-0.319606	1.590953	0.371594
N256	N	-0.992248	1.089379	-0.474255
N257	N	-0.658914	1.422712	-0.140922
N258	N	-0.325581	1.756046	0.192411
N259	N	-1.002669	1.081650	-0.538439
N260	N	-0.669335	1.414983	-0.205106
N261	N	-0.336002	1.748317	0.128227
H262	H	-0.978859	1.113715	-0.573250
H263	H	-0.645526	1.447048	-0.239917
H264	H	-0.312192	1.780382	0.093416
N265	N	-0.469585	0.570756	-0.432704
N266	N	-0.136252	0.904089	-0.099371
N267	N	0.197081	1.237422	0.233963
N268	N	-0.511505	0.529065	-0.404390
N269	N	-0.178171	0.862398	-0.071057
N270	N	0.155162	1.195732	0.262277
H271	H	-0.544001	0.499971	-0.434236
H272	H	-0.210668	0.833304	-0.100902
H273	H	0.122666	1.166637	0.232431
H274	H	-0.785152	0.891506	-0.259525
H275	H	-0.451819	1.224839	0.073808
H276	H	-0.118486	1.558172	0.407141
N277	N	-0.289953	1.097367	-0.961869
N278	N	0.043380	1.430700	-0.628536
N279	N	0.376714	1.764033	-0.295203
N280	N	-0.242754	1.076236	-0.922038
N281	N	0.090579	1.409570	-0.588704
N282	N	0.423912	1.742903	-0.255371
H283	H	-0.210791	1.111034	-0.898307
H284	H	0.122543	1.444367	-0.564974
H285	H	0.455876	1.777700	-0.231640
H286	H	-0.329949	1.053849	-0.769262
H287	H	0.003385	1.387183	-0.435928
H288	H	0.336718	1.720516	-0.102595
H289	H	-0.652522	0.896890	-0.265395
H290	H	-0.319189	1.230223	0.067938
H291	H	0.014144	1.563557	0.401271
H292	H	-0.465779	0.712017	-0.429223
H293	H	-0.132446	1.045351	-0.095890
H294	H	0.200888	1.378684	0.237443
N295	N	-0.287537	0.733822	-0.265399
N296	N	0.045796	1.067155	0.067934
N297	N	0.379130	1.400489	0.401268
N298	N	-0.244617	0.704418	-0.225951
N299	N	0.088716	1.037751	0.107382
N300	N	0.422050	1.371084	0.440716
H301	H	-0.212125	0.733509	-0.196098
H302	H	0.121208	1.066843	0.137236
H303	H	0.454542	1.400176	0.470569
N304	N	-0.295618	1.091194	-1.109969
N305	N	0.037715	1.424527	-0.776636
N306	N	0.371049	1.757860	-0.443303
N307	N	-0.251546	1.066653	-1.151893
N308	N	0.081787	1.399986	-0.818559
N309	N	0.415121	1.733320	-0.485226
H310	H	-0.221610	1.099245	-1.181017
H311	H	0.111724	1.432578	-0.847684
H312	H	0.445057	1.765912	-0.514350
N313	N	-0.497429	0.238431	-0.458334
N314	N	-0.164096	0.571764	-0.125001
N315	N	0.169238	0.905097	0.208332
N316	N	-0.494703	0.173020	-0.455828
N317	N	-0.161370	0.506353	-0.122495
N318	N	0.171964	0.839687	0.210839
H319	H	-0.527182	0.143914	-0.485680
H320	H	-0.193849	0.477247	-0.152347
H321	H	0.139485	0.810580	0.180986
H322	H	-0.319195	0.260246	-0.294513
H323	H	0.014138	0.593579	0.038820
H324	H	0.347471	0.926913	0.372153
H325	H	-0.665330	1.052776	-0.434574
H326	H	-0.331997	1.386109	-0.101241
H327	H	0.001337	1.719442	0.232092
N328	N	-0.806248	1.055979	-0.438045
N329	N	-0.472915	1.389312	-0.104711
N330	N	-0.139582	1.722646	0.228622
N331	N	-0.776750	1.095657	-0.481111
N332	N	-0.443416	1.428991	-0.147778
N333	N	-0.110083	1.762324	0.185555
H334	H	-0.805653	1.125580	-0.513591
H335	H	-0.472320	1.458913	-0.180258
H336	H	-0.138987	1.792247	0.153075
H337	H	-1.131703	1.074780	-0.458387
H338	H	-0.798369	1.408114	-0.125053
H339	H	-0.465036	1.741447	0.208280
N340	N	-0.906819	0.920749	-0.291239
N341	N	-0.573486	1.254082	0.042094
N342	N	-0.240153	1.587415	0.375427
N343	N	-0.946942	0.945681	-0.245714
N344	N	-0.613608	1.279014	0.087620
N345	N	-0.280275	1.612348	0.420953
H346	H	-0.970784	0.913632	-0.210911
H347	H	-0.637451	1.246965	0.122422
H348	H	-0.304118	1.580298	0.455756
H349	H	-0.884258	1.041726	-0.422544
H350	H	-0.550925	1.375059	-0.089210
H351	H	-0.217591	1.708392	0.244123
