data_functionalizedCrystal
_audit_creation_method	'MofGen! by Chris Wilmer'
_symmetry_space_group_name_H-M	'P1'
_symmetry_Int_Tables_number	1
_symmetry_cell_setting	triclinic
loop_
_symmetry_equiv_pos_as_xyz
  x,y,z
_cell_length_a	10.685980
_cell_length_b	16.959447
_cell_length_c	10.686203
_cell_angle_alpha	94.396615
_cell_angle_beta	90.325766
_cell_angle_gamma	85.610451
loop_
_atom_site_label
_atom_site_type_symbol
_atom_site_fract_x
_atom_site_fract_y
_atom_site_fract_z
Zn1	Zn	1.956194	-0.524087	0.352431
Zn2	Zn	1.972182	-0.382616	0.562234
Zn3	Zn	1.746426	-0.381063	0.368555
Zn4	Zn	1.762472	-0.503902	0.578220
O5	O	1.859319	-0.447917	0.465360
O6	O	2.133868	-0.514419	0.366824
O7	O	1.942212	-0.271795	0.536600
O8	O	1.760846	-0.407834	0.190868
O9	O	2.145615	-0.410480	0.520965
O10	O	1.914962	-0.512913	0.179022
O11	O	1.776350	-0.270654	0.394305
O12	O	1.573002	-0.388260	0.409806
O13	O	1.788193	-0.617194	0.548211
O14	O	1.584790	-0.478509	0.563846
O15	O	1.930520	-0.632025	0.382325
O16	O	1.957770	-0.390906	0.739903
O17	O	1.803696	-0.480015	0.751648
C18	C	1.533377	-0.431026	0.490311
C19	C	1.393940	-0.423818	0.501015
C20	C	1.859363	-0.654093	0.465252
C21	C	1.859382	-0.741952	0.465206
C22	C	1.785418	-1.105723	0.551432
C23	C	1.933625	-1.121161	0.378694
C24	C	1.933593	-1.038612	0.378723
C25	C	1.859475	-0.989615	0.465109
C26	C	1.785387	-1.023166	0.551466
C27	C	2.007689	-1.005054	0.292375
C28	C	2.007661	-0.922501	0.292402
C29	C	1.933535	-0.873502	0.378783
C30	C	1.859444	-0.907058	0.465143
C31	C	1.785325	-0.858060	0.551529
C32	C	1.711226	-0.891615	0.637884
C33	C	1.711261	-0.974167	0.637848
C34	C	1.933500	-0.790950	0.378820
C35	C	1.785294	-0.775504	0.551564
C36	C	2.186533	-0.464874	0.440313
C37	C	2.325972	-0.472100	0.429639
C38	C	1.884243	-0.433458	0.791291
C39	C	1.895021	-0.427304	0.930717
C40	C	1.859340	-0.242551	0.465372
C41	C	1.859537	-0.154720	0.465046
C42	C	1.834292	-0.462441	1.138157
C43	C	1.823529	-0.468605	0.998730
H44	H	1.345451	-0.376960	0.570317
Br45	Br	1.707758	-0.535390	0.918003
Br46	Br	1.406774	-0.550190	0.314120
H47	H	2.068040	-1.044954	0.222052
Br48	Br	2.034067	-0.745414	0.261646
Br49	Br	1.684688	-0.709013	0.668799
Br50	Br	2.010765	-0.360507	1.011442
H51	H	1.650885	-0.851711	0.708225
Br52	Br	1.610713	-1.019710	0.755037
H53	H	1.725085	-1.133047	0.621737
H54	H	2.067996	-0.895188	0.222086
Br55	Br	2.034223	-1.187657	0.261472
