data_functionalizedCrystal
_audit_creation_method	'MofGen! by Chris Wilmer'
_symmetry_space_group_name_H-M	'P1'
_symmetry_Int_Tables_number	1
_symmetry_cell_setting	triclinic
loop_
_symmetry_equiv_pos_as_xyz
  x,y,z
_cell_length_a	12.594517
_cell_length_b	19.805405
_cell_length_c	19.805407
_cell_angle_alpha	90.015038
_cell_angle_beta	90.008588
_cell_angle_gamma	90.026210
loop_
_atom_site_label
_atom_site_type_symbol
_atom_site_fract_x
_atom_site_fract_y
_atom_site_fract_z
Zn1	Zn	1.627056	-0.269578	0.382700
Zn2	Zn	1.626955	-0.382738	0.269508
Zn3	Zn	1.449100	-0.269568	0.269526
Zn4	Zn	1.449010	-0.382730	0.382656
O5	O	1.538030	-0.326153	0.326098
O6	O	1.775989	-0.284596	0.367696
O7	O	1.603357	-0.367725	0.174794
O8	O	1.472786	-0.174853	0.284564
O9	O	1.775914	-0.367735	0.284534
O10	O	1.603530	-0.174860	0.367713
O11	O	1.472688	-0.284579	0.174807
O12	O	1.300142	-0.284571	0.284522
O13	O	1.472634	-0.367721	0.477379
O14	O	1.300076	-0.367711	0.367638
O15	O	1.603443	-0.284588	0.477411
O16	O	1.603270	-0.477453	0.284492
O17	O	1.472535	-0.477447	0.367621
C18	C	1.537911	-0.502009	0.326065
C19	C	1.537957	-0.577241	0.326073
C20	C	1.261489	-0.326140	0.326078
C21	C	1.143184	-0.326150	0.326085
C22	C	1.606097	-0.612566	0.282833
C23	C	1.606142	-0.683255	0.282848
C24	C	1.538041	-0.718617	0.326100
C25	C	1.469898	-0.683287	0.369345
C26	C	1.469859	-0.612600	0.369333
C27	C	1.470055	-0.968360	0.369395
C28	C	1.470097	-1.039052	0.369403
C29	C	1.606338	-1.039015	0.282911
C30	C	1.606299	-0.968328	0.282898
C31	C	1.538160	-0.933004	0.326146
C32	C	1.538114	-0.856356	0.326130
C33	C	1.538082	-0.795264	0.326113
C34	C	1.073936	-0.280869	0.280964
C35	C	1.003113	-0.342603	0.264309
C36	C	1.003208	-0.264446	0.342752
C37	C	1.073919	-0.387917	0.309398
C38	C	1.074020	-0.309718	0.387869
C39	C	1.003230	-0.371495	0.371237
C40	C	1.815651	-0.326167	0.326118
C41	C	1.933957	-0.326173	0.326127
C42	C	1.538040	-0.326155	0.502640
C43	C	1.538044	-0.326155	0.577872
C44	C	1.538180	-0.149611	0.326145
C45	C	1.538243	-0.074379	0.326166
C46	C	1.606148	-0.282875	0.613234
C47	C	1.606139	-0.282873	0.683923
C48	C	1.538030	-0.326155	0.719248
C49	C	1.469919	-0.369437	0.683881
C50	C	1.469923	-0.369435	0.613194
C51	C	1.469898	-0.369445	0.968954
C52	C	1.469901	-0.369445	1.039646
C53	C	1.606113	-0.282883	1.039683
C54	C	1.606118	-0.282881	0.968996
C55	C	1.538003	-0.326160	0.933635
C56	C	1.538012	-0.326161	0.856987
C57	C	1.538025	-0.326158	0.795895
C58	C	1.538011	-0.326166	1.150242
C59	C	1.538000	-0.326161	1.075010
H60	H	1.661547	-0.583779	0.247610
H61	H	0.972380	-0.409842	0.409412
C62	C	1.395188	-1.077953	0.416987
C63	C	1.311682	-1.126602	0.387619
C64	C	1.236776	-1.165503	0.435200
C65	C	1.245376	-1.155753	0.512149
C66	C	1.328885	-1.107102	0.541521
C67	C	1.403791	-1.068201	0.493940
H68	H	1.305313	-1.133821	0.330653
H69	H	1.174957	-1.201518	0.413456
H70	H	1.189926	-1.184550	0.547371
H71	H	1.335254	-1.099883	0.598487
H72	H	1.465610	-1.032186	0.515684
H73	H	0.972091	-0.212261	0.356808
C74	C	1.681035	-0.235267	0.930139
C75	C	1.681040	-0.235264	0.852386
C76	C	1.755953	-0.187646	0.813530
C77	C	1.830862	-0.140033	0.852427
C78	C	1.830860	-0.140035	0.930184
C79	C	1.755946	-0.187652	0.969040
H80	H	1.625585	-0.270511	0.823588
H81	H	1.755955	-0.187645	0.755968
H82	H	1.886318	-0.104784	0.823663
H83	H	1.886314	-0.104787	0.958982
H84	H	1.755945	-0.187654	1.026602
C85	C	1.681035	-0.235268	1.078581
C86	C	1.672424	-0.158322	1.068877
C87	C	1.747346	-0.110710	1.107772
C88	C	1.830880	-0.140044	1.156371
C89	C	1.839495	-0.216994	1.166078
C90	C	1.764572	-0.264606	1.127182
H91	H	1.610584	-0.136604	1.032899
H92	H	1.740968	-0.053747	1.100587
H93	H	1.886342	-0.104799	1.185164
H94	H	1.901335	-0.238712	1.202056
H95	H	1.770950	-0.321569	1.134368
C96	C	1.394968	-0.417053	1.078506
C97	C	1.320038	-0.464656	1.039613
C98	C	1.245110	-0.512261	1.078473
C99	C	1.245111	-0.512263	1.156226
C100	C	1.320044	-0.464658	1.195123
C101	C	1.394972	-0.417053	1.156263
H102	H	1.320034	-0.464657	0.982051
H103	H	1.189639	-0.547501	1.049678
H104	H	1.189645	-0.547503	1.184992
H105	H	1.320048	-0.464658	1.252685
H106	H	1.450442	-0.381813	1.185058
C107	C	1.681103	-0.722112	0.235287
C108	C	1.756012	-0.683216	0.187711
C109	C	1.830983	-0.722073	0.140151
C110	C	1.831045	-0.799826	0.140169
C111	C	1.756134	-0.838726	0.187747
C112	C	1.681163	-0.799869	0.235306
H113	H	1.755969	-0.625655	0.187697
H114	H	1.886438	-0.693276	0.104931
H115	H	1.886544	-0.828590	0.104962
H116	H	1.756177	-0.896288	0.187761
H117	H	1.625708	-0.828666	0.270527
H118	H	1.414450	-0.404696	0.940172
H119	H	1.414455	-0.404672	0.584403
C120	C	1.395108	-0.929510	0.416968
C121	C	1.320202	-0.968410	0.464544
C122	C	1.245255	-0.929556	0.512121
C123	C	1.245213	-0.851803	0.512122
C124	C	1.320121	-0.812899	0.464545
C125	C	1.395068	-0.851753	0.416967
H126	H	1.320231	-1.025971	0.464544
H127	H	1.189803	-0.958356	0.547341
H128	H	1.189732	-0.823042	0.547342
H129	H	1.320092	-0.755338	0.464544
H130	H	1.450520	-0.822953	0.381747
C131	C	1.394901	-0.573739	0.416896
C132	C	1.273913	-0.583519	0.411302
C133	C	1.198956	-0.544659	0.458868
C134	C	1.244988	-0.496018	0.512027
C135	C	1.365982	-0.486235	0.517622
C136	C	1.440939	-0.525096	0.470057
H137	H	1.239832	-0.619528	0.371949
H138	H	1.109388	-0.551901	0.454725
H139	H	1.189500	-0.467251	0.547238
H140	H	1.400063	-0.450227	0.556976
H141	H	1.530507	-0.517854	0.474199
C142	C	1.395005	-0.417049	0.722742
C143	C	1.441092	-0.470190	0.771325
C144	C	1.366183	-0.517805	0.810187
C145	C	1.245186	-0.512280	0.800466
C146	C	1.199092	-0.459137	0.751881
C147	C	1.274001	-0.411521	0.713019
H148	H	1.530667	-0.474283	0.778523
H149	H	1.400306	-0.557146	0.846153
H150	H	1.189734	-0.547527	0.829234
H151	H	1.109517	-0.455044	0.744683
H152	H	1.239879	-0.372181	0.677053
C153	C	1.115890	-0.229189	0.229357
C154	C	1.086416	-0.154058	0.236325
C155	C	1.128372	-0.102383	0.184718
C156	C	1.199801	-0.125839	0.126142
C157	C	1.229278	-0.200973	0.119172
C158	C	1.187322	-0.252649	0.170779
H159	H	1.033537	-0.136692	0.279689
H160	H	1.106551	-0.046763	0.189878
H161	H	1.230859	-0.087585	0.087939
H162	H	1.282157	-0.218340	0.075808
H163	H	1.209144	-0.308268	0.165619
C164	C	0.961049	-0.361409	0.193748
C165	C	0.988949	-0.317086	0.132388
C166	C	0.946900	-0.335891	0.061824
C167	C	0.876951	-0.399020	0.052622
C168	C	0.849047	-0.443348	0.113985
C169	C	0.891097	-0.424542	0.184548
H170	H	1.040733	-0.270350	0.139198
H171	H	0.967556	-0.303076	0.016400
H172	H	0.845824	-0.412940	0.000387
H173	H	0.797264	-0.490083	0.107174
H174	H	0.870440	-0.457357	0.229973
H175	H	1.661613	-0.247632	0.584477
H176	H	1.661749	-0.939538	0.247676
H177	H	1.414454	-0.712085	0.404565
H178	H	1.661823	-1.067784	0.247699
H179	H	1.661599	-0.247631	0.712711
C180	C	1.116123	-0.290893	0.458411
C181	C	1.037763	-0.274911	0.515908
C182	C	1.079861	-0.256073	0.586451
C183	C	1.200320	-0.253218	0.599496
C184	C	1.278688	-0.269201	0.541997
C185	C	1.236589	-0.288039	0.471455
H186	H	0.948586	-0.277024	0.506253
H187	H	1.021848	-0.244242	0.629015
H188	H	1.231484	-0.239274	0.651716
H189	H	1.367865	-0.267088	0.551653
H190	H	1.294603	-0.299871	0.428890
C191	C	1.115695	-0.458445	0.290289
C192	C	1.236099	-0.471458	0.286707
C193	C	1.277877	-0.541983	0.267596
C194	C	1.199251	-0.599497	0.252067
C195	C	1.078840	-0.586486	0.255650
C196	C	1.037062	-0.515961	0.274761
H197	H	1.294310	-0.428881	0.298202
H198	H	1.367014	-0.551614	0.264944
H199	H	1.230178	-0.651704	0.237920
H200	H	1.020629	-0.629063	0.244154
H201	H	0.947925	-0.506330	0.277412
