data_functionalizedCrystal
_audit_creation_method	'MofGen! by Chris Wilmer'
_symmetry_space_group_name_H-M	'P1'
_symmetry_Int_Tables_number	1
_symmetry_cell_setting	triclinic
loop_
_symmetry_equiv_pos_as_xyz
  x,y,z
_cell_length_a	12.759394
_cell_length_b	12.759401
_cell_length_c	12.759393
_cell_angle_alpha	89.981198
_cell_angle_beta	89.968528
_cell_angle_gamma	90.014481
loop_
_atom_site_label
_atom_site_type_symbol
_atom_site_fract_x
_atom_site_fract_y
_atom_site_fract_z
Zn1	Zn	-0.418223	1.606251	-0.593994
Zn2	Zn	0.081777	2.106251	-0.093994
Zn3	Zn	-0.593939	1.606146	-0.418312
Zn4	Zn	-0.093939	2.106146	0.081688
Zn5	Zn	-0.418274	1.430554	-0.418331
Zn6	Zn	0.081726	1.930554	0.081669
Zn7	Zn	-0.593860	1.430541	-0.593951
Zn8	Zn	-0.093860	1.930541	-0.093951
O9	O	-0.506074	1.518373	-0.506147
O10	O	-0.006074	2.018373	-0.006147
O11	O	-0.441544	1.753258	-0.570699
O12	O	0.058456	2.253258	-0.070699
O13	O	-0.570692	1.582815	-0.271293
O14	O	-0.070692	2.082815	0.228707
O15	O	-0.271246	1.453910	-0.441659
O16	O	0.228754	1.953910	0.058341
O17	O	-0.570642	1.753181	-0.441626
O18	O	-0.070642	2.253181	0.058374
O19	O	-0.271209	1.582994	-0.570718
O20	O	0.228791	2.082994	-0.070718
O21	O	-0.441631	1.453808	-0.271307
O22	O	0.058369	1.953808	0.228693
O23	O	-0.441554	1.283531	-0.441618
O24	O	0.058446	1.783531	0.058382
O25	O	-0.570506	1.453888	-0.740978
O26	O	-0.070506	1.953888	-0.240978
O27	O	-0.570556	1.283522	-0.570645
O28	O	-0.070556	1.783522	-0.070645
O29	O	-0.441467	1.582981	-0.741009
O30	O	0.058533	2.082981	-0.241009
O31	O	-0.740950	1.582802	-0.441584
O32	O	-0.240950	2.082802	0.058416
O33	O	-0.740891	1.453786	-0.570626
O34	O	-0.240891	1.953786	-0.070626
C35	C	-0.506052	1.245406	-0.506130
C36	C	-0.006052	1.745406	-0.006130
C37	C	-0.506068	1.128629	-0.506147
C38	C	-0.006068	1.628629	-0.006147
C39	C	-0.438831	0.964016	-0.439091
C40	C	0.061169	1.464016	0.060909
C41	C	-0.438809	1.073740	-0.439081
C42	C	0.061191	1.573740	0.060919
C43	C	-0.573346	1.073788	-0.573236
C44	C	-0.073346	1.573788	-0.073236
C45	C	-0.573362	0.964066	-0.573251
C46	C	-0.073362	1.464066	-0.073251
C47	C	-0.371575	0.909133	-0.372013
C48	C	0.128425	1.409133	0.127987
C49	C	-0.304296	0.963966	-0.304926
C50	C	0.195704	1.463966	0.195074
C51	C	-0.304274	1.073691	-0.304915
C52	C	0.195726	1.573691	0.195085
C53	C	-0.371531	1.128581	-0.371992
C54	C	0.128469	1.628581	0.128008
C55	C	-0.779042	1.518310	-0.506121
C56	C	-0.279042	2.018310	-0.006121
C57	C	-0.895818	1.518379	-0.506146
C58	C	-0.395818	2.018379	-0.006146
C59	C	-0.895826	1.652824	-0.371875
C60	C	-0.395826	2.152824	0.128125
C61	C	-0.950691	1.720074	-0.304753
C62	C	-0.450691	2.220074	0.195247
C63	C	-1.060412	1.720136	-0.304781
C64	C	-0.560412	2.220136	0.195219
C65	C	-1.115272	1.652942	-0.371942
C66	C	-0.615272	2.152942	0.128058
C67	C	-1.060407	1.585693	-0.439065
C68	C	-0.560407	2.085693	0.060935
C69	C	-0.950683	1.585636	-0.439027
C70	C	-0.450683	2.085636	0.060973
C71	C	-1.060399	1.451254	-0.573339
C72	C	-0.560399	1.951254	-0.073339
C73	C	-0.950678	1.451186	-0.573307
C74	C	-0.450678	1.951186	-0.073307
C75	C	-1.115259	1.384061	-0.640500
C76	C	-0.615259	1.884061	-0.140500
C77	C	-1.060394	1.316804	-0.707619
C78	C	-0.560394	1.816804	-0.207619
C79	C	-0.950666	1.316744	-0.707587
C80	C	-0.450666	1.816744	-0.207587
C81	C	-0.895813	1.383936	-0.640429
C82	C	-0.395813	1.883936	-0.140429
C83	C	-0.232041	1.518465	-0.506195
C84	C	0.267959	2.018465	-0.006195
C85	C	-0.115264	1.518504	-0.506216
C86	C	0.384736	2.018504	-0.006216
C87	C	-0.505972	1.518445	-0.780180
C88	C	-0.005972	2.018445	-0.280180
C89	C	-0.505928	1.518476	-0.896957
C90	C	-0.005928	2.018476	-0.396957
C91	C	-0.506097	1.792406	-0.506165
C92	C	-0.006097	2.292406	-0.006165
C93	C	-0.506106	1.909183	-0.506172
C94	C	-0.006106	2.409183	-0.006172
C95	C	-0.573053	1.451311	-1.061529
C96	C	-0.073053	1.951311	-0.561529
C97	C	-0.573091	1.451279	-0.951805
C98	C	-0.073091	1.951279	-0.451805
C99	C	-0.438715	1.585702	-0.951839
C100	C	0.061285	2.085702	-0.451839
C101	C	-0.438673	1.585729	-1.061561
C102	C	0.061327	2.085729	-0.561561
C103	C	-0.640228	1.384117	-1.116372
C104	C	-0.140228	1.884117	-0.616372
C105	C	-0.707440	1.316889	-1.061498
C106	C	-0.207440	1.816889	-0.561498
C107	C	-0.707478	1.316856	-0.951774
C108	C	-0.207478	1.816856	-0.451774
C109	C	-0.640304	1.384052	-0.896924
C110	C	-0.140304	1.884052	-0.396924
C111	C	-0.506100	1.518362	-0.233179
C112	C	-0.006100	2.018362	0.266821
C113	C	-0.505847	1.518535	-0.116403
C114	C	-0.005847	2.018535	0.383597
H115	H	-0.371588	0.819790	-0.372012
H116	H	0.128412	1.319790	0.127988
H117	H	-0.249531	0.919267	-0.250321
H118	H	0.250469	1.419267	0.249679
Br119	Br	-0.876216	1.225480	-0.798696
Br120	Br	-0.376216	1.725480	-0.298696
H121	H	-0.806485	1.652767	-0.371832
H122	H	-0.306485	2.152767	0.128168
H123	H	-0.640338	1.384017	-0.807579
H124	H	-0.140338	1.884017	-0.307579
Br125	Br	-0.212954	1.148106	-0.213884
Br126	Br	0.287046	1.648106	0.286116
H127	H	-0.628105	1.118489	-0.627846
H128	H	-0.128105	1.618489	-0.127846
H129	H	-0.384027	1.640410	-0.907171
H130	H	0.115973	2.140410	-0.407171
H131	H	-0.806472	1.383887	-0.640390
H132	H	-0.306472	1.883887	-0.140390
H133	H	-1.204600	1.384120	-0.640523
H134	H	-0.704600	1.884120	-0.140523
Br135	Br	-0.347429	1.676928	-1.136040
Br136	Br	0.152571	2.176928	-0.636040
H137	H	-0.371498	1.217926	-0.371989
H138	H	0.128502	1.717926	0.128011
Br139	Br	-1.134849	1.225633	-0.798766
Br140	Br	-0.634849	1.725633	-0.298766
Br141	Br	-0.640187	1.384165	-1.265283
Br142	Br	-0.140187	1.884165	-0.765283
Br143	Br	-0.664658	0.889642	-0.664298
Br144	Br	-0.164658	1.389642	-0.164298
H145	H	-0.906015	1.774785	-0.250073
H146	H	-0.406015	2.274785	0.249927
Br147	Br	-1.134876	1.811412	-0.213694
Br148	Br	-0.634876	2.311412	0.286306
H149	H	-1.204613	1.653008	-0.371968
H150	H	-0.704613	2.153008	0.128032
Br151	Br	-0.798586	1.225687	-1.135934
Br152	Br	-0.298586	1.725687	-0.635934
H153	H	-0.762196	1.262107	-0.907098
H154	H	-0.262196	1.762107	-0.407098
