data_functionalizedCrystal
_audit_creation_method	'MofGen! by Chris Wilmer'
_symmetry_space_group_name_H-M	'P1'
_symmetry_Int_Tables_number	1
_symmetry_cell_setting	triclinic
loop_
_symmetry_equiv_pos_as_xyz
  x,y,z
_cell_length_a	12.759401
_cell_length_b	17.639999
_cell_length_c	12.759393
_cell_angle_alpha	101.231994
_cell_angle_beta	89.980324
_cell_angle_gamma	101.193306
loop_
_atom_site_label
_atom_site_type_symbol
_atom_site_fract_x
_atom_site_fract_y
_atom_site_fract_z
Zn1	Zn	1.690784	0.314622	-0.509512
Zn2	Zn	1.726186	0.446815	-0.298340
Zn3	Zn	1.515093	0.314661	-0.333841
Zn4	Zn	1.550570	0.446758	-0.473997
O5	O	1.620658	0.380714	-0.403922
O6	O	1.842503	0.332165	-0.481506
O7	O	1.698153	0.429326	-0.156017
O8	O	1.508735	0.204049	-0.386865
O9	O	1.868513	0.429287	-0.326359
O10	O	1.637814	0.204020	-0.515930
O11	O	1.543064	0.332232	-0.182100
O12	O	1.372776	0.332176	-0.352427
O13	O	1.569201	0.429189	-0.625740
O14	O	1.398841	0.429227	-0.455398
O15	O	1.672215	0.332109	-0.651833
O16	O	1.732554	0.557414	-0.291921
O17	O	1.603529	0.557372	-0.420975
C18	C	1.347687	0.380700	-0.403911
C19	C	1.230914	0.380714	-0.403926
C20	C	1.162534	0.330233	-0.484791
C21	C	1.052812	0.330241	-0.484795
C22	C	1.079862	0.431217	-0.323067
C23	C	1.189581	0.431204	-0.323059
C24	C	0.877865	0.237076	-0.547578
C25	C	0.809483	0.186603	-0.628457
C26	C	0.841906	0.174557	-0.734229
C27	C	0.942712	0.212995	-0.759141
C28	C	1.011090	0.263474	-0.678266
C29	C	0.978665	0.275505	-0.572483
C30	C	1.364529	0.524370	-0.260287
C31	C	1.432911	0.574854	-0.179415
C32	C	1.400492	0.586908	-0.073639
C33	C	1.299687	0.548484	-0.048727
C34	C	1.231306	0.498000	-0.129599
C35	C	1.263731	0.485945	-0.235375
C36	C	1.675761	0.586072	-0.348764
C37	C	1.699431	0.673925	-0.325202
C38	C	1.441111	0.962889	-0.583278
C39	C	1.463354	1.045441	-0.561104
C40	C	1.597790	1.045419	-0.426856
C41	C	1.575562	0.962867	-0.449022
C42	C	1.497220	0.921608	-0.527233
C43	C	1.631671	0.921585	-0.392977
C44	C	1.609441	0.839039	-0.415138
C45	C	1.531100	0.797775	-0.493343
C46	C	1.474989	0.839062	-0.549393
C47	C	1.710008	0.962845	-0.314761
C48	C	1.766117	0.921564	-0.258716
C49	C	1.743892	0.839016	-0.280882
C50	C	1.665552	0.797752	-0.359087
C51	C	1.800003	0.797729	-0.224831
C52	C	1.777772	0.715183	-0.246991
C53	C	1.643321	0.715206	-0.381247
C54	C	1.894695	0.380728	-0.403934
C55	C	2.011473	0.380734	-0.403939
C56	C	1.565335	1.174554	-0.459314
C57	C	1.541676	1.086701	-0.482907
C58	C	1.620716	0.380638	-0.677976
C59	C	1.620741	0.380606	-0.794762
C60	C	1.674383	0.330048	-0.863214
C61	C	1.674392	0.330014	-0.972948
C62	C	1.567115	0.431102	-0.945764
C63	C	1.567101	0.431131	-0.836034
C64	C	1.686953	0.236760	-1.147963
C65	C	1.740614	0.186209	-1.216417
C66	C	1.839871	0.174091	-1.184077
C67	C	1.885492	0.212534	-1.083281
C68	C	1.831838	0.263090	-1.014831
C69	C	1.732562	0.275194	-1.047173
C70	C	1.554551	0.524386	-0.661017
C71	C	1.500903	0.574948	-0.592563
C72	C	1.401646	0.587074	-0.624899
C73	C	1.356033	0.548645	-0.725694
C74	C	1.409681	0.498084	-0.794148
C75	C	1.508936	0.485956	-0.761805
C76	C	1.620645	0.380732	-0.130950
C77	C	1.620764	0.380542	-0.014225
H78	H	0.851462	0.246872	-0.461449
Cl79	Cl	1.864603	0.973439	-0.160401
Cl80	Cl	1.104592	0.449671	-0.098274
H81	H	1.635371	0.514511	-0.634675
Cl82	Cl	1.696276	1.097295	-0.328540
H83	H	1.606125	0.246617	-1.174300
H84	H	1.728108	1.030059	-0.296724
H85	H	1.411203	0.805468	-0.613089
H86	H	1.377324	0.929295	-0.646973
H87	H	1.538057	0.606246	-0.510495
H88	H	1.966322	0.202668	-1.056963
Cl89	Cl	1.898479	0.849607	-0.126506
H90	H	1.456166	0.628039	-0.007798
Cl91	Cl	1.503393	0.694002	-0.521446
Cl92	Cl	1.392794	1.097335	-0.631558
Cl93	Cl	1.889180	0.311417	-0.888125
Cl94	Cl	1.848301	0.663283	-0.176525
Cl95	Cl	1.559637	0.623163	-0.210736
Cl96	Cl	1.907328	0.110543	-1.270138
H97	H	1.579535	0.681612	-0.444942
Cl98	Cl	1.499692	0.494621	-0.997657
H99	H	1.718058	0.288905	-0.829615
Cl100	Cl	1.352335	0.449770	-0.920864
Cl101	Cl	1.231250	0.563891	-0.766352
Cl102	Cl	1.334216	0.650654	-0.538850
H103	H	1.046195	0.472325	-0.257228
H104	H	1.196183	0.289118	-0.550636
H105	H	1.093166	0.294766	-0.698548
H106	H	0.969097	0.203189	-0.845276
H107	H	0.786221	0.133459	-0.800082
Cl108	Cl	0.682751	0.138297	-0.597142
H109	H	1.273288	0.558303	0.037404
H110	H	1.703460	0.154909	-1.298485
Cl111	Cl	1.405296	0.509210	-0.393267
