data_functionalizedCrystal
_audit_creation_method	'MofGen! by Chris Wilmer'
_symmetry_space_group_name_H-M	'P1'
_symmetry_Int_Tables_number	1
_symmetry_cell_setting	triclinic
loop_
_symmetry_equiv_pos_as_xyz
  x,y,z
_cell_length_a	18.050591
_cell_length_b	21.295417
_cell_length_c	21.295411
_cell_angle_alpha	89.978356
_cell_angle_beta	89.969449
_cell_angle_gamma	90.026512
loop_
_atom_site_label
_atom_site_type_symbol
_atom_site_fract_x
_atom_site_fract_y
_atom_site_fract_z
Zn1	Zn	1.135351	-0.250748	-0.356012
Zn2	Zn	1.135236	-0.356000	-0.250737
Zn3	Zn	1.011150	-0.250741	-0.250746
Zn4	Zn	1.011114	-0.355976	-0.355958
O5	O	1.073213	-0.303366	-0.303363
O6	O	1.239261	-0.264723	-0.342066
O7	O	1.118743	-0.342044	-0.162649
O8	O	1.027689	-0.162653	-0.264736
O9	O	1.239176	-0.342051	-0.264721
O10	O	1.118939	-0.162658	-0.342074
O11	O	1.027577	-0.264711	-0.162655
O12	O	0.907220	-0.264688	-0.264684
O13	O	1.027627	-0.342010	-0.444055
O14	O	0.907194	-0.342003	-0.341983
O15	O	1.118904	-0.264700	-0.444094
O16	O	1.118708	-0.444086	-0.264669
O17	O	1.027515	-0.444068	-0.341974
C18	C	0.880261	-0.303343	-0.303329
C19	C	0.797715	-0.303348	-0.303329
C20	C	0.598257	-0.261255	-0.261390
C21	C	0.548832	-0.318668	-0.245895
C22	C	0.646584	-0.303367	-0.303357
C23	C	0.548928	-0.245973	-0.318851
C24	C	0.500599	-0.303380	-0.303383
C25	C	0.598246	-0.360811	-0.287832
C26	C	0.598347	-0.288077	-0.360814
C27	C	0.548944	-0.345530	-0.345341
C28	C	0.730683	-0.303358	-0.303340
C29	C	0.416503	-0.303395	-0.303400
C30	C	1.073115	-0.466918	-0.303329
C31	C	1.073142	-0.536886	-0.303335
C32	C	1.120668	-0.569741	-0.263123
C33	C	1.120702	-0.635483	-0.263137
C34	C	1.073198	-0.668368	-0.303356
C35	C	1.025669	-0.635506	-0.343576
C36	C	1.025640	-0.569764	-0.343565
N37	N	1.008232	-0.771631	-0.308144
N38	N	1.008261	-0.834083	-0.308150
C39	C	1.073281	-0.866443	-0.303392
N40	N	1.138273	-0.833993	-0.298616
N41	N	1.138243	-0.771536	-0.298606
C42	C	1.073224	-0.739654	-0.303373
C43	C	1.120849	-0.970584	-0.263194
C44	C	1.120885	-1.036327	-0.263213
C45	C	1.025844	-1.036348	-0.343648
C46	C	1.025815	-0.970606	-0.343633
C47	C	1.073316	-0.937727	-0.303402
C48	C	1.266918	-0.303390	-0.303399
C49	C	1.349464	-0.303400	-0.303414
C50	C	1.073274	-0.303353	-0.467554
C51	C	1.073301	-0.303347	-0.537522
C52	C	1.073331	-0.139176	-0.303412
C53	C	1.073381	-0.069208	-0.303433
C54	C	1.120826	-0.263090	-0.570410
C55	C	1.120825	-0.263063	-0.636153
C56	C	1.073306	-0.303304	-0.669004
C57	C	1.025771	-0.343564	-0.636108
C58	C	1.025768	-0.343586	-0.570367
N59	N	1.067577	-0.358371	-0.772219
N60	N	1.067584	-0.358349	-0.834671
C61	C	1.073311	-0.303240	-0.867079
N62	N	1.079046	-0.248153	-0.834677
N63	N	1.079042	-0.248176	-0.772220
C64	C	1.073304	-0.303285	-0.740290
C65	C	1.120838	-0.262950	-0.971253
C66	C	1.120832	-0.262921	-1.036997
C67	C	1.025782	-0.343429	-1.036951
C68	C	1.025784	-0.343451	-0.971209
C69	C	1.073316	-0.303213	-0.938364
C70	C	1.073194	-0.303334	-0.139812
C71	C	1.073312	-0.303162	-0.069844
H72	H	0.619820	-0.409368	-0.274684
H73	H	0.987169	-1.063123	-0.376398
H74	H	0.619909	-0.225681	-0.225862
Cl75	Cl	0.966030	-0.394151	-0.677407
Cl76	Cl	0.515721	-0.400583	-0.400152
Cl77	Cl	1.180563	-0.929248	-0.212620
Cl78	Cl	0.631952	-0.268069	-0.435797
Cl79	Cl	0.515475	-0.171029	-0.339066
H80	H	1.159348	-0.542973	-0.230367
Cl81	Cl	1.180453	-0.676795	-0.212580
Cl82	Cl	0.966017	-0.394200	-0.529019
H83	H	0.986991	-0.662285	-0.376324
H84	H	1.159538	-0.230182	-0.944509
H85	H	0.987112	-0.943854	-0.376374
Cl86	Cl	1.180577	-0.212501	-0.529123
Cl87	Cl	1.180643	-1.077631	-0.212661
H88	H	0.986938	-0.543013	-0.376311
Cl89	Cl	1.180562	-0.212437	-0.677507
H90	H	1.159532	-0.230135	-1.063773
H91	H	0.987083	-0.376187	-1.063698
Cl92	Cl	0.966037	-0.394066	-0.929861
H93	H	0.527084	-0.331611	-0.197315
