data_functionalizedCrystal
_audit_creation_method	'MofGen! by Chris Wilmer'
_symmetry_space_group_name_H-M	'P1'
_symmetry_Int_Tables_number	1
_symmetry_cell_setting	triclinic
loop_
_symmetry_equiv_pos_as_xyz
  x,y,z
_cell_length_a	16.120530
_cell_length_b	13.897448
_cell_length_c	13.897441
_cell_angle_alpha	90.030599
_cell_angle_beta	92.919063
_cell_angle_gamma	87.113275
loop_
_atom_site_label
_atom_site_type_symbol
_atom_site_fract_x
_atom_site_fract_y
_atom_site_fract_z
Zn1	Zn	1.274607	-0.458859	0.620100
Zn2	Zn	1.607940	-0.125526	0.953434
Zn3	Zn	1.941274	0.207808	1.286767
Zn4	Zn	1.274515	-0.620175	0.458796
Zn5	Zn	1.607849	-0.286842	0.792130
Zn6	Zn	1.941182	0.046491	1.125463
Zn7	Zn	1.135184	-0.450711	0.450646
Zn8	Zn	1.468517	-0.117378	0.783979
Zn9	Zn	1.801850	0.215956	1.117312
Zn10	Zn	1.135168	-0.611923	0.611880
Zn11	Zn	1.468501	-0.278589	0.945214
Zn12	Zn	1.801835	0.054744	1.278547
O13	O	1.204869	-0.535417	0.535356
O14	O	1.538202	-0.202084	0.868689
O15	O	1.871535	0.131250	1.202022
O16	O	1.391262	-0.487122	0.605554
O17	O	1.724595	-0.153788	0.938888
O18	O	2.057928	0.179545	1.272221
O19	O	1.256001	-0.597739	0.322732
O20	O	1.589334	-0.264406	0.656065
O21	O	1.922668	0.068927	0.989398
O22	O	1.153724	-0.316813	0.473153
O23	O	1.487057	0.016520	0.806486
O24	O	1.820390	0.349854	1.139820
O25	O	1.391194	-0.605640	0.487045
O26	O	1.724528	-0.272307	0.820378
O27	O	2.057861	0.061027	1.153712
O28	O	1.256157	-0.322799	0.597651
O29	O	1.589491	0.010534	0.930984
O30	O	1.922824	0.343867	1.264318
O31	O	1.153635	-0.473235	0.316743
O32	O	1.486968	-0.139901	0.650077
O33	O	1.820301	0.193432	0.983410
O34	O	1.018515	-0.465232	0.465182
O35	O	1.351848	-0.131899	0.798516
O36	O	1.685182	0.201434	1.131849
O37	O	1.153697	-0.591574	0.747954
O38	O	1.487030	-0.258241	1.081288
O39	O	1.820363	0.075092	1.414621
O40	O	1.018503	-0.583674	0.583641
O41	O	1.351837	-0.250340	0.916974
O42	O	1.685170	0.082993	1.250308
O43	O	1.256142	-0.479119	0.753994
O44	O	1.589475	-0.145786	1.087327
O45	O	1.922809	0.187547	1.420660
O46	O	1.255986	-0.754060	0.479074
O47	O	1.589319	-0.420726	0.812408
O48	O	1.922652	-0.087393	1.145741
O49	O	1.153608	-0.747996	0.591544
O50	O	1.486941	-0.414663	0.924878
O51	O	1.820274	-0.081330	1.258211
C52	C	1.204808	-0.786028	0.535324
C53	C	1.538141	-0.452694	0.868658
C54	C	1.871474	-0.119361	1.201991
C55	C	1.204858	-0.893245	0.535347
C56	C	1.538191	-0.559911	0.868681
C57	C	1.871525	-0.226578	1.202014
C58	C	0.988259	-0.522674	0.522636
C59	C	1.321592	-0.189341	0.855969
C60	C	1.654926	0.143993	1.189302
C61	C	0.895592	-0.517246	0.517217
C62	C	1.228926	-0.183913	0.850550
C63	C	1.562259	0.149421	1.183884
C64	C	1.204945	-1.089545	0.535413
C65	C	1.538279	-0.756212	0.868746
C66	C	1.871612	-0.422878	1.202080
C67	C	1.204894	-0.980309	0.535379
C68	C	1.538228	-0.646976	0.868713
C69	C	1.871561	-0.313643	1.202046
C70	C	0.725929	-0.507313	0.507332
C71	C	1.059263	-0.173980	0.840665
C72	C	1.392596	0.159354	1.173999
C73	C	0.684648	-0.563592	0.563450
C74	C	1.017981	-0.230259	0.896783
C75	C	1.351315	0.103074	1.230116
C76	C	0.590242	-0.558065	0.557950
C77	C	0.923575	-0.224732	0.891283
C78	C	1.256909	0.108601	1.224616
C79	C	0.820344	-0.512838	0.512831
C80	C	1.153678	-0.179505	0.846164
C81	C	1.487011	0.153828	1.179497
C82	C	1.422324	-0.548210	0.548126
C83	C	1.755657	-0.214877	0.881459
C84	C	2.088991	0.118456	1.214792
C85	C	1.514991	-0.553662	0.553568
C86	C	1.848324	-0.220329	0.886901
C87	C	2.181657	0.113005	1.220234
C88	C	1.204928	-0.535335	0.786952
C89	C	1.538261	-0.202002	1.120286
C90	C	1.871594	0.131331	1.453619
C91	C	1.204953	-0.535300	0.894168
C92	C	1.538286	-0.201967	1.227501
C93	C	1.871620	0.131366	1.560834
C94	C	1.204952	-0.283829	0.535410
C95	C	1.538286	0.049504	0.868743
C96	C	1.871619	0.382838	1.202076
C97	C	1.204988	-0.176617	0.535433
C98	C	1.538321	0.156716	0.868766
C99	C	1.871655	0.490050	1.202099
C100	C	1.204858	-0.535432	0.284741
C101	C	1.538191	-0.202098	0.618074
C102	C	1.871524	0.131235	0.951407
C103	C	1.204994	-0.535204	0.177535
C104	C	1.538327	-0.201871	0.510869
C105	C	1.871661	0.131462	0.844202
C106	C	1.204976	-0.535236	1.090464
C107	C	1.538309	-0.201903	1.423798
C108	C	1.871642	0.131430	1.757131
C109	C	1.204960	-0.535275	0.981231
C110	C	1.538294	-0.201941	1.314564
C111	C	1.871627	0.131392	1.647898
H112	H	0.720207	-0.615924	0.615626
H113	H	1.053541	-0.282591	0.948959
H114	H	1.386874	0.050743	1.282292
Cl115	Cl	0.671032	-0.426521	0.426781
Cl116	Cl	1.004365	-0.093188	0.760115
Cl117	Cl	1.337698	0.240145	1.093448
