data_functionalizedCrystal
_audit_creation_method	'MofGen! by Chris Wilmer'
_symmetry_space_group_name_H-M	'P1'
_symmetry_Int_Tables_number	1
_symmetry_cell_setting	triclinic
loop_
_symmetry_equiv_pos_as_xyz
  x,y,z
_cell_length_a	16.625539
_cell_length_b	19.805407
_cell_length_c	19.805404
_cell_angle_alpha	89.972033
_cell_angle_beta	89.967673
_cell_angle_gamma	90.028037
loop_
_atom_site_label
_atom_site_type_symbol
_atom_site_fract_x
_atom_site_fract_y
_atom_site_fract_z
Zn1	Zn	-0.456047	-1.034735	-0.269487
Zn2	Zn	-0.321205	-1.034640	-0.382680
Zn3	Zn	-0.321210	-0.921546	-0.269508
Zn4	Zn	-0.455977	-0.921507	-0.382637
O5	O	-0.388610	-0.978107	-0.326078
O6	O	-0.438187	-1.129439	-0.284512
O7	O	-0.208373	-1.019614	-0.367695
O8	O	-0.339128	-0.936616	-0.174788
O9	O	-0.339119	-1.129369	-0.367674
O10	O	-0.438193	-1.019776	-0.174773
O11	O	-0.208377	-0.936524	-0.284547
O12	O	-0.339060	-0.826824	-0.284505
O13	O	-0.568819	-0.936551	-0.367600
O14	O	-0.438073	-0.826796	-0.367620
O15	O	-0.568871	-1.019739	-0.284469
O16	O	-0.339052	-1.019577	-0.477391
O17	O	-0.438068	-0.936459	-0.477359
C18	C	-0.388560	-0.802251	-0.326061
C19	C	-0.388558	-0.727019	-0.326070
C20	C	-0.440109	-0.265231	-0.369430
C21	C	-0.440095	-0.335919	-0.369429
C22	C	-0.388618	-0.371257	-0.326088
C23	C	-0.337146	-0.335903	-0.282748
C24	C	-0.337157	-0.265216	-0.282753
C25	C	-0.337101	-0.620976	-0.282731
C26	C	-0.337096	-0.691668	-0.282728
C27	C	-0.440038	-0.691680	-0.369407
C28	C	-0.440049	-0.620993	-0.369412
C29	C	-0.388575	-0.585645	-0.326075
C30	C	-0.388590	-0.508996	-0.326077
C31	C	-0.388606	-0.447904	-0.326082
C32	C	-0.598919	-0.978151	-0.326027
C33	C	-0.688540	-0.978170	-0.326006
C34	C	-1.016716	-0.978201	-0.325930
C35	C	-0.925408	-0.978190	-0.325953
C36	C	-0.852631	-0.978186	-0.325969
C37	C	-0.761317	-0.978175	-0.325991
C38	C	-0.179119	-0.978102	-0.326079
C39	C	-0.089499	-0.978215	-0.325910
C40	C	-0.388569	-0.978022	-0.501934
C41	C	-0.388579	-0.978047	-0.577166
C42	C	-0.388651	-0.154650	-0.326093
C43	C	-0.388643	-0.229882	-0.326092
C44	C	-0.440306	-1.021500	-1.038890
C45	C	-0.440288	-1.021473	-0.968202
C46	C	-0.388660	-0.978198	-0.932928
C47	C	-0.337042	-0.934951	-0.968346
C48	C	-0.337057	-0.934982	-1.039033
C49	C	-0.336979	-0.934827	-0.683273
C50	C	-0.336970	-0.934799	-0.612580
C51	C	-0.440210	-1.021319	-0.612441
C52	C	-0.440225	-1.021350	-0.683128
C53	C	-0.388604	-0.978106	-0.718540
C54	C	-0.388624	-0.978136	-0.795189
C55	C	-0.388644	-0.978164	-0.856280
C56	C	-0.388669	-0.978211	-0.149535
C57	C	-0.388694	-0.978255	-0.074303
H58	H	-0.295184	-0.592204	-0.247446
O59	O	-0.281390	-0.888342	-1.077238
H60	H	-0.295149	-0.835206	-1.063720
O61	O	-0.495877	-1.067975	-0.574249
H62	H	-0.536852	-1.037654	-0.542038
H63	H	-0.295251	-0.236435	-0.247461
H64	H	-0.294925	-0.899557	-0.583862
H65	H	-0.294947	-0.899615	-0.712096
O66	O	-0.281355	-0.888273	-0.930305
H67	H	-0.290020	-0.895511	-0.875202
H68	H	-0.482032	-0.236464	-0.404720
O69	O	-0.495564	-0.729810	-0.416143
H70	H	-0.459409	-0.761982	-0.450549
H71	H	-0.482001	-0.364698	-0.404720
O72	O	-0.281624	-0.374012	-0.235998
H73	H	-0.290268	-0.429105	-0.243269
O74	O	-0.495914	-1.068024	-0.721170
H75	H	-0.487259	-1.060775	-0.776273
H76	H	-0.482314	-1.056687	-0.939368
H77	H	-0.295176	-0.720439	-0.247432
O78	O	-0.495990	-1.068177	-1.076935
H79	H	-0.531870	-1.098248	-1.040431
H80	H	-0.481970	-0.592224	-0.404702
