data_functionalizedCrystal
_audit_creation_method	'MofGen! by Chris Wilmer'
_symmetry_space_group_name_H-M	'P1'
_symmetry_Int_Tables_number	1
_symmetry_cell_setting	triclinic
loop_
_symmetry_equiv_pos_as_xyz
  x,y,z
_cell_length_a	19.077236
_cell_length_b	29.839132
_cell_length_c	19.077258
_cell_angle_alpha	87.684023
_cell_angle_beta	89.918181
_cell_angle_gamma	87.662196
loop_
_atom_site_label
_atom_site_type_symbol
_atom_site_fract_x
_atom_site_fract_y
_atom_site_fract_z
Zn1	Zn	1.058141	0.140570	0.440521
Zn2	Zn	1.558141	0.640570	0.940521
Zn3	Zn	1.062756	0.218572	0.322999
Zn4	Zn	1.562756	0.718572	0.822999
Zn5	Zn	0.945373	0.146580	0.318299
Zn6	Zn	1.445373	0.646580	0.818299
Zn7	Zn	0.940557	0.218805	0.435738
Zn8	Zn	1.440557	0.718805	0.935738
O9	O	1.001706	0.181132	0.379389
O10	O	1.501706	0.681132	0.879389
O11	O	1.157087	0.148305	0.428900
O12	O	1.657087	0.648305	0.928900
O13	O	1.051132	0.211440	0.224044
O14	O	1.551132	0.711440	0.724044
O15	O	0.960416	0.082913	0.334546
O16	O	1.460416	0.582913	0.834546
O17	O	1.160478	0.205613	0.342557
O18	O	1.660478	0.705613	0.842557
O19	O	1.043266	0.078498	0.424342
O20	O	1.543266	0.578498	0.924342
O21	O	0.964891	0.158548	0.220590
O22	O	1.464891	0.658548	0.720590
O23	O	0.846399	0.158774	0.329909
O24	O	1.346399	0.658774	0.829909
O25	O	0.952207	0.206009	0.534705
O26	O	1.452207	0.706009	1.034705
O27	O	0.842861	0.211837	0.416191
O28	O	1.342861	0.711837	0.916191
O29	O	1.038596	0.148531	0.538218
O30	O	1.538596	0.648531	1.038218
O31	O	1.046462	0.281473	0.337920
O32	O	1.546462	0.781473	0.837920
O33	O	0.956683	0.281644	0.420749
O34	O	1.456683	0.781644	0.920749
C35	C	0.819133	0.185983	0.372021
C36	C	1.319133	0.685983	0.872021
C37	C	0.741027	0.188069	0.368886
C38	C	1.241027	0.688069	0.868886
C39	C	0.702565	0.159255	0.412435
C40	C	1.202565	0.659255	0.912435
C41	C	0.629176	0.161213	0.409483
C42	C	1.129176	0.661213	0.909483
C43	C	0.594250	0.191986	0.362985
C44	C	1.094250	0.691986	0.862985
C45	C	0.632717	0.220801	0.319430
C46	C	1.132717	0.720801	0.819430
C47	C	0.706105	0.218841	0.322379
C48	C	1.206105	0.718841	0.822379
C49	C	0.374954	0.201042	0.349333
C50	C	0.874954	0.701042	0.849333
C51	C	0.301561	0.203001	0.346389
C52	C	0.801561	0.703001	0.846389
C53	C	0.298024	0.143412	0.436441
C54	C	0.798024	0.643412	0.936441
C55	C	0.371413	0.141456	0.439389
C56	C	0.871413	0.641456	0.939389
C57	C	0.409874	0.170269	0.395832
C58	C	0.909874	0.670269	0.895832
N59	N	0.519235	0.193989	0.359967
N60	N	1.019235	0.693989	0.859967
N61	N	0.484888	0.168264	0.398847
N62	N	0.984888	0.668264	0.898847
C63	C	1.001569	0.297859	0.379342
C64	C	1.501569	0.797859	0.879342
C65	C	1.001574	0.347793	0.379347
C66	C	1.501574	0.847793	0.879347
C67	C	1.048485	0.657329	0.336298
C68	C	1.548485	1.157329	0.836298
C69	C	1.048551	0.845000	0.336317
C70	C	1.548551	1.345000	0.836317
O71	O	1.088362	0.869175	0.299700
O72	O	1.588362	1.369175	0.799700
N73	N	1.001780	0.868572	0.379404
N74	N	1.501780	1.368572	0.879404
C75	C	0.954991	0.845223	0.422492
C76	C	1.454991	1.345223	0.922492
O77	O	0.915216	0.869578	0.459146
O78	O	1.415216	1.369578	0.959146
C79	C	0.954929	0.657553	0.422477
C80	C	1.454929	1.157553	0.922477
C81	C	1.001699	0.633984	0.379382
C82	C	1.501699	1.133984	0.879382
C83	C	1.095251	0.633760	0.293208
C84	C	1.595251	1.133760	0.793208
C85	C	1.095232	0.586845	0.293201
C86	C	1.595232	1.086845	0.793201
C87	C	1.048445	0.563499	0.336284
C88	C	1.548445	1.063499	0.836284
C89	C	1.001679	0.587069	0.379375
C90	C	1.501679	1.087069	0.879375
C91	C	0.908144	0.634205	0.465568
C92	C	1.408144	1.134205	0.965568
C93	C	0.908134	0.587284	0.465562
C94	C	1.408134	1.087284	0.965562
C95	C	0.954904	0.563715	0.422467
C96	C	1.454904	1.063715	0.922467
C97	C	0.954873	0.516809	0.422451
C98	C	1.454873	1.016809	0.922451
N99	N	1.001645	0.493237	0.379365
N100	N	1.501645	0.993237	0.879365
C101	C	1.048431	0.516582	0.336281
C102	C	1.548431	1.016582	0.836281
C103	C	0.955026	0.943753	0.422496
C104	C	1.455026	1.443753	0.922496
C105	C	0.955041	0.990670	0.422499
C106	C	1.455041	1.490670	0.922499
C107	C	1.048602	0.990444	0.336325
C108	C	1.548602	1.490444	0.836325
C109	C	1.048583	0.943526	0.336319
C110	C	1.548583	1.443526	0.836319
C111	C	1.001798	0.920181	0.379409
C112	C	1.501798	1.420181	0.879409
C113	C	1.048386	0.418058	0.336269
C114	C	1.548386	0.918058	0.836269
C115	C	1.048360	0.371139	0.336264
C116	C	1.548360	0.871139	0.836264
C117	C	0.954802	0.371369	0.422441
C118	C	1.454802	0.871369	0.922441
C119	C	0.954825	0.418284	0.422443
C120	C	1.454825	0.918284	0.922443
C121	C	1.001622	0.441627	0.379356
C122	C	1.501622	0.941627	0.879356
O123	O	0.915089	0.492604	0.459055
O124	O	1.415089	0.992604	0.959055
O125	O	1.088211	0.492218	0.299644
O126	O	1.588211	0.992218	0.799644
C127	C	1.048504	0.704244	0.336305
C128	C	1.548504	1.204244	0.836305
C129	C	1.001738	0.727813	0.379396
C130	C	1.501738	1.227813	0.879396
C131	C	0.954952	0.704468	0.422479
C132	C	1.454952	1.204468	0.922479
C133	C	1.001753	0.774730	0.379399
C134	C	1.501753	1.274730	0.879399
C135	C	1.048539	0.798076	0.336315
C136	C	1.548539	1.298076	0.836315
C137	C	1.095310	0.774504	0.293229
C138	C	1.595310	1.274504	0.793229
C139	C	1.095291	0.727589	0.293222
C140	C	1.595291	1.227589	0.793222
C141	C	0.908180	0.728040	0.465566
C142	C	1.408180	1.228040	0.965566
C143	C	0.908203	0.774954	0.465569
C144	C	1.408203	1.274954	0.965569
C145	C	0.954989	0.798300	0.422485
C146	C	1.454989	1.298300	0.922485
C147	C	1.184993	0.176262	0.386786
C148	C	1.684993	0.676262	0.886786
C149	C	1.263098	0.174187	0.389939
C150	C	1.763098	0.674187	0.889939
C151	C	0.994350	0.176625	0.562671
C152	C	1.494350	0.676625	1.062671
C153	C	0.991214	0.174705	0.640775
C154	C	1.491214	0.674705	1.140775
C155	C	1.001837	1.063949	0.379437
C156	C	1.501837	1.563949	0.879437
C157	C	1.001827	1.014015	0.379415
C158	C	1.501827	1.514015	0.879415
C159	C	1.034639	0.201339	0.679269
C160	C	1.534639	0.701339	1.179269
C161	C	1.031693	0.199529	0.752655
C162	C	1.531693	0.699529	1.252655
C163	C	0.985319	0.171087	0.787547
C164	C	1.485319	0.671087	1.287547
C165	C	0.941892	0.144450	0.749047
C166	C	1.441892	0.644450	1.249047
C167	C	0.944842	0.146258	0.675662
C168	C	1.444842	0.646258	1.175662
C169	C	0.971685	0.162725	1.006832
C170	C	1.471685	0.662725	1.506832
C171	C	0.968737	0.160920	1.080222
C172	C	1.468737	0.660920	1.580222
C173	C	1.058540	0.215999	1.083825
C174	C	1.558540	0.715999	1.583825
C175	C	1.061482	0.217807	1.010438
C176	C	1.561482	0.717807	1.510438
C177	C	1.018059	0.191168	0.971946
C178	C	1.518059	0.691168	1.471946
N179	N	0.982305	0.169237	0.862559
N180	N	1.482305	0.669237	1.362559
N181	N	1.021076	0.193015	0.896934
N182	N	1.521076	0.693015	1.396934
C183	C	1.009029	0.185632	1.196820
C184	C	1.509029	0.685632	1.696820
C185	C	1.012162	0.187554	1.118716
C186	C	1.512162	0.687554	1.618716
H187	H	0.730996	0.134197	0.450301
H188	H	1.230996	0.634197	0.950301
H189	H	0.597863	0.137751	0.444947
H190	H	1.097863	0.637751	0.944947
H191	H	0.406260	0.224503	0.313867
H192	H	0.906260	0.724503	0.813867
H193	H	1.133354	0.652762	0.258124
H194	H	1.633354	1.152762	0.758124
H195	H	0.399844	0.116399	0.477256
H196	H	0.899844	0.616399	0.977256
H197	H	1.133403	0.793520	0.258146
H198	H	1.633403	1.293520	0.758146
H199	H	0.930975	0.137755	1.108629
H200	H	1.430975	0.637755	1.608629
H201	H	0.870111	0.794141	0.500661
H202	H	1.370111	1.294141	1.000661
H203	H	0.909483	0.124568	0.644321
H204	H	1.409483	0.624568	1.144321
H205	H	0.916707	0.352354	0.457517
H206	H	1.416707	0.852354	0.957517
H207	H	1.086668	0.924338	0.301228
H208	H	1.586668	1.424338	0.801228
H209	H	0.266701	0.119954	0.471902
H210	H	0.766701	0.619954	0.971902
H211	H	0.936324	0.141035	0.975500
H212	H	1.436324	0.641035	1.475500
H213	H	0.870082	0.709035	0.500651
H214	H	1.370082	1.209035	1.000651
H215	H	1.072405	0.224499	0.650866
H216	H	1.572405	0.724499	1.150866
H217	H	1.086697	1.009459	0.301245
H218	H	1.586697	1.509459	0.801245
H219	H	0.916950	1.009856	0.457584
H220	H	1.416950	1.509856	0.957584
H221	H	1.093894	0.237686	1.115174
H222	H	1.593894	0.737686	1.615174
H223	H	0.904136	0.121289	0.777462
H224	H	1.404136	0.621289	1.277462
H225	H	0.273126	0.228062	0.308524
H226	H	0.773126	0.728062	0.808524
H227	H	0.737420	0.242303	0.286916
H228	H	1.237420	0.742303	0.786916
H229	H	0.604275	0.245855	0.281567
H230	H	1.104275	0.745855	0.781567
H231	H	1.133318	0.567657	0.258111
H232	H	1.633318	1.067657	0.758111
H233	H	0.916926	0.924748	0.457587
H234	H	1.416926	1.424748	0.957587
H235	H	1.099234	0.240975	0.982035
H236	H	1.599234	0.740975	1.482035
H237	H	1.086494	0.437058	0.301185
H238	H	1.586494	0.937058	0.801185
H239	H	1.086445	0.351950	0.301168
H240	H	1.586445	0.851950	0.801168
H241	H	1.067055	0.221218	0.783994
H242	H	1.567055	0.721218	1.283994
H243	H	0.870056	0.653387	0.500657
H244	H	1.370056	1.153387	1.000657
H245	H	0.870036	0.568279	0.500654
H246	H	1.370036	1.068279	1.000654
H247	H	1.133375	0.708402	0.258130
H248	H	1.633375	1.208402	0.758130
H249	H	0.916743	0.437475	0.457537
H250	H	1.416743	0.937475	0.957537
