data_functionalizedCrystal
_audit_creation_method	'MofGen! by Chris Wilmer'
_symmetry_space_group_name_H-M	'P1'
_symmetry_Int_Tables_number	1
_symmetry_cell_setting	triclinic
loop_
_symmetry_equiv_pos_as_xyz
  x,y,z
_cell_length_a	12.827892
_cell_length_b	11.169417
_cell_length_c	11.169409
_cell_angle_alpha	90.021683
_cell_angle_beta	89.966914
_cell_angle_gamma	89.985670
loop_
_atom_site_label
_atom_site_type_symbol
_atom_site_fract_x
_atom_site_fract_y
_atom_site_fract_z
Zn1	Zn	-0.415978	-1.834920	-0.678596
Zn2	Zn	-0.590765	-1.834792	-0.477910
Zn3	Zn	-0.416036	-1.634206	-0.477924
Zn4	Zn	-0.590674	-1.634196	-0.678549
O5	O	-0.503363	-1.734529	-0.578245
O6	O	-0.439178	-2.002853	-0.651989
O7	O	-0.567649	-1.808134	-0.309962
O8	O	-0.269792	-1.660889	-0.504569
O9	O	-0.567593	-2.002759	-0.504546
O10	O	-0.269750	-1.808353	-0.652002
O11	O	-0.439276	-1.660765	-0.309972
O12	O	-0.439188	-1.466255	-0.504523
O13	O	-0.567438	-1.660872	-0.846505
O14	O	-0.567494	-1.466248	-0.651921
O15	O	-0.439090	-1.808343	-0.846540
O16	O	-0.736989	-1.808124	-0.504500
O17	O	-0.736923	-1.660747	-0.651908
C18	C	-0.503338	-1.422704	-0.578219
C19	C	-0.503353	-1.289304	-0.578237
C20	C	-0.774873	-1.734453	-0.578224
C21	C	-0.891026	-1.734531	-0.578255
C22	C	-0.942810	-1.807545	-0.505393
C23	C	-1.062860	-1.807626	-0.505424
C24	C	-0.230793	-1.734637	-0.578292
C25	C	-0.114640	-1.734683	-0.578312
C26	C	-0.503247	-1.734621	-0.891287
C27	C	-0.503198	-1.734660	-1.024687
C28	C	-0.503380	-1.047571	-0.578262
C29	C	-0.503365	-1.180971	-0.578244
C30	C	-0.503404	-1.734506	-0.266420
C31	C	-0.503159	-1.734699	-0.133021
H32	H	-1.107392	-1.870133	-0.443041
O33	O	-0.944270	-1.660194	-0.652764
C34	C	-1.007280	-1.728595	-0.730314
H35	H	-1.023486	-1.819599	-0.688054
H36	H	-1.084102	-1.679835	-0.746296
H37	H	-0.965206	-1.741662	-0.819299
H38	H	-0.898269	-1.869999	-0.442995
H39	H	-1.070116	-1.672165	-0.640691
