data_functionalizedCrystal
_audit_creation_method	'MofGen! by Chris Wilmer'
_symmetry_space_group_name_H-M	'P1'
_symmetry_Int_Tables_number	1
_symmetry_cell_setting	triclinic
loop_
_symmetry_equiv_pos_as_xyz
  x,y,z
_cell_length_a	11.792241
_cell_length_b	10.723024
_cell_length_c	9.798715
_cell_angle_alpha	90.001978
_cell_angle_beta	90.000512
_cell_angle_gamma	95.669357
loop_
_atom_site_label
_atom_site_type_symbol
_atom_site_fract_x
_atom_site_fract_y
_atom_site_fract_z
O1	O	1.507282	-0.171036	-0.113355
O2	O	1.840615	0.162297	0.219979
O3	O	2.173949	0.495631	0.553312
O4	O	1.176980	-0.188663	-0.113386
O5	O	1.510313	0.144670	0.219947
O6	O	1.843646	0.478003	0.553281
O7	O	1.349750	0.001747	-0.113365
O8	O	1.683083	0.335080	0.219969
O9	O	2.016416	0.668413	0.553302
O10	O	1.334512	-0.361446	-0.113376
O11	O	1.667845	-0.028113	0.219957
O12	O	2.001179	0.305221	0.553290
O13	O	1.349737	0.001747	0.113618
O14	O	1.683070	0.335081	0.446951
O15	O	2.016403	0.668414	0.780284
O16	O	1.176967	-0.188663	0.113596
O17	O	1.510300	0.144671	0.446929
O18	O	1.843633	0.478004	0.780263
O19	O	1.507269	-0.171035	0.113627
O20	O	1.840602	0.162298	0.446961
O21	O	2.173936	0.495631	0.780294
Zn22	Zn	1.342116	-0.179849	0.149650
Zn23	Zn	1.675449	0.153484	0.482983
Zn24	Zn	2.008783	0.486818	0.816317
Zn25	Zn	1.342133	-0.179850	-0.149409
Zn26	Zn	1.675466	0.153484	0.183925
Zn27	Zn	2.008800	0.486817	0.517258
O28	O	1.334499	-0.361445	0.113606
O29	O	1.667832	-0.028112	0.446939
O30	O	2.001166	0.305221	0.780273
C31	C	1.348634	0.048244	0.000125
C32	C	1.681968	0.381577	0.333458
C33	C	2.015301	0.714910	0.666791
C34	C	1.345317	0.186789	0.000120
C35	C	1.678650	0.520122	0.333453
C36	C	2.011983	0.853456	0.666786
C37	C	1.134680	-0.187556	0.000101
C38	C	1.468013	0.145778	0.333434
C39	C	1.801346	0.479111	0.666768
C40	C	1.008659	-0.184242	0.000089
C41	C	1.341992	0.149092	0.333422
C42	C	1.675325	0.482425	0.666756
N43	N	1.342112	-0.179848	0.353750
N44	N	1.675446	0.153485	0.687083
N45	N	2.008779	0.486819	1.020416
C46	C	0.777933	-0.178147	0.000128
C47	C	1.111267	0.155186	0.333462
C48	C	1.444600	0.488519	0.666795
C49	C	0.906326	-0.181533	0.000107
C50	C	1.239659	0.151800	0.333440
C51	C	1.572993	0.485133	0.666773
C52	C	1.549569	-0.172143	0.000137
C53	C	1.882902	0.161190	0.333471
C54	C	2.216236	0.494524	0.666804
C55	C	1.675590	-0.175457	0.000140
C56	C	2.008923	0.157876	0.333474
C57	C	2.342257	0.491210	0.666807
C58	C	1.335614	-0.407942	0.000114
C59	C	1.668948	-0.074609	0.333447
C60	C	2.002281	0.258724	0.666780
C61	C	1.338932	-0.546488	0.000110
C62	C	1.672265	-0.213154	0.333443
C63	C	2.005599	0.120179	0.666776
C64	C	1.441990	0.262028	0.000127
C65	C	1.775323	0.595361	0.333460
C66	C	2.108656	0.928694	0.666794
C67	C	1.438563	0.405222	0.000122
C68	C	1.771896	0.738555	0.333455
C69	C	2.105230	1.071889	0.666788
N70	N	1.342145	-0.179841	-0.353508
N71	N	1.675479	0.153492	-0.020175
N72	N	2.008812	0.486826	0.313158
C73	C	1.414654	-0.099549	0.421536
C74	C	1.747987	0.233785	0.754869
C75	C	2.081321	0.567118	1.088202
C76	C	1.414672	-0.099544	0.578698
C77	C	1.748005	0.233789	0.912032
C78	C	2.081339	0.567123	1.245365
H79	H	1.527292	0.220431	0.000143
H80	H	1.860625	0.553764	0.333477
H81	H	2.193959	0.887098	0.666810
H82	H	1.280040	-0.248597	0.588207
H83	H	1.613374	0.084737	0.921541
H84	H	1.946707	0.418070	1.254874
H85	H	1.521323	0.469873	0.000134
H86	H	1.854656	0.803207	0.333467
H87	H	2.187989	1.136540	0.666801
H88	H	1.256168	0.388868	0.000113
H89	H	1.589501	0.722201	0.333446
H90	H	1.922835	1.055535	0.666779
H91	H	1.476743	-0.030799	0.363221
H92	H	1.810076	0.302534	0.696554
H93	H	2.143409	0.635868	1.029887
F94	F	1.233816	0.241152	0.000097
F95	F	1.567150	0.574485	0.333430
F96	F	1.900483	0.907818	0.666763
F97	F	1.260945	-0.269699	0.429969
F98	F	1.594279	0.063635	0.763302
F99	F	1.927612	0.396968	1.096635
H100	H	1.476782	-0.030801	0.636991
H101	H	1.810115	0.302532	0.970325
H102	H	2.143449	0.635866	1.303658
