data_functionalizedCrystal
_audit_creation_method	'MofGen! by Chris Wilmer'
_symmetry_space_group_name_H-M	'P1'
_symmetry_Int_Tables_number	1
_symmetry_cell_setting	triclinic
loop_
_symmetry_equiv_pos_as_xyz
  x,y,z
_cell_length_a	21.295420
_cell_length_b	21.295417
_cell_length_c	13.032268
_cell_angle_alpha	97.140648
_cell_angle_beta	97.162788
_cell_angle_gamma	90.026289
loop_
_atom_site_label
_atom_site_type_symbol
_atom_site_fract_x
_atom_site_fract_y
_atom_site_fract_z
Zn1	Zn	0.917099	-0.295851	-0.590812
Zn2	Zn	1.417099	0.204149	-0.090812
Zn3	Zn	0.930388	-0.387763	-0.416057
Zn4	Zn	1.430388	0.112237	0.083943
Zn5	Zn	0.825206	-0.282507	-0.416089
Zn6	Zn	1.325206	0.217493	0.083911
Zn7	Zn	0.811797	-0.401073	-0.590741
Zn8	Zn	1.311797	0.098927	-0.090741
O9	O	0.871122	-0.341799	-0.503425
O10	O	1.371122	0.158201	-0.003425
O11	O	1.006950	-0.308058	-0.567647
O12	O	1.506950	0.191942	-0.067647
O13	O	0.927608	-0.362645	-0.269833
O14	O	1.427608	0.137355	0.230167
O15	O	0.837446	-0.196191	-0.439310
O16	O	1.337446	0.303809	0.060690
O17	O	1.016713	-0.375585	-0.439255
O18	O	1.516713	0.124415	0.060745
O19	O	0.904960	-0.205995	-0.567678
O20	O	1.404960	0.294005	-0.067678
O21	O	0.850332	-0.285314	-0.269857
O22	O	1.350332	0.214686	0.230143
O23	O	0.735339	-0.298220	-0.439241
O24	O	1.235339	0.201780	0.060759
O25	O	0.814593	-0.398270	-0.736979
O26	O	1.314593	0.101730	-0.236979
O27	O	0.725488	-0.385331	-0.567557
O28	O	1.225488	0.114669	-0.067557
O29	O	0.891957	-0.320964	-0.737031
O30	O	1.391957	0.179036	-0.237031
O31	O	0.914606	-0.477615	-0.439186
O32	O	1.414606	0.022385	0.060814
O33	O	0.827478	-0.487394	-0.567525
O34	O	1.327478	0.012606	-0.067525
C35	C	0.707573	-0.341772	-0.503395
C36	C	1.207573	0.158228	-0.003395
C37	C	0.637604	-0.341778	-0.503408
C38	C	1.137604	0.158222	-0.003408
C39	C	0.133051	-0.306741	-0.570403
C40	C	0.633051	0.193259	-0.070403
C41	C	0.198793	-0.306737	-0.570403
C42	C	0.698793	0.193263	-0.070403
C43	C	0.236761	-0.341820	-0.503449
C44	C	0.736761	0.158180	-0.003449
C45	C	0.208980	-0.376922	-0.436510
C46	C	0.708980	0.123078	0.063490
C47	C	0.143238	-0.376931	-0.436519
C48	C	0.643238	0.123069	0.063481
N49	N	0.346960	-0.339571	-0.411951
N50	N	0.846960	0.160429	0.088049
N51	N	0.409412	-0.339559	-0.411945
N52	N	0.909412	0.160441	0.088055
C53	C	0.434839	-0.341796	-0.503419
C54	C	0.934839	0.158204	-0.003419
N55	N	0.395454	-0.344034	-0.594900
N56	N	0.895454	0.155966	-0.094900
N57	N	0.332996	-0.344042	-0.594905
N58	N	0.832996	0.155958	-0.094905
C59	C	0.308048	-0.341814	-0.503432
C60	C	0.808048	0.158186	-0.003432
C61	C	0.533897	-0.306694	-0.570359
C62	C	1.033897	0.193306	-0.070359
C63	C	0.599641	-0.306694	-0.570361
C64	C	1.099641	0.193306	-0.070361
C65	C	0.609827	-0.376876	-0.436458
C66	C	1.109827	0.123124	0.063542
C67	C	0.544084	-0.376880	-0.436466
C68	C	1.044084	0.123120	0.063534
C69	C	0.506123	-0.341786	-0.503415
C70	C	1.006123	0.158214	-0.003415
C71	C	0.871044	-0.505346	-0.503367
C72	C	1.371044	-0.005346	-0.003367
C73	C	0.871066	-0.575315	-0.503377
C74	C	1.371066	-0.075315	-0.003377
C75	C	0.916464	-0.603074	-0.436619
C76	C	1.416464	-0.103074	0.063381
C77	C	0.916492	-0.668818	-0.436643
C78	C	1.416492	-0.168818	0.063357
C79	C	0.871111	-0.706800	-0.503413
C80	C	1.371111	-0.206800	-0.003413
C81	C	0.825709	-0.679034	-0.570184
C82	C	1.325709	-0.179034	-0.070184
C83	C	0.825686	-0.613291	-0.570166
C84	C	1.325686	-0.113291	-0.070166
N85	N	0.815434	-0.810670	-0.511370
N86	N	1.315434	-0.310670	-0.011370
N87	N	0.815458	-0.873122	-0.511381
N88	N	1.315458	-0.373122	-0.011381
C89	C	0.871177	-0.904879	-0.503473
C90	C	1.371177	-0.404879	-0.003473
N91	N	0.926874	-0.871823	-0.495534
N92	N	1.426874	-0.371823	0.004466
N93	N	0.926850	-0.809365	-0.495518
N94	N	1.426850	-0.309365	0.004482
C95	C	0.871131	-0.778087	-0.503441
C96	C	1.371131	-0.278087	-0.003441
C97	C	0.916609	-1.003925	-0.436737
C98	C	1.416609	-0.503925	0.063263
C99	C	0.916637	-1.069671	-0.436768
C100	C	1.416637	-0.569671	0.063232
C101	C	0.825849	-1.079886	-0.570304
C102	C	1.325849	-0.579886	-0.070304
C103	C	0.825826	-1.014141	-0.570279
C104	C	1.325826	-0.514141	-0.070279
C105	C	0.871205	-0.976165	-0.503490
C106	C	1.371205	-0.476165	-0.003490
C107	C	1.035310	-0.341825	-0.503455
C108	C	1.535310	0.158175	-0.003455
C109	C	1.105277	-0.341837	-0.503468
C110	C	1.605277	0.158163	-0.003468
C111	C	0.850297	-0.362591	-0.775980
C112	C	1.350297	0.137409	-0.275980
C113	C	0.841422	-0.371451	-0.892127
C114	C	1.341422	0.128549	-0.392127
C115	C	0.871216	-0.177614	-0.503506
C116	C	1.371216	0.322386	-0.003506
C117	C	0.871256	-0.107649	-0.503540
C118	C	1.371256	0.392351	-0.003540
C119	C	0.875744	-0.337152	-0.943935
C120	C	1.375744	0.162848	-0.443935
C121	C	0.866573	-0.346308	-1.063979
C122	C	1.366573	0.153692	-0.563979
C123	C	0.891903	-0.321042	-0.231930
C124	C	1.391903	0.178958	0.268070
C125	C	0.900900	-0.312004	-0.115784
C126	C	1.400900	0.187996	0.384216
H127	H	0.502988	-0.278118	-0.624873
H128	H	1.002988	0.221882	-0.124873
O129	O	0.918981	-0.294070	-0.890953
O130	O	1.418981	0.205930	-0.390953
C131	C	0.979696	-0.309862	-0.917531
C132	C	1.479696	0.190138	-0.417531
H133	H	0.974973	-0.340065	-0.996789
H134	H	1.474973	0.159935	-0.496789
H135	H	1.005537	-0.337577	-0.856115
H136	H	1.505537	0.162423	-0.356115
C137	C	1.023292	-0.211778	-0.825118
C138	C	1.523292	0.288222	-0.325118
C139	C	1.017491	-0.248870	-0.922468
C140	C	1.517491	0.251130	-0.422468
H141	H	1.046608	-0.174156	-0.828159
H142	H	1.546608	0.325844	-0.328159
H143	H	0.982388	-0.201140	-0.807208
H144	H	1.482388	0.298860	-0.307208
H145	H	1.044825	-0.234881	-0.773948
H146	H	1.544825	0.265119	-0.273948
H147	H	0.995953	-0.225770	-0.973633
H148	H	1.495953	0.274230	-0.473633
H149	H	1.058393	-0.259503	-0.940386
H150	H	1.558393	0.240497	-0.440386
H151	H	0.805244	-0.407591	-0.936644
H152	H	1.305244	0.092409	-0.436644
O153	O	0.781598	-0.715836	-0.635143
O154	O	1.281598	-0.215836	-0.135143
C155	C	0.741512	-0.677233	-0.694045
C156	C	1.241512	-0.177233	-0.194045
H157	H	0.766999	-0.630626	-0.697690
H158	H	1.266999	-0.130626	-0.197690
H159	H	0.696648	-0.667365	-0.655707
H160	H	1.196648	-0.167365	-0.155707
C161	C	0.692594	-0.768594	-0.800775
C162	C	1.192594	-0.268594	-0.300775
C163	C	0.723900	-0.711353	-0.805260
C164	C	1.223900	-0.211353	-0.305260
H165	H	0.681728	-0.789642	-0.869377
H166	H	1.181728	-0.289642	-0.369377
H167	H	0.719599	-0.794603	-0.761090
H168	H	1.219599	-0.294603	-0.261090
H169	H	0.655212	-0.760363	-0.768822
H170	H	1.155212	-0.260363	-0.268822
H171	H	0.761286	-0.719586	-0.837200
H172	H	1.261286	-0.219586	-0.337200
H173	H	0.696901	-0.685347	-0.844954
H174	H	1.196901	-0.185347	-0.344954
O175	O	0.225682	-0.272587	-0.635460
O176	O	0.725682	0.227413	-0.135460
C177	C	0.178077	-0.241630	-0.694575
C178	C	0.678077	0.258370	-0.194575
H179	H	0.134478	-0.236153	-0.651791
H180	H	0.634478	0.263847	-0.151791
H181	H	0.165029	-0.270801	-0.773871
H182	H	0.665029	0.229199	-0.273871
C183	C	0.256147	-0.182536	-0.762373
C184	C	0.756147	0.317464	-0.262373
C185	C	0.202599	-0.175803	-0.709820
C186	C	0.702599	0.324197	-0.209820
H187	H	0.271273	-0.141932	-0.771782
H188	H	0.771273	0.358068	-0.271782
H189	H	0.288219	-0.203393	-0.722550
H190	H	0.788219	0.296607	-0.222550
H191	H	0.245266	-0.206847	-0.828448
H192	H	0.745266	0.293153	-0.328448
H193	H	0.213482	-0.151499	-0.643742
H194	H	0.713482	0.348501	-0.143742
H195	H	0.170529	-0.154940	-0.749633
H196	H	0.670529	0.345060	-0.249633
H197	H	0.788856	-0.991538	-0.624635
H198	H	1.288856	-0.491538	-0.124635
H199	H	0.622252	-0.278117	-0.624875
H200	H	1.122252	0.221883	-0.124875
O201	O	0.646796	-0.410901	-0.371455
O202	O	1.146796	0.089099	0.128545
C203	C	0.710776	-0.403384	-0.385821
C204	C	1.210776	0.096616	0.114179
H205	H	0.717152	-0.357455	-0.420185
H206	H	1.217152	0.142545	0.079815
H207	H	0.725180	-0.445007	-0.441357
H208	H	1.225180	0.054993	0.058643
C209	C	0.744766	-0.457401	-0.237866
C210	C	1.244766	0.042599	0.262134
C211	C	0.752597	-0.400988	-0.280065
C212	C	1.252597	0.099012	0.219935
H213	H	0.770564	-0.455925	-0.172633
H214	H	1.270564	0.044075	0.327367
H215	H	0.701661	-0.462468	-0.228189
H216	H	1.201661	0.037532	0.271811
H217	H	0.756768	-0.492081	-0.284157
H218	H	1.256768	0.007919	0.215843
H219	H	0.740587	-0.366310	-0.233781
H220	H	1.240587	0.133690	0.266219
H221	H	0.795701	-0.395915	-0.289732
H222	H	1.295701	0.104085	0.210268
H223	H	0.239898	-0.405489	-0.381998
H224	H	0.739898	0.094511	0.118002
H225	H	0.788717	-0.590690	-0.624530
H226	H	1.288717	-0.090690	-0.124530
H227	H	0.120626	-0.405511	-0.382011
H228	H	0.620626	0.094489	0.117989
H229	H	0.953416	-0.572155	-0.382238
H230	H	1.453416	-0.072155	0.117762
O231	O	0.944134	-0.268919	-1.062796
O232	O	1.444134	0.231081	-0.562796
C233	C	1.004854	-0.284702	-1.089359
C234	C	1.504854	0.215298	-0.589359
H235	H	1.000141	-0.314901	-1.168620
H236	H	1.500141	0.185099	-0.668620
H237	H	1.030693	-0.312418	-1.027942
H238	H	1.530693	0.187582	-0.527942
C239	C	1.048435	-0.186618	-0.996924
C240	C	1.548435	0.313382	-0.496924
C241	C	1.042646	-0.223705	-1.094278
C242	C	1.542646	0.276295	-0.594278
H243	H	1.071748	-0.148993	-0.999954
H244	H	1.571748	0.351007	-0.499954
H245	H	1.007527	-0.175985	-0.979024
H246	H	1.507527	0.324015	-0.479024
H247	H	1.069965	-0.209722	-0.945753
H248	H	1.569965	0.290278	-0.445753
H249	H	1.021109	-0.200604	-1.145444
H250	H	1.521109	0.299396	-0.645444
H251	H	1.083551	-0.234333	-1.112186
H252	H	1.583551	0.265667	-0.612186
H253	H	0.953462	-0.691424	-0.382281
H254	H	1.453462	-0.191424	0.117719
O255	O	0.517207	-0.410978	-0.371336
O256	O	1.017207	0.089022	0.128664
C257	C	0.564812	-0.441956	-0.312258
C258	C	1.064812	0.058044	0.187742
H259	H	0.611954	-0.415893	-0.308712
H260	H	1.111954	0.084107	0.191288
H261	H	0.568878	-0.492707	-0.350378
H262	H	1.068878	0.007293	0.149622
C263	C	0.489737	-0.474453	-0.205375
C264	C	0.989737	0.025547	0.294625
C265	C	0.547637	-0.442439	-0.201012
C266	C	1.047637	0.057561	0.298988
H267	H	0.479142	-0.474754	-0.136754
H268	H	0.979142	0.025246	0.363246
H269	H	0.457664	-0.453585	-0.245179
H270	H	0.957664	0.046415	0.254821
H271	H	0.493133	-0.516742	-0.237146
H272	H	0.993133	-0.016742	0.262854
H273	H	0.544238	-0.400149	-0.169253
H274	H	1.044238	0.099851	0.330747
H275	H	0.579709	-0.463300	-0.161199
H276	H	1.079709	0.036700	0.338801
H277	H	0.830392	-0.382451	-1.108492
H278	H	1.330392	0.117549	-0.608492
O279	O	0.960631	-0.966937	-0.371905
O280	O	1.460631	-0.466937	0.128095
C281	C	0.950883	-0.902958	-0.386216
C282	C	1.450883	-0.402958	0.113784
H283	H	0.899673	-0.896615	-0.420358
H284	H	1.399673	-0.396615	0.079642
H285	H	0.983929	-0.888503	-0.441918
H286	H	1.483929	-0.388503	0.058082
C287	C	1.027670	-0.868957	-0.238553
C288	C	1.527670	-0.368957	0.261447
C289	C	0.964771	-0.861166	-0.280478
C290	C	1.464771	-0.361166	0.219522
H291	H	1.036239	-0.843176	-0.173331
H292	H	1.536239	-0.343176	0.326669
H293	H	1.034239	-0.912061	-0.228913
H294	H	1.534239	-0.412061	0.271087
H295	H	1.055201	-0.856912	-0.284981
H296	H	1.555201	-0.356912	0.215019
H297	H	0.937242	-0.873218	-0.234057
H298	H	1.437242	-0.373218	0.265943
H299	H	0.958198	-0.818063	-0.290108
H300	H	1.458198	-0.318063	0.209892
O301	O	0.960767	-1.096534	-0.371818
O302	O	1.460767	-0.596534	0.128182
C303	C	1.000821	-1.048915	-0.312887
C304	C	1.500821	-0.548915	0.187113
H305	H	0.975301	-1.001796	-0.309217
H306	H	1.475301	-0.501796	0.190783
H307	H	1.045682	-1.044795	-0.351217
H308	H	1.545682	-0.544795	0.148783
C309	C	1.049794	-1.123989	-0.206201
C310	C	1.549794	-0.623989	0.293799
C311	C	1.018447	-1.066117	-0.201687
C312	C	1.518447	-0.566117	0.298313
H313	H	1.060669	-1.134600	-0.137609
H314	H	1.560669	-0.634600	0.362391
H315	H	1.022811	-1.156071	-0.245907
H316	H	1.522811	-0.656071	0.254093
H317	H	1.087174	-1.120548	-0.238147
H318	H	1.587174	-0.620548	0.261853
H319	H	0.981064	-1.069561	-0.169753
H320	H	1.481064	-0.569561	0.330247
H321	H	1.045425	-1.034036	-0.161973
H322	H	1.545425	-0.534036	0.338027
H323	H	0.102146	-0.278168	-0.624923
H324	H	0.602146	0.221832	-0.124923
O325	O	0.781795	-1.116863	-0.635072
O326	O	1.281795	-0.616863	-0.135072
C327	C	0.791561	-1.180845	-0.620798
C328	C	1.291561	-0.680845	-0.120798
H329	H	0.818377	-1.183682	-0.540188
H330	H	1.318377	-0.683682	-0.040188
H331	H	0.820323	-1.204185	-0.682834
H332	H	1.320323	-0.704185	-0.182834
C333	C	0.694217	-1.211890	-0.729301
C334	C	1.194217	-0.711890	-0.229301
C335	C	0.727148	-1.215374	-0.630292
C336	C	1.227148	-0.715374	-0.130292
H337	H	0.654485	-1.233190	-0.735162
H338	H	1.154485	-0.733190	-0.235162
H339	H	0.687638	-1.168784	-0.738922
H340	H	1.187638	-0.668784	-0.238922
H341	H	0.718192	-1.231339	-0.780988
H342	H	1.218192	-0.731339	-0.280988
H343	H	0.703177	-1.195918	-0.578608
H344	H	1.203177	-0.695918	-0.078608
H345	H	0.733722	-1.258477	-0.620663
H346	H	1.233722	-0.758477	-0.120663
