data_functionalizedCrystal
_audit_creation_method	'MofGen! by Chris Wilmer'
_symmetry_space_group_name_H-M	'P1'
_symmetry_Int_Tables_number	1
_symmetry_cell_setting	triclinic
loop_
_symmetry_equiv_pos_as_xyz
  x,y,z
_cell_length_a	17.699083
_cell_length_b	14.750779
_cell_length_c	17.699083
_cell_angle_alpha	102.617135
_cell_angle_beta	83.283015
_cell_angle_gamma	77.378405
loop_
_atom_site_label
_atom_site_type_symbol
_atom_site_fract_x
_atom_site_fract_y
_atom_site_fract_z
O1	O	0.987643	0.079696	0.112136
O2	O	1.320976	0.413029	0.445469
O3	O	1.654310	0.746363	0.778802
O4	O	0.767258	0.079728	0.124595
O5	O	1.100591	0.413061	0.457928
O6	O	1.433925	0.746394	0.791261
O7	O	0.883679	0.079702	0.008174
O8	O	1.217012	0.413036	0.341507
O9	O	1.550345	0.746369	0.674841
O10	O	0.871222	0.079721	0.228556
O11	O	1.204556	0.413055	0.561890
O12	O	1.537889	0.746388	0.895223
O13	O	0.916589	-0.079955	-0.024733
O14	O	1.249923	0.253378	0.308600
O15	O	1.583256	0.586712	0.641934
O16	O	0.800169	-0.079930	0.091687
O17	O	1.133502	0.253404	0.425021
O18	O	1.466835	0.586737	0.758354
O19	O	1.020553	-0.079961	0.079228
O20	O	1.353887	0.253372	0.412562
O21	O	1.687220	0.586705	0.745895
Zn22	Zn	0.915586	-0.105295	0.080233
Zn23	Zn	1.248920	0.228039	0.413567
Zn24	Zn	1.582253	0.561372	0.746900
Zn25	Zn	0.872225	0.105061	0.123590
Zn26	Zn	1.205558	0.438394	0.456923
Zn27	Zn	1.538892	0.771728	0.790257
O28	O	0.904133	-0.079936	0.195649
O29	O	1.237466	0.253397	0.528982
O30	O	1.570800	0.586730	0.862316
C31	C	0.755515	-0.000097	0.107696
C32	C	1.088849	0.333236	0.441029
C33	C	1.422182	0.666570	0.774362
C34	C	0.671495	-0.000085	0.106360
C35	C	1.004828	0.333248	0.439693
C36	C	1.338162	0.666581	0.773026
N37	N	0.945185	-0.248857	0.050643
N38	N	1.278518	0.084477	0.383976
N39	N	1.611851	0.417810	0.717310
C40	C	0.622873	-0.000080	0.174694
C41	C	0.956206	0.333254	0.508027
C42	C	1.289539	0.666587	0.841361
C43	C	0.543932	-0.000092	0.173429
C44	C	0.877265	0.333241	0.506763
C45	C	1.210599	0.666574	0.840096
C46	C	0.513614	-0.000103	0.103830
C47	C	0.846947	0.333230	0.437164
C48	C	1.180280	0.666563	0.770497
C49	C	0.562242	-0.000112	0.035490
C50	C	0.895576	0.333222	0.368823
C51	C	1.228909	0.666555	0.702157
C52	C	0.641183	-0.000106	0.036754
C53	C	0.974516	0.333227	0.370088
C54	C	1.307850	0.666561	0.703421
C55	C	0.243884	-0.000136	0.030390
C56	C	0.577218	0.333197	0.363723
C57	C	0.910551	0.666531	0.697056
C58	C	0.164937	-0.000139	0.029131
C59	C	0.498270	0.333195	0.362465
C60	C	0.831604	0.666528	0.695798
C61	C	0.146633	-0.000122	0.167065
C62	C	0.479967	0.333211	0.500398
C63	C	0.813300	0.666545	0.833731
C64	C	0.225574	-0.000116	0.168329
C65	C	0.558907	0.333217	0.501662
C66	C	0.892241	0.666550	0.834996
C67	C	0.274197	-0.000130	0.099988
C68	C	0.607530	0.333203	0.433321
C69	C	0.940864	0.666537	0.766655
C70	C	0.359794	-0.000118	0.101360
C71	C	0.693127	0.333215	0.434693
C72	C	1.026460	0.666549	0.768027
C73	C	0.428017	-0.000108	0.102459
C74	C	0.761350	0.333225	0.435792
C75	C	1.094684	0.666558	0.769126
C76	C	0.759968	-0.600635	0.235782
C77	C	1.093302	-0.267302	0.569115
C78	C	1.426635	0.066032	0.902448
C79	C	0.780715	-0.701138	0.215052
C80	C	1.114048	-0.367805	0.548385
C81	C	1.447381	-0.034472	0.881718
C82	C	0.883826	-0.701123	0.111999
C83	C	1.217160	-0.367790	0.445332
C84	C	1.550493	-0.034457	0.778666
C85	C	0.863086	-0.600618	0.132718
C86	C	1.196420	-0.267284	0.466051
C87	C	1.529753	0.066049	0.799385
C88	C	0.801157	-0.550381	0.194610
C89	C	1.134491	-0.217048	0.527944
C90	C	1.467824	0.116285	0.861277
C91	C	0.904275	-0.550364	0.091547
C92	C	1.237608	-0.217031	0.424880
C93	C	1.570942	0.116302	0.758213
C94	C	0.883539	-0.449868	0.112267
C95	C	1.216872	-0.116534	0.445600
C96	C	1.550206	0.216799	0.778933
C97	C	0.821614	-0.399624	0.174158
C98	C	1.154948	-0.066291	0.507491
C99	C	1.488281	0.267043	0.840825
C100	C	0.780421	-0.449885	0.215330
C101	C	1.113755	-0.116551	0.548664
C102	C	1.447088	0.216782	0.881997
C103	C	0.966207	-0.600603	0.029658
C104	C	1.299541	-0.267269	0.362991
C105	C	1.632874	0.066064	0.696325
C106	C	1.007396	-0.550349	-0.011513
C107	C	1.340729	-0.217016	0.321820
C108	C	1.674063	0.116317	0.655153
C109	C	0.986657	-0.449851	0.009203
C110	C	1.319990	-0.116517	0.342536
C111	C	1.653323	0.216816	0.675870
C112	C	0.924732	-0.399607	0.071094
C113	C	1.258065	-0.066274	0.404428
C114	C	1.591399	0.267060	0.737761
C115	C	1.027850	-0.399590	-0.031969
C116	C	1.361183	-0.066257	0.301364
C117	C	1.694516	0.267077	0.634697
C118	C	1.007114	-0.299093	-0.011249
C119	C	1.340447	0.034240	0.322084
C120	C	1.673780	0.367573	0.655417
C121	C	0.903996	-0.299110	0.091814
C122	C	1.237329	0.034223	0.425148
C123	C	1.570663	0.367556	0.758481
C124	C	1.032296	-0.000135	0.096128
C125	C	1.365629	0.333199	0.429461
C126	C	1.698962	0.666532	0.762795
C127	C	1.116315	-0.000140	0.097465
C128	C	1.449648	0.333193	0.430799
C129	C	1.782981	0.666527	0.764132
C130	C	0.899688	-0.000126	-0.036477
C131	C	1.233021	0.333207	0.296857
C132	C	1.566354	0.666540	0.630190
C133	C	0.898349	-0.000127	-0.120495
C134	C	1.231682	0.333207	0.212839
C135	C	1.565016	0.666540	0.546172
N136	N	0.842633	0.248623	0.153174
N137	N	1.175966	0.581956	0.486507
N138	N	1.509299	0.915290	0.819841
C139	C	0.966685	-0.000138	-0.169118
C140	C	1.300018	0.333196	0.164215
C141	C	1.633351	0.666529	0.497549
C142	C	0.965421	-0.000129	-0.248059
C143	C	1.298754	0.333204	0.085274
C144	C	1.632087	0.666538	0.418607
C145	C	0.895822	-0.000116	-0.278378
C146	C	1.229155	0.333217	0.054956
C147	C	1.562488	0.666551	0.388289
C148	C	0.827480	-0.000102	-0.229748
C149	C	1.160813	0.333231	0.103586
C150	C	1.494147	0.666565	0.436919
C151	C	0.828744	-0.000104	-0.150806
C152	C	1.162077	0.333230	0.182527
C153	C	1.495410	0.666563	0.515861
C154	C	0.822383	-0.000093	-0.548109
C155	C	1.155716	0.333240	-0.214775
C156	C	1.489050	0.666573	0.118558
C157	C	0.821125	-0.000095	-0.627057
C158	C	1.154459	0.333239	-0.293724
C159	C	1.487792	0.666572	0.039610
C160	C	0.959060	-0.000119	-0.645362
C161	C	1.292394	0.333215	-0.312029
C162	C	1.625727	0.666548	0.021304
C163	C	0.960324	-0.000120	-0.566421
C164	C	1.293657	0.333213	-0.233087
C165	C	1.626990	0.666546	0.100246
C166	C	0.891982	-0.000101	-0.517797
C167	C	1.225315	0.333232	-0.184463
C168	C	1.558648	0.666565	0.148870
C169	C	0.893353	-0.000109	-0.432199
C170	C	1.226686	0.333224	-0.098866
C171	C	1.560019	0.666558	0.234468
C172	C	0.894451	-0.000115	-0.363975
C173	C	1.227785	0.333218	-0.030642
C174	C	1.561118	0.666551	0.302692
C175	C	0.888123	-0.000105	0.240300
C176	C	1.221457	0.333228	0.573633
C177	C	1.554790	0.666561	0.906967
C178	C	0.889461	-0.000099	0.324320
C179	C	1.222794	0.333234	0.657653
C180	C	1.556127	0.666568	0.990986
H181	H	0.647551	-0.000070	0.231370
H182	H	0.980885	0.333263	0.564703
H183	H	1.314218	0.666597	0.898036
F184	F	0.749646	-0.000071	-0.496369
F185	F	1.082980	0.333263	-0.163035
F186	F	1.416313	0.666596	0.170298
F187	F	0.529975	-0.000130	-0.038584
F188	F	0.863308	0.333203	0.294749
F189	F	1.196641	0.666537	0.628083
H190	H	1.016999	-0.000136	-0.541742
H191	H	1.350333	0.333198	-0.208408
H192	H	1.683666	0.666531	0.124925
F193	F	0.714502	-0.396417	0.281197
F194	F	1.047835	-0.063083	0.614531
F195	F	1.381168	0.270250	0.947864
H196	H	1.021067	-0.000140	-0.287646
H197	H	1.354400	0.333193	0.045687
H198	H	1.687734	0.666526	0.379020
H199	H	0.680771	-0.000110	-0.018891
H200	H	1.014104	0.333223	0.314443
H201	H	1.347438	0.666557	0.647776
F202	F	0.736870	-0.754615	0.258881
F203	F	1.070204	-0.421282	0.592214
F204	F	1.403537	-0.087949	0.925547
F205	F	0.132672	-0.000151	-0.044949
F206	F	0.466006	0.333182	0.288384
F207	F	0.799339	0.666516	0.621718
H208	H	0.853562	-0.258206	0.142208
H209	H	1.186895	0.075128	0.475541
H210	H	1.520228	0.408461	0.808875
F211	F	0.753405	-0.000077	-0.262014
F212	F	1.086738	0.333256	0.071319
F213	F	1.420071	0.666589	0.404653
F214	F	0.756011	-0.000089	-0.099057
F215	F	1.089344	0.333244	0.234276
F216	F	1.422677	0.666578	0.567610
H217	H	0.804734	-0.317793	0.191030
H218	H	1.138067	0.015540	0.524363
H219	H	1.471401	0.348874	0.857696
H220	H	0.709534	-0.559730	0.286175
H221	H	1.042868	-0.226397	0.619509
H222	H	1.376201	0.106936	0.952842
H223	H	0.983090	-0.682434	0.012793
H224	H	1.316424	-0.349100	0.346126
H225	H	1.649757	-0.015767	0.679460
F226	F	0.492187	-0.000082	0.246161
F227	F	0.825520	0.333251	0.579495
F228	F	1.158853	0.666584	0.912828
H229	H	0.934251	-0.742037	0.061607
H230	H	1.267585	-0.408704	0.394941
H231	H	1.600918	-0.075371	0.728274
H232	H	1.057821	-0.591263	-0.061905
H233	H	1.391155	-0.257930	0.271428
H234	H	1.724488	0.075403	0.604762
F235	F	1.050954	-0.245609	-0.055068
F236	F	1.384288	0.087724	0.278265
F237	F	1.717621	0.421057	0.611599
F238	F	1.093764	-0.453066	-0.097831
F239	F	1.427097	-0.119733	0.235502
F240	F	1.760430	0.213601	0.568836
H241	H	1.023362	-0.000154	-0.144441
H242	H	1.356695	0.333179	0.188892
H243	H	1.690028	0.666513	0.522226
H244	H	0.250254	-0.000103	0.225004
H245	H	0.583587	0.333230	0.558338
H246	H	0.916920	0.666564	0.891671
H247	H	1.014707	-0.000129	-0.684961
H248	H	1.348040	0.333204	-0.351628
H249	H	1.681373	0.666537	-0.018294
F250	F	0.747045	-0.000079	-0.659321
F251	F	1.080378	0.333254	-0.325988
F252	F	1.413711	0.666587	0.007346
H253	H	0.283465	-0.000148	-0.025258
H254	H	0.616798	0.333186	0.308075
H255	H	0.950131	0.666519	0.641409
F256	F	0.094880	-0.000112	0.239799
F257	F	0.428213	0.333222	0.573133
F258	F	0.761546	0.666555	0.906466
