data_functionalizedCrystal
_audit_creation_method	'MofGen! by Chris Wilmer'
_symmetry_space_group_name_H-M	'P1'
_symmetry_Int_Tables_number	1
_symmetry_cell_setting	triclinic
loop_
_symmetry_equiv_pos_as_xyz
  x,y,z
_cell_length_a	10.540539
_cell_length_b	10.654550
_cell_length_c	9.130313
_cell_angle_alpha	90.004369
_cell_angle_beta	90.000058
_cell_angle_gamma	95.494789
loop_
_atom_site_label
_atom_site_type_symbol
_atom_site_fract_x
_atom_site_fract_y
_atom_site_fract_z
O1	O	1.685822	-0.176992	-0.121678
O2	O	1.316403	-0.193668	-0.121708
O3	O	1.509606	-0.002594	-0.121683
O4	O	1.492619	-0.368066	-0.121703
O5	O	1.509593	-0.002588	0.121916
O6	O	1.316390	-0.193662	0.121891
O7	O	1.685809	-0.176986	0.121921
Cu8	Cu	1.501098	-0.185324	0.144148
Cu9	Cu	1.501114	-0.185330	-0.143935
O10	O	1.492605	-0.368061	0.121896
C11	C	1.269094	-0.192415	0.000088
C12	C	1.128147	-0.188673	0.000077
C13	C	1.508352	0.044208	0.000115
C14	C	1.504620	0.183652	0.000113
C15	C	1.733118	-0.178240	0.000122
C16	C	1.874064	-0.181981	0.000123
C17	C	2.057440	-0.325353	0.000629
C18	C	1.910823	-0.321560	0.000104
C19	C	1.935728	-0.114812	-0.138988
C20	C	2.082271	-0.119576	-0.139130
C21	C	2.082826	-0.116732	0.137888
C22	C	1.935845	-0.115447	0.139751
C23	C	1.493859	-0.414862	0.000094
C24	C	1.497591	-0.554306	0.000087
N25	N	1.501096	-0.185318	0.346771
C26	C	1.618375	0.263098	0.000121
C27	C	1.614861	0.394120	0.000103
C28	C	1.383827	0.366238	0.000074
C29	C	1.387343	0.235218	0.000082
N30	N	1.501125	-0.185326	-0.346558
C31	C	1.586676	-0.100747	0.423434
C32	C	1.586688	-0.100747	0.576771
C33	C	1.415537	-0.269902	0.576768
C34	C	1.415519	-0.269894	0.423434
H35	H	1.868213	-0.374418	0.099820
H36	H	1.656373	-0.031879	0.639185
H37	H	1.893063	-0.161444	-0.242504
H38	H	1.345864	-0.338763	0.639203
C39	C	2.096064	-0.399841	0.135385
N40	N	2.125163	-0.455947	0.236890
H41	H	1.294704	0.170530	0.000071
C42	C	1.854365	-0.393450	-0.134844
N43	N	1.811843	-0.447595	-0.236497
H44	H	1.913410	-0.012310	-0.144149
C45	C	1.321429	-0.362993	0.339100
N46	N	1.250582	-0.433130	0.275580
C47	C	1.747384	0.206380	0.000139
N48	N	1.844557	0.163664	0.000146
H49	H	1.656355	-0.031878	0.361018
C50	C	2.120329	-0.186638	-0.279624
N51	N	2.148988	-0.237149	-0.385449
H52	H	2.087613	-0.380266	-0.098579
C53	C	2.147125	0.016033	-0.147690
N54	N	2.195967	0.118171	-0.154152
C55	C	1.254829	0.422974	0.000069
N56	N	1.157664	0.465706	0.000076
H57	H	1.707492	0.458800	0.000107
H58	H	2.114379	-0.161903	0.243313
H59	H	1.894906	-0.164529	0.242664
H60	H	2.130084	-0.015914	0.138820
C61	C	1.903168	0.022031	0.151124
N62	N	1.878554	0.125584	0.159682
