data_functionalizedCrystal
_audit_creation_method	'MofGen! by Chris Wilmer'
_symmetry_space_group_name_H-M	'P1'
_symmetry_Int_Tables_number	1
_symmetry_cell_setting	triclinic
loop_
_symmetry_equiv_pos_as_xyz
  x,y,z
_cell_length_a	15.944551
_cell_length_b	11.026607
_cell_length_c	9.482900
_cell_angle_alpha	101.363848
_cell_angle_beta	99.334197
_cell_angle_gamma	83.957623
loop_
_atom_site_label
_atom_site_type_symbol
_atom_site_fract_x
_atom_site_fract_y
_atom_site_fract_z
O1	O	0.341447	-1.629108	-0.120915
O2	O	0.301394	-1.275798	-0.120914
O3	O	0.200605	-1.462099	-0.120901
O4	O	0.442235	-1.442807	-0.120927
O5	O	0.221183	-1.424257	0.120889
O6	O	0.321972	-1.237956	0.120876
O7	O	0.362024	-1.591266	0.120875
Cu8	Cu	0.343877	-1.411156	0.142953
Cu9	Cu	0.319541	-1.455908	-0.142992
O10	O	0.462813	-1.404965	0.120862
C11	C	0.179479	-1.442377	-0.000006
C12	C	0.085870	-1.439975	-0.000005
C13	C	0.304294	-1.211666	-0.000019
C14	C	0.282267	-1.076950	-0.000019
C15	C	0.359124	-1.655399	-0.000023
C16	C	0.381150	-1.790116	-0.000033
C17	C	-0.147313	-1.318759	-0.000025
C18	C	-0.189675	-1.356391	0.119192
C19	C	-0.085514	-1.435632	-0.000016
C20	C	-0.209942	-1.393728	-0.119194
C21	C	-0.251064	-1.431430	-0.000034
C22	C	-0.126634	-1.473281	0.119299
C23	C	-0.146907	-1.510618	-0.119194
C24	C	-0.189236	-1.548331	0.000052
C25	C	0.009855	-1.438050	-0.000005
C26	C	-0.346429	-1.429020	-0.000034
C27	C	0.483939	-1.424688	-0.000036
C28	C	0.577547	-1.427091	-0.000046
N29	N	0.360994	-1.379688	0.344071
C30	C	0.343086	-1.003151	-0.000026
C31	C	0.320322	-0.863914	-0.000026
N32	N	0.302419	-1.487386	-0.344110
C33	C	0.324584	-1.446618	0.416275
C34	C	0.338834	-1.420446	0.583690
H35	H	-0.208678	-1.291183	0.219980
H36	H	0.260692	-1.564064	0.593771
H37	H	0.251392	-0.824028	-0.000055
O38	O	0.410761	-1.288126	0.417948
C39	C	0.498306	-1.127334	0.402249
C40	C	0.441949	-1.230974	0.318409
H41	H	0.523551	-1.081114	0.321808
H42	H	0.459015	-1.055383	0.473487
H43	H	0.554125	-1.168844	0.473538
H44	H	0.386122	-1.189576	0.247041
H45	H	0.481299	-1.302910	0.247263
H46	H	0.450078	-0.830006	-0.000031
O47	O	-0.124296	-1.588518	-0.239393
C48	C	-0.121014	-1.797159	-0.376662
C49	C	-0.146683	-1.709079	-0.240483
H50	H	-0.139087	-1.894656	-0.377572
H51	H	-0.155643	-1.763196	-0.478274
H52	H	-0.049242	-1.798841	-0.374902
H53	H	-0.218442	-1.707357	-0.242101
H54	H	-0.111994	-1.743074	-0.138930
H55	H	-0.128660	-1.221729	0.000094
O56	O	0.274696	-1.537971	0.342206
C57	C	0.135301	-1.615884	0.295313
C58	C	0.191691	-1.512324	0.379275
H59	H	0.068185	-1.595198	0.325275
H60	H	0.132623	-1.620671	0.173487
H61	H	0.163374	-1.708508	0.325096
H62	H	0.163661	-1.419646	0.349614
H63	H	0.194368	-1.507646	0.501081
H64	H	0.412009	-1.043047	-0.000025
H65	H	0.213341	-1.037058	-0.000048
H66	H	0.380554	-1.343758	0.645809
O67	O	-0.083774	-1.513437	0.239721
C68	C	-0.093902	-1.584632	0.460427
C69	C	-0.142548	-1.539208	0.324097
H70	H	-0.141399	-1.605457	0.528697
H71	H	-0.051971	-1.672451	0.426323
H72	H	-0.052311	-1.509523	0.527240
H73	H	-0.184185	-1.614230	0.257222
H74	H	-0.184425	-1.451358	0.358300
O75	O	-0.252963	-1.353387	-0.239392
C76	C	-0.280690	-1.186724	-0.375145
C77	C	-0.231908	-1.232277	-0.238988
H78	H	-0.263699	-1.088792	-0.374847
H79	H	-0.262376	-1.251415	-0.476790
H80	H	-0.352167	-1.186217	-0.374545
H81	H	-0.160420	-1.232780	-0.239447
H82	H	-0.250292	-1.167573	-0.137403
O83	O	-0.211428	-1.664094	0.000020
C84	C	-0.325170	-1.792048	-0.001081
C85	C	-0.300163	-1.660887	-0.001064
H86	H	-0.396911	-1.789493	-0.001927
H87	H	-0.306732	-1.857994	-0.101793
H88	H	-0.290361	-1.825746	0.100579
H89	H	-0.334959	-1.627075	-0.102656
H90	H	-0.318584	-1.595022	0.099715
