data_functionalizedCrystal
_audit_creation_method	'MofGen! by Chris Wilmer'
_symmetry_space_group_name_H-M	'P1'
_symmetry_Int_Tables_number	1
_symmetry_cell_setting	triclinic
loop_
_symmetry_equiv_pos_as_xyz
  x,y,z
_cell_length_a	13.897449
_cell_length_b	13.897448
_cell_length_c	12.827885
_cell_angle_alpha	90.029689
_cell_angle_beta	89.977240
_cell_angle_gamma	89.979604
loop_
_atom_site_label
_atom_site_type_symbol
_atom_site_fract_x
_atom_site_fract_y
_atom_site_fract_z
Zn1	Zn	1.474684	0.383947	-0.590947
Zn2	Zn	1.974684	0.883947	-0.090947
Zn3	Zn	1.474575	0.545273	-0.416207
Zn4	Zn	1.974575	1.045273	0.083793
Zn5	Zn	1.313375	0.383996	-0.416210
Zn6	Zn	1.813375	0.883996	0.083790
Zn7	Zn	1.313350	0.545204	-0.590897
Zn8	Zn	1.813350	1.045204	-0.090897
O9	O	1.393996	0.464605	-0.503565
O10	O	1.893996	0.964605	-0.003565
O11	O	1.609651	0.405356	-0.567787
O12	O	2.109651	0.905356	-0.067787
O13	O	1.453156	0.523929	-0.269971
O14	O	1.953156	1.023929	0.230029
O15	O	1.334829	0.249008	-0.439411
O16	O	1.834829	0.749008	0.060589
O17	O	1.609571	0.523881	-0.439407
O18	O	2.109571	1.023881	0.060593
O19	O	1.453342	0.248972	-0.567789
O20	O	1.953342	0.748972	-0.067789
O21	O	1.334723	0.405440	-0.269973
O22	O	1.834723	0.905440	0.230027
O23	O	1.178390	0.405372	-0.439362
O24	O	1.678390	0.905372	0.060638
O25	O	1.334786	0.523763	-0.737139
O26	O	1.834786	1.023763	-0.237139
O27	O	1.178371	0.523811	-0.567704
O28	O	1.678371	1.023811	-0.067704
O29	O	1.453318	0.405288	-0.737176
O30	O	1.953318	0.905288	-0.237176
O31	O	1.453131	0.680246	-0.439358
O32	O	1.953131	1.180246	0.060642
O33	O	1.334680	0.680195	-0.567702
O34	O	1.834680	1.180195	-0.067702
C35	C	1.393917	0.715219	-0.503547
C36	C	1.893917	1.215219	-0.003547
C37	C	1.393972	0.822433	-0.503574
C38	C	1.893972	1.322433	-0.003574
C39	C	1.143381	0.464590	-0.503529
C40	C	1.643381	0.964590	-0.003529
C41	C	1.036168	0.464607	-0.503538
C42	C	1.536168	0.964607	-0.003538
C43	C	0.949098	0.464610	-0.503555
C44	C	1.449098	0.964610	-0.003555
C45	C	0.839865	0.464617	-0.503587
C46	C	1.339865	0.964617	-0.003587
C47	C	1.394067	1.018728	-0.503649
C48	C	1.894067	1.518728	-0.003649
C49	C	1.394011	0.909496	-0.503611
C50	C	1.894011	1.409496	-0.003611
C51	C	1.645589	0.464621	-0.503602
C52	C	2.145589	0.964621	-0.003602
C53	C	1.752803	0.464627	-0.503618
C54	C	2.252803	0.964627	-0.003618
C55	C	1.394093	1.213012	-0.503618
C56	C	1.894093	1.713012	-0.003618
C57	C	1.394113	1.105798	-0.503672
C58	C	1.894113	1.605798	-0.003672
C59	C	1.394061	0.464512	-0.776135
C60	C	1.894061	0.964512	-0.276135
C61	C	1.394089	0.464473	-0.892289
C62	C	1.894089	0.964473	-0.392289
C63	C	1.452749	0.405836	-0.944092
C64	C	1.952749	0.905836	-0.444092
C65	C	1.452779	0.405794	-1.064142
C66	C	1.952779	0.905794	-0.564142
C67	C	1.393986	0.464628	-0.232055
C68	C	1.893986	0.964628	0.267945
C69	C	1.394145	0.464395	-0.115903
C70	C	1.894145	0.964395	0.384097
H71	H	1.503003	0.355596	-1.108691
H72	H	2.003003	0.855596	-0.608691
N73	N	1.519269	0.339398	-0.885125
N74	N	2.019269	0.839398	-0.385125
H75	H	1.509829	0.348857	-0.807723
H76	H	2.009829	0.848857	-0.307723
H77	H	1.588163	0.354421	-0.904171
H78	H	2.088163	0.854421	-0.404171
H79	H	1.343925	0.514603	-1.071360
H80	H	1.843925	1.014603	-0.571360
N81	N	1.327586	0.530918	-0.951268
N82	N	1.827586	1.030918	-0.451268
H83	H	1.366812	0.575566	-0.996557
H84	H	1.866812	1.075566	-0.496557
H85	H	1.288442	0.569992	-0.900145
H86	H	1.788442	1.069992	-0.400145
