data_functionalizedCrystal
_audit_creation_method	'MofGen! by Chris Wilmer'
_symmetry_space_group_name_H-M	'P1'
_symmetry_Int_Tables_number	1
_symmetry_cell_setting	triclinic
loop_
_symmetry_equiv_pos_as_xyz
  x,y,z
_cell_length_a	19.121215
_cell_length_b	21.295417
_cell_length_c	19.120904
_cell_angle_alpha	92.408338
_cell_angle_beta	89.873207
_cell_angle_gamma	92.463915
loop_
_atom_site_label
_atom_site_type_symbol
_atom_site_fract_x
_atom_site_fract_y
_atom_site_fract_z
Zn1	Zn	1.054846	-0.227295	-0.442216
Zn2	Zn	1.554846	0.272705	0.057784
Zn3	Zn	1.059756	-0.327893	-0.324970
Zn4	Zn	1.559756	0.172107	0.175030
Zn5	Zn	0.942613	-0.226920	-0.319981
Zn6	Zn	1.442613	0.273080	0.180019
Zn7	Zn	0.937563	-0.336810	-0.437151
Zn8	Zn	1.437563	0.163190	0.062849
O9	O	0.998694	-0.279729	-0.381080
O10	O	1.498694	0.220271	0.118920
O11	O	1.153605	-0.237065	-0.430871
O12	O	1.653605	0.262935	0.069129
O13	O	1.048384	-0.310610	-0.226204
O14	O	1.548384	0.189390	0.273796
O15	O	0.957559	-0.138879	-0.336227
O16	O	1.457559	0.361121	0.163773
O17	O	1.157212	-0.310974	-0.344731
O18	O	1.657212	0.189026	0.155269
O19	O	1.040017	-0.139154	-0.426033
O20	O	1.540017	0.360846	0.073967
O21	O	0.962320	-0.236425	-0.222539
O22	O	1.462320	0.263575	0.277461
O23	O	0.843835	-0.245071	-0.331316
O24	O	1.343835	0.254929	0.168684
O25	O	0.948953	-0.326171	-0.535927
O26	O	1.448953	0.173829	-0.035927
O27	O	0.840125	-0.325807	-0.417401
O28	O	1.340125	0.174193	0.082599
O29	O	1.035121	-0.245711	-0.539648
O30	O	1.535121	0.254289	-0.039648
O31	O	1.043488	-0.417167	-0.339819
O32	O	1.543488	0.082833	0.160181
O33	O	0.953714	-0.423717	-0.422238
O34	O	1.453714	0.076283	0.077762
C35	C	0.816542	-0.286367	-0.373268
C36	C	1.316542	0.213633	0.126732
C37	C	0.738615	-0.289222	-0.369943
C38	C	1.238615	0.210778	0.130057
C39	C	0.998604	-0.443283	-0.381037
C40	C	1.498604	0.056717	0.118963
C41	C	0.998629	-0.513250	-0.381045
C42	C	1.498629	-0.013250	0.118955
C43	C	0.297972	-0.307299	-0.348906
C44	C	0.797972	0.192701	0.151094
C45	C	0.371192	-0.304612	-0.352025
C46	C	0.871192	0.195388	0.147975
C47	C	0.405923	-0.264857	-0.398506
C48	C	0.905923	0.235143	0.101494
C49	C	0.367431	-0.227781	-0.441866
C50	C	0.867431	0.272219	0.058134
C51	C	0.294212	-0.230465	-0.438743
C52	C	0.794212	0.269535	0.061257
C53	C	0.626903	-0.254830	-0.410180
C54	C	1.126903	0.245170	0.089820
C55	C	0.700128	-0.252150	-0.413301
C56	C	1.200128	0.247850	0.086699
C57	C	0.703884	-0.328981	-0.323459
C58	C	1.203884	0.171019	0.176541
C59	C	0.630664	-0.331664	-0.320343
C60	C	1.130664	0.168336	0.179657
C61	C	0.592177	-0.294586	-0.363700
C62	C	1.092177	0.205414	0.136300
C63	C	0.480766	-0.262112	-0.401697
C64	C	0.980766	0.237888	0.098303
C65	C	0.517336	-0.297328	-0.360505
C66	C	1.017336	0.202672	0.139495
C67	C	1.045412	-0.542685	-0.338177
C68	C	1.545412	-0.042685	0.161823
C69	C	1.045444	-0.608427	-0.338194
C70	C	1.545444	-0.108427	0.161806
C71	C	0.998681	-0.644732	-0.381071
C72	C	1.498681	-0.144732	0.118929
C73	C	0.951894	-0.615289	-0.423948
C74	C	1.451894	-0.115289	0.076052
C75	C	0.951868	-0.549548	-0.423934
C76	C	1.451868	-0.049548	0.076066
N77	N	0.937122	-0.750450	-0.383785
N78	N	1.437122	-0.250450	0.116215
N79	N	0.937149	-0.812900	-0.383794
N80	N	1.437149	-0.312900	0.116206
C81	C	0.998758	-0.842805	-0.381115
C82	C	1.498758	-0.342805	0.118885
N83	N	1.060340	-0.807900	-0.378413
N84	N	1.560340	-0.307900	0.121587
N85	N	1.060313	-0.745443	-0.378401
N86	N	1.560313	-0.245443	0.121599
C87	C	0.998704	-0.716017	-0.381091
C88	C	1.498704	-0.216017	0.118909
C89	C	1.045580	-0.943525	-0.338263
C90	C	1.545580	-0.443525	0.161737
C91	C	1.045613	-1.009268	-0.338285
C92	C	1.545613	-0.509268	0.161715
C93	C	0.952057	-1.016129	-0.424035
C94	C	1.452057	-0.516129	0.075965
C95	C	0.952030	-0.950387	-0.424017
C96	C	1.452030	-0.450387	0.075983
C97	C	0.998790	-0.914089	-0.381127
C98	C	1.498790	-0.414089	0.118873
C99	C	1.181558	-0.273066	-0.388922
C100	C	1.681558	0.226934	0.111078
C101	C	1.259484	-0.270227	-0.392264
C102	C	1.759484	0.229773	0.107736
C103	C	0.990926	-0.286977	-0.563936
C104	C	1.490926	0.213023	-0.063936
C105	C	0.987616	-0.290066	-0.641858
C106	C	1.487616	0.209934	-0.141858
C107	C	0.998803	-0.115537	-0.381139
C108	C	1.498803	0.384463	0.118861
C109	C	0.998850	-0.045568	-0.381164
C110	C	1.498850	0.454432	0.118836
C111	C	1.030921	-0.249627	-0.680405
C112	C	1.530921	0.250373	-0.180405
C113	C	1.027802	-0.252527	-0.753621
C114	C	1.527802	0.247473	-0.253621
C115	C	0.981381	-0.295869	-0.788289
C116	C	1.481381	0.204131	-0.288289
C117	C	0.938071	-0.336309	-0.749737
C118	C	1.438071	0.163691	-0.249737
C119	C	0.941187	-0.333406	-0.676522
C120	C	1.441187	0.166594	-0.176522
C121	C	0.969725	-0.306729	-1.009254
C122	C	1.469725	0.193271	-0.509254
C123	C	0.966614	-0.309630	-1.082474
C124	C	1.466614	0.190370	-0.582474
C125	C	1.056344	-0.225847	-1.086352
C126	C	1.556344	0.274153	-0.586352
C127	C	1.059459	-0.222950	-1.013136
C128	C	1.559459	0.277050	-0.513136
C129	C	1.016147	-0.263388	-0.974590
C130	C	1.516147	0.236612	-0.474590
C131	C	0.978193	-0.298836	-0.863128
C132	C	1.478193	0.201164	-0.363128
C133	C	1.019331	-0.260418	-0.899753
C134	C	1.519331	0.239582	-0.399753
C135	C	1.006473	-0.272463	-0.198936
C136	C	1.506473	0.227537	0.301064
C137	C	1.009919	-0.269192	-0.121020
C138	C	1.509919	0.230808	0.378980
H139	H	0.269699	-0.339675	-0.311059
H140	H	0.769699	0.160325	0.188941
N141	N	0.402916	-0.187170	-0.489336
N142	N	0.902916	0.312830	0.010664
N143	N	0.468290	-0.184779	-0.492120
N144	N	0.968290	0.315221	0.007880
H145	H	0.493352	-0.156097	-0.525647
H146	H	0.993352	0.343903	-0.025647
N147	N	0.904115	-0.652361	-0.467742
N148	N	1.404115	-0.152361	0.032258
N149	N	0.862342	-0.626068	-0.506012
N150	N	1.362342	-0.126068	-0.006012
H151	H	0.828596	-0.652249	-0.536945
H152	H	1.328596	-0.152249	-0.036945
H153	H	0.913771	-0.525582	-0.458843
H154	H	1.413771	-0.025582	0.041157
H155	H	1.068724	-0.214335	-0.652183
H156	H	1.568724	0.285665	-0.152183
N157	N	1.066738	-0.216137	-0.864343
N158	N	1.566738	0.283863	-0.364343
N159	N	1.043833	-0.175303	-0.822445
N160	N	1.543833	0.324697	-0.322445
H161	H	1.077315	-0.144030	-0.797431
H162	H	1.577315	0.355970	-0.297431
H163	H	0.489055	-0.329695	-0.322658
H164	H	0.989055	0.170305	0.177342
N165	N	0.410508	-0.342490	-0.307748
N166	N	0.910508	0.157510	0.192252
N167	N	0.450310	-0.382114	-0.334074
N168	N	0.950310	0.117886	0.165926
H169	H	0.478078	-0.408866	-0.302801
H170	H	0.978078	0.091134	0.197199
N171	N	0.919189	-0.353895	-1.117898
N172	N	1.419189	0.146105	-0.617898
N173	N	0.916418	-0.356480	-1.183269
N174	N	1.416418	0.143520	-0.683269
H175	H	0.882927	-0.387740	-1.208289
H176	H	1.382927	0.112260	-0.708289
N177	N	1.072048	-0.211232	-0.792997
N178	N	1.572048	0.288768	-0.292997
N179	N	1.114967	-0.233376	-0.835763
N180	N	1.614967	0.266624	-0.335763
H181	H	1.146218	-0.204210	-0.863574
H182	H	1.646218	0.295790	-0.363574
H183	H	0.940400	-0.334128	-0.891363
H184	H	1.440400	0.165872	-0.391363
N185	N	1.093347	-0.906452	-0.294451
N186	N	1.593347	-0.406452	0.205549
N187	N	1.135120	-0.932745	-0.256182
N188	N	1.635120	-0.432745	0.243818
H189	H	1.168856	-0.906564	-0.225238
H190	H	1.668856	-0.406564	0.274762
N191	N	0.925480	-0.348038	-0.969897
N192	N	1.425480	0.151962	-0.469897
N193	N	0.884039	-0.386734	-1.000862
N194	N	1.384039	0.113266	-0.500862
H195	H	0.852788	-0.415912	-0.973065
H196	H	1.352788	0.084088	-0.473065
H197	H	0.509053	-0.229744	-0.439544
H198	H	1.009053	0.270256	0.060456
N199	N	0.595200	-0.372281	-0.272864
N200	N	1.095200	0.127719	0.227136
N201	N	0.629573	-0.405381	-0.234156
N202	N	1.129573	0.094619	0.265844
H203	H	0.604527	-0.434071	-0.200626
H204	H	1.104527	0.065929	0.299374
N205	N	0.890651	-0.380574	-0.785158
N206	N	1.390651	0.119426	-0.285158
N207	N	0.887874	-0.383162	-0.850528
N208	N	1.387874	0.116838	-0.350528
H209	H	0.854384	-0.414425	-0.875545
H210	H	1.354384	0.085575	-0.375545
N211	N	1.100576	-0.184528	-1.125715
N212	N	1.600576	0.315472	-0.625715
N213	N	1.142015	-0.145829	-1.094752
N214	N	1.642015	0.354171	-0.594752
H215	H	1.173254	-0.116642	-1.122550
H216	H	1.673254	0.383358	-0.622550
H217	H	1.083489	-0.513133	-0.303255
H218	H	1.583489	-0.013133	0.196745
N219	N	1.093395	-1.039335	-0.294483
N220	N	1.593395	-0.539335	0.205517
N221	N	1.070674	-1.075186	-0.248743
N222	N	1.570674	-0.575186	0.251257
H223	H	1.104421	-1.096421	-0.217805
H224	H	1.604421	-0.596421	0.282195
H225	H	0.905916	-0.366329	-0.645138
H226	H	1.405916	0.133671	-0.145138
N227	N	1.106888	-0.178679	-0.977737
N228	N	1.606888	0.321321	-0.477737
N229	N	1.145553	-0.142578	-1.012162
N230	N	1.645553	0.357422	-0.512162
H231	H	1.179054	-0.111313	-0.987162
H232	H	1.679054	0.388687	-0.487162
N233	N	1.093234	-0.638494	-0.294394
N234	N	1.593234	-0.138494	0.205606
N235	N	1.134977	-0.606077	-0.256103
N236	N	1.634977	-0.106077	0.243897
H237	H	1.168727	-0.627309	-0.225166
H238	H	1.668727	-0.127309	0.274834
N239	N	0.904297	-1.053214	-0.467834
N240	N	1.404297	-0.553214	0.032166
N241	N	0.904327	-1.111910	-0.467843
N242	N	1.404327	-0.611910	0.032157
H243	H	0.870597	-1.138106	-0.498779
H244	H	1.370597	-0.638106	0.001221
H245	H	0.728403	-0.219773	-0.451150
H246	H	1.228403	0.280227	0.048850
N247	N	0.743208	-0.366850	-0.279179
N248	N	1.243208	0.133150	0.220821
N249	N	0.808581	-0.364451	-0.281972
N250	N	1.308581	0.135549	0.218028
H251	H	0.836355	-0.391196	-0.250696
H252	H	1.336355	0.108804	0.249304
N253	N	0.904230	-0.920314	-0.467792
N254	N	1.404230	-0.420314	0.032208
N255	N	0.860610	-0.884326	-0.441168
N256	N	1.360610	-0.384326	0.058832
H257	H	0.826851	-0.863086	-0.472087
H258	H	1.326851	-0.363086	0.027913
H259	H	0.595576	-0.224641	-0.445488
H260	H	1.095576	0.275359	0.054512
H261	H	0.262876	-0.200275	-0.474047
H262	H	0.762876	0.299725	0.025953
