data_functionalizedCrystal
_audit_creation_method	'MofGen! by Chris Wilmer'
_symmetry_space_group_name_H-M	'P1'
_symmetry_Int_Tables_number	1
_symmetry_cell_setting	triclinic
loop_
_symmetry_equiv_pos_as_xyz
  x,y,z
_cell_length_a	17.641079
_cell_length_b	21.295418
_cell_length_c	17.639252
_cell_angle_alpha	78.767217
_cell_angle_beta	92.162086
_cell_angle_gamma	101.154805
loop_
_atom_site_label
_atom_site_type_symbol
_atom_site_fract_x
_atom_site_fract_y
_atom_site_fract_z
Zn1	Zn	-0.215058	-1.075966	0.491031
Zn2	Zn	0.284942	-0.575966	0.991031
Zn3	Zn	-0.367649	-1.084156	0.389736
Zn4	Zn	0.132351	-0.584156	0.889736
Zn5	Zn	-0.240772	-0.954401	0.364002
Zn6	Zn	0.259228	-0.454401	0.864002
Zn7	Zn	-0.342023	-0.995228	0.516645
Zn8	Zn	0.157977	-0.495228	1.016645
O9	O	-0.291375	-1.027438	0.440354
O10	O	0.208625	-0.527438	0.940354
O11	O	-0.235263	-1.165143	0.477644
O12	O	0.264737	-0.665143	0.977644
O13	O	-0.372304	-1.053285	0.280048
O14	O	0.127696	-0.553285	0.780048
O15	O	-0.131127	-0.950013	0.359364
O16	O	0.368873	-0.450013	0.859364
O17	O	-0.347370	-1.171161	0.403222
O18	O	0.152630	-0.671161	0.903222
O19	O	-0.112236	-1.039326	0.452692
O20	O	0.387764	-0.539326	0.952692
O21	O	-0.279088	-0.957955	0.261142
O22	O	0.220912	-0.457955	0.761142
O23	O	-0.254240	-0.871726	0.384201
O24	O	0.245760	-0.371726	0.884201
O25	O	-0.303695	-1.019597	0.619522
O26	O	0.196305	-0.519597	1.119522
O27	O	-0.328629	-0.901721	0.496347
O28	O	0.171371	-0.401721	0.996347
O29	O	-0.210415	-1.078914	0.600703
O30	O	0.289585	-0.578914	1.100703
O31	O	-0.470483	-1.092873	0.428059
O32	O	0.029517	-0.592873	0.928059
O33	O	-0.451656	-1.027538	0.521300
O34	O	0.048344	-0.527538	1.021300
C35	C	-0.291444	-0.863882	0.440262
C36	C	0.208556	-0.363882	0.940262
C37	C	-0.291488	-0.793918	0.440244
C38	C	0.208512	-0.293918	0.940244
C39	C	-0.330304	-0.776690	0.498577
C40	C	0.169696	-0.276690	0.998577
C41	C	-0.330283	-0.710948	0.498602
C42	C	0.169717	-0.210948	0.998602
C43	C	-0.291457	-0.662437	0.440283
C44	C	0.208543	-0.162437	0.940283
C45	C	-0.252632	-0.679671	0.381945
C46	C	0.247368	-0.179671	0.881945
C47	C	-0.252648	-0.745412	0.381926
C48	C	0.247352	-0.245412	0.881926
N49	N	-0.298946	-0.549490	0.372647
N50	N	0.201054	-0.049490	0.872647
N51	N	-0.298935	-0.487040	0.372668
N52	N	0.201065	0.012960	0.872668
C53	C	-0.291405	-0.464363	0.440338
C54	C	0.208595	0.035637	0.940338
N55	N	-0.283902	-0.506498	0.507991
N56	N	0.216098	-0.006498	1.007991
N57	N	-0.283917	-0.568954	0.507970
N58	N	0.216083	-0.068954	1.007970
C59	C	-0.291435	-0.591151	0.440298
C60	C	0.208565	-0.091151	0.940298
C61	C	-0.330200	-0.375851	0.498703
C62	C	0.169800	0.124149	0.998703
C63	C	-0.330173	-0.310107	0.498728
C64	C	0.169827	0.189893	0.998728
C65	C	-0.252528	-0.278831	0.382066
C66	C	0.247472	0.221169	0.882066
C67	C	-0.252550	-0.344574	0.382046
C68	C	0.247450	0.155426	0.882046
C69	C	-0.291390	-0.393080	0.440364
C70	C	0.208610	0.106920	0.940364
C71	C	-0.488611	-1.065544	0.480268
C72	C	0.011389	-0.565544	0.980268
C73	C	-0.572985	-1.081907	0.497369
C74	C	-0.072985	-0.581907	0.997369
C75	C	-0.681999	-1.151425	0.570085
C76	C	-0.181999	-0.651425	1.070085
C77	C	-0.602719	-1.136044	0.554011
C78	C	-0.102719	-0.636044	1.054011
C79	C	-0.622525	-1.043126	0.456782
C80	C	-0.122525	-0.543126	0.956782
C81	C	-0.701808	-1.058497	0.472851
C82	C	-0.201808	-0.558497	0.972851
C83	C	-0.731539	-1.112648	0.529503
C84	C	-0.231539	-0.612648	1.029503
C85	C	-0.751347	-1.019720	0.432269
C86	C	-0.251347	-0.519720	0.932269
C87	C	-0.830624	-1.035092	0.448335
C88	C	-0.330624	-0.535092	0.948335
C89	C	-0.860361	-1.089241	0.504982
C90	C	-0.360361	-0.589241	1.004982
C91	C	-0.810815	-1.128020	0.545569
C92	C	-0.310815	-0.628020	1.045569
C93	C	-0.721616	-0.965572	0.375614
C94	C	-0.221616	-0.465572	0.875614
C95	C	-0.771155	-0.926795	0.335032
C96	C	-0.271155	-0.426795	0.835032
C97	C	-0.850433	-0.942164	0.351101
C98	C	-0.350433	-0.442164	0.851101
C99	C	-0.880170	-0.996313	0.407748
C100	C	-0.380170	-0.496313	0.907748
C101	C	-0.899979	-0.903385	0.310514
C102	C	-0.399979	-0.403385	0.810514
C103	C	-0.979255	-0.918757	0.326580
C104	C	-0.479255	-0.418757	0.826580
C105	C	-0.959447	-1.011685	0.423814
C106	C	-0.459447	-0.511685	0.923814
C107	C	-0.093366	-0.989202	0.400300
C108	C	0.406634	-0.489202	0.900300
C109	C	-0.008986	-0.972908	0.383232
C110	C	0.491014	-0.472908	0.883232
C111	C	-0.251328	-1.052896	0.638439
C112	C	0.248672	-0.552896	1.138439
C113	C	-0.234263	-1.063745	0.722851
C114	C	0.265737	-0.563745	1.222851
C115	C	-0.291324	-0.191631	0.440427
C116	C	0.208676	0.308369	0.940427
C117	C	-0.291346	-0.261600	0.440409
C118	C	0.208654	0.238400	0.940409
C119	C	-0.420973	-0.945034	1.049462
C120	C	0.079027	-0.445034	1.549462
C121	C	-0.404928	-0.955239	1.128778
C122	C	0.095072	-0.455239	1.628778
C123	C	-0.307803	-1.017001	1.109173
C124	C	0.192197	-0.517001	1.609173
C125	C	-0.323838	-1.006798	1.029854
C126	C	0.176162	-0.506798	1.529854
C127	C	-0.380424	-0.970815	1.000005
C128	C	0.119576	-0.470815	1.500005
C129	C	-0.283289	-1.032579	0.980396
C130	C	0.216711	-0.532579	1.480396
C131	C	-0.299325	-1.022379	0.901084
C132	C	0.200675	-0.522379	1.401084
C133	C	-0.355911	-0.986399	0.871229
C134	C	0.144089	-0.486399	1.371229
C135	C	-0.396461	-0.960615	0.920692
C136	C	0.103539	-0.460615	1.420692
C137	C	-0.226706	-1.068566	1.010247
C138	C	0.273294	-0.568566	1.510247
C139	C	-0.186157	-1.094347	0.960790
C140	C	0.313843	-0.594347	1.460790
C141	C	-0.202190	-1.084144	0.881475
C142	C	0.297810	-0.584144	1.381475
C143	C	-0.258775	-1.048164	0.851621
C144	C	0.241225	-0.548164	1.351621
C145	C	-0.161640	-1.109928	0.832012
C146	C	0.338360	-0.609928	1.332012
C147	C	-0.177676	-1.099728	0.752700
C148	C	0.322324	-0.599728	1.252700
C149	C	-0.274812	-1.037964	0.772308
C150	C	0.225188	-0.537964	1.272308
C151	C	-0.331285	-1.002074	1.243043
C152	C	0.168715	-0.502074	1.743043
C153	C	-0.348355	-0.991217	1.158632
C154	C	0.151645	-0.491217	1.658632
H155	H	-0.220911	-0.239334	0.334584
H156	H	0.279089	0.260666	0.834584
H157	H	-0.220946	-0.358600	0.334542
H158	H	0.279054	0.141400	0.834542
H159	H	-0.835020	-1.172104	0.591715
H160	H	-0.335020	-0.672104	1.091715
Cl161	Cl	-0.378969	-0.288449	0.572071
Cl162	Cl	0.121031	0.211551	1.072071
H163	H	-0.221038	-0.759437	0.334424
H164	H	0.278962	-0.259437	0.834424
Cl165	Cl	-0.455908	-0.922822	1.190952
Cl166	Cl	0.044092	-0.422822	1.690952
Cl167	Cl	-0.379020	-0.436833	0.572019
Cl168	Cl	0.120980	0.063167	1.072019
Cl169	Cl	-0.540443	-1.184802	0.605032
Cl170	Cl	-0.040443	-0.684802	1.105032
Cl171	Cl	-0.719381	-1.219500	0.641308
Cl172	Cl	-0.219381	-0.719500	1.141308
H173	H	-0.983652	-1.055770	0.469960
H174	H	-0.483652	-0.555770	0.969960
Cl175	Cl	-0.960058	-1.108684	0.525014
Cl176	Cl	-0.460058	-0.608684	1.025014
Cl177	Cl	-0.585141	-0.975055	0.385565
Cl178	Cl	-0.085141	-0.475055	0.885565
Cl179	Cl	-0.621950	-0.946241	0.355427
Cl180	Cl	-0.121950	-0.446241	0.855427
H181	H	-0.746940	-0.882707	0.288904
H182	H	-0.246940	-0.382707	0.788904
H183	H	-0.875762	-0.859300	0.264383
H184	H	-0.375762	-0.359300	0.764383
Cl185	Cl	-1.041538	-0.870011	0.275559
Cl186	Cl	-0.541538	-0.370011	0.775559
H187	H	-0.320872	-1.008644	0.748000
H188	H	0.179128	-0.508644	1.248000
H189	H	-0.467033	-0.915714	1.025154
H190	H	0.032967	-0.415714	1.525154
Cl191	Cl	-0.376076	-0.973580	0.771522
Cl192	Cl	0.123924	-0.473580	1.271522
Cl193	Cl	-0.467593	-0.915371	0.883161
Cl194	Cl	0.032407	-0.415371	1.383161
Cl195	Cl	-0.236670	-1.062238	1.146706
Cl196	Cl	0.263330	-0.562238	1.646706
Cl197	Cl	-0.379083	-0.689282	0.571940
Cl198	Cl	0.120917	-0.189282	1.071940
Cl199	Cl	-0.379127	-0.837666	0.571894
Cl200	Cl	0.120873	-0.337666	1.071894
Cl201	Cl	-0.115025	-1.139584	0.998323
Cl202	Cl	0.384975	-0.639584	1.498323
H203	H	-0.213653	-1.076871	1.074830
H204	H	0.286347	-0.576871	1.574830
Cl205	Cl	-0.090514	-1.155171	0.869548
Cl206	Cl	0.409486	-0.655171	1.369548
H207	H	-0.221018	-0.640169	0.334462
H208	H	0.278982	-0.140169	0.834462
Cl209	Cl	-0.126702	-1.132142	0.690521
Cl210	Cl	0.373298	-0.632142	1.190521
