data_functionalizedCrystal
_audit_creation_method	'MofGen! by Chris Wilmer'
_symmetry_space_group_name_H-M	'P1'
_symmetry_Int_Tables_number	1
_symmetry_cell_setting	triclinic
loop_
_symmetry_equiv_pos_as_xyz
  x,y,z
_cell_length_a	21.295417
_cell_length_b	12.759395
_cell_length_c	12.759387
_cell_angle_alpha	90.020674
_cell_angle_beta	89.961464
_cell_angle_gamma	89.972017
loop_
_atom_site_label
_atom_site_type_symbol
_atom_site_fract_x
_atom_site_fract_y
_atom_site_fract_z
Zn1	Zn	-0.250618	-1.606153	-0.593953
Zn2	Zn	-0.355901	-1.605995	-0.418250
Zn3	Zn	-0.250645	-1.430451	-0.418290
Zn4	Zn	-0.355849	-1.430395	-0.593888
O5	O	-0.303254	-1.518249	-0.506095
O6	O	-0.264595	-1.753153	-0.570656
O7	O	-0.341972	-1.582667	-0.271234
O8	O	-0.162552	-1.453848	-0.441635
O9	O	-0.341946	-1.753037	-0.441568
O10	O	-0.162533	-1.582936	-0.570695
O11	O	-0.264641	-1.453695	-0.271263
O12	O	-0.264590	-1.283423	-0.441573
O13	O	-0.341857	-1.453753	-0.740918
O14	O	-0.341883	-1.283382	-0.570584
O15	O	-0.264544	-1.582881	-0.740966
O16	O	-0.443984	-1.582612	-0.441505
O17	O	-0.443945	-1.453600	-0.570546
C18	C	-0.303234	-1.245281	-0.506076
C19	C	-0.303241	-1.128505	-0.506093
C20	C	-0.222826	-1.128606	-0.640730
C21	C	-0.182625	-1.073796	-0.708056
C22	C	-0.182633	-0.964074	-0.708067
C23	C	-0.222846	-0.909160	-0.640742
C24	C	-0.263047	-0.963970	-0.573416
C25	C	-0.263036	-1.073695	-0.573415
C26	C	-0.343458	-0.963869	-0.438776
C27	C	-0.343454	-1.073591	-0.438769
C28	C	-0.383671	-0.908955	-0.371451
C29	C	-0.423877	-0.963765	-0.304129
C30	C	-0.423867	-1.073493	-0.304122
C31	C	-0.383655	-1.128401	-0.371443
C32	C	-0.466805	-1.518111	-0.506037
C33	C	-0.536773	-1.518148	-0.506047
C34	C	-0.569639	-1.585385	-0.438925
C35	C	-0.635381	-1.585434	-0.438948
C36	C	-0.668256	-1.518228	-0.506084
C37	C	-0.635382	-1.450987	-0.573219
C38	C	-0.569641	-1.450947	-0.573201
N39	N	-0.771519	-1.426321	-0.514087
N40	N	-0.833970	-1.426362	-0.514098
C41	C	-0.866330	-1.518346	-0.506144
N42	N	-0.833880	-1.610289	-0.498158
N43	N	-0.771423	-1.610247	-0.498141
C44	C	-0.739541	-1.518264	-0.506111
C45	C	-0.970482	-1.585641	-0.439043
C46	C	-1.036225	-1.585692	-0.439074
C47	C	-1.036225	-1.451236	-0.573340
C48	C	-0.970482	-1.451194	-0.573314
C49	C	-0.937615	-1.518395	-0.506160
C50	C	-0.139063	-1.518416	-0.506177
C51	C	-0.069095	-1.518487	-0.506211
C52	C	-0.303192	-1.518328	-0.780129
C53	C	-0.303166	-1.518362	-0.896906
C54	C	-0.303267	-0.792282	-0.506109
C55	C	-0.303257	-0.909059	-0.506101
C56	C	-0.222665	-1.652833	-0.896975
C57	C	-0.182406	-1.720083	-0.951870
C58	C	-0.182383	-1.720108	-1.061592
C59	C	-0.222622	-1.652874	-1.116421
C60	C	-0.262882	-1.585624	-1.061525
C61	C	-0.262902	-1.585608	-0.951801
C62	C	-0.343378	-1.451150	-1.061456
C63	C	-0.343405	-1.451128	-0.951734
C64	C	-0.383618	-1.383916	-1.116285
C65	C	-0.423881	-1.316670	-1.061389
C66	C	-0.423903	-1.316648	-0.951661
C67	C	-0.383665	-1.383878	-0.896839
C68	C	-0.303270	-1.518230	-0.233128
C69	C	-0.303119	-1.518400	-0.116352
H70	H	-0.222844	-0.819819	-0.640748
H71	H	-0.456612	-0.919045	-0.249315
C72	C	-0.138388	-1.134202	-0.782103
C73	C	-0.138372	-1.254892	-0.782097
C74	C	-0.094131	-1.315293	-0.856138
C75	C	-0.049907	-1.255004	-0.930186
C76	C	-0.049921	-1.134307	-0.930195
C77	C	-0.094161	-1.073906	-0.856154
H78	H	-0.171111	-1.299527	-0.727280
H79	H	-0.094121	-1.404641	-0.856130
H80	H	-0.017157	-1.299716	-0.984995
H81	H	-0.017182	-1.089672	-0.985012
H82	H	-0.094172	-0.984558	-0.856162
C83	C	-1.072381	-1.659658	-0.365234
C84	C	-1.144693	-1.659712	-0.365256
C85	C	-1.180849	-1.733677	-0.291413
C86	C	-1.144693	-1.807589	-0.217549
C87	C	-1.072376	-1.807538	-0.217524
C88	C	-1.036220	-1.733572	-0.291366
H89	H	-1.171462	-1.604995	-0.419937
H90	H	-1.234383	-1.733715	-0.291432
H91	H	-1.171458	-1.862343	-0.162886
H92	H	-1.045607	-1.862255	-0.162842
H93	H	-0.982686	-1.733535	-0.291347
H94	H	-0.456602	-1.118113	-0.249294
C95	C	-0.934326	-1.377220	-0.647140
C96	C	-0.862013	-1.377173	-0.647123
C97	C	-0.825856	-1.303197	-0.720955
C98	C	-0.862012	-1.229269	-0.794804
C99	C	-0.934329	-1.229314	-0.794824
C100	C	-0.970486	-1.303289	-0.720992
H101	H	-0.835244	-1.431901	-0.592453
H102	H	-0.772322	-1.303165	-0.720940
H103	H	-0.835247	-1.174508	-0.849459
H104	H	-0.961098	-1.174586	-0.849494
H105	H	-1.024020	-1.303322	-0.721007
C106	C	-0.533488	-1.659311	-0.365059
C107	C	-0.488361	-1.613800	-0.282518
C108	C	-0.452210	-1.687727	-0.208651
C109	C	-0.461187	-1.807163	-0.217325
C110	C	-0.506317	-1.852680	-0.299870
C111	C	-0.542467	-1.778754	-0.373737
H112	H	-0.481713	-1.525380	-0.276094
H113	H	-0.418802	-1.654031	-0.147546
H114	H	-0.434426	-1.861888	-0.162645
H115	H	-0.512964	-1.941100	-0.306294
H116	H	-0.575876	-1.812449	-0.434842
H117	H	-0.222686	-1.652829	-0.807634
C118	C	-0.468140	-1.242719	-1.121700
C119	C	-0.468111	-1.242738	-1.242390
C120	C	-0.512372	-1.168787	-1.302705
C121	C	-0.556660	-1.094817	-1.242330
C122	C	-0.556691	-1.094795	-1.121633
C123	C	-0.512431	-1.168746	-1.061318
H124	H	-0.435324	-1.297498	-1.287089
H125	H	-0.512349	-1.168803	-1.392053
H126	H	-0.589425	-1.040073	-1.286979
H127	H	-0.589478	-1.040035	-1.076934
H128	H	-0.512453	-1.168729	-0.971970
H129	H	-0.662146	-1.640190	-0.384289
C130	C	-0.533485	-1.376976	-0.647035
C131	C	-0.488357	-1.294487	-0.601422
C132	C	-0.452200	-1.220513	-0.675255
C133	C	-0.461171	-1.229029	-0.794702
C134	C	-0.506301	-1.311521	-0.840322
C135	C	-0.542458	-1.385495	-0.766489
H136	H	-0.481714	-1.288180	-0.512994
H137	H	-0.418791	-1.159447	-0.641483
H138	H	-0.434405	-1.174269	-0.849357
H139	H	-0.512944	-1.317828	-0.928749
H140	H	-0.575867	-1.446561	-0.800260
H141	H	-0.383641	-1.217742	-0.371439
H142	H	-0.662153	-1.396269	-0.627883
H143	H	-0.149642	-1.774821	-0.907217
H144	H	-0.149596	-1.774863	-1.106288
H145	H	-0.943720	-1.640364	-0.384365
H146	H	-0.222812	-1.217947	-0.640724
H147	H	-1.062990	-1.396520	-0.628007
H148	H	-0.222595	-1.652892	-1.205762
H149	H	-0.149894	-0.919448	-0.762883
H150	H	-0.383673	-0.819614	-0.371462
H151	H	-0.383594	-1.383938	-1.205626
H152	H	-0.456681	-1.261873	-0.906972
H153	H	-0.383681	-1.383871	-0.807498
