data_functionalizedCrystal
_audit_creation_method	'MofGen! by Chris Wilmer'
_symmetry_space_group_name_H-M	'P1'
_symmetry_Int_Tables_number	1
_symmetry_cell_setting	triclinic
loop_
_symmetry_equiv_pos_as_xyz
  x,y,z
_cell_length_a	16.959455
_cell_length_b	16.959453
_cell_length_c	16.959447
_cell_angle_alpha	90.031096
_cell_angle_beta	90.020374
_cell_angle_gamma	90.021841
loop_
_atom_site_label
_atom_site_type_symbol
_atom_site_fract_x
_atom_site_fract_y
_atom_site_fract_z
Zn1	Zn	1.208358	-0.314729	0.447032
Zn2	Zn	1.208269	-0.446921	0.314852
Zn3	Zn	1.076186	-0.314754	0.314856
Zn4	Zn	1.076140	-0.446862	0.446976
O5	O	1.142238	-0.380817	0.380929
O6	O	1.318957	-0.332279	0.429520
O7	O	1.190731	-0.429424	0.204241
O8	O	1.093775	-0.204140	0.332414
O9	O	1.318892	-0.429400	0.332407
O10	O	1.190881	-0.204121	0.429524
O11	O	1.093690	-0.332321	0.204244
O12	O	0.965569	-0.332264	0.332360
O13	O	1.093697	-0.429299	0.557595
O14	O	0.965535	-0.429324	0.429429
O15	O	1.190836	-0.332221	0.557636
O16	O	1.190686	-0.557524	0.332353
O17	O	1.093611	-0.557481	0.429425
C18	C	0.936872	-0.380791	0.380889
C19	C	0.849015	-0.380799	0.380891
C20	C	0.477495	-0.431337	0.330337
C21	C	0.477584	-0.330361	0.431617
C22	C	0.560130	-0.330348	0.431598
C23	C	0.601362	-0.380831	0.380948
C24	C	0.560049	-0.431328	0.330318
C25	C	0.601450	-0.279859	0.482233
C26	C	0.684001	-0.279844	0.482217
C27	C	0.725235	-0.330324	0.431562
C28	C	0.683916	-0.380822	0.380929
C29	C	0.725148	-0.431305	0.330279
C30	C	0.683831	-0.481799	0.279641
C31	C	0.601283	-0.481807	0.279663
C32	C	0.807783	-0.330316	0.431541
C33	C	0.807702	-0.431295	0.330260
C34	C	1.142155	-0.586183	0.380900
C35	C	1.142192	-0.674039	0.380914
C36	C	1.091624	-0.715320	0.431419
C37	C	1.192798	-0.715312	0.330427
C38	C	1.192838	-0.797858	0.330441
C39	C	1.142270	-0.839139	0.380946
C40	C	1.091664	-0.797873	0.431436
C41	C	1.243449	-0.839130	0.279957
C42	C	1.243491	-0.921681	0.279970
C43	C	1.192919	-0.962963	0.330471
C44	C	1.142310	-0.921692	0.380963
C45	C	1.091742	-0.962973	0.431468
C46	C	1.041129	-0.921704	0.481957
C47	C	1.041092	-0.839155	0.481938
C48	C	1.192955	-1.045511	0.330490
C49	C	1.091782	-1.045526	0.431486
C50	C	1.348406	-0.380843	0.380969
C51	C	1.436263	-0.380854	0.380987
C52	C	1.142271	-0.380751	0.587097
C53	C	1.142285	-0.380723	0.674954
C54	C	1.142343	-0.174648	0.380975
C55	C	1.142388	-0.086792	0.380995
C56	C	1.142251	-0.380825	0.175563
C57	C	1.142390	-0.380630	0.087707
C58	C	1.091803	-0.431184	1.046411
C59	C	1.192956	-0.330096	1.046449
C60	C	1.192935	-0.330113	0.963903
C61	C	1.142348	-0.380667	0.922607
C62	C	1.091782	-0.431204	0.963857
C63	C	1.243505	-0.279582	0.922646
C64	C	1.243487	-0.279597	0.840095
C65	C	1.192896	-0.330148	0.798798
C66	C	1.142327	-0.380687	0.840053
C67	C	1.091740	-0.431240	0.798758
C68	C	1.041167	-0.481776	0.840012
C69	C	1.041191	-0.481754	0.922560
C70	C	1.192872	-0.330169	0.716250
C71	C	1.091719	-0.431260	0.716204
H72	H	0.567635	-0.522917	0.238436
F73	F	0.433700	-0.276644	0.485527
H74	H	1.050626	-0.472326	1.080003
H75	H	0.567873	-0.238763	0.523475
H76	H	0.841420	-0.289205	0.472771
F77	F	0.727723	-0.535530	0.225743
H78	H	1.233973	-0.681699	0.289311
H79	H	1.000020	-0.522900	0.956156
H80	H	1.234050	-0.289026	0.682664
H81	H	0.999983	-0.522940	0.806378
H82	H	1.050413	-0.681717	0.472524
F83	F	0.727966	-0.226104	0.536109
H84	H	0.999960	-0.955325	0.523081
H85	H	1.284666	-0.238448	0.806513
H86	H	1.050603	-1.079131	0.472614
H87	H	0.443851	-0.472446	0.289106
H88	H	0.999885	-0.805549	0.523044
F89	F	1.297268	-0.795193	0.226217
F90	F	1.297356	-0.965595	0.226235
F91	F	1.246822	-1.089429	0.276765
H92	H	1.234146	-0.288942	1.080076
F93	F	0.851578	-0.485023	0.276346
H94	H	1.050518	-0.472421	0.682587
H95	H	1.284695	-0.238429	0.956275
