data_functionalizedCrystal
_audit_creation_method	'MofGen! by Chris Wilmer'
_symmetry_space_group_name_H-M	'P1'
_symmetry_Int_Tables_number	1
_symmetry_cell_setting	triclinic
loop_
_symmetry_equiv_pos_as_xyz
  x,y,z
_cell_length_a	12.759401
_cell_length_b	12.645330
_cell_length_c	12.759393
_cell_angle_alpha	89.970471
_cell_angle_beta	89.979527
_cell_angle_gamma	90.019217
loop_
_atom_site_label
_atom_site_type_symbol
_atom_site_fract_x
_atom_site_fract_y
_atom_site_fract_z
Zn1	Zn	1.606240	-0.421939	-0.594031
Zn2	Zn	1.606123	-0.599241	-0.418356
Zn3	Zn	1.430540	-0.421997	-0.418366
Zn4	Zn	1.430521	-0.599166	-0.593993
O5	O	1.518356	-0.510586	-0.506187
O6	O	1.753245	-0.445466	-0.570739
O7	O	1.582791	-0.575786	-0.271336
O8	O	1.453903	-0.273642	-0.441689
O9	O	1.753160	-0.575729	-0.441671
O10	O	1.582989	-0.273600	-0.570749
O11	O	1.453790	-0.445565	-0.271344
O12	O	1.283516	-0.445492	-0.441652
O13	O	1.453872	-0.575600	-0.741019
O14	O	1.283503	-0.575657	-0.570684
O15	O	1.582971	-0.445393	-0.741047
O16	O	1.582772	-0.747579	-0.441634
O17	O	1.453758	-0.747523	-0.570674
C18	C	1.245389	-0.510573	-0.506166
C19	C	1.128612	-0.510593	-0.506182
C20	C	1.073770	-0.578473	-0.573263
C21	C	0.964046	-0.578477	-0.573284
C22	C	0.964015	-0.442718	-0.439133
C23	C	1.073737	-0.442709	-0.439118
C24	C	1.518279	-0.786016	-0.506172
C25	C	1.518343	-0.903846	-0.506201
C26	C	1.437515	-1.071419	-0.587630
C27	C	1.437101	-0.948859	-0.587368
C28	C	1.488368	-0.948450	-0.395479
C29	C	1.487875	-1.071048	-0.395973
C30	C	1.629640	-1.070930	-0.534596
C31	C	1.628958	-0.948323	-0.537017
C32	C	1.792389	-0.510600	-0.506208
C33	C	1.909166	-0.510606	-0.506217
C34	C	1.518432	-0.510481	-0.780220
C35	C	1.518465	-0.510437	-0.896997
C36	C	1.518462	-0.234081	-0.506224
C37	C	1.518507	-0.116251	-0.506241
C38	C	1.585714	-0.442587	-1.061606
C39	C	1.585694	-0.442628	-0.951882
C40	C	1.451259	-0.578217	-0.951841
C41	C	1.451286	-0.578180	-1.061564
C42	C	1.518340	-0.510613	-0.233219
C43	C	1.518511	-0.510359	-0.116443
H44	H	1.118390	-0.387427	-0.384493
N45	N	1.657355	-0.911730	-0.639223
N46	N	1.743125	-0.938363	-0.678515
H47	H	1.763182	-0.912511	-0.750697
N48	N	1.382571	-0.647466	-0.895779
N49	N	1.285632	-0.640418	-0.908024
H50	H	1.237115	-0.689323	-0.868430
N51	N	1.558628	-1.108278	-0.317282
N52	N	1.525560	-1.164979	-0.244117
H53	H	1.575520	-1.191274	-0.188536
H54	H	1.640453	-0.387362	-1.106286
N55	N	1.129808	-0.647819	-0.641769
N56	N	1.080824	-0.708421	-0.701658
H57	H	1.120397	-0.757399	-0.750044
H58	H	1.640418	-0.387442	-0.907239
N59	N	1.387518	-0.910047	-0.364806
N60	N	1.337546	-0.849843	-0.424299
H61	H	1.266318	-0.822720	-0.402642
H62	H	1.396560	-0.633374	-1.106213
H63	H	0.919323	-0.387451	-0.384531
N64	N	0.908044	-0.647816	-0.641818
N65	N	0.957056	-0.708413	-0.701692
H66	H	0.917506	-0.757385	-0.750100
H67	H	1.455855	-0.918698	-0.669468
H68	H	1.355641	-1.102323	-0.569085
N69	N	1.460886	-1.108237	-0.690973
N70	N	1.537501	-1.167957	-0.705849
H71	H	1.554030	-1.193939	-0.778843
H72	H	1.354712	-0.919628	-0.568583
N73	N	1.385961	-1.107037	-0.365831
N74	N	1.315693	-1.041610	-0.344579
H75	H	1.243713	-1.067022	-0.323290
N76	N	1.560032	-0.911876	-0.317333
N77	N	1.634173	-0.852385	-0.342432
H78	H	1.684788	-0.826553	-0.287243
N79	N	1.663967	-1.109601	-0.634155
N80	N	1.746616	-1.162228	-0.640721
H81	H	1.770853	-1.189540	-0.711038
N82	N	1.708660	-0.909885	-0.468080
N83	N	1.783378	-0.856998	-0.503770
H84	H	1.839666	-0.829852	-0.455074
N85	N	1.705327	-1.107297	-0.460221
N86	N	1.677684	-1.166334	-0.386623
H87	H	1.731130	-1.192022	-0.334091
