data_functionalizedCrystal
_audit_creation_method	'MofGen! by Chris Wilmer'
_symmetry_space_group_name_H-M	'P1'
_symmetry_Int_Tables_number	1
_symmetry_cell_setting	triclinic
loop_
_symmetry_equiv_pos_as_xyz
  x,y,z
_cell_length_a	17.038272
_cell_length_b	8.559649
_cell_length_c	16.098538
_cell_angle_alpha	92.338850
_cell_angle_beta	87.069734
_cell_angle_gamma	80.445110
loop_
_atom_site_label
_atom_site_type_symbol
_atom_site_fract_x
_atom_site_fract_y
_atom_site_fract_z
O1	O	1.020637	0.337569	-0.069148
O2	O	0.793335	0.332102	-0.069173
O3	O	0.927012	0.104956	-0.069157
O4	O	0.886961	0.564715	-0.069164
O5	O	0.919206	0.118169	0.069355
O6	O	0.785530	0.345315	0.069339
O7	O	1.012832	0.350782	0.069364
Zn8	Zn	0.897942	0.350147	0.091343
Zn9	Zn	0.908226	0.332738	-0.091152
O10	O	0.879156	0.577928	0.069348
C11	C	0.760603	0.333738	0.000080
C12	C	0.674699	0.318907	0.000071
N13	N	0.890929	0.362027	0.215892
C14	C	0.926144	0.052445	0.000098
C15	C	0.935179	-0.123707	0.000095
C16	C	0.616427	0.455059	0.000069
C17	C	0.535711	0.441117	0.000081
C18	C	0.513269	0.291021	0.000088
C19	C	0.571548	0.154859	0.000092
C20	C	0.652261	0.168803	0.000086
C21	C	0.270462	0.241759	0.000111
C22	C	0.189741	0.227824	0.000114
C23	C	0.153910	0.514084	0.000105
C24	C	0.234627	0.528015	0.000094
C25	C	0.292898	0.391853	0.000102
C26	C	0.430765	0.276766	0.000098
C27	C	0.375400	0.406110	0.000099
C28	C	1.045565	0.349146	0.000109
C29	C	1.131469	0.363976	0.000113
C30	C	0.880023	0.630439	0.000091
C31	C	0.870989	0.806591	0.000089
N32	N	0.915245	0.320845	-0.215701
C33	C	0.947683	0.265657	0.259483
C34	C	0.942783	0.273984	0.346672
C35	C	0.881133	0.378691	0.390267
C36	C	0.824373	0.475065	0.346669
C37	C	0.829270	0.466729	0.259482
C38	C	0.863383	0.408883	0.653515
C39	C	0.858492	0.417216	0.740708
C40	C	0.976901	0.216131	0.740704
C41	C	0.981796	0.207811	0.653516
C42	C	0.925034	0.304180	0.609926
C43	C	0.876125	0.387209	0.479387
C44	C	0.930039	0.295653	0.520807
H45	H	0.488268	0.551987	0.000079
O46	O	1.017133	0.776839	0.000111
H47	H	1.062730	0.855600	0.000123
H48	H	1.023114	0.137671	0.776204
O49	O	0.715112	0.021948	0.000093
H50	H	0.775007	0.056860	0.000099
H51	H	0.809116	0.881686	0.000087
O52	O	0.406554	0.114881	0.000102
H53	H	0.460632	0.022537	0.000104
H54	H	0.817166	0.487354	0.618030
H55	H	0.997888	0.180400	0.223994
H56	H	0.988996	0.195510	0.382164
O57	O	0.258821	0.689915	0.000105
H58	H	0.237904	0.750502	-0.056343
H59	H	1.031996	0.122551	0.618023
H60	H	0.171474	0.105592	0.000119
O61	O	0.791992	0.530142	0.787738
H62	H	0.733697	0.500034	0.771027
O63	O	0.757879	0.588011	0.393683
H64	H	0.764013	0.577634	0.461634
H65	H	0.783054	0.545202	0.223991
O66	O	0.996517	0.182695	0.473784
H67	H	1.032429	0.250771	0.434045
O68	O	0.809639	0.500156	0.526414
H69	H	0.751339	0.470078	0.509700
O70	O	0.640631	0.616951	0.000070
H71	H	0.586547	0.709283	0.000082
O72	O	0.399600	0.567998	0.000099
H73	H	0.378689	0.628574	-0.056354
O74	O	0.091058	0.660936	0.000114
H75	H	0.056591	0.656050	-0.056332
O76	O	0.333307	0.094906	0.000120
H77	H	0.304138	-0.011803	0.000119
H78	H	0.553269	0.032648	0.000110
