data_functionalizedCrystal
_audit_creation_method	'MofGen! by Chris Wilmer'
_symmetry_space_group_name_H-M	'P1'
_symmetry_Int_Tables_number	1
_symmetry_cell_setting	triclinic
loop_
_symmetry_equiv_pos_as_xyz
  x,y,z
_cell_length_a	15.944493
_cell_length_b	15.944493
_cell_length_c	11.295483
_cell_angle_alpha	94.100278
_cell_angle_beta	85.895877
_cell_angle_gamma	83.475044
loop_
_atom_site_label
_atom_site_type_symbol
_atom_site_fract_x
_atom_site_fract_y
_atom_site_fract_z
O1	O	1.120189	0.102447	-0.098994
O2	O	1.620189	0.602447	0.401006
O3	O	0.875630	0.115854	-0.098998
O4	O	1.375630	0.615854	0.401002
O5	O	1.004614	-0.013129	-0.099006
O6	O	1.504614	0.486871	0.400994
O7	O	0.991205	0.231431	-0.098986
O8	O	1.491205	0.731431	0.401014
O9	O	0.993285	-0.001818	0.099046
O10	O	1.493285	0.498182	0.599046
O11	O	0.864301	0.127166	0.099053
O12	O	1.364301	0.627166	0.599053
O13	O	1.108860	0.113759	0.099057
O14	O	1.608860	0.613759	0.599057
Cu15	Cu	0.985546	0.121495	0.117139
Cu16	Cu	1.485546	0.621495	0.617139
Cu17	Cu	0.998944	0.108118	-0.117080
Cu18	Cu	1.498944	0.608118	0.382920
O19	O	0.979876	0.242742	0.099065
O20	O	1.479876	0.742742	0.599065
C21	C	0.838671	0.120962	0.000027
C22	C	1.338671	0.620962	0.500027
C23	C	0.745423	0.119319	0.000025
C24	C	1.245423	0.619319	0.500025
C25	C	0.998402	-0.038769	0.000015
C26	C	1.498402	0.461231	0.500015
C27	C	0.996760	-0.132018	-0.000000
C28	C	1.496760	0.367982	0.500000
C29	C	0.509647	0.195242	0.000030
C30	C	1.009647	0.695242	0.500030
C31	C	0.453511	0.159877	0.097681
C32	C	0.953511	0.659877	0.597681
C33	C	0.574702	0.116275	0.000027
C34	C	1.074702	0.616275	0.500027
C35	C	0.464685	0.148706	-0.097582
C36	C	0.964685	0.648706	0.402418
C37	C	0.409794	0.113340	0.000023
C38	C	0.909794	0.613340	0.500023
C39	C	0.519790	0.080936	0.097759
C40	C	1.019790	0.580936	0.597759
C41	C	0.530973	0.069772	-0.097592
C42	C	1.030973	0.569772	0.402408
C43	C	0.474869	0.034350	0.000083
C44	C	0.974869	0.534350	0.500083
C45	C	0.669702	0.117968	0.000030
C46	C	1.169702	0.617968	0.500030
C47	C	0.314797	0.111642	0.000029
C48	C	0.814797	0.611642	0.500029
C49	C	1.072681	-0.367792	0.000023
C50	C	1.572681	0.132208	0.500023
C51	C	1.037324	-0.423929	-0.097626
C52	C	1.537324	0.076071	0.402374
C53	C	0.993715	-0.302737	0.000014
C54	C	1.493715	0.197263	0.500014
C55	C	1.026137	-0.412753	0.097637
C56	C	1.526137	0.087247	0.597637
C57	C	0.990779	-0.467645	0.000033
C58	C	1.490779	0.032355	0.500033
C59	C	0.958384	-0.357650	-0.097716
C60	C	1.458384	0.142350	0.402284
C61	C	0.947203	-0.346466	0.097635
C62	C	1.447203	0.153534	0.597635
C63	C	0.911790	-0.402571	-0.000039
C64	C	1.411790	0.097429	0.499961
C65	C	0.995408	-0.207738	0.000002
C66	C	1.495408	0.292262	0.500002
C67	C	0.989080	-0.562642	0.000037
C68	C	1.489080	-0.062642	0.500037
C69	C	1.145819	0.108651	0.000030
C70	C	1.645819	0.608651	0.500030
C71	C	1.239068	0.110293	0.000024
C72	C	1.739068	0.610293	0.500024
C73	C	0.986089	0.268381	0.000042
C74	C	1.486089	0.768381	0.500042
C75	C	0.987731	0.361630	0.000049
C76	C	1.487731	0.861630	0.500049
N77	N	0.976129	0.130903	0.281876
N78	N	1.476129	0.630903	0.781876
N79	N	1.008368	0.098703	-0.281817
N80	N	1.508368	0.598703	0.218183
C81	C	1.076158	0.030930	0.531159
C82	C	1.576158	0.530930	1.031159
C83	C	1.069047	0.038046	0.655823
C84	C	1.569047	0.538046	1.155823
C85	C	0.954794	0.152246	0.655870
C86	C	1.454794	0.652246	1.155870
C87	C	0.961904	0.145130	0.531206
C88	C	1.461904	0.645130	1.031206
C89	C	1.022589	0.084471	0.468855
C90	C	1.522589	0.584471	0.968855
C91	C	1.029703	0.077360	0.344189
C92	C	1.529703	0.577360	0.844189
C93	C	0.915447	0.191556	0.344238
C94	C	1.415447	0.691556	0.844238
C95	C	0.908336	0.198671	0.468902
C96	C	1.408336	0.698671	0.968902
H97	H	0.525251	0.263269	0.000127
H98	H	1.025251	0.763269	0.500127
H99	H	1.079118	0.027971	0.293424
H100	H	1.579118	0.527971	0.793424
H101	H	0.440462	0.177357	-0.180127
H102	H	0.940462	0.677357	0.319873
C103	C	1.088758	-0.469420	-0.209149
C104	C	1.588758	0.030580	0.290851
N105	N	1.127503	-0.503685	-0.293143
N106	N	1.627503	-0.003685	0.206857
H107	H	1.125575	-0.018455	0.480392
H108	H	1.625575	0.481545	0.980392
C109	C	0.841580	0.265387	0.537503
C110	C	1.341580	0.765387	1.037503
N111	N	0.791298	0.315638	0.589171
N112	N	1.291298	0.815638	1.089171
C113	C	0.888026	0.218946	0.724478
C114	C	1.388026	0.718946	1.224478
N115	N	0.837730	0.269180	0.776155
N116	N	1.337730	0.769180	1.276155
C117	C	0.856517	0.250454	0.275693
C118	C	1.356517	0.750454	0.775693
N119	N	0.812134	0.294817	0.224064
N120	N	1.312134	0.794817	0.724064
H121	H	0.929782	-0.333544	-0.180360
H122	H	1.429782	0.166456	0.319640
C123	C	1.164578	-0.346701	-0.000106
C124	C	1.664578	0.153299	0.499894
N125	N	1.233794	-0.330814	-0.000210
N126	N	1.733794	0.169186	0.499790
H127	H	0.543898	0.052327	0.180398
H128	H	1.043898	0.552327	0.680398
C129	C	0.408020	0.211301	0.209211
C130	C	0.908020	0.711301	0.709211
N131	N	0.373755	0.250040	0.293209
N132	N	0.873755	0.750040	0.793209
C133	C	1.127974	-0.020856	0.724354
C134	C	1.627974	0.479144	1.224354
N135	N	1.172359	-0.065225	0.775970
N136	N	1.672359	0.434775	1.275970
H137	H	0.459414	-0.033719	0.000134
H138	H	0.959414	0.466281	0.500134
C139	C	0.819832	-0.423454	-0.000111
C140	C	1.319832	0.076546	0.499889
N141	N	0.750571	-0.439185	-0.000171
N142	N	1.250571	0.060815	0.499829
C143	C	0.576469	0.018381	-0.209136
C144	C	1.076469	0.518381	0.290864
N145	N	0.610734	-0.020324	-0.293160
N146	N	1.110734	0.479676	0.206840
H147	H	1.054780	-0.436976	0.180187
H148	H	1.554780	0.063024	0.680187
C149	C	0.895805	-0.300966	0.209171
C150	C	1.395805	0.199034	0.709171
N151	N	0.857096	-0.266697	0.293190
N152	N	1.357096	0.233303	0.793190
