data_functionalizedCrystal
_audit_creation_method	'MofGen! by Chris Wilmer'
_symmetry_space_group_name_H-M	'P1'
_symmetry_Int_Tables_number	1
_symmetry_cell_setting	triclinic
loop_
_symmetry_equiv_pos_as_xyz
  x,y,z
_cell_length_a	15.297475
_cell_length_b	16.625546
_cell_length_c	15.298259
_cell_angle_alpha	80.285010
_cell_angle_beta	88.370891
_cell_angle_gamma	80.324704
loop_
_atom_site_label
_atom_site_type_symbol
_atom_site_fract_x
_atom_site_fract_y
_atom_site_fract_z
Zn1	Zn	1.253508	-0.402736	-0.726648
Zn2	Zn	1.278750	-0.564160	-0.580141
Zn3	Zn	1.132361	-0.410579	-0.554872
Zn4	Zn	1.106994	-0.518759	-0.701284
O5	O	1.192903	-0.474059	-0.640736
O6	O	1.379437	-0.439868	-0.728404
O7	O	1.280512	-0.566070	-0.454201
O8	O	1.148484	-0.296708	-0.577698
O9	O	1.397983	-0.558465	-0.620766
O10	O	1.237490	-0.290946	-0.703902
O11	O	1.172960	-0.453234	-0.435636
O12	O	1.006415	-0.409211	-0.553103
O13	O	1.105249	-0.481086	-0.827236
O14	O	0.987778	-0.488690	-0.660672
O15	O	1.212892	-0.395844	-0.845872
O16	O	1.255914	-0.670968	-0.596171
O17	O	1.129725	-0.637612	-0.685174
C18	C	0.965312	-0.444875	-0.601393
C19	C	0.867944	-0.432406	-0.584583
C20	C	0.554824	-0.563182	-0.760884
C21	C	0.646307	-0.574904	-0.776675
C22	C	0.701720	-0.539280	-0.728654
C23	C	0.665643	-0.491933	-0.664838
C24	C	0.574152	-0.480216	-0.649040
C25	C	0.721048	-0.456314	-0.616810
C26	C	0.684971	-0.408967	-0.552994
C27	C	0.593489	-0.397251	-0.537199
C28	C	0.538075	-0.432875	-0.585220
C29	C	0.812539	-0.468032	-0.632608
C30	C	0.831867	-0.385065	-0.520764
C31	C	0.740385	-0.373344	-0.504972
C32	C	1.192827	-0.683545	-0.640685
C33	C	1.192869	-0.773170	-0.640707
C34	C	1.193006	-1.101348	-0.640824
C35	C	1.192965	-1.010038	-0.640793
C36	C	1.192937	-0.937262	-0.640765
C37	C	1.192897	-0.845946	-0.640735
C38	C	1.421383	-0.503356	-0.680233
C39	C	1.518747	-0.515841	-0.697064
C40	C	1.153425	-0.432526	-0.869228
C41	C	1.136602	-0.414827	-0.966598
C42	C	1.193001	-0.263753	-0.640811
C43	C	1.193042	-0.174134	-0.640842
C44	C	1.313170	-0.599936	-1.279724
C45	C	1.328971	-0.616570	-1.188239
C46	C	1.280881	-0.566135	-1.132825
C47	C	1.216985	-0.499065	-1.168903
C48	C	1.201177	-0.482434	-1.260396
C49	C	1.168888	-0.448633	-1.113497
C50	C	1.104992	-0.381563	-1.149575
C51	C	1.089188	-0.364935	-1.241059
C52	C	1.137278	-0.415369	-1.296474
C53	C	1.184696	-0.465264	-1.022004
C54	C	1.072703	-0.347762	-1.002676
C55	C	1.056902	-0.331129	-1.094161
C56	C	1.232278	-0.515378	-0.413142
C57	C	1.249271	-0.532871	-0.315802
H58	H	0.776209	-0.548826	-0.741516
H59	H	1.380987	-0.671185	-1.158869
H60	H	0.710997	-0.334794	-0.453012
N61	N	0.498224	-0.599581	-0.809915
N62	N	0.452501	-0.649997	-0.770165
H63	H	0.412526	-0.675709	-0.804795
H64	H	0.675675	-0.613456	-0.828633
H65	H	1.004877	-0.276520	-1.123549
N66	N	0.556637	-0.348877	-0.472023
N67	N	0.500268	-0.285384	-0.494141
H68	H	0.474243	-0.251217	-0.448112
N69	N	1.023577	-0.296252	-0.946068
N70	N	1.037699	-0.311109	-0.864385
H71	H	1.003005	-0.274736	-0.824399
N72	N	1.121117	-0.398470	-1.389922
N73	N	1.182371	-0.383010	-1.442635
H74	H	1.170948	-0.371114	-1.508633
H75	H	1.236726	-0.519869	-0.992639
H76	H	0.463581	-0.423332	-0.572368
H77	H	1.037151	-0.310328	-1.270430
H78	H	0.876986	-0.356059	-0.481660
N79	N	1.297029	-0.583137	-1.039377
N80	N	1.354080	-0.643021	-1.007176
H81	H	1.365490	-0.655030	-0.941175
N82	N	1.362269	-0.651446	-1.336337
N83	N	1.348140	-0.636590	-1.418019
H84	H	1.382818	-0.672973	-1.458005
H85	H	0.841904	-0.506581	-0.684568
