data_functionalizedCrystal
_audit_creation_method	'MofGen! by Chris Wilmer'
_symmetry_space_group_name_H-M	'P1'
_symmetry_Int_Tables_number	1
_symmetry_cell_setting	triclinic
loop_
_symmetry_equiv_pos_as_xyz
  x,y,z
_cell_length_a	23.204064
_cell_length_b	23.204065
_cell_length_c	23.204116
_cell_angle_alpha	89.996965
_cell_angle_beta	59.996975
_cell_angle_gamma	59.999902
loop_
_atom_site_label
_atom_site_type_symbol
_atom_site_fract_x
_atom_site_fract_y
_atom_site_fract_z
O1	O	0.508354	0.395335	-0.017165
O2	O	0.390339	0.311532	0.017047
O3	O	0.508349	0.311530	-0.100966
O4	O	0.390344	0.395337	0.100848
O5	O	0.412497	0.407382	-0.100966
O6	O	0.294487	0.407384	0.017047
O7	O	0.412502	0.491187	-0.017165
Cu8	Cu	0.344743	0.458037	-0.000059
Cu9	Cu	0.458098	0.344682	-0.000059
O10	O	0.294493	0.491189	0.100848
C11	C	0.517029	0.596425	-0.024963
C12	C	0.476574	0.672443	-0.020071
C13	C	0.482671	0.561425	-0.025445
C14	C	0.621389	0.492066	-0.024963
C15	C	0.692516	0.456502	-0.020072
C16	C	0.586872	0.457224	-0.025446
C17	C	0.517025	0.492068	-0.024955
C18	C	0.476565	0.456507	-0.020056
C19	C	0.586876	0.561422	-0.025453
C20	C	0.212796	0.144180	0.035745
C21	C	0.253254	0.068160	0.030849
C22	C	0.142952	0.179181	0.036231
C23	C	0.212793	0.248540	0.035749
C24	C	0.253248	0.284104	0.030857
C25	C	0.142949	0.283383	0.036234
C26	C	0.108437	0.248539	0.035744
C27	C	0.037314	0.284101	0.030848
C28	C	0.247150	0.179182	0.036235
C29	C	-0.020146	0.312831	0.026891
C30	C	0.285940	0.006744	0.026893
C31	C	0.285933	0.312835	0.026904
C32	C	-0.092232	0.348875	0.021928
C33	C	0.326947	-0.070305	0.021930
C34	C	0.326936	0.348880	0.021946
C35	C	0.590049	0.248541	-0.445864
C36	C	0.549593	0.284103	-0.481426
C37	C	0.659894	0.179184	-0.480706
C38	C	0.590049	0.248541	-0.341505
C39	C	0.549592	0.284104	-0.265486
C40	C	0.659893	0.179184	-0.376505
C41	C	0.694407	0.144182	-0.445862
C42	C	0.765532	0.068163	-0.481423
C43	C	0.555693	0.283384	-0.376507
C44	C	0.822992	0.006748	-0.510153
C45	C	0.516907	0.312833	-0.510157
C46	C	0.516906	0.312834	-0.204070
C47	C	0.895079	-0.070301	-0.546195
C48	C	0.475902	0.348877	-0.546201
C49	C	0.475901	0.348879	-0.127021
O50	O	0.886610	0.407380	0.017032
O51	O	0.719007	0.491183	-0.017180
O52	O	0.718991	0.491179	0.100833
O53	O	0.886626	0.407384	-0.100981
O54	O	0.718998	0.395324	0.100825
O55	O	0.719014	0.395328	-0.017189
O56	O	0.886617	0.311525	0.017023
Cu57	Cu	0.802816	0.344674	-0.000083
Cu58	Cu	0.802808	0.458034	-0.000073
O59	O	0.886634	0.311529	-0.100990
O60	O	0.294497	0.903641	0.017034
O61	O	0.412511	0.701827	-0.017179
O62	O	0.294507	0.819822	0.100834
O63	O	0.412500	0.785646	-0.100980
O64	O	0.390363	0.819819	0.100826
O65	O	0.508367	0.701824	-0.017187
O66	O	0.390353	0.903639	0.017026
Cu67	Cu	0.458112	0.802731	-0.000082
Cu68	Cu	0.344751	0.802734	-0.000072
O69	O	0.508356	0.785644	-0.100988
O70	O	1.083846	-0.298166	-0.592645
O71	O	0.916232	-0.096354	-0.508846
O72	O	0.916226	-0.214357	-0.508835
O73	O	1.083852	-0.180164	-0.592656
O74	O	0.916229	-0.214359	-0.604687
O75	O	0.916235	-0.096357	-0.604698
O76	O	1.083848	-0.298169	-0.688497
Cu77	Cu	1.000042	-0.197263	-0.655350
Cu78	Cu	1.000039	-0.197260	-0.541993
O79	O	1.083854	-0.180167	-0.688508
O80	O	0.390339	0.395341	-0.688506
O81	O	0.508349	0.311530	-0.604703
O82	O	0.390337	0.311534	-0.604694
O83	O	0.508352	0.395337	-0.688516
O84	O	0.294488	0.407384	-0.508843
O85	O	0.412500	0.407379	-0.508852
O86	O	0.294490	0.491191	-0.592655
Cu87	Cu	0.344743	0.458037	-0.542002
Cu88	Cu	0.458096	0.344684	-0.655357
O89	O	0.412502	0.491187	-0.592665
C90	C	0.181466	0.596433	0.310607
C91	C	0.110341	0.672452	0.346167
C92	C	0.215979	0.561432	0.345451
C93	C	0.285825	0.492073	0.206249
C94	C	0.326282	0.456510	0.130231
C95	C	0.320180	0.457231	0.241252
C96	C	0.285824	0.492075	0.310609
C97	C	0.326279	0.456513	0.346172
C98	C	0.215980	0.561431	0.241250
C99	C	0.517000	0.492049	0.310585
C100	C	0.476544	0.456483	0.346144
C101	C	0.482638	0.561406	0.345431
C102	C	0.621366	0.492056	0.206230
C103	C	0.692498	0.456497	0.130211
C104	C	0.586846	0.561413	0.241235
C105	C	0.516995	0.596411	0.310592
C106	C	0.476532	0.672430	0.346157
C107	C	0.586851	0.457209	0.241228
C108	C	0.285875	0.827557	0.310579
C109	C	0.326339	0.822656	0.346134
C110	C	0.216033	0.828036	0.345424
C111	C	0.285858	0.827580	0.206228
C112	C	0.326304	0.822703	0.130212
C113	C	0.216016	0.828059	0.241232
C114	C	0.181512	0.827556	0.310586
C115	C	0.110392	0.822653	0.346150
C116	C	0.320220	0.828061	0.241224
C117	C	1.212852	0.144201	-0.445886
C118	C	1.253315	0.068182	-0.481452
C119	C	1.247208	0.179206	-0.480725
C120	C	1.108480	0.248555	-0.341524
C121	C	1.037348	0.284114	-0.265505
C122	C	1.142995	0.283402	-0.376522
C123	C	1.212846	0.248563	-0.445879
C124	C	1.253302	0.284130	-0.481437
C125	C	1.143001	0.179198	-0.376529
C126	C	1.285987	0.312863	-0.510163
C127	C	1.286006	0.006766	-0.510185
C128	C	0.979882	0.312841	-0.204089
C129	C	1.326992	0.348911	-0.546203
C130	C	1.327018	-0.070282	-0.546232
C131	C	0.907787	0.348880	-0.127040
O132	O	0.390300	0.903628	0.395299
O133	O	0.508322	0.701816	0.311481
O134	O	0.390318	0.819819	0.311478
O135	O	0.508304	0.785625	0.395302
O136	O	0.294462	0.819810	0.407324
O137	O	0.412466	0.701807	0.407328
O138	O	0.294444	0.903619	0.491145
Cu139	Cu	0.344703	0.802712	0.457988
Cu140	Cu	0.458063	0.802723	0.344638
O141	O	0.412448	0.785616	0.491148
C142	C	0.694370	0.767007	-0.445874
C143	C	0.765494	0.771905	-0.481440
C144	C	0.659846	0.766531	-0.480711
C145	C	0.590021	0.766987	-0.341515
C146	C	0.549574	0.771865	-0.265499
C147	C	0.555655	0.766512	-0.376510
C148	C	0.590001	0.767015	-0.445864
C149	C	0.549534	0.771922	-0.481419
C150	C	0.659865	0.766504	-0.376520
C151	C	0.516840	0.775888	-0.510142
C152	C	0.822954	0.775863	-0.510172
C153	C	0.516897	0.775806	-0.204085
C154	C	0.475824	0.780862	-0.546178
C155	C	0.895041	0.780828	-0.546219
C156	C	0.475903	0.780750	-0.127038
H157	H	0.114066	0.340370	0.037019
H158	H	0.376432	0.828835	0.213118
O159	O	0.181424	0.594931	0.207783
C160	C	0.100743	0.614512	0.245555
H161	H	0.094016	0.579296	0.278964
H162	H	0.056913	0.671926	0.281366
C163	C	0.089168	0.649168	0.152273
C164	C	0.080907	0.605912	0.193303
H165	H	0.076930	0.643867	0.120043
H166	H	0.143523	0.635979	0.126827
H167	H	0.052642	0.697009	0.182124
H168	H	0.117440	0.558072	0.163454
H169	H	0.026557	0.619093	0.218744
H170	H	0.499476	0.340364	-0.348402
O171	O	0.694389	0.145549	-0.548666
C172	C	0.694751	0.084718	-0.552539
H173	H	0.691409	0.067222	-0.505694
H174	H	0.639918	0.097154	-0.551316
C175	C	0.777836	0.046596	-0.679240
C176	C	0.773739	0.025104	-0.621707
H177	H	0.826557	0.009824	-0.721907
H178	H	0.777590	0.087580	-0.676631
H179	H	0.732137	0.056959	-0.678211
H180	H	0.819431	0.014750	-0.622732
H181	H	0.773994	-0.015884	-0.624318
O182	O	0.621418	0.594873	0.207742
C183	C	0.702090	0.557089	0.188184
H184	H	0.708787	0.523681	0.223406
H185	H	0.745933	0.521277	0.130769
C186	C	0.713713	0.650355	0.153539
C187	C	0.721936	0.609327	0.196804
H188	H	0.725957	0.682576	0.158853
H189	H	0.659364	0.675810	0.166713
H190	H	0.750250	0.620504	0.105697
H191	H	0.685393	0.639177	0.244646
H192	H	0.776280	0.583878	0.183638
H193	H	0.376383	0.400244	0.213149
H194	H	0.426432	0.589501	0.402419
O195	O	0.181377	0.594961	0.413479
C196	C	0.100725	0.614468	0.456356
H197	H	0.077274	0.618249	0.422525
H198	H	0.099364	0.573073	0.482387
C199	C	0.074948	0.681943	0.555282
C200	C	0.046142	0.686593	0.513731
H201	H	0.041279	0.726432	0.590676
H202	H	0.129286	0.668799	0.526396
H203	H	0.073812	0.647444	0.576968
H204	H	0.047288	0.721085	0.492039
H205	H	-0.008197	0.699745	0.542615
H206	H	0.499449	0.765730	-0.348401
H207	H	0.688731	0.765752	-0.537698
O208	O	0.621459	0.389195	0.207654
C209	C	0.702116	0.346301	0.188131
H210	H	0.725560	0.380130	0.184406
H211	H	0.703490	0.320213	0.229489
C212	C	0.727900	0.247442	0.120544
C213	C	0.756697	0.288990	0.115963
H214	H	0.761568	0.212088	0.076029
H215	H	0.673559	0.276339	0.133699
H216	H	0.729047	0.225708	0.155012
H217	H	0.755540	0.310730	0.081502
H218	H	0.811039	0.260096	0.102800
O219	O	0.694456	0.765523	-0.343114
C220	C	0.763610	0.765235	-0.388895
H221	H	0.787430	0.743586	-0.445916
H222	H	0.746288	0.821380	-0.377225
C223	C	0.801119	0.744910	-0.307606
C224	C	0.830379	0.718315	-0.377641
H225	H	0.842305	0.715970	-0.300662
H226	H	0.754528	0.745107	-0.276761
H227	H	0.786684	0.791697	-0.297889
H228	H	0.844804	0.671532	-0.387353
H229	H	0.876975	0.718109	-0.408487
H230	H	0.187155	0.828814	0.402411
H231	H	0.114067	0.151078	0.037019
H232	H	0.187129	0.828847	0.213132
H233	H	1.114094	0.340393	-0.348418
O234	O	0.694475	0.145625	-0.343075
C235	C	0.775136	0.126090	-0.380819
H236	H	0.798612	0.122341	-0.438102
H237	H	0.776508	0.167453	-0.356113
C238	C	0.800849	0.058548	-0.307686
C239	C	0.829684	0.053937	-0.378044
H240	H	0.834497	0.014042	-0.305973
H241	H	0.746505	0.071711	-0.282256
H242	H	0.801993	0.093020	-0.287106
H243	H	0.828530	0.019472	-0.398620
H244	H	0.884030	0.040767	-0.403478
O245	O	0.415684	0.594985	-0.026472
C246	C	0.433899	0.614527	-0.087595
H247	H	0.487429	0.618279	-0.107310
H248	H	0.450564	0.573167	-0.130338
C249	C	0.293230	0.682066	-0.045780
C250	C	0.358972	0.686681	-0.069990
H251	H	0.247011	0.726572	-0.034923
H252	H	0.280958	0.668898	-0.004602
H253	H	0.307128	0.647596	-0.081403
H254	H	0.345077	0.721143	-0.034365
H255	H	0.371240	0.699856	-0.111163
H256	H	1.303422	0.151102	-0.537709
H257	H	0.303350	0.151080	0.037024
H258	H	1.114120	0.151091	-0.348433
H259	H	0.615758	0.589527	-0.026236
O260	O	0.621332	0.389272	-0.026280
C261	C	0.621654	0.385415	0.034209
H262	H	0.618342	0.432246	0.055029
H263	H	0.566788	0.386676	0.076608
C264	C	0.704664	0.258717	-0.010687
C265	C	0.700603	0.316233	0.014881
H266	H	0.753360	0.216042	-0.022608
H267	H	0.704444	0.261316	-0.051438
H268	H	0.658937	0.259778	0.024650
H269	H	0.746322	0.315177	-0.020459
H270	H	0.700832	0.313633	0.055626
