data_functionalizedCrystal
_audit_creation_method	'MofGen! by Chris Wilmer'
_symmetry_space_group_name_H-M	'P1'
_symmetry_Int_Tables_number	1
_symmetry_cell_setting	triclinic
loop_
_symmetry_equiv_pos_as_xyz
  x,y,z
_cell_length_a	16.974800
_cell_length_b	27.731996
_cell_length_c	15.455313
_cell_angle_alpha	92.636264
_cell_angle_beta	90.973911
_cell_angle_gamma	83.006863
loop_
_atom_site_label
_atom_site_type_symbol
_atom_site_fract_x
_atom_site_fract_y
_atom_site_fract_z
O1	O	1.048306	0.061617	0.001473
O2	O	0.818781	0.068999	-0.014648
O3	O	0.940693	-0.005047	-0.006066
O4	O	0.926395	0.135664	-0.007108
O5	O	0.933721	-0.000831	0.137705
O6	O	0.811810	0.073216	0.129124
O7	O	1.041335	0.065834	0.145245
Cu8	Cu	0.925936	0.069910	0.150312
Cu9	Cu	0.934180	0.064923	-0.019715
O10	O	0.919423	0.139880	0.136663
C11	C	0.785941	0.070749	0.055176
C12	C	0.698472	0.069677	0.049034
C13	C	0.653584	0.071470	0.124520
C14	C	0.571400	0.070455	0.118751
C15	C	0.534105	0.067649	0.037495
C16	C	0.579000	0.065854	-0.037997
C17	C	0.661183	0.066866	-0.032227
C18	C	0.288722	0.064373	0.011834
C19	C	0.206532	0.063363	0.006070
C20	C	0.198939	0.067962	0.162818
C21	C	0.281123	0.068977	0.168581
C22	C	0.326011	0.067179	0.093089
N23	N	0.450100	0.066613	0.031596
N24	N	0.410016	0.068212	0.098989
C25	C	0.936913	-0.020948	0.065802
C26	C	0.936028	-0.074609	0.065748
C27	C	0.934263	-0.409658	-0.013055
C28	C	0.930904	-0.611337	-0.013306
O29	O	0.933668	-0.639365	-0.079990
N30	N	0.926687	-0.634258	0.065034
C31	C	0.923304	-0.606756	0.143442
O32	O	0.919632	-0.630879	0.210068
C33	C	0.926657	-0.405078	0.143691
C34	C	0.930883	-0.382160	0.065347
C35	C	0.938488	-0.386740	-0.091393
C36	C	0.939332	-0.336324	-0.091329
C37	C	0.935951	-0.308826	-0.012927
C38	C	0.931727	-0.331744	0.065411
C39	C	0.923269	-0.377576	0.222098
C40	C	0.924106	-0.327153	0.222153
C41	C	0.928331	-0.304236	0.143809
C42	C	0.929191	-0.253829	0.143877
N43	N	0.933408	-0.230908	0.065537
C44	C	0.936788	-0.258406	-0.012865
C45	C	0.921545	-0.712640	0.143305
C46	C	0.920708	-0.763059	0.143243
C47	C	0.928307	-0.767637	-0.013505
C48	C	0.929149	-0.717217	-0.013442
C49	C	0.925762	-0.689719	0.064965
C50	C	0.938561	-0.152528	-0.012725
C51	C	0.939408	-0.102108	-0.012654
C52	C	0.931805	-0.097534	0.144093
C53	C	0.930962	-0.147951	0.144023
C54	C	0.934338	-0.175447	0.065607
O55	O	0.926420	-0.225770	0.210525
O56	O	0.940443	-0.234273	-0.079482
C57	C	0.933419	-0.460075	-0.013119
C58	C	0.929195	-0.482993	0.065219
C59	C	0.925815	-0.455494	0.143621
C60	C	0.928358	-0.533412	0.065157
C61	C	0.931738	-0.560911	-0.013245
C62	C	0.935955	-0.537989	-0.091584
C63	C	0.936799	-0.487573	-0.091520
C64	C	0.921597	-0.478415	0.221961
C65	C	0.920754	-0.528832	0.221891
C66	C	0.924135	-0.556330	0.143489
C67	C	1.074175	0.064084	0.075419
C68	C	1.161644	0.065156	0.081556
C69	C	0.923203	0.155781	0.064793
C70	C	0.924088	0.209442	0.064841
N71	N	0.920143	0.073417	0.269899
N72	N	0.939979	0.061412	-0.139302
C73	C	0.971953	0.041971	0.318940
C74	C	0.967579	0.044628	0.409440
C75	C	0.911399	0.078734	0.450898
C76	C	0.859583	0.110181	0.401850
C77	C	0.863954	0.107521	0.311352
C78	C	0.892534	0.090200	0.721152
C79	C	0.888169	0.092858	0.811657
C80	C	0.996165	0.027304	0.819241
C81	C	1.000533	0.024650	0.728740
C82	C	0.948715	0.056095	0.679700
N83	N	0.906929	0.081451	0.543404
N84	N	0.953182	0.053375	0.587196
H85	H	0.697730	0.065407	-0.093696
H86	H	0.548628	0.063566	-0.104157
H87	H	0.821764	0.133127	0.271423
H88	H	0.842418	0.120633	0.845407
H89	H	0.683943	0.073759	0.190687
H90	H	0.176169	0.061079	-0.060102
H91	H	0.931060	-0.790035	-0.077343
H92	H	0.534858	0.071907	0.180219
H93	H	0.917279	-0.781716	0.207040
H94	H	0.921336	-0.304766	0.286002
H95	H	0.940240	-0.468918	-0.155317
H96	H	0.311483	0.071259	0.234748
H97	H	0.918790	-0.690256	0.207157
H98	H	0.162382	0.069425	0.224279
H99	H	0.919829	-0.396227	0.285894
H100	H	1.046280	-0.003121	0.694988
H101	H	1.038352	0.001702	0.859177
H102	H	0.927529	-0.166612	0.207818
H103	H	0.942851	-0.083451	-0.076454
H104	H	0.325260	0.062908	-0.049637
H105	H	0.941306	-0.174909	-0.076579
H106	H	0.942769	-0.317669	-0.155125
H107	H	0.941237	-0.409124	-0.155241
H108	H	0.813836	0.137949	0.435610
H109	H	0.932589	-0.698561	-0.077237
H110	H	0.929057	-0.075136	0.207927
H111	H	0.938711	-0.560388	-0.155422
H112	H	0.918846	-0.456031	0.285807
H113	H	0.917319	-0.547487	0.285693
H114	H	1.017704	0.014201	0.285192
H115	H	0.850343	0.115805	0.681230
H116	H	1.009766	0.019022	0.449370
