data_functionalizedCrystal
_audit_creation_method	'MofGen! by Chris Wilmer'
_symmetry_space_group_name_H-M	'P1'
_symmetry_Int_Tables_number	1
_symmetry_cell_setting	triclinic
loop_
_symmetry_equiv_pos_as_xyz
  x,y,z
_cell_length_a	12.811445
_cell_length_b	27.731996
_cell_length_c	11.892095
_cell_angle_alpha	93.849943
_cell_angle_beta	80.666316
_cell_angle_gamma	83.336162
loop_
_atom_site_label
_atom_site_type_symbol
_atom_site_fract_x
_atom_site_fract_y
_atom_site_fract_z
O1	O	1.408743	0.057317	-0.238423
O2	O	1.100770	0.065426	-0.206858
O3	O	1.264348	-0.009007	-0.223599
O4	O	1.245164	0.131749	-0.221681
O5	O	1.250710	-0.002810	-0.034195
O6	O	1.087131	0.071622	-0.017454
O7	O	1.395104	0.063513	-0.049019
Zn8	Zn	1.238952	0.068552	-0.003165
Zn9	Zn	1.256922	0.060387	-0.252712
O10	O	1.231526	0.137946	-0.032278
C11	C	1.054563	0.068259	-0.108119
C12	C	0.937199	0.067463	-0.096089
C13	C	0.731526	0.059222	-0.279991
C14	C	0.621253	0.058474	-0.268693
C15	C	0.606377	0.065225	-0.062194
C16	C	0.716650	0.065972	-0.073493
C17	C	0.779222	0.062970	-0.182395
C18	C	0.889498	0.063714	-0.193692
C19	C	0.874618	0.070468	0.012805
C20	C	0.764345	0.069720	0.024104
C21	C	1.257134	-0.023917	-0.128853
C22	C	1.255946	-0.077575	-0.128719
C23	C	1.255916	-0.413686	-0.231253
C24	C	1.251409	-0.615354	-0.230811
O25	O	1.257103	-0.644299	-0.318552
N26	N	1.243414	-0.637195	-0.127511
C27	C	1.236539	-0.608615	-0.024313
O28	O	1.229625	-0.631818	0.063561
C29	C	1.241039	-0.406947	-0.024756
C30	C	1.249044	-0.385110	-0.128064
C31	C	1.263919	-0.391849	-0.334553
C32	C	1.265052	-0.341435	-0.334663
C33	C	1.258180	-0.312859	-0.231473
C34	C	1.250177	-0.334696	-0.128174
C35	C	1.234156	-0.378367	0.078441
C36	C	1.235279	-0.327947	0.078322
C37	C	1.243284	-0.306110	-0.024986
C38	C	1.244438	-0.255706	-0.025095
N39	N	1.252432	-0.233866	-0.128395
C40	C	1.259303	-0.262442	-0.231584
C41	C	1.234180	-0.714494	-0.024089
C42	C	1.233057	-0.764910	-0.023978
C43	C	1.247924	-0.771646	-0.230476
C44	C	1.249055	-0.721229	-0.230586
C45	C	1.242174	-0.692653	-0.127389
C46	C	1.261682	-0.156569	-0.231808
C47	C	1.262818	-0.106151	-0.231909
C48	C	1.247945	-0.099419	-0.025411
C49	C	1.246814	-0.149833	-0.025309
C50	C	1.253680	-0.178407	-0.128517
O51	O	1.238735	-0.226731	0.062602
O52	O	1.266193	-0.239228	-0.319443
C53	C	1.254783	-0.464100	-0.231143
C54	C	1.246779	-0.485937	-0.127844
C55	C	1.239908	-0.457361	-0.024654
C56	C	1.245657	-0.536354	-0.127733
C57	C	1.252528	-0.564930	-0.230922
C58	C	1.260522	-0.543090	-0.334223
C59	C	1.261655	-0.492676	-0.334333
C60	C	1.231914	-0.479202	0.078646
C61	C	1.230783	-0.529616	0.078747
C62	C	1.237655	-0.558192	-0.024442
C63	C	1.441311	0.060680	-0.147761
C64	C	1.558675	0.061475	-0.159798
C65	C	1.238740	0.152855	-0.127027
C66	C	1.239928	0.206513	-0.127167
N67	N	1.226696	0.074123	0.167144
N68	N	1.269186	0.054812	-0.423021
C69	C	1.354470	0.016015	0.390715
C70	C	1.345910	0.019913	0.509932
C71	C	1.201014	0.085814	0.524800
C72	C	1.209573	0.081916	0.405582
C73	C	1.286305	0.047016	0.338543
C74	C	1.294868	0.043121	0.219323
C75	C	1.149968	0.109019	0.234192
C76	C	1.141409	0.112917	0.353410
H77	H	0.713385	0.072166	0.112769
C78	C	1.269252	-0.187995	-0.345343
N79	N	1.274966	-0.211664	-0.430858
H80	H	1.416954	-0.012399	0.336130
C81	C	0.800358	0.055917	-0.399783
N82	N	0.852200	0.053429	-0.490012
H83	H	1.078933	0.141331	0.408007
H84	H	1.357349	0.014705	0.164740
H85	H	1.271567	-0.323660	-0.418787
H86	H	1.138535	0.114226	0.579399
C87	C	1.074981	0.143123	0.176795
N88	N	1.018505	0.168809	0.133561
H89	H	1.229660	-0.304682	0.162361
H90	H	1.401416	-0.005331	0.552407
C91	C	1.270454	-0.468662	-0.447980
N92	N	1.277079	-0.450577	-0.533585
H93	H	1.269339	-0.088374	-0.316039
C94	C	0.568794	0.054348	-0.376057
N95	N	0.529282	0.051240	-0.456929
C96	C	0.537529	0.068532	0.057588
N97	N	0.485671	0.071022	0.147810
C98	C	0.958324	0.060412	-0.313486
N99	N	1.010161	0.057927	-0.403718
C100	C	1.221974	-0.553630	0.192403
N101	N	1.215327	-0.571716	0.278007
C102	C	0.927094	0.074581	0.120168
N103	N	0.966622	0.077675	0.201032
C104	C	1.257852	-0.697213	-0.344231
N105	N	1.264474	-0.679126	-0.429833
C106	C	1.226617	-0.683066	0.089444
N107	N	1.220926	-0.659397	0.174957
H108	H	1.269511	-0.415110	-0.418586
H109	H	1.240305	-0.167614	0.058811
H110	H	1.253520	-0.794922	-0.314497
H111	H	1.226554	-0.782687	0.060144
H112	H	1.266122	-0.566366	-0.418244
H113	H	1.227639	-0.396138	0.162566
H114	H	1.242355	-0.076144	0.058603
H115	H	1.226320	-0.455940	0.162677
