data_functionalizedCrystal
_audit_creation_method	'MofGen! by Chris Wilmer'
_symmetry_space_group_name_H-M	'P1'
_symmetry_Int_Tables_number	1
_symmetry_cell_setting	triclinic
loop_
_symmetry_equiv_pos_as_xyz
  x,y,z
_cell_length_a	14.908783
_cell_length_b	17.637651
_cell_length_c	14.909241
_cell_angle_alpha	76.202620
_cell_angle_beta	83.585148
_cell_angle_gamma	103.762219
loop_
_atom_site_label
_atom_site_type_symbol
_atom_site_fract_x
_atom_site_fract_y
_atom_site_fract_z
Zn1	Zn	1.359846	-0.218852	-0.538139
Zn2	Zn	1.315788	-0.362745	-0.351495
Zn3	Zn	1.195666	-0.235479	-0.373964
Zn4	Zn	1.173236	-0.362680	-0.494086
O5	O	1.261134	-0.294939	-0.439421
O6	O	1.482370	-0.231008	-0.522414
O7	O	1.290803	-0.352849	-0.226093
O8	O	1.245271	-0.119820	-0.423583
O9	O	1.450001	-0.336726	-0.385287
O10	O	1.365893	-0.107604	-0.544201
O11	O	1.202550	-0.259347	-0.242601
O12	O	1.064323	-0.259285	-0.380866
O13	O	1.207041	-0.336615	-0.628312
O14	O	1.047843	-0.352738	-0.469118
O15	O	1.344143	-0.230945	-0.660678
O16	O	1.269053	-0.476190	-0.342570
O17	O	1.164320	-0.476142	-0.447331
C18	C	1.022798	-0.307809	-0.422650
C19	C	0.920834	-0.313334	-0.415492
C20	C	0.762914	-0.213763	-0.544977
C21	C	0.667110	-0.218950	-0.538256
C22	C	0.633422	-0.328892	-0.395325
C23	C	0.729226	-0.323704	-0.402046
C24	C	0.793969	-0.266138	-0.476876
C25	C	0.889773	-0.260955	-0.483600
C26	C	0.856084	-0.370893	-0.340667
C27	C	0.760281	-0.376080	-0.333945
C28	C	1.209498	-0.505581	-0.387753
C29	C	1.187494	-0.595688	-0.365686
C30	C	1.428913	-0.859941	-0.607393
C31	C	1.408207	-0.944613	-0.586640
C32	C	1.282673	-0.957443	-0.460932
C33	C	1.303372	-0.872770	-0.481672
C34	C	1.376492	-0.824025	-0.554904
C35	C	1.250951	-0.836855	-0.429183
C36	C	1.271646	-0.752190	-0.449924
C37	C	1.344761	-0.703440	-0.523155
C38	C	1.397187	-0.739360	-0.575646
C39	C	1.177827	-0.885601	-0.355955
C40	C	1.125406	-0.849686	-0.303466
C41	C	1.146105	-0.765019	-0.324203
C42	C	1.219220	-0.716269	-0.397434
C43	C	1.093679	-0.729098	-0.271712
C44	C	1.114373	-0.644433	-0.292454
C45	C	1.239914	-0.631604	-0.418175
C46	C	1.500400	-0.282019	-0.456258
C47	C	1.602361	-0.276514	-0.463433
C48	C	1.278004	-0.281918	-0.678714
C49	C	1.285193	-0.276369	-0.780686
C50	C	1.312998	-0.083472	-0.491312
C51	C	1.335100	0.006643	-0.513425
C52	C	1.155937	-0.375995	-0.938598
C53	C	1.162688	-0.370785	-1.034409
C54	C	1.305450	-0.260742	-1.068121
C55	C	1.298699	-0.265952	-0.972310
C56	C	1.223939	-0.323580	-0.907551
C57	C	1.217185	-0.328787	-0.811739
C58	C	1.359950	-0.218748	-0.845452
C59	C	1.366701	-0.213537	-0.941263
C60	C	1.244396	-0.307848	-0.201077
C61	C	1.237441	-0.313159	-0.099174
H62	H	0.641831	-0.176298	-0.593709
H63	H	1.223137	-0.997142	-0.401308
H64	H	0.580694	-0.375750	-0.334395
H65	H	1.427570	-0.166620	-0.994002
H66	H	1.299463	-0.591913	-0.477802
N67	N	1.136552	-0.390945	-0.741899
H68	H	1.161817	-0.428663	-0.695550
H69	H	1.099342	-0.362400	-0.707308
H70	H	0.707555	-0.422946	-0.273019
N71	N	0.832741	-0.151689	-0.625695
H72	H	0.867393	-0.180244	-0.662837
H73	H	0.798456	-0.119323	-0.667750
H74	H	1.366321	-0.213830	-1.120862
H75	H	0.881377	-0.413547	-0.285219
N76	N	1.089346	-0.427311	-1.067908
H77	H	1.088212	-0.485376	-1.038024
H78	H	1.025755	-0.419099	-1.049711
N79	N	1.075309	-0.438149	-0.868748
H80	H	1.081351	-0.433496	-0.803341
H81	H	1.014068	-0.428157	-0.883979
H82	H	0.942487	-0.214083	-0.544531
N83	N	1.367096	-0.612120	-0.545540
H84	H	1.310320	-0.594239	-0.562912
H85	H	1.384585	-0.594304	-0.488780
N86	N	1.433293	-0.162200	-0.811970
H87	H	1.417671	-0.174240	-0.741448
H88	H	1.496900	-0.170360	-0.830229
N89	N	1.476063	-0.686776	-0.654622
H90	H	1.506139	-0.722374	-0.684726
H91	H	1.450265	-0.651368	-0.703022
H92	H	1.034139	-0.768799	-0.212092
N93	N	1.507789	-0.807357	-0.686370
H94	H	1.537865	-0.842954	-0.716474
H95	H	1.481991	-0.771949	-0.734770
H96	H	1.071686	-0.615191	-0.249712
N97	N	1.464756	-0.983351	-0.643251
H98	H	1.514218	-0.939622	-0.692786
H99	H	1.496025	-1.018195	-0.600323
N100	N	1.155490	-0.976920	-0.333576
H101	H	1.138033	-0.994796	-0.390314
H102	H	1.212290	-0.994739	-0.316175
H103	H	1.065870	-0.889385	-0.243842
