data_functionalizedCrystal
_audit_creation_method	'MofGen! by Chris Wilmer'
_symmetry_space_group_name_H-M	'P1'
_symmetry_Int_Tables_number	1
_symmetry_cell_setting	triclinic
loop_
_symmetry_equiv_pos_as_xyz
  x,y,z
_cell_length_a	14.971486
_cell_length_b	12.837942
_cell_length_c	14.048226
_cell_angle_alpha	89.994377
_cell_angle_beta	89.998499
_cell_angle_gamma	89.221535
loop_
_atom_site_label
_atom_site_type_symbol
_atom_site_fract_x
_atom_site_fract_y
_atom_site_fract_z
O1	O	1.198338	0.135106	-0.079050
O2	O	1.698338	0.635106	0.420950
O3	O	0.939302	0.151285	-0.079075
O4	O	1.439302	0.651285	0.420925
O5	O	1.063076	-0.007715	-0.079057
O6	O	1.563076	0.492285	0.420943
O7	O	1.074564	0.294105	-0.079068
O8	O	1.574564	0.794105	0.420932
O9	O	1.063059	-0.007724	0.079264
O10	O	1.563059	0.492276	0.579264
O11	O	0.939284	0.151275	0.079246
O12	O	1.439284	0.651275	0.579246
O13	O	1.198320	0.135096	0.079272
O14	O	1.698320	0.635096	0.579272
Zn15	Zn	1.068800	0.143184	0.104396
Zn16	Zn	1.568800	0.643184	0.604396
Zn17	Zn	1.068822	0.143197	-0.104199
Zn18	Zn	1.568822	0.643197	0.395801
O19	O	1.074546	0.294096	0.079254
O20	O	1.574546	0.794096	0.579254
C21	C	0.905907	0.150556	0.000082
C22	C	1.405907	0.650556	0.500082
C23	C	0.806427	0.148388	0.000072
C24	C	1.306427	0.648388	0.500072
C25	C	1.059187	-0.046345	0.000103
C26	C	1.559187	0.453655	0.500103
C27	C	1.047612	-0.161436	0.000100
C28	C	1.547612	0.338564	0.500100
C29	C	0.757077	0.241796	0.000070
C30	C	1.257077	0.741796	0.500070
C31	C	0.663606	0.239752	0.000085
C32	C	1.163606	0.739752	0.500085
C33	C	0.619486	0.144300	0.000094
C34	C	1.119486	0.644300	0.500094
C35	C	0.668842	0.050885	0.000099
C36	C	1.168842	0.550885	0.500099
C37	C	0.762313	0.052930	0.000091
C38	C	1.262313	0.552930	0.500091
C39	C	0.474021	0.046630	0.000112
C40	C	0.974021	0.546630	0.500112
C41	C	0.380545	0.044585	0.000118
C42	C	0.880545	0.544585	0.500118
C43	C	0.375314	0.233453	0.000105
C44	C	0.875314	0.733453	0.500105
C45	C	0.468784	0.235498	0.000098
C46	C	0.968784	0.735498	0.500098
C47	C	0.518135	0.142082	0.000101
C48	C	1.018135	0.642082	0.500101
C49	C	1.186755	-0.402222	0.000094
C50	C	1.686755	0.097778	0.500094
C51	C	1.175884	-0.510362	0.000091
C52	C	1.675884	-0.010362	0.500091
C53	C	1.015001	-0.485856	0.000085
C54	C	1.515001	0.014144	0.500085
C55	C	1.025872	-0.377717	0.000088
C56	C	1.525872	0.122283	0.500088
C57	C	1.111751	-0.335904	0.000093
C58	C	1.611751	0.164096	0.500093
C59	C	1.122621	-0.227763	0.000103
C60	C	1.622621	0.272237	0.500103
C61	C	0.961739	-0.203260	0.000090
C62	C	1.461739	0.296740	0.500090
C63	C	0.950868	-0.311399	0.000087
C64	C	1.450868	0.188601	0.500087
C65	C	1.231715	0.135824	0.000112
C66	C	1.731715	0.635824	0.500112
C67	C	1.331195	0.137993	0.000116
C68	C	1.831195	0.637993	0.500116
C69	C	1.078436	0.332726	0.000092
C70	C	1.578436	0.832726	0.500092
C71	C	1.090010	0.447817	0.000088
C72	C	1.590010	0.947817	0.500088
N73	N	1.068791	0.143175	0.246756
N74	N	1.568791	0.643175	0.746756
N75	N	1.068838	0.143197	-0.246560
N76	N	1.568838	0.643197	0.253440
C77	C	1.123619	0.072799	0.296583
C78	C	1.623619	0.572799	0.796583
C79	C	1.123625	0.072799	0.396240
C80	C	1.623625	0.572799	0.896240
C81	C	1.068807	0.143180	0.446070
C82	C	1.568807	0.643180	0.946070
C83	C	1.013972	0.213559	0.396237
C84	C	1.513972	0.713559	0.896237
C85	C	1.013962	0.213554	0.296581
C86	C	1.513962	0.713554	0.796581
C87	C	1.013998	0.213567	0.603951
C88	C	1.513998	0.713567	1.103951
C89	C	1.014009	0.213573	0.703614
C90	C	1.514009	0.713573	1.203614
C91	C	1.123662	0.072811	0.703610
C92	C	1.623662	0.572811	1.203610
C93	C	1.123652	0.072806	0.603954
C94	C	1.623652	0.572806	1.103954
C95	C	1.068818	0.143187	0.554128
C96	C	1.568818	0.643187	1.054128
H97	H	0.623429	0.315815	0.000082
H98	H	1.123429	0.815815	0.500082
O99	O	1.215246	-0.182666	0.000107
O100	O	1.715246	0.317334	0.500107
H101	H	1.210208	-0.096328	0.000117
H102	H	1.710208	0.403672	0.500117
O103	O	1.182782	-0.003095	0.449973
O104	O	1.682782	0.496905	0.949973
H105	H	1.164517	-0.083942	0.430851
H106	H	1.664517	0.416058	0.930851
O107	O	1.279375	-0.357112	0.000099
O108	O	1.779375	0.142888	0.500099
H109	H	1.329705	-0.421396	0.000094
H110	H	1.829705	0.078604	0.500094
H111	H	0.504704	0.313223	0.000081
H112	H	1.004704	0.813223	0.500081
O113	O	0.815547	-0.047816	0.000090
O114	O	1.315547	0.452184	0.500090
H115	H	0.769167	-0.114535	0.000090
H116	H	1.269167	0.385465	0.500090
H117	H	0.969343	0.270875	0.563386
H118	H	1.469343	0.770875	1.063386
H119	H	0.969369	0.270884	0.744180
H120	H	1.469369	0.770884	1.244180
H121	H	0.335129	0.309515	0.000107
H122	H	0.835129	0.809515	0.500107
O123	O	0.804658	0.344753	0.000071
O124	O	1.304658	0.844753	0.500071
H125	H	0.785453	0.389655	-0.064451
H126	H	1.285453	0.889655	0.435549
H127	H	0.344625	-0.033141	0.000127
H128	H	0.844625	0.466859	0.500127
O129	O	1.256778	-0.581895	0.000103
O130	O	1.756778	-0.081895	0.500103
H131	H	1.318318	-0.534648	0.000116
H132	H	1.818318	-0.034648	0.500116
H133	H	0.900666	-0.149251	0.000097
H134	H	1.400666	0.350749	0.500097
H135	H	0.514200	-0.029439	0.000116
H136	H	1.014200	0.470561	0.500116
O137	O	0.621262	-0.052071	0.000117
O138	O	1.121262	0.447929	0.500117
H139	H	0.578805	-0.057527	-0.064412
H140	H	1.078805	0.442473	0.435588
O141	O	0.922379	-0.530962	0.000086
O142	O	1.422379	-0.030962	0.500086
H143	H	0.927425	-0.617299	0.000090
H144	H	1.427425	-0.117299	0.500090
H145	H	0.969313	0.270860	0.256013
H146	H	1.469313	0.770860	0.756013
O147	O	0.954849	0.289474	0.449982
O148	O	1.454849	0.789474	0.949982
H149	H	0.973131	0.370312	0.430831
H150	H	1.473131	0.870312	0.930831
O151	O	0.858244	-0.356498	0.000094
O152	O	1.358244	0.143502	0.500094
H153	H	0.863283	-0.442836	0.000101
H154	H	1.363283	0.057164	0.500101
O155	O	1.182742	-0.003116	0.242838
O156	O	1.682742	0.496884	0.742838
H157	H	1.220861	-0.052060	0.294232
H158	H	1.720861	0.447940	0.794232
H159	H	1.168294	0.015502	0.563383
H160	H	1.668294	0.515502	1.063383
H161	H	1.168309	0.015505	0.744185
H162	H	1.668309	0.515505	1.244185
