data_functionalizedCrystal
_audit_creation_method	'MofGen! by Chris Wilmer'
_symmetry_space_group_name_H-M	'P1'
_symmetry_Int_Tables_number	1
_symmetry_cell_setting	triclinic
loop_
_symmetry_equiv_pos_as_xyz
  x,y,z
_cell_length_a	19.902436
_cell_length_b	18.426585
_cell_length_c	19.902436
_cell_angle_alpha	120.004689
_cell_angle_beta	90.002400
_cell_angle_gamma	59.995972
loop_
_atom_site_label
_atom_site_type_symbol
_atom_site_fract_x
_atom_site_fract_y
_atom_site_fract_z
Zr1	Zr	0.647316	0.794281	0.088101
O2	O	0.540023	0.945709	0.195398
O3	O	0.680208	0.642872	0.055212
O4	O	0.680207	0.794292	0.195392
O5	O	0.540025	0.794273	-0.055361
O6	O	0.790786	0.794278	0.195383
O7	O	0.540024	0.794289	0.055219
O8	O	0.790788	0.523415	-0.055372
O9	O	0.540023	1.065136	0.195394
O10	O	0.776759	0.705130	0.041175
O11	O	0.694236	0.705129	-0.041343
O12	O	0.694234	0.883406	0.123700
O13	O	0.611711	0.883405	0.041182
Zr14	Zr	0.823678	0.794232	-0.088275
Zr15	Zr	0.823677	0.794258	0.088087
Zr16	Zr	0.647317	0.794255	-0.088261
Zr17	Zr	0.647316	0.984752	0.088094
Zr18	Zr	0.823678	0.603761	-0.088269
O19	O	0.790786	0.945641	-0.055387
O20	O	0.790785	0.945677	0.195377
O21	O	0.540024	0.945672	-0.055366
O22	O	0.930971	0.642803	-0.195572
O23	O	0.930970	0.642840	0.055192
O24	O	0.680209	0.642835	-0.195552
O25	O	0.930969	0.794240	0.055187
O26	O	0.790787	0.794221	-0.195566
O27	O	0.680208	0.794235	-0.195557
O28	O	0.930970	0.794223	-0.055393
O29	O	0.680206	1.065118	0.195382
O30	O	0.790788	0.523395	-0.195557
O31	O	0.930971	0.523377	-0.195568
O32	O	0.930971	0.523397	-0.055384
O33	O	0.540023	1.065115	0.055209
O34	O	0.680206	1.065097	0.055198
O35	O	0.776760	0.705106	-0.123874
O36	O	0.859283	0.705108	-0.041356
O37	O	0.776758	0.883384	0.041169
O38	O	0.694235	0.883382	-0.041349
C39	C	0.735498	0.556006	-0.000079
C40	C	0.735499	0.475145	-0.000076
C41	C	0.514897	0.794284	-0.000069
C42	C	0.440027	0.794294	-0.000063
C43	C	0.735494	0.179036	-0.000100
C44	C	0.735493	0.261423	-0.000095
C45	C	0.735496	0.327089	-0.000088
C46	C	0.735496	0.409479	-0.000084
C47	C	0.168026	0.794243	-0.000095
C48	C	0.144458	0.906703	0.051714
C49	C	0.222295	0.906774	0.052001
C50	C	0.302969	0.794269	-0.000079
C51	C	0.300557	0.738429	0.037885
C52	C	0.222330	0.739148	0.038268
C53	C	0.223318	0.736819	-0.089892
C54	C	0.300239	0.738933	-0.089754
C55	C	0.379235	0.794278	-0.000071
C56	C	0.091760	0.794232	-0.000100
C57	C	0.956097	0.794228	-0.000105
C58	C	1.030967	0.794219	-0.000111
C59	C	0.735496	0.794289	0.220515
C60	C	0.735496	0.794300	0.295385
C61	C	0.735496	1.032507	-0.000095
C62	C	0.735496	1.113367	-0.000098
C63	C	0.735491	0.794288	0.432450
C64	C	0.683437	0.906741	0.513022
C65	C	0.683156	0.906790	0.590915
C66	C	0.735487	0.794278	0.567400
C67	C	0.697796	0.738116	0.513122
C68	C	0.697405	0.738855	0.435570
C69	C	0.825266	0.737183	0.434721
C70	C	0.825128	0.739280	0.513591
C71	C	0.735485	0.794267	0.643666
C72	C	0.735490	0.794297	0.356183
C73	C	0.735494	0.794237	0.779317
C74	C	0.735483	0.794267	0.704465
C75	C	0.956098	0.555977	-0.000097
C76	C	1.030968	0.475108	-0.000100
C77	C	0.735499	0.555973	-0.220681
C78	C	0.735500	0.475102	-0.295548
C79	C	0.956099	0.555945	-0.220699
C80	C	1.030969	0.475064	-0.295572
C81	C	0.514895	1.032568	0.220525
C82	C	0.440025	1.113448	0.295398
C83	C	0.514896	1.032535	-0.000077
C84	C	0.440026	1.113405	-0.000074
C85	C	0.735495	1.032540	0.220507
C86	C	0.735494	1.113411	0.295374
C87	C	1.023051	0.437142	0.042986
C88	C	1.093393	0.361167	0.042999
C89	C	1.171650	0.323154	-0.000079
C90	C	1.179566	0.361127	-0.043166
C91	C	1.109225	0.437106	-0.043174
C92	C	0.778577	0.437112	-0.373795
C93	C	0.778574	0.361136	-0.444148
C94	C	0.735499	0.323145	-0.436252
C95	C	0.692417	0.361143	-0.357997
C96	C	0.692415	0.437123	-0.287647
C97	C	1.109213	0.437083	-0.287660
C98	C	1.179568	0.361097	-0.358005
C99	C	1.171678	0.323090	-0.436262
C100	C	1.093426	0.361079	-0.444172
C101	C	1.023073	0.437068	-0.373828
C102	C	0.361781	1.151439	0.287486
C103	C	0.291426	1.227448	0.357831
C104	C	0.299316	1.265460	0.436087
C105	C	0.377568	1.227466	0.443998
C106	C	0.447921	1.151463	0.373653
C107	C	0.447943	1.151378	-0.043153
C108	C	0.377601	1.227374	-0.043147
C109	C	0.299344	1.265390	-0.000066
C110	C	0.291428	1.227414	0.043018
C111	C	0.361769	1.151424	0.043016
C112	C	0.778578	1.151377	0.287452
C113	C	0.778593	1.227354	0.357791
C114	C	0.735520	1.265368	0.436052
C115	C	0.692435	1.227394	0.443972
C116	C	0.692425	1.151414	0.373634
H117	H	0.221017	0.950809	0.026734
H118	H	0.856784	0.773414	0.431846
H119	H	0.243235	0.653976	-0.128677
H120	H	0.657338	1.120510	0.380095
Br121	Br	1.082631	0.309647	0.101478
H122	H	1.243278	0.330174	-0.351550
Br123	Br	0.758026	0.600183	0.480055
H124	H	0.813677	1.258264	0.351327
H125	H	0.242023	1.327345	0.493359
Br126	Br	1.285780	0.309523	-0.101628
H127	H	0.813654	0.468036	-0.380239
H128	H	0.242074	1.327266	-0.000072
Br129	Br	0.351050	1.099866	0.181290
H130	H	0.813653	1.120437	0.223735
Br131	Br	0.554107	1.099908	0.384406
Br132	Br	0.388262	1.279062	0.550209
Br133	Br	1.119985	0.488616	-0.101659
H134	H	0.959366	0.467983	-0.380281
Br135	Br	0.554141	1.099805	-0.101624
Br136	Br	0.633974	1.279005	0.550189
H137	H	1.228920	0.261286	-0.000066
Br138	Br	0.633950	0.488667	-0.181457
Br139	Br	0.351009	1.099894	0.101482
H140	H	0.708419	0.950828	0.630422
H141	H	0.959336	0.468092	0.078076
Br142	Br	0.588758	0.802354	0.575376
H143	H	0.813660	0.330208	-0.507859
H144	H	1.228971	0.261214	-0.493534
H145	H	0.105291	0.950837	0.026379
Br146	Br	0.633961	0.309573	-0.347296
H147	H	0.708562	0.951117	0.514841
H148	H	0.104546	0.950633	0.117555
Br149	Br	0.185238	1.278993	0.347076
Br150	Br	0.388363	1.278895	-0.101625
H151	H	0.853289	0.780233	0.551035
H152	H	1.087014	0.330122	-0.507898
H153	H	0.227701	1.258378	0.078093
H154	H	0.185786	0.778843	0.104347
Br155	Br	0.219334	0.980280	0.162405
Br156	Br	0.254571	0.601631	-0.020547
H157	H	0.357371	0.655708	0.001965
Br158	Br	1.119944	0.488653	-0.181464
H159	H	0.302108	0.777223	0.103335
H160	H	0.735535	1.327237	0.493319
H161	H	0.299862	0.779648	-0.118116
Br162	Br	0.395994	0.602111	-0.159506
Br163	Br	0.162792	0.796775	-0.142756
H164	H	0.735507	0.261278	-0.493543
H165	H	0.617606	0.950439	0.513679
Br166	Br	0.587315	0.804597	0.435722
Br167	Br	0.572776	0.979892	0.655827
Br168	Br	0.756564	0.601321	0.340456
Br169	Br	0.895174	0.602495	0.482678
H170	H	0.864226	0.654342	0.377933
