data_functionalizedCrystal
_audit_creation_method	'MofGen! by Chris Wilmer'
_symmetry_space_group_name_H-M	'P1'
_symmetry_Int_Tables_number	1
_symmetry_cell_setting	triclinic
loop_
_symmetry_equiv_pos_as_xyz
  x,y,z
_cell_length_a	12.594517
_cell_length_b	12.594516
_cell_length_c	13.897441
_cell_angle_alpha	90.026377
_cell_angle_beta	90.015180
_cell_angle_gamma	90.016010
loop_
_atom_site_label
_atom_site_type_symbol
_atom_site_fract_x
_atom_site_fract_y
_atom_site_fract_z
Zn1	Zn	1.627276	-0.423709	0.545267
Zn2	Zn	1.627164	-0.601720	0.383980
Zn3	Zn	1.449277	-0.423756	0.384001
Zn4	Zn	1.449262	-0.601646	0.545248
O5	O	1.538245	-0.512708	0.464624
O6	O	1.776207	-0.447334	0.523871
O7	O	1.603527	-0.578163	0.249001
O8	O	1.472942	-0.274804	0.405409
O9	O	1.776125	-0.578118	0.405374
O10	O	1.603717	-0.274770	0.523891
O11	O	1.472834	-0.447414	0.249016
O12	O	1.300329	-0.447342	0.405391
O13	O	1.472917	-0.577992	0.680232
O14	O	1.300318	-0.578037	0.523859
O15	O	1.603703	-0.447263	0.680246
O16	O	1.603512	-0.750656	0.405356
O17	O	1.472808	-0.750602	0.523839
C18	C	1.261704	-0.512687	0.464626
C19	C	1.143399	-0.512704	0.464650
C20	C	1.003407	-0.583918	0.528965
C21	C	1.074176	-0.609826	0.440932
C22	C	1.074201	-0.486844	0.552673
C23	C	1.003382	-0.538697	0.376541
C24	C	1.003401	-0.415669	0.488342
C25	C	1.074138	-0.441540	0.400248
C26	C	1.538175	-0.789249	0.464614
C27	C	1.538243	-0.907554	0.464643
C28	C	1.467146	-0.976817	0.529040
C29	C	1.441211	-1.047682	0.441026
C30	C	1.564275	-1.047488	0.552672
C31	C	1.512257	-0.976862	0.376581
C32	C	1.635365	-0.976661	0.488287
C33	C	1.609467	-1.047495	0.400212
C34	C	1.815866	-0.512729	0.464622
C35	C	1.934171	-0.512739	0.464621
C36	C	1.538320	-0.512614	0.716217
C37	C	1.538353	-0.512574	0.823431
C38	C	1.538344	-0.235087	0.464654
C39	C	1.538386	-0.116782	0.464667
C40	C	1.538231	-0.512725	0.214009
C41	C	1.538405	-0.512465	0.106796
C42	C	1.538381	-0.512502	1.019726
C43	C	1.538362	-0.512545	0.910494
H44	H	1.105263	-0.691901	0.420873
H45	H	1.406914	-0.945782	0.583420
H46	H	1.490202	-0.945967	0.302125
Br47	Br	0.951639	-0.684340	0.619526
Br48	Br	0.951541	-0.278910	0.521815
Br49	Br	1.304419	-1.099672	0.407695
Br50	Br	1.125566	-0.341175	0.309479
Br51	Br	1.126055	-0.450363	0.676763
Br52	Br	1.709786	-1.098895	0.309363
Br53	Br	1.600874	-1.099205	0.676733
Br54	Br	0.951760	-0.575336	0.252411
H55	H	1.717414	-0.945445	0.508308
