data_functionalizedCrystal
_audit_creation_method	'MofGen! by Chris Wilmer'
_symmetry_space_group_name_H-M	'P1'
_symmetry_Int_Tables_number	1
_symmetry_cell_setting	triclinic
loop_
_symmetry_equiv_pos_as_xyz
  x,y,z
_cell_length_a	29.839134
_cell_length_b	12.759393
_cell_length_c	12.759399
_cell_angle_alpha	90.031461
_cell_angle_beta	89.992138
_cell_angle_gamma	89.965658
loop_
_atom_site_label
_atom_site_type_symbol
_atom_site_fract_x
_atom_site_fract_y
_atom_site_fract_z
Zn1	Zn	0.686846	-0.594406	0.418413
Zn2	Zn	0.686800	-0.418725	0.594130
Zn3	Zn	0.611716	-0.418698	0.418444
Zn4	Zn	0.611711	-0.594319	0.594028
O5	O	0.649268	-0.506537	0.506254
O6	O	0.749707	-0.571148	0.441752
O7	O	0.676822	-0.271700	0.570880
O8	O	0.621704	-0.442032	0.271418
O9	O	0.749673	-0.442076	0.570851
O10	O	0.676901	-0.571123	0.271396
O11	O	0.621658	-0.271681	0.441804
O12	O	0.548848	-0.441948	0.441705
O13	O	0.621696	-0.741352	0.570677
O14	O	0.548845	-0.570976	0.570707
O15	O	0.676897	-0.741415	0.441653
O16	O	0.676818	-0.441992	0.741138
O17	O	0.621651	-0.571001	0.741063
C18	C	0.532546	-0.506450	0.506199
C19	C	0.482611	-0.506438	0.506201
C20	C	0.649301	-0.780571	0.506150
C21	C	0.649315	-0.897347	0.506106
C22	C	0.678070	-1.061975	0.438873
C23	C	0.678061	-0.952251	0.438914
C24	C	0.620579	-0.952173	0.573270
C25	C	0.620590	-1.061895	0.573233
C26	C	0.126013	-0.439489	0.438983
C27	C	0.313686	-0.439426	0.438954
O28	O	0.337942	-0.382406	0.381714
N29	N	0.337166	-0.506491	0.506218
C30	C	0.313725	-0.573582	0.573490
O31	O	0.338002	-0.630631	0.630694
C32	C	0.126053	-0.573650	0.573513
C33	C	0.102575	-0.506573	0.506252
C34	C	0.102536	-0.372419	0.371727
C35	C	0.055621	-0.372431	0.371739
C36	C	0.032183	-0.439515	0.439008
C37	C	0.055660	-0.506585	0.506264
C38	C	0.102612	-0.640745	0.640779
C39	C	0.055691	-0.640758	0.640777
C40	C	0.032214	-0.573681	0.573516
C41	C	-0.014694	-0.573681	0.573545
N42	N	-0.038173	-0.506616	0.506281
C43	C	-0.014735	-0.439533	0.439012
C44	C	0.412255	-0.573539	0.573474
C45	C	0.459173	-0.573521	0.573470
C46	C	0.459132	-0.439366	0.438932
C47	C	0.412213	-0.439380	0.438943
C48	C	0.388776	-0.506474	0.506210
C49	C	-0.113261	-0.439564	0.439043
C50	C	-0.160181	-0.439579	0.439064
C51	C	-0.160135	-0.573737	0.573597
C52	C	-0.113220	-0.573718	0.573581
C53	C	-0.089784	-0.506628	0.506295
O54	O	-0.038978	-0.630679	0.630746
O55	O	-0.039021	-0.382509	0.381800
C56	C	0.172929	-0.439477	0.438971
C57	C	0.196406	-0.506548	0.506228
C58	C	0.172968	-0.573631	0.573496
C59	C	0.243324	-0.506529	0.506223
C60	C	0.266762	-0.439446	0.438955
C61	C	0.243282	-0.372381	0.371691
C62	C	0.196367	-0.372394	0.371703
C63	C	0.196448	-0.640696	0.640761
C64	C	0.243363	-0.640677	0.640744
C65	C	0.266801	-0.573594	0.573475
C66	C	0.766447	-0.506625	0.506309
C67	C	0.816381	-0.506662	0.506333
C68	C	0.649241	-0.506513	0.779221
C69	C	0.649270	-0.506538	0.895998
C70	C	0.649262	-0.233570	0.506281
C71	C	0.649335	-0.116794	0.506029
C72	C	0.649308	-0.506584	0.232220
C73	C	0.649325	-0.506604	0.115444
C74	C	0.678028	-0.439440	0.950864
C75	C	0.678057	-0.439475	1.060588
C76	C	0.620566	-0.573710	1.060570
C77	C	0.620539	-0.573679	0.950848
H78	H	0.701475	-1.106670	0.384150
H79	H	0.393177	-0.628178	0.628255
H80	H	0.701476	-0.384838	1.105255
H81	H	0.701460	-0.907623	0.384229
H82	H	0.177369	-0.695326	0.695539
H83	H	0.597175	-0.907462	0.627984
Cl84	Cl	0.714148	-0.355037	0.881913
H85	H	0.597121	-0.628324	0.906173
H86	H	0.597173	-0.628372	1.105242
H87	H	0.177256	-0.317773	0.316931
H88	H	0.036611	-0.695399	0.695552
H89	H	0.262474	-0.695298	0.695526
H90	H	-0.179294	-0.384954	0.384291
Cl91	Cl	0.584466	-1.130815	0.657673
Cl92	Cl	-0.083806	-0.355218	0.354457
Cl93	Cl	0.131993	-0.288075	0.287147
Cl94	Cl	0.026113	-0.288113	0.287165
H95	H	0.478223	-0.384743	0.384160
Cl96	Cl	0.488682	-0.657835	0.658045
Cl97	Cl	0.382704	-0.355054	0.354381
Cl98	Cl	0.132115	-0.725078	0.725339
H99	H	-0.094103	-0.628330	0.628358
H100	H	0.262374	-0.317756	0.316922
Cl101	Cl	-0.189609	-0.658053	0.658172
