data_functionalizedCrystal
_audit_creation_method	'MofGen! by Chris Wilmer'
_symmetry_space_group_name_H-M	'P1'
_symmetry_Int_Tables_number	1
_symmetry_cell_setting	triclinic
loop_
_symmetry_equiv_pos_as_xyz
  x,y,z
_cell_length_a	12.811457
_cell_length_b	12.784905
_cell_length_c	7.540329
_cell_angle_alpha	89.997632
_cell_angle_beta	95.428989
_cell_angle_gamma	78.600470
loop_
_atom_site_label
_atom_site_type_symbol
_atom_site_fract_x
_atom_site_fract_y
_atom_site_fract_z
O1	O	1.379600	0.143095	0.074416
O2	O	1.072598	0.158658	0.025036
O3	O	1.248564	-0.003752	0.053344
O4	O	1.203633	0.305505	0.046107
O5	O	1.248555	-0.003754	0.348308
O6	O	1.072589	0.158656	0.319999
O7	O	1.379590	0.143093	0.369380
Cu8	Cu	1.226089	0.150874	0.371622
Cu9	Cu	1.226100	0.150877	0.022793
O10	O	1.203624	0.305503	0.341071
C11	C	1.033569	0.157785	0.166240
C12	C	0.917291	0.155175	0.147537
C13	C	0.698783	0.150247	0.433997
C14	C	0.589529	0.147794	0.416433
C15	C	0.589528	0.147808	0.094846
C16	C	0.698782	0.150261	0.112410
C17	C	0.753406	0.151482	0.281992
C18	C	0.862660	0.153943	0.299554
C19	C	0.862659	0.153949	-0.022031
C20	C	0.753405	0.151496	-0.039596
C21	C	1.251482	-0.043339	0.201294
C22	C	1.260177	-0.161295	0.202685
C23	C	1.083032	-0.358461	0.174209
C24	C	1.091197	-0.469290	0.175515
C25	C	1.284669	-0.493783	0.206616
C26	C	1.276505	-0.382954	0.205310
C27	C	1.175683	-0.315297	0.189103
C28	C	1.167519	-0.204466	0.187784
C29	C	1.360991	-0.228961	0.218898
C30	C	1.369155	-0.339790	0.220204
C31	C	1.418619	0.143966	0.228171
C32	C	1.534898	0.146576	0.246863
C33	C	1.200706	0.345090	0.193118
C34	C	1.192012	0.463045	0.191715
N35	N	1.226089	0.150872	0.616971
N36	N	1.226109	0.150870	-0.222554
H37	H	0.545039	0.146796	-0.043219
H38	H	0.708917	0.150496	-0.177664
H39	H	0.907142	0.154961	-0.145806
H40	H	0.545059	0.146794	0.540212
H41	H	1.085425	-0.149380	0.174584
H42	H	0.907131	0.154943	0.437636
O43	O	0.974297	-0.285477	0.156732
H44	H	0.911241	-0.334112	0.146601
O45	O	0.991269	-0.515852	0.159444
H46	H	0.919794	-0.450182	0.147945
H47	H	1.436434	-0.193806	0.230869
H48	H	0.743255	0.151256	0.572077
O49	O	1.393406	-0.566763	0.224128
H50	H	1.383512	-0.651079	0.222539
H51	H	1.451241	-0.394892	0.233406
