data_functionalizedCrystal
_audit_creation_method	'MofGen! by Chris Wilmer'
_symmetry_space_group_name_H-M	'P1'
_symmetry_Int_Tables_number	1
_symmetry_cell_setting	triclinic
loop_
_symmetry_equiv_pos_as_xyz
  x,y,z
_cell_length_a	19.288835
_cell_length_b	17.766277
_cell_length_c	19.288865
_cell_angle_alpha	89.989546
_cell_angle_beta	83.130103
_cell_angle_gamma	89.982126
loop_
_atom_site_label
_atom_site_type_symbol
_atom_site_fract_x
_atom_site_fract_y
_atom_site_fract_z
O1	O	-0.921367	0.062750	-0.086548
O2	O	-0.671367	0.312750	0.163452
O3	O	-0.421367	0.562750	0.413452
O4	O	-0.171367	0.812750	0.663452
O5	O	-0.719103	0.062721	-0.098259
O6	O	-0.469103	0.312721	0.151741
O7	O	-0.219103	0.562721	0.401741
O8	O	0.030897	0.812721	0.651741
O9	O	-0.826079	0.062721	0.008728
O10	O	-0.576079	0.312721	0.258728
O11	O	-0.326079	0.562721	0.508728
O12	O	-0.076079	0.812721	0.758728
O13	O	-0.814390	0.062750	-0.193534
O14	O	-0.564390	0.312750	0.056466
O15	O	-0.314390	0.562750	0.306466
O16	O	-0.064390	0.812750	0.556466
O17	O	-0.826060	-0.062467	0.008731
O18	O	-0.576060	0.187533	0.258731
O19	O	-0.326060	0.437533	0.508731
O20	O	-0.076060	0.687533	0.758731
O21	O	-0.719084	-0.062468	-0.098256
O22	O	-0.469084	0.187532	0.151744
O23	O	-0.219084	0.437532	0.401744
O24	O	0.030916	0.687532	0.651744
O25	O	-0.921347	-0.062438	-0.086545
O26	O	-0.671347	0.187562	0.163455
O27	O	-0.421347	0.437562	0.413455
O28	O	-0.171347	0.687562	0.663455
Cu29	Cu	-0.820214	-0.073884	-0.092400
Cu30	Cu	-0.570214	0.176116	0.157600
Cu31	Cu	-0.320214	0.426116	0.407600
Cu32	Cu	-0.070214	0.676116	0.657600
Cu33	Cu	-0.820237	0.074166	-0.092404
Cu34	Cu	-0.570237	0.324166	0.157596
Cu35	Cu	-0.320237	0.574166	0.407596
Cu36	Cu	-0.070237	0.824166	0.657596
O37	O	-0.814371	-0.062439	-0.193531
O38	O	-0.564371	0.187561	0.056469
O39	O	-0.314371	0.437561	0.306469
O40	O	-0.064371	0.687561	0.556469
C41	C	-0.693217	0.000122	-0.097884
C42	C	-0.443217	0.250122	0.152116
C43	C	-0.193217	0.500122	0.402116
C44	C	0.056783	0.750122	0.652116
C45	C	-0.616112	0.000110	-0.096763
C46	C	-0.366112	0.250110	0.153237
C47	C	-0.116112	0.500110	0.403237
C48	C	0.133888	0.750110	0.653237
N49	N	-0.820203	-0.178014	-0.092397
N50	N	-0.570203	0.071986	0.157603
N51	N	-0.320203	0.321986	0.407603
N52	N	-0.070203	0.571986	0.657603
C53	C	-0.579919	0.068352	-0.096226
C54	C	-0.329919	0.318352	0.153774
C55	C	-0.079919	0.568352	0.403774
C56	C	0.170081	0.818352	0.653774
C57	C	-0.507472	0.068359	-0.095166
C58	C	-0.257472	0.318359	0.154834
C59	C	-0.007472	0.568359	0.404834
C60	C	0.242528	0.818359	0.654834
C61	C	-0.471222	0.000121	-0.094628
C62	C	-0.221222	0.250121	0.155372
C63	C	0.028778	0.500121	0.405372
C64	C	0.278778	0.750121	0.655372
C65	C	-0.507424	-0.068129	-0.095168
C66	C	-0.257424	0.181871	0.154832
C67	C	-0.007424	0.431871	0.404832
C68	C	0.242576	0.681871	0.654832
C69	C	-0.579869	-0.068134	-0.096236
C70	C	-0.329869	0.181866	0.153764
C71	C	-0.079869	0.431866	0.403764
C72	C	0.170131	0.681866	0.653764
C73	C	-0.361886	-0.052156	-0.052251
C74	C	-0.111886	0.197844	0.197749
C75	C	0.138114	0.447844	0.447749
C76	C	0.388114	0.697844	0.697749
C77	C	-0.289444	-0.052148	-0.051179
C78	C	-0.039444	0.197852	0.198821
C79	C	0.210556	0.447852	0.448821
C80	C	0.460556	0.697852	0.698821
C81	C	-0.247778	0.000135	-0.091338
C82	C	0.002222	0.250135	0.158662
C83	C	0.252222	0.500135	0.408662
C84	C	0.502222	0.750135	0.658662
C85	C	-0.278566	0.052422	-0.132560
C86	C	-0.028566	0.302422	0.117440
C87	C	0.221434	0.552422	0.367440
C88	C	0.471434	0.802422	0.617440
C89	C	-0.351011	0.052417	-0.133628
C90	C	-0.101011	0.302417	0.116372
C91	C	0.148989	0.552417	0.366372
C92	C	0.398989	0.802417	0.616372
C93	C	-0.392668	0.000119	-0.093470
C94	C	-0.142668	0.250119	0.156530
C95	C	0.107332	0.500119	0.406530
C96	C	0.357332	0.750119	0.656530
C97	C	-0.133029	0.068389	-0.089652
C98	C	0.116971	0.318389	0.160348
C99	C	0.366971	0.568389	0.410348
C100	C	0.616971	0.818389	0.660348
C101	C	-0.060580	0.068393	-0.088595
C102	C	0.189420	0.318393	0.161405
C103	C	0.439420	0.568393	0.411405
C104	C	0.689420	0.818393	0.661405
C105	C	-0.060535	-0.068097	-0.088591
C106	C	0.189465	0.181903	0.161409
C107	C	0.439465	0.431903	0.411409
C108	C	0.689465	0.681903	0.661409
C109	C	-0.132982	-0.068099	-0.089655
C110	C	0.117018	0.181901	0.160345
C111	C	0.367018	0.431901	0.410345
C112	C	0.617018	0.681901	0.660345
C113	C	-0.169225	0.000146	-0.090181
C114	C	0.080775	0.250146	0.159819
C115	C	0.330775	0.500146	0.409819
C116	C	0.580775	0.750146	0.659819
C117	C	-0.862191	-0.217382	-0.134416
C118	C	-0.612191	0.032618	0.115584
C119	C	-0.362191	0.282618	0.365584
C120	C	-0.112191	0.532618	0.615584
C121	C	-0.862202	-0.296184	-0.134414
C122	C	-0.612202	-0.046184	0.115586
C123	C	-0.362202	0.203816	0.365586
C124	C	-0.112202	0.453816	0.615586
C125	C	-0.820212	-0.335615	-0.092401
C126	C	-0.570212	-0.085615	0.157599
C127	C	-0.320212	0.164385	0.407599
C128	C	-0.070212	0.414385	0.657599
C129	C	-0.778221	-0.296237	-0.050373
C130	C	-0.528221	-0.046237	0.199627
C131	C	-0.278221	0.203763	0.449627
C132	C	-0.028221	0.453763	0.699627
C133	C	-0.778217	-0.217437	-0.050371
C134	C	-0.528217	0.032563	0.199629
C135	C	-0.278217	0.282563	0.449629
C136	C	-0.028217	0.532563	0.699629
C137	C	-0.757599	-0.460484	-0.090651
C138	C	-0.507599	-0.210484	0.159349
C139	C	-0.257599	0.039516	0.409349
C140	C	-0.007599	0.289516	0.659349
C141	C	-0.757602	-0.539283	-0.090658
C142	C	-0.507602	-0.289283	0.159342
C143	C	-0.257602	-0.039283	0.409342
C144	C	-0.007602	0.210717	0.659342
C145	C	-0.820226	-0.578661	-0.092403
C146	C	-0.570226	-0.328661	0.157597
C147	C	-0.320226	-0.078661	0.407597
C148	C	-0.070226	0.171339	0.657597
C149	C	-0.882849	-0.539231	-0.094156
C150	C	-0.632849	-0.289231	0.155844
C151	C	-0.382849	-0.039231	0.405844
C152	C	-0.132849	0.210769	0.655844
C153	C	-0.882845	-0.460430	-0.094154
C154	C	-0.632845	-0.210430	0.155846
C155	C	-0.382845	0.039570	0.405846
C156	C	-0.132845	0.289570	0.655846
C157	C	-0.820213	-0.421060	-0.092398
C158	C	-0.570213	-0.171060	0.157602
C159	C	-0.320213	0.078940	0.407602
C160	C	-0.070213	0.328940	0.657602
C161	C	-0.862230	-0.703475	-0.134423
C162	C	-0.612230	-0.453475	0.115577
C163	C	-0.362230	-0.203475	0.365577
C164	C	-0.112230	0.046525	0.615577
C165	C	-0.862242	-0.782278	-0.134416
C166	C	-0.612242	-0.532278	0.115584
C167	C	-0.362242	-0.282278	0.365584
C168	C	-0.112242	-0.032278	0.615584
C169	C	-0.778255	-0.782330	-0.050379
C170	C	-0.528255	-0.532330	0.199621
C171	C	-0.278255	-0.282330	0.449621
C172	C	-0.028255	-0.032330	0.699621
C173	C	-0.778249	-0.703528	-0.050382
C174	C	-0.528249	-0.453528	0.199618
C175	C	-0.278249	-0.203528	0.449618
C176	C	-0.028249	0.046472	0.699618
C177	C	-0.820236	-0.664105	-0.092407
C178	C	-0.570236	-0.414105	0.157593
C179	C	-0.320236	-0.164105	0.407593
C180	C	-0.070236	0.085895	0.657593
C181	C	0.052767	0.000156	-0.086924
C182	C	0.302767	0.250156	0.163076
C183	C	0.552767	0.500156	0.413076
C184	C	0.802767	0.750156	0.663076
C185	C	-0.024336	0.000155	-0.088059
C186	C	0.225664	0.250155	0.161941
C187	C	0.475664	0.500155	0.411941
C188	C	0.725664	0.750155	0.661941
C189	C	-0.825694	0.000125	0.034606
C190	C	-0.575694	0.250125	0.284606
C191	C	-0.325694	0.500125	0.534606
C192	C	-0.075694	0.750125	0.784606
C193	C	-0.824565	0.000118	0.111709
C194	C	-0.574565	0.250118	0.361709
C195	C	-0.324565	0.500118	0.611709
C196	C	-0.074565	0.750118	0.861709
N197	N	-0.820253	0.178297	-0.092401
N198	N	-0.570253	0.428297	0.157599
N199	N	-0.320253	0.678297	0.407599
N200	N	-0.070253	0.928297	0.657599
C201	C	-0.814757	0.000159	-0.219409
C202	C	-0.564757	0.250159	0.030591
C203	C	-0.314757	0.500159	0.280591
C204	C	-0.064757	0.750159	0.530591
C205	C	-0.815886	0.000171	-0.296513
C206	C	-0.565886	0.250171	-0.046513
C207	C	-0.315886	0.500171	0.203487
C208	C	-0.065886	0.750171	0.453487
C209	C	-0.887333	0.000124	0.156412
C210	C	-0.637333	0.250124	0.406412
C211	C	-0.387333	0.500124	0.656412
C212	C	-0.137333	0.750124	0.906412
C213	C	-0.886273	0.000135	0.228859
C214	C	-0.636273	0.250135	0.478859
C215	C	-0.386273	0.500135	0.728859
C216	C	-0.136273	0.750135	0.978859
C217	C	-0.822440	0.000127	0.256600
C218	C	-0.572440	0.250127	0.506600
C219	C	-0.322440	0.500127	0.756600
C220	C	-0.072440	0.750127	1.006600
C221	C	-0.759663	0.000125	0.211887
C222	C	-0.509663	0.250125	0.461887
C223	C	-0.259663	0.500125	0.711887
C224	C	-0.009663	0.750125	0.961887
C225	C	-0.760725	0.000121	0.139441
C226	C	-0.510725	0.250121	0.389441
C227	C	-0.260725	0.500121	0.639441
C228	C	-0.010725	0.750121	0.889441
C229	C	-0.772253	-0.043732	0.364883
C230	C	-0.522253	0.206268	0.614883
C231	C	-0.272253	0.456268	0.864883
C232	C	-0.022253	0.706268	1.114883
C233	C	-0.771193	-0.043732	0.437327
C234	C	-0.521193	0.206268	0.687327
C235	C	-0.271193	0.456268	0.937327
C236	C	-0.021193	0.706268	1.187327
C237	C	-0.819160	0.000143	0.480045
C238	C	-0.569160	0.250143	0.730045
C239	C	-0.319160	0.500143	0.980045
C240	C	-0.069160	0.750143	1.230045
C241	C	-0.868199	0.044009	0.450311
C242	C	-0.618199	0.294009	0.700311
C243	C	-0.368199	0.544009	0.950311
C244	C	-0.118199	0.794009	1.200311
C245	C	-0.869261	0.044004	0.377866
C246	C	-0.619261	0.294004	0.627866
C247	C	-0.369261	0.544004	0.877866
C248	C	-0.119261	0.794004	1.127866
C249	C	-0.821280	0.000132	0.335154
C250	C	-0.571280	0.250132	0.585154
C251	C	-0.321280	0.500132	0.835154
C252	C	-0.071280	0.750132	1.085154
C253	C	-0.880783	0.000162	0.603304
C254	C	-0.630783	0.250162	0.853304
C255	C	-0.380783	0.500162	1.103304
C256	C	-0.130783	0.750162	1.353304
C257	C	-0.879720	0.000179	0.675752
C258	C	-0.629720	0.250179	0.925752
C259	C	-0.379720	0.500179	1.175752
C260	C	-0.129720	0.750179	1.425752
C261	C	-0.753108	0.000161	0.658778
C262	C	-0.503108	0.250161	0.908778
C263	C	-0.253108	0.500161	1.158778
C264	C	-0.003108	0.750161	1.408778
C265	C	-0.754173	0.000152	0.586332
C266	C	-0.504173	0.250152	0.836332
C267	C	-0.254173	0.500152	1.086332
C268	C	-0.004173	0.750152	1.336332
C269	C	-0.818012	0.000149	0.558599
C270	C	-0.568012	0.250149	0.808599
C271	C	-0.318012	0.500149	1.058599
C272	C	-0.068012	0.750149	1.308599
H273	H	-0.609424	0.123922	-0.096656
H274	H	-0.359424	0.373922	0.153344
H275	H	-0.109424	0.623922	0.403344
H276	H	0.140576	0.873922	0.653344
Br277	Br	-0.721279	-0.835835	0.006652
Br278	Br	-0.471279	-0.585835	0.256652
Br279	Br	-0.221279	-0.335835	0.506652
Br280	Br	0.028721	-0.085835	0.756652
Br281	Br	-0.704646	-0.103268	0.477674
Br282	Br	-0.454646	0.146732	0.727674
Br283	Br	-0.204646	0.396732	0.977674
Br284	Br	0.045354	0.646732	1.227674
Br285	Br	-0.707149	-0.103282	0.306915
Br286	Br	-0.457149	0.146718	0.556915
Br287	Br	-0.207149	0.396718	0.806915
Br288	Br	0.042851	0.646718	1.056915
H289	H	-0.709609	0.000116	0.103043
H290	H	-0.459609	0.250116	0.353043
H291	H	-0.209609	0.500116	0.603043
H292	H	0.040391	0.750116	0.853043
Br293	Br	-0.721225	-0.164005	0.006656
Br294	Br	-0.471225	0.085995	0.256656
Br295	Br	-0.221225	0.335995	0.506656
Br296	Br	0.028775	0.585995	0.756656
H297	H	-0.162451	-0.123669	-0.090087
H298	H	0.087549	0.126331	0.159913
H299	H	0.337549	0.376331	0.409913
H300	H	0.587549	0.626331	0.659913
Br301	Br	-0.666475	0.000156	0.696418
Br302	Br	-0.416475	0.250156	0.946418
Br303	Br	-0.166475	0.500156	1.196418
Br304	Br	0.083525	0.750156	1.446418
H305	H	-0.744055	-0.671475	-0.016168
H306	H	-0.494055	-0.421475	0.233832
H307	H	-0.244055	-0.171475	0.483832
H308	H	0.005945	0.078525	0.733832
H309	H	-0.706610	-0.571381	-0.089235
H310	H	-0.456610	-0.321381	0.160765
H311	H	-0.206610	-0.071381	0.410765
H312	H	0.043390	0.178619	0.660765
H313	H	-0.477997	0.123931	-0.094730
H314	H	-0.227997	0.373931	0.155270
H315	H	0.022003	0.623931	0.405270
H316	H	0.272003	0.873931	0.655270
H317	H	-0.244643	0.094993	-0.165264
H318	H	0.005357	0.344993	0.084736
H319	H	0.255357	0.594993	0.334736
H320	H	0.505357	0.844993	0.584736
Br321	Br	-0.247665	-0.123122	0.004748
Br322	Br	0.002335	0.126878	0.254748
Br323	Br	0.252335	0.376878	0.504748
Br324	Br	0.502335	0.626878	0.754748
H325	H	-0.930836	0.000187	0.712149
H326	H	-0.680836	0.250187	0.962149
H327	H	-0.430836	0.500187	1.212149
H328	H	-0.180836	0.750187	1.462149
Br329	Br	-0.919237	-0.835708	-0.191441
Br330	Br	-0.669237	-0.585708	0.058559
Br331	Br	-0.419237	-0.335708	0.308559
Br332	Br	-0.169237	-0.085708	0.558559
Br333	Br	-0.668982	0.000144	0.525659
Br334	Br	-0.418982	0.250144	0.775659
Br335	Br	-0.168982	0.500144	1.025659
Br336	Br	0.081018	0.750144	1.275659
H337	H	-0.896418	-0.671375	-0.168642
H338	H	-0.646418	-0.421375	0.081358
H339	H	-0.396418	-0.171375	0.331358
H340	H	-0.146418	0.078625	0.581358
Br341	Br	-0.182220	0.161004	-0.090372
Br342	Br	0.067780	0.411004	0.159628
Br343	Br	0.317780	0.661004	0.409628
Br344	Br	0.567780	0.911004	0.659628
H345	H	-0.707689	0.000120	0.234478
H346	H	-0.457689	0.250120	0.484478
H347	H	-0.207689	0.500120	0.734478
H348	H	0.042311	0.750120	0.984478
Br349	Br	-0.418425	-0.123120	0.002253
Br350	Br	-0.168425	0.126880	0.252253
Br351	Br	0.081575	0.376880	0.502253
Br352	Br	0.331575	0.626880	0.752253
H353	H	-0.031113	0.123966	-0.088163
H354	H	0.218887	0.373966	0.161837
H355	H	0.468887	0.623966	0.411837
H356	H	0.718887	0.873966	0.661837
H357	H	-0.376074	0.094989	-0.167194
H358	H	-0.126074	0.344989	0.082806
H359	H	0.123926	0.594989	0.332806
H360	H	0.373926	0.844989	0.582806
H361	H	-0.477905	-0.123689	-0.094732
H362	H	-0.227905	0.126311	0.155268
H363	H	0.022095	0.376311	0.405268
H364	H	0.272095	0.626311	0.655268
H365	H	-0.706598	-0.428429	-0.089235
H366	H	-0.456598	-0.178429	0.160765
H367	H	-0.206598	0.071571	0.410765
H368	H	0.043402	0.321571	0.660765
Br369	Br	-0.967828	-0.406920	-0.096533
Br370	Br	-0.717828	-0.156920	0.153467
Br371	Br	-0.467828	0.093080	0.403467
Br372	Br	-0.217828	0.343080	0.653467
H373	H	-0.896394	-0.328243	-0.168633
H374	H	-0.646394	-0.078243	0.081367
H375	H	-0.396394	0.171757	0.331367
H376	H	-0.146394	0.421757	0.581367
H377	H	-0.609337	-0.123706	-0.096674
H378	H	-0.359337	0.126294	0.153326
H379	H	-0.109337	0.376294	0.403326
H380	H	0.140663	0.626294	0.653326
H381	H	-0.031021	-0.123657	-0.088157
H382	H	0.218979	0.126343	0.161843
H383	H	0.468979	0.376343	0.411843
H384	H	0.718979	0.626343	0.661843
H385	H	-0.896382	-0.185289	-0.168634
H386	H	-0.646382	0.064711	0.081366
H387	H	-0.396382	0.314711	0.331366
H388	H	-0.146382	0.564711	0.581366
Br389	Br	-0.935807	0.103537	0.337513
Br390	Br	-0.685807	0.353537	0.587513
Br391	Br	-0.435807	0.603537	0.837513
Br392	Br	-0.185807	0.853537	1.087513
Br393	Br	-0.967846	-0.592662	-0.096527
Br394	Br	-0.717846	-0.342662	0.153473
Br395	Br	-0.467846	-0.092662	0.403473
Br396	Br	-0.217846	0.157338	0.653473
H397	H	-0.939316	0.000124	0.133837
H398	H	-0.689316	0.250124	0.383837
H399	H	-0.439316	0.500124	0.633837
H400	H	-0.189316	0.750124	0.883837
Br401	Br	-0.971465	0.000146	0.289539
Br402	Br	-0.721465	0.250146	0.539539
Br403	Br	-0.471465	0.500146	0.789539
Br404	Br	-0.221465	0.750146	1.039539
Br405	Br	-0.721239	-0.349748	0.006650
Br406	Br	-0.471239	-0.099748	0.256650
Br407	Br	-0.221239	0.150252	0.506650
Br408	Br	0.028761	0.400252	0.756650
Br409	Br	-0.933303	0.103557	0.508276
Br410	Br	-0.683303	0.353557	0.758276
Br411	Br	-0.433303	0.603557	1.008276
Br412	Br	-0.183303	0.853557	1.258276
Br413	Br	-0.967420	0.000151	0.565662
Br414	Br	-0.717420	0.250151	0.815662
Br415	Br	-0.467420	0.500151	1.065662
Br416	Br	-0.217420	0.750151	1.315662
