data_functionalizedCrystal
_audit_creation_method	'MofGen! by Chris Wilmer'
_symmetry_space_group_name_H-M	'P1'
_symmetry_Int_Tables_number	1
_symmetry_cell_setting	triclinic
loop_
_symmetry_equiv_pos_as_xyz
  x,y,z
_cell_length_a	21.295418
_cell_length_b	12.759399
_cell_length_c	12.759393
_cell_angle_alpha	90.031355
_cell_angle_beta	89.958063
_cell_angle_gamma	89.960549
loop_
_atom_site_label
_atom_site_type_symbol
_atom_site_fract_x
_atom_site_fract_y
_atom_site_fract_z
Zn1	Zn	0.962375	0.417772	-0.594603
Zn2	Zn	0.962293	0.593487	-0.418920
Zn3	Zn	0.857101	0.417872	-0.418873
Zn4	Zn	0.857080	0.593458	-0.594493
O5	O	0.909712	0.505647	-0.506722
O6	O	1.050453	0.441052	-0.571364
O7	O	0.948314	0.570246	-0.271893
O8	O	0.871109	0.270837	-0.442211
O9	O	1.050393	0.570149	-0.442290
O10	O	0.948453	0.270764	-0.571318
O11	O	0.871030	0.441222	-0.271859
O12	O	0.769009	0.441193	-0.442104
O13	O	0.871073	0.570099	-0.741529
O14	O	0.768993	0.570195	-0.571131
O15	O	0.948432	0.441023	-0.741609
O16	O	0.948293	0.740505	-0.442184
O17	O	0.870994	0.740483	-0.571176
C18	C	0.746161	0.505702	-0.506601
C19	C	0.676192	0.505751	-0.506575
C20	C	0.643334	0.573012	-0.573658
C21	C	0.577592	0.572986	-0.573706
C22	C	0.544710	0.505711	-0.506650
C23	C	0.577576	0.438437	-0.439562
C24	C	0.643317	0.438457	-0.439524
N25	N	0.441435	0.497514	-0.414758
N26	N	0.378984	0.497501	-0.414797
C27	C	0.346635	0.505644	-0.506762
N28	N	0.379098	0.513821	-0.598688
N29	N	0.441555	0.513840	-0.598648
C30	C	0.473425	0.505681	-0.506684
C31	C	0.242491	0.572880	-0.573902
C32	C	0.176748	0.572846	-0.573951
C33	C	0.176734	0.438303	-0.439798
C34	C	0.242476	0.438331	-0.439758
C35	C	0.275351	0.505625	-0.506809
C36	C	0.909649	0.778615	-0.506696
C37	C	0.909680	0.895391	-0.506720
C38	C	0.949930	0.950125	-0.574002
C39	C	0.949955	1.059849	-0.574028
C40	C	0.869478	1.060096	-0.439480
C41	C	0.869450	0.950374	-0.439461
C42	C	1.073903	0.505592	-0.506844
C43	C	1.143871	0.505569	-0.506896
C44	C	0.909759	0.505546	-0.780756
C45	C	0.909779	0.505503	-0.897533
C46	C	0.909769	1.231614	-0.506765
C47	C	0.909733	1.114837	-0.506765
C48	C	0.950064	0.438283	-0.952438
C49	C	0.950074	0.438238	-1.062162
C50	C	0.869515	0.572642	-1.062066
C51	C	0.869501	0.572681	-0.952343
C52	C	0.909701	0.505672	-0.233755
C53	C	0.909803	0.505419	-0.116979
H54	H	0.670070	0.383683	-0.384896
N55	N	0.828321	0.894462	-0.370745
N56	N	0.770237	0.906823	-0.377607
H57	H	0.741187	0.867337	-0.329083
N58	N	0.828390	1.116277	-0.370788
N59	N	0.828419	1.214242	-0.370813
H60	H	0.799400	1.253921	-0.322296
H61	H	0.982687	0.905361	-0.628770
H62	H	0.982859	0.383579	-0.907814
N63	N	0.991224	0.369561	-1.118230
N64	N	1.027178	0.309585	-1.069275
H65	H	1.056242	0.261077	-1.108872
H66	H	0.836723	0.627339	-1.106706
H67	H	0.836693	0.627420	-0.907638
H68	H	0.670097	0.627807	-0.628258
H69	H	0.550800	0.383659	-0.384967
N70	N	0.544028	0.641699	-0.642242
N71	N	0.573388	0.701773	-0.702103
H72	H	0.549686	0.750303	-0.750507
N73	N	0.276079	0.641620	-0.642381
N74	N	0.268681	0.738555	-0.635249
H75	H	0.292401	0.787105	-0.683611
N76	N	0.143194	0.641571	-0.642481
N77	N	0.150482	0.738509	-0.635328
H78	H	0.126786	0.787050	-0.683728
N79	N	0.143144	0.369576	-0.371320
N80	N	0.084448	0.369559	-0.371368
H81	H	0.060721	0.321014	-0.323008
N82	N	0.276043	0.369619	-0.371237
N83	N	0.268758	0.272680	-0.378379
H84	H	0.292465	0.224146	-0.329986
N85	N	0.991071	1.115742	-0.642767
N86	N	1.026982	1.066633	-0.702815
H87	H	1.056021	1.106106	-0.751368
