data_functionalizedCrystal
_audit_creation_method	'MofGen! by Chris Wilmer'
_symmetry_space_group_name_H-M	'P1'
_symmetry_Int_Tables_number	1
_symmetry_cell_setting	triclinic
loop_
_symmetry_equiv_pos_as_xyz
  x,y,z
_cell_length_a	16.959455
_cell_length_b	19.077068
_cell_length_c	19.076919
_cell_angle_alpha	94.470751
_cell_angle_beta	87.717788
_cell_angle_gamma	87.676048
loop_
_atom_site_label
_atom_site_type_symbol
_atom_site_fract_x
_atom_site_fract_y
_atom_site_fract_z
Zn1	Zn	1.176473	0.296738	0.409832
Zn2	Zn	1.176375	0.409891	0.296677
Zn3	Zn	1.049829	0.292016	0.291964
Zn4	Zn	1.038720	0.414582	0.414522
O5	O	1.110349	0.353307	0.353249
O6	O	1.287070	0.311761	0.394831
O7	O	1.164197	0.390316	0.197404
O8	O	1.071319	0.193994	0.303664
O9	O	1.286998	0.394894	0.311696
O10	O	1.164363	0.197463	0.390261
O11	O	1.071224	0.303714	0.193942
O12	O	0.937746	0.308262	0.308212
O13	O	1.052385	0.402888	0.512547
O14	O	0.929584	0.398310	0.398255
O15	O	1.153591	0.316309	0.509101
O16	O	1.153424	0.509163	0.316244
O17	O	1.052290	0.512608	0.402825
C18	C	0.904985	0.353283	0.353232
C19	C	0.817127	0.353290	0.353242
C20	C	1.101662	0.536465	0.360570
C21	C	1.098016	0.614821	0.363726
C22	C	1.101760	0.360649	0.537118
C23	C	1.098099	0.363777	0.615472
C24	C	0.449874	0.306386	0.306456
C25	C	0.441423	0.400288	0.400084
C26	C	0.523970	0.400277	0.400080
C27	C	0.569472	0.353321	0.353262
C28	C	0.532428	0.306375	0.306448
C29	C	0.561020	0.447227	0.446887
C30	C	0.643572	0.447219	0.446884
C31	C	0.689076	0.400259	0.400069
C32	C	0.652027	0.353311	0.353254
C33	C	0.697529	0.306355	0.306436
C34	C	0.660481	0.259402	0.259624
C35	C	0.577932	0.259415	0.259633
C36	C	0.771625	0.400247	0.400060
C37	C	0.780083	0.306344	0.306429
C38	C	1.316516	0.353331	0.353266
C39	C	1.404371	0.353342	0.353274
C40	C	1.119091	0.169434	0.345914
C41	C	1.122817	0.091079	0.342788
C42	C	1.148997	0.649818	0.320168
C43	C	1.145573	0.723442	0.323141
C44	C	1.091164	0.762069	0.369668
C45	C	1.040181	0.727068	0.413231
C46	C	1.043610	0.653445	0.410261
C47	C	1.075263	0.982454	0.383382
C48	C	1.071837	1.056083	0.386346
C49	C	1.177229	1.052452	0.296257
C50	C	1.180650	0.978827	0.293289
C51	C	1.129670	0.943832	0.336854
N52	N	1.087661	0.837326	0.372706
N53	N	1.133178	0.868578	0.333819
C54	C	1.118953	0.345943	0.170093
C55	C	1.122776	0.342615	0.091732
C56	C	1.149070	0.320172	0.650490
C57	C	1.145621	0.323109	0.724111
C58	C	1.091205	0.369655	0.762714
C59	C	1.040229	0.413262	0.727691
C60	C	1.043674	0.410321	0.654070
C61	C	1.075246	0.383281	0.983088
C62	C	1.071806	0.386221	1.056714
C63	C	1.177197	0.296066	1.053129
C64	C	1.180641	0.293132	0.979507
C65	C	1.129663	0.336737	0.944491
N66	N	1.087680	0.372660	0.837967
N67	N	1.133184	0.333728	0.869238
H68	H	0.817126	0.268102	0.268307
C69	C	0.980363	0.464457	0.770156
N70	N	0.935271	0.503018	0.802140
H71	H	0.697540	0.221174	0.221502
C72	C	0.537173	0.207775	0.208142
N73	N	0.506470	0.168882	0.169358
H74	H	1.224954	0.947378	0.255403
H75	H	1.027539	1.087531	0.424247
H76	H	0.419706	0.268156	0.268345
C77	C	1.019222	0.943971	0.431341
N78	N	0.977023	0.914984	0.467480
H79	H	1.218735	1.080952	0.260790
H80	H	0.404370	0.438521	0.438197
C81	C	0.510963	0.498877	0.498381
N82	N	0.473256	0.537781	0.537169
H83	H	0.673729	0.485450	0.485001
C84	C	1.208849	0.607334	0.268983
N85	N	1.253934	0.575338	0.230430
H86	H	0.995884	0.758524	0.451117
C87	C	0.812374	0.451891	0.451549
N88	N	0.843065	0.490790	0.490336
C89	C	1.201694	0.275141	0.762628
N90	N	1.243931	0.239009	0.791638
H91	H	1.187086	0.751933	0.287671
C92	C	0.987528	0.614950	0.458179
N93	N	0.945287	0.585956	0.494274
H94	H	1.193383	0.282271	0.619064
H95	H	1.224954	0.255231	0.948082
H96	H	1.218700	0.260565	1.081648
C97	C	1.011939	0.437425	1.099175
N98	N	0.966850	0.475991	1.131157
C99	C	0.987604	0.458292	0.615551
N100	N	0.945369	0.494424	0.586539
H101	H	1.033747	0.418798	0.954587
