data_functionalizedCrystal
_audit_creation_method	'MofGen! by Chris Wilmer'
_symmetry_space_group_name_H-M	'P1'
_symmetry_Int_Tables_number	1
_symmetry_cell_setting	triclinic
loop_
_symmetry_equiv_pos_as_xyz
  x,y,z
_cell_length_a	16.956995
_cell_length_b	14.853567
_cell_length_c	15.455313
_cell_angle_alpha	92.672621
_cell_angle_beta	87.515363
_cell_angle_gamma	79.844701
loop_
_atom_site_label
_atom_site_type_symbol
_atom_site_fract_x
_atom_site_fract_y
_atom_site_fract_z
O1	O	1.061572	0.033154	-0.072188
O2	O	0.829449	0.064802	-0.072175
O3	O	0.951711	-0.082722	-0.072185
O4	O	0.939310	0.180679	-0.072179
O5	O	0.944719	-0.074319	0.072078
O6	O	0.822457	0.073206	0.072088
O7	O	1.054580	0.041558	0.072074
Cu8	Cu	0.937880	0.058149	0.085253
Cu9	Cu	0.946149	0.048211	-0.085354
O10	O	0.932318	0.189083	0.072084
C11	C	0.796247	0.070625	-0.000042
C12	C	0.707731	0.075442	-0.000037
C13	C	0.947653	-0.112067	-0.000056
C14	C	0.945970	-0.212023	-0.000063
C15	C	0.208473	0.111480	-0.000069
C16	C	0.291643	0.106946	-0.000068
C17	C	0.342636	0.021850	-0.000064
C18	C	0.310457	-0.058718	-0.000068
C19	C	0.227288	-0.054184	-0.000075
C20	C	0.592383	-0.000592	-0.000049
C21	C	0.675557	-0.005120	-0.000040
C22	C	0.656737	0.160545	-0.000041
C23	C	0.573567	0.165072	-0.000043
C24	C	0.541395	0.084503	-0.000052
N25	N	0.427650	0.017214	-0.000060
N26	N	0.456384	0.089140	-0.000062
C27	C	0.866225	-0.618501	-0.000042
C28	C	1.011475	-0.650811	-0.000051
C29	C	1.013058	-0.556898	-0.000056
C30	C	0.941224	-0.493781	-0.000053
C31	C	0.867806	-0.524578	-0.000045
C32	C	1.086474	-0.526094	-0.000055
C33	C	1.088061	-0.432175	-0.000059
C34	C	1.016226	-0.369057	-0.000063
C35	C	0.942805	-0.399859	-0.000056
C36	C	0.870971	-0.336742	-0.000053
C37	C	0.797550	-0.367542	-0.000052
C38	C	0.795971	-0.461460	-0.000048
C39	C	1.017804	-0.275140	-0.000066
C40	C	0.872552	-0.242820	-0.000055
C41	C	1.087782	0.035736	-0.000061
C42	C	1.176298	0.030918	-0.000071
C43	C	0.936376	0.218427	-0.000047
C44	C	0.938059	0.318383	-0.000045
N45	N	0.932071	0.065138	0.205249
N46	N	0.951965	0.041215	-0.205350
C47	C	0.984030	0.002485	0.250639
C48	C	0.979644	0.007778	0.341447
C49	C	0.923301	0.075729	0.386864
C50	C	0.871337	0.138386	0.341468
C51	C	0.875720	0.133088	0.250661
C52	C	0.904383	0.098573	0.658447
C53	C	0.900005	0.103868	0.749260
C54	C	1.008312	-0.026742	0.749233
C55	C	1.012693	-0.032030	0.658425
C56	C	0.960725	0.030623	0.613037
N57	N	0.918818	0.081143	0.479685
N58	N	0.965205	0.025205	0.520218
H59	H	0.166958	0.180775	-0.000066
C60	C	0.818568	0.202010	0.200732
H61	H	0.784390	0.243244	0.240784
H62	H	0.787054	0.169967	0.165321
H63	H	0.849004	0.235353	0.165297
H64	H	1.077582	-0.250066	-0.000061
C65	C	0.327031	0.195565	-0.000055
H66	H	0.284749	0.246895	-0.000046
H67	H	0.361528	0.194316	-0.050358
H68	H	0.356638	0.200166	0.050263
C69	C	0.838026	0.178614	0.799221
H70	H	0.842868	0.172801	0.859802
H71	H	0.785521	0.171886	0.784363
H72	H	0.847469	0.237275	0.784329
H73	H	0.717075	-0.074419	-0.000040
C74	C	0.785466	-0.652372	-0.000046
H75	H	0.742914	-0.601329	-0.000051
H76	H	0.779386	-0.685409	0.050258
H77	H	0.784272	-0.691264	-0.050363
H78	H	1.050620	-0.077752	0.786197
C79	C	0.718535	-0.298113	-0.000047
H80	H	0.674580	-0.329901	-0.000041
H81	H	0.718575	-0.263732	-0.050352
H82	H	0.713698	-0.257877	0.050269
H83	H	1.144957	-0.577489	-0.000050
C84	C	1.046006	-0.072264	0.200689
H85	H	1.076317	-0.108824	0.240731
H86	H	1.080941	-0.044357	0.165250
H87	H	1.018988	-0.109740	0.165280
H88	H	1.147845	-0.407107	-0.000061
C89	C	0.715216	-0.495338	-0.000046
H90	H	0.672659	-0.444300	-0.000055
H91	H	0.709140	-0.528371	0.050262
H92	H	0.714024	-0.534237	-0.050359
H93	H	0.825458	0.193711	0.378451
H94	H	0.201094	-0.119786	-0.000079
H95	H	1.021952	-0.043240	0.378404
C96	C	0.793532	-0.173398	-0.000051
H97	H	0.749583	-0.205195	-0.000044
H98	H	0.793568	-0.139017	-0.050357
H99	H	0.788691	-0.133161	0.050265
H100	H	1.069959	-0.702205	-0.000046
H101	H	1.058571	-0.087361	0.621449
C102	C	0.692129	0.249161	-0.000043
H103	H	0.748965	0.234276	-0.000046
H104	H	0.672190	0.286876	0.050260
H105	H	0.677077	0.280996	-0.050362
H106	H	0.862070	0.149589	0.621499
H107	H	0.566199	-0.066196	-0.000054
C108	C	0.517480	0.258677	-0.000049
H109	H	0.548555	0.306009	-0.000054
H110	H	0.482201	0.266821	0.050256
H111	H	0.487090	0.260955	-0.050366
H112	H	0.351983	-0.128005	-0.000070
