data_functionalizedCrystal
_audit_creation_method	'MofGen! by Chris Wilmer'
_symmetry_space_group_name_H-M	'P1'
_symmetry_Int_Tables_number	1
_symmetry_cell_setting	triclinic
loop_
_symmetry_equiv_pos_as_xyz
  x,y,z
_cell_length_a	12.827893
_cell_length_b	17.637651
_cell_length_c	12.827885
_cell_angle_alpha	78.750798
_cell_angle_beta	89.980728
_cell_angle_gamma	101.219302
loop_
_atom_site_label
_atom_site_type_symbol
_atom_site_fract_x
_atom_site_fract_y
_atom_site_fract_z
Zn1	Zn	1.513560	-0.314727	-0.506621
Zn2	Zn	1.478114	-0.446962	-0.296492
Zn3	Zn	1.338791	-0.314766	-0.331884
Zn4	Zn	1.303462	-0.446904	-0.471207
O5	O	1.408482	-0.380840	-0.401551
O6	O	1.655092	-0.332276	-0.478755
O7	O	1.459584	-0.429467	-0.154939
O8	O	1.391593	-0.204119	-0.384695
O9	O	1.629050	-0.429429	-0.324375
O10	O	1.519995	-0.204091	-0.513074
O11	O	1.357223	-0.332343	-0.180942
O12	O	1.187871	-0.332286	-0.350357
O13	O	1.331381	-0.429330	-0.622152
O14	O	1.161915	-0.429367	-0.452717
O15	O	1.485739	-0.332220	-0.648170
O16	O	1.425327	-0.557596	-0.290036
O17	O	1.297011	-0.557553	-0.418399
C18	C	1.136976	-0.380825	-0.401535
C19	C	1.020819	-0.380838	-0.401548
C20	C	0.981898	-0.332849	-0.478016
C21	C	0.861844	-0.332861	-0.478031
C22	C	1.353518	-0.586263	-0.346557
C23	C	1.330099	-0.674144	-0.323065
C24	C	1.587067	-0.962804	-0.580345
C25	C	1.565029	-1.045381	-0.558253
C26	C	1.431413	-1.045518	-0.424443
C27	C	1.453443	-0.962939	-0.446521
C28	C	1.531271	-0.921588	-0.524474
C29	C	1.397647	-0.921724	-0.390649
C30	C	1.419672	-0.839152	-0.412729
C31	C	1.497494	-0.797795	-0.490681
C32	C	1.553296	-0.839017	-0.546554
C33	C	1.319815	-0.963076	-0.312702
C34	C	1.264018	-0.921861	-0.256831
C35	C	1.286049	-0.839287	-0.278905
C36	C	1.363870	-0.797931	-0.356856
C37	C	1.230247	-0.798066	-0.223032
C38	C	1.252272	-0.715494	-0.245112
C39	C	1.385896	-0.715359	-0.378936
C40	C	1.681048	-0.380855	-0.401567
C41	C	1.797199	-0.380861	-0.401574
C42	C	1.408573	-0.380764	-0.674141
C43	C	1.408612	-0.380731	-0.790303
C44	C	1.463689	-0.174615	-0.456783
C45	C	1.487215	-0.086734	-0.480319
C46	C	1.485003	-0.332669	-0.854965
C47	C	1.485045	-0.332634	-0.975025
C48	C	1.408466	-0.380858	-0.130036
C49	C	1.408689	-0.380668	-0.013934
H50	H	0.830712	-0.421953	-0.336108
O51	O	0.954480	-0.429951	-0.323581
C52	C	0.802551	-0.536582	-0.280877
C53	C	0.877612	-0.481021	-0.369278
H54	H	0.740371	-0.577874	-0.317791
H55	H	0.850465	-0.572771	-0.223303
H56	H	0.761203	-0.500188	-0.236088
H57	H	0.918978	-0.517354	-0.414147
H58	H	0.829643	-0.444829	-0.426780
O59	O	1.563177	-0.283516	-1.041143
C60	C	1.722575	-0.183175	-1.056744
C61	C	1.634166	-0.238776	-0.981741
H62	H	1.779981	-0.146977	-1.008751
H63	H	1.767543	-0.219460	-1.098101
H64	H	1.685600	-0.141886	-1.118928
H65	H	1.671054	-0.280076	-0.919496
H66	H	1.589208	-0.202443	-0.940462
O67	O	1.197906	-0.675537	-0.190873
C68	C	1.026894	-0.650339	-0.146779
C69	C	1.088335	-0.695656	-0.208229
H70	H	0.938297	-0.666576	-0.160807
H71	H	1.040859	-0.666617	-0.058158
H72	H	1.056059	-0.584225	-0.175940
H73	H	1.059208	-0.761780	-0.179157
H74	H	1.074369	-0.679312	-0.296840
H75	H	1.610456	-1.078936	-0.603771
O76	O	1.298254	-1.043287	-0.291150
C77	C	1.193367	-1.161854	-0.185993
C78	C	1.217659	-1.071018	-0.210311
H79	H	1.128221	-1.184302	-0.120618
H80	H	1.165599	-1.184286	-0.260871
H81	H	1.268363	-1.184223	-0.158438
H82	H	1.142706	-1.048582	-0.237839
H83	H	1.245471	-1.048639	-0.135410
H84	H	1.449278	-0.681690	-0.442406
O85	O	1.188282	-0.961998	-0.181230
C86	C	1.003799	-0.987341	-0.123510
C87	C	1.089458	-0.941853	-0.209221
H88	H	0.923885	-0.971058	-0.146098
H89	H	0.997546	-1.053446	-0.117328
H90	H	1.026578	-0.971151	-0.043599
H91	H	1.066743	-0.957977	-0.289177
H92	H	1.095694	-0.875758	-0.215310
H93	H	1.515426	-0.730560	-0.508656
O94	O	1.330796	-0.429802	-0.947540
C95	C	1.288258	-0.536530	-0.795643
C96	C	1.376575	-0.480924	-0.870753
H97	H	1.325234	-0.577888	-0.733557
H98	H	1.243379	-0.500250	-0.754182
H99	H	1.230759	-0.572655	-0.843644
H100	H	1.434145	-0.444787	-0.822831
H101	H	1.421373	-0.517249	-0.912218
H102	H	1.616679	-0.805347	-0.610023
H103	H	0.828323	-0.291778	-0.543502
H104	H	1.550369	-0.291544	-0.821442
H105	H	1.650450	-0.929134	-0.643815
O106	O	1.330497	-0.429709	-0.830264
C107	C	1.142511	-0.468083	-0.853533
C108	C	1.230874	-0.412553	-0.808251
H109	H	1.061944	-0.454243	-0.835733
H110	H	1.156353	-0.459310	-0.943251
H111	H	1.143823	-0.531854	-0.815072
H112	H	1.229614	-0.348761	-0.846631
H113	H	1.217001	-0.421394	-0.718530
O114	O	1.154719	-0.838152	-0.147195
C115	C	1.097344	-0.863579	0.037407
C116	C	1.182946	-0.818122	-0.048377
H117	H	1.120146	-0.847415	0.117326
H118	H	1.017382	-0.847356	0.014879
H119	H	1.091164	-0.929671	0.043531
H120	H	1.189222	-0.752019	-0.054545
H121	H	1.262864	-0.834411	-0.025813
H122	H	1.368043	-1.079197	-0.360977
O123	O	1.048309	-0.283895	-0.556056
C124	C	1.228531	-0.239190	-0.627134
C125	C	1.153440	-0.294685	-0.538702
H126	H	1.313548	-0.247882	-0.613122
H127	H	1.203523	-0.253139	-0.707680
H128	H	1.224114	-0.175416	-0.626028
H129	H	1.157819	-0.358477	-0.539709
H130	H	1.178470	-0.280668	-0.458197
