data_functionalizedCrystal
_audit_creation_method	'MofGen! by Chris Wilmer'
_symmetry_space_group_name_H-M	'P1'
_symmetry_Int_Tables_number	1
_symmetry_cell_setting	triclinic
loop_
_symmetry_equiv_pos_as_xyz
  x,y,z
_cell_length_a	16.109295
_cell_length_b	8.140239
_cell_length_c	9.065218
_cell_angle_alpha	89.998314
_cell_angle_beta	84.237536
_cell_angle_gamma	90.000208
loop_
_atom_site_label
_atom_site_type_symbol
_atom_site_fract_x
_atom_site_fract_y
_atom_site_fract_z
O1	O	-1.104589	0.136495	-0.189589
O2	O	-0.862708	0.136522	-0.213196
O3	O	-0.988648	0.136504	0.013371
O4	O	-0.978649	0.136512	-0.416156
O5	O	-0.988641	-0.136723	0.013374
O6	O	-0.862701	-0.136705	-0.213194
O7	O	-1.104582	-0.136732	-0.189586
Zn8	Zn	-0.983641	-0.180099	-0.201389
Zn9	Zn	-0.983650	0.179889	-0.201393
O10	O	-0.978642	-0.136715	-0.416153
C11	C	-0.831722	-0.000088	-0.212240
C12	C	-0.739405	-0.000078	-0.209377
N13	N	-0.983640	-0.425782	-0.201386
C14	C	-0.518114	-0.000093	-0.337159
C15	C	-0.431372	-0.000103	-0.334458
C16	C	-0.449181	-0.000101	-0.065648
C17	C	-0.535921	-0.000103	-0.068351
C18	C	-0.570385	-0.000090	-0.204111
C19	C	-0.396904	-0.000099	-0.198707
C20	C	-0.302855	-0.000109	-0.195777
C21	C	-0.664439	-0.000083	-0.207042
C22	C	-0.135568	-0.000117	-0.190551
C23	C	-0.227883	-0.000111	-0.193441
C24	C	-0.987684	-0.000106	0.068336
C25	C	-0.984810	-0.000098	0.232109
N26	N	-0.983657	0.425572	-0.201384
C27	C	-0.979607	-0.000100	-0.471118
C28	C	-0.982480	-0.000098	-0.634891
H29	H	-0.546171	-0.000095	-0.447704
H30	H	-0.388816	-0.000108	-0.442800
O31	O	-0.415564	-0.000027	0.066093
C32	C	-0.327796	-0.000062	0.039953
H33	H	-0.308297	0.051663	-0.075188
H34	H	-0.300519	0.079267	0.126812
H35	H	-0.303602	-0.131141	0.047097
H36	H	-0.578483	-0.000105	0.040000
