data_functionalizedCrystal
_audit_creation_method	'MofGen! by Chris Wilmer'
_symmetry_space_group_name_H-M	'P1'
_symmetry_Int_Tables_number	1
_symmetry_cell_setting	triclinic
loop_
_symmetry_equiv_pos_as_xyz
  x,y,z
_cell_length_a	13.032831
_cell_length_b	15.297510
_cell_length_c	13.032268
_cell_angle_alpha	74.617380
_cell_angle_beta	90.886977
_cell_angle_gamma	86.255902
loop_
_atom_site_label
_atom_site_type_symbol
_atom_site_fract_x
_atom_site_fract_y
_atom_site_fract_z
Zn1	Zn	1.363636	0.605893	-0.885123
Zn2	Zn	1.355630	0.739563	-0.736151
Zn3	Zn	1.221836	0.568414	-0.684913
Zn4	Zn	1.162957	0.734713	-0.885442
O5	O	1.276015	0.662146	-0.797907
O6	O	1.502552	0.641340	-0.886672
O7	O	1.359172	0.703205	-0.583087
O8	O	1.268637	0.447848	-0.689895
O9	O	1.496670	0.739547	-0.777223
O10	O	1.372817	0.475383	-0.836989
O11	O	1.260874	0.577463	-0.545443
O12	O	1.074047	0.572759	-0.690204
O13	O	1.168288	0.731279	-1.031666
O14	O	1.030790	0.694938	-0.837531
O15	O	1.315726	0.636636	-1.031433
O16	O	1.302080	0.864458	-0.777531
O17	O	1.160524	0.860894	-0.887214
C18	C	1.016123	0.629256	-0.758343
C19	C	0.904932	0.615209	-0.741445
C20	C	0.833979	0.669477	-0.806726
C21	C	0.719057	0.654960	-0.789264
C22	C	1.224068	0.895232	-0.837994
C23	C	1.201932	0.994962	-0.855192
C24	C	1.434529	1.283427	-0.675461
C25	C	1.455328	1.189725	-0.659297
C26	C	1.391981	1.141029	-0.708270
C27	C	1.307831	1.186045	-0.773409
C28	C	1.287026	1.279755	-0.789568
C29	C	1.244477	1.137358	-0.822376
C30	C	1.160328	1.182374	-0.887515
C31	C	1.139526	1.276075	-0.903672
C32	C	1.202873	1.324770	-0.854699
C33	C	1.265283	1.043648	-0.806217
C34	C	1.117779	1.039977	-0.920324
C35	C	1.096981	1.133679	-0.936488
C36	C	1.536921	0.695165	-0.837627
C37	C	1.648103	0.709236	-0.854554
C38	C	1.328177	1.428155	-0.757701
C39	C	1.350377	1.328441	-0.740593
C40	C	1.236332	0.687597	-1.070535
C41	C	1.219422	0.698443	-1.186713
C42	C	1.284832	0.656451	-1.238393
C43	C	1.267356	0.667660	-1.358469
C44	C	1.315615	0.636736	-0.526338
C45	C	1.332775	0.625662	-0.410147
H46	H	0.858313	0.726682	-0.875547
H47	H	0.694728	0.597746	-0.720445
H48	H	0.880598	0.557998	-0.672631
H49	H	1.066195	1.000330	-0.960199
H50	H	1.486092	1.323081	-0.635588
O51	O	1.137100	0.751236	-1.239800
C52	C	1.079690	0.788124	-1.168440
H53	H	1.095668	0.743727	-1.083749
H54	H	0.994174	0.790652	-1.189712
H55	H	1.102803	0.859821	-1.174157
O56	O	1.366993	0.603524	-1.185142
C57	C	1.361242	0.513816	-1.193068
H58	H	1.277996	0.501958	-1.210206
H59	H	1.390121	0.463928	-1.114918
H60	H	1.410959	0.503019	-1.260485
O61	O	1.185144	0.720575	-1.411635
C62	C	1.190929	0.810292	-1.403753
H63	H	1.240428	0.809668	-1.330636
H64	H	1.110293	0.841048	-1.396052
H65	H	1.226744	0.852708	-1.478196
H66	H	0.672431	0.766443	-0.923382
H67	H	1.333798	1.007005	-0.753181
H68	H	1.185946	1.401071	-0.867859
O69	O	1.415054	0.572802	-1.357047
C70	C	1.472493	0.535956	-1.428421
H71	H	1.420964	0.534881	-1.499498
H72	H	1.503495	0.463693	-1.386275
H73	H	1.539465	0.579496	-1.457204
O74	O	1.412358	1.050020	-0.692501
C75	C	1.500199	1.020725	-0.624488
H76	H	1.548794	1.080720	-0.628095
H77	H	1.547469	0.965747	-0.651019
H78	H	1.475367	0.992020	-0.539356
O79	O	1.537138	1.146148	-0.596040
C80	C	1.588576	1.209214	-0.556262
H81	H	1.570947	1.280424	-0.611114
H82	H	1.675034	1.191022	-0.552503
H83	H	1.561344	1.207191	-0.473007
H84	H	1.070996	1.312722	-0.956698
H85	H	1.028465	1.170344	-0.989524
