data_functionalizedCrystal
_audit_creation_method	'MofGen! by Chris Wilmer'
_symmetry_space_group_name_H-M	'P1'
_symmetry_Int_Tables_number	1
_symmetry_cell_setting	triclinic
loop_
_symmetry_equiv_pos_as_xyz
  x,y,z
_cell_length_a	14.048226
_cell_length_b	14.971487
_cell_length_c	14.971486
_cell_angle_alpha	96.385734
_cell_angle_beta	90.007287
_cell_angle_gamma	90.004839
loop_
_atom_site_label
_atom_site_type_symbol
_atom_site_fract_x
_atom_site_fract_y
_atom_site_fract_z
O1	O	0.079025	-1.186940	0.116569
O2	O	0.079057	-0.926540	0.130527
O3	O	0.079033	-1.063719	-0.006652
O4	O	0.079048	-1.049760	0.253748
O5	O	-0.079288	-1.063716	-0.006663
O6	O	-0.079265	-0.926537	0.130516
O7	O	-0.079297	-1.186937	0.116558
Zn8	Zn	-0.104418	-1.056736	0.123535
Zn9	Zn	0.104178	-1.056740	0.123550
O10	O	-0.079273	-1.049758	0.253737
C11	C	-0.000100	-0.893214	0.129897
C12	C	-0.000088	-0.793917	0.128026
N13	N	-0.246778	-1.056740	0.123524
N14	N	0.246538	-1.056743	0.123554
C15	C	-0.000083	-0.736691	0.208615
C16	C	-0.000096	-0.643392	0.206852
C17	C	-0.000106	-0.607320	0.124499
C18	C	-0.000113	-0.664552	0.043903
C19	C	-0.000108	-0.757850	0.045668
C20	C	-0.000122	-0.470090	0.040232
C21	C	-0.000126	-0.376786	0.038467
C22	C	-0.000110	-0.355632	0.201416
C23	C	-0.000105	-0.448929	0.203181
C24	C	-0.000110	-0.506156	0.122585
C25	C	0.296346	-1.117600	0.062930
C26	C	0.396004	-1.117604	0.062927
C27	C	0.445852	-1.056746	0.123544
C28	C	0.396037	-0.995886	0.184174
C29	C	0.296381	-0.995888	0.184180
C30	C	0.603751	-0.995887	0.184155
C31	C	0.703414	-0.995884	0.184148
C32	C	0.703374	-1.117602	0.062902
C33	C	0.603718	-1.117604	0.062908
C34	C	0.553910	-1.056743	0.123537
C35	C	-0.000127	-1.063094	-0.039982
C36	C	-0.000126	-1.061223	-0.139279
C37	C	-0.000132	-0.220263	0.117187
C38	C	-0.000121	-0.319560	0.119056
C39	C	-0.000137	-1.141812	-0.196504
C40	C	-0.000127	-1.140049	-0.289804
C41	C	-0.000113	-1.057696	-0.325876
C42	C	-0.000100	-0.977100	-0.268644
C43	C	-0.000103	-0.978864	-0.175346
C44	C	-0.000096	-0.973429	-0.463107
C45	C	-0.000095	-0.971665	-0.556411
C46	C	-0.000120	-1.134614	-0.577564
C47	C	-0.000123	-1.136378	-0.484266
C48	C	-0.000111	-1.055782	-0.427040
C49	C	-0.000111	-1.050383	0.287067
C50	C	-0.000105	-1.052254	0.386364
H51	H	-0.000091	-0.596802	0.272476
H52	H	-0.000135	-0.347419	-0.028592
H53	H	0.255829	-0.946333	0.233547
N54	N	0.242584	-1.183241	-0.002449
H55	H	0.289263	-1.221797	-0.040850
H56	H	0.201244	-1.222741	0.031952
N57	N	-0.000073	-0.882844	-0.595321
H58	H	-0.000056	-0.832054	-0.544914
H59	H	0.058622	-0.878578	-0.633563
H60	H	-0.000087	-0.478296	0.270240
H61	H	-0.000127	-1.200238	-0.624162
H62	H	-0.000084	-0.907799	-0.416515
H63	H	0.563201	-0.946330	0.233528
N64	N	0.757182	-0.930253	0.249532
H65	H	0.798522	-0.890686	0.215203
H66	H	0.710449	-0.891765	0.287930
N67	N	-0.000085	-0.888272	-0.307540
H68	H	0.058604	-0.883908	-0.345773
H69	H	-0.058814	-0.883959	-0.345739
H70	H	-0.000110	-0.309033	0.267040
N71	N	-0.000104	-0.819573	-0.041255
H72	H	-0.000103	-0.884150	-0.027642
H73	H	-0.058800	-0.807891	-0.077143
H74	H	-0.000128	-0.516682	-0.025398
N75	N	-0.000144	-1.226970	-0.351526
H76	H	-0.000161	-1.279407	-0.314518
H77	H	-0.058836	-1.229778	-0.390704
N78	N	-0.000086	-0.891944	-0.113620
H79	H	-0.000078	-0.839505	-0.150627
H80	H	-0.058776	-0.889122	-0.074455
H81	H	0.436557	-1.167158	0.013564
H82	H	0.436629	-0.946338	0.233534
H83	H	0.563132	-1.167154	0.013545
H84	H	-0.000135	-0.635175	-0.023150
N85	N	0.757087	-1.183249	-0.002490
H86	H	0.827783	-1.174021	0.006706
H87	H	0.739660	-1.246676	0.008072
N88	N	-0.000160	-1.230637	-0.157601
H89	H	-0.000164	-1.281421	-0.208014
H90	H	0.058529	-1.234921	-0.119343
N91	N	-0.000073	-0.775585	0.297445
H92	H	-0.058760	-0.813831	0.301807
H93	H	0.058659	-0.813768	0.301763
N94	N	-0.000149	-1.225199	-0.445356
H95	H	-0.000155	-1.275989	-0.495763
H96	H	0.058540	-1.229481	-0.407097
