data_functionalizedCrystal
_audit_creation_method	'MofGen! by Chris Wilmer'
_symmetry_space_group_name_H-M	'P1'
_symmetry_Int_Tables_number	1
_symmetry_cell_setting	triclinic
loop_
_symmetry_equiv_pos_as_xyz
  x,y,z
_cell_length_a	16.959455
_cell_length_b	19.120786
_cell_length_c	16.959447
_cell_angle_alpha	87.526589
_cell_angle_beta	89.983277
_cell_angle_gamma	92.464014
loop_
_atom_site_label
_atom_site_type_symbol
_atom_site_fract_x
_atom_site_fract_y
_atom_site_fract_z
Zn1	Zn	1.194930	-0.279637	-0.433516
Zn2	Zn	1.694930	0.220363	0.066484
Zn3	Zn	1.189201	-0.397105	-0.295690
Zn4	Zn	1.689201	0.102895	0.204310
Zn5	Zn	1.062757	-0.279663	-0.301347
Zn6	Zn	1.562757	0.220337	0.198653
Zn7	Zn	1.057074	-0.397056	-0.427826
Zn8	Zn	1.557074	0.102944	0.072174
O9	O	1.125991	-0.338365	-0.364595
O10	O	1.625991	0.161635	0.135405
O11	O	1.304781	-0.295228	-0.415247
O12	O	1.804781	0.204772	0.084753
O13	O	1.172409	-0.381557	-0.185828
O14	O	1.672409	0.118443	0.314172
O15	O	1.085066	-0.181369	-0.323628
O16	O	1.585066	0.318631	0.176372
O17	O	1.300571	-0.381532	-0.313987
O18	O	1.800571	0.118468	0.186013
O19	O	1.182173	-0.181350	-0.420732
O20	O	1.682173	0.318650	0.079268
O21	O	1.079511	-0.295273	-0.189984
O22	O	1.579511	0.204727	0.310016
O23	O	0.951393	-0.295226	-0.318110
O24	O	1.451393	0.204774	0.181890
O25	O	1.075380	-0.381449	-0.539193
O26	O	1.575380	0.118551	-0.039193
O27	O	0.947218	-0.381474	-0.411034
O28	O	1.447218	0.118526	0.088966
O29	O	1.176662	-0.295181	-0.543374
O30	O	1.676662	0.204819	-0.043374
O31	O	1.166898	-0.495389	-0.308470
O32	O	1.666898	0.004611	0.191530
O33	O	1.069825	-0.495353	-0.405549
O34	O	1.569825	0.004647	0.094451
C35	C	0.920625	-0.338348	-0.364569
C36	C	1.420625	0.161652	0.135431
C37	C	0.832768	-0.338358	-0.364576
C38	C	1.332768	0.161642	0.135424
C39	C	0.793648	-0.293388	-0.316279
C40	C	1.293648	0.206612	0.183721
C41	C	0.789335	-0.383333	-0.412884
C42	C	1.289335	0.116667	0.087116
C43	C	0.706788	-0.383341	-0.412895
C44	C	1.206788	0.116659	0.087105
C45	C	0.667668	-0.338371	-0.364598
C46	C	1.167668	0.161629	0.135402
C47	C	0.711094	-0.293393	-0.316290
C48	C	1.211094	0.206607	0.183710
C49	C	0.663357	-0.428313	-0.461208
C50	C	1.163357	0.071687	0.038792
C51	C	0.580805	-0.428322	-0.461222
C52	C	1.080805	0.071678	0.038778
C53	C	0.541683	-0.383356	-0.412920
C54	C	1.041683	0.116644	0.087080
C55	C	0.585114	-0.338376	-0.364610
C56	C	1.085114	0.161624	0.135390
C57	C	0.545994	-0.293407	-0.316313
C58	C	1.045994	0.206593	0.183687
C59	C	0.589423	-0.248431	-0.267997
C60	C	1.089423	0.251569	0.232003
C61	C	0.671972	-0.248427	-0.267988
C62	C	1.171972	0.251573	0.232012
C63	C	0.459135	-0.383360	-0.412929
C64	C	0.959135	0.116640	0.087071
C65	C	0.463440	-0.293412	-0.316324
C66	C	0.963440	0.206588	0.183676
C67	C	1.117145	-0.520857	-0.355795
C68	C	1.617145	-0.020857	0.144205
C69	C	1.113432	-0.598927	-0.352057
C70	C	1.613432	-0.098927	0.147943
C71	C	1.162209	-0.635535	-0.400899
C72	C	1.662209	-0.135535	0.099101
C73	C	1.158718	-0.708890	-0.397388
C74	C	1.658718	-0.208890	0.102612
C75	C	1.106454	-0.745637	-0.345031
C76	C	1.606454	-0.245637	0.154969
C77	C	1.057672	-0.709025	-0.296187
C78	C	1.557672	-0.209025	0.203813
C79	C	1.061159	-0.635670	-0.299703
C80	C	1.561159	-0.135670	0.200297
C81	C	1.093392	-0.967123	-0.331889
C82	C	1.593392	-0.467123	0.168111
C83	C	1.089910	-1.040483	-0.328376
C84	C	1.589910	-0.540483	0.171624
C85	C	1.190955	-1.040343	-0.429578
C86	C	1.690955	-0.540343	0.070422
C87	C	1.194442	-0.966988	-0.433086
C88	C	1.694442	-0.466988	0.066914
C89	C	1.145657	-0.930381	-0.384245
C90	C	1.645657	-0.430381	0.115755
C91	C	1.102886	-0.820618	-0.341439
C92	C	1.602886	-0.320618	0.158561
C93	C	1.149222	-0.855402	-0.387841
C94	C	1.649222	-0.355402	0.112159
C95	C	1.332158	-0.338382	-0.364621
C96	C	1.832158	0.161618	0.135379
C97	C	1.420014	-0.338390	-0.364632
C98	C	1.920014	0.161610	0.135368
C99	C	1.126026	-0.338307	-0.570766
C100	C	1.626026	0.161693	-0.070766
C101	C	1.126042	-0.338282	-0.658624
C102	C	1.626042	0.161718	-0.158624
C103	C	1.134893	-0.155161	-0.373446
C104	C	1.634893	0.344839	0.126554
C105	C	1.138686	-0.077090	-0.377218
C106	C	1.638686	0.422910	0.122782
C107	C	1.073406	-0.383124	-1.027929
C108	C	1.573406	0.116876	-0.527929
C109	C	1.178873	-0.293292	-1.032277
C110	C	1.678873	0.206708	-0.532277
C111	C	1.178851	-0.293307	-0.949731
C112	C	1.678851	0.206693	-0.449731
C113	C	1.126107	-0.338232	-0.906279
C114	C	1.626107	0.161768	-0.406279
C115	C	1.073385	-0.383141	-0.945374
C116	C	1.573385	0.116859	-0.445374
C117	C	1.231578	-0.248404	-0.910629
C118	C	1.731578	0.251596	-0.410629
C119	C	1.231558	-0.248417	-0.828077
C120	C	1.731558	0.251583	-0.328077
C121	C	1.178810	-0.293339	-0.784625
C122	C	1.678810	0.206661	-0.284625
C123	C	1.126085	-0.338250	-0.823725
C124	C	1.626085	0.161750	-0.323725
C125	C	1.073341	-0.383174	-0.780273
C126	C	1.573341	0.116826	-0.280273
C127	C	1.020612	-0.428082	-0.819372
C128	C	1.520612	0.071918	-0.319372
C129	C	1.020636	-0.428063	-0.901922
C130	C	1.520636	0.071937	-0.401922
C131	C	1.178786	-0.293358	-0.702075
C132	C	1.678786	0.206642	-0.202075
C133	C	1.073319	-0.383192	-0.697719
C134	C	1.573319	0.116808	-0.197719
C135	C	1.126003	-0.338372	-0.159228
C136	C	1.626003	0.161628	0.340772
C137	C	1.126150	-0.338199	-0.071380
C138	C	1.626150	0.161801	0.428620
H139	H	0.545452	-0.464946	-0.500563
H140	H	1.045452	0.035054	-0.000563
H141	H	1.204772	-0.605620	-0.443531
H142	H	1.704772	-0.105620	0.056469
H143	H	0.695215	-0.464923	-0.500532
H144	H	1.195215	0.035077	-0.000532
H145	H	1.191772	-0.825480	-0.430473
H146	H	1.691772	-0.325480	0.069527
H147	H	1.198443	-0.738693	-0.437155
H148	H	1.698443	-0.238693	0.062845
H149	H	1.047346	-1.070400	-0.285739
H150	H	1.547346	-0.570400	0.214261
H151	H	0.557561	-0.211813	-0.228678
H152	H	1.057561	0.288187	0.271322
H153	H	0.423778	-0.419974	-0.452272
H154	H	0.923778	0.080026	0.047728
H155	H	0.431594	-0.256793	-0.276993
H156	H	0.931594	0.243207	0.223007
H157	H	0.707339	-0.211809	-0.228653
H158	H	1.207339	0.288191	0.271347
H159	H	1.237000	-0.937070	-0.475719
H160	H	1.737000	-0.437070	0.024281
H161	H	1.030361	-0.419769	-0.662347
H162	H	1.530361	0.080231	-0.162347
H163	H	1.030473	-0.419685	-1.059767
H164	H	1.530473	0.080315	-0.559767
H165	H	1.053671	-0.937324	-0.292119
H166	H	1.553671	-0.437324	0.207881
H167	H	1.274523	-0.211833	-0.946013
H168	H	1.774523	0.288167	-0.446013
H169	H	1.221719	-0.256796	-0.670244
H170	H	1.721719	0.243204	-0.170244
H171	H	0.829011	-0.256772	-0.276939
H172	H	1.329011	0.243228	0.223061
H173	H	1.230672	-1.070156	-0.469343
H174	H	1.730672	-0.570156	0.030657
H175	H	0.821192	-0.419942	-0.452209
H176	H	1.321192	0.080058	0.047791
H177	H	1.015114	-0.738950	-0.253560
H178	H	1.515114	-0.238950	0.246440
H179	H	0.977671	-0.464663	-0.783983
H180	H	1.477671	0.035337	-0.283983
H181	H	1.221819	-0.256721	-1.067660
H182	H	1.721819	0.243279	-0.567660
H183	H	0.977709	-0.464627	-0.933763
H184	H	1.477709	0.035373	-0.433763
H185	H	1.274494	-0.211850	-0.796250
H186	H	1.774494	0.288150	-0.296250
H187	H	1.021439	-0.605865	-0.259931
H188	H	1.521439	-0.105865	0.240069
H189	H	1.060334	-0.850546	-0.298808
H190	H	1.560334	-0.350546	0.201192
