data_functionalizedCrystal
_audit_creation_method	'MofGen! by Chris Wilmer'
_symmetry_space_group_name_H-M	'P1'
_symmetry_Int_Tables_number	1
_symmetry_cell_setting	triclinic
loop_
_symmetry_equiv_pos_as_xyz
  x,y,z
_cell_length_a	11.169417
_cell_length_b	18.101397
_cell_length_c	11.169409
_cell_angle_alpha	90.039881
_cell_angle_beta	90.019824
_cell_angle_gamma	90.021344
loop_
_atom_site_label
_atom_site_type_symbol
_atom_site_fract_x
_atom_site_fract_y
_atom_site_fract_z
Zn1	Zn	1.834878	-0.294752	0.678480
Zn2	Zn	2.334878	0.205248	1.178480
Zn3	Zn	1.834732	-0.418619	0.477770
Zn4	Zn	2.334732	0.081381	0.977770
Zn5	Zn	1.634164	-0.294797	0.477814
Zn6	Zn	2.134164	0.205203	0.977814
Zn7	Zn	1.634136	-0.418558	0.678415
Zn8	Zn	2.134136	0.081442	1.178415
O9	O	1.734477	-0.356682	0.578120
O10	O	2.234477	0.143318	1.078120
O11	O	2.002808	-0.311190	0.651864
O12	O	2.502808	0.188810	1.151864
O13	O	1.808077	-0.402238	0.309826
O14	O	2.308077	0.097762	0.809826
O15	O	1.660862	-0.191159	0.504478
O16	O	2.160862	0.308841	1.004478
O17	O	2.002701	-0.402194	0.504404
O18	O	2.502701	0.097806	1.004404
O19	O	1.808326	-0.191125	0.651907
O20	O	2.308326	0.308875	1.151907
O21	O	1.660720	-0.311267	0.309859
O22	O	2.160720	0.188733	0.809859
O23	O	1.466210	-0.311208	0.504416
O24	O	1.966210	0.188792	1.004416
O25	O	1.660814	-0.402091	0.846374
O26	O	2.160814	0.097909	1.346374
O27	O	1.466190	-0.402135	0.651796
O28	O	1.966190	0.097865	1.151796
O29	O	1.808298	-0.311131	0.846421
O30	O	2.308298	0.188869	1.346421
O31	O	1.808049	-0.522244	0.504341
O32	O	2.308049	-0.022244	1.004341
O33	O	1.660672	-0.522199	0.651754
O34	O	2.160672	-0.022199	1.151754
C35	C	1.422653	-0.356670	0.578104
C36	C	1.922653	0.143330	1.078104
C37	C	1.289253	-0.356683	0.578126
C38	C	1.789253	0.143317	1.078126
C39	C	1.734375	-0.549092	0.578062
C40	C	2.234375	-0.049092	1.078062
C41	C	1.734440	-0.631406	0.578077
C42	C	2.234440	-0.131406	1.078077
C43	C	1.734594	-0.930497	0.578186
C44	C	2.234594	-0.430497	1.078186
C45	C	1.827061	-0.899169	0.485190
C46	C	2.327061	-0.399169	0.985190
C47	C	1.827381	-0.813551	0.485431
C48	C	2.327381	-0.313551	0.985431
C49	C	1.734518	-0.782115	0.578131
C50	C	2.234518	-0.282115	1.078131
C51	C	1.768813	-0.813109	0.704636
C52	C	2.268813	-0.313109	1.204636
C53	C	1.769528	-0.898754	0.704129
C54	C	2.269528	-0.398754	1.204129
C55	C	1.607585	-0.899011	0.545773
C56	C	2.107585	-0.399011	1.045773
C57	C	1.608212	-0.813361	0.542949
C58	C	2.108212	-0.313361	1.042949
C59	C	1.734473	-0.698255	0.578108
C60	C	2.234473	-0.198255	1.078108
C61	C	1.734642	-1.014357	0.578218
C62	C	2.234642	-0.514357	1.078218
C63	C	2.047520	-0.356693	0.578136
C64	C	2.547520	0.143307	1.078136
C65	C	2.180920	-0.356699	0.578143
C66	C	2.680920	0.143301	1.078143
C67	C	1.734569	-0.356599	0.891162
C68	C	2.234569	0.143401	1.391162
C69	C	1.734609	-0.356564	1.024563
C70	C	2.234609	0.143436	1.524563
C71	C	1.734613	-0.163520	0.578205
C72	C	2.234613	0.336480	1.078205
C73	C	1.734671	-0.081206	0.578241
C74	C	2.234671	0.418794	1.078241
C75	C	1.734455	-0.356710	0.266295
C76	C	2.234455	0.143290	0.766295
C77	C	1.734648	-0.356537	0.132896
C78	C	2.234648	0.143463	0.632896
H79	H	1.805924	-0.792599	0.391629
H80	H	2.305924	-0.292599	0.891629
H81	H	1.582353	-0.793113	0.449852
H82	H	2.082353	-0.293113	0.949852
H83	H	1.921462	-0.793004	0.506876
H84	H	2.421462	-0.293004	1.006876
H85	H	1.860611	-0.791598	0.732558
H86	H	2.360611	-0.291598	1.232558
H87	H	1.920627	-0.920634	0.506389
H88	H	2.420627	-0.420634	1.006389
H89	H	1.538690	-0.919270	0.613507
H90	H	2.038690	-0.419270	1.113507
H91	H	1.805863	-0.919822	0.391107
H92	H	2.305863	-0.419822	0.891107
H93	H	1.576387	-0.920681	0.455126
H94	H	2.076387	-0.420681	0.955126
H95	H	1.705130	-0.919474	0.775807
H96	H	2.205130	-0.419474	1.275807
H97	H	1.862366	-0.918669	0.731587
H98	H	2.362366	-0.418669	1.231587
H99	H	1.703524	-0.792743	0.775789
H100	H	2.203524	-0.292743	1.275789
H101	H	1.535611	-0.791970	0.605724
H102	H	2.035611	-0.291970	1.105724
