data_functionalizedCrystal
_audit_creation_method	'MofGen! by Chris Wilmer'
_symmetry_space_group_name_H-M	'P1'
_symmetry_Int_Tables_number	1
_symmetry_cell_setting	triclinic
loop_
_symmetry_equiv_pos_as_xyz
  x,y,z
_cell_length_a	11.026660
_cell_length_b	12.811415
_cell_length_c	9.482900
_cell_angle_alpha	94.039455
_cell_angle_beta	78.636107
_cell_angle_gamma	96.258766
loop_
_atom_site_label
_atom_site_type_symbol
_atom_site_fract_x
_atom_site_fract_y
_atom_site_fract_z
O1	O	1.639883	0.421142	-0.176423
O2	O	1.285310	0.371743	-0.169911
O3	O	1.468427	0.247423	-0.153514
O4	O	1.456766	0.545462	-0.192820
O5	O	1.431235	0.272805	0.084931
O6	O	1.248118	0.397124	0.068534
O7	O	1.602691	0.446524	0.062022
Cu8	Cu	1.422009	0.424142	0.087050
Cu9	Cu	1.465992	0.394125	-0.194939
O10	O	1.419575	0.570844	0.045625
C11	C	1.221270	0.375320	-0.049487
C12	C	1.085859	0.348152	-0.045906
C13	C	0.874026	0.395097	-0.052101
C14	C	1.013979	0.423179	-0.055802
C15	C	1.448037	0.221365	-0.029185
C16	C	1.442679	0.105903	-0.013967
C17	C	1.473140	-0.138729	-0.245352
C18	C	1.468106	-0.247217	-0.231061
C19	C	1.427570	-0.219563	0.028907
C20	C	1.432604	-0.111075	0.014616
C21	C	1.455391	-0.070663	-0.122519
C22	C	1.460433	0.037828	-0.136809
C23	C	1.419888	0.065479	0.123158
C24	C	1.414855	-0.043008	0.137449
C25	C	1.666732	0.442946	-0.058405
C26	C	1.802144	0.470113	-0.061996
C27	C	1.439964	0.596901	-0.078708
C28	C	1.445324	0.712362	-0.093935
N29	N	1.391082	0.445255	0.285385
N30	N	1.496929	0.373005	-0.393274
C31	C	1.456862	0.400345	0.363508
C32	C	1.431139	0.417922	0.528607
H33	H	1.043810	0.263123	-0.034789
O34	O	0.852113	0.571595	-0.075315
C35	C	0.814950	0.750845	-0.099049
C36	C	0.758200	0.635961	-0.083936
H37	H	0.739054	0.802913	-0.106054
H38	H	0.858313	0.778008	-0.001416
H39	H	0.889530	0.756649	-0.200978
H40	H	0.683574	0.630069	0.017936
H41	H	0.714919	0.608849	-0.181643
O42	O	1.064058	0.524648	-0.068928
C43	C	1.063219	0.702359	0.032847
C44	C	1.006413	0.587487	0.047907
H45	H	1.016618	0.753200	0.127277
H46	H	1.167143	0.707005	0.032330
H47	H	1.047892	0.731925	-0.072292
H48	H	1.021647	0.557848	0.153038
H49	H	0.902508	0.582907	0.048340
H50	H	1.396297	-0.075928	0.249100
O51	O	1.402438	0.131624	0.242450
C52	C	1.279391	0.262351	0.378207
C53	C	1.298985	0.187475	0.243072
H54	H	1.195767	0.307543	0.378739
H55	H	1.262158	0.214870	0.478717
H56	H	1.365814	0.320129	0.377158
H57	H	1.212598	0.129682	0.243981
H58	H	1.316273	0.235025	0.142622
O59	O	1.482523	0.076909	-0.270121
C60	C	1.522260	0.038029	-0.526465
C61	C	1.497229	-0.006368	-0.375573
H62	H	1.534183	-0.029277	-0.611763
H63	H	1.440589	0.081742	-0.538904
H64	H	1.610635	0.094510	-0.540429
H65	H	1.408894	-0.062890	-0.361506
H66	H	1.578969	-0.050018	-0.363203
O67	O	1.546776	0.338883	0.297731
C68	C	1.704904	0.231002	0.327647
C69	C	1.603092	0.300564	0.402320
H70	H	1.750482	0.200020	0.412171
H71	H	1.661700	0.162056	0.265530
H72	H	1.777968	0.279502	0.249932
H73	H	1.529995	0.252154	0.480102
H74	H	1.646386	0.369515	0.464344
H75	H	1.315718	0.496712	0.340728
H76	H	1.491705	-0.105825	-0.357013
O77	O	1.485416	-0.313187	-0.350530
C78	C	1.526039	-0.329172	-0.609890
C79	C	1.506499	-0.254340	-0.474707
H80	H	1.543064	-0.281626	-0.710320
H81	H	1.609763	-0.374298	-0.610662
H82	H	1.439658	-0.387011	-0.608756
H83	H	1.592811	-0.196438	-0.475751
H84	H	1.422725	-0.209290	-0.473986
H85	H	0.831951	0.310087	-0.040869
H86	H	1.409008	-0.252487	0.140556
O87	O	1.341066	0.479177	0.594566
C88	C	1.123602	0.505874	0.637885
C89	C	1.225479	0.436400	0.563134
H90	H	1.030130	0.471327	0.612475
H91	H	1.118765	0.509092	0.759296
H92	H	1.146514	0.588689	0.597140
H93	H	1.202639	0.353551	0.603761
H94	H	1.230293	0.433270	0.441732
H95	H	1.572289	0.321536	0.551390
