data_functionalizedCrystal
_audit_creation_method	'MofGen! by Chris Wilmer'
_symmetry_space_group_name_H-M	'P1'
_symmetry_Int_Tables_number	1
_symmetry_cell_setting	triclinic
loop_
_symmetry_equiv_pos_as_xyz
  x,y,z
_cell_length_a	19.851628
_cell_length_b	18.426585
_cell_length_c	19.851628
_cell_angle_alpha	120.004177
_cell_angle_beta	89.998763
_cell_angle_gamma	59.997326
loop_
_atom_site_label
_atom_site_type_symbol
_atom_site_fract_x
_atom_site_fract_y
_atom_site_fract_z
Zr1	Zr	0.648971	0.794281	0.088301
O2	O	0.541400	0.945711	0.195877
O3	O	0.681947	0.642873	0.055326
O4	O	0.681942	0.794294	0.195865
O5	O	0.541408	0.794273	-0.055525
O6	O	0.792804	0.794280	0.195851
O7	O	0.541405	0.794290	0.055338
O8	O	0.792813	0.523415	-0.055546
O9	O	0.541399	1.065138	0.195873
O10	O	0.778746	0.705131	0.041249
O11	O	0.696013	0.705129	-0.041477
O12	O	0.696008	0.883408	0.123989
O13	O	0.613275	0.883405	0.041263
Zr14	Zr	0.825788	0.794232	-0.088535
Zr15	Zr	0.825782	0.794259	0.088279
Zr16	Zr	0.648976	0.794254	-0.088513
Zr17	Zr	0.648970	0.984753	0.088294
Zr18	Zr	0.825789	0.603760	-0.088528
O19	O	0.792811	0.945640	-0.055561
O20	O	0.792803	0.945679	0.195846
O21	O	0.541408	0.945672	-0.055530
O22	O	0.933359	0.642802	-0.196111
O23	O	0.933351	0.642841	0.055296
O24	O	0.681955	0.642834	-0.196080
O25	O	0.933350	0.794240	0.055291
O26	O	0.792816	0.794219	-0.196099
O27	O	0.681954	0.794233	-0.196086
O28	O	0.933354	0.794223	-0.055573
O29	O	0.681941	1.065120	0.195855
O30	O	0.792817	0.523393	-0.196090
O31	O	0.933359	0.523376	-0.196107
O32	O	0.933355	0.523397	-0.055563
O33	O	0.541404	1.065116	0.055329
O34	O	0.681945	1.065098	0.055312
O35	O	0.778751	0.705106	-0.124223
O36	O	0.861483	0.705108	-0.041497
O37	O	0.778745	0.883384	0.041243
O38	O	0.696013	0.883382	-0.041483
C39	C	0.737380	0.556006	-0.000109
C40	C	0.737381	0.475146	-0.000106
C41	C	0.737376	0.179036	-0.000130
C42	C	0.737375	0.261423	-0.000125
C43	C	0.737378	0.327089	-0.000118
C44	C	0.737378	0.409480	-0.000114
C45	C	0.516215	0.794285	-0.000090
C46	C	0.441153	0.794294	-0.000081
C47	C	0.214696	0.891475	0.045004
C48	C	0.192334	0.842894	0.077697
C49	C	0.303747	0.794268	-0.000105
C50	C	0.192368	0.842855	-0.032782
C51	C	0.171015	0.794249	-0.000127
C52	C	0.282373	0.745686	0.032633
C53	C	0.282405	0.745660	-0.077889
C54	C	0.260096	0.697009	-0.045216
C55	C	0.380209	0.794281	-0.000090
C56	C	0.094558	0.794228	-0.000141
C57	C	0.958544	0.794229	-0.000144
C58	C	1.033605	0.794219	-0.000153
C59	C	0.737373	0.794291	0.221050
C60	C	0.737370	0.794302	0.296113
C61	C	0.737378	1.032507	-0.000125
C62	C	0.737378	1.113368	-0.000128
C63	C	0.692253	0.891497	0.567472
C64	C	0.659551	0.842928	0.500016
C65	C	0.737367	0.794277	0.566265
C66	C	0.770031	0.842888	0.500004
C67	C	0.737367	0.794295	0.433533
C68	C	0.704621	0.745708	0.499797
C69	C	0.815143	0.745682	0.499795
C70	C	0.782461	0.697043	0.432326
C71	C	0.737365	0.794270	0.642730
C72	C	0.737368	0.794295	0.357066
C73	C	0.737380	0.794236	0.778722
C74	C	0.737366	0.794266	0.703679
C75	C	0.958545	0.555978	-0.000136
C76	C	1.033607	0.475108	-0.000142
C77	C	0.737387	0.555972	-0.221276
C78	C	0.737390	0.475100	-0.296336
C79	C	0.958552	0.555944	-0.221303
C80	C	1.033616	0.475062	-0.296372
C81	C	0.516207	1.032570	0.221069
C82	C	0.441143	1.113451	0.296137
C83	C	0.516214	1.032535	-0.000099
C84	C	0.441152	1.113405	-0.000092
C85	C	0.737371	1.032542	0.221042
C86	C	0.737369	1.113413	0.296101
C87	C	1.025668	0.437143	0.043055
C88	C	1.096190	0.361168	0.043066
C89	C	1.174649	0.323154	-0.000126
C90	C	1.182586	0.361127	-0.043325
C91	C	1.112065	0.437106	-0.043330
C92	C	0.780579	0.437110	-0.374784
C93	C	0.780579	0.361133	-0.445317
C94	C	0.737393	0.323142	-0.437400
C95	C	0.694198	0.361140	-0.358943
C96	C	0.694195	0.437121	-0.288412
C97	C	1.112059	0.437081	-0.288443
C98	C	1.182597	0.361095	-0.358971
C99	C	1.174688	0.323087	-0.437427
C100	C	1.096236	0.361076	-0.445355
C101	C	1.025701	0.437065	-0.374827
C102	C	0.362699	1.151442	0.288208
C103	C	0.292162	1.227451	0.358736
C104	C	0.300070	1.265463	0.437193
C105	C	0.378522	1.227469	0.445120
C106	C	0.449058	1.151467	0.374593
C107	C	0.449090	1.151378	-0.043282
C108	C	0.378569	1.227374	-0.043273
C109	C	0.300110	1.265391	-0.000079
C110	C	0.292173	1.227414	0.043116
C111	C	0.362694	1.151425	0.043112
C112	C	0.780563	1.151380	0.288158
C113	C	0.780576	1.227357	0.358677
C114	C	0.737391	1.265372	0.437140
C115	C	0.694195	1.227398	0.445082
C116	C	0.694187	1.151417	0.374563
H117	H	0.196243	0.973669	0.083206
H118	H	0.961789	0.468093	0.078237
C119	C	0.828079	1.109566	0.201854
C120	C	0.875598	1.151331	0.193134
C121	C	0.923123	1.109517	0.106833
C122	C	0.923129	1.025937	0.029253
C123	C	0.875609	0.984166	0.037971
C124	C	0.828084	1.025981	0.124272
H125	H	0.875594	1.213207	0.250565
H126	H	0.958301	1.140438	0.100380
H127	H	0.958310	0.994983	-0.034632
H128	H	0.875612	0.922291	-0.019461
H129	H	0.792906	0.995059	0.130725
C130	C	0.807358	0.898404	0.499127
C131	C	0.885270	0.840346	0.427811
C132	C	0.922589	0.895869	0.426940
C133	C	0.881996	1.009450	0.497386
C134	C	0.804079	1.067514	0.568707
C135	C	0.766760	1.011991	0.569578
H136	H	0.915323	0.756261	0.375658
H137	H	0.980268	0.852886	0.374143
H138	H	0.909621	1.050552	0.496741
H139	H	0.774026	1.151600	0.620860
H140	H	0.709081	1.054975	0.622375
H141	H	0.815750	1.258267	0.352194
H142	H	1.089810	0.330118	-0.509243
H143	H	1.232130	0.261211	-0.494848
C144	C	0.334637	0.690241	0.070066
C145	C	0.415762	0.680046	0.077029
C146	C	0.468023	0.624606	0.114464
C147	C	0.439160	0.579362	0.144936
C148	C	0.358031	0.589556	0.137975
C149	C	0.305769	0.644996	0.100539
H150	H	0.437131	0.713539	0.054470
H151	H	0.528081	0.617060	0.119617
H152	H	0.477848	0.538322	0.172648
H153	H	0.336661	0.556063	0.160533
H154	H	0.245712	0.652542	0.095386
H155	H	0.961831	0.467980	-0.381295
H156	H	0.278704	0.614748	-0.083364
H157	H	0.321215	0.704605	-0.143647
C158	C	0.139904	0.898397	0.166550
C159	C	0.122498	0.840318	0.190546
C160	C	0.070071	0.895826	0.279400
C161	C	0.035051	1.009414	0.344257
C162	C	0.052457	1.067499	0.320262
C163	C	0.104884	1.011991	0.231408
H164	H	0.148422	0.756228	0.142534
H165	H	0.057186	0.852827	0.297163
H166	H	-0.003758	1.050504	0.410032
H167	H	0.026533	1.151589	0.368274
H168	H	0.117769	1.054991	0.213645
H169	H	0.356244	1.120496	0.224332
C170	C	0.205863	1.269230	0.090617
C171	C	0.145490	1.384160	0.160671
C172	C	0.059177	1.425972	0.208163
C173	C	0.033237	1.352854	0.185602
C174	C	0.093611	1.237917	0.115545
C175	C	0.179924	1.196105	0.068052
H176	H	0.164691	1.438293	0.177375
H177	H	0.014485	1.511056	0.260024
H178	H	-0.030657	1.383805	0.220759
H179	H	0.074410	1.183785	0.098840
H180	H	0.224616	1.111021	0.016191
H181	H	0.153568	0.883950	-0.060409
H182	H	1.089711	0.330260	0.078243
H183	H	0.512928	1.120535	0.381059
C184	C	0.646688	1.269230	0.531396
C185	C	0.692992	1.258801	0.591757
C186	C	0.645480	1.300642	0.678073
C187	C	0.551664	1.352912	0.704029
C188	C	0.505355	1.363344	0.643667
C189	C	0.552867	1.321502	0.557351
H190	H	0.762445	1.220106	0.572544
H191	H	0.679762	1.292920	0.722757
H192	H	0.516493	1.383886	0.767926
H193	H	0.435902	1.402039	0.662880
H194	H	0.518585	1.329225	0.512667
C195	C	0.205873	1.269225	0.350003
C196	C	0.145504	1.384136	0.386585
C197	C	0.059217	1.425906	0.377849
C198	C	0.033300	1.352763	0.332530
C199	C	0.093670	1.237845	0.295945
C200	C	0.179956	1.196075	0.304681
H201	H	0.164688	1.438287	0.420136
H202	H	0.014527	1.510977	0.404932
H203	H	-0.030575	1.383684	0.326063
H204	H	0.074485	1.183694	0.262395
H205	H	0.224646	1.111005	0.277598
H206	H	0.654055	0.973684	0.625331
H207	H	1.232065	0.261287	-0.000116
H208	H	0.659038	0.330197	-0.352509
H209	H	0.820605	0.614787	0.374562
H210	H	0.676911	0.704666	0.500387
C211	C	0.646660	1.109670	0.383310
C212	C	0.599153	1.151500	0.469620
C213	C	0.551623	1.109757	0.478374
C214	C	0.551598	1.026186	0.400817
C215	C	0.599106	0.984351	0.314501
C216	C	0.646637	1.026093	0.305747
H217	H	0.599170	1.213369	0.527038
H218	H	0.516454	1.140727	0.542272
H219	H	0.516413	0.995286	0.407297
H220	H	0.599090	0.922482	0.257083
H221	H	0.681805	0.995124	0.241849
C222	C	1.268896	0.319292	-0.090843
C223	C	1.329264	0.329719	-0.044549
C224	C	1.415577	0.287873	-0.092074
C225	C	1.441521	0.235600	-0.185891
C226	C	1.381152	0.225171	-0.232190
C227	C	1.294839	0.267017	-0.184666
H228	H	1.310060	0.368417	0.024905
H229	H	1.460267	0.295593	-0.057800
H230	H	1.505415	0.204623	-0.221072
H231	H	1.400356	0.186473	-0.301644
H232	H	1.250150	0.259296	-0.218939
H233	H	0.242629	1.327349	0.494614
H234	H	0.880904	0.704621	0.500481
H235	H	1.118540	0.468007	-0.078511
H236	H	0.815756	0.330204	-0.509193
H237	H	0.593777	0.884025	0.499361
H238	H	0.384951	1.258429	0.509008
H239	H	0.815746	0.468033	-0.381247
C240	C	0.646690	0.478897	-0.202119
C241	C	0.599194	0.437097	-0.193420
C242	C	0.551686	0.478870	-0.107129
C243	C	0.551673	0.562443	-0.029536
C244	C	0.599170	0.604249	-0.038232
C245	C	0.646679	0.562476	-0.124524
H246	H	0.599202	0.375227	-0.250861
H247	H	0.516525	0.447923	-0.100692
H248	H	0.516504	0.593366	0.034342
H249	H	0.599162	0.666119	0.019209
H250	H	0.681839	0.593423	-0.130961
H251	H	0.512969	1.120431	-0.078461
H252	H	0.385047	1.258282	-0.078451
H253	H	0.737403	0.261274	-0.494838
H254	H	1.118514	0.468016	-0.224566
C255	C	1.268886	0.319311	-0.350236
C256	C	1.329256	0.204391	-0.386846
C257	C	1.415542	0.162610	-0.378108
C258	C	1.441457	0.235749	-0.332762
C259	C	1.381086	0.350676	-0.296149
C260	C	1.294800	0.392457	-0.304886
H261	H	1.310073	0.150244	-0.420417
H262	H	1.460233	0.077533	-0.405212
H263	H	1.505331	0.204820	-0.326294
H264	H	1.400269	0.404824	-0.262578
H265	H	1.250109	0.477534	-0.277783
C266	C	0.353953	1.109646	0.090612
C267	C	0.267647	1.151462	0.138113
C268	C	0.258899	1.109687	0.185615
C269	C	0.336458	1.026096	0.185616
C270	C	0.422771	0.984275	0.138112
C271	C	0.431518	1.026050	0.090610
H272	H	0.210227	1.213346	0.138115
H273	H	0.195004	1.140646	0.220780
H274	H	0.329982	0.995171	0.220779
H275	H	0.480190	0.922391	0.138111
H276	H	0.495413	0.995091	0.055445
H277	H	0.242694	1.327266	-0.000082
H278	H	0.737404	1.327241	0.494554
