data_functionalizedCrystal
_audit_creation_method	'MofGen! by Chris Wilmer'
_symmetry_space_group_name_H-M	'P1'
_symmetry_Int_Tables_number	1
_symmetry_cell_setting	triclinic
loop_
_symmetry_equiv_pos_as_xyz
  x,y,z
_cell_length_a	19.077692
_cell_length_b	14.908782
_cell_length_c	19.076919
_cell_angle_alpha	84.290601
_cell_angle_beta	85.342111
_cell_angle_gamma	84.311083
loop_
_atom_site_label
_atom_site_type_symbol
_atom_site_fract_x
_atom_site_fract_y
_atom_site_fract_z
Zn1	Zn	-0.356305	1.379384	0.350043
Zn2	Zn	-0.469952	1.390974	0.236391
Zn3	Zn	-0.345291	1.233713	0.238490
Zn4	Zn	-0.467846	1.233652	0.361059
O5	O	-0.409848	1.309431	0.296496
O6	O	-0.376871	1.507725	0.329478
O7	O	-0.449687	1.374988	0.137811
O8	O	-0.247901	1.248211	0.249556
O9	O	-0.460367	1.516240	0.245979
O10	O	-0.255993	1.355235	0.331513
O11	O	-0.358100	1.259449	0.139353
O12	O	-0.356057	1.106901	0.260238
O13	O	-0.456778	1.248108	0.458456
O14	O	-0.446098	1.106857	0.350288
O15	O	-0.374829	1.355177	0.450363
O16	O	-0.568524	1.374930	0.256661
O17	O	-0.566976	1.259346	0.348253
C18	C	-0.399655	1.074001	0.306686
C19	C	-0.395311	0.973282	0.311063
C20	C	-0.593383	1.318413	0.303439
C21	C	-0.671904	1.322337	0.306429
C22	C	-0.473965	0.792888	0.232198
C23	C	-0.469886	0.698255	0.236309
C24	C	-0.383079	0.689381	0.323398
C25	C	-0.387158	0.784014	0.319288
C26	C	-0.432601	0.835765	0.273685
C27	C	-0.436676	0.930400	0.269572
C28	C	-0.349873	0.921524	0.356664
C29	C	-0.345795	0.826890	0.360775
C30	C	-0.704644	1.268513	0.265132
C31	C	-0.778424	1.272210	0.267944
C32	C	-0.819462	1.329726	0.312058
C33	C	-0.786716	1.383556	0.353357
C34	C	-0.712938	1.379864	0.350541
C35	C	-1.040560	1.346742	0.325058
C36	C	-1.114343	1.350429	0.327873
C37	C	-1.106045	1.239083	0.242459
C38	C	-1.032266	1.235392	0.239649
C39	C	-0.999527	1.289226	0.280945
N40	N	-0.894876	1.333504	0.314936
N41	N	-0.924114	1.285452	0.278064
C42	C	-0.225599	1.300437	0.289540
C43	C	-0.147083	1.296605	0.286576
C44	C	-0.416797	1.300343	0.480759
C45	C	-0.419758	1.296470	0.559281
C46	C	-0.420083	1.545780	0.286266
C47	C	-0.424444	1.646498	0.281906
C48	C	-0.402878	1.318533	0.112945
C49	C	-0.399725	1.322571	0.034408
C50	C	-0.378485	1.350393	0.591958
C51	C	-0.381264	1.346743	0.665739
C52	C	-0.425321	1.289174	0.706840
C53	C	-0.466596	1.235246	0.674158
C54	C	-0.463812	1.238892	0.600379
C55	C	-0.438217	1.272288	0.927947
C56	C	-0.440999	1.268649	1.001731
C57	C	-0.355666	1.380145	0.993307
C58	C	-0.352890	1.383789	0.919527
C59	C	-0.394162	1.329858	0.886851
N60	N	-0.428164	1.285444	0.782255
N61	N	-0.391314	1.333584	0.811437
H62	H	-0.510962	0.835025	0.195062
C63	C	-0.305045	0.968245	0.401682
C64	C	-0.318353	1.062197	0.388335
C65	C	-0.277076	1.105266	0.429795
H66	H	-0.256489	0.951010	0.390335
H67	H	-0.316586	0.950972	0.450212
H68	H	-0.306807	1.079463	0.339816
H69	H	-0.366901	1.079458	0.399685
H70	H	-0.288618	1.087993	0.478326
H71	H	-0.228523	1.088024	0.418446
H72	H	-0.286105	1.169017	0.420750
H73	H	-0.671235	1.221673	0.229213
C74	C	-0.336352	1.405127	0.701251
C75	C	-0.290434	1.349512	0.744094
C76	C	-0.249036	1.403262	0.776808
H77	H	-0.366082	1.444520	0.729404
H78	H	-0.309677	1.439913	0.666223
H79	H	-0.317106	1.314742	0.779118
H80	H	-0.260689	1.310120	0.715958
H81	H	-0.222362	1.438048	0.741779
H82	H	-0.278771	1.442653	0.804957
H83	H	-0.217871	1.365535	0.805875
H84	H	-0.503569	0.663349	0.202527
C85	C	-0.330718	1.412868	0.547214
C86	C	-0.337125	1.404539	0.475607
C87	C	-0.293136	1.462084	0.434370
H88	H	-0.283110	1.396748	0.558001
H89	H	-0.344152	1.473682	0.557022
H90	H	-0.323687	1.343739	0.465803
H91	H	-0.384724	1.420667	0.464798
H92	H	-0.306570	1.522897	0.444177
H93	H	-0.245530	1.445958	0.445163
H94	H	-0.297482	1.456446	0.385780
C95	C	-0.813838	1.213665	0.223080
C96	C	-0.762107	1.162483	0.183862
C97	C	-0.794703	1.108531	0.142530
H98	H	-0.842943	1.251217	0.191857
H99	H	-0.841927	1.174218	0.252876
H100	H	-0.734030	1.201925	0.154070
H101	H	-0.732999	1.124914	0.215068
H102	H	-0.822793	1.069085	0.172325
H103	H	-0.823808	1.146090	0.111311
H104	H	-0.759609	1.073792	0.115921
C105	C	-0.987836	1.172932	0.191673
C106	C	-1.032301	1.126606	0.156090
C107	C	-0.991397	1.069070	0.111880
H108	H	-0.958367	1.130573	0.219203
H109	H	-0.959402	1.207695	0.158279
H110	H	-1.060722	1.091846	0.189480
H111	H	-1.061769	1.168942	0.128547
H112	H	-0.962963	1.103833	0.078486
H113	H	-0.961930	1.026717	0.139416
H114	H	-1.021560	1.037638	0.087727
H115	H	-0.686282	1.423694	0.384169
C116	C	-1.005153	1.405225	0.369974
C117	C	-1.056885	1.456365	0.409223
C118	C	-1.024292	1.510244	0.450615
H119	H	-0.977054	1.444703	0.340239
H120	H	-0.976056	1.367599	0.401176
H121	H	-1.085970	1.493988	0.378024
H122	H	-1.084987	1.416909	0.438971
H123	H	-0.995195	1.472618	0.481816
H124	H	-0.996195	1.549717	0.420874
H125	H	-1.059387	1.544942	0.477254
H126	H	-1.132709	1.195256	0.208837
C127	C	-0.333735	0.633343	0.372982
C128	C	-0.298395	0.691144	0.408453
C129	C	-0.252943	0.639555	0.454145
H130	H	-0.300248	0.596218	0.346527
H131	H	-0.360368	0.596273	0.406382
H132	H	-0.271764	0.728199	0.375058
H133	H	-0.331864	0.728270	0.434921
H134	H	-0.279576	0.602485	0.487544
H135	H	-0.219461	0.602432	0.427684
H136	H	-0.228964	0.678765	0.478222
H137	H	-1.147754	1.397253	0.363810
H138	H	-0.476876	1.221767	1.035194
C139	C	-0.310880	1.438585	1.028917
C140	C	-0.322730	1.423056	1.102326
C141	C	-0.281474	1.476866	1.135153
H142	H	-0.323356	1.500601	1.014666
H143	H	-0.262374	1.423589	1.015647
H144	H	-0.371226	1.438059	1.115591
H145	H	-0.310250	1.361051	1.116598
H146	H	-0.232968	1.461869	1.121883
H147	H	-0.293954	1.538879	1.120896
H148	H	-0.289504	1.466331	1.184964
H149	H	-0.502465	1.188369	0.707629
H150	H	-0.820135	1.430391	0.389273
C151	C	-0.483095	1.213685	0.892609
C152	C	-0.522281	1.162503	0.944397
C153	C	-0.563633	1.108506	0.911867
H154	H	-0.453341	1.174232	0.864527
H155	H	-0.514331	1.251234	0.863501
H156	H	-0.491048	1.124957	0.973493
H157	H	-0.552049	1.201933	0.972482
H158	H	-0.594869	1.146055	0.882759
H159	H	-0.533874	1.069059	0.883786
H160	H	-0.590230	1.073779	0.947000
H161	H	-0.497414	1.194973	0.573775
H162	H	-0.308798	0.784742	0.397905
C163	C	-0.486085	0.986431	0.220049
C164	C	-0.521452	0.928621	0.184613
C165	C	-0.566983	0.980201	0.138996
H166	H	-0.459529	1.023538	0.186621
H167	H	-0.519548	1.023519	0.246576
H168	H	-0.487993	0.891549	0.158087
H169	H	-0.548021	0.891513	0.218022
H170	H	-0.600446	1.017289	0.165523
H171	H	-0.540422	1.017306	0.105572
H172	H	-0.590990	0.940985	0.114951
H173	H	-0.317016	1.430670	0.886066
