data_functionalizedCrystal
_audit_creation_method	'MofGen! by Chris Wilmer'
_symmetry_space_group_name_H-M	'P1'
_symmetry_Int_Tables_number	1
_symmetry_cell_setting	triclinic
loop_
_symmetry_equiv_pos_as_xyz
  x,y,z
_cell_length_a	13.031981
_cell_length_b	13.033304
_cell_length_c	13.032268
_cell_angle_alpha	89.077769
_cell_angle_beta	90.931652
_cell_angle_gamma	76.681394
loop_
_atom_site_label
_atom_site_type_symbol
_atom_site_fract_x
_atom_site_fract_y
_atom_site_fract_z
Zn1	Zn	-0.323901	-1.463148	0.735861
Zn2	Zn	-0.473496	-1.468583	0.542799
Zn3	Zn	-0.318400	-1.313608	0.542808
Zn4	Zn	-0.516887	-1.270104	0.686717
O5	O	-0.408171	-1.378861	0.627046
O6	O	-0.327888	-1.609515	0.730814
O7	O	-0.432461	-1.468506	0.401777
O8	O	-0.173456	-1.349377	0.588988
O9	O	-0.437796	-1.613509	0.588973
O10	O	-0.177498	-1.459243	0.730823
O11	O	-0.318513	-1.354647	0.401784
O12	O	-0.360587	-1.162190	0.541335
O13	O	-0.511748	-1.275231	0.834259
O14	O	-0.506414	-1.130228	0.647064
O15	O	-0.369962	-1.417059	0.870365
O16	O	-0.624926	-1.426322	0.541319
O17	O	-0.656804	-1.280501	0.647055
C18	C	-0.437612	-1.108445	0.588868
C19	C	-0.450236	-0.992753	0.572555
C20	C	-0.401596	-0.939174	0.635544
C21	C	-0.414642	-0.819601	0.618686
C22	C	-0.678637	-1.349305	0.588879
C23	C	-0.794337	-1.336752	0.572598
C24	C	-0.847850	-1.385465	0.635571
C25	C	-0.967433	-1.372491	0.618746
C26	C	-0.136649	-1.408556	0.665388
C27	C	-0.020943	-1.421211	0.681728
C28	C	-0.446309	-1.340686	0.889901
C29	C	-0.462561	-1.324418	1.001913
C30	C	-0.378609	-0.650334	0.665368
C31	C	-0.365996	-0.766024	0.681683
C32	C	-0.370100	-1.416955	0.365234
C33	C	-0.353533	-1.433457	0.253291
C34	C	-0.399653	-1.387339	1.069717
C35	C	-0.416449	-1.370527	1.185488
H36	H	-0.465944	-0.776953	0.552272
Br37	Br	-0.573047	-1.213875	1.048003
Br38	Br	-0.865525	-1.251219	0.461980
Br39	Br	-0.289131	-1.497846	1.023627
Br40	Br	-0.535734	-0.921677	0.461859
Br41	Br	-0.526941	-1.259979	1.231572
H42	H	-0.287232	-1.499772	1.225638
H43	H	-0.978233	-1.472520	0.748106
H44	H	-0.805137	-1.436770	0.701945
Br45	Br	-0.280469	-0.837098	0.792368
Br46	Br	-0.316081	-1.010254	0.746228
H47	H	-1.010147	-1.321173	0.552375
