data_functionalizedCrystal
_audit_creation_method	'MofGen! by Chris Wilmer'
_symmetry_space_group_name_H-M	'P1'
_symmetry_Int_Tables_number	1
_symmetry_cell_setting	triclinic
loop_
_symmetry_equiv_pos_as_xyz
  x,y,z
_cell_length_a	21.295417
_cell_length_b	17.077404
_cell_length_c	17.077396
_cell_angle_alpha	89.980301
_cell_angle_beta	90.033192
_cell_angle_gamma	89.972425
loop_
_atom_site_label
_atom_site_type_symbol
_atom_site_fract_x
_atom_site_fract_y
_atom_site_fract_z
Zn1	Zn	-0.250658	-1.200013	0.443821
Zn2	Zn	0.249342	-0.700013	0.943821
Zn3	Zn	-0.355931	-1.199903	0.312544
Zn4	Zn	0.144069	-0.699903	0.812544
Zn5	Zn	-0.250675	-1.068745	0.312569
Zn6	Zn	0.249325	-0.568745	0.812569
Zn7	Zn	-0.355888	-1.068695	0.443767
Zn8	Zn	0.144112	-0.568695	0.943767
O9	O	-0.303288	-1.134339	0.378175
O10	O	0.196712	-0.634339	0.878175
O11	O	-0.264634	-1.309845	0.426419
O12	O	0.235366	-0.809845	0.926419
O13	O	-0.341994	-1.182479	0.202701
O14	O	0.158006	-0.682479	0.702701
O15	O	-0.162583	-1.086225	0.330012
O16	O	0.337417	-0.586225	0.830012
O17	O	-0.341978	-1.309764	0.329971
O18	O	0.158022	-0.809764	0.829971
O19	O	-0.162571	-1.182667	0.426443
O20	O	0.337429	-0.682667	0.926443
O21	O	-0.264662	-1.086118	0.202718
O22	O	0.235338	-0.586118	0.702718
O23	O	-0.264620	-0.958891	0.329960
O24	O	0.235380	-0.458891	0.829960
O25	O	-0.341904	-1.086140	0.553622
O26	O	0.158096	-0.586140	1.053622
O27	O	-0.341920	-0.958855	0.426351
O28	O	0.158080	-0.458855	0.926351
O29	O	-0.264593	-1.182619	0.553661
O30	O	0.235407	-0.682619	1.053661
O31	O	-0.444015	-1.182431	0.329919
O32	O	0.055985	-0.682431	0.829919
O33	O	-0.443983	-1.086033	0.426328
O34	O	0.056017	-0.586033	0.926328
C35	C	-0.303268	-0.930391	0.378153
C36	C	0.196732	-0.430391	0.878153
C37	C	-0.303274	-0.843141	0.378162
C38	C	0.196726	-0.343141	0.878162
C39	C	-0.263073	-0.802194	0.428458
C40	C	0.236927	-0.302194	0.928458
C41	C	-0.263076	-0.720214	0.428460
C42	C	0.236924	-0.220214	0.928460
C43	C	-0.303284	-0.679182	0.378169
C44	C	0.196716	-0.179182	0.878169
C45	C	-0.343487	-0.720135	0.327867
C46	C	0.156513	-0.220135	0.827867
C47	C	-0.343481	-0.802114	0.327862
C48	C	0.156519	-0.302114	0.827862
C49	C	-0.343500	-0.549265	0.327882
C50	C	0.156500	-0.049265	0.827882
C51	C	-0.343507	-0.467280	0.327888
C52	C	0.156493	0.032720	0.827888
C53	C	-0.263094	-0.467365	0.428481
C54	C	0.236906	0.032635	0.928481
C55	C	-0.263088	-0.549344	0.428476
C56	C	0.236912	-0.049344	0.928476
C57	C	-0.303292	-0.590291	0.378175
C58	C	0.196708	-0.090291	0.878175
C59	C	-0.466840	-1.134236	0.378132
C60	C	0.033160	-0.634236	0.878132
C61	C	-0.536808	-1.134264	0.378140
C62	C	-0.036808	-0.634264	0.878140
C63	C	-0.569670	-1.184503	0.327991
C64	C	-0.069670	-0.684503	0.827991
C65	C	-0.635413	-1.184539	0.328008
C66	C	-0.135413	-0.684539	0.828008
C67	C	-0.668290	-1.134323	0.378167
C68	C	-0.168290	-0.634323	0.878167
C69	C	-0.635420	-1.084081	0.428325
C70	C	-0.135420	-0.584081	0.928325
C71	C	-0.569679	-1.084051	0.428312
C72	C	-0.069679	-0.584051	0.928312
N73	N	-0.771553	-1.065655	0.384143
N74	N	-0.271553	-0.565655	0.884143
N75	N	-0.834005	-1.065685	0.384152
N76	N	-0.334005	-0.565685	0.884152
C77	C	-0.866365	-1.134411	0.378212
C78	C	-0.366365	-0.634411	0.878212
N79	N	-0.833915	-1.203107	0.372248
N80	N	-0.333915	-0.703107	0.872248
N81	N	-0.771458	-1.203076	0.372235
N82	N	-0.271458	-0.703076	0.872235
C83	C	-0.739576	-1.134350	0.378187
C84	C	-0.239576	-0.634350	0.878187
C85	C	-0.970513	-1.184694	0.328079
C86	C	-0.470513	-0.684694	0.828079
C87	C	-1.036257	-1.184732	0.328102
C88	C	-0.536257	-0.684732	0.828102
C89	C	-1.036263	-1.084267	0.428415
C90	C	-0.536263	-0.584267	0.928415
C91	C	-0.970520	-1.084236	0.428396
C92	C	-0.470520	-0.584236	0.928396
C93	C	-0.937649	-1.134448	0.378224
C94	C	-0.437649	-0.634448	0.878224
C95	C	-0.139098	-1.134464	0.378236
C96	C	0.360902	-0.634464	0.878236
C97	C	-0.069130	-1.134517	0.378262
C98	C	0.430870	-0.634517	0.878262
C99	C	-0.303242	-1.134386	0.582920
C100	C	0.196758	-0.634386	1.082920
C101	C	-0.303222	-1.134407	0.670170
C102	C	0.196778	-0.634407	1.170170
C103	C	-0.303306	-0.339083	0.378192
C104	C	0.196694	0.160917	0.878192
C105	C	-0.303306	-0.426333	0.378185
C106	C	0.196694	0.073667	0.878185
C107	C	-0.303289	-1.134337	0.174228
C108	C	0.196711	-0.634337	0.674228
C109	C	-0.303131	-1.134469	0.086978
C110	C	0.196869	-0.634469	0.586978
C111	C	-0.262962	-1.184645	0.711182
C112	C	0.237038	-0.684645	1.211182
C113	C	-0.262941	-1.184654	0.793162
C114	C	0.237059	-0.684654	1.293162
C115	C	-0.303184	-1.134429	0.834129
C116	C	0.196816	-0.634429	1.334129
C117	C	-0.343445	-1.084185	0.793111
C118	C	0.156555	-0.584185	1.293111
C119	C	-0.343463	-1.084172	0.711132
C120	C	0.156537	-0.584172	1.211132
C121	C	-0.343407	-1.084217	0.963982
C122	C	0.156593	-0.584217	1.463982
C123	C	-0.343391	-1.084231	1.045966
C124	C	0.156609	-0.584231	1.545966
C125	C	-0.262886	-1.184699	1.046011
C126	C	0.237114	-0.684699	1.546011
C127	C	-0.262904	-1.184686	0.964032
C128	C	0.237096	-0.684686	1.464032
C129	C	-0.303166	-1.134443	0.923020
C130	C	0.196834	-0.634443	1.423020
H131	H	-0.542909	-1.225390	0.287140
H132	H	-0.042909	-0.725390	0.787140
H133	H	-0.230332	-0.835596	0.469414
H134	H	0.269668	-0.335596	0.969414
H135	H	-0.376249	-0.433874	0.286937
H136	H	0.123751	0.066126	0.786937
H137	H	-0.230350	-0.582750	0.469432
H138	H	0.269650	-0.082750	0.969432
H139	H	-0.376237	-0.582602	0.286920
H140	H	0.123763	-0.082602	0.786920
H141	H	-0.230160	-1.225565	0.826550
H142	H	0.269840	-0.725565	1.326550
H143	H	-0.230194	-1.225547	0.677832
H144	H	0.269806	-0.725547	1.177832
H145	H	-0.376209	-1.043288	0.826473
H146	H	0.123791	-0.543288	1.326473
C147	C	-0.218869	-0.422326	0.483809
C148	C	0.281131	0.077674	0.983809
H149	H	-0.224625	-0.367626	0.476605
H150	H	0.275375	0.132374	0.976605
H151	H	-0.228137	-0.435778	0.536528
H152	H	0.271863	0.064222	1.036528
H153	H	-0.176558	-0.435779	0.472417
H154	H	0.323442	0.064221	0.972417
C155	C	-0.387764	-1.028930	0.666019
C156	C	0.112236	-0.528930	1.166019
H157	H	-0.411737	-0.999029	0.702157
H158	H	0.088263	-0.499029	1.202157
H159	H	-0.363700	-0.994736	0.634033
H160	H	0.136300	-0.494736	1.134033
H161	H	-0.415199	-1.058952	0.634044
H162	H	0.084801	-0.558952	1.134044
H163	H	-0.230138	-1.225588	0.930679
H164	H	0.269862	-0.725588	1.430679
H165	H	-1.063012	-1.225648	0.287267
H166	H	-0.563012	-0.725648	0.787267
C167	C	-0.218855	-0.675175	0.483788
C168	C	0.281145	-0.175175	0.983788
H169	H	-0.194913	-0.711353	0.513745
H170	H	0.305087	-0.211353	1.013745
H171	H	-0.191397	-0.643197	0.453828
H172	H	0.308603	-0.143197	0.953828
H173	H	-0.242977	-0.643197	0.517938
H174	H	0.257023	-0.143197	1.017938
H175	H	-0.230102	-1.225607	1.079407
H176	H	0.269898	-0.725607	1.579407
C177	C	-0.387717	-0.675006	0.272546
C178	C	0.112283	-0.175006	0.772546
H179	H	-0.411656	-0.711136	0.242586
H180	H	0.088344	-0.211136	0.742586
H181	H	-0.415179	-0.643026	0.302513
H182	H	0.084821	-0.143026	0.802513
H183	H	-0.363602	-0.643023	0.238399
H184	H	0.136398	-0.143023	0.738399
H185	H	-0.376159	-1.043331	1.079319
H186	H	0.123841	-0.543331	1.579319
H187	H	-0.376217	-0.835452	0.286905
H188	H	0.123783	-0.335452	0.786905
C189	C	-1.072420	-1.029034	0.483592
C190	C	-0.572420	-0.529034	0.983592
H191	H	-1.116281	-1.036244	0.476417
H192	H	-0.616281	-0.536244	0.976417
H193	H	-1.061605	-1.040488	0.536341
H194	H	-0.561605	-0.540488	1.036341
H195	H	-1.061691	-0.976290	0.472050
H196	H	-0.561691	-0.476290	0.972050
H197	H	-0.662174	-1.225453	0.287171
H198	H	-0.162174	-0.725453	0.787171
C199	C	-0.934370	-1.028963	0.483550
C200	C	-0.434370	-0.528963	0.983550
H201	H	-0.963365	-0.999055	0.513421
H202	H	-0.463365	-0.499055	1.013421
H203	H	-0.908681	-1.058955	0.517775
H204	H	-0.408681	-0.558955	1.017775
H205	H	-0.908769	-0.994764	0.453477
H206	H	-0.408769	-0.494764	0.953477
H207	H	-0.376184	-1.043291	0.930592
H208	H	0.123816	-0.543291	1.430592
H209	H	-0.662194	-1.043196	0.469166
H210	H	-0.162194	-0.543196	0.969166
H211	H	-0.542922	-1.043140	0.469150
H212	H	-0.042922	-0.543140	0.969150
H213	H	-0.943748	-1.225583	0.287229
H214	H	-0.443748	-0.725583	0.787229
