data_functionalizedCrystal
_audit_creation_method	'MofGen! by Chris Wilmer'
_symmetry_space_group_name_H-M	'P1'
_symmetry_Int_Tables_number	1
_symmetry_cell_setting	triclinic
loop_
_symmetry_equiv_pos_as_xyz
  x,y,z
_cell_length_a	15.995300
_cell_length_b	15.995292
_cell_length_c	13.930277
_cell_angle_alpha	89.998637
_cell_angle_beta	89.991196
_cell_angle_gamma	83.470212
loop_
_atom_site_label
_atom_site_type_symbol
_atom_site_fract_x
_atom_site_fract_y
_atom_site_fract_z
O1	O	1.110993	0.107728	-0.079859
O2	O	0.867209	0.121100	-0.079853
O3	O	0.995790	-0.007478	-0.079857
O4	O	0.982411	0.236306	-0.079854
O5	O	0.995772	-0.007481	0.079804
O6	O	0.867191	0.121097	0.079809
O7	O	1.110975	0.107725	0.079803
Zn8	Zn	0.989080	0.114411	0.105156
Zn9	Zn	0.989104	0.114415	-0.105206
O10	O	0.982394	0.236304	0.079808
C11	C	0.836005	0.120553	-0.000021
C12	C	0.743052	0.118918	-0.000019
C13	C	0.572870	0.115899	-0.000026
C14	C	0.525385	0.207449	-0.000023
C15	C	0.428698	0.205779	-0.000387
C16	C	0.405314	0.112927	-0.000032
C17	C	0.446466	0.067507	-0.091028
C18	C	0.543099	0.069824	-0.091102
C19	C	0.543358	0.068465	0.090470
C20	C	0.446414	0.068473	0.091664
C21	C	0.310619	0.111242	-0.000039
C22	C	0.667565	0.117580	-0.000026
C23	C	0.995237	-0.038675	-0.000029
C24	C	0.993604	-0.131627	-0.000036
C25	C	0.987603	-0.469365	-0.000027
C26	C	1.080409	-0.446069	0.000327
C27	C	1.082173	-0.349394	-0.000036
C28	C	0.990581	-0.301809	-0.000031
C29	C	0.944192	-0.330901	-0.091202
C30	C	0.943075	-0.427691	-0.091274
C31	C	0.941159	-0.427551	0.090291
C32	C	0.944599	-0.331059	0.091492
C33	C	0.992259	-0.207114	-0.000036
C34	C	0.985922	-0.564060	-0.000028
C35	C	1.142179	0.108272	-0.000031
C36	C	1.235131	0.109907	-0.000040
C37	C	0.982947	0.267500	-0.000023
C38	C	0.984579	0.360453	-0.000022
N39	N	0.989070	0.114408	0.248722
N40	N	0.989120	0.114411	-0.248772
C41	C	0.932166	0.171327	0.700993
C42	C	1.046065	0.057496	0.700958
C43	C	1.046055	0.057493	0.600463
C44	C	0.989100	0.114409	0.550228
C45	C	0.932156	0.171327	0.600488
C46	C	1.103004	0.000582	0.550194
C47	C	1.102997	0.000577	0.449692
C48	C	1.046038	0.057490	0.399456
C49	C	0.989090	0.114410	0.449723
C50	C	0.932136	0.171326	0.399488
C51	C	0.875183	0.228242	0.449753
C52	C	0.875196	0.228240	0.550251
C53	C	1.046025	0.057492	0.298957
C54	C	0.932126	0.171326	0.298983
H55	H	0.418082	0.098648	-0.159001
H56	H	1.116174	-0.474074	0.065709
Cl57	Cl	0.803608	0.299789	0.613444
H58	H	0.872847	-0.441529	0.090909
H59	H	0.876792	-0.299021	-0.094587
Cl60	Cl	0.424721	-0.037828	-0.095866
Cl61	Cl	0.860517	0.242878	0.235838
H62	H	0.419060	0.101642	0.158983
Cl63	Cl	0.993950	-0.299943	-0.195963
H64	H	0.431089	0.000778	0.097426
Cl65	Cl	0.996741	-0.302399	0.195630
H66	H	0.970378	-0.455646	0.159398
Cl67	Cl	0.841377	-0.280142	0.100001
Cl68	Cl	1.174606	-0.070961	0.613344
Cl69	Cl	1.174589	-0.070975	0.386509
H70	H	0.563844	0.098605	0.159462
Cl71	Cl	0.803592	0.299796	0.386589
H72	H	1.092440	0.011161	0.741863
H73	H	1.118733	-0.330995	-0.065507
H74	H	1.092398	0.011155	0.258036
Cl75	Cl	0.385697	0.260643	-0.101685
H76	H	0.875029	-0.442229	-0.095401
Cl77	Cl	1.135347	-0.490875	-0.100054
Cl78	Cl	0.592463	-0.035740	0.091835
Cl79	Cl	1.138245	-0.320026	0.100878
Cl80	Cl	0.992706	-0.469105	-0.196496
Cl81	Cl	0.592952	-0.033965	-0.097101
H82	H	0.400219	0.241468	0.064827
H83	H	0.885794	0.217665	0.741922
H84	H	0.544993	0.243694	-0.065177
Cl85	Cl	0.554435	0.264482	0.100285
H86	H	0.561419	0.102560	-0.159379
