data_functionalizedCrystal
_audit_creation_method	'MofGen! by Chris Wilmer'
_symmetry_space_group_name_H-M	'P1'
_symmetry_Int_Tables_number	1
_symmetry_cell_setting	triclinic
loop_
_symmetry_equiv_pos_as_xyz
  x,y,z
_cell_length_a	19.805399
_cell_length_b	18.215407
_cell_length_c	18.215405
_cell_angle_alpha	89.968971
_cell_angle_beta	90.029242
_cell_angle_gamma	89.986462
loop_
_atom_site_label
_atom_site_type_symbol
_atom_site_fract_x
_atom_site_fract_y
_atom_site_fract_z
Zn1	Zn	-0.382603	1.125064	0.292881
Zn2	Zn	-0.049270	1.458398	0.626214
Zn3	Zn	0.284064	1.791731	0.959547
Zn4	Zn	-0.269411	1.124975	0.415949
Zn5	Zn	0.063922	1.458308	0.749283
Zn6	Zn	0.397255	1.791642	1.082616
Zn7	Zn	-0.269439	1.001999	0.292914
Zn8	Zn	0.063894	1.335332	0.626248
Zn9	Zn	0.397227	1.668666	0.959581
Zn10	Zn	-0.382570	1.001963	0.415923
Zn11	Zn	-0.049237	1.335296	0.749257
Zn12	Zn	0.284097	1.668629	1.082590
O13	O	-0.326006	1.063500	0.354417
O14	O	0.007327	1.396834	0.687750
O15	O	0.340661	1.730167	1.021084
O16	O	-0.367590	1.228037	0.309203
O17	O	-0.034256	1.561370	0.642536
O18	O	0.299077	1.894703	0.975870
O19	O	-0.174698	1.108640	0.399653
O20	O	0.158635	1.441973	0.732987
O21	O	0.491968	1.775306	1.066320
O22	O	-0.284476	1.018377	0.189926
O23	O	0.048857	1.351710	0.523259
O24	O	0.382190	1.685043	0.856592
O25	O	-0.284428	1.227971	0.399621
O26	O	0.048905	1.561304	0.732954
O27	O	0.382238	1.894638	1.066287
O28	O	-0.367617	1.108792	0.189901
O29	O	-0.034284	1.442125	0.523234
O30	O	0.299050	1.775459	0.856568
O31	O	-0.174719	1.018290	0.309260
O32	O	0.158614	1.351623	0.642593
O33	O	0.491948	1.684957	0.975927
O34	O	-0.284444	0.899010	0.309235
O35	O	0.048889	1.232343	0.642568
O36	O	0.382222	1.565677	0.975901
O37	O	-0.477291	1.018315	0.399577
O38	O	-0.143958	1.351648	0.732910
O39	O	0.189376	1.684981	1.066243
O40	O	-0.367561	0.898983	0.399609
O41	O	-0.034228	1.232317	0.732942
O42	O	0.299106	1.565650	1.066276
O43	O	-0.477315	1.108757	0.309178
O44	O	-0.143982	1.442090	0.642511
O45	O	0.189352	1.775423	0.975844
O46	O	-0.284397	1.108604	0.518930
O47	O	0.048937	1.441938	0.852263
O48	O	0.382270	1.775271	1.185597
O49	O	-0.367534	1.018228	0.518911
O50	O	-0.034200	1.351561	0.852244
O51	O	0.299133	1.684895	1.185578
C52	C	-0.325973	1.063423	0.545623
C53	C	0.007360	1.396756	0.878957
C54	C	0.340693	1.730089	1.212290
C55	C	-0.325982	1.063457	0.627422
C56	C	0.007351	1.396790	0.960755
C57	C	0.340685	1.730123	1.294089
C58	C	-0.326003	0.872294	0.354423
C59	C	0.007331	1.205627	0.687757
C60	C	0.340664	1.538961	1.021090
C61	C	-0.326017	0.790495	0.354444
C62	C	0.007316	1.123828	0.687777
C63	C	0.340649	1.457162	1.021110
C64	C	-0.502549	1.063542	0.354371
C65	C	-0.169215	1.396875	0.687704
C66	C	0.164118	1.730208	1.021037
C67	C	-0.577781	1.063559	0.354351
C68	C	-0.244447	1.396892	0.687684
C69	C	0.088886	1.730226	1.021017
C70	C	-0.613139	1.110653	0.307278
C71	C	-0.279805	1.443987	0.640611
C72	C	0.053528	1.777320	0.973944
C73	C	-0.683827	1.110661	0.307256
C74	C	-0.350494	1.443994	0.640590
C75	C	-0.017160	1.777328	0.973923
C76	C	-0.719156	1.063577	0.354312
C77	C	-0.385823	1.396911	0.687646
C78	C	-0.052490	1.730244	1.020979
C79	C	-0.683794	1.016478	0.401387
C80	C	-0.350460	1.349811	0.734721
C81	C	-0.017127	1.683145	1.068054
C82	C	-0.613106	1.016467	0.401404
C83	C	-0.279773	1.349801	0.734738
C84	C	0.053560	1.683134	1.068071
C85	C	-0.968867	1.016519	0.401319
C86	C	-0.635534	1.349853	0.734652
C87	C	-0.302200	1.683186	1.067985
C88	C	-1.039559	1.016535	0.401300
C89	C	-0.706226	1.349869	0.734633
C90	C	-0.372893	1.683202	1.067966
C91	C	-1.039588	1.110713	0.307171
C92	C	-0.706254	1.444047	0.640504
C93	C	-0.372921	1.777380	0.973837
C94	C	-0.968900	1.110703	0.307188
C95	C	-0.635567	1.444036	0.640521
C96	C	-0.302234	1.777369	0.973854
C97	C	-0.933544	1.063601	0.354260
C98	C	-0.600211	1.396934	0.687593
C99	C	-0.266877	1.730267	1.020926
C100	C	-0.856895	1.063592	0.354281
C101	C	-0.523562	1.396925	0.687615
C102	C	-0.190229	1.730259	1.020948
C103	C	-0.795804	1.063589	0.354295
C104	C	-0.462470	1.396923	0.687628
C105	C	-0.129137	1.730256	1.020962
C106	C	-0.150150	1.063501	0.354410
C107	C	0.183183	1.396835	0.687743
C108	C	0.516517	1.730168	1.021077
C109	C	-0.074918	1.063627	0.354222
C110	C	0.258415	1.396960	0.687556
C111	C	0.591748	1.730293	1.020889
C112	C	-0.326010	1.255453	0.354411
C113	C	0.007324	1.588786	0.687744
C114	C	0.340657	1.922120	1.021078
C115	C	-0.326011	1.337252	0.354408
C116	C	0.007322	1.670585	0.687742
C117	C	0.340655	2.003919	1.021075
C118	C	-0.369312	1.525481	0.307349
C119	C	-0.035979	1.858815	0.640683
C120	C	0.297355	2.192148	0.974016
C121	C	-0.369315	1.602340	0.307356
C122	C	-0.035981	1.935673	0.640690
C123	C	0.297352	2.269007	0.974023
C124	C	-0.282715	1.602260	0.401508
C125	C	0.050619	1.935594	0.734841
C126	C	0.383952	2.268927	1.068175
C127	C	-0.282716	1.525403	0.401504
C128	C	0.050618	1.858736	0.734838
C129	C	0.383951	2.192070	1.068171
C130	C	-0.326014	1.487016	0.354421
C131	C	0.007320	1.820349	0.687754
C132	C	0.340653	2.153682	1.021087
C133	C	-0.326015	1.640732	0.354431
C134	C	0.007318	1.974065	0.687765
C135	C	0.340652	2.307398	1.021098
C136	C	-0.326017	1.724065	0.354439
C137	C	0.007316	2.057399	0.687773
C138	C	0.340649	2.390732	1.021106
C139	C	-0.326012	1.403677	0.354414
C140	C	0.007321	1.737010	0.687747
C141	C	0.340655	2.070343	1.021080
C142	C	-0.326053	1.063598	0.162464
C143	C	0.007280	1.396932	0.495797
C144	C	0.340613	1.730265	0.829131
C145	C	-0.326074	1.063640	0.080665
C146	C	0.007260	1.396973	0.413998
C147	C	0.340593	1.730307	0.747332
C148	C	-0.282772	1.110626	0.815601
C149	C	0.050561	1.443960	1.148935
C150	C	0.383894	1.777293	1.482268
C151	C	-0.282789	1.110659	0.892460
C152	C	0.050545	1.443992	1.225793
C153	C	0.383878	1.777326	1.559127
C154	C	-0.369288	1.016468	0.892480
C155	C	-0.035955	1.349802	1.225814
C156	C	0.297378	1.683135	1.559147
C157	C	-0.369275	1.016440	0.815623
C158	C	-0.035941	1.349773	1.148956
C159	C	0.297392	1.683106	1.482290
C160	C	-0.326013	1.063518	0.777185
C161	C	0.007320	1.396851	1.110519
C162	C	0.340654	1.730184	1.443852
C163	C	-0.326043	1.063579	0.930902
C164	C	0.007291	1.396912	1.264235
C165	C	0.340624	1.730246	1.597568
C166	C	-0.326061	1.063614	1.014235
C167	C	0.007272	1.396948	1.347569
C168	C	0.340606	1.730281	1.680902
C169	C	-0.325996	1.063483	0.693847
C170	C	0.007338	1.396817	1.027180
C171	C	0.340671	1.730150	1.360513
H172	H	-0.584378	1.148997	0.268962
H173	H	-0.251045	1.482330	0.602295
H174	H	0.082288	1.815663	0.935628
Br175	Br	-0.920892	0.952594	0.465201
Br176	Br	-0.587559	1.285927	0.798534
Br177	Br	-0.254225	1.619261	1.131868
H178	H	-0.404568	1.494228	0.269011
H179	H	-0.071234	1.827562	0.602344
H180	H	0.262099	2.160895	0.935677
H181	H	-0.247456	1.494083	0.439840
H182	H	0.085877	1.827417	0.773173
H183	H	0.419210	2.160750	1.106506
Br184	Br	-0.920957	1.174608	0.243328
Br185	Br	-0.587624	1.507941	0.576661
Br186	Br	-0.254290	1.841275	0.909995
Br187	Br	-0.427969	0.952508	0.763482
Br188	Br	-0.094636	1.285842	1.096815
Br189	Br	0.238698	1.619175	1.430149
H190	H	-0.404573	1.633655	0.269027
H191	H	-0.071240	1.966989	0.602360
H192	H	0.262093	2.300322	0.935693
Br193	Br	-0.223954	1.654362	0.465402
Br194	Br	0.109379	1.987696	0.798735
Br195	Br	0.442712	2.321029	1.132069
Br196	Br	-0.224060	1.174517	0.763438
Br197	Br	0.109273	1.507851	1.096772
Br198	Br	0.442606	1.841184	1.430105
H199	H	-0.247579	1.149021	0.923735
H200	H	0.085755	1.482354	1.257068
H201	H	0.419088	1.815687	1.590402
H202	H	-0.404510	0.978138	0.923785
H203	H	-0.071176	1.311472	1.257119
H204	H	0.262157	1.644805	1.590452
H205	H	-0.712612	1.149012	0.268927
H206	H	-0.379279	1.482345	0.602260
H207	H	-0.045946	1.815678	0.935593
Br208	Br	-1.087575	1.174638	0.243285
Br209	Br	-0.754242	1.507971	0.576618
Br210	Br	-0.420909	1.841304	0.909951
Br211	Br	-0.731740	0.952573	0.465245
Br212	Br	-0.398406	1.285907	0.798579
Br213	Br	-0.065073	1.619240	1.131912
H214	H	-0.584319	0.978111	0.439729
H215	H	-0.250986	1.311444	0.773062
H216	H	0.082348	1.644777	1.106395
Br217	Br	-1.087506	0.952633	0.465167
Br218	Br	-0.754173	1.285966	0.798500
Br219	Br	-0.420840	1.619300	1.131833
