data_functionalizedCrystal
_audit_creation_method	'MofGen! by Chris Wilmer'
_symmetry_space_group_name_H-M	'P1'
_symmetry_Int_Tables_number	1
_symmetry_cell_setting	triclinic
loop_
_symmetry_equiv_pos_as_xyz
  x,y,z
_cell_length_a	16.625548
_cell_length_b	16.625545
_cell_length_c	16.959447
_cell_angle_alpha	89.970073
_cell_angle_beta	89.984572
_cell_angle_gamma	90.026626
loop_
_atom_site_label
_atom_site_type_symbol
_atom_site_fract_x
_atom_site_fract_y
_atom_site_fract_z
Zn1	Zn	1.232622	-0.320963	-0.446934
Zn2	Zn	1.732622	0.179037	0.053066
Zn3	Zn	1.232530	-0.455810	-0.314757
Zn4	Zn	1.732530	0.044190	0.185243
Zn5	Zn	1.097796	-0.320998	-0.314769
Zn6	Zn	1.597796	0.179002	0.185231
Zn7	Zn	1.097747	-0.455760	-0.446893
Zn8	Zn	1.597747	0.044240	0.053107
O9	O	1.165174	-0.388383	-0.380838
O10	O	1.665174	0.111617	0.119162
O11	O	1.345442	-0.338857	-0.429413
O12	O	1.845442	0.161143	0.070587
O13	O	1.214640	-0.437963	-0.204147
O14	O	1.714640	0.062037	0.295853
O15	O	1.115740	-0.208161	-0.332324
O16	O	1.615740	0.291839	0.167676
O17	O	1.345375	-0.437929	-0.332302
O18	O	1.845375	0.062071	0.167698
O19	O	1.214796	-0.208135	-0.429425
O20	O	1.714796	0.291865	0.070575
O21	O	1.115651	-0.338917	-0.204157
O22	O	1.615651	0.161083	0.295843
O23	O	0.984957	-0.338868	-0.332283
O24	O	1.484957	0.161132	0.167717
O25	O	1.115657	-0.437843	-0.557509
O26	O	1.615657	0.062157	-0.057509
O27	O	0.984921	-0.437877	-0.429354
O28	O	1.484921	0.062123	0.070646
O29	O	1.214749	-0.338808	-0.557540
O30	O	1.714749	0.161192	-0.057540
O31	O	1.214592	-0.568636	-0.332262
O32	O	1.714592	-0.068636	0.167738
O33	O	1.115568	-0.568599	-0.429342
O34	O	1.615568	-0.068599	0.070658
C35	C	0.955683	-0.388371	-0.380816
C36	C	1.455683	0.111629	0.119184
C37	C	0.866062	-0.388386	-0.380825
C38	C	1.366062	0.111614	0.119175
C39	C	0.537886	-0.388391	-0.380859
C40	C	1.037886	0.111609	0.119141
C41	C	0.629195	-0.388387	-0.380847
C42	C	1.129195	0.111613	0.119153
C43	C	0.701971	-0.388389	-0.380842
C44	C	1.201971	0.111611	0.119158
C45	C	0.793286	-0.388384	-0.380831
C46	C	1.293286	0.111616	0.119169
C47	C	1.165086	-0.597873	-0.380813
C48	C	1.665086	-0.097873	0.119187
C49	C	1.165123	-0.687495	-0.380829
C50	C	1.665123	-0.187495	0.119171
C51	C	1.165154	-0.760277	-0.380845
C52	C	1.665154	-0.260277	0.119155
C53	C	1.165201	-0.851585	-0.380862
C54	C	1.665201	-0.351585	0.119138
C55	C	1.165243	-0.924362	-0.380872
C56	C	1.665243	-0.424362	0.119128
C57	C	1.165289	-1.015676	-0.380888
C58	C	1.665289	-0.515676	0.119112
C59	C	1.375483	-0.388395	-0.380861
C60	C	1.875483	0.111605	0.119139
C61	C	1.465104	-0.388400	-0.380870
C62	C	1.965104	0.111600	0.119130
C63	C	1.165208	-0.388316	-0.587006
C64	C	1.665208	0.111684	-0.087006
C65	C	1.165222	-0.388287	-0.674863
C66	C	1.665222	0.111713	-0.174863
C67	C	1.165284	-0.178074	-0.380880
C68	C	1.665284	0.321926	0.119120
C69	C	1.165331	-0.088452	-0.380898
C70	C	1.665331	0.411548	0.119102
C71	C	1.113725	-0.439765	-1.046325
C72	C	1.613725	0.060235	-0.546325
C73	C	1.216911	-0.336640	-1.046352
C74	C	1.716911	0.163360	-0.546352
C75	C	1.216890	-0.336657	-0.963806
C76	C	1.716890	0.163343	-0.463806
C77	C	1.165286	-0.388230	-0.922516
C78	C	1.665286	0.111770	-0.422516
C79	C	1.113704	-0.439785	-0.963772
C80	C	1.613704	0.060215	-0.463772
C81	C	1.268476	-0.285108	-0.922545
C82	C	1.768476	0.214892	-0.422545
C83	C	1.268458	-0.285123	-0.839994
C84	C	1.768458	0.214877	-0.339994
C85	C	1.216849	-0.336693	-0.798702
C86	C	1.716849	0.163307	-0.298702
C87	C	1.165265	-0.388250	-0.839963
C88	C	1.665265	0.111750	-0.339963
C89	C	1.113661	-0.439823	-0.798672
C90	C	1.613661	0.060177	-0.298672
C91	C	1.062072	-0.491377	-0.839932
C92	C	1.562072	0.008623	-0.339932
C93	C	1.062096	-0.491355	-0.922480
C94	C	1.562096	0.008645	-0.422480
C95	C	1.216825	-0.336714	-0.716153
C96	C	1.716825	0.163286	-0.216153
C97	C	1.113640	-0.439843	-0.716119
C98	C	1.613640	0.060157	-0.216119
C99	C	1.165187	-0.388391	-0.175472
C100	C	1.665187	0.111609	0.324528
C101	C	1.165329	-0.388192	-0.087616
C102	C	1.665329	0.111808	0.412384
H103	H	1.020060	-0.533371	-0.806302
H104	H	1.520060	-0.033371	-0.306302
H105	H	1.258929	-0.294656	-1.079976
H106	H	1.758929	0.205344	-0.579976
N107	N	1.321188	-0.232445	-0.964732
N108	N	1.821188	0.267555	-0.464732
N109	N	1.321197	-0.232436	-1.038436
N110	N	1.821197	0.267564	-0.538436
H111	H	1.358428	-0.195242	-1.068235
H112	H	1.858428	0.304758	-0.568235
H113	H	1.071610	-0.481834	-0.682506
H114	H	1.571610	0.018166	-0.182506
N115	N	1.321147	-0.232449	-0.797866
N116	N	1.821147	0.267551	-0.297866
N117	N	1.315837	-0.158046	-0.807116
N118	N	1.815837	0.341954	-0.307116
H119	H	1.353048	-0.120841	-0.777364
H120	H	1.853048	0.379159	-0.277364
N121	N	1.009407	-0.544005	-0.964637
N122	N	1.509407	-0.044005	-0.464637
N123	N	1.009438	-0.543980	-1.038341
N124	N	1.509438	-0.043980	-0.538341
H125	H	0.972228	-0.581165	-1.068119
H126	H	1.472228	-0.081165	-0.568119
N127	N	1.061030	-0.492413	-1.088477
N128	N	1.561030	0.007587	-0.588477
N129	N	1.061048	-0.492387	-1.162181
N130	N	1.561048	0.007613	-0.662181
H131	H	1.023831	-0.529570	-1.191953
H132	H	1.523831	-0.029570	-0.691953
H133	H	1.258831	-0.294742	-0.682564
H134	H	1.758831	0.205258	-0.182564
