data_functionalizedCrystal
_audit_creation_method	'MofGen! by Chris Wilmer'
_symmetry_space_group_name_H-M	'P1'
_symmetry_Int_Tables_number	1
_symmetry_cell_setting	triclinic
loop_
_symmetry_equiv_pos_as_xyz
  x,y,z
_cell_length_a	21.295419
_cell_length_b	21.295417
_cell_length_c	14.908662
_cell_angle_alpha	86.735309
_cell_angle_beta	93.317758
_cell_angle_gamma	90.045308
loop_
_atom_site_label
_atom_site_type_symbol
_atom_site_fract_x
_atom_site_fract_y
_atom_site_fract_z
Zn1	Zn	0.982853	-0.270886	0.510063
Zn2	Zn	1.482853	0.229114	1.010063
Zn3	Zn	0.976692	-0.370088	0.359192
Zn4	Zn	1.476692	0.129912	0.859192
Zn5	Zn	0.871514	-0.264865	0.359220
Zn6	Zn	1.371514	0.235135	0.859220
Zn7	Zn	0.877543	-0.376146	0.510002
Zn8	Zn	1.377543	0.123854	1.010002
O9	O	0.927151	-0.320496	0.434619
O10	O	1.427151	0.179504	0.934619
O11	O	1.070126	-0.284030	0.490064
O12	O	1.570126	0.215970	0.990064
O13	O	0.957639	-0.351075	0.232953
O14	O	1.457639	0.148925	0.732953
O15	O	0.886339	-0.177576	0.379267
O16	O	1.386339	0.322424	0.879267
O17	O	1.065600	-0.356913	0.379219
O18	O	1.565600	0.143087	0.879219
O19	O	0.968139	-0.182000	0.490091
O20	O	1.468139	0.318000	0.990091
O21	O	0.880365	-0.273768	0.232974
O22	O	1.380365	0.226232	0.732974
O23	O	0.784224	-0.279642	0.379208
O24	O	1.284224	0.220358	0.879208
O25	O	0.896614	-0.367239	0.636253
O26	O	1.396614	0.132761	1.136253
O27	O	0.788653	-0.361400	0.489986
O28	O	1.288653	0.138600	0.989986
O29	O	0.973985	-0.289905	0.636298
O30	O	1.473985	0.210095	1.136298
O31	O	0.963485	-0.458980	0.379160
O32	O	1.463485	0.041020	0.879160
O33	O	0.890640	-0.463431	0.489959
O34	O	1.390640	0.036569	0.989959
C35	C	0.763598	-0.320526	0.434594
C36	C	1.263598	0.179474	0.934594
C37	C	0.693630	-0.320554	0.434605
C38	C	1.193630	0.179446	0.934605
C39	C	0.663146	-0.282673	0.492410
C40	C	1.163146	0.217327	0.992410
C41	C	0.597404	-0.282657	0.492414
C42	C	1.097404	0.217343	0.992414
C43	C	0.562148	-0.320532	0.434621
C44	C	1.062148	0.179468	0.934621
C45	C	0.592640	-0.358415	0.376804
C46	C	1.092640	0.141585	0.876804
C47	C	0.658381	-0.358426	0.376796
C48	C	1.158381	0.141574	0.876796
N49	N	0.458590	-0.375327	0.427570
N50	N	0.958590	0.124673	0.927570
N51	N	0.396139	-0.375315	0.427584
N52	N	0.896139	0.124685	0.927584
C53	C	0.364075	-0.320500	0.434641
C54	C	0.864075	0.179500	0.934641
N55	N	0.396821	-0.265698	0.441702
N56	N	0.896821	0.234302	0.941702
N57	N	0.459278	-0.265711	0.441694
N58	N	0.959278	0.234289	0.941694
C59	C	0.490863	-0.320524	0.434623
C60	C	0.990863	0.179476	0.934623
C61	C	0.262305	-0.282598	0.492454
C62	C	0.762305	0.217402	0.992454
C63	C	0.196562	-0.282580	0.492451
C64	C	0.696562	0.217420	0.992451
C65	C	0.191799	-0.358345	0.376846
C66	C	0.691799	0.141655	0.876846
C67	C	0.257541	-0.358357	0.376844
C68	C	0.757541	0.141643	0.876844
C69	C	0.292791	-0.320485	0.434653
C70	C	0.792791	0.179515	0.934653
C71	C	0.927066	-0.484046	0.434569
C72	C	1.427066	0.015954	0.934569
C73	C	0.927089	-0.554015	0.434578
C74	C	1.427089	-0.054015	0.934578
C75	C	0.965057	-0.584545	0.376944
C76	C	1.465057	-0.084545	0.876944
C77	C	0.965087	-0.650288	0.376964
C78	C	1.465087	-0.150288	0.876964
C79	C	0.927138	-0.685498	0.434609
C80	C	1.427138	-0.185498	0.934609
C81	C	0.889167	-0.654960	0.492255
C82	C	1.389167	-0.154960	0.992255
C83	C	0.889143	-0.589218	0.492239
C84	C	1.389143	-0.089218	0.992239
N85	N	0.872347	-0.789055	0.441478
N86	N	1.372347	-0.289055	0.941478
N87	N	0.872372	-0.851506	0.441488
N88	N	1.372372	-0.351506	0.941488
C89	C	0.927210	-0.883575	0.434661
C90	C	1.427210	-0.383575	0.934661
N91	N	0.982024	-0.850832	0.427807
N92	N	1.482024	-0.350832	0.927807
N93	N	0.981998	-0.788374	0.427793
N94	N	1.481998	-0.288374	0.927793
C95	C	0.927160	-0.756785	0.434633
C96	C	1.427160	-0.256785	0.934633
C97	C	0.965215	-0.985392	0.377046
C98	C	1.465215	-0.485392	0.877046
C99	C	0.965247	-1.051137	0.377073
C100	C	1.465247	-0.551137	0.877073
C101	C	0.889320	-1.055807	0.492358
C102	C	1.389320	-0.555807	0.992358
C103	C	0.889295	-0.990064	0.492336
C104	C	1.389295	-0.490064	0.992336
C105	C	0.927241	-0.954860	0.434675
C106	C	1.427241	-0.454860	0.934675
C107	C	1.091342	-0.320468	0.434645
C108	C	1.591342	0.179532	0.934645
C109	C	1.161311	-0.320455	0.434656
C110	C	1.661311	0.179545	0.934656
C111	C	0.936659	-0.329919	0.669924
C112	C	1.436659	0.170081	1.169924
C113	C	0.940711	-0.333934	0.770196
C114	C	1.440711	0.166066	1.270196
C115	C	0.927253	-0.156309	0.434689
C116	C	1.427253	0.343691	0.934689
C117	C	0.927297	-0.086342	0.434719
C118	C	1.427297	0.413658	0.934719
C119	C	0.917716	-0.311065	0.200230
C120	C	1.417716	0.188935	0.700230
C121	C	0.913786	-0.306872	0.099958
C122	C	1.413786	0.193128	0.599958
C123	C	0.986646	-0.379839	0.911519
C124	C	1.486646	0.120161	1.411519
C125	C	0.982844	-0.376069	0.817303
C126	C	1.482844	0.123931	1.317303
C127	C	0.902376	-0.295568	0.817311
C128	C	1.402376	0.204432	1.317311
C129	C	0.906178	-0.299337	0.911526
C130	C	1.406178	0.200663	1.411526
C131	C	0.948316	-0.341473	0.958627
C132	C	1.448316	0.158527	1.458627
C133	C	0.952121	-0.345239	1.052844
C134	C	1.452121	0.154761	1.552844
C135	C	0.871650	-0.264741	1.052850
C136	C	1.371650	0.235259	1.552850
C137	C	0.867848	-0.260972	0.958634
C138	C	1.367848	0.239028	1.458634
H139	H	0.572579	-0.251806	0.539485
H140	H	1.072579	0.248194	1.039485
H141	H	0.996008	-0.675151	0.330032
H142	H	1.496008	-0.175151	0.830032
C143	C	0.365199	-0.248979	0.543781
C144	C	0.865199	0.251021	1.043781
C145	C	0.301057	-0.240965	0.555987
C146	C	0.801057	0.259035	1.055987
H147	H	0.389120	-0.223279	0.583008
H148	H	0.889120	0.276721	1.083008
H149	H	0.373524	-0.237277	0.483197
H150	H	0.873524	0.262723	0.983197
H151	H	0.376454	-0.291817	0.556875
H152	H	0.876454	0.208183	1.056875
H153	H	0.289801	-0.198128	0.542887
H154	H	0.789801	0.301872	1.042887
H155	H	0.292729	-0.252664	0.616584
H156	H	0.792729	0.247336	1.116584
H157	H	0.163094	-0.389184	0.329789
H158	H	0.663094	0.110816	0.829789
C159	C	1.070114	-1.069434	0.333303
C160	C	1.570114	-0.569434	0.833303
C161	C	1.007016	-1.084663	0.313718
C162	C	1.507016	-0.584663	0.813718
H163	H	1.095908	-1.090119	0.294186
H164	H	1.595908	-0.590119	0.794186
H165	H	1.081737	-1.082617	0.393922
H166	H	1.581737	-0.582617	0.893922
H167	H	1.075490	-1.025235	0.325067
H168	H	1.575490	-0.525235	0.825067
H169	H	1.001638	-1.128862	0.321961
H170	H	1.501638	-0.628862	0.821961
H171	H	0.995389	-1.071483	0.253085
H172	H	1.495389	-0.571483	0.753085
C173	C	0.826291	-0.219446	0.814212
C174	C	1.326291	0.280554	1.314212
C175	C	0.821535	-0.214654	0.906856
C176	C	1.321535	0.285346	1.406856
H177	H	0.797703	-0.190846	0.782250
H178	H	1.297703	0.309154	1.282250
H179	H	0.816424	-0.261118	0.798760
H180	H	1.316424	0.238882	1.298760
H181	H	0.867973	-0.209611	0.798795
H182	H	1.367973	0.290389	1.298795
H183	H	0.779855	-0.224493	0.922275
H184	H	1.279855	0.275507	1.422275
H185	H	0.831398	-0.172972	0.922315
H186	H	1.331398	0.327028	1.422315
H187	H	0.995957	-0.555884	0.329996
H188	H	1.495957	-0.055884	0.829996
H189	H	1.014059	-0.407308	0.778951
H190	H	1.514059	0.092692	1.278951
H191	H	0.986433	-0.379547	1.091191
H192	H	1.486433	0.120453	1.591191
H193	H	0.868064	-0.261268	0.778946
H194	H	1.368064	0.238732	1.278946
H195	H	0.840441	-0.233498	1.091215
H196	H	1.340441	0.266502	1.591215
H197	H	0.282361	-0.389207	0.329776
H198	H	0.782361	0.110793	0.829776
H199	H	0.996115	-0.956728	0.330098
H200	H	1.496115	-0.456728	0.830098
C201	C	1.094394	-0.411638	0.940544
C202	C	1.594394	0.088362	1.440544
C203	C	1.032964	-0.426151	0.963297
C204	C	1.532964	0.073849	1.463297
H205	H	1.122988	-0.440232	0.972506
H206	H	1.622988	0.059768	1.472506
H207	H	1.104248	-0.369964	0.956006
H208	H	1.604248	0.130036	1.456006
H209	H	1.097608	-0.414885	0.877690
H210	H	1.597608	0.085115	1.377690
H211	H	1.029749	-0.422899	1.026151
H212	H	1.529749	0.077101	1.526151
H213	H	1.023108	-0.467835	0.947841
H214	H	1.523108	0.032165	1.447841
H215	H	0.563930	-0.389254	0.329748
H216	H	1.063930	0.110746	0.829748
C217	C	0.814097	-0.600440	0.606195
C218	C	1.314097	-0.100440	1.106195
C219	C	0.847401	-0.555655	0.555590
C220	C	1.347401	-0.055655	1.055590
H221	H	0.788324	-0.579717	0.645299
H222	H	1.288324	-0.079717	1.145299
H223	H	0.842910	-0.627418	0.640745
H224	H	1.342910	-0.127418	1.140745
H225	H	0.788462	-0.624550	0.566856
H226	H	1.288462	-0.124550	1.066856
H227	H	0.873039	-0.531548	0.594928
H228	H	1.373039	-0.031548	1.094928
H229	H	0.818584	-0.528666	0.521036
H230	H	1.318584	-0.028666	1.021036
C231	C	0.855486	-0.757812	0.543456
C232	C	1.355486	-0.257812	1.043456
C233	C	0.847450	-0.693661	0.555617
C234	C	1.347450	-0.193661	1.055617
H235	H	0.829729	-0.781702	0.582573
H236	H	1.329729	-0.281702	1.082573
H237	H	0.898308	-0.769062	0.556718
H238	H	1.398308	-0.269062	1.056718
H239	H	0.843860	-0.766180	0.482829
H240	H	1.343860	-0.266180	0.982829
H241	H	0.859080	-0.685292	0.616242
H242	H	1.359080	-0.185292	1.116242
H243	H	0.804618	-0.682407	0.542360
H244	H	1.304618	-0.182407	1.042360
C245	C	0.885439	-1.134563	0.613712
C246	C	1.385439	-0.634563	1.113712
C247	C	0.847607	-1.094502	0.555726
C248	C	1.347607	-0.594502	1.055726
H249	H	0.859686	-1.158456	0.652832
H250	H	1.359686	-0.658456	1.152832
H251	H	0.914226	-1.110255	0.648244
H252	H	1.414226	-0.610255	1.148244
H253	H	0.908054	-1.162155	0.579381
H254	H	1.408054	-0.662155	1.079381
H255	H	0.824995	-1.066907	0.590057
H256	H	1.324995	-0.566907	1.090057
H257	H	0.818809	-1.118813	0.521191
H258	H	1.318809	-0.618813	1.021191
C259	C	0.661245	-0.207778	0.606675
C260	C	1.161245	0.292222	1.106675
C261	C	0.701891	-0.241035	0.555940
C262	C	1.201891	0.258965	1.055940
H263	H	0.685167	-0.182069	0.645888
H264	H	1.185167	0.317931	1.145888
H265	H	0.636979	-0.236617	0.641116
H266	H	1.136979	0.263383	1.141116
H267	H	0.634031	-0.182086	0.567425
H268	H	1.134031	0.317914	1.067425
H269	H	0.729102	-0.266731	0.595190
H270	H	1.229102	0.233269	1.095190
H271	H	0.726169	-0.212192	0.521497
H272	H	1.226169	0.287808	1.021497
H273	H	0.171743	-0.251729	0.539522
H274	H	0.671743	0.248271	1.039522
H275	H	0.683200	-0.389275	0.329722
H276	H	1.183200	0.110725	0.829722
H277	H	0.858374	-0.965204	0.539263
H278	H	1.358374	-0.465204	1.039263
