data_functionalizedCrystal
_audit_creation_method	'MofGen! by Chris Wilmer'
_symmetry_space_group_name_H-M	'P1'
_symmetry_Int_Tables_number	1
_symmetry_cell_setting	triclinic
loop_
_symmetry_equiv_pos_as_xyz
  x,y,z
_cell_length_a	31.640172
_cell_length_b	31.640172
_cell_length_c	15.698487
_cell_angle_alpha	59.992080
_cell_angle_beta	89.991060
_cell_angle_gamma	59.990533
loop_
_atom_site_label
_atom_site_type_symbol
_atom_site_fract_x
_atom_site_fract_y
_atom_site_fract_z
Zr1	Zr	0.407162	0.462617	-0.112040
O2	O	0.339666	0.550811	-0.248073
O3	O	0.427856	0.374431	-0.070317
O4	O	0.427849	0.462616	-0.248062
O5	O	0.339675	0.462624	0.069857
O6	O	0.497406	0.462607	-0.248078
O7	O	0.339673	0.462626	-0.070328
O8	O	0.497418	0.304860	0.069876
O9	O	0.339663	0.620371	-0.248097
O10	O	0.488588	0.410694	-0.052560
O11	O	0.436680	0.410699	0.052070
O12	O	0.436672	0.514526	-0.157202
O13	O	0.384764	0.514531	-0.052573
Zr14	Zr	0.518102	0.462600	0.111514
Zr15	Zr	0.518098	0.462603	-0.112064
Zr16	Zr	0.407166	0.462615	0.111538
Zr17	Zr	0.407158	0.573558	-0.112078
Zr18	Zr	0.518106	0.351660	0.111552
O19	O	0.497408	0.550786	0.069791
O20	O	0.497403	0.550790	-0.248108
O21	O	0.339672	0.550807	0.069826
O22	O	0.585597	0.374407	0.247547
O23	O	0.585592	0.374410	-0.070352
O24	O	0.427861	0.374427	0.247582
O25	O	0.585589	0.462593	-0.070383
O26	O	0.497415	0.462601	0.247536
O27	O	0.427857	0.462610	0.247552
O28	O	0.585591	0.462591	0.069802
O29	O	0.427843	0.620359	-0.248117
O30	O	0.497421	0.304858	0.247591
O31	O	0.585600	0.304847	0.247571
O32	O	0.585597	0.304849	0.069856
O33	O	0.339666	0.620368	-0.070382
O34	O	0.427846	0.620357	-0.070402
O35	O	0.488592	0.410691	0.156676
O36	O	0.540500	0.410686	0.052047
O37	O	0.488584	0.514518	-0.052596
O38	O	0.436676	0.514523	0.052034
C39	C	0.462638	0.323839	-0.000215
C40	C	0.462640	0.276742	-0.000199
C41	C	0.323868	0.462627	-0.000232
C42	C	0.276773	0.462633	-0.000222
C43	C	-0.059499	0.462596	0.076984
C44	C	0.117483	0.462613	0.077000
O45	O	0.140376	0.462590	0.142706
N46	N	0.139615	0.462616	-0.000229
C47	C	0.117502	0.462611	-0.077463
O48	O	0.140392	0.462608	-0.143145
C49	C	-0.059477	0.462590	-0.077474
C50	C	-0.081610	0.462593	-0.000246
C51	C	-0.081632	0.462598	0.154207
C52	C	-0.125877	0.462597	0.154199
C53	C	-0.147988	0.462594	0.076968
C54	C	-0.125855	0.462592	-0.000254
C55	C	-0.081587	0.462580	-0.154703
C56	C	-0.125834	0.462574	-0.154698
C57	C	-0.147967	0.462576	-0.077470
C58	C	-0.192210	0.462587	-0.077493
N59	N	-0.214343	0.462584	-0.000264
C60	C	-0.192232	0.462587	0.076967
C61	C	0.210418	0.462624	-0.077453
C62	C	0.254662	0.462630	-0.077452
C63	C	0.254640	0.462631	0.077013
C64	C	0.210393	0.462628	0.077006
C65	C	0.188285	0.462620	-0.000224
C66	C	-0.285149	0.462586	0.076943
C67	C	-0.329398	0.462587	0.076926
C68	C	-0.329371	0.462583	-0.077535
C69	C	-0.285127	0.462585	-0.077522
C70	C	-0.263016	0.462584	-0.000273
O71	O	-0.215127	0.462603	-0.143157
O72	O	-0.215122	0.462577	0.142652
C73	C	-0.015255	0.462597	0.076992
C74	C	0.006879	0.462595	-0.000230
C75	C	-0.015232	0.462591	-0.077460
C76	C	0.051123	0.462601	-0.000229
C77	C	0.073234	0.462604	0.077002
C78	C	0.051101	0.462601	0.154231
C79	C	0.006856	0.462600	0.154223
C80	C	0.006900	0.462595	-0.154689
C81	C	0.051144	0.462596	-0.154676
C82	C	0.073256	0.462600	-0.077445
C83	C	0.424310	0.023074	-0.077515
C84	C	0.424306	-0.153907	-0.077544
O85	O	0.391727	-0.144196	-0.143257
N86	N	0.462628	-0.214365	-0.000310
C87	C	0.500956	-0.230578	0.076933
O88	O	0.533554	-0.286062	0.142618
C89	C	0.500962	-0.053597	0.076956
C90	C	0.462634	0.006861	-0.000277
C91	C	0.385986	0.083529	-0.154743
C92	C	0.385986	0.127771	-0.154732
C93	C	0.424310	0.111558	-0.077493
C94	C	0.462634	0.051103	-0.000265
C95	C	0.539291	-0.069811	0.154194
C96	C	0.539290	-0.025559	0.154192
C97	C	0.500962	0.034899	0.076959
C98	C	0.500958	0.079132	0.076985
N99	N	0.462636	0.139590	-0.000249
C100	C	0.424312	0.155803	-0.077488
C101	C	0.500950	-0.323493	0.076916
C102	C	0.500948	-0.367738	0.076912
C103	C	0.424299	-0.291064	-0.077567
C104	C	0.424299	-0.246818	-0.077557
C105	C	0.462628	-0.263035	-0.000318
C106	C	0.424314	0.248712	-0.077458
C107	C	0.424316	0.292955	-0.077438
C108	C	0.500966	0.216277	0.077037
C109	C	0.500963	0.172038	0.077020
C110	C	0.462634	0.188260	-0.000236
O111	O	0.533523	0.069465	0.142656
O112	O	0.391725	0.211290	-0.143177
C113	C	0.424311	-0.021168	-0.077527
C114	C	0.462635	-0.081624	-0.000299
C115	C	0.500959	-0.097837	0.076940
C116	C	0.462633	-0.125869	-0.000304
C117	C	0.424309	-0.109656	-0.077542
C118	C	0.385987	-0.049198	-0.154777
C119	C	0.385987	-0.004955	-0.154765
C120	C	0.539281	-0.158295	0.154174
C121	C	0.539277	-0.202534	0.154157
C122	C	0.500953	-0.186321	0.076918
C123	C	0.601396	0.462590	-0.000294
C124	C	0.648491	0.462584	-0.000304
C125	C	0.462627	0.462612	-0.279925
C126	C	0.462626	0.462613	-0.374840
C127	C	0.462626	0.601378	-0.000311
C128	C	0.462624	0.648475	-0.000327
C129	C	0.462638	0.462603	-0.548604
C130	C	0.462632	0.462606	-0.451907
C131	C	0.462636	0.462605	0.279399
C132	C	0.462638	0.462604	0.374314
C133	C	0.601401	0.323821	-0.000246
C134	C	0.648499	0.276718	-0.000240
C135	C	0.462642	0.323836	0.279447
C136	C	0.462646	0.276738	0.374378
C137	C	0.601406	0.323817	0.279416
C138	C	0.648505	0.276713	0.374337
C139	C	0.323858	0.601400	-0.279942
C140	C	0.276759	0.648504	-0.374863
C141	C	0.323862	0.601396	-0.000280
C142	C	0.276765	0.648500	-0.000286
C143	C	0.462622	0.601381	-0.279973
C144	C	0.462618	0.648479	-0.374904
C145	C	0.643519	0.254602	-0.054850
C146	C	0.687767	0.210349	-0.054866
C147	C	0.736995	0.188210	-0.000264
C148	C	0.741974	0.210331	0.054347
C149	C	0.697726	0.254585	0.054356
C150	C	0.489745	0.254616	0.473572
C151	C	0.489746	0.210368	0.562778
C152	C	0.462651	0.188240	0.552788
C153	C	0.435549	0.210367	0.453584
C154	C	0.435545	0.254617	0.364380
C155	C	0.697723	0.254589	0.364297
C156	C	0.741981	0.210336	0.453476
C157	C	0.737020	0.188204	0.552694
C158	C	0.687797	0.210332	0.562732
C159	C	0.643540	0.254588	0.473554
C160	C	0.227541	0.670633	-0.364823
C161	C	0.183282	0.714900	-0.454002
C162	C	0.188243	0.737035	-0.553220
C163	C	0.237467	0.714904	-0.563258
C164	C	0.281724	0.670640	-0.474080
C165	C	0.281745	0.670620	0.054315
C166	C	0.237497	0.714885	0.054306
C167	C	0.188269	0.737025	-0.000299
C168	C	0.183290	0.714903	-0.054906
C169	C	0.227538	0.670642	-0.054903
C170	C	0.489718	0.670593	-0.364881
C171	C	0.489725	0.714841	-0.454070
C172	C	0.462628	0.736977	-0.553281
C173	C	0.435527	0.714859	-0.563302
C174	C	0.435524	0.670609	-0.474114
H175	H	-0.267150	0.462584	0.139847
N176	N	0.782226	0.142989	0.643794
N177	N	0.777795	0.123226	0.732380
H178	H	0.809722	0.091291	0.796717
H179	H	0.321798	0.652623	-0.482267
N180	N	-0.148486	0.462597	0.233083
N181	N	-0.194137	0.504504	0.208091
H182	H	-0.210102	0.504502	0.263809
H183	H	0.683765	0.192306	0.643528
N184	N	0.407860	0.277204	0.263066
N185	N	0.383673	0.257437	0.254174
H186	H	0.364119	0.273387	0.182622
H187	H	0.532168	0.203086	0.139925
N188	N	0.792257	0.187725	0.443207
N189	N	0.822997	0.133394	0.480793
H190	H	0.858503	0.117424	0.473538
N191	N	0.702807	0.277181	0.262963
N192	N	0.746761	0.257417	0.254032
H193	H	0.750356	0.273371	0.182468
N194	N	0.792261	0.187717	0.110110
N195	N	0.822999	0.192651	0.062563
H196	H	0.858516	0.176676	0.101950
H197	H	0.603466	0.272595	0.481743
N198	N	0.517446	0.187759	0.664102
N199	N	0.553130	0.133427	0.726061
H200	H	0.572694	0.117459	0.797620
N201	N	0.143078	0.782238	-0.000290
N202	N	0.147538	0.801980	0.048471
H203	H	0.115624	0.833911	0.048483
N204	N	0.517410	0.647985	-0.263554
N205	N	0.565189	0.623283	-0.236963
H206	H	0.584751	0.607316	-0.165402
N207	N	0.407840	0.648019	-0.484339
N208	N	0.431417	0.593690	-0.446754
H209	H	0.411864	0.577737	-0.453979
H210	H	0.143202	0.732936	-0.099364
N211	N	0.332031	0.648011	0.110077
N212	N	0.371539	0.608496	0.110078
H213	H	0.407053	0.592532	0.149457
H214	H	0.223492	0.652614	-0.284042
H215	H	0.143207	0.732912	-0.445809
N216	N	0.462662	0.143042	0.643925
N217	N	0.486863	0.123298	0.732482
H218	H	0.486873	0.091375	0.796851
H219	H	0.152202	0.773076	-0.625827
H220	H	0.069109	0.462607	0.217112
H221	H	0.413489	0.192344	0.445466
N222	N	0.222437	0.648054	-0.110683
N223	N	0.178478	0.667831	-0.159428
H224	H	0.174872	0.651881	-0.198827
H225	H	0.511793	0.732845	-0.445891
H226	H	0.701788	0.272587	0.098832
H227	H	0.192375	0.462630	0.139892
N228	N	0.242599	0.737471	0.110093
N229	N	0.286557	0.717689	0.158849
H230	H	0.290163	0.733639	0.198249
H231	H	0.462635	0.773009	-0.625896
H232	H	0.532164	-0.336707	0.139817
H233	H	0.413466	0.732890	-0.644092
H234	H	0.683703	0.192344	-0.099337
N235	N	-0.352003	0.462596	0.155818
N236	N	-0.332252	0.462599	0.224766
H237	H	-0.348215	0.462605	0.280483
N238	N	-0.059056	0.462597	0.233114
N239	N	-0.078830	0.462597	0.302052
H240	H	-0.062890	0.462600	0.357783
H241	H	-0.347382	0.462583	-0.140418
H242	H	0.272649	0.462635	0.139896
N243	N	0.578445	-0.131558	0.233097
N244	N	0.612658	-0.146013	0.302043
H245	H	0.640314	-0.189624	0.357773
H246	H	-0.011099	0.462591	-0.217579
N247	N	0.242520	0.737525	-0.664618
N248	N	0.202997	0.777044	-0.744224
H249	H	0.206564	0.793021	-0.815813
H250	H	0.272675	0.462637	-0.140347
N251	N	0.187846	0.462606	-0.156342
N252	N	0.213763	0.420692	-0.165806
H253	H	0.197824	0.420680	-0.221523
N254	N	-0.058999	0.462592	-0.233613
N255	N	-0.078757	0.462593	-0.302560
H256	H	-0.062807	0.462605	-0.358300
H257	H	0.393104	0.261929	-0.140369
H258	H	-0.143831	0.462565	-0.217588
N259	N	0.593233	0.277224	-0.110639
N260	N	0.553725	0.316739	-0.110640
H261	H	0.518211	0.332718	-0.150048
N262	N	0.578450	-0.042136	0.233094
N263	N	0.612666	-0.096119	0.302036
H264	H	0.640324	-0.107829	0.357761
H265	H	0.354778	0.096741	-0.217645
N266	N	-0.262506	0.462563	-0.156387
N267	N	-0.246480	0.420637	-0.165822
H268	H	-0.230498	0.420609	-0.221507
N269	N	-0.015744	0.462605	0.233115
N270	N	0.004010	0.462609	0.302058
H271	H	-0.011948	0.462613	0.357781
H272	H	0.069160	0.462599	-0.217573
H273	H	0.354780	0.176996	-0.217631
N274	N	0.346839	0.056801	-0.233649
N275	N	0.317332	0.090046	-0.208653
H276	H	0.289683	0.133661	-0.264369
N277	N	0.385164	0.354710	-0.156350
N278	N	0.380459	0.375435	-0.250299
H279	H	0.352809	0.419047	-0.306033
N280	N	0.385146	-0.185067	-0.156458
N281	N	0.350933	-0.170607	-0.225411
H282	H	0.323280	-0.126995	-0.281141
H283	H	0.354781	-0.036003	-0.217665
N284	N	0.385151	-0.274517	-0.156450
N285	N	0.385159	-0.314031	-0.156431
H286	H	0.357513	-0.302349	-0.212140
H287	H	0.532153	-0.416963	0.139812
H288	H	0.532168	0.122809	0.139919
N289	N	0.782186	0.142955	-0.000188
N290	N	0.777726	0.123182	-0.048885
H291	H	0.809640	0.091200	-0.048794
H292	H	0.570488	-0.251762	0.217059
H293	H	0.570490	-0.171505	0.217071
N294	N	0.517429	0.277204	0.483810
N295	N	0.541618	0.257441	0.572393
H296	H	0.561170	0.273392	0.579633
