data_functionalizedCrystal
_audit_creation_method	'MofGen! by Chris Wilmer'
_symmetry_space_group_name_H-M	'P1'
_symmetry_Int_Tables_number	1
_symmetry_cell_setting	triclinic
loop_
_symmetry_equiv_pos_as_xyz
  x,y,z
_cell_length_a	15.944551
_cell_length_b	15.944551
_cell_length_c	9.016244
_cell_angle_alpha	89.996810
_cell_angle_beta	89.997151
_cell_angle_gamma	83.498738
loop_
_atom_site_label
_atom_site_type_symbol
_atom_site_fract_x
_atom_site_fract_y
_atom_site_fract_z
O1	O	1.114528	0.108329	-0.123189
O2	O	0.869978	0.121685	-0.123226
O3	O	0.998931	-0.007268	-0.123193
O4	O	0.985575	0.237281	-0.123222
O5	O	0.998912	-0.007265	0.123488
O6	O	0.869960	0.121688	0.123455
O7	O	1.114509	0.108332	0.123492
Cu8	Cu	0.992233	0.115010	0.145997
Cu9	Cu	0.992255	0.115006	-0.145731
O10	O	0.985556	0.237284	0.123459
C11	C	0.838675	0.121132	0.000110
C12	C	0.745429	0.119470	0.000096
C13	C	0.530572	0.035565	0.000134
C14	C	0.469561	0.074526	-0.121497
C15	C	0.574703	0.116462	0.000114
C16	C	0.469565	0.074548	0.121711
C17	C	0.409790	0.113551	0.000137
C18	C	0.514920	0.155445	-0.121618
C19	C	0.514930	0.155456	0.121699
C20	C	0.453937	0.194476	0.000038
C21	C	0.669705	0.118137	0.000099
C22	C	0.314789	0.111883	0.000142
C23	C	0.998367	-0.038561	0.000147
C24	C	0.996705	-0.131807	0.000148
C25	C	0.912801	-0.346663	0.000115
C26	C	0.951754	-0.407679	0.121749
C27	C	0.993698	-0.302533	0.000136
C28	C	0.951792	-0.407666	-0.121459
C29	C	0.990787	-0.467445	0.000118
C30	C	1.032673	-0.362320	0.121871
C31	C	1.032699	-0.362300	-0.121446
C32	C	1.071711	-0.423298	0.000218
C33	C	0.995372	-0.207530	0.000148
C34	C	0.989119	-0.562446	0.000117
C35	C	1.145813	0.108885	0.000153
C36	C	1.239059	0.110547	0.000157
C37	C	0.986120	0.268577	0.000115
C38	C	0.987782	0.361823	0.000105
N39	N	0.992223	0.115012	0.351183
N40	N	0.992271	0.114998	-0.350918
C41	C	0.923034	0.183766	0.586198
C42	C	0.923183	0.184020	0.414307
C43	C	1.079869	0.134161	0.413533
C44	C	1.079491	0.134647	0.585477
C45	C	0.974640	0.026878	0.585734
C46	C	0.972620	0.027469	0.413779
H47	H	0.534916	0.189635	-0.224560
H48	H	0.934438	0.249413	0.373155
O49	O	0.574655	-0.053394	0.000002
H50	H	0.615172	-0.063047	-0.100033
O51	O	0.937743	0.269900	0.643393
H52	H	0.881697	0.297165	0.707337
O53	O	0.442951	0.029211	0.257922
H54	H	0.398938	0.072979	0.324779
O55	O	0.836884	0.168921	0.358458
H56	H	0.789249	0.219707	0.399758
O57	O	0.906466	-0.434287	-0.257663
H58	H	0.939453	-0.415230	-0.358519
H59	H	0.845652	-0.313356	0.000226
O60	O	0.906428	-0.434311	0.257958
H61	H	0.851285	-0.466391	0.223700
O62	O	0.836460	0.168919	0.641032
H63	H	0.841850	0.112371	0.713699
O64	O	0.541594	0.200742	0.257905
H65	H	0.572586	0.256591	0.223682
O66	O	0.442916	0.029207	-0.257690
H67	H	0.473900	-0.036737	-0.257432
H68	H	0.912121	0.008465	0.629174
O69	O	1.100068	0.219770	0.638593
H70	H	1.110191	0.260202	0.541470
O71	O	1.077945	-0.335851	0.258245
H72	H	1.078789	-0.266341	0.257212
H73	H	0.420779	0.261683	-0.000038
H74	H	1.132621	0.086535	0.627073
H75	H	1.066894	-0.342171	-0.224273
H76	H	1.138919	-0.456457	0.000297
H77	H	1.132617	0.085408	0.372641
H78	H	1.095771	0.197695	0.370450
H79	H	0.908146	0.012937	0.373030
O80	O	1.035082	-0.043498	0.356913
H81	H	1.081282	-0.017363	0.282821
O82	O	1.041509	-0.040917	0.639607
H83	H	1.087086	-0.012046	0.711154
