data_functionalizedCrystal
_audit_creation_method	'MofGen! by Chris Wilmer'
_symmetry_space_group_name_H-M	'P1'
_symmetry_Int_Tables_number	1
_symmetry_cell_setting	triclinic
loop_
_symmetry_equiv_pos_as_xyz
  x,y,z
_cell_length_a	10.654550
_cell_length_b	12.811415
_cell_length_c	9.730223
_cell_angle_alpha	84.567795
_cell_angle_beta	89.996251
_cell_angle_gamma	84.262793
loop_
_atom_site_label
_atom_site_type_symbol
_atom_site_fract_x
_atom_site_fract_y
_atom_site_fract_z
O1	O	1.667067	0.147421	-0.132774
O2	O	1.301516	0.161467	-0.134502
O3	O	1.493489	0.001719	-0.114598
O4	O	1.475095	0.307169	-0.152678
O5	O	1.493487	0.001723	0.113982
O6	O	1.301514	0.161471	0.094077
O7	O	1.667065	0.147425	0.095806
Zn8	Zn	1.484289	0.154449	0.131233
Zn9	Zn	1.484292	0.154443	-0.169930
O10	O	1.475092	0.307173	0.075901
C11	C	1.254722	0.160438	-0.020081
C12	C	1.115295	0.157352	-0.019688
C13	C	1.492457	-0.037390	0.004565
C14	C	1.489371	-0.153931	0.019086
C15	C	1.035320	0.251409	-0.031434
C16	C	0.904315	0.248504	-0.031096
C17	C	0.933271	0.057476	-0.007270
C18	C	1.064274	0.060383	-0.007598
C19	C	1.018601	0.361698	-0.045196
C20	C	0.887595	0.358792	-0.044857
C21	C	1.483552	-0.372915	-0.202853
C22	C	1.480653	-0.482415	-0.189216
C23	C	1.480663	-0.482431	0.059997
C24	C	1.483563	-0.372931	0.046360
C25	C	1.485009	-0.318177	-0.085070
C26	C	1.487918	-0.208676	-0.098705
C27	C	1.487920	-0.208694	0.150506
C28	C	1.485020	-0.318194	0.164143
C29	C	1.713859	0.148455	-0.018619
C30	C	1.853286	0.151540	-0.019021
C31	C	1.476124	0.346283	-0.043265
C32	C	1.479210	0.462823	-0.057795
N33	N	1.484296	0.154452	0.336769
N34	N	1.484295	0.154432	-0.375465
C35	C	1.569324	0.083740	0.417506
C36	C	1.569320	0.083727	0.561391
C37	C	1.399258	0.225148	0.543788
C38	C	1.399256	0.225155	0.399907
C39	C	1.667512	0.002094	0.427670
C40	C	1.667508	0.002082	0.571554
H41	H	1.129386	-0.016208	0.001986
O42	O	1.489088	-0.155517	-0.226407
C43	C	1.379748	-0.171207	-0.300238
H44	H	1.303033	-0.193552	-0.224523
H45	H	1.402616	-0.237279	-0.369695
C46	C	1.427270	-0.041464	-0.482334
C47	C	1.333044	-0.068900	-0.389339
H48	H	1.398463	0.021641	-0.537301
H49	H	1.500938	-0.030896	-0.432596
H50	H	1.446319	-0.096533	-0.540201
H51	H	1.314008	-0.013838	-0.331463
H52	H	1.259372	-0.079457	-0.439070
H53	H	0.841750	0.392124	0.049671
H54	H	1.763926	0.020066	0.608357
H55	H	0.891714	-0.021474	0.002552
H56	H	1.330020	0.282711	0.595210
H57	H	1.646488	-0.078583	0.398675
H58	H	1.483838	-0.362789	0.271149
H59	H	1.054075	0.396813	-0.148261
H60	H	1.479461	-0.526978	-0.285127
H61	H	1.758562	0.027659	0.379851
O62	O	1.316606	0.293938	0.321680
C63	C	1.241531	0.356319	0.408267
H64	H	1.293027	0.357907	0.510626
H65	H	1.148075	0.321497	0.427916
C66	C	1.152960	0.467402	0.212314
C67	C	1.216212	0.469360	0.338030
H68	H	1.137336	0.537130	0.168989
H69	H	1.203535	0.425372	0.153978
H70	H	1.075087	0.438379	0.228707
H71	H	1.294090	0.498370	0.321635
H72	H	1.165650	0.511397	0.396363
H73	H	1.489111	-0.164115	0.246414
H74	H	1.047707	0.404833	0.045092
H75	H	1.637392	-0.074158	0.625677
H76	H	1.484741	-0.328334	-0.309867
O77	O	0.837452	0.408506	-0.165041
C78	C	0.750940	0.494090	-0.136043
H79	H	0.774151	0.519942	-0.030828
H80	H	0.651206	0.469054	-0.135062
C81	C	0.731299	0.554725	-0.377051
C82	C	0.759815	0.586482	-0.247828
H83	H	0.736768	0.611715	-0.446007
H84	H	0.789581	0.497063	-0.396589
H85	H	0.648189	0.533860	-0.376213
H86	H	0.842928	0.607333	-0.248662
H87	H	0.701547	0.644150	-0.228293
O88	O	1.479431	-0.535519	0.187739
C89	C	1.588799	-0.519881	0.261557
H90	H	1.627124	-0.444078	0.216669
H91	H	1.663234	-0.589281	0.252924
C92	C	1.508876	-0.604549	0.469625
C93	C	1.555941	-0.511442	0.414499
H94	H	1.488611	-0.599349	0.563968
H95	H	1.435195	-0.615089	0.419892
H96	H	1.570913	-0.662373	0.462418
H97	H	1.493899	-0.453623	0.421691
H98	H	1.629612	-0.500893	0.464237
