data_functionalizedCrystal
_audit_creation_method	'MofGen! by Chris Wilmer'
_symmetry_space_group_name_H-M	'P1'
_symmetry_Int_Tables_number	1
_symmetry_cell_setting	triclinic
loop_
_symmetry_equiv_pos_as_xyz
  x,y,z
_cell_length_a	10.723024
_cell_length_b	13.596369
_cell_length_c	10.723023
_cell_angle_alpha	90.004968
_cell_angle_beta	84.467709
_cell_angle_gamma	90.005008
loop_
_atom_site_label
_atom_site_type_symbol
_atom_site_fract_x
_atom_site_fract_y
_atom_site_fract_z
O1	O	1.657189	0.081783	0.175029
O2	O	2.157189	0.581783	0.675029
O3	O	1.294037	0.081786	0.191783
O4	O	1.794037	0.581786	0.691783
O5	O	1.483990	0.081780	0.001830
O6	O	1.983990	0.581780	0.501830
O7	O	1.467236	0.081788	0.364982
O8	O	1.967236	0.581788	0.864982
O9	O	1.483971	-0.081803	0.001820
O10	O	1.983971	0.418197	0.501820
O11	O	1.294018	-0.081797	0.191772
O12	O	1.794018	0.418203	0.691772
O13	O	1.657170	-0.081800	0.175019
O14	O	2.157170	0.418200	0.675019
Zn15	Zn	1.475591	-0.107771	0.183394
Zn16	Zn	1.975591	0.392229	0.683394
Zn17	Zn	1.475616	0.107757	0.183408
Zn18	Zn	1.975616	0.607757	0.683408
O19	O	1.467217	-0.081795	0.364972
O20	O	1.967217	0.418205	0.864972
C21	C	1.247528	-0.000005	0.190558
C22	C	1.747528	0.499995	0.690558
C23	C	1.108973	-0.000004	0.186911
C24	C	1.608973	0.499996	0.686911
N25	N	1.475583	-0.254863	0.183384
N26	N	1.975583	0.245137	0.683384
C27	C	1.033991	-0.000001	0.293198
C28	C	1.533991	0.499999	0.793198
C29	C	0.890787	0.000000	0.289431
C30	C	1.390787	0.500000	0.789431
C31	C	1.475614	-0.656154	0.183409
C32	C	1.975614	-0.156154	0.683409
C33	C	1.475602	-0.544502	0.183406
C34	C	1.975602	-0.044502	0.683406
C35	C	1.475599	-0.455512	0.183398
C36	C	1.975599	0.044488	0.683398
C37	C	1.475586	-0.343853	0.183393
C38	C	1.975586	0.156147	0.683393
C39	C	1.703679	-0.000007	0.176243
C40	C	2.203679	0.499993	0.676243
C41	C	1.842234	-0.000002	0.179891
C42	C	2.342234	0.499998	0.679891
C43	C	1.482762	-0.000010	-0.044675
C44	C	1.982762	0.499990	0.455325
C45	C	1.479114	-0.000007	-0.183229
C46	C	1.979114	0.499993	0.316771
N47	N	1.475634	0.254848	0.183408
N48	N	1.975634	0.754848	0.683408
C49	C	1.477498	0.084735	-0.244990
C50	C	1.977498	0.584735	0.255010
C51	C	1.473729	0.084740	-0.388193
C52	C	1.973729	0.584740	0.111807
C53	C	1.468445	-0.000002	0.411477
C54	C	1.968445	0.499998	0.911477
C55	C	1.472093	0.000001	0.550031
C56	C	1.972093	0.500001	1.050031
H57	H	1.075812	-0.000004	0.386984
H58	H	1.575812	0.499996	0.886984
H59	H	0.906659	0.000002	0.088896
H60	H	1.406659	0.500002	0.588896
N61	N	1.479253	0.175760	-0.178357
N62	N	1.979253	0.675760	0.321643
N63	N	1.391071	0.235485	-0.182048
N64	N	1.891071	0.735485	0.317952
H65	H	1.392310	0.299776	-0.134994
H66	H	1.892310	0.799776	0.365006
N67	N	1.477335	-0.091031	-0.249861
N68	N	1.977335	0.408969	0.250139
N69	N	1.389896	-0.150751	-0.224671
N70	N	1.889896	0.349249	0.275329
H71	H	1.388637	-0.215041	-0.271726
H72	H	1.888637	0.284959	0.228274
N73	N	1.472006	0.175752	-0.454832
N74	N	1.972006	0.675752	0.045168
N75	N	1.468957	0.175627	-0.571068
N76	N	1.968957	0.675627	-0.071068
H77	H	1.467744	0.239907	-0.618137
H78	H	1.967744	0.739907	-0.118137
N79	N	1.473819	-0.091031	-0.383376
N80	N	1.973819	0.408969	0.116624
N81	N	1.472275	-0.170698	-0.441392
N82	N	1.972275	0.329302	0.058608
H83	H	1.473493	-0.234992	-0.394355
H84	H	1.973493	0.265008	0.105645
H85	H	1.067152	0.000019	0.093125
H86	H	1.567152	0.500019	0.593125
H87	H	0.826354	0.000007	0.380421
H88	H	1.326354	0.500007	0.880421
