data_functionalizedCrystal
_audit_creation_method	'MofGen! by Chris Wilmer'
_symmetry_space_group_name_H-M	'P1'
_symmetry_Int_Tables_number	1
_symmetry_cell_setting	triclinic
loop_
_symmetry_equiv_pos_as_xyz
  x,y,z
_cell_length_a	19.851628
_cell_length_b	18.760492
_cell_length_c	19.851628
_cell_angle_alpha	60.003577
_cell_angle_beta	90.005228
_cell_angle_gamma	59.997032
loop_
_atom_site_label
_atom_site_type_symbol
_atom_site_fract_x
_atom_site_fract_y
_atom_site_fract_z
Zr1	Zr	0.648953	0.780161	-0.088344
O2	O	0.541385	0.928874	-0.195916
O3	O	0.681932	0.631449	-0.055364
O4	O	0.681932	0.780144	-0.195894
O5	O	0.541382	0.780192	0.055463
O6	O	0.792793	0.780130	-0.195881
O7	O	0.541386	0.780179	-0.055386
O8	O	0.792795	0.514142	0.055503
O9	O	0.541381	1.046181	-0.195921
O10	O	0.778728	0.692606	-0.041292
O11	O	0.695991	0.692626	0.041423
O12	O	0.695990	0.867696	-0.124034
O13	O	0.613253	0.867716	-0.041318
Zr14	Zr	0.825760	0.780161	0.088469
Zr15	Zr	0.825765	0.780139	-0.088322
Zr16	Zr	0.648948	0.780183	0.088447
Zr17	Zr	0.648947	0.967252	-0.088351
Zr18	Zr	0.825766	0.593070	0.088475
O19	O	0.792781	0.928874	0.055488
O20	O	0.792788	0.928842	-0.195886
O21	O	0.541377	0.928905	0.055458
O22	O	0.933328	0.631449	0.196041
O23	O	0.933336	0.631417	-0.055333
O24	O	0.681925	0.631480	0.196010
O25	O	0.933331	0.780130	-0.055338
O26	O	0.792782	0.780179	0.196019
O27	O	0.681920	0.780192	0.196005
O28	O	0.933328	0.780144	0.055510
O29	O	0.681923	1.046163	-0.195903
O30	O	0.792791	0.514159	0.196028
O31	O	0.933332	0.514142	0.196045
O32	O	0.933337	0.514124	0.055520
O33	O	0.541377	1.046198	-0.055395
O34	O	0.681918	1.046181	-0.055378
O35	O	0.778723	0.692626	0.124158
O36	O	0.861461	0.692606	0.041443
O37	O	0.778722	0.867696	-0.041298
O38	O	0.695985	0.867716	0.041417
C39	C	0.737365	0.546139	0.000070
C40	C	0.737367	0.466713	0.000073
C41	C	0.694158	0.130930	0.043231
C42	C	0.780537	0.130913	-0.043125
C43	C	0.780543	0.205528	-0.043120
C44	C	0.737355	0.242849	0.000060
C45	C	0.694161	0.205554	0.043236
C46	C	0.823730	0.242836	-0.086301
C47	C	0.823737	0.317457	-0.086299
C48	C	0.780553	0.354774	-0.043114
C49	C	0.737358	0.317473	0.000064
C50	C	0.694170	0.354794	0.043245
C51	C	0.650979	0.317490	0.086428
C52	C	0.650977	0.242871	0.086421
C53	C	0.780555	0.429393	-0.043107
C54	C	0.694173	0.429419	0.043249
C55	C	0.516192	0.780189	0.000035
C56	C	0.441131	0.780198	0.000026
C57	C	0.214674	0.875642	-0.045060
C58	C	0.192315	0.827914	-0.077745
C59	C	0.303724	0.780172	0.000050
C60	C	0.192342	0.827906	0.032720
C61	C	0.170992	0.780154	0.000072
C62	C	0.282354	0.732444	-0.032680
C63	C	0.282379	0.732449	0.077827
C64	C	0.260074	0.684651	0.045162
C65	C	0.380186	0.780185	0.000035
C66	C	0.094535	0.780133	0.000086
C67	C	0.958521	0.780134	0.000089
C68	C	1.033582	0.780124	0.000098
C69	C	0.737363	0.780134	-0.221076
C70	C	0.737366	0.780124	-0.296129
C71	C	0.737349	1.014184	0.000054
C72	C	0.737346	1.093609	0.000051
C73	C	0.782475	0.684680	-0.432381
C74	C	0.704680	0.732408	-0.499845
C75	C	0.737358	0.780150	-0.433560
C76	C	0.815137	0.732417	-0.499831
C77	C	0.737356	0.780169	-0.566309
C78	C	0.659517	0.827879	-0.500036
C79	C	0.770029	0.827874	-0.500012
C80	C	0.692188	0.875671	-0.567488
C81	C	0.737359	0.780137	-0.357085
C82	C	0.737346	0.780189	-0.642786
C83	C	0.737350	0.780189	0.221201
C84	C	0.737348	0.780198	0.296253
C85	C	0.958529	0.546111	0.000097
C86	C	1.033593	0.466677	0.000109
C87	C	0.737358	0.546166	0.221209
C88	C	0.737358	0.466750	0.296264
C89	C	0.958522	0.546139	0.221236
C90	C	1.033584	0.466713	0.296300
C91	C	0.516191	1.014184	-0.221111
C92	C	0.441129	1.093609	-0.296176
C93	C	0.516184	1.014211	0.000027
C94	C	0.441120	1.093646	0.000015
C95	C	0.737355	1.014156	-0.221085
C96	C	0.737355	1.093572	-0.296140
C97	C	1.025658	0.429373	-0.043079
C98	C	1.096182	0.354747	-0.043085
C99	C	1.174640	0.317419	0.000104
C100	C	1.182573	0.354730	0.043294
C101	C	1.112050	0.429361	0.043294
C102	C	0.780544	0.429456	0.374705
C103	C	0.780541	0.354847	0.445234
C104	C	0.737357	0.317528	0.437321
C105	C	0.694166	0.354830	0.358871
C106	C	0.694165	0.429443	0.288344
C107	C	1.112029	0.429404	0.288375
C108	C	1.182564	0.354786	0.358899
C109	C	1.174652	0.317474	0.437348
C110	C	1.096199	0.354791	0.445272
C111	C	1.025666	0.429412	0.374748
C112	C	0.362684	1.130928	-0.288250
C113	C	0.292149	1.205569	-0.358774
C114	C	0.300061	1.242885	-0.437223
C115	C	0.378514	1.205563	-0.445147
C116	C	0.449048	1.130928	-0.374624
C117	C	0.449055	1.130957	0.043197
C118	C	0.378531	1.205604	0.043183
C119	C	0.300074	1.242934	-0.000009
C120	C	0.292140	1.205620	-0.043195
C121	C	0.362663	1.130979	-0.043186
C122	C	0.780547	1.130867	-0.288199
C123	C	0.780563	1.205476	-0.358715
C124	C	0.737381	1.242795	-0.437170
C125	C	0.694187	1.205493	-0.445109
C126	C	0.694177	1.130880	-0.374594
H127	H	0.658995	0.100551	0.078393
Br128	Br	0.919189	0.480018	-0.101703
Br129	Br	0.555524	1.080314	0.101818
Br130	Br	0.183923	1.010185	-0.108728
Br131	Br	0.839158	1.080237	-0.181734
H132	H	1.232092	0.256712	0.494766
Br133	Br	0.839162	0.480081	0.385468
Br134	Br	0.389317	1.256226	0.101799
Br135	Br	0.635563	0.304172	0.348145
Br136	Br	0.185656	1.256290	-0.101806
Br137	Br	0.635579	1.256159	-0.551590
Br138	Br	1.085475	0.304143	0.551745
H139	H	0.356226	1.100549	-0.224380
H140	H	0.242656	1.303711	-0.000010
Br141	Br	0.635545	1.080282	-0.385385
Br142	Br	0.919207	0.480034	0.385519
H143	H	0.356191	1.100602	-0.078347
H144	H	0.593709	0.868204	-0.499449
H145	H	1.089707	0.324377	-0.078255
H146	H	0.659005	0.459798	0.078413
H147	H	0.384946	1.235955	-0.509028
H148	H	0.815735	1.235840	-0.352235
H149	H	0.615811	0.347891	0.121581
H150	H	0.228276	1.235943	-0.352307
H151	H	0.737396	1.303550	-0.494581
H152	H	0.858888	0.212452	-0.121462
H153	H	1.246438	0.324410	0.352433
Br154	Br	0.204327	1.344176	-0.532927
Br155	Br	0.839159	0.480025	-0.101715
Br156	Br	0.839163	0.304237	0.551690
H157	H	0.153505	0.868258	-0.143512
H158	H	0.615814	0.212491	0.121579
H159	H	1.246462	0.324327	0.078456
Br160	Br	0.816124	0.895063	-0.498833
H161	H	0.512919	1.100544	-0.381087
Br162	Br	0.628510	1.010325	-0.663741
H163	H	1.232057	0.256650	0.000098
Br164	Br	0.839137	0.080274	-0.101734
H165	H	0.880917	0.692046	-0.500473
Br166	Br	0.882352	0.368077	-0.144903
H167	H	1.118522	0.459723	0.078468
H168	H	0.321051	0.692117	-0.060376
H169	H	0.278681	0.603861	0.083311
Br170	Br	0.347065	0.665263	0.187421
H171	H	0.820564	0.603958	-0.374537
Br172	Br	0.127665	0.895196	0.078755
H173	H	0.677042	0.692064	-0.500522
Br174	Br	0.635553	0.480044	0.181891
Br175	Br	1.122790	0.480031	0.181917
H176	H	0.737365	0.256774	0.494755
