data_functionalizedCrystal
_audit_creation_method	'MofGen! by Chris Wilmer'
_symmetry_space_group_name_H-M	'P1'
_symmetry_Int_Tables_number	1
_symmetry_cell_setting	triclinic
loop_
_symmetry_equiv_pos_as_xyz
  x,y,z
_cell_length_a	31.640172
_cell_length_b	31.640172
_cell_length_c	14.809374
_cell_angle_alpha	67.424953
_cell_angle_beta	90.004769
_cell_angle_gamma	60.004780
loop_
_atom_site_label
_atom_site_type_symbol
_atom_site_fract_x
_atom_site_fract_y
_atom_site_fract_z
Zr1	Zr	0.412797	0.451429	-0.107820
O2	O	0.352083	0.526075	-0.239166
O3	O	0.431401	0.367407	-0.067557
O4	O	0.440248	0.437900	-0.239145
O5	O	0.336266	0.469524	0.067775
O6	O	0.509805	0.437893	-0.239127
O7	O	0.343235	0.455583	-0.067578
O8	O	0.493978	0.311794	0.067812
O9	O	0.352092	0.595623	-0.239164
O10	O	0.491255	0.405434	-0.050370
O11	O	0.434144	0.415843	0.050628
O12	O	0.444561	0.498840	-0.151394
O13	O	0.387451	0.509249	-0.050395
Zr14	Zr	0.512616	0.473653	0.108081
Zr15	Zr	0.523731	0.451418	-0.107792
Zr16	Zr	0.401682	0.473664	0.108052
Zr17	Zr	0.412812	0.562350	-0.107818
Zr18	Zr	0.512601	0.362733	0.108078
O19	O	0.494012	0.557676	0.067817
O20	O	0.509817	0.526060	-0.239125
O21	O	0.336278	0.557691	0.067777
O22	O	0.573330	0.399007	0.239426
O23	O	0.589135	0.367391	-0.067516
O24	O	0.415596	0.399023	0.239385
O25	O	0.589147	0.455558	-0.067514
O26	O	0.485165	0.487183	0.239405
O27	O	0.415608	0.487190	0.239387
O28	O	0.582178	0.469500	0.067838
O29	O	0.440270	0.595614	-0.239141
O30	O	0.485143	0.329468	0.239402
O31	O	0.573321	0.329459	0.239424
O32	O	0.582156	0.311785	0.067835
O33	O	0.343257	0.613297	-0.067575
O34	O	0.431435	0.613288	-0.067552
O35	O	0.480852	0.426243	0.151654
O36	O	0.537962	0.415833	0.050655
O37	O	0.491269	0.509239	-0.050368
O38	O	0.434158	0.519649	0.050631
C39	C	0.462688	0.323797	0.000127
C40	C	0.462681	0.276708	0.000126
C41	C	0.492527	-0.020766	-0.052581
C42	C	0.492538	-0.197762	-0.052580
O43	O	0.517908	-0.225284	-0.097381
N44	N	0.462727	-0.214457	0.000138
C45	C	0.432913	-0.186903	0.052865
O46	O	0.407560	-0.205169	0.097714
C47	C	0.432905	-0.009911	0.052870
C48	C	0.462715	0.006785	0.000140
C49	C	0.522335	-0.004070	-0.105306
C50	C	0.522330	0.040178	-0.105310
C51	C	0.492517	0.067730	-0.052589
C52	C	0.462710	0.051034	0.000136
C53	C	0.403095	0.017640	0.105603
C54	C	0.403096	0.061890	0.105601
C55	C	0.432906	0.078586	0.052871
C56	C	0.432892	0.122833	0.052852
N57	N	0.462704	0.139529	0.000134
C58	C	0.492516	0.111977	-0.052587
C59	C	0.432918	-0.279827	0.052857
C60	C	0.432919	-0.324074	0.052855
C61	C	0.492545	-0.334930	-0.052589
C62	C	0.492541	-0.290680	-0.052592
C63	C	0.462730	-0.263131	0.000139
C64	C	0.492503	0.204902	-0.052592
C65	C	0.492494	0.249156	-0.052595
C66	C	0.432870	0.260007	0.052854
C67	C	0.432877	0.215759	0.052852
C68	C	0.462697	0.188206	0.000128
O69	O	0.407540	0.150377	0.097639
O70	O	0.517873	0.130243	-0.097410
C71	C	0.492532	-0.065014	-0.052577
C72	C	0.462725	-0.081711	0.000148
C73	C	0.432912	-0.054159	0.052869
C74	C	0.462726	-0.125958	0.000146
C75	C	0.492539	-0.153510	-0.052575
C76	C	0.522350	-0.136814	-0.105294
C77	C	0.522345	-0.092566	-0.105298
C78	C	0.403101	-0.070855	0.105587
C79	C	0.403108	-0.115103	0.105586
C80	C	0.432920	-0.142655	0.052865
C81	C	0.323945	0.462555	0.000094
C82	C	0.276851	0.462560	0.000082
C83	C	0.009215	0.413781	0.052884
C84	C	-0.167771	0.413773	0.052904
O85	O	-0.169930	0.372310	0.097788
N86	N	-0.214275	0.462529	0.000169
C87	C	-0.216531	0.511291	-0.052569
O88	O	-0.260146	0.552762	-0.097414
C89	C	-0.039545	0.511300	-0.052582
C90	C	0.006958	0.462539	0.000147
C91	C	0.055716	0.365024	0.105610
C92	C	0.099959	0.365027	0.105600
C93	C	0.097702	0.413785	0.052864
C94	C	0.051201	0.462541	0.000137
C95	C	-0.041802	0.560062	-0.105314
C96	C	0.002449	0.560060	-0.105310
C97	C	0.048952	0.511300	-0.052581
C98	C	0.093188	0.511302	-0.052609
N99	N	0.139691	0.462546	0.000126
C100	C	0.141948	0.413787	0.052862
C101	C	-0.309449	0.511283	-0.052560
C102	C	-0.353695	0.511281	-0.052558
C103	C	-0.304932	0.413762	0.052916
C104	C	-0.260686	0.413764	0.052908
C105	C	-0.262945	0.462527	0.000175
C106	C	0.234862	0.413795	0.052836
C107	C	0.279108	0.413801	0.052818
C108	C	0.230342	0.511320	-0.052651
C109	C	0.186100	0.511314	-0.052638
C110	C	0.188363	0.462547	0.000113
O111	O	0.095385	0.552744	-0.097460
O112	O	0.185567	0.372324	0.097719
C113	C	-0.035029	0.413779	0.052894
C114	C	-0.081530	0.462535	0.000167
C115	C	-0.083787	0.511294	-0.052569
C116	C	-0.125776	0.462533	0.000169
C117	C	-0.123519	0.413775	0.052905
C118	C	-0.077016	0.365018	0.105640
C119	C	-0.032772	0.365020	0.105630
C120	C	-0.130290	0.560050	-0.105303
C121	C	-0.174532	0.560044	-0.105290
C122	C	-0.172275	0.511285	-0.052554
C123	C	0.601468	0.462527	0.000166
C124	C	0.648562	0.462523	0.000178
C125	C	0.476610	0.434728	-0.269893
C126	C	0.481329	0.425289	-0.361536
C127	C	0.462725	0.601286	0.000133
C128	C	0.462732	0.648374	0.000134
C129	C	0.460270	0.467416	-0.452508
C130	C	0.465146	0.457661	-0.547228
C131	C	0.448803	0.490354	0.270153
C132	C	0.444084	0.499794	0.361797
C133	C	0.601449	0.323783	0.000163
C134	C	0.648537	0.276690	0.000174
C135	C	0.448784	0.351610	0.270150
C136	C	0.444059	0.313961	0.361792
C137	C	0.587545	0.351596	0.270186
C138	C	0.629914	0.313942	0.361841
C139	C	0.337868	0.573487	-0.269926
C140	C	0.295498	0.611140	-0.361580
C141	C	0.323964	0.601300	0.000097
C142	C	0.276876	0.648393	0.000086
C143	C	0.476629	0.573473	-0.269890
C144	C	0.481354	0.611122	-0.361532
C145	C	0.646270	0.249145	-0.052564
C146	C	0.690510	0.204900	-0.052574
C147	C	0.737018	0.188198	0.000161
C148	C	0.739284	0.215747	0.052901
C149	C	0.695044	0.259994	0.052904
C150	C	0.466220	0.301709	0.457572
C151	C	0.461778	0.266341	0.543688
C152	C	0.435177	0.243221	0.534022
C153	C	0.413013	0.255476	0.438232
C154	C	0.417452	0.290847	0.352119
C155	C	0.679627	0.290826	0.352162
C156	C	0.719442	0.255451	0.438273
C157	C	0.709543	0.243191	0.534062
C158	C	0.659826	0.266311	0.543738
C159	C	0.620012	0.301688	0.457628
C160	C	0.245786	0.634262	-0.351902
C161	C	0.205971	0.669650	-0.438013
C162	C	0.215870	0.681913	-0.533801
C163	C	0.265587	0.658790	-0.543478
C164	C	0.305401	0.623405	-0.457368
C165	C	0.279144	0.675941	0.052815
C166	C	0.234904	0.720196	0.052801
C167	C	0.188397	0.736899	0.000063
C168	C	0.186130	0.709348	-0.052673
C169	C	0.230370	0.665097	-0.052664
C170	C	0.507959	0.634231	-0.351834
C171	C	0.512408	0.669601	-0.437934
C172	C	0.490250	0.681865	-0.533730
C173	C	0.463645	0.658752	-0.543426
C174	C	0.459198	0.623379	-0.457328
H175	H	0.516819	-0.357370	-0.095519
H176	H	0.696897	0.282416	0.095856
O177	O	0.431599	0.524760	-0.462806
H178	H	0.432263	0.523424	-0.386794
O179	O	0.400765	-0.250116	0.109740
H180	H	0.373562	-0.206789	0.056509
O181	O	-0.403847	0.563873	-0.109449
H182	H	-0.434239	0.555685	-0.100603
H183	H	0.687696	0.300802	0.274174
H184	H	0.741967	0.214384	0.604170
O185	O	0.393599	0.303967	0.248848
H186	H	0.352407	0.323199	0.240022
H187	H	0.486789	0.414369	-0.539460
H188	H	0.516786	0.182473	-0.095524
O189	O	0.430498	0.598462	-0.467808
H190	H	0.455951	0.553434	-0.431111
O191	O	0.554485	0.058182	-0.162176
H192	H	0.575217	0.031581	-0.198823
O193	O	0.524647	0.267165	-0.109467
H194	H	0.545382	0.240566	-0.146117
O195	O	0.237354	0.749900	0.109701
H196	H	0.260424	0.766903	0.079256
H197	H	-0.212395	0.599753	-0.148239
O198	O	0.554487	-0.033779	-0.162184
H199	H	0.575207	-0.014725	-0.198848
H200	H	0.165492	0.688472	-0.430115
O201	O	0.688061	0.175188	-0.109455
H202	H	0.665009	0.158167	-0.078971
O203	O	0.524695	-0.272675	-0.109456
H204	H	0.545426	-0.299272	-0.146110
O205	O	0.784733	0.140475	0.000151
H206	H	0.804055	0.108241	0.078671
H207	H	0.493874	0.710669	-0.603829
O208	O	0.649153	0.253083	0.647055
H209	H	0.627214	0.233828	0.655809
H210	H	0.777157	0.202142	0.095836
O211	O	0.135967	0.727369	-0.109555
H212	H	0.111772	0.724362	-0.056317
O213	O	0.531863	0.621007	-0.248517
H214	H	0.559649	0.576496	-0.206759
O215	O	0.566393	0.326608	0.468072
H216	H	0.566204	0.312129	0.549148
H217	H	0.237717	0.624280	-0.273914
H218	H	0.445605	0.668743	-0.621436
H219	H	0.422444	0.543086	-0.645973
H220	H	0.487881	0.320531	0.465462
O221	O	0.370959	0.091584	0.162520
H222	H	0.375972	0.125151	0.153687
O223	O	0.227921	0.635380	-0.109528
H224	H	0.188147	0.654429	-0.146189
H225	H	0.534072	0.688417	-0.430019
O226	O	0.400747	-0.342057	0.109693
H227	H	0.412221	-0.353867	0.190740
O228	O	0.329303	0.657932	0.109697
H229	H	0.353501	0.660932	0.056465
O230	O	0.485689	0.253124	0.646997
H231	H	0.513476	0.208615	0.688762
O232	O	0.370919	-0.000341	0.162426
H233	H	0.350188	0.026261	0.199071
H234	H	0.228513	0.551018	-0.095591
H235	H	0.183446	0.710726	-0.603909
O236	O	0.276261	0.672013	-0.646795
H237	H	0.240221	0.700498	-0.705037
H238	H	0.408597	0.202170	0.095776
O239	O	0.510007	0.367943	-0.351231
H240	H	0.492210	0.346240	-0.309444
H241	H	0.345879	0.604579	-0.465260
O242	O	0.596112	0.267159	-0.109461
H243	H	0.590036	0.233158	-0.079013
O244	O	0.400744	0.289702	0.109777
H245	H	0.405766	0.323263	0.100942
O246	O	0.773061	0.230538	0.427817
H247	H	0.799088	0.203890	0.503781
H248	H	0.546619	-0.078976	-0.148235
H249	H	0.431566	0.214421	0.604150
H250	H	0.148235	0.551017	-0.095588
O251	O	0.384339	0.230522	0.427812
H252	H	0.384989	0.203859	0.503789
O253	O	0.140680	0.784615	0.000090
H254	H	0.150075	0.800954	0.045637
H255	H	0.546623	-0.159253	-0.148225
O256	O	-0.311889	0.563879	-0.109452
H257	H	-0.351660	0.597776	-0.146126
O258	O	0.370936	-0.133088	0.162436
H259	H	0.382412	-0.144895	0.243480
O260	O	0.370945	-0.041137	0.162450
H261	H	0.330874	-0.024119	0.131958
O262	O	0.329266	0.361206	0.109689
H263	H	0.347729	0.364615	0.167960
O264	O	0.237308	0.361196	0.109717
H265	H	0.254631	0.343552	0.190757
O266	O	0.150113	0.312435	0.162477
H267	H	0.150440	0.294802	0.243520
O268	O	0.058160	0.312427	0.162483
H269	H	0.075481	0.294784	0.243523
O270	O	-0.210530	0.361175	0.109787
H271	H	-0.216400	0.327273	0.146458
H272	H	-0.303101	0.374061	0.095850
H273	H	-0.079660	0.599768	-0.148251
H274	H	0.000603	0.599771	-0.148240
H275	H	-0.075185	0.325317	0.148573
O276	O	0.017383	0.312429	0.162503
H277	H	0.017711	0.294794	0.243547
O278	O	-0.132728	0.612641	-0.162196
H279	H	-0.172499	0.646538	-0.198867
