data_functionalizedCrystal
_audit_creation_method	'MofGen! by Chris Wilmer'
_symmetry_space_group_name_H-M	'P1'
_symmetry_Int_Tables_number	1
_symmetry_cell_setting	triclinic
loop_
_symmetry_equiv_pos_as_xyz
  x,y,z
_cell_length_a	16.625548
_cell_length_b	12.645323
_cell_length_c	16.625545
_cell_angle_alpha	89.971273
_cell_angle_beta	89.974583
_cell_angle_gamma	90.024242
loop_
_atom_site_label
_atom_site_type_symbol
_atom_site_fract_x
_atom_site_fract_y
_atom_site_fract_z
Zn1	Zn	-1.232678	-0.599462	-0.320998
Zn2	Zn	-0.732678	-0.099462	0.179002
Zn3	Zn	-1.232570	-0.422190	-0.455843
Zn4	Zn	-0.732570	0.077810	0.044157
Zn5	Zn	-1.097836	-0.422202	-0.321028
Zn6	Zn	-0.597836	0.077798	0.178972
Zn7	Zn	-1.097803	-0.599401	-0.455792
Zn8	Zn	-0.597803	-0.099401	0.044208
O9	O	-1.165222	-0.510814	-0.388415
O10	O	-0.665222	-0.010814	0.111585
O11	O	-1.345496	-0.575968	-0.338895
O12	O	-0.845496	-0.075968	0.161105
O13	O	-1.214665	-0.273844	-0.437993
O14	O	-0.714665	0.226156	0.062007
O15	O	-1.115782	-0.445746	-0.208191
O16	O	-0.615782	0.054254	0.291809
O17	O	-1.345417	-0.445727	-0.437964
O18	O	-0.845417	0.054273	0.062036
O19	O	-1.214850	-0.575979	-0.208170
O20	O	-0.714850	-0.075979	0.291830
O21	O	-1.115677	-0.273853	-0.338945
O22	O	-0.615677	0.226147	0.161055
O23	O	-0.984999	-0.445687	-0.338896
O24	O	-0.484999	0.054313	0.161104
O25	O	-1.115727	-0.747756	-0.437878
O26	O	-0.615727	-0.247756	0.062122
O27	O	-0.984975	-0.575874	-0.437907
O28	O	-0.484975	-0.075874	0.062093
O29	O	-1.214819	-0.747801	-0.338846
O30	O	-0.714819	-0.247801	0.161154
O31	O	-1.214634	-0.445667	-0.568669
O32	O	-0.714634	0.054333	-0.068669
O33	O	-1.115621	-0.575863	-0.568631
O34	O	-0.615621	-0.075863	-0.068631
C35	C	-0.955731	-0.510776	-0.388399
C36	C	-0.455731	-0.010776	0.111601
C37	C	-0.866110	-0.510784	-0.388412
C38	C	-0.366110	-0.010784	0.111588
C39	C	-0.537934	-0.510816	-0.388410
C40	C	-0.037934	-0.010816	0.111590
C41	C	-0.629243	-0.510804	-0.388409
C42	C	-0.129243	-0.010804	0.111591
C43	C	-0.702019	-0.510800	-0.388412
C44	C	-0.202019	-0.010800	0.111588
C45	C	-0.793333	-0.510789	-0.388409
C46	C	-0.293333	-0.010789	0.111591
C47	C	-1.165281	-0.787319	-0.388353
C48	C	-0.665281	-0.287319	0.111647
C49	C	-1.165306	-0.905149	-0.388326
C50	C	-0.665306	-0.405149	0.111674
C51	C	-1.165134	-0.510780	-0.597906
C52	C	-0.665134	-0.010780	-0.097906
C53	C	-1.165170	-0.510802	-0.687527
C54	C	-0.665170	-0.010802	-0.187527
C55	C	-0.375531	-0.510842	-0.388427
C56	C	0.124469	-0.010842	0.111573
C57	C	-0.465152	-0.510829	-0.388418
C58	C	0.034848	-0.010829	0.111582
C59	C	-1.102775	-1.072685	-0.450334
C60	C	-0.602775	-0.572685	0.049666
C61	C	-1.102939	-0.950125	-0.450641
C62	C	-0.602939	-0.450125	0.049359
C63	C	-1.250262	-0.949670	-0.411387
C64	C	-0.750262	-0.449670	0.088613
C65	C	-1.249919	-1.072268	-0.411776
C66	C	-0.749919	-0.572268	0.088224
C67	C	-1.143686	-1.072354	-0.302911
C68	C	-0.643686	-0.572354	0.197089
C69	C	-1.141790	-0.949747	-0.303423
C70	C	-0.641790	-0.449747	0.196577
C71	C	-1.165209	-0.235384	-0.388419
C72	C	-0.665209	0.264616	0.111581
C73	C	-1.165340	-0.117555	-0.388219
C74	C	-0.665340	0.382445	0.111781
C75	C	-1.165202	-0.510823	-0.760310
C76	C	-0.665202	-0.010823	-0.260310
C77	C	-1.165249	-0.510846	-0.851618
C78	C	-0.665249	-0.010846	-0.351618
C79	C	-1.165290	-0.510859	-0.924395
C80	C	-0.665290	-0.010859	-0.424395
C81	C	-1.165337	-0.510881	-1.015709
C82	C	-0.665337	-0.010881	-0.515709
C83	C	-1.165332	-0.510870	-0.178106
C84	C	-0.665332	-0.010870	0.321894
C85	C	-1.165378	-0.510895	-0.088485
C86	C	-0.665378	-0.010895	0.411515
H87	H	-1.039941	-0.920022	-0.436211
H88	H	-0.539941	-0.420022	0.063789
C89	C	-1.315034	-1.112379	-0.353323
C90	C	-0.815034	-0.612379	0.146677
C91	C	-1.328005	-1.232011	-0.341757
C92	C	-0.828005	-0.732011	0.158243
C93	C	-1.393123	-1.272117	-0.283311
C94	C	-0.893123	-0.772117	0.216689
C95	C	-1.445271	-1.192590	-0.236430
C96	C	-0.945271	-0.692590	0.263570
C97	C	-1.432302	-1.072951	-0.247995
C98	C	-0.932302	-0.572951	0.252005
C99	C	-1.367184	-1.032845	-0.306441
C100	C	-0.867184	-0.532845	0.193559
H101	H	-1.289400	-1.290888	-0.376462
H102	H	-0.789400	-0.790888	0.123538
H103	H	-1.402723	-1.360682	-0.274750
H104	H	-0.902723	-0.860682	0.225250
H105	H	-1.493476	-1.222278	-0.193165
H106	H	-0.993476	-0.722278	0.306835
H107	H	-1.470907	-1.014074	-0.213290
H108	H	-0.970907	-0.514074	0.286710
H109	H	-1.357584	-0.944280	-0.315002
H110	H	-0.857584	-0.444280	0.184998
C111	C	-1.017412	-1.112491	-0.431030
C112	C	-0.517412	-0.612491	0.068970
C113	C	-1.003466	-1.186228	-0.358629
C114	C	-0.503466	-0.686228	0.141371
C115	C	-0.918101	-1.226043	-0.339325
C116	C	-0.418101	-0.726043	0.160675
C117	C	-0.846682	-1.192121	-0.392421
C118	C	-0.346682	-0.692121	0.107579
C119	C	-0.860626	-1.118380	-0.464826
C120	C	-0.360626	-0.618380	0.035174
C121	C	-0.945991	-1.078565	-0.484131
C122	C	-0.445991	-0.578565	0.015869
H123	H	-1.056337	-1.211342	-0.319320
H124	H	-0.556337	-0.711342	0.180680
H125	H	-0.907779	-1.280631	-0.285725
H126	H	-0.407779	-0.780631	0.214275
H127	H	-0.783489	-1.221595	-0.378130
H128	H	-0.283489	-0.721595	0.121870
H129	H	-0.807755	-1.093266	-0.504136
H130	H	-0.307755	-0.593266	-0.004136
H131	H	-0.956313	-1.023977	-0.537731
H132	H	-0.456313	-0.523977	-0.037731
H133	H	-1.117233	-0.920806	-0.513883
H134	H	-0.617233	-0.420806	-0.013883
C135	C	-1.061451	-1.114092	-0.274514
C136	C	-0.561451	-0.614092	0.225486
C137	C	-1.055359	-1.179038	-0.196378
C138	C	-0.555359	-0.679038	0.303622
C139	C	-0.973121	-1.220778	-0.167992
C140	C	-0.473121	-0.720778	0.332008
C141	C	-0.896976	-1.197571	-0.217741
C142	C	-0.396976	-0.697571	0.282259
C143	C	-0.903066	-1.132621	-0.295882
C144	C	-0.403066	-0.632621	0.204118
C145	C	-0.985304	-1.090882	-0.324268
C146	C	-0.485304	-0.590882	0.175732
H147	H	-1.111728	-1.196220	-0.159546
H148	H	-0.611728	-0.696220	0.340454
H149	H	-0.968614	-1.268858	-0.110147
H150	H	-0.468614	-0.768858	0.389853
H151	H	-0.836099	-1.228469	-0.196728
H152	H	-0.336099	-0.728469	0.303272
H153	H	-0.846696	-1.115440	-0.332714
H154	H	-0.346696	-0.615440	0.167286
H155	H	-0.989811	-1.042802	-0.382113
H156	H	-0.489811	-0.542802	0.117887
H157	H	-1.268275	-1.100874	-0.474137
H158	H	-0.768275	-0.600874	0.025863
C159	C	-1.121891	-1.114307	-0.535239
C160	C	-0.621891	-0.614307	-0.035239
C161	C	-1.194001	-1.188788	-0.548359
C162	C	-0.694001	-0.688788	-0.048359
C163	C	-1.213119	-1.230411	-0.633263
C164	C	-0.713119	-0.730411	-0.133263
C165	C	-1.160128	-1.197553	-0.705047
C166	C	-0.660128	-0.697553	-0.205047
C167	C	-1.088013	-1.123069	-0.691929
C168	C	-0.588013	-0.623069	-0.191929
C169	C	-1.068895	-1.081445	-0.607025
C170	C	-0.568895	-0.581445	-0.107025
H171	H	-1.233233	-1.213114	-0.495218
H172	H	-0.733233	-0.713114	0.004782
H173	H	-1.266503	-1.285550	-0.642973
H174	H	-0.766503	-0.785550	-0.142973
H175	H	-1.174280	-1.228365	-0.767897
H176	H	-0.674280	-0.728365	-0.267897
H177	H	-1.048781	-1.098742	-0.745069
H178	H	-0.548781	-0.598742	-0.245069
H179	H	-1.015511	-1.026307	-0.597315
H180	H	-0.515511	-0.526307	-0.097315
C181	C	-1.314929	-0.910326	-0.352204
C182	C	-0.814929	-0.410326	0.147796
C183	C	-1.291290	-0.837139	-0.282079
C184	C	-0.791290	-0.337139	0.217921
C185	C	-1.355956	-0.797798	-0.222892
C186	C	-0.855956	-0.297798	0.277108
C187	C	-1.444260	-0.831643	-0.233831
C188	C	-0.944260	-0.331643	0.266169
C189	C	-1.467904	-0.904835	-0.303959
C190	C	-0.967904	-0.404835	0.196041
C191	C	-1.403238	-0.944176	-0.363145
C192	C	-0.903238	-0.444176	0.136855
H193	H	-1.225918	-0.812081	-0.273979
H194	H	-0.725918	-0.312081	0.226021
H195	H	-1.338453	-0.743616	-0.170979
H196	H	-0.838453	-0.243616	0.329021
H197	H	-1.492130	-0.802520	-0.190018
H198	H	-0.992130	-0.302520	0.309982
H199	H	-1.533276	-0.929893	-0.312059
H200	H	-1.033276	-0.429893	0.187941
H201	H	-1.420741	-0.998357	-0.415059
H202	H	-0.920741	-0.498357	0.084941
H203	H	-1.268932	-0.918977	-0.473094
H204	H	-0.768932	-0.418977	0.026906
C205	C	-1.205238	-1.111559	-0.240386
C206	C	-0.705238	-0.611559	0.259614
C207	C	-1.256190	-1.031386	-0.192832
C208	C	-0.756190	-0.531386	0.307168
C209	C	-1.317744	-1.070597	-0.130314
C210	C	-0.817744	-0.570597	0.369686
C211	C	-1.328347	-1.189981	-0.115350
C212	C	-0.828347	-0.689981	0.384650
C213	C	-1.277394	-1.270162	-0.162905
C214	C	-0.777394	-0.770162	0.337095
C215	C	-1.215840	-1.230951	-0.225423
C216	C	-0.715840	-0.730951	0.274577
H217	H	-1.248342	-0.943003	-0.203908
H218	H	-0.748342	-0.443003	0.296092
H219	H	-1.355462	-1.011241	-0.095111
H220	H	-0.855462	-0.511241	0.404889
H221	H	-1.373913	-1.219008	-0.069071
H222	H	-0.873913	-0.719008	0.430929
H223	H	-1.285242	-1.358544	-0.151829
H224	H	-0.785242	-0.858544	0.348171
H225	H	-1.178122	-1.290307	-0.260627
H226	H	-0.678122	-0.790307	0.239373
C227	C	-1.057332	-0.910438	-0.279922
C228	C	-0.557332	-0.410438	0.220078
C229	C	-1.009915	-0.838182	-0.337528
C230	C	-0.509915	-0.338182	0.162472
C231	C	-0.925456	-0.798867	-0.314030
C232	C	-0.425456	-0.298867	0.185970
C233	C	-0.888413	-0.831808	-0.232925
C234	C	-0.388413	-0.331808	0.267075
C235	C	-0.935830	-0.904067	-0.175314
C236	C	-0.435830	-0.404067	0.324686
C237	C	-1.020289	-0.943382	-0.198812
C238	C	-0.520289	-0.443382	0.301188
H239	H	-1.037336	-0.813794	-0.397571
H240	H	-0.537336	-0.313794	0.102429
H241	H	-0.890355	-0.745376	-0.356678
H242	H	-0.390355	-0.245376	0.143322
H243	H	-0.825891	-0.802705	-0.215530
H244	H	-0.325891	-0.302705	0.284470
H245	H	-0.908409	-0.928455	-0.115271
H246	H	-0.408409	-0.428455	0.384729
H247	H	-1.055390	-0.996874	-0.156164
H248	H	-0.555390	-0.496874	0.343836
H249	H	-1.184031	-0.919132	-0.254697
H250	H	-0.684031	-0.419132	0.245303
