data_functionalizedCrystal
_audit_creation_method	'MofGen! by Chris Wilmer'
_symmetry_space_group_name_H-M	'P1'
_symmetry_Int_Tables_number	1
_symmetry_cell_setting	triclinic
loop_
_symmetry_equiv_pos_as_xyz
  x,y,z
_cell_length_a	16.109301
_cell_length_b	8.597249
_cell_length_c	15.186229
_cell_angle_alpha	97.700131
_cell_angle_beta	89.999362
_cell_angle_gamma	84.402788
loop_
_atom_site_label
_atom_site_type_symbol
_atom_site_fract_x
_atom_site_fract_y
_atom_site_fract_z
O1	O	1.104799	0.201730	-0.057864
O2	O	0.862945	0.226835	-0.055972
O3	O	0.988632	-0.014187	-0.074250
O4	O	0.979111	0.442752	-0.039586
O5	O	0.988623	-0.014190	0.072207
O6	O	0.862936	0.226832	0.090485
O7	O	1.104790	0.201727	0.088593
Zn8	Zn	0.983862	0.214279	0.112792
Zn9	Zn	0.983873	0.214283	-0.080171
O10	O	0.979103	0.442748	0.106872
C11	C	0.831957	0.225816	0.017177
C12	C	0.739636	0.222768	0.016941
C13	C	0.518488	0.358696	0.027263
C14	C	0.431744	0.355819	0.027050
C15	C	0.449253	0.069855	0.005352
C16	C	0.535996	0.072734	0.005571
C17	C	0.570611	0.217159	0.016523
C18	C	0.397124	0.211403	0.016091
C19	C	0.303072	0.208283	0.015860
C20	C	0.664669	0.220280	0.016755
C21	C	0.987605	-0.072659	-0.005460
C22	C	0.984550	-0.246884	-0.018683
C23	C	1.135778	0.202745	0.015442
C24	C	1.228098	0.205794	0.015673
C25	C	0.980129	0.501221	0.038079
C26	C	0.983185	0.675446	0.051296
N27	N	0.983860	0.214275	0.244485
N28	N	0.983881	0.214275	-0.211864
C29	C	1.039534	0.107586	0.462117
C30	C	1.039537	0.107582	0.554306
C31	C	0.928201	0.320968	0.570497
C32	C	0.928195	0.320963	0.478309
C33	C	0.983866	0.214274	0.424121
C34	C	0.983875	0.214275	0.608499
C35	C	0.983877	0.214272	0.708455
C36	C	0.983863	0.214275	0.324159
H37	H	0.421059	-0.047731	-0.003558
H38	H	1.084864	0.020711	0.417999
C39	C	0.592454	-0.081115	-0.006149
C40	C	0.543576	-0.208213	-0.015817
C41	C	0.595555	-0.349953	-0.026623
H42	H	0.626672	-0.086160	0.044528
H43	H	0.626645	-0.086014	-0.057613
H44	H	0.509400	-0.203316	0.035642
H45	H	0.509360	-0.203220	-0.066494
H46	H	0.629746	-0.354852	-0.078088
H47	H	0.629771	-0.354982	0.024056
H48	H	0.562400	-0.436205	-0.033193
H49	H	0.984355	-0.257764	0.121319
H50	H	0.546668	0.476296	0.036187
H51	H	0.882860	0.407842	0.447372
C52	C	0.867805	0.437056	0.629236
C53	C	0.882521	0.591287	0.618486
C54	C	0.826892	0.698271	0.672570
H55	H	0.875721	0.422007	0.689613
H56	H	0.812166	0.420070	0.612824
H57	H	0.938147	0.608266	0.634904
H58	H	0.874599	0.606386	0.558121
H59	H	0.771253	0.681286	0.656157
H60	H	0.834813	0.683208	0.732944
H61	H	0.836864	0.802928	0.665277
H62	H	1.084865	0.020706	0.585239
H63	H	0.983388	-0.313685	-0.088711
H64	H	0.389309	0.471073	0.035798
