data_functionalizedCrystal
_audit_creation_method	'MofGen! by Chris Wilmer'
_symmetry_space_group_name_H-M	'P1'
_symmetry_Int_Tables_number	1
_symmetry_cell_setting	triclinic
loop_
_symmetry_equiv_pos_as_xyz
  x,y,z
_cell_length_a	12.837943
_cell_length_b	13.596369
_cell_length_c	14.519709
_cell_angle_alpha	89.993066
_cell_angle_beta	90.745458
_cell_angle_gamma	90.004014
loop_
_atom_site_label
_atom_site_type_symbol
_atom_site_fract_x
_atom_site_fract_y
_atom_site_fract_z
O1	O	1.375899	0.081778	-0.239787
O2	O	1.074072	0.081784	-0.227942
O3	O	1.232988	0.081772	-0.100318
O4	O	1.216983	0.081790	-0.367412
O5	O	1.232972	-0.081811	-0.100309
O6	O	1.074056	-0.081799	-0.227933
O7	O	1.375884	-0.081804	-0.239778
Zn8	Zn	1.224967	-0.107774	-0.233854
Zn9	Zn	1.224988	0.107754	-0.233866
O10	O	1.216967	-0.081793	-0.367403
C11	C	1.035436	-0.000007	-0.223936
C12	C	0.920337	-0.000005	-0.212002
N13	N	1.224961	-0.254866	-0.233846
C14	C	0.679644	-0.000009	-0.355473
C15	C	0.571498	-0.000008	-0.344264
C16	C	0.595895	-0.000009	-0.178376
C17	C	0.704041	-0.000010	-0.189585
C18	C	0.745912	-0.000009	-0.278136
C19	C	0.854061	-0.000003	-0.289344
C20	C	0.878456	-0.000010	-0.123458
C21	C	0.770309	-0.000009	-0.112249
C22	C	1.224987	-0.656157	-0.233867
C23	C	1.224976	-0.544505	-0.233864
C24	C	1.224974	-0.455515	-0.233857
C25	C	1.224963	-0.343856	-0.233853
C26	C	1.414519	-0.000011	-0.243784
C27	C	1.529619	-0.000007	-0.255718
C28	C	1.232234	-0.000019	-0.065889
C29	C	1.229999	-0.000020	0.036685
N30	N	1.225003	0.254845	-0.233867
C31	C	1.217721	0.000001	-0.401831
C32	C	1.219956	0.000008	-0.504406
C33	C	1.221770	0.000006	0.412292
C34	C	1.224055	-0.000002	0.307787
C35	C	1.225884	-0.000008	0.224492
C36	C	1.228170	-0.000014	0.119980
H37	H	0.888149	-0.000003	-0.361447
H38	H	0.713736	-0.000007	-0.427574
H39	H	0.932423	-0.000003	-0.060484
H40	H	0.517545	-0.000012	-0.407239
H41	H	0.561784	-0.000091	-0.106282
H42	H	0.736203	-0.000022	-0.040153
