data_functionalizedCrystal
_audit_creation_method	'MofGen! by Chris Wilmer'
_symmetry_space_group_name_H-M	'P1'
_symmetry_Int_Tables_number	1
_symmetry_cell_setting	triclinic
loop_
_symmetry_equiv_pos_as_xyz
  x,y,z
_cell_length_a	18.050589
_cell_length_b	18.050591
_cell_length_c	18.050582
_cell_angle_alpha	89.979078
_cell_angle_beta	89.981795
_cell_angle_gamma	90.024227
loop_
_atom_site_label
_atom_site_type_symbol
_atom_site_fract_x
_atom_site_fract_y
_atom_site_fract_z
Zn1	Zn	-0.295786	1.135293	-0.420054
Zn2	Zn	-0.419969	1.135203	-0.295873
Zn3	Zn	-0.295789	1.011112	-0.295865
Zn4	Zn	-0.419930	1.011060	-0.420009
O5	O	-0.357868	1.073167	-0.357950
O6	O	-0.312274	1.239205	-0.403603
O7	O	-0.403514	1.118727	-0.191948
O8	O	-0.191864	1.027644	-0.312354
O9	O	-0.403511	1.239140	-0.312369
O10	O	-0.191862	1.118879	-0.403595
O11	O	-0.312279	1.027557	-0.191942
O12	O	-0.312241	0.907180	-0.312311
O13	O	-0.403444	1.027555	-0.523940
O14	O	-0.403447	0.907142	-0.403519
O15	O	-0.312236	1.118828	-0.523973
O16	O	-0.523888	1.118676	-0.312325
O17	O	-0.523860	1.027468	-0.403527
C18	C	-0.357841	0.880215	-0.357909
C19	C	-0.357847	0.797669	-0.357909
C20	C	-0.550820	1.073077	-0.357938
C21	C	-0.633366	1.073107	-0.357958
C22	C	-0.308191	0.598217	-0.308425
C23	C	-0.375927	0.548798	-0.290154
C24	C	-0.357869	0.646539	-0.357943
C25	C	-0.290157	0.548877	-0.376212
C26	C	-0.357885	0.500553	-0.357974
C27	C	-0.425641	0.598206	-0.339637
C28	C	-0.339825	0.598289	-0.425726
C29	C	-0.407607	0.548892	-0.407481
C30	C	-0.357859	0.730637	-0.357923
C31	C	-0.357903	0.416457	-0.357994
C32	C	-0.832828	1.023557	-0.407536
C33	C	-0.882261	1.005459	-0.339767
C34	C	-0.784497	1.073180	-0.357967
C35	C	-0.882146	1.091314	-0.425744
C36	C	-0.930482	1.073249	-0.357983
C37	C	-0.832842	1.055046	-0.290162
C38	C	-0.832722	1.140933	-0.376186
C39	C	-0.882133	1.122861	-0.308370
C40	C	-0.700398	1.073138	-0.357959
C41	C	-1.014578	1.073291	-0.357983
C42	C	-0.164163	1.073277	-0.357979
C43	C	-0.081617	1.073324	-0.357991
C44	C	-0.357835	1.073196	-0.551656
C45	C	-0.357821	1.073208	-0.634202
C46	C	-0.357897	1.266872	-0.357992
C47	C	-0.357909	1.349418	-0.358010
C48	C	-0.407353	1.023612	-0.833635
C49	C	-0.425511	1.091367	-0.883034
C50	C	-0.357765	1.073245	-0.785332
C51	C	-0.339586	1.005527	-0.883014
C52	C	-0.357711	1.073274	-0.931317
C53	C	-0.375958	1.141036	-0.833645
C54	C	-0.290002	1.055150	-0.833620
C55	C	-0.308134	1.122952	-0.882998
C56	C	-0.357797	1.073227	-0.701234
C57	C	-0.357679	1.073300	-1.015414
C58	C	-0.357848	1.073181	-0.164998
C59	C	-0.357652	1.073312	-0.082453
H60	H	-0.266226	0.619875	-0.266503
F61	F	-0.804260	1.215765	-0.396350
F62	F	-0.910701	0.930607	-0.319626
H63	H	-0.391202	0.527060	-0.232844
F64	F	-0.804529	0.968628	-0.462250
H65	H	-0.811275	1.039669	-0.232834
H66	H	-0.482928	0.619785	-0.324134
H67	H	-0.324232	0.948246	-0.904701
H68	H	-0.903645	1.164855	-0.266409
F69	F	-0.462234	0.968801	-0.805303
H70	H	-0.903802	1.106625	-0.483056
H71	H	-0.482794	1.106690	-0.904739
F72	F	-0.215302	0.520549	-0.396391
F73	F	-0.253293	1.177892	-0.911153
H74	H	-0.232736	1.039807	-0.811899
F75	F	-0.319835	0.626724	-0.500614
F76	F	-0.462588	0.520759	-0.462234
F77	F	-0.396118	1.215926	-0.805421
