data_functionalizedCrystal
_audit_creation_method	'MofGen! by Chris Wilmer'
_symmetry_space_group_name_H-M	'P1'
_symmetry_Int_Tables_number	1
_symmetry_cell_setting	triclinic
loop_
_symmetry_equiv_pos_as_xyz
  x,y,z
_cell_length_a	21.395362
_cell_length_b	14.908178
_cell_length_c	21.395355
_cell_angle_alpha	93.314561
_cell_angle_beta	90.043940
_cell_angle_gamma	93.328618
loop_
_atom_site_label
_atom_site_type_symbol
_atom_site_fract_x
_atom_site_fract_y
_atom_site_fract_z
Zn1	Zn	0.943530	-0.358911	0.340196
Zn2	Zn	0.937410	-0.509764	0.229370
Zn3	Zn	0.838744	-0.358953	0.235395
Zn4	Zn	0.832691	-0.509782	0.334074
O5	O	0.888094	-0.434352	0.284759
O6	O	1.030397	-0.378896	0.325535
O7	O	0.924294	-0.489768	0.142491
O8	O	0.857738	-0.232692	0.254381
O9	O	1.025901	-0.489727	0.244112
O10	O	0.934725	-0.232661	0.331377
O11	O	0.851804	-0.378968	0.146918
O12	O	0.750262	-0.378986	0.248445
O13	O	0.847422	-0.489759	0.422564
O14	O	0.745815	-0.489800	0.320944
O15	O	0.928856	-0.378914	0.427062
O16	O	0.918425	-0.636021	0.238176
O17	O	0.841488	-0.636035	0.315101
C18	C	0.725304	-0.434400	0.284684
C19	C	0.655661	-0.434442	0.284666
C20	C	0.620646	-0.492219	0.322353
C21	C	0.555212	-0.492197	0.322382
C22	C	0.524794	-0.434407	0.284712
C23	C	0.559818	-0.376619	0.247023
C24	C	0.625251	-0.376636	0.247000
C25	C	0.421360	-0.427139	0.228598
C26	C	0.355927	-0.427128	0.228620
C27	C	0.322976	-0.434348	0.284784
C28	C	0.355465	-0.441599	0.340927
C29	C	0.420898	-0.441616	0.340904
C30	C	0.453843	-0.434382	0.284733
C31	C	0.217009	-0.492105	0.322505
C32	C	0.151574	-0.492076	0.322535
C33	C	0.156181	-0.376503	0.247170
C34	C	0.221616	-0.376527	0.247146
C35	C	0.252025	-0.434332	0.284812
C36	C	0.878652	-0.668765	0.275334
C37	C	0.874671	-0.769047	0.271323
C38	C	0.947294	-0.957307	0.344048
C39	C	0.943555	-1.051531	0.340282
C40	C	0.863451	-1.051722	0.260027
C41	C	0.867190	-0.957498	0.263793
C42	C	0.909113	-0.910293	0.305805
C43	C	0.912855	-0.816067	0.309568
C44	C	0.832749	-0.816260	0.229317
C45	C	0.829010	-0.910484	0.225550
C46	C	1.051519	-0.434305	0.284834
C47	C	1.121161	-0.434285	0.284866
C48	C	0.888147	-0.434334	0.448183
C49	C	0.888169	-0.434326	0.517824
C50	C	0.897589	-0.199025	0.294234
C51	C	0.901635	-0.098742	0.298272
C52	C	0.888080	-0.434305	0.121973
C53	C	0.888189	-0.434059	0.052342
C54	C	0.930570	-0.376607	0.552881
C55	C	0.930570	-0.376568	0.618318
C56	C	0.888176	-0.434265	0.648695
C57	C	0.845768	-0.491988	0.613631
C58	C	0.845764	-0.492019	0.548196
C59	C	0.879957	-0.515504	0.749102
C60	C	0.879965	-0.515475	0.814536
C61	C	0.888184	-0.434169	0.850520
C62	C	0.896408	-0.352891	0.821062
C63	C	0.896405	-0.352921	0.755626
C64	C	0.888175	-0.434237	0.719649
C65	C	0.930588	-0.376403	0.956531
C66	C	0.930584	-0.376363	1.021969
C67	C	0.845785	-0.491791	1.017281
C68	C	0.845785	-0.491823	0.951844
C69	C	0.888190	-0.434130	0.921473
H70	H	0.535048	-0.329564	0.216353
H71	H	0.241770	-0.539169	0.353179
H72	H	0.123065	-0.539124	0.353229
H73	H	0.329480	-0.421230	0.182905
H74	H	0.526697	-0.539246	0.353074
C75	C	0.799139	-0.555457	0.647044
H76	H	0.805218	-0.547179	0.691036
H77	H	0.757572	-0.542273	0.636820
H78	H	0.805867	-0.616081	0.633894
C79	C	0.782901	-0.962414	0.179339
H80	H	0.786145	-1.025264	0.182569
H81	H	0.741407	-0.947036	0.189062
H82	H	0.792715	-0.946986	0.137869
C83	C	0.260137	-0.312979	0.205686
H84	H	0.303463	-0.321261	0.211071
H85	H	0.248835	-0.326088	0.163050
H86	H	0.251885	-0.252373	0.217370
C87	C	0.977217	-0.313082	0.656887
H88	H	1.002474	-0.278732	0.629427
H89	H	0.954843	-0.273763	0.683975
H90	H	1.003124	-0.347592	0.681045
C91	C	0.457602	-0.419146	0.166820
H92	H	0.428883	-0.414824	0.133388
H93	H	0.485241	-0.366845	0.169808
H94	H	0.481034	-0.470838	0.159147
H95	H	0.653761	-0.329584	0.216310
H96	H	0.903100	-0.286741	0.731644
H97	H	0.328637	-0.447477	0.386661
C98	C	0.958959	-0.764143	0.355787
H99	H	0.981155	-0.805641	0.378030
H100	H	0.987736	-0.727351	0.333336
H101	H	0.936421	-0.727415	0.384522
C102	C	0.122731	-0.312924	0.205742
H103	H	0.078745	-0.321187	0.211153
H104	H	0.135931	-0.252330	0.217419
H105	H	0.132870	-0.326038	0.163094
H106	H	0.981434	-0.918872	0.378251
C107	C	0.817343	-1.103657	0.213818
H108	H	0.820589	-1.166506	0.217051
H109	H	0.775849	-1.088281	0.223541
H110	H	0.827155	-1.088233	0.172347
H111	H	0.974642	-1.089806	0.371427
H112	H	0.801661	-0.777971	0.198174
H113	H	0.903102	-0.286684	0.850359
C114	C	0.799150	-0.555321	0.913277
H115	H	0.805217	-0.547072	0.869956
H116	H	0.805873	-0.615933	0.921578
H117	H	0.757584	-0.542118	0.924499
H118	H	0.965098	-0.329628	0.528157
C119	C	0.977220	-0.312930	0.923120
H120	H	1.002466	-0.278536	0.953373
H121	H	1.003129	-0.347440	0.896229
H122	H	0.954828	-0.273640	0.899154
C123	C	0.977228	-0.312869	1.060531
H124	H	1.002484	-0.278523	1.033068
H125	H	0.954851	-0.273548	1.087615
H126	H	1.003135	-0.347372	1.084694
H127	H	0.811261	-0.538759	1.042014
H128	H	0.873272	-0.581657	0.838516
C129	C	0.870780	-0.604928	0.709526
H130	H	0.865850	-0.653324	0.736441
H131	H	0.834479	-0.603650	0.684076
H132	H	0.906318	-0.612980	0.683654
C133	C	0.799125	-0.555515	0.509629
H134	H	0.805194	-0.547267	0.466308
H135	H	0.805847	-0.616127	0.517931
H136	H	0.757558	-0.542309	0.520849
C137	C	0.654094	-0.555793	0.363792
H138	H	0.623865	-0.590194	0.386246
H139	H	0.678001	-0.595060	0.338196
H140	H	0.681046	-0.521337	0.392511
H141	H	0.447348	-0.447517	0.386617
