data_functionalizedCrystal
_audit_creation_method	'MofGen! by Chris Wilmer'
_symmetry_space_group_name_H-M	'P1'
_symmetry_Int_Tables_number	1
_symmetry_cell_setting	triclinic
loop_
_symmetry_equiv_pos_as_xyz
  x,y,z
_cell_length_a	19.077105
_cell_length_b	15.297327
_cell_length_c	19.077569
_cell_angle_alpha	97.767151
_cell_angle_beta	85.299277
_cell_angle_gamma	97.818066
loop_
_atom_site_label
_atom_site_type_symbol
_atom_site_fract_x
_atom_site_fract_y
_atom_site_fract_z
Zn1	Zn	1.043384	-0.387669	-0.492142
Zn2	Zn	1.018491	-0.542291	-0.394311
Zn3	Zn	0.920764	-0.387681	-0.369539
Zn4	Zn	0.906887	-0.530739	-0.505932
O5	O	0.972382	-0.462095	-0.440481
O6	O	1.138105	-0.413009	-0.483760
O7	O	1.000917	-0.526622	-0.293001
O8	O	0.953256	-0.263100	-0.369664
O9	O	1.119816	-0.526609	-0.411884
O10	O	1.043344	-0.263090	-0.459740
O11	O	0.929118	-0.413031	-0.274802
O12	O	0.820900	-0.401829	-0.383036
O13	O	0.929604	-0.506920	-0.602126
O14	O	0.810705	-0.506933	-0.483243
O15	O	1.029888	-0.401807	-0.591995
O16	O	0.987461	-0.665339	-0.425256
O17	O	0.905467	-0.656851	-0.507264
C18	C	0.790386	-0.453129	-0.431948
C19	C	0.712526	-0.449314	-0.428318
C20	C	0.942277	-0.693398	-0.470460
C21	C	0.929463	-0.792352	-0.483312
C22	C	0.670643	-0.502333	-0.478725
C23	C	0.597486	-0.498737	-0.475315
C24	C	0.566214	-0.442126	-0.421495
C25	C	0.608103	-0.389101	-0.371085
C26	C	0.681259	-0.392693	-0.374498
C27	C	0.347991	-0.425500	-0.405701
C28	C	0.274829	-0.421913	-0.402290
C29	C	0.264218	-0.531549	-0.506522
C30	C	0.337375	-0.535140	-0.509928
C31	C	0.379258	-0.482112	-0.459520
N32	N	0.491436	-0.438450	-0.418007
N33	N	0.454036	-0.485783	-0.463012
C34	C	1.064265	-1.088839	-0.348880
C35	C	1.076303	-0.995867	-0.336801
C36	C	1.039595	-0.944984	-0.373428
C37	C	0.990844	-0.987082	-0.422135
C38	C	0.978800	-1.080063	-0.434211
C39	C	0.954130	-0.936207	-0.458759
C40	C	0.905380	-0.978305	-0.507466
C41	C	0.893339	-1.071278	-0.519540
C42	C	0.930047	-1.122161	-0.482913
C43	C	0.966174	-0.843226	-0.446684
C44	C	0.880710	-0.834450	-0.532015
C45	C	0.868671	-0.927422	-0.544093
C46	C	1.155088	-0.471096	-0.449047
C47	C	1.232946	-0.474932	-0.452698
C48	C	0.980975	-0.453074	-0.623187
C49	C	0.984636	-0.449229	-0.701046
C50	C	1.002624	-0.229889	-0.410401
C51	C	1.015512	-0.130937	-0.397582
C52	C	0.934146	-0.502146	-0.742900
C53	C	0.937592	-0.498534	-0.816057
C54	C	0.991527	-0.442000	-0.847357
C55	C	1.042022	-0.389082	-0.805498
C56	C	1.038578	-0.392699	-0.732344
C57	C	1.007429	-0.425318	-1.065581
C58	C	1.010868	-0.421703	-1.138741
C59	C	0.906438	-0.531157	-1.149294
C60	C	0.902997	-0.534765	-1.076137
C61	C	0.953494	-0.481850	-1.034285
N62	N	0.995050	-0.438305	-0.922135
N63	N	0.949974	-0.485551	-0.959509
C64	C	0.963871	-0.471019	-0.258479
C65	C	0.960377	-0.474619	-0.180594
H66	H	0.696098	-0.548435	-0.522550
H67	H	1.079693	-0.349608	-0.698267
Br68	Br	1.075960	-0.353502	-1.008790
H69	H	1.049399	-0.869282	-0.363590
Br70	Br	0.379811	-0.611977	-0.582970
H71	H	0.896479	-0.541625	-0.850131
Br72	Br	1.142467	-0.938740	-0.270708
Br73	Br	0.207373	-0.603515	-0.574927
Br74	Br	0.232387	-0.345089	-0.329236
H75	H	0.382083	-0.382327	-0.364651
H76	H	0.865326	-0.574237	-1.183377
Br77	Br	1.114074	-1.157897	-0.299175
H78	H	0.859087	-0.580815	-1.050660
Br79	Br	0.540647	-0.570692	-0.543730
H80	H	0.920250	-1.197867	-0.492747
Br81	Br	0.565664	-0.312261	-0.298047
Br82	Br	0.802514	-0.984565	-0.610195
Br83	Br	1.115225	-0.312364	-0.847978
Br84	Br	0.827173	-1.128409	-0.585637
Br85	Br	0.830880	-0.765402	-0.581718
H86	H	1.054786	-0.375658	-1.164222
Br87	Br	0.738102	-0.320731	-0.306088
Br88	Br	1.032332	-0.786104	-0.380582
H89	H	0.890220	-0.548171	-0.717419
