data_functionalizedCrystal
_audit_creation_method	'MofGen! by Chris Wilmer'
_symmetry_space_group_name_H-M	'P1'
_symmetry_Int_Tables_number	1
_symmetry_cell_setting	triclinic
loop_
_symmetry_equiv_pos_as_xyz
  x,y,z
_cell_length_a	16.109301
_cell_length_b	16.109304
_cell_length_c	7.540329
_cell_angle_alpha	89.999220
_cell_angle_beta	89.999760
_cell_angle_gamma	83.462059
loop_
_atom_site_label
_atom_site_type_symbol
_atom_site_fract_x
_atom_site_fract_y
_atom_site_fract_z
O1	O	1.103131	0.106866	-0.147359
O2	O	0.861069	0.120165	-0.147386
O3	O	0.988749	-0.007515	-0.147373
O4	O	0.975452	0.234546	-0.147372
O5	O	0.988741	-0.007517	0.147592
O6	O	0.861062	0.120164	0.147579
O7	O	1.103124	0.106864	0.147606
Cu8	Cu	0.982092	0.113514	0.174525
Cu9	Cu	0.982101	0.113516	-0.174305
O10	O	0.975444	0.234545	0.147593
C11	C	0.830091	0.119626	0.000093
C12	C	0.737795	0.118010	0.000082
C13	C	0.515524	0.190018	0.000103
C14	C	0.428803	0.188494	0.000114
C15	C	0.448676	0.037005	0.000107
C16	C	0.535395	0.038530	0.000108
C17	C	0.568816	0.115039	0.000097
C18	C	0.395377	0.111990	0.000107
C19	C	0.301351	0.110337	0.000120
C20	C	0.662848	0.116693	0.000088
C21	C	0.988206	-0.038491	0.000106
C22	C	0.986590	-0.130786	0.000094
C23	C	0.982860	-0.343123	-0.160686
C24	C	0.981334	-0.429843	-0.160684
C25	C	0.981330	-0.429842	0.160903
C26	C	0.982850	-0.343122	0.160899
C27	C	0.983620	-0.299766	0.000100
C28	C	0.980573	-0.473205	0.000105
C29	C	0.978919	-0.567231	0.000108
C30	C	0.985273	-0.205734	0.000096
C31	C	1.134102	0.107404	0.000123
C32	C	1.226398	0.109019	0.000122
C33	C	0.975987	0.265520	0.000110
C34	C	0.977603	0.357816	0.000111
N35	N	0.982092	0.113512	0.419874
N36	N	0.982108	0.113511	-0.419654
H37	H	0.421454	-0.025285	0.000126
N38	N	0.980519	-0.476610	0.334326
H39	H	0.929276	-0.454771	0.404632
H40	H	0.979478	-0.538115	0.309779
N41	N	0.980527	-0.476606	-0.334106
H42	H	0.979445	-0.538122	-0.309712
H43	H	0.929286	-0.454692	-0.404331
H44	H	0.385416	0.249550	0.000123
N45	N	0.592876	-0.042348	0.000116
H46	H	0.582133	-0.075728	-0.109228
H47	H	0.652859	-0.029705	0.000194
H48	H	0.983484	-0.307824	-0.291619
N49	N	0.551573	0.272534	0.000090
H50	H	0.504651	0.319801	0.000097
H51	H	0.587122	0.276465	0.109435
N52	N	0.983666	-0.296350	0.334326
H53	H	0.982955	-0.336975	0.436193
H54	H	1.035806	-0.267123	0.341326
