data_functionalizedCrystal
_audit_creation_method	'MofGen! by Chris Wilmer'
_symmetry_space_group_name_H-M	'P1'
_symmetry_Int_Tables_number	1
_symmetry_cell_setting	triclinic
loop_
_symmetry_equiv_pos_as_xyz
  x,y,z
_cell_length_a	16.974848
_cell_length_b	16.053802
_cell_length_c	16.974755
_cell_angle_alpha	88.910023
_cell_angle_beta	83.159419
_cell_angle_gamma	83.770402
loop_
_atom_site_label
_atom_site_type_symbol
_atom_site_fract_x
_atom_site_fract_y
_atom_site_fract_z
O1	O	-1.056103	0.147136	-0.093771
O2	O	-0.722770	0.480470	0.239562
O3	O	-0.389436	0.813803	0.572895
O4	O	-0.825176	0.132447	-0.107301
O5	O	-0.491843	0.465780	0.226033
O6	O	-0.158509	0.799114	0.559366
O7	O	-0.946712	0.132439	0.014223
O8	O	-0.613379	0.465773	0.347556
O9	O	-0.280045	0.799106	0.680890
O10	O	-0.934567	0.147144	-0.215295
O11	O	-0.601234	0.480477	0.118038
O12	O	-0.267900	0.813810	0.451372
O13	O	-0.940022	-0.006421	0.007561
O14	O	-0.606689	0.326912	0.340895
O15	O	-0.273356	0.660246	0.674228
O16	O	-0.818486	-0.006413	-0.113962
O17	O	-0.485153	0.326920	0.219371
O18	O	-0.151820	0.660253	0.552704
O19	O	-1.049413	0.008276	-0.100433
O20	O	-0.716080	0.341609	0.232901
O21	O	-0.382747	0.674942	0.566234
Zn22	Zn	-0.932888	-0.021116	-0.108255
Zn23	Zn	-0.599554	0.312217	0.225078
Zn24	Zn	-0.266221	0.645551	0.558411
Zn25	Zn	-0.941702	0.161839	-0.099478
Zn26	Zn	-0.608368	0.495172	0.233855
Zn27	Zn	-0.275035	0.828505	0.567188
O28	O	-0.927877	0.008283	-0.221956
O29	O	-0.594544	0.341617	0.111377
O30	O	-0.261211	0.674950	0.444710
C31	C	-0.792276	0.060993	-0.110239
C32	C	-0.458943	0.394327	0.223094
C33	C	-0.125609	0.727660	0.556428
C34	C	-0.704211	0.054963	-0.109059
C35	C	-0.370878	0.388296	0.224274
C36	C	-0.037545	0.721629	0.557607
N37	N	-0.926878	-0.145977	-0.114245
N38	N	-0.593545	0.187356	0.219089
N39	N	-0.260211	0.520690	0.552422
C40	C	-0.208105	0.012894	-0.102836
C41	C	0.125228	0.346228	0.230497
C42	C	0.458561	0.679561	0.563831
C43	C	-0.290852	0.018562	-0.103944
C44	C	0.042482	0.351896	0.229389
C45	C	0.375815	0.685229	0.562722
C46	C	-0.335872	0.097090	-0.100861
C47	C	-0.002539	0.430423	0.232472
C48	C	0.330794	0.763757	0.565806
C49	C	-0.298142	0.169955	-0.096678
C50	C	0.035192	0.503288	0.236656
C51	C	0.368525	0.836622	0.569989
C52	C	-0.215396	0.164287	-0.095575
C53	C	0.117937	0.497620	0.237758
C54	C	0.451270	0.830953	0.571092
C55	C	-0.583735	0.122160	-0.103774
C56	C	-0.250402	0.455493	0.229560
C57	C	0.082931	0.788826	0.562893
C58	C	-0.666487	0.127822	-0.104874
C59	C	-0.333153	0.461156	0.228459
C60	C	0.000180	0.794489	0.561793
C61	C	-0.659191	-0.023571	-0.112142
C62	C	-0.325857	0.309762	0.221191
C63	C	0.007476	0.643096	0.554525
C64	C	-0.576445	-0.029233	-0.111035
C65	C	-0.243111	0.304101	0.222299
C66	C	0.090222	0.637434	0.555632
C67	C	-0.538721	0.043632	-0.106855
C68	C	-0.205387	0.376966	0.226478
C69	C	0.127946	0.710299	0.559811
N70	N	-0.420453	0.102885	-0.101991
N71	N	-0.087119	0.436219	0.231342
N72	N	0.246214	0.769552	0.564676
N73	N	-0.454141	0.037837	-0.105731
N74	N	-0.120808	0.371170	0.227602
N75	N	0.212526	0.704504	0.560936
C76	C	-0.978611	-0.189672	-0.062554
C77	C	-0.645277	0.143662	0.270779
C78	C	-0.311944	0.476995	0.604112
C79	C	-0.974414	-0.277078	-0.066752
C80	C	-0.641081	0.056255	0.266582
C81	C	-0.307748	0.389588	0.599915
C82	C	-0.918489	-0.320788	-0.122643
C83	C	-0.585155	0.012546	0.210690
C84	C	-0.251822	0.345879	0.544023
C85	C	-0.866751	-0.277087	-0.174336
C86	C	-0.533417	0.056246	0.158997
C87	C	-0.200084	0.389579	0.492331
C88	C	-0.870944	-0.189683	-0.170134
C89	C	-0.537610	0.143650	0.163199
C90	C	-0.204277	0.476984	0.496532
C91	C	-0.900172	-0.582195	-0.140974
C92	C	-0.566839	-0.248862	0.192360
C93	C	-0.233506	0.084471	0.525693
C94	C	-0.895985	-0.669605	-0.145173
C95	C	-0.562651	-0.336272	0.188160
C96	C	-0.229318	-0.002939	0.521494
C97	C	-1.003648	-0.669590	-0.037587
C98	C	-0.670315	-0.336257	0.295746
C99	C	-0.336981	-0.002924	0.629080
C100	C	-1.007840	-0.582184	-0.033394
C101	C	-0.674506	-0.248851	0.299940
C102	C	-0.341173	0.084483	0.633273
C103	C	-0.956099	-0.538491	-0.085083
C104	C	-0.622765	-0.205158	0.248250
C105	C	-0.289432	0.128175	0.581583
N106	N	-0.914200	-0.410131	-0.126937
N107	N	-0.580866	-0.076798	0.206397
N108	N	-0.247533	0.256536	0.539730
N109	N	-0.960384	-0.449150	-0.080786
N110	N	-0.627051	-0.115817	0.252547
N111	N	-0.293718	0.217516	0.585881
C112	C	-0.082314	0.079728	-0.097489
C113	C	0.251020	0.413061	0.235845
C114	C	0.584353	0.746395	0.569178
C115	C	-0.170381	0.085754	-0.098651
C116	C	0.162953	0.419087	0.234683
C117	C	0.496286	0.752421	0.568016
C118	C	-0.942784	0.060985	0.040253
C119	C	-0.609450	0.394319	0.373587
C120	C	-0.276117	0.727652	0.706920
C121	C	-0.941035	0.054955	0.127740
C122	C	-0.607702	0.388288	0.461074
C123	C	-0.274369	0.721621	0.794407
N124	N	-0.947717	0.286700	-0.093483
N125	N	-0.614384	0.620033	0.239851
N126	N	-0.281051	0.953367	0.573184
C127	C	-0.931806	0.079739	-0.247987
C128	C	-0.598472	0.413072	0.085347
C129	C	-0.265139	0.746406	0.418680
C130	C	-0.933554	0.085775	-0.335474
C131	C	-0.600221	0.419109	-0.002140
C132	C	-0.266888	0.752442	0.331193
C133	C	-0.930732	0.012913	0.619804
C134	C	-0.597399	0.346246	0.953137
C135	C	-0.264066	0.679579	1.286471
C136	C	-0.932383	0.018576	0.537601
C137	C	-0.599049	0.351909	0.870935
C138	C	-0.265716	0.685242	1.204268
C139	C	-0.936860	0.097102	0.500123
C140	C	-0.603527	0.430436	0.833457
C141	C	-0.270194	0.763769	1.166790
C142	C	-0.939680	0.169970	0.544852
C143	C	-0.606347	0.503303	0.878185
C144	C	-0.273014	0.836637	1.211518
C145	C	-0.938024	0.164306	0.627052
C146	C	-0.604691	0.497639	0.960385
C147	C	-0.271358	0.830973	1.293719
C148	C	-0.942199	0.122159	0.254669
C149	C	-0.608866	0.455492	0.588002
C150	C	-0.275532	0.788825	0.921336
C151	C	-0.943857	0.127817	0.172463
C152	C	-0.610524	0.461151	0.505796
C153	C	-0.277191	0.794484	0.839130
C154	C	-0.936558	-0.023578	0.165218
C155	C	-0.603225	0.309756	0.498551
C156	C	-0.269891	0.643089	0.831885
C157	C	-0.934907	-0.029235	0.247421
C158	C	-0.601574	0.304099	0.580754
C159	C	-0.268240	0.637432	0.914088
C160	C	-0.937723	0.043633	0.292141
C161	C	-0.604389	0.376966	0.625475
C162	C	-0.271056	0.710300	0.958808
N163	N	-0.938550	0.102893	0.416100
N164	N	-0.605217	0.436226	0.749433
N165	N	-0.271883	0.769559	1.082766
N166	N	-0.936028	0.037841	0.376163
N167	N	-0.602694	0.371175	0.709496
N168	N	-0.269361	0.704508	1.042830
H169	H	-0.171455	-0.051051	-0.105350
H170	H	0.161879	0.282282	0.227983
H171	H	0.495212	0.615616	0.561316
C172	C	-0.929277	-0.061579	0.488410
C173	C	-0.595944	0.271754	0.821743
C174	C	-0.262611	0.605087	1.155077
N175	N	-0.926937	-0.121956	0.451359
N176	N	-0.593604	0.211377	0.784693
N177	N	-0.260271	0.544710	1.118026
H178	H	-1.053379	-0.546597	0.012118
H179	H	-0.720045	-0.213264	0.345451
H180	H	-0.386712	0.120069	0.678784
H181	H	-0.828816	-0.154108	-0.212225
H182	H	-0.495483	0.179226	0.121108
H183	H	-0.162150	0.512559	0.454442
H184	H	-1.045772	-0.705173	0.004497
H185	H	-0.712439	-0.371840	0.337831
H186	H	-0.379106	-0.038506	0.671164
C187	C	-0.542252	0.202313	-0.099160
C188	C	-0.208919	0.535647	0.234174
C189	C	0.124415	0.868980	0.567507
N190	N	-0.511005	0.262689	-0.095679
N191	N	-0.177672	0.596022	0.237654
N192	N	0.155662	0.929356	0.570988
C193	C	-0.834457	-0.717685	-0.206658
C194	C	-0.501124	-0.384351	0.126675
C195	C	-0.167790	-0.051018	0.460008
N196	N	-0.788117	-0.753898	-0.252967
N197	N	-0.454784	-0.420565	0.080366
N198	N	-0.121450	-0.087231	0.413699
H199	H	-0.858044	-0.546627	-0.183063
H200	H	-0.524711	-0.213294	0.150270
H201	H	-0.191378	0.120039	0.483604
H202	H	-0.931265	-0.093179	0.277930
H203	H	-0.597931	0.240154	0.611263
H204	H	-0.264598	0.573488	0.944597
H205	H	-1.016539	-0.312654	-0.024661
H206	H	-0.683205	0.020679	0.308672
H207	H	-0.349872	0.354013	0.642006
H208	H	-0.703140	0.191773	-0.102369
H209	H	-0.369807	0.525106	0.230964
H210	H	-0.036473	0.858439	0.564297
C211	C	-0.526925	-0.115618	-0.114448
C212	C	-0.193592	0.217715	0.218886
C213	C	0.139742	0.551049	0.552219
N214	N	-0.489626	-0.180685	-0.117023
N215	N	-0.156293	0.152649	0.216310
N216	N	0.177041	0.485982	0.549643
C217	C	-0.805224	-0.325172	-0.235810
C218	C	-0.471891	0.008161	0.097523
C219	C	-0.138557	0.341495	0.430856
N220	N	-0.758881	-0.361389	-0.282114
N221	N	-0.425547	-0.028055	0.051219
N222	N	-0.092214	0.305278	0.384553
H223	H	-0.334804	0.233894	-0.094172
H224	H	-0.001470	0.567228	0.239161
H225	H	0.331863	0.900561	0.572495
C226	C	-0.925806	-0.073473	0.661021
C227	C	-0.592472	0.259860	0.994355
C228	C	-0.259139	0.593193	1.327688
N229	N	-0.922091	-0.138542	0.692064
N230	N	-0.588758	0.194791	1.025397
N231	N	-0.255424	0.528124	1.358730
H232	H	-0.321563	-0.040768	-0.107351
H233	H	0.011770	0.292566	0.225983
H234	H	0.345103	0.625899	0.559316
H235	H	-0.689914	-0.082894	-0.115546
H236	H	-0.356581	0.250440	0.217787
H237	H	-0.023248	0.583773	0.551120
C238	C	-0.933449	-0.103727	0.116018
C239	C	-0.600116	0.229606	0.449351
C240	C	-0.266783	0.562939	0.782684
N241	N	-0.931103	-0.164099	0.078959
N242	N	-0.597769	0.169234	0.412292
N243	N	-0.264436	0.502567	0.745626
C244	C	-1.040134	-0.141599	-0.001068
C245	C	-0.706800	0.191734	0.332265
C246	C	-0.373467	0.525067	0.665598
N247	N	-1.086472	-0.105394	0.045248
N248	N	-0.753139	0.227940	0.378581
N249	N	-0.419805	0.561273	0.711914
H250	H	-0.184682	0.223617	-0.092169
H251	H	0.148652	0.556950	0.241164
H252	H	0.481985	0.890284	0.574498
H253	H	-0.944499	0.181493	0.291071
H254	H	-0.611165	0.514826	0.624405
H255	H	-0.277832	0.848160	0.957738
H256	H	-0.947503	0.191766	0.141951
H257	H	-0.614169	0.525100	0.475285
H258	H	-0.280836	0.858433	0.808618
C259	C	-0.944611	0.256351	0.503624
C260	C	-0.611278	0.589684	0.836957
C261	C	-0.277944	0.923017	1.170290
N262	N	-0.948330	0.321415	0.472572
N263	N	-0.614997	0.654748	0.805906
N264	N	-0.281664	0.988081	1.139239
C265	C	-0.941135	0.244461	0.676247
C266	C	-0.607802	0.577794	1.009580
C267	C	-0.274468	0.911128	1.342914
N268	N	-0.943477	0.304837	0.713300
N269	N	-0.610144	0.638170	1.046633
N270	N	-0.276811	0.971503	1.379967
