data_functionalizedCrystal
_audit_creation_method	'MofGen! by Chris Wilmer'
_symmetry_space_group_name_H-M	'P1'
_symmetry_Int_Tables_number	1
_symmetry_cell_setting	triclinic
loop_
_symmetry_equiv_pos_as_xyz
  x,y,z
_cell_length_a	21.395364
_cell_length_b	21.395361
_cell_length_c	21.395355
_cell_angle_alpha	89.978489
_cell_angle_beta	89.975484
_cell_angle_gamma	90.026472
loop_
_atom_site_label
_atom_site_type_symbol
_atom_site_fract_x
_atom_site_fract_y
_atom_site_fract_z
Zn1	Zn	0.957859	-0.249582	-0.354248
Zn2	Zn	1.291192	0.083751	-0.020914
Zn3	Zn	1.624526	0.417085	0.312419
Zn4	Zn	0.957761	-0.354342	-0.249465
Zn5	Zn	1.291095	-0.021008	0.083869
Zn6	Zn	1.624428	0.312325	0.417202
Zn7	Zn	0.853074	-0.249574	-0.249485
Zn8	Zn	1.186407	0.083759	0.083849
Zn9	Zn	1.519741	0.417092	0.417182
Zn10	Zn	0.853043	-0.354318	-0.354205
Zn11	Zn	1.186376	-0.020985	-0.020872
Zn12	Zn	1.519710	0.312349	0.312462
O13	O	0.905434	-0.301954	-0.301851
O14	O	1.238768	0.031379	0.031483
O15	O	1.572101	0.364713	0.364816
O16	O	1.045524	-0.263492	-0.340358
O17	O	1.378857	0.069842	-0.007024
O18	O	1.712191	0.403175	0.326309
O19	O	0.943847	-0.340451	-0.161789
O20	O	1.277180	-0.007118	0.171544
O21	O	1.610513	0.326216	0.504877
O22	O	0.867028	-0.161897	-0.263408
O23	O	1.200361	0.171436	0.069926
O24	O	1.533694	0.504769	0.403259
O25	O	1.045452	-0.340458	-0.263374
O26	O	1.378786	-0.007125	0.069959
O27	O	1.712119	0.326208	0.403293
O28	O	0.944013	-0.161903	-0.340377
O29	O	1.277346	0.171430	-0.007043
O30	O	1.610679	0.504764	0.326290
O31	O	0.866933	-0.263479	-0.161804
O32	O	1.200266	0.069855	0.171529
O33	O	1.533600	0.403188	0.504863
O34	O	0.765392	-0.263456	-0.263366
O35	O	1.098725	0.069878	0.069967
O36	O	1.432059	0.403211	0.403300
O37	O	0.866975	-0.340418	-0.441889
O38	O	1.200308	-0.007084	-0.108555
O39	O	1.533642	0.326249	0.224778
O40	O	0.765369	-0.340410	-0.340304
O41	O	1.098703	-0.007077	-0.006971
O42	O	1.432036	0.326256	0.326363
O43	O	0.943983	-0.263469	-0.441920
O44	O	1.277316	0.069865	-0.108587
O45	O	1.610650	0.403198	0.224747
O46	O	0.943817	-0.442016	-0.263333
O47	O	1.277150	-0.108683	0.070001
O48	O	1.610483	0.224650	0.403334
O49	O	0.866881	-0.441999	-0.340285
O50	O	1.200214	-0.108666	-0.006952
O51	O	1.533547	0.224668	0.326382
C52	C	0.742647	-0.301930	-0.301833
C53	C	1.075980	0.031403	0.031500
C54	C	1.409313	0.364737	0.364834
C55	C	0.673006	-0.301935	-0.301840
C56	C	1.006339	0.031399	0.031493
C57	C	1.339672	0.364732	0.364826
C58	C	0.171246	-0.261972	-0.342010
C59	C	0.504579	0.071361	-0.008677
C60	C	0.837913	0.404695	0.324657
C61	C	0.236681	-0.261967	-0.342010
C62	C	0.570015	0.071366	-0.008677
C63	C	0.903348	0.404699	0.324657
C64	C	0.269367	-0.301973	-0.301865
C65	C	0.602701	0.031360	0.031469
C66	C	0.936034	0.364694	0.364802
C67	C	0.236612	-0.341998	-0.261728
C68	C	0.569946	-0.008665	0.071606
C69	C	0.903279	0.324669	0.404939
C70	C	0.171178	-0.342006	-0.261734
C71	C	0.504511	-0.008672	0.071600
C72	C	0.837845	0.324661	0.404933
C73	C	0.373004	-0.306825	-0.245397
C74	C	0.706337	0.026508	0.087936
C75	C	1.039670	0.359842	0.421270
C76	C	0.438437	-0.306813	-0.245390
C77	C	0.771770	0.026521	0.087943
C78	C	1.105103	0.359854	0.421276
C79	C	0.471188	-0.301952	-0.301847
C80	C	0.804521	0.031381	0.031486
C81	C	1.137855	0.364714	0.364819
C82	C	0.438498	-0.297091	-0.358313
C83	C	0.771832	0.036242	-0.024979
C84	C	1.105165	0.369575	0.308354
C85	C	0.373064	-0.297099	-0.358318
C86	C	0.706397	0.036234	-0.024985
C87	C	1.039731	0.369568	0.308348
C88	C	0.340320	-0.301969	-0.301854
C89	C	0.673653	0.031364	0.031479
C90	C	1.006986	0.364697	0.364812
C91	C	0.574888	-0.261928	-0.341984
C92	C	0.908221	0.071405	-0.008651
C93	C	1.241554	0.404739	0.324682
C94	C	0.640324	-0.261928	-0.341985
C95	C	0.973658	0.071405	-0.008652
C96	C	1.306991	0.404739	0.324681
C97	C	0.640254	-0.341955	-0.261698
C98	C	0.973587	-0.008622	0.071636
C99	C	1.306920	0.324712	0.404969
C100	C	0.574818	-0.341959	-0.261702
C101	C	0.908152	-0.008625	0.071631
C102	C	1.241485	0.324708	0.404964
C103	C	0.542139	-0.301942	-0.301845
C104	C	0.875473	0.031392	0.031488
C105	C	1.208806	0.364725	0.364822
C106	C	0.905352	-0.464742	-0.301816
C107	C	1.238685	-0.131408	0.031518
C108	C	1.572018	0.201925	0.364851
C109	C	0.905374	-0.534383	-0.301822
C110	C	1.238707	-0.201050	0.031512
C111	C	1.572040	0.132284	0.364845
C112	C	0.945470	-0.567084	-0.261794
C113	C	1.278803	-0.233751	0.071540
C114	C	1.612136	0.099582	0.404873
C115	C	0.945499	-0.632520	-0.261808
C116	C	1.278832	-0.299186	0.071526
C117	C	1.612166	0.034147	0.404859
C118	C	0.905421	-0.665251	-0.301843
C119	C	1.238754	-0.331918	0.031490
C120	C	1.572087	0.001416	0.364824
C121	C	0.865322	-0.632542	-0.341879
C122	C	1.198655	-0.299208	-0.008546
C123	C	1.531988	0.034125	0.324788
C124	C	0.865298	-0.567108	-0.341868
C125	C	1.198632	-0.233774	-0.008535
C126	C	1.531965	0.099559	0.324798
C127	C	0.849006	-0.768962	-0.306753
C128	C	1.182339	-0.435629	0.026580
C129	C	1.515673	-0.102295	0.359914
C130	C	0.849029	-0.834395	-0.306759
C131	C	1.182362	-0.501062	0.026574
C132	C	1.515695	-0.167728	0.359907
C133	C	0.905494	-0.867072	-0.301880
C134	C	1.238827	-0.533739	0.031453
C135	C	1.572160	-0.200405	0.364787
C136	C	0.961938	-0.834308	-0.296981
C137	C	1.295271	-0.500974	0.036352
C138	C	1.628605	-0.167641	0.369686
C139	C	0.961915	-0.768873	-0.296970
C140	C	1.295248	-0.435540	0.036363
C141	C	1.628581	-0.102207	0.369697
C142	C	0.905442	-0.736203	-0.301860
C143	C	1.238775	-0.402870	0.031474
C144	C	1.572109	-0.069537	0.364807
C145	C	0.945625	-0.970726	-0.261865
C146	C	1.278958	-0.637393	0.071468
C147	C	1.612291	-0.304059	0.404802
C148	C	0.945655	-1.036162	-0.261883
C149	C	1.278988	-0.702829	0.071450
C150	C	1.612322	-0.369496	0.404783
C151	C	0.865472	-1.036183	-0.341951
C152	C	1.198806	-0.702850	-0.008618
C153	C	1.532139	-0.369517	0.324715
C154	C	0.865448	-0.970748	-0.341936
C155	C	1.198781	-0.637415	-0.008603
C156	C	1.532114	-0.304081	0.324730
C157	C	0.905523	-0.938023	-0.301890
C158	C	1.238856	-0.604690	0.031444
C159	C	1.572190	-0.271356	0.364777
C160	C	1.068858	-0.301979	-0.301868
C161	C	1.402191	0.031355	0.031465
C162	C	1.735524	0.364688	0.364798
C163	C	1.138499	-0.301989	-0.301876
C164	C	1.471832	0.031344	0.031457
C165	C	1.805166	0.364678	0.364791
C166	C	0.905486	-0.301941	-0.465274
C167	C	1.238820	0.031392	-0.131941
C168	C	1.572153	0.364725	0.201393
C169	C	0.905509	-0.301936	-0.534915
C170	C	1.238842	0.031397	-0.201582
C171	C	1.572175	0.364731	0.131752
C172	C	0.905535	-0.138531	-0.301899
C173	C	1.238868	0.194803	0.031434
C174	C	1.572201	0.528136	0.364767
C175	C	0.905577	-0.068889	-0.301920
C176	C	1.238911	0.264444	0.031413
C177	C	1.572244	0.597777	0.364747
C178	C	0.945605	-0.261867	-0.567646
C179	C	1.278938	0.071467	-0.234312
C180	C	1.612271	0.404800	0.099021
C181	C	0.945604	-0.261840	-0.633081
C182	C	1.278937	0.071493	-0.299748
C183	C	1.612271	0.404827	0.033586
C184	C	0.905513	-0.301893	-0.665784
C185	C	1.238847	0.031440	-0.332450
C186	C	1.572180	0.364773	0.000883
C187	C	0.865409	-0.341965	-0.633045
C188	C	1.198743	-0.008632	-0.299712
C189	C	1.532076	0.324702	0.033621
C190	C	0.865407	-0.341986	-0.567611
C191	C	1.198740	-0.008653	-0.234278
C192	C	1.532074	0.324680	0.099056
C193	C	0.900538	-0.358308	-0.769446
C194	C	1.233871	-0.024975	-0.436113
C195	C	1.567204	0.308359	-0.102779
C196	C	0.900544	-0.358288	-0.834879
C197	C	1.233878	-0.024955	-0.501546
C198	C	1.567211	0.308379	-0.168212
C199	C	0.905517	-0.301827	-0.867604
C200	C	1.238851	0.031506	-0.534271
C201	C	1.572184	0.364840	-0.200938
C202	C	0.910497	-0.245385	-0.834889
C203	C	1.243830	0.087949	-0.501555
C204	C	1.577163	0.421282	-0.168222
C205	C	0.910494	-0.245406	-0.769454
C206	C	1.243828	0.087927	-0.436121
C207	C	1.577161	0.421261	-0.102788
C208	C	0.905511	-0.301874	-0.736736
C209	C	1.238845	0.031459	-0.403403
C210	C	1.572178	0.364792	-0.070069
C211	C	0.945615	-0.261725	-0.971287
C212	C	1.278948	0.071608	-0.637954
C213	C	1.612281	0.404941	-0.304621
C214	C	0.945610	-0.261697	-1.036724
C215	C	1.278943	0.071636	-0.703391
C216	C	1.612276	0.404969	-0.370057
C217	C	0.865418	-0.341828	-1.036687
C218	C	1.198752	-0.008495	-0.703354
C219	C	1.532085	0.324839	-0.370020
C220	C	0.865420	-0.341850	-0.971252
C221	C	1.198754	-0.008517	-0.637918
C222	C	1.532087	0.324816	-0.304585
C223	C	0.905522	-0.301800	-0.938556
C224	C	1.238855	0.031533	-0.605222
C225	C	1.572189	0.364867	-0.271889
C226	C	0.905419	-0.301921	-0.139063
C227	C	1.238752	0.031412	0.194270
C228	C	1.572085	0.364745	0.527604
C229	C	0.905518	-0.301750	-0.069422
C230	C	1.238851	0.031583	0.263911
C231	C	1.572185	0.364916	0.597245
H232	H	0.465163	-0.293130	-0.404285
H233	H	0.798496	0.040203	-0.070952
H234	H	1.131830	0.373537	0.262382
H235	H	0.144516	-0.374594	-0.229051
H236	H	0.477849	-0.041260	0.104282
H237	H	0.811182	0.292073	0.437616
H238	H	0.978264	-0.229110	-0.944665
H239	H	1.311598	0.104223	-0.611332
H240	H	1.644931	0.437556	-0.277998
H241	H	0.896320	-0.404274	-0.742807
H242	H	1.229654	-0.070940	-0.409473
H243	H	1.562987	0.262393	-0.076140
N244	N	0.539635	-0.218773	-0.385280
N245	N	0.872968	0.114561	-0.051947
N246	N	1.206302	0.447894	0.281386
H247	H	0.570312	-0.193424	-0.410710
H248	H	0.903646	0.139909	-0.077377
H249	H	1.236979	0.473243	0.255957
H250	H	0.512490	-0.244321	-0.414230
H251	H	0.845823	0.089012	-0.080897
H252	H	1.179156	0.422345	0.252437
H253	H	0.896494	-0.404247	-0.861511
H254	H	1.229827	-0.070913	-0.528178
H255	H	1.563160	0.262420	-0.194845
H256	H	0.832773	-0.374483	-0.944602
H257	H	1.166107	-0.041150	-0.611269
H258	H	1.499440	0.292184	-0.277935
N259	N	0.822048	-0.531829	-0.385038
N260	N	1.155381	-0.198496	-0.051705
N261	N	1.488714	0.134838	0.281629
H262	H	0.831759	-0.543181	-0.429817
H263	H	1.165093	-0.209847	-0.096483
H264	H	1.498426	0.123486	0.236850
H265	H	0.777307	-0.543273	-0.375214
H266	H	1.110640	-0.209940	-0.041881
H267	H	1.443974	0.123393	0.291453
H268	H	0.978258	-0.229254	-0.541029
H269	H	1.311591	0.104080	-0.207695
H270	H	1.644925	0.437413	0.125638
H271	H	0.144643	-0.229390	-0.374700
H272	H	0.477976	0.103944	-0.041366
H273	H	0.811309	0.437277	0.291967
H274	H	0.666986	-0.229343	-0.374672
H275	H	1.000319	0.103990	-0.041338
H276	H	1.333653	0.437324	0.291995
N277	N	0.915862	-0.184478	-0.870169
N278	N	1.249195	0.148855	-0.536835
N279	N	1.582528	0.482188	-0.203502
H280	H	0.954470	-0.185317	-0.897335
H281	H	1.287803	0.148017	-0.564002
H282	H	1.621136	0.481350	-0.230668
H283	H	0.877667	-0.178617	-0.897264
H284	H	1.211001	0.154716	-0.563930
H285	H	1.544334	0.488049	-0.230597
N286	N	0.788149	-0.869723	-0.312045
N287	N	1.121482	-0.536390	0.021288
N288	N	1.454816	-0.203056	0.354621
H289	H	0.788986	-0.896851	-0.350659
H290	H	1.122319	-0.563518	-0.017326
H291	H	1.455652	-0.230185	0.316008
H292	H	0.782328	-0.896860	-0.273847
H293	H	1.115661	-0.563526	0.059486
H294	H	1.448994	-0.230193	0.392820
N295	N	0.988858	-0.218623	-0.668389
N296	N	1.322192	0.114710	-0.335055
N297	N	1.655525	0.448044	-0.001722
H298	H	1.017875	-0.244087	-0.695546
H299	H	1.351208	0.089246	-0.362213
H300	H	1.684541	0.422579	-0.028879
H301	H	0.963375	-0.189581	-0.695494
H302	H	1.296708	0.143753	-0.362161
H303	H	1.630041	0.477086	-0.028828
H304	H	0.263229	-0.374572	-0.229043
H305	H	0.596562	-0.041239	0.104290
H306	H	0.929896	0.292094	0.437624
H307	H	0.548155	-0.374542	-0.229018
H308	H	0.881489	-0.041209	0.104315
H309	H	1.214822	0.292125	0.437648
H310	H	0.465048	-0.310767	-0.199413
H311	H	0.798381	0.022566	0.133921
H312	H	1.131714	0.355900	0.467254
N313	N	0.822175	-0.385024	-1.071954
N314	N	1.155508	-0.051690	-0.738621
N315	N	1.488841	0.281643	-0.405287
H316	H	0.847619	-0.414054	-1.099113
H317	H	1.180952	-0.080721	-0.765779
H318	H	1.514285	0.252613	-0.432446
H319	H	0.796781	-0.410372	-1.041249
H320	H	1.130115	-0.077038	-0.707916
H321	H	1.463448	0.256295	-0.374583
H322	H	0.832691	-0.659196	-0.374477
H323	H	1.166024	-0.325863	-0.041144
H324	H	1.499358	0.007471	0.292190
N325	N	0.337682	-0.312072	-0.184501
N326	N	0.671015	0.021261	0.148832
N327	N	1.004349	0.354594	0.482166
H328	H	0.368318	-0.315145	-0.148731
H329	H	0.701651	0.018188	0.184602
H330	H	1.034984	0.351521	0.517936
H331	H	0.310542	-0.273893	-0.178754
H332	H	0.643876	0.059441	0.154579
H333	H	0.977209	0.392774	0.487912
H334	H	0.978103	-0.540442	-0.229187
H335	H	1.311436	-0.207108	0.104146
H336	H	1.644770	0.126225	0.437480
N337	N	0.915866	-0.184535	-0.734167
N338	N	1.249199	0.148798	-0.400834
N339	N	1.582533	0.482131	-0.067500
H340	H	0.919019	-0.148762	-0.764822
H341	H	1.252352	0.184572	-0.431489
H342	H	1.585686	0.517905	-0.098156
H343	H	0.877694	-0.178721	-0.707002
H344	H	1.211028	0.154613	-0.373669
H345	H	1.544361	0.487946	-0.040335
H346	H	0.978260	-0.229065	-1.063372
H347	H	1.311593	0.104269	-0.730039
H348	H	1.644926	0.437602	-0.396705
N349	N	0.822158	-0.385156	-0.668312
N350	N	1.155492	-0.051823	-0.334979
N351	N	1.488825	0.281511	-0.001646
H352	H	0.828242	-0.379061	-0.714732
H353	H	1.161576	-0.045728	-0.381399
H354	H	1.494909	0.287605	-0.048065
H355	H	0.831873	-0.429912	-0.656879
H356	H	1.165206	-0.096578	-0.323546
H357	H	1.498539	0.236755	0.009787
N358	N	0.675498	-0.385110	-0.218402
N359	N	1.008831	-0.051777	0.114932
N360	N	1.342165	0.281556	0.448265
H361	H	0.721920	-0.379035	-0.224489
H362	H	1.055253	-0.045702	0.108845
H363	H	1.388587	0.287631	0.442178
H364	H	0.664042	-0.375297	-0.173672
H365	H	0.997376	-0.041964	0.159661
H366	H	1.330709	0.291369	0.492995
N367	N	0.337938	-0.291952	-0.419299
N368	N	0.671272	0.041381	-0.085966
N369	N	1.004605	0.374715	0.247367
H370	H	0.310772	-0.253363	-0.418685
H371	H	0.644106	0.079970	-0.085352
H372	H	0.977439	0.413303	0.247981
H373	H	0.368767	-0.288937	-0.454935
H374	H	0.702100	0.044396	-0.121602
H375	H	1.035433	0.377730	0.211732
N376	N	0.822150	-0.385197	-0.532304
N377	N	1.155483	-0.051863	-0.198971
N378	N	1.488817	0.281470	0.134363
H379	H	0.796747	-0.410563	-0.562947
H380	H	1.130080	-0.077230	-0.229614
H381	H	1.463414	0.256104	0.103719
H382	H	0.847627	-0.414209	-0.505160
H383	H	1.180961	-0.080876	-0.171827
H384	H	1.514294	0.252458	0.161506
H385	H	0.978310	-1.062787	-0.229289
H386	H	1.311643	-0.729454	0.104044
H387	H	1.644977	-0.396120	0.437378
N388	N	0.272012	-0.218806	-0.385299
N389	N	0.605346	0.114528	-0.051966
N390	N	0.938679	0.447861	0.281367
H391	H	0.241381	-0.193458	-0.410730
H392	H	0.574714	0.139876	-0.077397
H393	H	0.908048	0.473209	0.255936
H394	H	0.299157	-0.189774	-0.359840
H395	H	0.632491	0.143559	-0.026507
H396	H	0.965824	0.476893	0.306827
N397	N	0.988748	-0.667801	-0.218634
N398	N	1.322081	-0.334468	0.114699
N399	N	1.655414	-0.001135	0.448033
H400	H	1.014132	-0.637141	-0.193265
H401	H	1.347465	-0.303808	0.140069
H402	H	1.680798	0.029526	0.473402
H403	H	0.963262	-0.694986	-0.189623
H404	H	1.296596	-0.361653	0.143710
H405	H	1.629929	-0.028319	0.477043
H406	H	1.007873	-0.742198	-0.292983
H407	H	1.341206	-0.408865	0.040350
H408	H	1.674540	-0.075532	0.373684
H409	H	1.007918	-0.860912	-0.293008
H410	H	1.341251	-0.527578	0.040326
H411	H	1.674584	-0.194245	0.373659
H412	H	0.832843	-1.062833	-0.374552
H413	H	1.166176	-0.729499	-0.041218
H414	H	1.499509	-0.396166	0.292115
N415	N	0.988847	-0.935424	-0.218676
N416	N	1.322180	-0.602091	0.114657
N417	N	1.655514	-0.268757	0.447990
H418	H	1.014257	-0.966072	-0.193323
H419	H	1.347590	-0.632739	0.140010
H420	H	1.680924	-0.299406	0.473343
H421	H	1.017819	-0.908234	-0.244201
H422	H	1.351152	-0.574901	0.089132
H423	H	1.684485	-0.241567	0.422465
H424	H	0.832795	-0.944121	-0.374528
H425	H	1.166128	-0.610787	-0.041195
H426	H	1.499462	-0.277454	0.292139
N427	N	0.788101	-0.733721	-0.312023
N428	N	1.121435	-0.400387	0.021311
N429	N	1.454768	-0.067054	0.354644
H430	H	0.752349	-0.764404	-0.315123
H431	H	1.085682	-0.431070	0.018210
H432	H	1.419016	-0.097737	0.351544
H433	H	0.782291	-0.706596	-0.273838
H434	H	1.115625	-0.373263	0.059495
H435	H	1.448958	-0.039929	0.392828
