data_functionalizedCrystal
_audit_creation_method	'MofGen! by Chris Wilmer'
_symmetry_space_group_name_H-M	'P1'
_symmetry_Int_Tables_number	1
_symmetry_cell_setting	triclinic
loop_
_symmetry_equiv_pos_as_xyz
  x,y,z
_cell_length_a	12.837943
_cell_length_b	12.811487
_cell_length_c	11.892095
_cell_angle_alpha	99.324860
_cell_angle_beta	85.689438
_cell_angle_gamma	89.413002
loop_
_atom_site_label
_atom_site_type_symbol
_atom_site_fract_x
_atom_site_fract_y
_atom_site_fract_z
O1	O	1.381300	0.268697	-0.066435
O2	O	1.079534	0.255123	-0.067833
O3	O	1.239111	0.108870	-0.082817
O4	O	1.221723	0.414950	-0.051451
O5	O	1.225806	0.121044	0.106438
O6	O	1.066229	0.267296	0.121422
O7	O	1.367995	0.280871	0.122820
Zn8	Zn	1.215000	0.276016	0.152169
Zn9	Zn	1.232530	0.259977	-0.097182
O10	O	1.208418	0.427123	0.137804
C11	C	1.034275	0.256624	0.026323
C12	C	0.919237	0.242948	0.024919
C13	C	0.677801	0.407360	0.041783
C14	C	0.569713	0.394515	0.040465
C15	C	0.594969	0.204414	0.020972
C16	C	0.703058	0.217259	0.022290
C17	C	0.744470	0.318735	0.032695
C18	C	0.852561	0.331579	0.034005
C19	C	0.877815	0.141479	0.014520
C20	C	0.769726	0.128634	0.013202
C21	C	1.231891	0.075508	0.007765
C22	C	1.230188	-0.042039	-0.004288
C23	C	1.212498	-0.249662	0.179409
C24	C	1.210898	-0.360108	0.168089
C25	C	1.225392	-0.373377	-0.038247
C26	C	1.226993	-0.262932	-0.026927
C27	C	1.220544	-0.201078	0.081905
C28	C	1.222138	-0.090630	0.093223
C29	C	1.236640	-0.103902	-0.113111
C30	C	1.235039	-0.214347	-0.124431
C31	C	1.413255	0.279369	0.028661
C32	C	1.528293	0.293045	0.030058
N33	N	1.203043	0.286963	0.322345
C34	C	1.215638	0.460485	0.047219
C35	C	1.217342	0.578031	0.059265
N36	N	1.244494	0.249023	-0.267359
C37	C	1.327692	0.172793	0.547296
C38	C	1.319342	0.180453	0.666422
C39	C	1.177990	0.309936	0.679726
C40	C	1.186339	0.302276	0.560599
C41	C	1.261194	0.233704	0.494388
C42	C	1.269548	0.226050	0.375260
C43	C	1.128192	0.355527	0.388565
C44	C	1.119842	0.363186	0.507692
H45	H	0.515434	0.466684	0.047869
C46	C	1.232488	-0.441427	-0.157947
H47	H	1.230378	-0.514161	-0.150719
H48	H	1.296144	-0.428027	-0.198689
H49	H	1.175300	-0.424085	-0.198276
H50	H	0.735993	0.046015	0.004744
H51	H	1.216872	-0.040270	0.181839
C52	C	1.205398	-0.181621	0.299114
H53	H	1.200379	-0.226375	0.355565
H54	H	1.145304	-0.136284	0.308017
H55	H	1.266147	-0.140237	0.307618
H56	H	1.058894	0.419014	0.561614
H57	H	0.932109	0.069313	0.007111
H58	H	0.561226	0.121802	0.012595
H59	H	1.204346	-0.399660	0.247487
H60	H	1.240293	-0.264723	-0.213038
C61	C	1.351879	0.150621	0.302429
H62	H	1.390279	0.115434	0.351004
H63	H	1.398168	0.190019	0.260290
H64	H	1.317976	0.099854	0.251072
C65	C	1.410029	0.097373	0.474461
H66	H	1.448436	0.062191	0.523033
H67	H	1.456309	0.136780	0.432323
H68	H	1.376131	0.046602	0.423103
H69	H	1.074048	0.405127	0.345475
H70	H	0.886276	0.414206	0.042478
C71	C	1.392492	0.113455	0.724617
H72	H	1.438270	0.071527	0.668120
H73	H	1.352086	0.068668	0.766202
H74	H	1.432267	0.158843	0.775422
H75	H	1.117038	0.365758	0.733650
C76	C	0.723359	0.518975	0.053217
H77	H	0.668171	0.569919	0.058443
H78	H	0.769639	0.523689	-0.011861
H79	H	0.760358	0.532184	0.120142
C80	C	1.245500	-0.050457	-0.220370
H81	H	1.245537	0.024179	-0.198045
H82	H	1.187801	-0.069310	-0.264415
H83	H	1.308643	-0.073259	-0.264812
