data_functionalizedCrystal
_audit_creation_method	'MofGen! by Chris Wilmer'
_symmetry_space_group_name_H-M	'P1'
_symmetry_Int_Tables_number	1
_symmetry_cell_setting	triclinic
loop_
_symmetry_equiv_pos_as_xyz
  x,y,z
_cell_length_a	12.970454
_cell_length_b	23.196402
_cell_length_c	23.196401
_cell_angle_alpha	60.007332
_cell_angle_beta	90.011641
_cell_angle_gamma	60.003618
loop_
_atom_site_label
_atom_site_type_symbol
_atom_site_fract_x
_atom_site_fract_y
_atom_site_fract_z
Zr1	Zr	0.993298	0.630980	-0.075648
O2	O	0.828656	0.751242	-0.167692
O3	O	1.043754	0.510719	-0.047435
O4	O	1.043724	0.630982	-0.167700
O5	O	0.828727	0.630978	0.047445
O6	O	1.213391	0.630982	-0.167703
O7	O	0.828686	0.630979	-0.047426
O8	O	1.213444	0.415854	0.047430
O9	O	0.828673	0.846106	-0.167689
O10	O	1.191911	0.560184	-0.035400
O11	O	1.065322	0.560183	0.035403
O12	O	1.065287	0.701777	-0.106194
O13	O	0.938697	0.701775	-0.035391
Zr14	Zr	1.263961	0.630979	0.075656
Zr15	Zr	1.263896	0.630981	-0.075653
Zr16	Zr	0.993362	0.630978	0.075661
Zr17	Zr	0.993325	0.782278	-0.075642
Zr18	Zr	1.263934	0.479681	0.075651
O19	O	1.213505	0.751240	0.047443
O20	O	1.213413	0.751243	-0.167699
O21	O	0.828748	0.751239	0.047450
O22	O	1.428602	0.510717	0.167701
O23	O	1.428510	0.510720	-0.047441
O24	O	1.043846	0.510715	0.167707
O25	O	1.428532	0.630981	-0.047437
O26	O	1.213534	0.630977	0.167709
O27	O	1.043868	0.630977	0.167712
O28	O	1.428573	0.630980	0.047435
O29	O	1.043763	0.846107	-0.167692
O30	O	1.213495	0.415852	0.167701
O31	O	1.428585	0.415852	0.167697
O32	O	1.428534	0.415854	0.047427
O33	O	0.828725	0.846105	-0.047418
O34	O	1.043815	0.846105	-0.047422
O35	O	1.191972	0.560182	0.106203
O36	O	1.318562	0.560183	0.035399
O37	O	1.191937	0.701776	-0.035395
O38	O	1.065347	0.701775	0.035409
C39	C	1.128595	0.441730	-0.000003
C40	C	1.128584	0.377500	-0.000005
C41	C	1.222078	0.295071	0.052254
C42	C	1.222086	0.234710	0.052260
C43	C	1.128610	0.256784	-0.000003
C44	C	1.035100	0.339227	-0.052267
C45	C	1.035086	0.399585	-0.052268
C46	C	1.099479	0.201198	-0.063795
C47	C	1.099501	0.140839	-0.063794
C48	C	1.128644	0.070622	-0.000000
C49	C	1.157792	0.060763	0.063797
C50	C	1.157779	0.121121	0.063796
C51	C	1.128614	0.191342	-0.000008
C52	C	1.222153	-0.077260	0.052270
C53	C	1.222153	-0.137619	0.052277
C54	C	1.035171	-0.033100	-0.052256
C55	C	1.035166	0.027257	-0.052257
C56	C	1.128664	0.005172	0.000005
C57	C	0.790152	0.630979	0.000010
C58	C	0.675276	0.630978	0.000012
C59	C	1.467107	0.630980	-0.000002
C60	C	1.581983	0.630981	-0.000004
C61	C	1.128548	0.630982	-0.189260
C62	C	1.128521	0.630983	-0.253495
C63	C	1.128663	0.820229	0.000011
C64	C	1.128675	0.884459	0.000014
C65	C	1.062430	0.704891	-0.320621
C66	C	1.062462	0.704892	-0.380977
C67	C	1.128568	0.630981	-0.374201
C68	C	1.194673	0.557064	-0.307062
C69	C	1.194650	0.557065	-0.246709
C70	C	1.119169	0.574355	-0.441520
C71	C	1.119183	0.574357	-0.501874
C72	C	1.128648	0.630975	-0.560349
C73	C	1.138072	0.687605	-0.558470
C74	C	1.138049	0.687606	-0.498117
C75	C	1.128601	0.630972	-0.439640
C76	C	1.062589	0.704889	-0.692922
C77	C	1.062630	0.704887	-0.753277
C78	C	1.194832	0.557057	-0.679360
C79	C	1.194799	0.557061	-0.619008
C80	C	1.128671	0.630979	-0.625793
C81	C	1.128710	0.630977	0.189269
C82	C	1.128738	0.630976	0.253503
C83	C	1.467073	0.441731	-0.000009
C84	C	1.581937	0.377501	-0.000013
C85	C	1.128676	0.441727	0.189261
C86	C	1.128692	0.377496	0.253494
C87	C	1.467154	0.441728	0.189256
C88	C	1.582046	0.377497	0.253486
C89	C	0.790105	0.820231	-0.189247
C90	C	0.675213	0.884462	-0.253478
C91	C	0.790186	0.820228	0.000017
C92	C	0.675321	0.884458	0.000021
C93	C	1.128582	0.820232	-0.189253
C94	C	1.128567	0.884463	-0.253485
C95	C	1.569769	0.347339	-0.036978
C96	C	1.677686	0.286997	-0.036996
C97	C	1.797770	0.256814	-0.000045
C98	C	1.809937	0.286983	0.036921
C99	C	1.702021	0.347328	0.036935
C100	C	1.194810	0.347332	0.320621
C101	C	1.194820	0.286989	0.380979
C102	C	1.128719	0.256807	0.374210
C103	C	1.062593	0.286977	0.307076
C104	C	1.062576	0.347323	0.246718
C105	C	1.702090	0.347335	0.246690
C106	C	1.810054	0.286992	0.307036
C107	C	1.797970	0.256809	0.374176
C108	C	1.677913	0.286977	0.380970
C109	C	1.569952	0.347323	0.320625
C110	C	0.555168	0.914631	-0.246682
C111	C	0.447205	0.974993	-0.307027
C112	C	0.459288	1.005180	-0.374168
C113	C	0.579346	0.975007	-0.380962
C114	C	0.687306	0.914651	-0.320617
C115	C	0.687490	0.914626	0.036980
C116	C	0.579573	0.974985	0.036982
C117	C	0.459488	1.005170	0.000028
C118	C	0.447322	0.974998	-0.036935
C119	C	0.555238	0.914645	-0.036940
C120	C	1.194680	0.914626	-0.246693
C121	C	1.194690	0.974970	-0.307040
C122	C	1.128578	1.005153	-0.374179
C123	C	1.062462	0.974984	-0.380970
C124	C	1.062461	0.914637	-0.320624
H125	H	1.181508	0.113090	0.115742
H126	H	0.958990	0.357196	-0.094819
H127	H	1.248637	0.371900	0.326146
Br128	Br	0.908189	0.511462	-0.123195
H129	H	1.907800	0.262435	0.301491
Br130	Br	1.348958	0.265096	0.123185
Br131	Br	0.972841	0.388249	0.155620
Br132	Br	1.718525	0.388289	0.155579
H133	H	1.471999	0.371913	-0.067077
H134	H	1.008635	0.999568	-0.435643
H135	H	1.128589	1.054291	-0.423311
H136	H	1.667755	0.262441	-0.067098
Br137	Br	1.106375	0.497512	-0.504423
H138	H	1.145726	0.733714	-0.496589
H139	H	0.785049	0.890087	-0.326159
H140	H	1.885889	0.207671	0.423307
H141	H	0.785259	0.890055	0.067077
Br142	Br	0.908299	-0.003134	-0.123181
Br143	Br	1.661535	0.246005	0.472095
H144	H	1.248528	0.999527	-0.301497
Br145	Br	1.944217	0.174916	-0.000071
H146	H	1.472211	0.371873	0.326168
H147	H	1.008775	0.262393	0.301574
Br148	Br	1.972919	0.246010	0.087068
H149	H	0.589169	0.999593	-0.435634
H150	H	1.008617	0.890085	-0.326164
Br151	Br	0.972876	0.805204	-0.702126
Br152	Br	1.348981	0.122828	0.123187
H153	H	1.248672	0.262432	0.435637
Br154	Br	1.128754	0.174908	0.456132
Br155	Br	1.197387	-0.034539	0.150383
Br156	Br	0.538734	0.873675	-0.155571
H157	H	0.349535	0.999584	-0.067021
Br158	Br	0.312755	1.087093	-0.456058
H159	H	1.111452	0.528251	-0.393912
Br160	Br	0.596114	1.015917	0.087151
H161	H	0.371626	1.054313	0.000038
Br162	Br	1.349037	-0.107227	0.123196
H163	H	1.145773	0.733711	-0.606083
Br164	Br	0.972652	0.805208	-0.329833
H165	H	0.349460	0.999549	-0.301482
Br166	Br	0.972938	0.805200	-0.844384
Br167	Br	1.284345	0.456754	-0.155602
Br168	Br	1.349037	-0.249495	0.123213
Br169	Br	1.284571	0.456747	-0.670157
H170	H	1.248612	0.496877	-0.564349
Br171	Br	0.538700	0.873705	-0.087100
H172	H	0.959040	0.094377	-0.094815
Br173	Br	1.059947	0.154224	-0.150374
Br174	Br	1.059920	0.296492	-0.150380
Br175	Br	1.284415	0.873677	-0.155583
H176	H	1.008640	0.765079	-0.435642
H177	H	1.248498	0.496885	-0.301549
Br178	Br	1.718558	0.388251	0.087111
