data_functionalizedCrystal
_audit_creation_method	'MofGen! by Chris Wilmer'
_symmetry_space_group_name_H-M	'P1'
_symmetry_Int_Tables_number	1
_symmetry_cell_setting	triclinic
loop_
_symmetry_equiv_pos_as_xyz
  x,y,z
_cell_length_a	18.050591
_cell_length_b	13.897447
_cell_length_c	13.897441
_cell_angle_alpha	90.025556
_cell_angle_beta	89.974236
_cell_angle_gamma	89.982798
loop_
_atom_site_label
_atom_site_type_symbol
_atom_site_fract_x
_atom_site_fract_y
_atom_site_fract_z
Zn1	Zn	1.135364	0.384096	-0.545593
Zn2	Zn	1.635364	0.884096	-0.045593
Zn3	Zn	1.135280	0.545415	-0.384306
Zn4	Zn	1.635280	1.045415	0.115694
Zn5	Zn	1.011173	0.384124	-0.384291
Zn6	Zn	1.511173	0.884124	0.115709
Zn7	Zn	1.011147	0.545340	-0.545538
Zn8	Zn	1.511147	1.045340	-0.045538
O9	O	1.073241	0.464744	-0.464932
O10	O	1.573241	0.964744	0.035068
O11	O	1.239278	0.405515	-0.524227
O12	O	1.739278	0.905515	-0.024227
O13	O	1.118792	0.524063	-0.249322
O14	O	1.618792	1.024063	0.250678
O15	O	1.027694	0.249139	-0.405705
O16	O	1.527694	0.749139	0.094295
O17	O	1.239216	0.524035	-0.405730
O18	O	1.739216	1.024035	0.094270
O19	O	1.118936	0.249118	-0.524213
O20	O	1.618936	0.749118	-0.024213
O21	O	1.027612	0.405563	-0.249311
O22	O	1.527612	0.905563	0.250689
O23	O	0.907245	0.405490	-0.405652
O24	O	1.407245	0.905490	0.094348
O25	O	1.027649	0.523907	-0.680527
O26	O	1.527649	1.023907	-0.180527
O27	O	0.907226	0.523934	-0.524119
O28	O	1.407226	1.023934	-0.024119
O29	O	1.118911	0.405442	-0.680567
O30	O	1.618911	0.905442	-0.180567
O31	O	1.118767	0.680387	-0.405677
O32	O	1.618767	1.180387	0.094323
O33	O	1.027567	0.680331	-0.524134
O34	O	1.527567	1.180331	-0.024134
C35	C	0.880289	0.464708	-0.464879
C36	C	1.380289	0.964708	0.035121
C37	C	0.797743	0.464716	-0.464879
C38	C	1.297743	0.964716	0.035121
C39	C	0.598281	0.400231	-0.400604
C40	C	1.098281	0.900231	0.099396
C41	C	0.548868	0.488213	-0.376875
C42	C	1.048868	0.988213	0.123125
C43	C	0.646613	0.464745	-0.464922
C44	C	1.146613	0.964745	0.035078
C45	C	0.548944	0.376794	-0.488649
C46	C	1.048944	0.876794	0.011351
C47	C	0.500628	0.464766	-0.464963
C48	C	1.000628	0.964766	0.035037
C49	C	0.598287	0.552773	-0.441147
C50	C	1.098287	1.052773	0.058853
C51	C	0.598367	0.441295	-0.552962
C52	C	1.098367	0.941295	-0.052962
C53	C	0.548976	0.529337	-0.529266
C54	C	1.048976	1.029337	-0.029266
C55	C	0.730711	0.464732	-0.464897
C56	C	1.230711	0.964732	0.035103
C57	C	0.416531	0.464789	-0.464988
C58	C	0.916531	0.964789	0.035012
C59	C	1.073175	0.715358	-0.464922
C60	C	1.573175	1.215358	0.035078
C61	C	1.073215	0.822572	-0.464950
C62	C	1.573215	1.322572	0.035050
C63	C	1.073249	0.909642	-0.464976
C64	C	1.573249	1.409642	0.035024
C65	C	1.073298	1.018874	-0.465006
C66	C	1.573298	1.518874	0.034994
C67	C	1.266947	0.464781	-0.464986
C68	C	1.766947	0.964781	0.035014
C69	C	1.349492	0.464796	-0.465009
C70	C	1.849492	0.964796	0.034991
C71	C	1.073286	0.464663	-0.716525
C72	C	1.573286	0.964663	-0.216525
C73	C	1.073306	0.464628	-0.823739
C74	C	1.573306	0.964628	-0.323739
C75	C	1.073322	1.213151	-0.464975
C76	C	1.573322	1.713151	0.035025
C77	C	1.073342	1.105937	-0.465025
C78	C	1.573342	1.605937	0.034975
C79	C	1.073321	0.464601	-0.910809
C80	C	1.573321	0.964601	-0.410809
C81	C	1.073342	0.464558	-1.020041
C82	C	1.573342	0.964558	-0.520041
C83	C	1.073238	0.464755	-0.214318
C84	C	1.573238	0.964755	0.285682
C85	C	1.073363	0.464518	-0.107104
C86	C	1.573363	0.964518	0.392896
H87	H	0.619871	0.627183	-0.421014
H88	H	1.119871	1.127183	0.078986
O89	O	0.523181	0.594429	-0.594167
O90	O	1.023181	1.094429	-0.094167
C91	C	0.445076	0.593194	-0.594018
C92	C	0.945076	1.093194	-0.094018
H93	H	0.424742	0.520994	-0.565452
H94	H	0.924742	1.020994	-0.065452
H95	H	0.423856	0.604060	-0.670495
H96	H	0.923856	1.104060	-0.170495
H97	H	0.423474	0.653526	-0.545989
H98	H	0.923474	1.153526	-0.045989
H99	H	0.527230	0.302416	-0.508667
H100	H	1.027230	0.802416	-0.008667
O101	O	0.624420	0.417472	-0.641660
O102	O	1.124420	0.917472	-0.141660
C103	C	0.668477	0.333969	-0.634778
C104	C	1.168477	0.833969	-0.134778
H105	H	0.690075	0.326346	-0.558089
H106	H	1.190075	0.826346	-0.058089
H107	H	0.717231	0.339811	-0.686619
H108	H	1.217231	0.839811	-0.186619
H109	H	0.633754	0.268227	-0.654063
H110	H	1.133754	0.768227	-0.154063
O111	O	0.624079	0.335322	-0.335520
O112	O	1.124079	0.835322	0.164480
C113	C	0.598837	0.360411	-0.242818
C114	C	1.098837	0.860411	0.257182
H115	H	0.584974	0.440421	-0.240866
H116	H	1.084974	0.940421	0.259134
H117	H	0.643980	0.344244	-0.187804
H118	H	1.143980	0.844244	0.312196
H119	H	0.547149	0.316856	-0.224821
H120	H	1.047149	0.816856	0.275179
O121	O	0.522836	0.511719	-0.288076
O122	O	1.022836	1.011719	0.211924
C123	C	0.478803	0.435857	-0.252528
C124	C	0.978803	0.935857	0.247472
H125	H	0.457193	0.391076	-0.315263
H126	H	0.957193	0.891076	0.184737
H127	H	0.430058	0.466736	-0.210437
H128	H	0.930058	0.966736	0.289563
H129	H	0.513551	0.388417	-0.203142
H130	H	1.013551	0.888417	0.296858
