data_functionalizedCrystal
_audit_creation_method	'MofGen! by Chris Wilmer'
_symmetry_space_group_name_H-M	'P1'
_symmetry_Int_Tables_number	1
_symmetry_cell_setting	triclinic
loop_
_symmetry_equiv_pos_as_xyz
  x,y,z
_cell_length_a	20.919309
_cell_length_b	14.560438
_cell_length_c	20.919320
_cell_angle_alpha	62.594634
_cell_angle_beta	90.171584
_cell_angle_gamma	57.444687
loop_
_atom_site_label
_atom_site_type_symbol
_atom_site_fract_x
_atom_site_fract_y
_atom_site_fract_z
Zr1	Zr	0.644136	0.926825	-0.056645
O2	O	0.541927	1.118408	-0.158855
O3	O	0.675459	0.735243	-0.025323
O4	O	0.680679	0.911894	-0.153668
O5	O	0.532600	0.953536	0.070743
O6	O	0.790142	0.900114	-0.149565
O7	O	0.536706	0.941758	-0.030510
O8	O	0.780803	0.584119	0.080021
O9	O	0.541938	1.269531	-0.158843
O10	O	0.770521	0.805252	-0.008890
O11	O	0.685766	0.822833	0.063612
O12	O	0.691912	1.030816	-0.087498
O13	O	0.607157	1.048397	-0.014997
Zr14	Zr	0.812167	0.926823	0.111385
Zr15	Zr	0.818716	0.908038	-0.050101
Zr16	Zr	0.637587	0.945610	0.104841
Zr17	Zr	0.644155	1.167849	-0.056627
Zr18	Zr	0.812148	0.685799	0.111366
O19	O	0.780845	1.118405	0.080062
O20	O	0.790156	1.091695	-0.149550
O21	O	0.532615	1.145117	0.070757
O22	O	0.914377	0.735239	0.213594
O23	O	0.923689	0.708530	-0.016018
O24	O	0.666147	0.761952	0.204289
O25	O	0.923704	0.900112	-0.016003
O26	O	0.775624	0.941754	0.208407
O27	O	0.666162	0.953534	0.204304
O28	O	0.919597	0.911890	0.085249
O29	O	0.680706	1.254598	-0.153641
O30	O	0.775598	0.599050	0.208381
O31	O	0.914365	0.584117	0.213583
O32	O	0.919571	0.569185	0.085223
O33	O	0.536733	1.284462	-0.030484
O34	O	0.675500	1.269529	-0.025282
O35	O	0.764392	0.822832	0.142238
O36	O	0.849147	0.805251	0.069736
O37	O	0.770538	1.030815	-0.008872
O38	O	0.685783	1.048395	0.063629
C39	C	0.728128	0.625340	0.027347
C40	C	0.728121	0.523019	0.027339
C41	C	0.683924	0.387902	0.065229
C42	C	0.683895	0.484096	0.065200
C43	C	0.772385	0.465735	-0.010490
C44	C	0.772418	0.369537	-0.010457
C45	C	0.632832	0.398507	0.108925
C46	C	0.632803	0.494701	0.108897
C47	C	0.509779	0.950324	0.019184
C48	C	0.435666	0.958299	0.016406
C49	C	0.441878	0.844307	0.056129
C50	C	0.372237	0.851809	0.053517
C51	C	0.296386	0.973303	0.011177
C52	C	0.290175	1.087304	-0.028548
C53	C	0.359815	1.079802	-0.025931
C54	C	0.084067	1.001847	0.001226
C55	C	0.014426	1.009341	-0.001390
C56	C	0.096493	0.773844	0.080677
C57	C	0.166130	0.766352	0.083287
C58	C	0.159913	0.880353	0.043565
C59	C	0.225201	0.980974	0.008503
C60	C	0.231097	0.872682	0.046243
C61	C	0.946524	0.903324	0.035556
C62	C	1.020638	0.895349	0.038334
C63	C	0.736344	0.903327	-0.174624
C64	C	0.739124	0.895353	-0.243179
C65	C	0.728175	1.228307	0.027393
C66	C	0.728183	1.330628	0.027401
C67	C	0.756908	0.844303	-0.628840
C68	C	0.754298	0.851806	-0.564429
C69	C	0.711955	0.973301	-0.573260
C70	C	0.672225	1.087301	-0.646508
C71	C	0.674840	1.079797	-0.710918
C72	C	0.702010	1.001849	-0.380837
C73	C	0.699395	1.009344	-0.316420
C74	C	0.781470	0.773848	-0.234345
C75	C	0.784077	0.766355	-0.298760
C76	C	0.744352	0.880354	-0.372002
C77	C	0.709284	0.980973	-0.507422
C78	C	0.747028	0.872681	-0.437838
C79	C	0.719960	0.950320	0.229364
C80	C	0.717180	0.958295	0.297919
C81	C	0.946501	0.601840	0.035532
C82	C	1.020607	0.491544	0.038303
C83	C	0.719937	0.648837	0.229341
C84	C	0.717149	0.554490	0.297888
C85	C	0.938309	0.625337	0.237527
C86	C	1.009635	0.523015	0.308852
C87	C	0.517994	1.228311	-0.182787
C88	C	0.446669	1.330633	-0.254113
C89	C	0.509802	1.251807	0.019207
C90	C	0.435697	1.362104	0.016437
C91	C	0.736367	1.204811	-0.174601
C92	C	0.739155	1.299157	-0.243148
C93	C	1.014366	0.439748	-0.001445
C94	C	1.083990	0.336125	0.001143
C95	C	1.159854	0.284294	0.043483
C96	C	1.166093	0.336101	0.083232
C97	C	1.096470	0.439728	0.080639
C98	C	0.756881	0.510185	0.371127
C99	C	0.754258	0.421551	0.435540
C100	C	0.711907	0.377217	0.426713
C101	C	0.672169	0.421532	0.353466
C102	C	0.674788	0.510172	0.289055
C103	C	1.087378	0.465786	0.304503
C104	C	1.154403	0.369656	0.371514
C105	C	1.143683	0.330750	0.442875
C106	C	1.065931	0.387989	0.447223
C107	C	0.998908	0.484124	0.380212
C108	C	0.368925	1.387873	-0.249763
C109	C	0.301900	1.484034	-0.316775
C110	C	0.312621	1.522945	-0.388135
C111	C	0.390373	1.465699	-0.392483
C112	C	0.457396	1.369547	-0.325472
C113	C	0.441938	1.413909	0.056178
C114	C	0.372314	1.517557	0.053572
C115	C	0.296450	1.569390	0.011230
C116	C	0.290211	1.517580	-0.028516
C117	C	0.359834	1.413940	-0.025914
C118	C	0.781513	1.343462	-0.234297
C119	C	0.784149	1.432097	-0.298697
C120	C	0.744421	1.476432	-0.371949
C121	C	0.702061	1.432118	-0.380799
C122	C	0.699431	1.343478	-0.316399
H123	H	0.503636	0.745373	0.090611
H124	H	1.096123	0.497448	0.246404
H125	H	1.217706	0.323060	0.367961
H126	H	0.781507	0.773760	-0.430651
H127	H	0.813865	1.307379	-0.174657
Cl128	Cl	0.652112	1.487880	-0.472893
H129	H	0.377410	1.559724	0.085941
H130	H	0.377302	0.758984	0.085866
H131	H	0.163435	1.079895	-0.025970
H132	H	0.228433	1.559799	-0.062990
H133	H	1.198264	0.252469	0.497434
Cl134	Cl	1.052467	0.339062	0.536940
H135	H	0.642436	0.546233	0.229422
H136	H	0.674806	1.079895	-0.514605
Cl137	Cl	0.679184	0.444160	0.200809
Cl138	Cl	0.204165	1.555975	-0.311291
Cl139	Cl	0.837399	1.487796	-0.287554
H140	H	0.935607	0.530709	0.383764
Cl141	Cl	0.533720	0.639924	0.065993
H142	H	0.360181	1.356199	-0.191664
Cl143	Cl	0.076243	1.145164	-0.048713
Cl144	Cl	1.076128	0.271013	-0.048828
H145	H	0.786620	0.385480	0.495175
H146	H	0.228411	1.186229	-0.063019
Cl147	Cl	0.228354	1.643822	-0.472372
Cl148	Cl	0.261483	0.613609	0.136517
H149	H	0.503704	1.371715	0.090662
Cl150	Cl	0.403837	1.514625	-0.482200
H151	H	1.227871	0.293885	0.117704
H152	H	0.813813	0.681036	-0.174706
Cl153	Cl	1.104330	0.504822	0.130620
H154	H	0.520697	1.322941	-0.329023
Cl155	Cl	1.247374	0.154016	0.046736
H156	H	0.239765	1.653780	0.009118
H157	H	0.637688	0.385423	0.346290
H158	H	0.354741	1.371764	-0.058275
H159	H	0.746568	1.548609	-0.424381
H160	H	0.664934	1.307415	-0.323617
H161	H	0.808401	0.497424	-0.041312
Cl162	Cl	0.671347	0.265858	0.203631
Cl163	Cl	0.828061	0.297537	-0.058013
H164	H	0.571020	0.437866	0.076524
H165	H	0.101545	0.681031	0.113017
H166	H	-0.047337	1.108281	-0.035872
H167	H	0.292858	0.773762	0.080720
Cl168	Cl	0.352003	1.223113	-0.075869
Cl169	Cl	0.810139	0.691558	-0.617729
H170	H	0.786652	0.758981	-0.504795
Cl171	Cl	0.708624	0.265781	0.507697
H172	H	0.818559	0.667420	-0.291560
H173	H	0.664908	1.108286	-0.323619
Cl174	Cl	0.652061	1.145164	-0.472905
H175	H	0.637752	1.186225	-0.653694
Cl176	Cl	0.624898	1.223107	-0.802994
Cl177	Cl	0.919003	0.504889	-0.054682
H178	H	0.791368	0.546271	0.378329
