data_functionalizedCrystal
_audit_creation_method	'MofGen! by Chris Wilmer'
_symmetry_space_group_name_H-M	'P1'
_symmetry_Int_Tables_number	1
_symmetry_cell_setting	triclinic
loop_
_symmetry_equiv_pos_as_xyz
  x,y,z
_cell_length_a	14.519731
_cell_length_b	16.109301
_cell_length_c	15.186229
_cell_angle_alpha	90.000638
_cell_angle_beta	89.995270
_cell_angle_gamma	96.424833
loop_
_atom_site_label
_atom_site_type_symbol
_atom_site_fract_x
_atom_site_fract_y
_atom_site_fract_z
O1	O	0.118539	-1.103344	-0.073175
O2	O	0.618539	-0.603344	0.426825
O3	O	0.133291	-0.861309	-0.073189
O4	O	0.633291	-0.361309	0.426811
O5	O	-0.008336	-0.988734	-0.073174
O6	O	0.491664	-0.488734	0.426826
O7	O	0.260165	-0.975918	-0.073190
O8	O	0.760165	-0.475918	0.426810
O9	O	-0.008338	-0.988726	0.073284
O10	O	0.491662	-0.488726	0.573284
O11	O	0.133289	-0.861300	0.073268
O12	O	0.633289	-0.361300	0.573268
O13	O	0.118537	-1.103335	0.073282
O14	O	0.618537	-0.603335	0.573282
Zn15	Zn	0.125912	-0.982316	0.096529
Zn16	Zn	0.625912	-0.482316	0.596529
Zn17	Zn	0.125915	-0.982328	-0.096435
Zn18	Zn	0.625915	-0.482328	0.403565
O19	O	0.260163	-0.975910	0.073267
O20	O	0.760163	-0.475910	0.573267
C21	C	0.132692	-0.830328	0.000038
C22	C	0.632692	-0.330328	0.500038
C23	C	0.130901	-0.738030	0.000033
C24	C	0.630901	-0.238030	0.500033
C25	C	0.119135	-1.134316	0.000054
C26	C	0.619135	-0.634316	0.500054
C27	C	0.120927	-1.226614	0.000053
C28	C	0.620927	-0.726614	0.500053
C29	C	-0.042695	-0.988129	0.000055
C30	C	0.457305	-0.488129	0.500055
C31	C	-0.145072	-0.986330	0.000056
C32	C	0.354928	-0.486330	0.500056
C33	C	-0.228213	-0.984868	0.000054
C34	C	0.271787	-0.484868	0.500054
C35	C	-0.332518	-0.983041	0.000047
C36	C	0.167482	-0.483041	0.500047
C37	C	-0.415654	-0.981591	0.000041
C38	C	0.084346	-0.481591	0.500041
C39	C	-0.519965	-0.979764	0.000036
C40	C	-0.019965	-0.479764	0.500036
C41	C	0.294523	-0.976515	0.000036
C42	C	0.794523	-0.476515	0.500036
C43	C	0.396899	-0.978314	0.000030
C44	C	0.896899	-0.478314	0.500030
N45	N	0.125910	-0.982315	0.228221
N46	N	0.625910	-0.482315	0.728221
C47	C	0.210773	-0.515901	0.000038
C48	C	0.710773	-0.015901	0.500038
C49	C	0.209083	-0.429178	0.000044
C50	C	0.709083	0.070822	0.500044
C51	C	0.041048	-0.448750	0.000050
C52	C	0.541048	0.051250	0.500050
C53	C	0.042739	-0.535471	0.000051
C54	C	0.542739	-0.035471	0.500051
C55	C	0.127605	-0.569045	0.000040
C56	C	0.627605	-0.069045	0.500040
C57	C	0.124223	-0.395599	0.000045
C58	C	0.624223	0.104401	0.500045
C59	C	0.122389	-0.301570	0.000052
C60	C	0.622389	0.198430	0.500052
C61	C	0.129439	-0.663080	0.000036
C62	C	0.629439	-0.163080	0.500036
N63	N	0.125910	-0.982336	-0.228128
N64	N	0.625910	-0.482336	0.271872
C65	C	0.063219	-1.038758	0.453951
C66	C	0.563219	-0.538758	0.953951
C67	C	0.063217	-1.038761	0.546141
C68	C	0.563217	-0.538761	1.046141
C69	C	0.188604	-0.925886	0.546136
C70	C	0.688604	-0.425886	1.046136
C71	C	0.188601	-0.925880	0.453948
C72	C	0.688601	-0.425880	0.953948
C73	C	0.125910	-0.982321	0.407858
C74	C	0.625910	-0.482321	0.907858
C75	C	0.125910	-0.982330	0.592235
C76	C	0.625910	-0.482330	1.092235
C77	C	0.125908	-0.982332	0.692192
C78	C	0.625908	-0.482332	1.192192
C79	C	0.125910	-0.982318	0.307895
C80	C	0.625910	-0.482318	0.807895
H81	H	0.279876	-0.543233	0.000036
H82	H	0.779876	-0.043233	0.500036
H83	H	0.239648	-0.879935	0.583672
H84	H	0.739648	-0.379935	1.083672
H85	H	0.239652	-0.879919	0.416416
H86	H	0.739652	-0.379919	0.916416
C87	C	-0.004806	-1.099945	0.596344
C88	C	0.495194	-0.599945	1.096344
C89	C	0.008592	-1.087858	0.686944
C90	C	0.508592	-0.587858	1.186944
C91	C	-0.054065	-1.144200	0.733217
C92	C	0.445935	-0.644200	1.233217
H93	H	0.005168	-1.155482	0.581338
H94	H	0.505168	-0.655482	1.081338
H95	H	-0.066378	-1.090815	0.581291
H96	H	0.433622	-0.590815	1.081291
H97	H	0.070150	-1.096995	0.701991
H98	H	0.570150	-0.596995	1.201991
H99	H	-0.001389	-1.032333	0.701976
H100	H	0.498611	-0.532333	1.201976
H101	H	-0.115637	-1.135069	0.718164
H102	H	0.384363	-0.635069	1.218164
H103	H	-0.044086	-1.199732	0.718204
H104	H	0.455914	-0.699732	1.218204
H105	H	-0.044989	-1.136001	0.794694
H106	H	0.455011	-0.636001	1.294694
C107	C	0.299482	-0.371618	-0.000007
C108	C	0.799482	0.128382	0.499993
C109	C	0.374160	-0.419585	-0.000038
C110	C	0.874160	0.080415	0.499962
C111	C	0.457452	-0.366590	-0.000095
C112	C	0.957452	0.133410	0.499905
H113	H	0.302447	-0.337363	0.051053
H114	H	0.802447	0.162637	0.551053
H115	H	0.302366	-0.337392	-0.051100
H116	H	0.802366	0.162608	0.448900
H117	H	0.371277	-0.453797	0.051049
H118	H	0.871277	0.046203	0.551049
H119	H	0.371225	-0.453838	-0.051094
H120	H	0.871225	0.046162	0.448906
H121	H	0.460337	-0.332364	-0.051188
H122	H	0.960337	0.167636	0.448812
H123	H	0.460409	-0.332338	0.050965
H124	H	0.960409	0.167662	0.550965
H125	H	0.508131	-0.399128	-0.000124
H126	H	1.008131	0.100872	0.499876
H127	H	0.012170	-1.084714	0.416427
H128	H	0.512170	-0.584714	0.916427
C129	C	-0.050995	-0.412135	0.000009
C130	C	0.449005	0.087865	0.500009
C131	C	-0.034678	-0.324813	-0.000018
C132	C	0.465322	0.175187	0.499982
C133	C	-0.119447	-0.291058	-0.000071
C134	C	0.380553	0.208942	0.499929
H135	H	-0.085313	-0.430274	0.051069
H136	H	0.414687	0.069726	0.551069
H137	H	-0.085243	-0.430324	-0.051084
H138	H	0.414757	0.069676	0.448916
H139	H	-0.000444	-0.306632	0.051069
H140	H	0.499556	0.193368	0.551069
H141	H	-0.000374	-0.306651	-0.051074
H142	H	0.499626	0.193349	0.448926
H143	H	-0.153695	-0.309246	-0.051163
H144	H	0.346305	0.190754	0.448837
H145	H	-0.153758	-0.309203	0.050990
H146	H	0.346242	0.190797	0.550990
H147	H	-0.108387	-0.231807	-0.000097
H148	H	0.391613	0.268193	0.499903
C149	C	-0.047664	-0.593039	0.000008
C150	C	0.452336	-0.093039	0.500008
C151	C	-0.122348	-0.545078	-0.000014
C152	C	0.377652	-0.045078	0.499986
C153	C	-0.205636	-0.598079	-0.000062
C154	C	0.294364	-0.098079	0.499938
H155	H	-0.050629	-0.627293	0.051068
H156	H	0.449371	-0.127293	0.551068
H157	H	-0.050543	-0.627265	-0.051085
H158	H	0.449457	-0.127265	0.448915
H159	H	-0.119471	-0.510866	0.051074
H160	H	0.380529	-0.010866	0.551074
H161	H	-0.119414	-0.510825	-0.051070
H162	H	0.380586	-0.010825	0.448930
H163	H	-0.208515	-0.632306	-0.051154
H164	H	0.291485	-0.132306	0.448846
H165	H	-0.208591	-0.632331	0.050999
H166	H	0.291409	-0.132331	0.550999
H167	H	-0.256319	-0.565546	-0.000085
H168	H	0.243681	-0.065546	0.499915
