data_functionalizedCrystal
_audit_creation_method	'MofGen! by Chris Wilmer'
_symmetry_space_group_name_H-M	'P1'
_symmetry_Int_Tables_number	1
_symmetry_cell_setting	triclinic
loop_
_symmetry_equiv_pos_as_xyz
  x,y,z
_cell_length_a	9.065218
_cell_length_b	10.654550
_cell_length_c	9.130313
_cell_angle_alpha	90.004369
_cell_angle_beta	89.996409
_cell_angle_gamma	95.249592
loop_
_atom_site_label
_atom_site_type_symbol
_atom_site_fract_x
_atom_site_fract_y
_atom_site_fract_z
O1	O	1.959393	-0.184159	-0.121803
O2	O	1.530025	-0.199265	-0.121805
O3	O	1.754581	-0.009012	-0.121795
O4	O	1.734837	-0.374412	-0.121813
O5	O	1.754566	-0.009006	0.121804
O6	O	1.530010	-0.199259	0.121794
O7	O	1.959377	-0.184153	0.121796
Cu8	Cu	1.744692	-0.191706	0.144037
Cu9	Cu	1.744710	-0.191712	-0.144046
O10	O	1.734822	-0.374406	0.121786
C11	C	1.475039	-0.197810	-0.000006
C12	C	1.311220	-0.193469	-0.000006
C13	C	1.753124	0.037795	0.000004
C14	C	1.748786	0.177255	0.000002
N15	N	1.744690	-0.191700	0.346660
C16	C	2.014364	-0.185608	-0.000006
C17	C	2.178183	-0.189949	-0.000015
C18	C	1.736279	-0.421213	-0.000016
C19	C	1.740616	-0.560673	-0.000024
C20	C	1.881001	0.256217	0.000002
C21	C	1.876917	0.387254	-0.000016
C22	C	1.608391	0.360354	-0.000028
C23	C	1.612477	0.229320	-0.000021
N24	N	1.744724	-0.191708	-0.346669
C25	C	1.844157	-0.107492	0.423316
C26	C	1.844171	-0.107493	0.576653
C27	C	1.645246	-0.275920	0.576664
C28	C	1.645226	-0.275913	0.423330
H29	H	1.991993	0.213831	0.000017
O30	O	1.548494	-0.357768	0.650917
C31	C	1.460718	-0.432109	0.550372
H32	H	1.458519	-0.380589	0.441078
H33	H	1.509561	-0.525984	0.534040
C34	C	1.304525	-0.519375	0.744476
C35	C	1.301815	-0.456093	0.610243
H36	H	1.206508	-0.534176	0.781409
H37	H	1.363665	-0.469295	0.812217
H38	H	1.345235	-0.597598	0.730848
H39	H	1.261124	-0.377866	0.623876
H40	H	1.242665	-0.506161	0.542506
H41	H	1.564221	-0.344485	0.360912
H42	H	1.504805	0.165025	-0.000025
O43	O	2.005212	0.464138	-0.000079
C44	C	1.972386	0.590959	-0.000061
H45	H	1.856448	0.597292	-0.046186
H46	H	1.977580	0.628799	0.116801
C47	C	2.228524	0.662040	-0.038945
C48	C	2.086131	0.669820	-0.095608
H49	H	2.298689	0.710688	-0.097876
H50	H	2.250641	0.576599	-0.038951
H51	H	2.232831	0.693572	0.058440
H52	H	2.081820	0.638274	-0.192983
H53	H	2.064015	0.755258	-0.095620
O54	O	1.940817	-0.025564	0.349065
C55	C	2.028634	0.048739	0.449613
H56	H	1.968142	0.050869	0.558926
H57	H	2.138653	0.006656	0.465893
C58	C	2.131956	0.181259	0.255530
C59	C	2.057652	0.183884	0.389787
H60	H	2.149863	0.264622	0.218625
H61	H	2.072797	0.131198	0.187787
H62	H	2.223630	0.146184	0.269115
H63	H	1.965973	0.218944	0.376197
H64	H	2.116797	0.233955	0.457526
H65	H	1.497413	0.402762	-0.000043
H66	H	1.925165	-0.038922	0.639063
