data_functionalizedCrystal
_audit_creation_method	'MofGen! by Chris Wilmer'
_symmetry_space_group_name_H-M	'P1'
_symmetry_Int_Tables_number	1
_symmetry_cell_setting	triclinic
loop_
_symmetry_equiv_pos_as_xyz
  x,y,z
_cell_length_a	14.971486
_cell_length_b	10.723024
_cell_length_c	13.448316
_cell_angle_alpha	89.994589
_cell_angle_beta	89.998199
_cell_angle_gamma	84.040999
loop_
_atom_site_label
_atom_site_type_symbol
_atom_site_fract_x
_atom_site_fract_y
_atom_site_fract_z
O1	O	1.187821	0.162617	-0.082575
O2	O	0.927525	0.182090	-0.082602
O3	O	1.063677	-0.009285	-0.082584
O4	O	1.051669	0.353992	-0.082593
O5	O	1.063660	-0.009297	0.082800
O6	O	0.927508	0.182078	0.082782
O7	O	1.187803	0.162605	0.082809
Cu8	Cu	1.057654	0.172341	0.097896
Cu9	Cu	1.057674	0.172355	-0.097689
O10	O	1.051651	0.353981	0.082791
C11	C	0.894187	0.181213	0.000087
C12	C	0.794876	0.178604	0.000077
C13	C	0.738254	0.291032	0.000075
C14	C	0.644941	0.288572	0.000090
C15	C	0.608252	0.173683	0.000099
C16	C	0.664881	0.061246	0.000104
C17	C	0.758192	0.063707	0.000096
C18	C	0.470391	0.056125	0.000117
C19	C	0.377074	0.053663	0.000123
C20	C	0.357141	0.280990	0.000112
C21	C	0.450452	0.283451	0.000104
C22	C	0.507074	0.171013	0.000106
C23	C	1.062794	-0.055782	0.000107
C24	C	1.060180	-0.194309	0.000103
C25	C	1.136363	-0.270088	0.000109
C26	C	1.133663	-0.413263	0.000106
C27	C	1.221141	0.163482	0.000118
C28	C	1.320452	0.166091	0.000122
C29	C	1.052534	0.400477	0.000098
C30	C	1.055148	0.539004	0.000096
N31	N	1.057646	0.172330	0.235461
N32	N	1.057689	0.172355	-0.235253
C33	C	1.117953	0.087624	0.287509
C34	C	1.117959	0.087623	0.391612
C35	C	1.057661	0.172335	0.443665
C36	C	0.997347	0.257045	0.391610
C37	C	0.997338	0.257039	0.287509
C38	C	0.997372	0.257054	0.608590
C39	C	0.997382	0.257062	0.712698
C40	C	1.117993	0.087637	0.712694
C41	C	1.117984	0.087631	0.608592
C42	C	1.057671	0.172343	0.556544
H43	H	0.598843	0.380122	0.000088
C44	C	0.878132	0.424490	0.702253
C45	C	0.931085	0.350154	0.769918
H46	H	0.837197	0.481951	0.737580
H47	H	0.915620	0.469484	0.661646
H48	H	0.845655	0.372446	0.661653
H49	H	0.963568	0.402198	0.810513
H50	H	0.893592	0.305157	0.810542
C51	C	1.233433	-0.140613	-0.084894
C52	C	1.227115	-0.214585	0.000120
H53	H	1.289458	-0.106345	-0.084883
H54	H	1.229151	-0.190786	-0.142557
H55	H	1.185979	-0.074525	-0.084888
H56	H	1.274565	-0.280679	0.000110
H57	H	1.231405	-0.164409	0.057798
H58	H	0.948247	0.326015	0.433998
H59	H	0.768119	0.384588	0.000067
H60	H	0.804293	-0.027843	0.000096
H61	H	0.989926	-0.395889	0.000097
H62	H	0.992957	-0.235428	0.000090
H63	H	1.167087	0.018658	0.566211
C64	C	1.201994	-0.625976	0.000100
C65	C	1.221712	-0.501155	0.000108
H66	H	1.256355	-0.680236	0.000094
H67	H	1.168134	-0.641186	0.057767
H68	H	1.168133	-0.641161	-0.057579
H69	H	1.255568	-0.485967	0.057791
H70	H	1.255587	-0.485939	-0.057565
C71	C	1.237198	-0.079810	0.381151
C72	C	1.184264	-0.005470	0.448823
H73	H	1.278140	-0.137274	0.416473
H74	H	1.199698	-0.124799	0.340566
H75	H	1.269668	-0.027769	0.340530
H76	H	1.151789	-0.057511	0.489439
H77	H	1.221770	0.039523	0.489426
C78	C	0.421381	0.507908	0.000101
C79	C	0.490783	0.409737	0.000096
H80	H	0.446282	0.585871	0.000104
H81	H	0.385401	0.502230	-0.057566
H82	H	0.385401	0.502210	0.057781
H83	H	0.526759	0.415430	-0.057588
H84	H	0.526778	0.415418	0.057769
H85	H	0.311034	0.372540	0.000114
C86	C	1.169226	-0.128272	0.744741
C87	C	1.184293	-0.005485	0.769894
H88	H	1.210163	-0.185753	0.780052
H89	H	1.109462	-0.141966	0.761820
H90	H	1.177848	-0.140375	0.675290
H91	H	1.175664	0.006621	0.839345
H92	H	1.244071	0.008214	0.752821
H93	H	0.948256	0.326031	0.566216
C94	C	0.693964	-0.163207	0.000116
C95	C	0.624556	-0.065044	0.000113
H96	H	0.669068	-0.241174	0.000124
H97	H	0.729941	-0.157514	-0.057555
H98	H	0.729945	-0.157515	0.057791
H99	H	0.588579	-0.070732	-0.057567
H100	H	0.588564	-0.070740	0.057789
H101	H	0.347205	-0.039889	0.000132
C102	C	0.878130	0.424519	0.297963
C103	C	0.931051	0.350157	0.230293
H104	H	0.837209	0.482009	0.262639
H105	H	0.845645	0.372505	0.338575
H106	H	0.915648	0.469491	0.338557
H107	H	0.893533	0.305178	0.189704
H108	H	0.963538	0.402178	0.189664
H109	H	0.516492	-0.035434	0.000121
H110	H	1.167058	0.018646	0.245134
