data_functionalizedCrystal
_audit_creation_method	'MofGen! by Chris Wilmer'
_symmetry_space_group_name_H-M	'P1'
_symmetry_Int_Tables_number	1
_symmetry_cell_setting	triclinic
loop_
_symmetry_equiv_pos_as_xyz
  x,y,z
_cell_length_a	6.817900
_cell_length_b	9.582860
_cell_length_c	15.185463
_cell_angle_alpha	92.759972
_cell_angle_beta	104.264314
_cell_angle_gamma	111.206767
loop_
_atom_site_label
_atom_site_type_symbol
_atom_site_fract_x
_atom_site_fract_y
_atom_site_fract_z
V1	V	-4.075507	-0.208044	-0.283226
O2	O	-4.020999	0.008980	-0.278005
O3	O	-4.066213	-0.411538	-0.281124
O4	O	-4.030335	-0.205291	-0.406825
O5	O	-4.057126	-0.198695	-0.151434
V6	V	-4.553650	-0.182033	-0.267482
O7	O	-4.348568	-0.265102	-0.317760
O8	O	-4.730786	-0.124975	-0.232948
O9	O	-4.339737	0.021461	-0.269584
O10	O	-4.725555	-0.399057	-0.272702
O11	O	-4.689428	-0.191382	-0.399274
O12	O	-4.375615	-0.184786	-0.143883
C13	C	-3.920623	-0.461131	-0.276613
C14	C	-3.994333	-0.627493	-0.275718
C15	C	-3.874855	-0.198040	-0.436957
C16	C	-3.919464	-0.197136	-0.537999
C17	C	-3.924402	-0.185874	-0.960611
C18	C	-4.291807	-0.200844	-0.969851
C19	C	-4.249891	-0.201681	-0.874915
C20	C	-4.045227	-0.194617	-0.822823
C21	C	-3.882479	-0.186715	-0.865667
C22	C	-4.412640	-0.209598	-0.832065
C23	C	-4.370729	-0.210437	-0.737124
C24	C	-4.166057	-0.203361	-0.685029
C25	C	-4.003303	-0.195458	-0.727879
C26	C	-3.798639	-0.188393	-0.675787
C27	C	-3.635877	-0.180479	-0.718634
C28	C	-3.677806	-0.179640	-0.813573
C29	C	-4.124128	-0.204200	-0.590091
C30	C	-3.756716	-0.189234	-0.580843
C31	C	-4.148670	0.071046	-0.274092
C32	C	-4.054199	0.237406	-0.274993
C33	C	-4.194438	-0.192041	-0.113746
C34	C	-4.129066	-0.192939	-0.012703
H35	H	-3.590043	-0.183453	-0.538433
Br36	Br	-3.703518	-0.175130	-1.018756
H37	H	-4.503264	-0.216878	-0.702246
Br38	Br	-3.358134	-0.170914	-0.647929
Br39	Br	-4.569565	-0.210456	-1.040548
Br40	Br	-4.690397	-0.219212	-0.902766
Br41	Br	-4.345007	-0.214959	-0.531946
H42	H	-3.545301	-0.173200	-0.848468
