data_functionalizedCrystal
_audit_creation_method	'MofGen! by Chris Wilmer'
_symmetry_space_group_name_H-M	'P1'
_symmetry_Int_Tables_number	1
_symmetry_cell_setting	triclinic
loop_
_symmetry_equiv_pos_as_xyz
  x,y,z
_cell_length_a	23.096457
_cell_length_b	20.875492
_cell_length_c	23.096457
_cell_angle_alpha	121.692170
_cell_angle_beta	89.999737
_cell_angle_gamma	58.315617
loop_
_atom_site_label
_atom_site_type_symbol
_atom_site_fract_x
_atom_site_fract_y
_atom_site_fract_z
Zr1	Zr	0.523061	0.740625	0.110810
O2	O	0.423991	0.881790	0.209894
O3	O	0.558019	0.599461	0.075834
O4	O	0.551398	0.740625	0.203260
O5	O	0.430616	0.740626	-0.012814
O6	O	0.646681	0.740622	0.203262
O7	O	0.430612	0.740627	0.082467
O8	O	0.658525	0.488106	-0.024681
O9	O	0.418772	0.993142	0.215128
O10	O	0.638494	0.657521	0.066478
O11	O	0.567389	0.657522	-0.004631
O12	O	0.559593	0.823724	0.145397
O13	O	0.488488	0.823725	0.074288
Zr14	Zr	0.675032	0.740619	-0.041150
Zr15	Zr	0.675026	0.740620	0.110813
Zr16	Zr	0.523068	0.740623	-0.041153
Zr17	Zr	0.514738	0.918217	0.119158
Zr18	Zr	0.683355	0.563026	-0.049499
O19	O	0.640074	0.881782	-0.006174
O20	O	0.640065	0.881784	0.209898
O21	O	0.424000	0.881788	-0.006178
O22	O	0.774102	0.599453	-0.140234
O23	O	0.774093	0.599455	0.075838
O24	O	0.558028	0.599459	-0.140238
O25	O	0.767477	0.740617	0.082474
O26	O	0.646695	0.740619	-0.133600
O27	O	0.551412	0.740621	-0.133602
O28	O	0.767481	0.740617	-0.012808
O29	O	0.539563	0.993138	0.215131
O30	O	0.658530	0.488105	-0.145471
O31	O	0.779321	0.488102	-0.145469
O32	O	0.779316	0.488103	-0.024678
O33	O	0.418777	0.993141	0.094338
O34	O	0.539568	0.993137	0.094340
O35	O	0.638500	0.657519	-0.075737
O36	O	0.709605	0.657518	-0.004628
O37	O	0.630704	0.823721	0.074291
O38	O	0.559599	0.823723	0.003182
C39	C	0.609458	0.518480	0.024387
C40	C	0.612991	0.443088	0.020843
C41	C	0.559279	0.469036	0.074564
C42	C	0.562601	0.398210	0.071259
C43	C	0.619632	0.301436	0.014230
C44	C	0.673350	0.275488	-0.039494
C45	C	0.670031	0.346314	-0.036186
C46	C	0.635500	0.083033	-0.001599
C47	C	0.638814	0.012207	-0.004904
C48	C	0.528065	0.134935	0.105850
C49	C	0.524749	0.205756	0.109151
C50	C	0.578468	0.179802	0.055429
N51	N	0.623028	0.229039	0.010850
N52	N	0.575075	0.252199	0.058813
C53	C	0.408962	0.740627	0.034826
C54	C	0.344449	0.740629	0.034825
C55	C	0.314144	0.740636	0.087320
C56	C	0.253532	0.740628	0.087319
C57	C	0.223219	0.740631	0.034830
C58	C	0.253534	0.740618	-0.017675
C59	C	0.314149	0.740617	-0.017677
N60	N	0.102328	0.794805	0.021486
N61	N	0.044745	0.794808	0.021493
C62	C	0.040589	0.740631	0.034834
N63	N	0.096186	0.686463	0.048182
N64	N	0.153772	0.686464	0.048178
C65	C	0.157492	0.740631	0.034827
C66	C	-0.055438	0.740628	0.087331
C67	C	-0.116048	0.740613	0.087326
C68	C	-0.116049	0.740613	-0.017665
C69	C	-0.055436	0.740618	-0.017663
C70	C	-0.025136	0.740630	0.034839
C71	C	0.789131	0.740616	0.034834
C72	C	0.853644	0.740615	0.034835
C73	C	0.599039	0.740624	0.224913
C74	C	0.599036	0.740624	0.289425
C75	C	0.588635	0.962763	0.045273
C76	C	0.585102	1.038156	0.048817
C77	C	0.546543	0.740638	0.749941
C78	C	0.546545	0.740631	0.689322
C79	C	0.599036	0.740631	0.659010
C80	C	0.651543	0.740612	0.689312
C81	C	0.651545	0.740610	0.749925
N82	N	0.612391	0.794805	0.589564
N83	N	0.612384	0.794809	0.531984
C84	C	0.599035	0.740636	0.476384
N85	N	0.585678	0.686470	0.480544
N86	N	0.585680	0.686470	0.538131
C87	C	0.599041	0.740633	0.593285
C88	C	0.546536	0.740639	0.380356
C89	C	0.546543	0.740626	0.319733
C90	C	0.651538	0.740617	0.319729
C91	C	0.651535	0.740621	0.380346
C92	C	0.599030	0.740636	0.410658
C93	C	0.599050	0.740622	0.844748
C94	C	0.599040	0.740626	0.780238
C95	C	0.799542	0.518475	0.024391
C96	C	0.867589	0.443081	0.020848
C97	C	0.609466	0.518479	-0.165696
C98	C	0.613002	0.443085	-0.233752
C99	C	0.799550	0.518473	-0.165692
C100	C	0.867599	0.443078	-0.233747
C101	C	0.398543	0.962770	0.235352
C102	C	0.330494	1.038165	0.303407
C103	C	0.398551	0.962768	0.045269
C104	C	0.330504	1.038163	0.048812
C105	C	0.588627	0.962765	0.235355
C106	C	0.585091	1.038158	0.303412
C107	C	0.862425	0.407676	0.056307
C108	C	0.926355	0.336845	0.052993
C109	C	0.995449	0.301415	0.014215
C110	C	1.000612	0.336826	-0.021245
C111	C	0.936682	0.407661	-0.017926
C112	C	0.651782	0.407679	-0.302835
C113	C	0.655102	0.336848	-0.366787
C114	C	0.619645	0.301422	-0.361654
C115	C	0.580860	0.336835	-0.292564
C116	C	0.577537	0.407669	-0.228613
C117	C	0.936679	0.407671	-0.228588
C118	C	1.000623	0.336839	-0.292527
C119	C	0.995488	0.301411	-0.361624
C120	C	0.926401	0.336825	-0.366781
C121	C	0.862458	0.407660	-0.302843
C122	C	0.261414	1.073581	0.298249
C123	C	0.197468	1.144435	0.362188
C124	C	0.202604	1.179867	0.431286
C125	C	0.271691	1.144448	0.436442
C126	C	0.335635	1.073600	0.372504
C127	C	0.335668	1.073575	0.013359
C128	C	0.271737	1.144426	0.016691
C129	C	0.202642	1.179858	0.055472
C130	C	0.197480	1.144443	0.090929
C131	C	0.261411	1.073599	0.087601
C132	C	0.620556	1.073562	0.298255
C133	C	0.617247	1.144393	0.362195
C134	C	0.578470	1.179823	0.431292
C135	C	0.543004	1.144411	0.436446
C136	C	0.546317	1.073577	0.372507
H137	H	0.518862	0.419346	0.115005
F138	F	0.692669	0.055401	-0.058779
F139	F	-0.148299	0.740613	0.143197
F140	F	0.134542	1.255269	0.499330
H141	H	0.545960	0.436488	-0.172366
F142	F	0.661831	1.035868	0.224724
F143	F	0.920947	0.299110	-0.440326
F144	F	0.574948	1.255214	0.499336
F145	F	0.490667	0.740650	0.782198
F146	F	0.654993	1.182072	0.356694
H147	H	0.806213	0.436480	-0.307054
H148	H	-0.140727	0.740610	-0.060406
F149	F	0.490667	0.740645	0.657073
H150	H	1.047560	0.243732	-0.413681
H151	H	0.257219	1.044736	0.241992
F152	F	0.409197	1.035880	-0.027917
F153	F	0.277145	1.182166	0.509987
H154	H	0.391881	1.044766	0.376712
H155	H	0.275954	1.173249	-0.012186
F156	F	0.123949	1.182114	0.356685
F157	F	1.063484	0.226024	0.010688
F158	F	0.734049	0.172492	-0.100187
F159	F	0.508561	1.035912	0.378007
F160	F	0.498575	0.572029	0.135261
F161	F	0.464044	0.308749	0.169846
H162	H	0.150592	1.237545	0.058176
F163	F	0.696385	0.299169	-0.440311
F164	F	0.543128	0.299121	-0.287112
F165	F	0.123939	1.182161	0.132198
H166	H	0.257196	1.044768	0.116469
H167	H	0.940874	0.436507	-0.172332
F168	F	0.707411	0.740607	0.657050
F169	F	0.707421	0.740597	0.782171
F170	F	0.727201	0.318693	-0.093361
F171	F	0.501730	1.182134	0.509990
H172	H	0.484331	0.156056	0.149588
H173	H	0.694280	0.740616	0.405018
F174	F	0.689526	0.445367	-0.308315
F175	F	0.788896	0.445373	0.097585
H176	H	-0.030762	0.740618	-0.060407
H177	H	0.685257	-0.066594	-0.051348
H178	H	0.228851	0.740618	-0.060414
H179	H	1.056871	0.308013	-0.288315
F180	F	0.346392	0.740644	0.143194
F181	F	0.221273	0.740636	0.143195
F182	F	1.074153	0.299107	-0.062516
H183	H	0.338825	0.740611	-0.060426
F184	F	-0.023187	0.740635	0.143206
H185	H	0.503795	0.740631	0.295062
F186	F	0.490659	0.740650	0.412615
H187	H	0.694280	0.740611	0.295047
H188	H	0.922138	0.308021	0.081869
H189	H	0.940897	0.436478	-0.046806
H190	H	0.622357	0.243744	-0.413732
