data_functionalizedCrystal
_audit_creation_method	'MofGen! by Chris Wilmer'
_symmetry_space_group_name_H-M	'P1'
_symmetry_Int_Tables_number	1
_symmetry_cell_setting	triclinic
loop_
_symmetry_equiv_pos_as_xyz
  x,y,z
_cell_length_a	25.639239
_cell_length_b	17.639504
_cell_length_c	25.639234
_cell_angle_alpha	78.758249
_cell_angle_beta	90.024584
_cell_angle_gamma	78.779592
loop_
_atom_site_label
_atom_site_type_symbol
_atom_site_fract_x
_atom_site_fract_y
_atom_site_fract_z
Zn1	Zn	-0.046873	-1.208487	0.457521
Zn2	Zn	0.286461	-0.875154	0.790854
Zn3	Zn	0.619794	-0.541820	1.124187
Zn4	Zn	-0.134317	-1.208360	0.370068
Zn5	Zn	0.199016	-0.875027	0.703401
Zn6	Zn	0.532349	-0.541693	1.036735
Zn7	Zn	-0.064527	-1.076289	0.352387
Zn8	Zn	0.268806	-0.742956	0.685721
Zn9	Zn	0.602140	-0.409622	1.019054
Zn10	Zn	-0.151935	-1.076217	0.439768
Zn11	Zn	0.181399	-0.742884	0.773101
Zn12	Zn	0.514732	-0.409550	1.106435
O13	O	-0.099413	-1.142338	0.404936
O14	O	0.233921	-0.809005	0.738269
O15	O	0.567254	-0.475672	1.071603
O16	O	-0.043711	-1.319098	0.460749
O17	O	0.289622	-0.985765	0.794082
O18	O	0.622956	-0.652431	1.127415
O19	O	-0.125075	-1.190818	0.294554
O20	O	0.208258	-0.857484	0.627888
O21	O	0.541592	-0.524151	0.961221
O22	O	0.010991	-1.093908	0.366364
O23	O	0.344325	-0.760575	0.699697
O24	O	0.677658	-0.427242	1.033030
O25	O	-0.107956	-1.319005	0.396498
O26	O	0.225377	-0.985671	0.729831
O27	O	0.558710	-0.652338	1.063164
O28	O	0.023962	-1.191034	0.443605
O29	O	0.357295	-0.857700	0.776938
O30	O	0.690628	-0.524367	1.110271
O31	O	-0.073800	-1.093785	0.281565
O32	O	0.259533	-0.760452	0.614898
O33	O	0.592867	-0.427119	0.948231
O34	O	-0.090883	-0.965652	0.349150
O35	O	0.242450	-0.632318	0.682483
O36	O	0.575784	-0.298985	1.015817
O37	O	-0.137982	-1.093786	0.515291
O38	O	0.195351	-0.760453	0.848625
O39	O	0.528684	-0.427119	1.181958
O40	O	-0.155101	-0.965599	0.413348
O41	O	0.178232	-0.632266	0.746681
O42	O	0.511566	-0.298932	1.080015
O43	O	-0.060794	-1.190964	0.528334
O44	O	0.272539	-0.857631	0.861667
O45	O	0.605873	-0.524297	1.195001
O46	O	-0.209831	-1.190748	0.379284
O47	O	0.123503	-0.857415	0.712617
O48	O	0.456836	-0.524081	1.045950
O49	O	-0.222774	-1.093663	0.430492
O50	O	0.110559	-0.760330	0.763825
O51	O	0.443893	-0.426996	1.097159
C52	C	-0.126820	-0.936941	0.377404
C53	C	0.206514	-0.603607	0.710738
C54	C	0.539847	-0.270274	1.044071
C55	C	-0.138557	-0.849071	0.365639
C56	C	0.194776	-0.515737	0.698972
C57	C	0.528110	-0.182404	1.032305
C58	C	-0.010196	-0.560291	0.494440
C59	C	0.323137	-0.226958	0.827773
C60	C	0.656471	0.106375	1.161106
C61	C	-0.021238	-0.477724	0.483373
C62	C	0.312095	-0.144391	0.816707
C63	C	0.645429	0.188942	1.150040
C64	C	-0.088026	-0.477649	0.416372
C65	C	0.245308	-0.144316	0.749706
C66	C	0.578641	0.189018	1.083039
C67	C	-0.076991	-0.560218	0.427435
C68	C	0.256342	-0.226885	0.760768
C69	C	0.589676	0.106449	1.094101
C70	C	-0.038075	-0.601533	0.466469
C71	C	0.295258	-0.268199	0.799802
C72	C	0.628592	0.065134	1.133135
C73	C	-0.104870	-0.601459	0.399464
C74	C	0.228463	-0.268126	0.732797
C75	C	0.561797	0.065207	1.066130
C76	C	-0.093834	-0.684021	0.410524
C77	C	0.239499	-0.350688	0.743857
C78	C	0.572833	-0.017354	1.077190
C79	C	-0.054919	-0.725341	0.449554
C80	C	0.278414	-0.392008	0.782888
C81	C	0.611748	-0.058675	1.116221
C82	C	-0.027039	-0.684094	0.477528
C83	C	0.306294	-0.350761	0.810862
C84	C	0.639628	-0.017428	1.144195
C85	C	-0.143783	-0.560143	0.360428
C86	C	0.189550	-0.226810	0.693761
C87	C	0.522884	0.106524	1.027094
C88	C	-0.171662	-0.601384	0.332457
C89	C	0.161671	-0.268051	0.665790
C90	C	0.495004	0.065282	0.999123
C91	C	-0.160629	-0.683947	0.343519
C92	C	0.172704	-0.350614	0.676852
C93	C	0.506038	-0.017281	1.010185
C94	C	-0.121714	-0.725268	0.382550
C95	C	0.211619	-0.391935	0.715883
C96	C	0.544953	-0.058601	1.049216
C97	C	-0.188509	-0.725195	0.315545
C98	C	0.144824	-0.391861	0.648878
C99	C	0.478158	-0.058528	0.982212
C100	C	-0.177473	-0.807756	0.326605
C101	C	0.155860	-0.474423	0.659938
C102	C	0.489194	-0.141090	0.993271
C103	C	-0.110678	-0.807830	0.393610
C104	C	0.222655	-0.474496	0.726943
C105	C	0.555989	-0.141163	1.060276
C106	C	-0.235273	-1.142205	0.404894
C107	C	0.098060	-0.808872	0.738228
C108	C	0.431393	-0.475539	1.071561
C109	C	-0.293385	-1.142221	0.404904
C110	C	0.039948	-0.808887	0.738237
C111	C	0.373282	-0.475554	1.071570
C112	C	-0.646963	-1.193022	0.378346
C113	C	-0.313629	-0.859689	0.711680
C114	C	0.019704	-0.526356	1.045013
C115	C	-0.701563	-1.193053	0.378358
C116	C	-0.368230	-0.859720	0.711691
C117	C	-0.034896	-0.526386	1.045024
O118	O	-0.724049	-1.236108	0.355733
O119	O	-0.390715	-0.902775	0.689066
O120	O	-0.057382	-0.569442	1.022400
N121	N	-0.735633	-1.142477	0.404989
N122	N	-0.402300	-0.809144	0.738323
N123	N	-0.068967	-0.475811	1.071656
C124	C	-0.715100	-1.091873	0.431616
C125	C	-0.381767	-0.758540	0.764949
C126	C	-0.048434	-0.425207	1.098283
O127	O	-0.749093	-1.048858	0.454270
O128	O	-0.415760	-0.715525	0.787603
O129	O	-0.082427	-0.382191	1.120937
C130	C	-0.660501	-1.091847	0.431608
C131	C	-0.327167	-0.758514	0.764941
C132	C	0.006166	-0.425181	1.098275
C133	C	-0.626433	-1.142421	0.404970
C134	C	-0.293100	-0.809087	0.738303
C135	C	0.040233	-0.475754	1.071637
C136	C	-0.612896	-1.243592	0.351711
C137	C	-0.279562	-0.910259	0.685044
C138	C	0.053771	-0.576926	1.018378
C139	C	-0.558300	-1.243560	0.351699
C140	C	-0.224966	-0.910227	0.685033
C141	C	0.108367	-0.576894	1.018366
C142	C	-0.537770	-1.192959	0.378323
C143	C	-0.204437	-0.859625	0.711656
C144	C	0.128897	-0.526292	1.044989
C145	C	-0.571837	-1.142389	0.404958
C146	C	-0.238504	-0.809055	0.738291
C147	C	0.094830	-0.475722	1.071625
C148	C	-0.639968	-1.041248	0.458238
C149	C	-0.306635	-0.707914	0.791571
C150	C	0.026699	-0.374581	1.124904
C151	C	-0.585364	-1.041226	0.458227
C152	C	-0.252030	-0.707893	0.791561
C153	C	0.081303	-0.374560	1.124894
C154	C	-0.551297	-1.091800	0.431589
C155	C	-0.217963	-0.758467	0.764923
C156	C	0.115370	-0.425133	1.098256
C157	C	-0.496711	-1.091755	0.431570
C158	C	-0.163378	-0.758422	0.764903
C159	C	0.169955	-0.425088	1.098236
N160	N	-0.462641	-1.142331	0.404938
N161	N	-0.129308	-0.808997	0.738271
N162	N	0.204026	-0.475664	1.071605
C163	C	-0.483170	-1.192933	0.378315
C164	C	-0.149837	-0.859599	0.711648
C165	C	0.183496	-0.526266	1.044981
C166	C	-0.829763	-1.091933	0.431632
C167	C	-0.496430	-0.758599	0.764966
C168	C	-0.163096	-0.425266	1.098299
C169	C	-0.884362	-1.091954	0.431638
C170	C	-0.551029	-0.758621	0.764971
C171	C	-0.217696	-0.425288	1.098304
C172	C	-0.870821	-1.193135	0.378380
C173	C	-0.537488	-0.859802	0.711713
C174	C	-0.204154	-0.526469	1.045046
C175	C	-0.816221	-1.193109	0.378371
C176	C	-0.482888	-0.859776	0.711705
C177	C	-0.149555	-0.526443	1.045038
C178	C	-0.795693	-1.142509	0.405000
C179	C	-0.462359	-0.809175	0.738334
C180	C	-0.129026	-0.475842	1.071667
C181	C	-0.368515	-1.192861	0.378291
C182	C	-0.035181	-0.859528	0.711625
C183	C	0.298152	-0.526195	1.044958
C184	C	-0.313915	-1.192823	0.378280
C185	C	0.019419	-0.859489	0.711613
C186	C	0.352752	-0.526156	1.044947
C187	C	-0.327460	-1.091645	0.431540
C188	C	0.005873	-0.758312	0.764873
C189	C	0.339206	-0.424978	1.098207
C190	C	-0.382056	-1.091680	0.431549
C191	C	-0.048723	-0.758347	0.764883
C192	C	0.284611	-0.425014	1.098216
C193	C	-0.402581	-1.142295	0.404924
C194	C	-0.069248	-0.808962	0.738257
C195	C	0.264085	-0.475628	1.071591
O196	O	-0.474187	-1.048724	0.454185
O197	O	-0.140854	-0.715391	0.787518
O198	O	0.192479	-0.382057	1.120851
O199	O	-0.449171	-1.235948	0.355670
O200	O	-0.115837	-0.902615	0.689004
O201	O	0.217496	-0.569281	1.022337
C202	C	0.036981	-1.142493	0.404992
C203	C	0.370314	-0.809160	0.738326
C204	C	0.703648	-0.475827	1.071659
C205	C	0.095104	-1.142559	0.405016
C206	C	0.428437	-0.809226	0.738350
C207	C	0.761770	-0.475893	1.071683
C208	C	-0.099384	-1.142381	0.541315
C209	C	0.233949	-0.809048	0.874648
C210	C	0.567283	-0.475715	1.207981
C211	C	-0.099372	-1.142399	0.599431
C212	C	0.233962	-0.809066	0.932765
C213	C	0.567295	-0.475733	1.266098
C214	C	-0.071892	-0.348538	0.432574
C215	C	0.261442	-0.015205	0.765907
C216	C	0.594775	0.318129	1.099240
C217	C	-0.060144	-0.436408	0.444346
C218	C	0.273189	-0.103074	0.777680
C219	C	0.606522	0.230259	1.111013
C220	C	-0.099398	-1.142341	0.269094
C221	C	0.233936	-0.809008	0.602427
C222	C	0.567269	-0.475674	0.935761
C223	C	-0.099242	-1.142476	0.210998
C224	C	0.234091	-0.809143	0.544332
C225	C	0.567424	-0.475809	0.877665
C226	C	-0.126025	-1.192945	0.857384
C227	C	0.207309	-0.859612	1.190717
C228	C	0.540642	-0.526278	1.524050
C229	C	-0.126037	-1.192937	0.802778
C230	C	0.207297	-0.859603	1.136112
C231	C	0.540630	-0.526270	1.469445
O232	O	-0.148761	-1.235875	0.780284
O233	O	0.184572	-0.902542	1.113617
O234	O	0.517906	-0.569209	1.446950
N235	N	-0.099344	-1.142417	0.768708
N236	N	0.233989	-0.809083	1.102041
N237	N	0.567323	-0.475750	1.435374
C238	C	-0.072642	-1.091896	0.789244
C239	C	0.260691	-0.758563	1.122577
C240	C	0.594025	-0.425229	1.455910
O241	O	-0.049939	-1.048924	0.755250
O242	O	0.283394	-0.715590	1.088583
O243	O	0.616727	-0.382257	1.421916
C244	C	-0.072634	-1.091901	0.843848
C245	C	0.260700	-0.758568	1.177181
C246	C	0.594033	-0.425234	1.510514
C247	C	-0.099324	-1.142430	0.877917
C248	C	0.234010	-0.809097	1.211250
C249	C	0.567343	-0.475763	1.544584
C250	C	-0.152713	-1.243469	0.891452
C251	C	0.180620	-0.910136	1.224786
C252	C	0.513954	-0.576802	1.558119
C253	C	-0.152700	-1.243478	0.946054
C254	C	0.180633	-0.910145	1.279388
C255	C	0.513967	-0.576812	1.612721
C256	C	-0.125999	-1.192963	0.966587
C257	C	0.207334	-0.859630	1.299921
C258	C	0.540668	-0.526297	1.633254
C259	C	-0.099311	-1.142439	0.932519
C260	C	0.234023	-0.809106	1.265852
C261	C	0.567356	-0.475772	1.599185
C262	C	-0.045935	-1.041377	0.864383
C263	C	0.287398	-0.708044	1.197716
C264	C	0.620732	-0.374710	1.531049
C265	C	-0.045929	-1.041386	0.918991
C266	C	0.287404	-0.708052	1.252324
C267	C	0.620737	-0.374719	1.585658
C268	C	-0.072619	-1.091915	0.953060
C269	C	0.260714	-0.758581	1.286393
C270	C	0.594048	-0.425248	1.619727
C271	C	-0.072596	-1.091933	1.007654
C272	C	0.260737	-0.758600	1.340987
C273	C	0.594070	-0.425267	1.674320
N274	N	-0.099289	-1.142453	1.041725
N275	N	0.234044	-0.809120	1.375058
N276	N	0.567378	-0.475786	1.708391
C277	C	-0.125990	-1.192968	1.021191
C278	C	0.207343	-0.859635	1.354525
C279	C	0.540676	-0.526301	1.687858
C280	C	-0.072663	-1.091889	0.674572
C281	C	0.260670	-0.758555	1.007905
C282	C	0.594004	-0.425222	1.341239
C283	C	-0.072668	-1.091887	0.619970
C284	C	0.260665	-0.758554	0.953303
C285	C	0.593999	-0.425220	1.286636
C286	C	-0.126064	-1.192927	0.633508
C287	C	0.207270	-0.859593	0.966841
C288	C	0.540603	-0.526260	1.300174
C289	C	-0.126055	-1.192932	0.688112
C290	C	0.207278	-0.859598	1.021445
C291	C	0.540612	-0.526265	1.354778
C292	C	-0.099356	-1.142409	0.708643
C293	C	0.233978	-0.809075	1.041976
C294	C	0.567311	-0.475742	1.375310
C295	C	-0.125961	-1.192984	1.135859
C296	C	0.207373	-0.859651	1.469192
C297	C	0.540706	-0.526317	1.802525
C298	C	-0.125943	-1.192991	1.190465
C299	C	0.207390	-0.859658	1.523798
C300	C	0.540723	-0.526324	1.857132
C301	C	-0.072550	-1.091949	1.176922
C302	C	0.260783	-0.758615	1.510255
C303	C	0.594116	-0.425282	1.843588
C304	C	-0.072565	-1.091944	1.122320
C305	C	0.260768	-0.758611	1.455654
C306	C	0.594102	-0.425278	1.788987
C307	C	-0.099274	-1.142465	1.101791
C308	C	0.234059	-0.809131	1.435124
C309	C	0.567393	-0.475798	1.768457
O310	O	-0.049886	-1.049014	1.030186
O311	O	0.283448	-0.715681	1.363519
O312	O	0.616781	-0.382347	1.696853
O313	O	-0.148695	-1.235926	1.055190
O314	O	0.184638	-0.902593	1.388523
O315	O	0.517972	-0.569259	1.721857
H316	H	0.021491	-0.593932	0.526227
H317	H	0.354825	-0.260599	0.859560
H318	H	0.688158	0.072734	1.192893
H319	H	0.001470	-0.444149	0.506151
H320	H	0.334803	-0.110815	0.839484
H321	H	0.668137	0.222518	1.172818
C322	C	-0.893413	-1.248805	0.349098
C323	C	-0.560080	-0.915472	0.682431
C324	C	-0.226746	-0.582138	1.015765
N325	N	-0.910431	-1.290734	0.327045
N326	N	-0.577098	-0.957400	0.660379
N327	N	-0.243764	-0.624067	0.993712
C328	C	-0.807187	-1.036268	0.460931
C329	C	-0.473854	-0.702934	0.794264
C330	C	-0.140520	-0.369601	1.127597
N331	N	-0.790185	-0.994345	0.483002
N332	N	-0.456852	-0.661012	0.816335
N333	N	-0.123518	-0.327678	1.149668
H334	H	-0.147806	-1.234058	0.616780
H335	H	0.185527	-0.900725	0.950113
H336	H	0.518861	-0.567391	1.283447
C337	C	-0.208143	-0.853124	0.295837
C338	C	0.125190	-0.519791	0.629170
C339	C	0.458523	-0.186457	0.962504
N340	N	-0.231245	-0.887295	0.272661
N341	N	0.102089	-0.553962	0.605995
N342	N	0.435422	-0.220629	0.939328
C343	C	-0.562786	-0.985560	0.487523
C344	C	-0.229453	-0.652227	0.820856
C345	C	0.103880	-0.318894	1.154189
N346	N	-0.545782	-0.943632	0.509586
N347	N	-0.212449	-0.610298	0.842920
N348	N	0.120884	-0.276965	1.176253
H349	H	-0.912097	-1.050765	0.453323
H350	H	-0.578764	-0.717432	0.786656
H351	H	-0.245430	-0.384098	1.119990
C352	C	-0.276443	-1.248456	0.348972
C353	C	0.056890	-0.915122	0.682305
C354	C	0.390223	-0.581789	1.015639
N355	N	-0.248222	-1.290357	0.326897
N356	N	0.085111	-0.957024	0.660231
N357	N	0.418444	-0.623690	0.993564
C358	C	-0.419532	-1.036045	0.460850
C359	C	-0.086198	-0.702711	0.794183
C360	C	0.247135	-0.369378	1.127517
N361	N	-0.447754	-0.994145	0.482925
N362	N	-0.114421	-0.660811	0.816258
N363	N	0.218913	-0.327478	1.149591
H364	H	-0.045932	-0.792568	0.458557
H365	H	0.287401	-0.459235	0.791890
H366	H	0.620734	-0.125902	1.125223
H367	H	-0.147706	-1.234128	1.119151
H368	H	0.185628	-0.900794	1.452484
H369	H	0.518961	-0.567461	1.785818
C370	C	-0.155420	-1.248511	0.725582
C371	C	0.177913	-0.915178	1.058916
C372	C	0.511247	-0.581845	1.392249
N373	N	-0.177541	-1.290374	0.753803
N374	N	0.155792	-0.957041	1.087136
N375	N	0.489126	-0.623708	1.420469
H376	H	0.004648	-0.717735	0.509315
H377	H	0.337981	-0.384402	0.842649
H378	H	0.671315	-0.051068	1.175982
H379	H	-0.152756	-0.492916	0.351412
H380	H	0.180578	-0.159583	0.684746
H381	H	0.513911	0.173751	1.018079
H382	H	-0.788486	-1.234291	0.356681
H383	H	-0.455153	-0.900957	0.690014
H384	H	-0.121820	-0.567624	1.023348
C385	C	-0.016577	-0.985786	0.826917
C386	C	0.316756	-0.652452	1.160251
C387	C	0.650090	-0.319119	1.493584
N388	N	0.005536	-0.943909	0.798699
N389	N	0.338869	-0.610575	1.132032
N390	N	0.672202	-0.277242	1.465365
C391	C	-0.043202	-1.036364	1.084844
C392	C	0.290131	-0.703031	1.418177
C393	C	0.623465	-0.369698	1.751510
N394	N	-0.021090	-0.994494	1.056619
N395	N	0.312244	-0.661161	1.389952
N396	N	0.645577	-0.327828	1.723286
C397	C	-0.304867	-1.035989	0.460827
C398	C	0.028467	-0.702655	0.794160
C399	C	0.361800	-0.369322	1.127494
N400	N	-0.287847	-0.994073	0.482890
N401	N	0.045486	-0.660740	0.816223
N402	N	0.378820	-0.327406	1.149557
C403	C	-0.016555	-0.985808	0.941571
C404	C	0.316779	-0.652474	1.274905
C405	C	0.650112	-0.319141	1.608238
N406	N	0.005572	-0.943949	0.958578
N407	N	0.338906	-0.610615	1.291912
N408	N	0.672239	-0.277282	1.625245
C409	C	-0.043302	-1.036308	0.582500
C410	C	0.290032	-0.702975	0.915833
C411	C	0.623365	-0.369641	1.249167
N412	N	-0.021185	-0.994440	0.554279
N413	N	0.312149	-0.661107	0.887612
N414	N	0.645482	-0.327773	1.220946
C415	C	-0.043280	-1.036317	0.697152
C416	C	0.290053	-0.702984	1.030485
C417	C	0.623386	-0.369650	1.363819
N418	N	-0.021149	-0.994461	0.714157
N419	N	0.312185	-0.661128	1.047490
N420	N	0.645518	-0.327795	1.380823
C421	C	-0.182074	-1.299063	0.868878
C422	C	0.151259	-0.965730	1.202212
C423	C	0.484592	-0.632397	1.535545
N424	N	-0.204183	-1.340951	0.851881
N425	N	0.129150	-1.007618	1.185214
N426	N	0.462484	-0.674284	1.518548
H427	H	-0.174436	-1.284622	0.973789
H428	H	0.158897	-0.951288	1.307122
H429	H	0.492231	-0.617955	1.640456
C430	C	-0.635469	-1.299259	0.322417
C431	C	-0.302136	-0.965926	0.655750
C432	C	0.031198	-0.632592	0.989084
N433	N	-0.652468	-1.341185	0.300347
N434	N	-0.319134	-1.007852	0.633680
N435	N	0.014199	-0.674519	0.967013
H436	H	-0.667697	-1.000062	0.479926
H437	H	-0.334364	-0.666728	0.813259
H438	H	-0.001031	-0.333395	1.146593
C439	C	-0.043181	-1.036384	1.199519
C440	C	0.290152	-0.703051	1.532852
C441	C	0.623486	-0.369718	1.866186
N442	N	-0.021063	-0.994529	1.216540
N443	N	0.312270	-0.661195	1.549874
N444	N	0.645604	-0.327862	1.883207
C445	C	-0.520833	-1.299189	0.322390
C446	C	-0.187500	-0.965856	0.655723
C447	C	0.145834	-0.632523	0.989057
N448	N	-0.492616	-1.341090	0.300311
N449	N	-0.159283	-1.007757	0.633644
N450	N	0.174050	-0.674423	0.966978
C451	C	-0.214469	-0.555929	0.289521
C452	C	0.118864	-0.222596	0.622854
C453	C	0.452198	0.110738	0.956188
N454	N	-0.246713	-0.521693	0.257183
N455	N	0.086620	-0.188359	0.590516
N456	N	0.419954	0.144974	0.923849
H457	H	-0.078991	-0.841470	0.425397
H458	H	0.254343	-0.508137	0.758730
H459	H	0.587676	-0.174804	1.092063
H460	H	-0.119709	-0.443999	0.384589
H461	H	0.213624	-0.110666	0.717923
H462	H	0.546957	0.222667	1.051256
H463	H	-0.147677	-1.234141	1.218203
H464	H	0.185656	-0.900808	1.551536
H465	H	0.518989	-0.567474	1.884870
C466	C	-0.231312	-0.679737	0.272606
C467	C	0.102021	-0.346404	0.605939
C468	C	0.435355	-0.013071	0.939273
N469	N	-0.263552	-0.645499	0.240264
N470	N	0.069782	-0.312165	0.573597
N471	N	0.403115	0.021168	0.906931
C472	C	-0.391085	-1.248535	0.348998
C473	C	-0.057751	-0.915202	0.682332
C474	C	0.275582	-0.581869	1.015665
N475	N	-0.408085	-1.290464	0.326931
N476	N	-0.074751	-0.957131	0.660265
N477	N	0.258582	-0.623798	0.993598
