data_functionalizedCrystal
_audit_creation_method	'MofGen! by Chris Wilmer'
_symmetry_space_group_name_H-M	'P1'
_symmetry_Int_Tables_number	1
_symmetry_cell_setting	triclinic
loop_
_symmetry_equiv_pos_as_xyz
  x,y,z
_cell_length_a	10.489741
_cell_length_b	15.944545
_cell_length_c	14.421503
_cell_angle_alpha	90.002190
_cell_angle_beta	89.994981
_cell_angle_gamma	84.017673
loop_
_atom_site_label
_atom_site_type_symbol
_atom_site_fract_x
_atom_site_fract_y
_atom_site_fract_z
O1	O	-1.692414	-0.118495	0.077059
O2	O	-1.321064	-0.129619	0.077074
O3	O	-1.516884	-0.001843	0.077055
O4	O	-1.496594	-0.246271	0.077078
O5	O	-1.516852	-0.001862	-0.077168
O6	O	-1.321032	-0.129638	-0.077149
O7	O	-1.692382	-0.118514	-0.077164
Cu8	Cu	-1.506704	-0.124078	-0.091239
Cu9	Cu	-1.506742	-0.124056	0.091148
O10	O	-1.496562	-0.246290	-0.077145
C11	C	-1.273528	-0.128788	-0.000036
C12	C	-1.131933	-0.126275	-0.000031
C13	C	-1.516027	0.029446	-0.000057
C14	C	-1.513506	0.122708	-0.000060
C15	C	-1.739918	-0.119345	-0.000052
C16	C	-1.881513	-0.121859	-0.000051
C17	C	-1.497419	-0.277580	-0.000031
C18	C	-1.499940	-0.370842	-0.000022
C19	C	-1.064923	-0.044975	-0.000047
C20	C	-0.972279	-0.083371	0.075995
C21	C	-0.972280	-0.083409	-0.076057
C22	C	-1.041154	-0.164704	0.076074
C23	C	-1.041165	-0.164731	-0.076046
C24	C	-0.948547	-0.203186	0.000014
C25	C	-1.384595	0.394116	-0.000036
C26	C	-1.446762	0.343166	0.076002
C27	C	-1.504516	0.458406	-0.000033
C28	C	-1.446761	0.343174	-0.076050
C29	C	-1.508926	0.293466	-0.000048
C30	C	-1.566650	0.408684	0.076068
C31	C	-1.566633	0.408696	-0.076053
C32	C	-1.628888	0.357779	0.000004
C33	C	-1.501971	0.553423	-0.000024
C34	C	-1.511480	0.198451	-0.000050
N35	N	-1.506686	-0.124093	-0.219520
C36	C	-1.416123	-0.183150	-0.469165
C37	C	-1.531377	-0.200150	-0.530970
C38	C	-1.506717	-0.124073	-0.408681
C39	C	-1.391493	-0.107093	-0.530970
C40	C	-1.506737	-0.124056	-0.591403
C41	C	-1.622029	-0.141112	-0.469126
C42	C	-1.482070	-0.048021	-0.469120
C43	C	-1.597407	-0.064990	-0.530898
C44	C	-1.506704	-0.124086	-0.303420
C45	C	-1.506763	-0.124043	-0.696662
N46	N	-1.506770	-0.124034	0.219430
H47	H	-1.115542	0.021859	0.000042
N48	N	-1.557584	-0.280813	-0.565064
N49	N	-1.660217	-0.309527	-0.544140
H50	H	-1.678722	-0.366496	-0.568217
N51	N	-1.630126	0.444442	0.156814
N52	N	-1.589756	0.422690	0.235672
H53	H	-1.634580	0.447946	0.292700
H54	H	-1.071720	-0.199111	-0.140332
H55	H	-0.941756	-0.048963	0.140278
N56	N	-1.079250	-0.207832	0.156799
N57	N	-1.194883	-0.216708	0.169845
H58	H	-1.221792	-0.247171	0.226852
N59	N	-0.885387	-0.287119	0.000079
N60	N	-0.903181	-0.336060	0.065432
H61	H	-0.858574	-0.395337	0.065482
N62	N	-1.383191	0.307255	-0.156684
N63	N	-1.287958	0.253773	-0.148229
H64	H	-1.243054	0.228403	-0.205172
N65	N	-1.744307	-0.159209	-0.435184
N66	N	-1.764018	-0.162164	-0.349822
H67	H	-1.850374	-0.174946	-0.325848
N68	N	-1.455840	0.032629	-0.435019
N69	N	-1.352354	0.060762	-0.454799
H70	H	-1.333815	0.117722	-0.430716
H71	H	-1.294042	-0.092739	-0.558137
N72	N	-1.758550	0.337572	0.000058
N73	N	-1.831762	0.361525	0.065403
H74	H	-1.923336	0.347253	0.065446
N75	N	-1.320096	-0.245865	-0.435167
N76	N	-1.252215	-0.291020	-0.490816
H77	H	-1.184398	-0.335313	-0.466806
H78	H	-0.941767	-0.049002	-0.140345
H79	H	-1.281317	0.410389	0.000043
N80	N	-1.383251	0.307242	0.156645
N81	N	-1.375852	0.229411	0.169888
H82	H	-1.330994	0.204042	0.226841
N83	N	-1.693638	-0.002306	-0.564681
N84	N	-1.808759	-0.006428	-0.544661
H85	H	-1.876726	0.037840	-0.568520
H86	H	-1.617220	0.437334	-0.140344
