data_functionalizedCrystal
_audit_creation_method	'MofGen! by Chris Wilmer'
_symmetry_space_group_name_H-M	'P1'
_symmetry_Int_Tables_number	1
_symmetry_cell_setting	triclinic
loop_
_symmetry_equiv_pos_as_xyz
  x,y,z
_cell_length_a	16.109301
_cell_length_b	16.109304
_cell_length_c	15.186229
_cell_angle_alpha	90.000934
_cell_angle_beta	90.000638
_cell_angle_gamma	83.462059
loop_
_atom_site_label
_atom_site_type_symbol
_atom_site_fract_x
_atom_site_fract_y
_atom_site_fract_z
O1	O	-1.103132	-0.106866	-0.073167
O2	O	-0.861070	-0.120165	-0.073181
O3	O	-0.988749	0.007515	-0.073174
O4	O	-0.975452	-0.234546	-0.073174
O5	O	-0.988741	0.007517	0.073283
O6	O	-0.861061	-0.120163	0.073277
O7	O	-1.103123	-0.106864	0.073290
Zn8	Zn	-0.982091	-0.113513	0.096537
Zn9	Zn	-0.982102	-0.113516	-0.096427
O10	O	-0.975444	-0.234545	0.073283
C11	C	-0.830091	-0.119626	0.000046
C12	C	-0.737795	-0.118010	0.000041
C13	C	-0.988206	0.038491	0.000052
C14	C	-0.986590	0.130786	0.000046
C15	C	-0.975987	-0.265520	0.000055
C16	C	-0.977603	-0.357816	0.000055
C17	C	-1.134102	-0.107404	0.000061
C18	C	-1.226398	-0.109019	0.000061
C19	C	-0.515524	-0.190018	0.000051
C20	C	-0.428803	-0.188494	0.000057
C21	C	-0.448676	-0.037005	0.000053
C22	C	-0.535395	-0.038530	0.000054
C23	C	-0.568816	-0.115039	0.000048
C24	C	-0.395377	-0.111990	0.000053
C25	C	-0.301351	-0.110337	0.000059
C26	C	-0.662848	-0.116693	0.000044
N27	N	-0.982089	-0.113511	0.228229
C28	C	-0.982861	0.343123	-0.079784
C29	C	-0.981335	0.429843	-0.079784
C30	C	-0.981330	0.429842	0.079892
C31	C	-0.982850	0.343122	0.079890
C32	C	-0.983620	0.299766	0.000050
C33	C	-0.980573	0.473205	0.000052
C34	C	-0.978919	0.567231	0.000053
C35	C	-0.985273	0.205734	0.000048
N36	N	-0.982110	-0.113511	-0.228120
C37	C	-1.038645	-0.056993	0.453955
C38	C	-1.038648	-0.056991	0.546145
C39	C	-0.925549	-0.170032	0.546148
C40	C	-0.925543	-0.170029	0.453960
C41	C	-0.982096	-0.113511	0.407866
C42	C	-0.982104	-0.113512	0.592243
C43	C	-0.982107	-0.113510	0.692200
C44	C	-0.982092	-0.113511	0.307903
H45	H	-0.385416	-0.249550	0.000061
C46	C	-1.055980	0.254951	-0.172430
C47	C	-0.983683	0.295454	-0.167540
H48	H	-1.056481	0.225526	-0.226610
H49	H	-1.056649	0.216725	-0.124886
H50	H	-1.103839	0.295139	-0.169126
H51	H	-0.935823	0.255265	-0.170837
H52	H	-0.983006	0.333683	-0.215097
H53	H	-0.879489	-0.216053	0.416432
H54	H	-0.578788	0.022530	0.000054
C55	C	-0.324566	0.032597	0.000041
C56	C	-0.411936	0.047090	0.000047
H57	H	-0.301887	0.084516	0.000030
H58	H	-0.306275	0.001736	0.051112
H59	H	-0.306282	0.001721	-0.051034
H60	H	-0.430220	0.077961	0.051126
H61	H	-0.430235	0.077965	-0.051029
C62	C	-0.601509	-0.279627	-0.075240
C63	C	-0.552259	-0.274116	0.000050
H64	H	-0.624180	-0.331550	-0.075241
H65	H	-0.645659	-0.235198	-0.075236
H66	H	-0.568083	-0.275882	-0.126306
H67	H	-0.585687	-0.277854	0.051116
H68	H	-0.508103	-0.318557	0.000054
H69	H	-1.084694	-0.010969	0.583668
C70	C	-0.781613	-0.218806	0.574551
C71	C	-0.863391	-0.232155	0.596821
H72	H	-0.743241	-0.257157	0.605840
H73	H	-0.773519	-0.226898	0.513060
H74	H	-0.772615	-0.163312	0.589667
H75	H	-0.872391	-0.287648	0.581700
H76	H	-0.871488	-0.224070	0.658327
C77	C	-0.981503	0.421129	-0.237614
C78	C	-0.980505	0.477501	-0.167540
H79	H	-0.980994	0.450553	-0.291792
H80	H	-0.933646	0.380952	-0.234296
H81	H	-1.030555	0.393660	-0.234283
H82	H	-0.931450	0.504966	-0.170867
H83	H	-1.028367	0.517693	-0.170860
C84	C	-0.979014	0.562779	0.150795
C85	C	-0.980500	0.477505	0.167650
H86	H	-0.978510	0.592202	0.204976
H87	H	-0.930312	0.570637	0.118003
H88	H	-1.027221	0.583332	0.117986
H89	H	-0.932289	0.456950	0.200453
H90	H	-1.029207	0.469642	0.200456
H91	H	-0.983463	0.307820	0.144905
H92	H	-1.084693	-0.010972	0.416427
