data_functionalizedCrystal
_audit_creation_method	'MofGen! by Chris Wilmer'
_symmetry_space_group_name_H-M	'P1'
_symmetry_Int_Tables_number	1
_symmetry_cell_setting	triclinic
loop_
_symmetry_equiv_pos_as_xyz
  x,y,z
_cell_length_a	12.759401
_cell_length_b	16.625546
_cell_length_c	12.759393
_cell_angle_alpha	89.964325
_cell_angle_beta	89.979527
_cell_angle_gamma	90.023993
loop_
_atom_site_label
_atom_site_type_symbol
_atom_site_fract_x
_atom_site_fract_y
_atom_site_fract_z
Zn1	Zn	1.606205	-0.320925	-0.593986
Zn2	Zn	2.106205	0.179075	-0.093986
Zn3	Zn	1.606074	-0.455781	-0.418292
Zn4	Zn	2.106074	0.044219	0.081708
Zn5	Zn	1.430505	-0.320970	-0.418322
Zn6	Zn	1.930505	0.179030	0.081678
Zn7	Zn	1.430472	-0.455723	-0.593930
Zn8	Zn	1.930472	0.044277	-0.093930
O9	O	1.518314	-0.388350	-0.506132
O10	O	2.018314	0.111650	-0.006132
O11	O	1.753208	-0.338820	-0.570692
O12	O	2.253208	0.161180	-0.070692
O13	O	1.582743	-0.437941	-0.271275
O14	O	2.082743	0.062059	0.228725
O15	O	1.453881	-0.208131	-0.441660
O16	O	1.953881	0.291869	0.058340
O17	O	1.753112	-0.437898	-0.441610
O18	O	2.253112	0.062102	0.058390
O19	O	1.582967	-0.208099	-0.570720
O20	O	2.082967	0.291901	-0.070720
O21	O	1.453754	-0.338895	-0.271297
O22	O	1.953754	0.161105	0.228703
O23	O	1.283480	-0.338839	-0.441605
O24	O	1.783480	0.161161	0.058395
O25	O	1.453824	-0.437799	-0.740958
O26	O	1.953824	0.062201	-0.240958
O27	O	1.283455	-0.437842	-0.570623
O28	O	1.783455	0.062158	-0.070623
O29	O	1.582934	-0.338764	-0.741000
O30	O	2.082934	0.161236	-0.241000
O31	O	1.582711	-0.568606	-0.441555
O32	O	2.082711	-0.068606	0.058445
O33	O	1.453697	-0.568563	-0.570595
O34	O	1.953697	-0.068563	-0.070595
C35	C	1.245346	-0.388340	-0.506112
C36	C	1.745346	0.111660	-0.006112
C37	C	1.128570	-0.388355	-0.506128
C38	C	1.628570	0.111645	-0.006128
C39	C	1.073723	-0.439984	-0.573202
C40	C	1.573723	0.060016	-0.073202
C41	C	0.963998	-0.439988	-0.573223
C42	C	1.463998	0.060012	-0.073223
C43	C	0.963979	-0.336730	-0.439086
C44	C	1.463979	0.163270	0.060914
C45	C	1.073701	-0.336723	-0.439071
C46	C	1.573701	0.163277	0.060929
C47	C	0.814096	-0.468919	-0.697080
C48	C	1.314096	0.031081	-0.197080
C49	C	0.759245	-0.520560	-0.764145
C50	C	1.259245	-0.020560	-0.264145
C51	C	0.794829	-0.599248	-0.780084
C52	C	1.294829	-0.099248	-0.280084
C53	C	0.885262	-0.626311	-0.728944
C54	C	1.385262	-0.126311	-0.228944
C55	C	0.940107	-0.574673	-0.661871
C56	C	1.440107	-0.074673	-0.161871
C57	C	0.904525	-0.495974	-0.645952
C58	C	1.404525	0.004026	-0.145952
C59	C	1.223605	-0.307800	-0.315212
C60	C	1.723605	0.192200	0.184788
C61	C	1.278452	-0.256166	-0.248134
C62	C	1.778452	0.243834	0.251866
C63	C	1.242870	-0.177477	-0.232183
C64	C	1.742870	0.322523	0.267817
C65	C	1.152434	-0.150418	-0.283306
C66	C	1.652434	0.349582	0.216694
C67	C	1.097587	-0.202052	-0.350384
C68	C	1.597587	0.297948	0.149616
C69	C	1.133176	-0.280740	-0.366336
C70	C	1.633176	0.219260	0.133664
C71	C	1.518214	-0.597841	-0.506088
C72	C	2.018214	-0.097841	-0.006088
C73	C	1.518268	-0.687462	-0.506105
C74	C	2.018268	-0.187462	-0.006105
C75	C	1.518451	-1.015637	-0.506214
C76	C	2.018451	-0.515637	-0.006214
C77	C	1.518397	-0.924329	-0.506187
C78	C	2.018397	-0.424329	-0.006187
C79	C	1.518359	-0.851552	-0.506159
C80	C	2.018359	-0.351552	-0.006159
C81	C	1.518306	-0.760238	-0.506132
C82	C	2.018306	-0.260238	-0.006132
C83	C	1.792347	-0.388360	-0.506154
C84	C	2.292347	0.111640	-0.006154
C85	C	1.909124	-0.388365	-0.506163
C86	C	2.409124	0.111635	-0.006163
C87	C	1.518390	-0.388270	-0.780166
C88	C	2.018390	0.111730	-0.280166
C89	C	1.518423	-0.388237	-0.896943
C90	C	2.018423	0.111763	-0.396943
C91	C	1.518442	-0.178041	-0.506200
C92	C	2.018442	0.321959	-0.006200
C93	C	1.518497	-0.088420	-0.506228
C94	C	2.018497	0.411580	-0.006228
C95	C	1.585677	-0.336630	-1.061559
C96	C	2.085677	0.163370	-0.561559
C97	C	1.585657	-0.336661	-0.951835
C98	C	2.085657	0.163339	-0.451835
C99	C	1.451212	-0.439790	-0.951780
C100	C	1.951212	0.060210	-0.451780
C101	C	1.451238	-0.439762	-1.061502
C102	C	1.951238	0.060238	-0.561502
C103	C	1.709545	-0.307897	-0.801910
C104	C	2.209545	0.192103	-0.301910
C105	C	1.776744	-0.256337	-0.747077
C106	C	2.276744	0.243663	-0.247077
C107	C	1.792932	-0.177653	-0.782720
C108	C	2.292932	0.322347	-0.282720
C109	C	1.741906	-0.150513	-0.873194
C110	C	2.241906	0.349487	-0.373194
C111	C	1.674700	-0.202069	-0.928022
C112	C	2.174700	0.297931	-0.428022
C113	C	1.658531	-0.280764	-0.892381
C114	C	2.158531	0.219236	-0.392381
C115	C	1.327349	-0.468518	-1.211429
C116	C	1.827349	0.031482	-0.711429
C117	C	1.260136	-0.520071	-1.266258
C118	C	1.760136	-0.020071	-0.766258
C119	C	1.243937	-0.598756	-1.230618
C120	C	1.743937	-0.098756	-0.730618
C121	C	1.294944	-0.625892	-1.140140
C122	C	1.794944	-0.125892	-0.640140
C123	C	1.362157	-0.574340	-1.085310
C124	C	1.862157	-0.074340	-0.585310
C125	C	1.378358	-0.495656	-1.120958
C126	C	1.878358	0.004344	-0.620958
C127	C	1.518298	-0.388371	-0.233165
C128	C	2.018298	0.111629	0.266835
C129	C	1.518469	-0.388177	-0.116389
C130	C	2.018469	0.111823	0.383611
H131	H	1.023954	-0.180011	-0.392018
H132	H	1.523954	0.319989	0.107982
H133	H	0.750162	-0.641295	-0.834692
H134	H	1.250162	-0.141295	-0.334692
Cl135	Cl	1.195990	-0.485948	-1.379989
Cl136	Cl	1.695990	0.014052	-0.879989
Cl137	Cl	1.107691	-0.051494	-0.263247
Cl138	Cl	1.607691	0.448506	0.236753
Cl139	Cl	1.426257	-0.608448	-0.971546
Cl140	Cl	1.926257	-0.108448	-0.471546
H141	H	1.847647	-0.135672	-0.738066
H142	H	2.347647	0.364328	-0.238066
Cl143	Cl	0.645566	-0.486538	-0.828438
Cl144	Cl	1.145566	0.013462	-0.328438
Cl145	Cl	1.053786	-0.608687	-0.597581
Cl146	Cl	1.553786	-0.108687	-0.097581
H147	H	1.633143	-0.179968	-1.001675
H148	H	2.133143	0.320032	-0.501675
Cl149	Cl	0.769367	-0.369987	-0.677064
Cl150	Cl	1.269367	0.130013	-0.177064
H151	H	1.281756	-0.689965	-1.111121
H152	H	1.781756	-0.189965	-0.611121
Cl153	Cl	1.159425	-0.663560	-1.299540
Cl154	Cl	1.659425	-0.163560	-0.799540
H155	H	1.340539	-0.404447	-1.240460
H156	H	1.840539	0.095553	-0.740460
H157	H	1.118394	-0.482024	-0.627806
H158	H	1.618394	0.017976	-0.127806
H159	H	0.914220	-0.690390	-0.741919
H160	H	1.414220	-0.190390	-0.241919
H161	H	0.919291	-0.294694	-0.384490
H162	H	1.419291	0.205306	0.115510
Cl163	Cl	1.311814	-0.112570	-0.147839
Cl164	Cl	1.811814	0.387430	0.352161
H165	H	1.352090	-0.278205	-0.206507
H166	H	1.852090	0.221795	0.293493
H167	H	1.252591	-0.371874	-0.328203
H168	H	1.752591	0.128126	0.171797
Cl169	Cl	1.670195	-0.271780	-1.130556
Cl170	Cl	2.170195	0.228220	-0.630556
H171	H	1.755082	-0.086437	-0.902200
H172	H	2.255082	0.413563	-0.402200
H173	H	1.696381	-0.371970	-0.772888
H174	H	2.196381	0.128030	-0.272888
Cl175	Cl	1.840904	-0.290460	-0.633354
Cl176	Cl	2.340904	0.209540	-0.133354
Cl177	Cl	1.366690	-0.504629	-0.882772
Cl178	Cl	1.866690	-0.004629	-0.382772
