data_functionalizedCrystal
_audit_creation_method	'MofGen! by Chris Wilmer'
_symmetry_space_group_name_H-M	'P1'
_symmetry_Int_Tables_number	1
_symmetry_cell_setting	triclinic
loop_
_symmetry_equiv_pos_as_xyz
  x,y,z
_cell_length_a	14.908742
_cell_length_b	25.639240
_cell_length_c	25.639243
_cell_angle_alpha	90.016535
_cell_angle_beta	86.699456
_cell_angle_gamma	86.739913
loop_
_atom_site_label
_atom_site_type_symbol
_atom_site_fract_x
_atom_site_fract_y
_atom_site_fract_z
Zn1	Zn	1.378939	-0.254332	0.249364
Zn2	Zn	1.712272	0.079001	0.582698
Zn3	Zn	2.045605	0.412335	0.916031
Zn4	Zn	1.378848	-0.341733	0.161921
Zn5	Zn	1.712181	-0.008400	0.495254
Zn6	Zn	2.045514	0.324933	0.828588
Zn7	Zn	1.228123	-0.249278	0.166998
Zn8	Zn	1.561456	0.084055	0.500331
Zn9	Zn	1.894789	0.417389	0.833665
Zn10	Zn	1.228018	-0.336696	0.254381
Zn11	Zn	1.561351	-0.003363	0.587714
Zn12	Zn	1.894685	0.329971	0.921047
O13	O	1.303482	-0.295510	0.208166
O14	O	1.636815	0.037823	0.541499
O15	O	1.970148	0.371157	0.874833
O16	O	1.505166	-0.270149	0.233541
O17	O	1.838499	0.063184	0.566874
O18	O	2.171833	0.396518	0.900207
O19	O	1.358859	-0.329462	0.089429
O20	O	1.692193	0.003871	0.422762
O21	O	2.025526	0.337205	0.756096
O22	O	1.248211	-0.176786	0.177950
O23	O	1.581544	0.156547	0.511283
O24	O	1.914877	0.489881	0.844616
O25	O	1.505099	-0.334362	0.169296
O26	O	1.838433	-0.001029	0.502630
O27	O	2.171766	0.332304	0.835963
O28	O	1.359014	-0.180499	0.238464
O29	O	1.692348	0.152834	0.571797
O30	O	2.025681	0.486168	0.905130
O31	O	1.248122	-0.261536	0.093159
O32	O	1.581456	0.071798	0.426493
O33	O	1.914789	0.405131	0.759826
O34	O	1.101869	-0.256651	0.182814
O35	O	1.435203	0.076682	0.516147
O36	O	1.768536	0.410015	0.849480
O37	O	1.248032	-0.325777	0.326881
O38	O	1.581366	0.007556	0.660214
O39	O	1.914699	0.340890	0.993547
O40	O	1.101792	-0.320877	0.247013
O41	O	1.435126	0.012457	0.580347
O42	O	1.768459	0.345790	0.913680
O43	O	1.358913	-0.265265	0.323195
O44	O	1.692246	0.068069	0.656529
O45	O	2.025580	0.401402	0.989862
O46	O	1.358758	-0.414228	0.174160
O47	O	1.692091	-0.080894	0.507494
O48	O	2.025425	0.252439	0.840827
O49	O	1.247944	-0.410527	0.242090
O50	O	1.581277	-0.077193	0.575424
O51	O	1.914611	0.256140	0.908757
C52	C	1.069098	-0.287669	0.216009
C53	C	1.402432	0.045664	0.549342
C54	C	1.735765	0.378997	0.882676
C55	C	0.968828	-0.284328	0.219377
C56	C	1.302161	0.049006	0.552710
C57	C	1.635495	0.382339	0.886044
C58	C	1.303354	-0.431348	0.208129
C59	C	1.636688	-0.098015	0.541463
C60	C	1.970021	0.235318	0.874796
C61	C	1.303382	-0.489463	0.208128
C62	C	1.636716	-0.156130	0.541462
C63	C	1.970049	0.177204	0.874795
C64	C	0.827532	-0.246245	0.257620
C65	C	1.160866	0.087089	0.590954
C66	C	1.494199	0.420422	0.924287
C67	C	0.921745	-0.249380	0.254459
C68	C	1.255079	0.083953	0.587792
C69	C	1.588412	0.417287	0.921125
C70	C	0.921691	-0.316144	0.187456
C71	C	1.255024	0.017190	0.520789
C72	C	1.588358	0.350523	0.854122
C73	C	0.827478	-0.313009	0.190617
C74	C	1.160812	0.020325	0.523950
C75	C	1.494145	0.353658	0.857284
C76	C	0.780402	-0.278057	0.225700
C77	C	1.113735	0.055276	0.559033
C78	C	1.447069	0.388609	0.892367
C79	C	0.686188	-0.274920	0.228859
C80	C	1.019521	0.058414	0.562192
C81	C	1.352854	0.391747	0.895525
C82	C	0.686135	-0.341686	0.161859
C83	C	1.019469	-0.008353	0.495192
C84	C	1.352802	0.324981	0.828525
C85	C	0.780348	-0.344821	0.158697
C86	C	1.113681	-0.011488	0.492030
C87	C	1.447015	0.321845	0.825364
C88	C	1.361206	-0.851725	0.239735
C89	C	1.694539	-0.518392	0.573068
C90	C	2.027873	-0.185059	0.906402
C91	C	1.361232	-0.906331	0.239745
C92	C	1.694566	-0.572997	0.573078
C93	C	2.027899	-0.239664	0.906412
O94	O	1.410245	-0.936177	0.266581
O95	O	1.743578	-0.602844	0.599914
O96	O	2.076911	-0.269510	0.933248
N97	N	1.303607	-0.931753	0.208212
N98	N	1.636940	-0.598420	0.541546
N99	N	1.970274	-0.265086	0.874879
C100	C	1.245944	-0.902567	0.176672
C101	C	1.579278	-0.569234	0.510005
C102	C	1.912611	-0.235901	0.843339
O103	O	1.196931	-0.929205	0.149852
O104	O	1.530265	-0.595872	0.483186
O105	O	1.863598	-0.262538	0.816519
C106	C	1.245914	-0.847963	0.176665
C107	C	1.579247	-0.514630	0.509999
C108	C	1.912581	-0.181296	0.843332
C109	C	1.303550	-0.822544	0.208196
C110	C	1.636883	-0.489210	0.541529
C111	C	1.970216	-0.155877	0.874863
C112	C	1.418836	-0.826306	0.271264
C113	C	1.752170	-0.492972	0.604597
C114	C	2.085503	-0.159639	0.937930
C115	C	1.418811	-0.771704	0.271253
C116	C	1.752144	-0.438371	0.604586
C117	C	2.085477	-0.105038	0.937920
C118	C	1.361155	-0.742523	0.239714
C119	C	1.694488	-0.409189	0.573047
C120	C	2.027821	-0.075856	0.906381
C121	C	1.303524	-0.767942	0.208185
C122	C	1.636858	-0.434609	0.541519
C123	C	1.970191	-0.101276	0.874852
C124	C	1.188248	-0.818778	0.145128
C125	C	1.521581	-0.485445	0.478462
C126	C	1.854914	-0.152111	0.811795
C127	C	1.188222	-0.764170	0.145125
C128	C	1.521555	-0.430837	0.478458
C129	C	1.854888	-0.097503	0.811791
C130	C	1.245857	-0.738751	0.176655
C131	C	1.579191	-0.405417	0.509989
C132	C	1.912524	-0.072084	0.843322
C133	C	1.245842	-0.684159	0.176636
C134	C	1.579176	-0.350826	0.509969
C135	C	1.912509	-0.017492	0.843302
N136	N	1.303468	-0.658736	0.208168
N137	N	1.636801	-0.325403	0.541502
N138	N	1.970135	0.007930	0.874835
C139	C	1.361124	-0.687918	0.239707
C140	C	1.694457	-0.354585	0.573041
C141	C	2.027791	-0.021252	0.906374
C142	C	1.246012	-1.017240	0.176689
C143	C	1.579345	-0.683907	0.510022
C144	C	1.912678	-0.350573	0.843356
C145	C	1.246046	-1.071844	0.176692
C146	C	1.579379	-0.738510	0.510026
C147	C	1.912713	-0.405177	0.843359
C148	C	1.361333	-1.075603	0.239766
C149	C	1.694667	-0.742270	0.573099
C150	C	2.028000	-0.408936	0.906433
C151	C	1.361303	-1.020999	0.239759
C152	C	1.694636	-0.687665	0.573093
C153	C	2.027969	-0.354332	0.906426
C154	C	1.303637	-0.991818	0.208221
C155	C	1.636971	-0.658484	0.541555
C156	C	1.970304	-0.325151	0.874888
C157	C	1.361066	-0.573251	0.239682
C158	C	1.694400	-0.239918	0.573016
C159	C	2.027733	0.093415	0.906349
C160	C	1.361038	-0.518645	0.239667
C161	C	1.694372	-0.185312	0.573001
C162	C	2.027705	0.148022	0.906334
C163	C	1.245748	-0.514890	0.176596
C164	C	1.579082	-0.181557	0.509929
C165	C	1.912415	0.151777	0.843263
C166	C	1.245779	-0.569492	0.176609
C167	C	1.579113	-0.236158	0.509942
C168	C	1.912446	0.097175	0.843275
C169	C	1.303441	-0.598671	0.208156
C170	C	1.636775	-0.265338	0.541489
C171	C	1.970108	0.067996	0.874823
O172	O	1.196853	-0.654279	0.149815
O173	O	1.530186	-0.320945	0.483148
O174	O	1.863519	0.012388	0.816482
O175	O	1.410121	-0.661273	0.266528
O176	O	1.743454	-0.327940	0.599861
O177	O	2.076787	0.005394	0.933194
C178	C	1.538780	-0.303381	0.200293
C179	C	1.872114	0.029952	0.533626
C180	C	2.205447	0.363285	0.866959
C181	C	1.639051	-0.306736	0.196937
C182	C	1.972384	0.026598	0.530271
C183	C	2.305717	0.359931	0.863604
C184	C	1.303471	-0.295523	0.344539
C185	C	1.636804	0.037811	0.677873
C186	C	1.970138	0.371144	1.011206
C187	C	1.303467	-0.295528	0.402654
C188	C	1.636800	0.037805	0.735987
C189	C	1.970133	0.371138	1.069320
C190	C	1.303634	-0.159142	0.208213
C191	C	1.636968	0.174191	0.541547
C192	C	1.970301	0.507525	0.874880
C193	C	1.303699	-0.101030	0.208234
C194	C	1.637033	0.232303	0.541567
C195	C	1.970366	0.565637	0.874900
C196	C	1.245736	-0.327023	0.655760
C197	C	1.579070	0.006310	0.989093
C198	C	1.912403	0.339644	1.322427
C199	C	1.245732	-0.327023	0.601156
C200	C	1.579066	0.006310	0.934489
C201	C	1.912399	0.339643	1.267823
O202	O	1.196615	-0.353803	0.574547
O203	O	1.529948	-0.020470	0.907880
O204	O	1.863281	0.312864	1.241214
N205	N	1.303464	-0.295521	0.571928
N206	N	1.636797	0.037813	0.905261
N207	N	1.970131	0.371146	1.238594
C208	C	1.361197	-0.264011	0.597306
C209	C	1.694530	0.069322	0.930640
C210	C	2.027863	0.402655	1.263973
O211	O	1.410301	-0.237215	0.567431
O212	O	1.743634	0.096118	0.900765
O213	O	2.076967	0.429451	1.234098
C214	C	1.361195	-0.264008	0.651910
C215	C	1.694528	0.069325	0.985243
C216	C	2.027862	0.402658	1.318576
C217	C	1.303466	-0.295517	0.681135
C218	C	1.636800	0.037816	1.014468
C219	C	1.970133	0.371149	1.347802
C220	C	1.188011	-0.358529	0.684986
C221	C	1.521345	-0.025196	1.018319
C222	C	1.854678	0.308138	1.351652
C223	C	1.188017	-0.358529	0.739586
C224	C	1.521350	-0.025196	1.072919
C225	C	1.854683	0.308138	1.406253
C226	C	1.245747	-0.327023	0.764961
C227	C	1.579080	0.006310	1.098294
C228	C	1.912413	0.339643	1.431628
C229	C	1.303472	-0.295517	0.735735
C230	C	1.636805	0.037816	1.069069
C231	C	1.970138	0.371149	1.402402
C232	C	1.418923	-0.232497	0.677287
C233	C	1.752256	0.100837	1.010621
C234	C	2.085589	0.434170	1.343954
C235	C	1.418916	-0.232496	0.731895
C236	C	1.752249	0.100837	1.065228
C237	C	2.085582	0.434170	1.398561
C238	C	1.361187	-0.264005	0.761120
C239	C	1.694520	0.069328	1.094454
C240	C	2.027854	0.402662	1.427787
C241	C	1.361207	-0.264012	0.815711
C242	C	1.694540	0.069321	1.149044
C243	C	2.027874	0.402655	1.482377
N244	N	1.303475	-0.295515	0.844939
N245	N	1.636809	0.037819	1.178273
N246	N	1.970142	0.371152	1.511606
C247	C	1.245745	-0.327020	0.819564
C248	C	1.579079	0.006313	1.152898
C249	C	1.912412	0.339646	1.486231
C250	C	1.361194	-0.264019	0.482636
C251	C	1.694527	0.069314	0.815969
C252	C	2.027861	0.402648	1.149302
C253	C	1.361200	-0.264024	0.428033
C254	C	1.694534	0.069309	0.761366
C255	C	2.027867	0.402642	1.094700
C256	C	1.245735	-0.327036	0.431887
C257	C	1.579068	0.006297	0.765220
C258	C	1.912402	0.339631	1.098553
C259	C	1.245733	-0.327033	0.486490
C260	C	1.579067	0.006300	0.819823
C261	C	1.912400	0.339634	1.153157
C262	C	1.303462	-0.295522	0.511864
C263	C	1.636796	0.037811	0.845197
C264	C	1.970129	0.371145	1.178531
C265	C	1.245761	-0.327019	0.934229
C266	C	1.579095	0.006315	1.267562
C267	C	1.912428	0.339648	1.600895
C268	C	1.245774	-0.327018	0.988834
C269	C	1.579108	0.006316	1.322167
C270	C	1.912441	0.339649	1.655500
C271	C	1.361236	-0.264004	0.984976
C272	C	1.694570	0.069329	1.318309
C273	C	2.027903	0.402662	1.651642
C274	C	1.361227	-0.264007	0.930375
C275	C	1.694560	0.069326	1.263709
C276	C	2.027894	0.402660	1.597042
C277	C	1.303482	-0.295516	0.905003
C278	C	1.636816	0.037817	1.238337
C279	C	1.970149	0.371151	1.571670
O280	O	1.410297	-0.237244	0.842355
O281	O	1.743630	0.096089	1.175689
O282	O	2.076964	0.429422	1.509022
O283	O	1.196641	-0.353807	0.849446
O284	O	1.529974	-0.020474	1.182779
O285	O	1.863308	0.312860	1.516113
C286	C	1.303489	-0.295511	1.072323
C287	C	1.636823	0.037823	1.405657
C288	C	1.970156	0.371156	1.738990
C289	C	1.303505	-0.295512	1.014209
C290	C	1.636838	0.037821	1.347542
C291	C	1.970171	0.371155	1.680875
H292	H	0.647860	-0.246458	0.257423
H293	H	0.981193	0.086875	0.590756
H294	H	1.314526	0.420208	0.924090
H295	H	0.789202	-0.217781	0.286181
H296	H	1.122536	0.115553	0.619514
H297	H	1.455869	0.448886	0.952848
H298	H	1.408278	-1.099373	0.265448
H299	H	1.741612	-0.766040	0.598781
H300	H	2.074945	-0.432706	0.932115
H301	H	1.407976	-0.497950	0.265343
H302	H	1.741309	-0.164617	0.598677
H303	H	2.074642	0.168716	0.932010
H304	H	1.198725	-0.352690	0.510282
H305	H	1.532058	-0.019357	0.843615
H306	H	1.865391	0.313977	1.176949
H307	H	0.960115	-0.223475	0.280451
H308	H	1.293448	0.109859	0.613785
H309	H	1.626782	0.443192	0.947118
H310	H	1.199056	-0.993483	0.151002
H311	H	1.532390	-0.660150	0.484336
H312	H	1.865723	-0.326817	0.817669
H313	H	0.960037	-0.344601	0.158894
H314	H	1.293370	-0.011268	0.492228
H315	H	1.626703	0.322066	0.825561
H316	H	1.198764	-0.352678	1.012627
H317	H	1.532097	-0.019345	1.345960
H318	H	1.865431	0.313989	1.679294
H319	H	0.818690	-0.373279	0.130135
H320	H	1.152024	-0.039945	0.463468
H321	H	1.485357	0.293388	0.796801
H322	H	1.408014	-0.597003	0.265375
H323	H	1.741348	-0.263669	0.598708
H324	H	2.074681	0.069664	0.932042
H325	H	0.647752	-0.367591	0.135868
H326	H	0.981085	-0.034258	0.469201
H327	H	1.314418	0.299075	0.802535
H328	H	1.465740	-0.751011	0.296930
H329	H	1.799073	-0.417678	0.630263
H330	H	2.132407	-0.084344	0.963596
H331	H	1.141005	-0.384185	0.763377
H332	H	1.474339	-0.050852	1.096710
H333	H	1.807672	0.282481	1.430043
H334	H	1.198726	-0.352689	0.411217
H335	H	1.532060	-0.019355	0.744550
H336	H	1.865393	0.313978	1.077883
H337	H	1.140995	-0.384184	0.664331
H338	H	1.474328	-0.050851	0.997665
H339	H	1.807662	0.282482	1.330998
H340	H	1.408234	-1.000306	0.265435
H341	H	1.741568	-0.666972	0.598768
H342	H	2.074901	-0.333639	0.932101
H343	H	1.465787	-0.850060	0.296950
H344	H	1.799120	-0.516727	0.630283
H345	H	2.132453	-0.183393	0.963616
H346	H	1.199123	-1.092536	0.151011
H347	H	1.532456	-0.759202	0.484344
H348	H	1.865790	-0.425869	0.817678
H349	H	1.141261	-0.740413	0.119443
H350	H	1.474594	-0.407080	0.452777
H351	H	1.807927	-0.073746	0.786110
H352	H	1.141315	-0.839465	0.119452
H353	H	1.474648	-0.506132	0.452786
H354	H	1.807981	-0.172798	0.786119
H355	H	1.198855	-0.590189	0.150930
H356	H	1.532188	-0.256856	0.484263
H357	H	1.865521	0.076477	0.817596
H358	H	1.198808	-0.491122	0.150916
H359	H	1.532141	-0.157789	0.484249
H360	H	1.865475	0.175545	0.817582
H361	H	1.408219	-0.238372	0.404242
H362	H	1.741552	0.094961	0.737575
H363	H	2.074885	0.428294	1.070908
H364	H	1.198732	-0.352671	0.913578
H365	H	1.532065	-0.019338	1.246911
H366	H	1.865399	0.313995	1.580245
H367	H	1.408211	-0.238360	0.503291
H368	H	1.741544	0.094974	0.836625
H369	H	2.074877	0.428307	1.169958
H370	H	1.465932	-0.206839	0.653501
H371	H	1.799266	0.126494	0.986835
H372	H	2.132599	0.459828	1.320168
H373	H	1.408242	-0.238355	1.005646
H374	H	1.741575	0.094978	1.338979
H375	H	2.074908	0.428312	1.672312
H376	H	1.465923	-0.206833	0.752551
H377	H	1.799256	0.126500	1.085885
H378	H	2.132589	0.459834	1.419218
H379	H	1.408241	-0.238354	0.906578
H380	H	1.741574	0.094979	1.239912
H381	H	2.074908	0.428313	1.573245
