data_functionalizedCrystal
_audit_creation_method	'MofGen! by Chris Wilmer'
_symmetry_space_group_name_H-M	'P1'
_symmetry_Int_Tables_number	1
_symmetry_cell_setting	triclinic
loop_
_symmetry_equiv_pos_as_xyz
  x,y,z
_cell_length_a	19.188930
_cell_length_b	10.654550
_cell_length_c	9.130313
_cell_angle_alpha	90.000110
_cell_angle_beta	90.014104
_cell_angle_gamma	83.814842
loop_
_atom_site_label
_atom_site_type_symbol
_atom_site_fract_x
_atom_site_fract_y
_atom_site_fract_z
O1	O	-0.927166	-0.156774	-0.122267
O2	O	-0.723993	-0.177880	-0.122166
O3	O	-0.830251	0.015511	-0.122214
O4	O	-0.820908	-0.350165	-0.122220
O5	O	-0.830250	0.015506	0.121385
O6	O	-0.723992	-0.177885	0.121433
O7	O	-0.927165	-0.156779	0.121332
Cu8	Cu	-0.825578	-0.167333	0.143625
Cu9	Cu	-0.825580	-0.167326	-0.144459
O10	O	-0.820907	-0.350170	0.121379
C11	C	-0.697977	-0.177199	-0.000354
C12	C	-0.620459	-0.175147	-0.000315
C13	C	-0.829564	0.062292	-0.000416
C14	C	-0.827512	0.201692	-0.000420
C15	C	-0.953181	-0.157460	-0.000484
C16	C	-1.030699	-0.159512	-0.000532
C17	C	-0.576277	-0.288622	-0.000340
C18	C	-0.503441	-0.286695	-0.000356
C19	C	-0.474789	-0.171286	-0.000377
C20	C	-0.518981	-0.057795	-0.000344
C21	C	-0.591816	-0.059726	-0.000313
N22	N	-0.366233	-0.083068	-0.083342
N23	N	-0.297042	-0.081241	-0.083374
C24	C	-0.255343	-0.165461	-0.000466
N25	N	-0.285446	-0.251596	0.082456
N26	N	-0.354643	-0.253426	0.082482
C27	C	-0.395813	-0.169179	-0.000409
C28	C	-0.132183	-0.276855	-0.000507
C29	C	-0.059345	-0.274922	-0.000514
C30	C	-0.074887	-0.046020	-0.000516
C31	C	-0.147723	-0.047955	-0.000494
C32	C	-0.176366	-0.163376	-0.000497
C33	C	-0.821594	-0.396951	-0.000422
C34	C	-0.823646	-0.536351	-0.000428
N35	N	-0.825582	-0.167336	0.346247
C36	C	-0.890075	0.282501	-0.000446
C37	C	-0.888142	0.413481	-0.000456
C38	C	-0.761078	0.382829	-0.000405
C39	C	-0.763011	0.251852	-0.000407
C40	C	-0.954575	0.232341	-0.000459
C41	C	-1.017143	0.313152	-0.000484
C42	C	-1.015211	0.444132	-0.000494
C43	C	-0.950710	0.494301	-0.000478
N44	N	-0.825581	-0.167313	-0.347082
C45	C	-0.872645	-0.081731	0.422878
C46	C	-0.872643	-0.081716	0.576215
C47	C	-0.778513	-0.252922	0.576276
C48	C	-0.778512	-0.252930	0.422942
C49	C	-0.919716	0.003862	0.346183
C50	C	-0.966783	0.089473	0.422814
C51	C	-0.966781	0.089488	0.576151
C52	C	-0.919712	0.003892	0.652857
H53	H	-0.599593	-0.382607	-0.000345
F54	F	-0.692437	0.436228	-0.000387
H55	H	-1.005102	0.159169	0.360353
F56	F	-0.956637	0.092943	-0.000445
H57	H	-0.467461	-0.379103	-0.000373
H58	H	-1.005101	0.159203	0.638543
F59	F	-0.194747	0.072823	-0.000475
F60	F	-0.728420	-0.344038	0.341385
H61	H	-1.066157	0.509926	-0.000529
H62	H	-0.919709	0.003920	0.777714
F63	F	-0.488487	0.065031	-0.000359
F64	F	-1.085786	0.259757	-0.000518
F65	F	-0.919723	0.003848	0.182989
F66	F	-0.728423	-0.344015	0.657916
H67	H	-0.627789	0.032682	-0.000294
H68	H	-0.051560	0.047949	-0.000623
F69	F	-0.012323	-0.395705	-0.000533
F70	F	-0.162669	-0.399694	-0.000498
H71	H	-0.949141	0.600955	-0.000501
H72	H	-0.712067	0.186054	-0.000383
