data_functionalizedCrystal
_audit_creation_method	'MofGen! by Chris Wilmer'
_symmetry_space_group_name_H-M	'P1'
_symmetry_Int_Tables_number	1
_symmetry_cell_setting	triclinic
loop_
_symmetry_equiv_pos_as_xyz
  x,y,z
_cell_length_a	16.974800
_cell_length_b	14.044190
_cell_length_c	15.455313
_cell_angle_alpha	92.904485
_cell_angle_beta	90.973911
_cell_angle_gamma	88.281173
loop_
_atom_site_label
_atom_site_type_symbol
_atom_site_fract_x
_atom_site_fract_y
_atom_site_fract_z
O1	O	1.057573	0.120854	0.002126
O2	O	0.829158	0.135332	-0.013917
O3	O	0.939933	-0.009900	-0.006120
O4	O	0.946798	0.266086	-0.005672
O5	O	0.933596	-0.001629	0.137696
O6	O	0.822821	0.143603	0.129899
O7	O	1.051236	0.129125	0.145942
Cu8	Cu	0.936450	0.137119	0.151052
Cu9	Cu	0.943944	0.127338	-0.019027
O10	O	0.940461	0.274357	0.138144
C11	C	0.796581	0.138766	0.055925
C12	C	0.708952	0.136662	0.049771
C13	C	0.664333	0.140180	0.125276
C14	C	0.581996	0.138188	0.119496
C15	C	0.544279	0.132685	0.038211
C16	C	0.588904	0.129164	-0.037300
C17	C	0.671239	0.131149	-0.031519
C18	C	0.298403	0.126259	0.012516
C19	C	0.216061	0.124277	0.006740
C20	C	0.209160	0.133299	0.163537
C21	C	0.291497	0.135289	0.169311
C22	C	0.336114	0.131763	0.093800
N23	N	0.460118	0.130652	0.032301
N24	N	0.420275	0.133789	0.099711
C25	C	0.933763	-0.041087	0.065580
C26	C	0.924807	-0.146336	0.064958
C27	C	0.971949	-0.396499	0.068236
C28	C	0.908449	-0.339039	0.063782
C29	C	0.917553	-0.231809	0.064436
C30	C	0.962847	-0.503738	0.067581
C31	C	1.083813	0.125692	0.076097
C32	C	1.171443	0.127795	0.082245
C33	C	0.946632	0.305544	0.066443
C34	C	0.955588	0.410793	0.067058
N35	N	0.931185	0.143998	0.270677
N36	N	0.949215	0.120452	-0.138652
C37	C	0.978265	0.082321	0.319385
C38	C	0.974291	0.087532	0.409913
C39	C	0.923240	0.154425	0.451732
C40	C	0.876154	0.216105	0.403017
C41	C	0.880125	0.210889	0.312490
C42	C	0.906100	0.176915	0.722107
C43	C	0.902135	0.182129	0.812640
C44	C	1.000271	0.053554	0.819530
C45	C	1.004241	0.048347	0.729001
C46	C	0.957152	0.110024	0.680294
N47	N	0.919178	0.159755	0.544266
N48	N	0.961210	0.104688	0.587761
H49	H	0.695036	0.144668	0.191468
H50	H	0.558188	0.124677	-0.103484
H51	H	1.033146	-0.365161	0.072543
H52	H	0.172824	0.136168	0.225014
H53	H	1.019840	0.027854	0.285343
H54	H	0.867760	0.227136	0.682456
Br55	Br	1.038184	0.003823	0.476020
H56	H	1.045810	-0.006122	0.694955
Br57	Br	1.064173	-0.030147	0.885635
Br58	Br	0.806440	-0.391267	0.056613
H59	H	0.707567	0.128286	-0.093003
H60	H	0.860561	0.236605	0.846684
H61	H	0.834583	0.270568	0.437070
Br62	Br	0.816221	0.294591	0.246385
H63	H	0.545672	0.141037	0.180981
H64	H	0.322201	0.139766	0.235502
Br65	Br	0.164874	0.116815	-0.103583
Br66	Br	0.358945	0.121472	-0.089964
