data_functionalizedCrystal
_audit_creation_method	'MofGen! by Chris Wilmer'
_symmetry_space_group_name_H-M	'P1'
_symmetry_Int_Tables_number	1
_symmetry_cell_setting	triclinic
loop_
_symmetry_equiv_pos_as_xyz
  x,y,z
_cell_length_a	11.026607
_cell_length_b	17.666332
_cell_length_c	19.188930
_cell_angle_alpha	90.010342
_cell_angle_beta	95.865399
_cell_angle_gamma	90.008412
loop_
_atom_site_label
_atom_site_type_symbol
_atom_site_fract_x
_atom_site_fract_y
_atom_site_fract_z
O1	O	1.608621	0.062982	0.292176
O2	O	1.255491	0.062979	0.258906
O3	O	1.442247	0.062965	0.175184
O4	O	1.421866	0.062995	0.375898
O5	O	1.442214	-0.062931	0.175177
O6	O	1.255459	-0.062918	0.258899
O7	O	1.608588	-0.062915	0.292169
Cu8	Cu	1.432020	-0.074412	0.275533
Cu9	Cu	1.432059	0.074476	0.275542
O10	O	1.421833	-0.062902	0.375891
C11	C	1.210297	0.000030	0.252765
C12	C	1.075680	0.000028	0.234468
C13	C	1.001606	0.000036	0.284989
C14	C	0.862472	0.000034	0.266079
N15	N	1.432002	-0.179131	0.275528
C16	C	1.505314	-0.218728	0.327117
C17	C	1.505334	-0.297975	0.327117
C18	C	1.432018	-0.337624	0.275534
C19	C	1.358701	-0.298018	0.223936
C20	C	1.358693	-0.218772	0.223933
N21	N	1.325810	-0.462065	0.260279
N22	N	1.325821	-0.537345	0.260286
C23	C	1.432040	-0.576388	0.275539
N24	N	1.538249	-0.537306	0.290799
N25	N	1.538237	-0.462018	0.290795
C26	C	1.432019	-0.423553	0.275532
C27	C	1.505380	-0.701913	0.327132
C28	C	1.505402	-0.781162	0.327127
C29	C	1.358758	-0.781203	0.223949
C30	C	1.358748	-0.701956	0.223951
C31	C	1.432056	-0.662315	0.275546
C32	C	1.653783	0.000035	0.298310
C33	C	1.788400	0.000042	0.316607
C34	C	1.441570	0.000015	0.149086
C35	C	1.439589	0.000008	0.071329
N36	N	1.432087	0.179195	0.275543
C37	C	1.549171	0.000006	0.040370
C38	C	1.547310	0.000018	-0.032691
C39	C	1.435860	0.000017	-0.074791
C40	C	1.326264	0.000024	-0.043824
C41	C	1.328128	0.000020	0.029235
N42	N	1.350659	-0.042828	-0.193655
N43	N	1.348895	-0.042826	-0.263059
C44	C	1.430236	0.000033	-0.294916
N45	N	1.513425	0.042879	-0.254748
N46	N	1.515192	0.042873	-0.185338
C47	C	1.433826	0.000023	-0.154013
C48	C	1.537807	0.000044	-0.405095
C49	C	1.535941	0.000061	-0.478158
C50	C	1.314892	0.000060	-0.489290
C51	C	1.316761	0.000051	-0.416229
C52	C	1.428222	0.000039	-0.374136
C53	C	1.422509	0.000050	0.401990
C54	C	1.424490	0.000062	0.479747
H55	H	1.565013	-0.186458	0.369127
H56	H	1.625180	0.000063	-0.503362
Cl57	Cl	1.266603	-0.831039	0.159095
Cl58	Cl	1.178993	0.000051	-0.377308
Cl59	Cl	1.014571	0.000010	0.146074
Cl60	Cl	0.801369	0.000016	0.177681
H61	H	0.827980	0.000045	0.373863
H62	H	1.565034	-0.330221	0.369129
Cl63	Cl	1.190356	0.000023	0.068156
Cl64	Cl	1.597581	-0.830941	0.391985
H65	H	1.299009	-0.330304	0.181937
H66	H	1.628565	0.000038	-0.370821
H67	H	1.299043	-0.669716	0.181944
H68	H	1.298991	-0.186533	0.181923
H69	H	1.224148	0.000063	-0.523568
Cl70	Cl	1.062715	0.000047	0.373383
Cl71	Cl	1.597565	-0.652076	0.391980
Cl72	Cl	1.689293	0.000013	0.093284
H73	H	1.636547	0.000019	-0.057902
Cl74	Cl	1.186156	0.000030	-0.096749
