data_functionalizedCrystal
_audit_creation_method	'MofGen! by Chris Wilmer'
_symmetry_space_group_name_H-M	'P1'
_symmetry_Int_Tables_number	1
_symmetry_cell_setting	triclinic
loop_
_symmetry_equiv_pos_as_xyz
  x,y,z
_cell_length_a	19.121241
_cell_length_b	19.121459
_cell_length_c	11.169409
_cell_angle_alpha	87.524226
_cell_angle_beta	87.532897
_cell_angle_gamma	89.914667
loop_
_atom_site_label
_atom_site_type_symbol
_atom_site_fract_x
_atom_site_fract_y
_atom_site_fract_z
Zn1	Zn	1.083743	-0.233410	-0.740755
Zn2	Zn	1.583743	0.266590	-0.240755
Zn3	Zn	1.088647	-0.350674	-0.531874
Zn4	Zn	1.588647	0.149326	-0.031874
Zn5	Zn	0.966494	-0.238444	-0.531149
Zn6	Zn	1.466494	0.261556	-0.031149
Zn7	Zn	0.971466	-0.355605	-0.723591
Zn8	Zn	1.471466	0.144395	-0.223591
O9	O	1.027588	-0.294533	-0.631842
O10	O	1.527588	0.205467	-0.131842
O11	O	1.182503	-0.244796	-0.720533
O12	O	1.682503	0.255204	-0.220533
O13	O	1.072415	-0.335829	-0.363823
O14	O	1.572415	0.164171	0.136177
O15	O	0.977914	-0.139668	-0.565833
O16	O	1.477914	0.360332	-0.065833
O17	O	1.186106	-0.330949	-0.567069
O18	O	1.686106	0.169051	-0.067069
O19	O	1.064056	-0.135971	-0.719829
O20	O	1.564056	0.364029	-0.219829
O21	O	0.982670	-0.253374	-0.363290
O22	O	1.482670	0.246626	0.136710
O23	O	0.869044	-0.258155	-0.549190
O24	O	1.369044	0.241845	-0.049190
O25	O	0.986388	-0.339352	-0.893823
O26	O	1.486388	0.160648	-0.393823
O27	O	0.872697	-0.344233	-0.690577
O28	O	1.372697	0.155767	-0.190577
O29	O	1.068877	-0.249577	-0.906433
O30	O	1.568877	0.250423	-0.406433
O31	O	1.077236	-0.449436	-0.550427
O32	O	1.577236	0.050564	-0.050427
O33	O	0.991144	-0.453058	-0.691281
O34	O	1.491144	0.046942	-0.191281
C35	C	0.845432	-0.302276	-0.617943
C36	C	1.345432	0.197724	-0.117943
C37	C	0.767506	-0.305605	-0.612024
C38	C	1.267506	0.194395	-0.112024
C39	C	1.035281	-0.476684	-0.619098
C40	C	1.535281	0.023316	-0.119098
C41	C	1.038637	-0.554606	-0.613690
C42	C	1.538637	-0.054606	-0.113690
C43	C	1.059879	-0.995223	-0.579403
C44	C	1.559879	-0.495223	-0.079403
C45	C	1.056720	-0.922007	-0.584486
C46	C	1.556720	-0.422007	-0.084486
C47	C	1.010285	-0.887314	-0.660301
C48	C	1.510285	-0.387314	-0.160301
C49	C	0.967002	-0.925841	-0.731029
C50	C	1.467002	-0.425841	-0.231029
C51	C	0.970158	-0.999056	-0.725940
C52	C	1.470158	-0.499056	-0.225940
C53	C	0.998509	-0.666349	-0.679329
C54	C	1.498509	-0.166349	-0.179329
C55	C	0.995358	-0.593128	-0.684416
C56	C	1.495358	-0.093128	-0.184416
C57	C	1.085075	-0.589299	-0.537870
C58	C	1.585075	-0.089299	-0.037870
C59	C	1.088230	-0.662515	-0.532792
C60	C	1.588230	-0.162515	-0.032792
C61	C	1.044944	-0.701036	-0.603516
C62	C	1.544944	-0.201036	-0.103516
C63	C	1.007057	-0.812475	-0.665501
C64	C	1.507057	-0.312475	-0.165501
C65	C	1.048170	-0.775874	-0.598309
C66	C	1.548170	-0.275874	-0.098309
C67	C	0.729023	-0.262385	-0.689256
C68	C	1.229023	0.237615	-0.189256
C69	C	0.655803	-0.265509	-0.683684
C70	C	1.155803	0.234491	-0.183684
C71	C	0.621067	-0.311858	-0.600886
C72	C	1.121067	0.188142	-0.100886
C73	C	0.659554	-0.355080	-0.523646
C74	C	1.159554	0.144920	-0.023646
C75	C	0.732773	-0.351951	-0.529213
C76	C	1.232773	0.148049	-0.029213
C77	C	0.400088	-0.323542	-0.580070
C78	C	0.900088	0.176458	-0.080070
C79	C	0.326864	-0.326669	-0.574511
C80	C	0.826864	0.173331	-0.074511
C81	C	0.323118	-0.237097	-0.734549
C82	C	0.823118	0.262903	-0.234549
C83	C	0.396338	-0.233975	-0.740113
C84	C	0.896338	0.266025	-0.240113
C85	C	0.434819	-0.277195	-0.662869
C86	C	0.934819	0.222805	-0.162869
C87	C	0.546224	-0.315055	-0.595191
C88	C	1.046224	0.184945	-0.095191
C89	C	0.509660	-0.273994	-0.668559
C90	C	1.009660	0.226006	-0.168559
C91	C	1.210455	-0.286761	-0.645797
C92	C	1.710455	0.213239	-0.145797
C93	C	1.288381	-0.283449	-0.651743
C94	C	1.788381	0.216551	-0.151743
C95	C	1.027640	-0.294453	-0.944895
C96	C	1.527640	0.205547	-0.444895
C97	C	1.027663	-0.294419	-1.078299
C98	C	1.527663	0.205581	-0.578299
C99	C	1.019883	-0.111670	-0.644665
C100	C	1.519883	0.388330	-0.144665
C101	C	1.016600	-0.033745	-0.650129
C102	C	1.516600	0.466255	-0.150129
C103	C	1.027573	-0.294561	-0.320015
C104	C	1.527573	0.205439	0.179985
C105	C	1.027678	-0.294391	-0.186635
C106	C	1.527678	0.205609	0.313365
H107	H	1.097695	-1.023464	-0.517673
H108	H	1.597695	-0.523464	-0.017673
O109	O	1.093361	-0.809592	-0.524851
O110	O	1.593361	-0.309592	-0.024851
C111	C	1.140429	-0.849953	-0.593779
C112	C	1.640429	-0.349953	-0.093779
H113	H	1.143763	-0.827658	-0.690175
H114	H	1.643763	-0.327658	-0.190175
H115	H	1.194437	-0.848453	-0.554532
H116	H	1.694437	-0.348453	-0.054532
H117	H	1.121148	-0.906383	-0.592367
H118	H	1.621148	-0.406383	-0.092367
H119	H	1.126041	-0.690757	-0.471053
H120	H	1.626041	-0.190757	0.028947
H121	H	0.969250	-0.784223	-0.727234
H122	H	1.469250	-0.284223	-0.227234
O123	O	0.618385	-0.223457	-0.758544
O124	O	1.118385	0.276543	-0.258544
C125	C	0.574080	-0.179950	-0.690298
C126	C	1.074080	0.320050	-0.190298
H127	H	0.595934	-0.174607	-0.597770
H128	H	1.095934	0.325393	-0.097770
H129	H	0.570976	-0.126063	-0.737580
H130	H	1.070976	0.373937	-0.237580
H131	H	0.519507	-0.203995	-0.680361
H132	H	1.019507	0.296005	-0.180361
H133	H	1.120316	-0.557928	-0.480289
H134	H	1.620316	-0.057928	0.019711
H135	H	0.517934	-0.352792	-0.527777
H136	H	1.017934	0.147208	-0.027777
H137	H	0.957543	-0.564885	-0.746159
H138	H	1.457543	-0.064885	-0.246159
O139	O	0.762652	-0.217301	-0.769726
O140	O	1.262652	0.282699	-0.269726
C141	C	0.712982	-0.179837	-0.836716
C142	C	1.212982	0.320163	-0.336716
H143	H	0.660673	-0.179607	-0.783764
H144	H	1.160673	0.320393	-0.283764
H145	H	0.731802	-0.123705	-0.855151
H146	H	1.231802	0.376295	-0.355151
H147	H	0.706309	-0.205904	-0.925403
H148	H	1.206309	0.294096	-0.425403
H149	H	0.298584	-0.364415	-0.507086
H150	H	0.798584	0.135585	-0.007086
O151	O	0.543325	-0.229012	-0.749147
O152	O	1.043325	0.270988	-0.249147
C153	C	0.526138	-0.245193	-0.866288
C154	C	1.026138	0.254807	-0.366288
H155	H	0.474116	-0.274411	-0.862776
H156	H	0.974116	0.225589	-0.362776
H157	H	0.521515	-0.194741	-0.923605
H158	H	1.021515	0.305259	-0.423605
H159	H	0.568885	-0.279510	-0.907206
H160	H	1.068885	0.220490	-0.407206
H161	H	0.963257	-0.697704	-0.736908
H162	H	1.463257	-0.197704	-0.236908
H163	H	0.929190	-0.897590	-0.792755
H164	H	1.429190	-0.397590	-0.292755
H165	H	0.424615	-0.196236	-0.807541
H166	H	0.924615	0.303764	-0.307541
H167	H	0.934919	-1.030420	-0.783538
H168	H	1.434919	-0.530420	-0.283538
O169	O	0.285663	-0.195213	-0.809617
O170	O	0.785663	0.304787	-0.309617
C171	C	0.245038	-0.236986	-0.881033
C172	C	0.745038	0.263014	-0.381033
H173	H	0.236305	-0.290557	-0.834008
H174	H	0.736305	0.209443	-0.334008
H175	H	0.192347	-0.210638	-0.895279
H176	H	0.692347	0.289362	-0.395279
H177	H	0.273610	-0.243539	-0.971557
H178	H	0.773610	0.256461	-0.471557
H179	H	0.431410	-0.358735	-0.517173
H180	H	0.931410	0.141265	-0.017173
H181	H	0.764105	-0.387145	-0.466321
H182	H	1.264105	0.112855	0.033679
O183	O	1.098837	-0.884692	-0.515751
O184	O	1.598837	-0.384692	-0.015751
C185	C	1.140490	-0.931013	-0.447731
C186	C	1.640490	-0.431013	0.052269
H187	H	1.145148	-0.983077	-0.493452
H188	H	1.645148	-0.483077	0.006548
H189	H	1.194820	-0.907464	-0.440702
H190	H	1.694820	-0.407464	0.059298
H191	H	1.115186	-0.939953	-0.354037
H192	H	1.615186	-0.439953	0.145963
O193	O	0.625785	-0.400179	-0.443379
O194	O	1.125785	0.099821	0.056621
C195	C	0.585360	-0.447304	-0.505194
C196	C	1.085360	0.052696	-0.005194
H197	H	0.607639	-0.450753	-0.601078
H198	H	1.107639	0.049247	-0.101078
H199	H	0.586801	-0.501264	-0.457798
H200	H	1.086801	-0.001264	0.042202
H201	H	0.528952	-0.428002	-0.506689
H202	H	1.028952	0.071998	-0.006689
