data_functionalizedCrystal
_audit_creation_method	'MofGen! by Chris Wilmer'
_symmetry_space_group_name_H-M	'P1'
_symmetry_Int_Tables_number	1
_symmetry_cell_setting	triclinic
loop_
_symmetry_equiv_pos_as_xyz
  x,y,z
_cell_length_a	11.026607
_cell_length_b	18.266242
_cell_length_c	11.026607
_cell_angle_alpha	90.003139
_cell_angle_beta	108.586017
_cell_angle_gamma	90.007945
loop_
_atom_site_label
_atom_site_type_symbol
_atom_site_fract_x
_atom_site_fract_y
_atom_site_fract_z
O1	O	1.726742	0.060879	0.533627
O2	O	1.360162	0.060880	0.472864
O3	O	1.513070	0.060877	0.319956
O4	O	1.573834	0.060882	0.686536
O5	O	1.513035	-0.060885	0.319938
O6	O	1.360127	-0.060882	0.472846
O7	O	1.726707	-0.060883	0.533610
Zn8	Zn	1.543411	-0.080215	0.503226
Zn9	Zn	1.543458	0.080212	0.503248
O10	O	1.573798	-0.060880	0.686518
C11	C	1.312485	-0.000001	0.461645
C12	C	1.170471	-0.000000	0.428228
N13	N	1.543388	-0.189702	0.503211
C14	C	1.116821	0.000002	0.520498
C15	C	0.970043	0.000002	0.485962
C16	C	1.611134	-0.228012	0.435552
C17	C	1.611141	-0.304657	0.435548
C18	C	1.543419	-0.342988	0.503227
C19	C	1.475659	-0.304669	0.570889
C20	C	1.475643	-0.228025	0.570881
N21	N	1.551831	-0.463319	0.612442
N22	N	1.551852	-0.536127	0.612448
C23	C	1.543459	-0.573911	0.503254
N24	N	1.535067	-0.536136	0.394056
N25	N	1.535053	-0.463321	0.394053
C26	C	1.543427	-0.426095	0.503243
C27	C	1.611215	-0.695328	0.435584
C28	C	1.611212	-0.771975	0.435576
C29	C	1.475739	-0.771985	0.570930
C30	C	1.475733	-0.695340	0.570926
C31	C	1.543478	-0.657017	0.503256
C32	C	1.774384	-0.000000	0.544828
C33	C	1.916398	0.000004	0.578245
C34	C	1.501843	-0.000003	0.272287
C35	C	1.468426	-0.000000	0.130273
N36	N	1.543488	0.189699	0.503255
C37	C	1.560695	0.000001	0.076624
C38	C	1.526160	0.000003	-0.070155
C39	C	1.585026	0.000002	0.734187
C40	C	1.618443	0.000004	0.876200
H41	H	1.179555	-0.000001	0.625061
H42	H	1.723013	0.000059	-0.061072
H43	H	0.907314	0.000019	0.381393
O44	O	1.409785	-0.341982	0.636448
C45	C	1.316250	-0.386322	0.550981
H46	H	1.345236	-0.397803	0.462384
H47	H	1.307719	-0.440217	0.599762
H48	H	1.220163	-0.356802	0.521689
O49	O	1.401453	0.000103	-0.145112
C50	C	1.376651	0.063177	-0.222864
H51	H	1.469922	0.084201	-0.233884
H52	H	1.306943	0.048998	-0.321057
H53	H	1.333031	0.107334	-0.176525
H54	H	1.665258	-0.000004	0.139357
H55	H	0.979125	0.000001	0.682816
O56	O	1.676850	-0.658103	0.369675
C57	C	1.628646	-0.676820	0.238978
H58	H	1.526484	-0.697918	0.215964
H59	H	1.629330	-0.626396	0.178281
H60	H	1.691142	-0.721279	0.217001
O61	O	1.409748	-0.809178	0.636510
C62	C	1.279070	-0.790454	0.588184
H63	H	1.256163	-0.769392	0.486019
H64	H	1.218319	-0.840864	0.588839
H65	H	1.257059	-0.745965	0.650615
O66	O	1.095589	0.000129	0.303501
C67	C	1.017790	0.063181	0.278705
H68	H	1.063866	0.107258	0.352139
H69	H	1.007155	0.084349	0.178583
H70	H	0.919443	0.048923	0.285341
O71	O	1.677048	-0.341959	0.370009
C72	C	1.770602	-0.386259	0.455491
H73	H	1.741615	-0.397742	0.544087
H74	H	1.779165	-0.440156	0.406726
H75	H	1.866674	-0.356705	0.484782
O76	O	1.343633	-0.000095	0.055578
C77	C	1.282623	-0.063166	0.081860
H78	H	1.337366	-0.084195	0.181659
H79	H	1.180498	-0.048982	0.076988
H80	H	1.280670	-0.107321	0.008187
O81	O	1.676949	-0.190899	0.369696
C82	C	1.736770	-0.241154	0.310002
H83	H	1.684218	-0.295797	0.297129
H84	H	1.733982	-0.219018	0.212487
H85	H	1.840480	-0.249286	0.372116
H86	H	1.666374	-0.803167	0.380473
O87	O	1.410004	-0.190841	0.636820
C88	C	1.458252	-0.209574	0.767501
H89	H	1.560424	-0.230631	0.790470
H90	H	1.457556	-0.159169	0.828244
H91	H	1.395793	-0.254069	0.789460
O92	O	1.410102	-0.658156	0.636870
C93	C	1.458356	-0.676889	0.767550
H94	H	1.560529	-0.697942	0.790517
H95	H	1.457656	-0.626484	0.828293
H96	H	1.395903	-0.721386	0.789512
