data_functionalizedCrystal
_audit_creation_method	'MofGen! by Chris Wilmer'
_symmetry_space_group_name_H-M	'P1'
_symmetry_Int_Tables_number	1
_symmetry_cell_setting	triclinic
loop_
_symmetry_equiv_pos_as_xyz
  x,y,z
_cell_length_a	14.044220
_cell_length_b	12.837943
_cell_length_c	11.295483
_cell_angle_alpha	94.538773
_cell_angle_beta	94.468632
_cell_angle_gamma	85.991091
loop_
_atom_site_label
_atom_site_type_symbol
_atom_site_fract_x
_atom_site_fract_y
_atom_site_fract_z
O1	O	0.242691	-1.404877	-0.099010
O2	O	0.576024	-1.071543	0.234323
O3	O	0.909357	-0.738210	0.567656
O4	O	0.230415	-1.101936	-0.099017
O5	O	0.563748	-0.768603	0.234316
O6	O	0.897082	-0.435270	0.567650
O7	O	0.098158	-1.248859	-0.099002
O8	O	0.431492	-0.915525	0.234331
O9	O	0.764825	-0.582192	0.567665
O10	O	0.374947	-1.257954	-0.099025
O11	O	0.708281	-0.924621	0.234308
O12	O	1.041614	-0.591288	0.567641
O13	O	0.109755	-1.235952	0.099047
O14	O	0.443088	-0.902619	0.432381
O15	O	0.776421	-0.569286	0.765714
O16	O	0.242012	-1.089030	0.099032
O17	O	0.575345	-0.755697	0.432366
O18	O	0.908678	-0.422363	0.765699
O19	O	0.254287	-1.391970	0.099039
O20	O	0.587620	-1.058637	0.432372
O21	O	0.920954	-0.725304	0.765706
Cu22	Cu	0.249208	-1.239322	0.117119
Cu23	Cu	0.582542	-0.905988	0.450453
Cu24	Cu	0.915875	-0.572655	0.783786
Cu25	Cu	0.235494	-1.254585	-0.117097
Cu26	Cu	0.568827	-0.921252	0.216236
Cu27	Cu	0.902161	-0.587918	0.549569
O28	O	0.386544	-1.245048	0.099024
O29	O	0.719877	-0.911715	0.432357
O30	O	1.053211	-0.578381	0.765691
C31	C	0.068282	-1.238424	0.000023
C32	C	0.401616	-0.905091	0.333356
C33	C	0.734949	-0.571758	0.666690
C34	C	-0.038016	-1.226550	0.000024
C35	C	0.295318	-0.893217	0.333358
C36	C	0.628651	-0.559883	0.666691
C37	C	0.232067	-1.056479	0.000007
C38	C	0.565400	-0.723146	0.333340
C39	C	0.898733	-0.389812	0.666674
C40	C	0.219699	-0.940259	0.000005
C41	C	0.553032	-0.606925	0.333338
C42	C	0.886366	-0.273592	0.666671
C43	C	0.252635	-1.437428	0.000012
C44	C	0.585969	-1.104094	0.333346
C45	C	0.919302	-0.770761	0.666679
C46	C	0.265002	-1.553649	0.000007
C47	C	0.598336	-1.220315	0.333340
C48	C	0.931669	-0.886982	0.666673
C49	C	-0.232639	-1.204843	0.000007
C50	C	0.100694	-0.871509	0.333340
C51	C	0.434028	-0.538176	0.666673
C52	C	-0.282665	-1.289060	0.000005
C53	C	0.050668	-0.955727	0.333338
C54	C	0.384001	-0.622393	0.666672
C55	C	-0.390961	-1.276982	-0.000005
C56	C	-0.057627	-0.943648	0.333328
C57	C	0.275706	-0.610315	0.666662
C58	C	-0.124334	-1.216919	0.000016
C59	C	0.208999	-0.883586	0.333350
C60	C	0.542333	-0.550253	0.666683
C61	C	0.416420	-1.255482	-0.000004
C62	C	0.749753	-0.922149	0.333330
C63	C	1.083086	-0.588816	0.666663
C64	C	0.522717	-1.267357	-0.000013
C65	C	0.856051	-0.934024	0.333321
C66	C	1.189384	-0.600690	0.666654
N67	N	0.258854	-1.228594	0.281854
N68	N	0.592188	-0.895261	0.615188
N69	N	0.925521	-0.561927	0.948521
C70	C	0.368378	-0.713048	0.000009
C71	C	0.701712	-0.379715	0.333343
C72	C	1.035045	-0.046381	0.666676
C73	C	0.356763	-0.603848	0.000008
C74	C	0.690096	-0.270515	0.333342
C75	C	1.023429	0.062818	0.666675
C76	C	0.184853	-0.612656	0.000010
C77	C	0.518186	-0.279323	0.333343
C78	C	0.851519	0.054010	0.666677
C79	C	0.196469	-0.721856	0.000011
C80	C	0.529802	-0.388523	0.333344
C81	C	0.863135	-0.055190	0.666678
C82	C	0.288234	-0.772048	0.000009
C83	C	0.621568	-0.438715	0.333342
C84	C	0.954901	-0.105382	0.666676
C85	C	0.299849	-0.881251	0.000002
C86	C	0.633182	-0.547917	0.333335
C87	C	0.966516	-0.214584	0.666668
C88	C	0.127940	-0.890056	0.000012
C89	C	0.461274	-0.556723	0.333345
C90	C	0.794607	-0.223390	0.666679
C91	C	0.116324	-0.780856	0.000011
C92	C	0.449658	-0.447523	0.333344
C93	C	0.782991	-0.114190	0.666677
N94	N	0.225841	-1.265320	-0.281832
N95	N	0.559174	-0.931987	0.051501
N96	N	0.892508	-0.598654	0.384834
C97	C	0.156351	-1.342540	0.531156
C98	C	0.489684	-1.009206	0.864489
C99	C	0.823017	-0.675873	1.197822
C100	C	0.163648	-1.334441	0.655818
C101	C	0.496981	-1.001107	0.989152
C102	C	0.830314	-0.667774	1.322485
C103	C	0.280740	-1.204292	0.655845
C104	C	0.614073	-0.870959	0.989179
C105	C	0.947406	-0.537625	1.322512
C106	C	0.273443	-1.212391	0.531182
C107	C	0.606776	-0.879058	0.864516
C108	C	0.940109	-0.545724	1.197849
C109	C	0.211247	-1.281518	0.468842
C110	C	0.544580	-0.948185	0.802175
C111	C	0.877914	-0.614852	1.135509
C112	C	0.203956	-1.289622	0.344177
C113	C	0.537289	-0.956289	0.677510
C114	C	0.870622	-0.622955	1.010843
C115	C	0.321042	-1.159469	0.344206
C116	C	0.654376	-0.826135	0.677539
C117	C	0.987709	-0.492802	1.010873
C118	C	0.328339	-1.151370	0.468869
C119	C	0.661673	-0.818036	0.802202
C120	C	0.995006	-0.484703	1.135535
H121	H	-0.244167	-1.370237	-0.000073
H122	H	0.089166	-1.036904	0.333260
H123	H	0.422499	-0.703571	0.666593
H124	H	-0.271140	-1.123677	0.000002
H125	H	0.062194	-0.790344	0.333335
H126	H	0.395527	-0.457011	0.666669
H127	H	0.153316	-1.345912	0.293420
H128	H	0.486649	-1.012578	0.626754
H129	H	0.819983	-0.679245	0.960087
H130	H	0.331371	-1.148003	0.706619
H131	H	0.664704	-0.814669	1.039952
H132	H	0.998037	-0.481336	1.373286
H133	H	0.378975	-1.095084	0.519641
H134	H	0.712308	-0.761751	0.852974
H135	H	1.045642	-0.428418	1.186307
H136	H	0.443098	-0.753915	0.000006
H137	H	0.776431	-0.420582	0.333339
H138	H	1.109764	-0.087249	0.666672
H139	H	0.374569	-0.922115	0.000002
H140	H	0.707903	-0.588782	0.333335
H141	H	1.041236	-0.255448	0.666668
H142	H	0.422025	-0.555814	0.000012
H143	H	0.755358	-0.222480	0.333345
H144	H	1.088692	0.110853	0.666678
H145	H	0.105716	-1.398833	0.480397
H146	H	0.439049	-1.065500	0.813730
H147	H	0.772382	-0.732167	1.147064
H148	H	0.110147	-0.571765	0.000110
H149	H	0.443480	-0.238431	0.333443
H150	H	0.776813	0.094902	0.666777
H151	H	0.365746	-1.109784	0.293456
H152	H	0.699079	-0.776451	0.626789
H153	H	1.032412	-0.443117	0.960123
H154	H	0.041612	-0.739974	0.000026
H155	H	0.374945	-0.406641	0.333359
H156	H	0.708279	-0.073308	0.666693
H157	H	0.062681	-0.938107	0.000004
H158	H	0.396014	-0.604773	0.333337
H159	H	0.729347	-0.271440	0.666670
H160	H	0.118944	-1.384129	0.706551
H161	H	0.452277	-1.050796	1.039884
H162	H	0.785611	-0.717462	1.373217
