data_functionalizedCrystal
_audit_creation_method	'MofGen! by Chris Wilmer'
_symmetry_space_group_name_H-M	'P1'
_symmetry_Int_Tables_number	1
_symmetry_cell_setting	triclinic
loop_
_symmetry_equiv_pos_as_xyz
  x,y,z
_cell_length_a	17.019311
_cell_length_b	17.019448
_cell_length_c	16.776229
_cell_angle_alpha	93.868189
_cell_angle_beta	86.113136
_cell_angle_gamma	83.663685
loop_
_atom_site_label
_atom_site_type_symbol
_atom_site_fract_x
_atom_site_fract_y
_atom_site_fract_z
O1	O	1.046578	0.100530	-0.131236
O2	O	0.816899	0.113337	-0.114594
O3	O	0.938138	-0.007902	-0.131222
O4	O	0.925338	0.221769	-0.114608
O5	O	0.938122	-0.007910	0.001356
O6	O	0.816883	0.113330	0.017983
O7	O	1.046562	0.100522	0.001341
Zn8	Zn	0.931720	0.106925	0.030712
Zn9	Zn	0.931741	0.106935	-0.143964
O10	O	0.925322	0.221762	0.017969
C11	C	0.787502	0.112847	-0.046321
C12	C	0.699933	0.111387	-0.040411
C13	C	0.204657	0.103155	-0.003358
C14	C	0.286937	0.104527	-0.008912
C15	C	0.328087	0.105211	-0.083960
C16	C	0.286951	0.104531	-0.153455
C17	C	0.204672	0.103165	-0.147899
C18	C	0.576518	0.109341	-0.104351
C19	C	0.658803	0.110705	-0.109902
C20	C	0.658783	0.110702	0.034642
C21	C	0.576503	0.109331	0.040191
C22	C	0.535374	0.108655	-0.029304
C23	C	0.412191	0.106610	-0.089640
C24	C	0.451271	0.107261	-0.023623
C25	C	0.937642	-0.037294	-0.066915
C26	C	0.936179	-0.124859	-0.072818
C27	C	0.927974	-0.620123	-0.109926
C28	C	0.929342	-0.537844	-0.104362
C29	C	0.930011	-0.496725	-0.029312
C30	C	0.929320	-0.537889	0.040179
C31	C	0.927958	-0.620167	0.034613
C32	C	0.934126	-0.248301	-0.008893
C33	C	0.935486	-0.166018	-0.003333
C34	C	0.935509	-0.165979	-0.147875
C35	C	0.934143	-0.248257	-0.153433
C36	C	0.933456	-0.289415	-0.083943
C37	C	0.931406	-0.412623	-0.023622
C38	C	0.932067	-0.373516	-0.089633
C39	C	1.075958	0.101013	-0.066933
C40	C	1.163527	0.102473	-0.072848
C41	C	0.925818	0.251153	-0.046340
C42	C	0.927282	0.338719	-0.040441
N43	N	0.931711	0.106918	0.149923
N44	N	0.931756	0.106936	-0.263176
C45	C	0.985412	0.053255	0.184278
C46	C	0.985416	0.053254	0.267730
C47	C	0.931723	0.106921	0.316825
C48	C	0.878016	0.160586	0.282466
C49	C	0.878008	0.160583	0.199015
C50	C	0.878044	0.160602	0.619012
C51	C	0.878058	0.160603	0.702468
C52	C	0.985452	0.053273	0.687726
C53	C	0.985445	0.053270	0.604276
C54	C	0.931736	0.106932	0.569923
C55	C	0.931731	0.106931	0.479435
C56	C	0.931731	0.106926	0.407312
H57	H	0.692304	0.111268	-0.171017
H58	H	0.834294	0.204280	0.322444
O59	O	0.929987	-0.498073	0.113145
C60	C	0.929056	-0.552043	0.173283
H61	H	0.953068	-0.613973	0.146198
H62	H	0.967701	-0.533320	0.222478
H63	H	0.865648	-0.552477	0.199804
H64	H	0.936069	-0.132459	-0.204449
O65	O	0.927174	-0.660222	0.102064
C66	C	0.858091	-0.698803	0.108480
H67	H	0.835133	-0.708112	0.046666
H68	H	0.872486	-0.758694	0.133962
H69	H	0.810793	-0.660805	0.149999
H70	H	0.931526	-0.407000	-0.150739
H71	H	0.931948	-0.379134	0.037484
H72	H	1.029139	0.009556	0.144309
O73	O	0.326870	0.105339	-0.226363
C74	C	0.297755	0.173281	-0.263685
H75	H	0.268840	0.220629	-0.216171
H76	H	0.348849	0.197101	-0.298341
H77	H	0.252037	0.157052	-0.306721
O78	O	1.037667	0.001105	0.300971
C79	C	1.085050	-0.046269	0.239743
H80	H	1.085888	-0.013930	0.182409
H81	H	1.148062	-0.058318	0.258687
H82	H	1.059517	-0.104863	0.228622
O83	O	0.825916	0.212663	0.585518
C84	C	0.837432	0.201174	0.501335
H85	H	0.866969	0.138440	0.483606
H86	H	0.777684	0.209995	0.474337
H87	H	0.876953	0.245794	0.477988
O88	O	0.536639	0.108564	0.113132
C89	C	0.565735	0.040603	0.150435
H90	H	0.628477	0.018833	0.124079
H91	H	0.566527	0.056005	0.217549
H92	H	0.525732	-0.007981	0.139841
H93	H	0.543041	0.108788	-0.160939
O94	O	0.825815	0.212789	0.165771
C95	C	0.778412	0.260146	0.226997
H96	H	0.810757	0.261025	0.284316
H97	H	0.766304	0.323147	0.208026
H98	H	0.719846	0.234561	0.238157
O99	O	1.037632	0.001061	0.556702
C100	C	1.085045	-0.046293	0.604920
H101	H	1.052713	-0.047164	0.666574
H102	H	1.097144	-0.109296	0.575665
H103	H	1.143615	-0.020711	0.611509
O104	O	0.326773	0.105151	0.058668
C105	C	0.272808	0.104270	0.126098
H106	H	0.217451	0.078332	0.106935
H107	H	0.301623	0.066387	0.172071
H108	H	0.255713	0.167376	0.153814
H109	H	1.029183	0.009576	0.715705
O110	O	0.825815	0.212763	0.750045
C111	C	0.778419	0.260138	0.701831
H112	H	0.777558	0.227797	0.640191
H113	H	0.715415	0.272195	0.731111
H114	H	0.803956	0.318728	0.695204
H115	H	0.171185	0.102612	-0.204486
H116	H	0.692279	0.111254	0.091221
O117	O	0.164671	0.102348	0.069515
C118	C	0.126063	0.033284	0.071758
H119	H	0.157153	-0.014031	0.025373
H120	H	0.128147	0.010349	0.133964
H121	H	0.061671	0.047686	0.057751
H122	H	0.417762	0.106709	0.037480
O123	O	0.452242	0.107376	-0.162485
C124	C	0.490817	0.176460	-0.164734
H125	H	0.500123	0.199434	-0.101052
H126	H	0.550710	0.162064	-0.200406
H127	H	0.452813	0.223745	-0.194561
O128	O	0.927344	-0.659943	-0.182896
C129	C	0.928221	-0.605965	-0.243029
H130	H	0.954166	-0.550616	-0.219819
H131	H	0.966098	-0.634768	-0.298162
H132	H	0.865112	-0.588861	-0.259730
H133	H	0.933604	-0.281732	-0.214547
O134	O	0.929802	-0.497801	-0.171821
C135	C	0.862239	-0.441287	-0.167568
H136	H	0.839769	-0.425942	-0.102199
H137	H	0.878446	-0.385450	-0.195525
H138	H	0.813869	-0.466770	-0.201542
H139	H	0.933568	-0.281802	0.047690
O140	O	0.936145	-0.126196	0.069637
C141	C	0.935214	-0.180160	0.129781
H142	H	0.959236	-0.242091	0.102704
H143	H	0.973850	-0.161427	0.178979
H144	H	0.871804	-0.180601	0.156295
