data_functionalizedCrystal
_audit_creation_method	'MofGen! by Chris Wilmer'
_symmetry_space_group_name_H-M	'P1'
_symmetry_Int_Tables_number	1
_symmetry_cell_setting	triclinic
loop_
_symmetry_equiv_pos_as_xyz
  x,y,z
_cell_length_a	13.635800
_cell_length_b	19.452420
_cell_length_c	19.263509
_cell_angle_alpha	97.050180
_cell_angle_beta	81.428207
_cell_angle_gamma	78.303285
loop_
_atom_site_label
_atom_site_type_symbol
_atom_site_fract_x
_atom_site_fract_y
_atom_site_fract_z
V1	V	1.981659	-0.097936	-0.219348
O2	O	1.980594	0.003933	-0.214819
O3	O	1.953236	-0.193446	-0.218188
O4	O	1.945631	-0.096769	-0.314858
O5	O	1.988251	-0.093414	-0.117479
V6	V	2.225553	-0.085711	-0.207122
O7	O	2.107611	-0.124752	-0.246166
O8	O	2.324700	-0.058895	-0.180304
O9	O	2.142373	0.009799	-0.208282
O10	O	2.285318	-0.187580	-0.211651
O11	O	2.277660	-0.090233	-0.308991
O12	O	2.149978	-0.086878	-0.111612
V13	V	2.481659	-0.097936	-0.219348
O14	O	2.480594	0.003933	-0.214819
O15	O	2.453236	-0.193446	-0.218188
O16	O	2.445631	-0.096769	-0.314858
O17	O	2.488251	-0.093414	-0.117479
V18	V	2.725553	-0.085711	-0.207122
O19	O	2.607611	-0.124752	-0.246166
O20	O	2.824700	-0.058895	-0.180304
O21	O	2.642373	0.009799	-0.208282
O22	O	2.785318	-0.187580	-0.211651
O23	O	2.777660	-0.090233	-0.308991
O24	O	2.649978	-0.086878	-0.111612
C25	C	1.875092	-0.216719	-0.214815
C26	C	1.892417	-0.294802	-0.214503
C27	C	1.888906	-0.321210	-0.149988
C28	C	1.905223	-0.394576	-0.149674
C29	C	1.925031	-0.441530	-0.213877
C30	C	1.928547	-0.415116	-0.278401
C31	C	1.912240	-0.341751	-0.278714
N32	N	1.902830	-0.562134	-0.259094
N33	N	1.918319	-0.631826	-0.258792
C34	C	1.974167	-0.662573	-0.212938
N35	N	2.013927	-0.620993	-0.167385
N36	N	1.998433	-0.551294	-0.167685
C37	C	1.942716	-0.521083	-0.213545
C38	C	1.988349	-0.768531	-0.148077
C39	C	2.004673	-0.841899	-0.147765
C40	C	2.027987	-0.862437	-0.276494
C41	C	2.011673	-0.789071	-0.276804
C42	C	1.991850	-0.742122	-0.212594
C43	C	1.865391	-0.093396	-0.338127
C44	C	1.876547	-0.093074	-0.416209
C45	C	2.052189	0.033069	-0.211653
C46	C	2.024482	0.111151	-0.211970
C47	C	2.061890	-0.090253	-0.088340
C48	C	2.040353	-0.090571	-0.010257
C49	C	2.375092	-0.216719	-0.214815
C50	C	2.392417	-0.294802	-0.214503
C51	C	1.943338	-0.094247	0.022834
C52	C	1.923103	-0.094551	0.096201
C53	C	1.999895	-0.091193	0.136471
C54	C	2.096922	-0.087513	0.103372
C55	C	2.117152	-0.087202	0.030008
N56	N	2.048829	-0.129254	0.247917
N57	N	2.029607	-0.129551	0.317609
C58	C	1.938950	-0.092129	0.357513
N59	N	1.868230	-0.054408	0.325090
N60	N	1.887452	-0.054114	0.255391
C61	C	1.977969	-0.091530	0.216023
C62	C	1.819987	-0.096133	0.470157
C63	C	1.799754	-0.096433	0.543526
C64	C	1.973579	-0.089402	0.550694
C65	C	1.993807	-0.089096	0.477328
C66	C	1.917008	-0.092465	0.437063
C67	C	2.365391	-0.093396	-0.338127
C68	C	2.376547	-0.093074	-0.416209
C69	C	2.552189	0.033069	-0.211653
C70	C	2.524482	0.111151	-0.211970
C71	C	2.561890	-0.090253	-0.088340
C72	C	2.540353	-0.090571	-0.010257
C73	C	2.491018	-0.335065	-0.217879
C74	C	2.507313	-0.408434	-0.217597
C75	C	2.425004	-0.441540	-0.213934
C76	C	2.326395	-0.401272	-0.210560
C77	C	2.310103	-0.327905	-0.210847
C78	C	2.472245	-0.096437	-0.456470
C79	C	2.482739	-0.096125	-0.529835
C80	C	2.397537	-0.092455	-0.562939
C81	C	2.301831	-0.089090	-0.522673
C82	C	2.291337	-0.089397	-0.449308
C83	C	2.598374	0.151413	-0.208596
C84	C	2.572351	0.224782	-0.208881
C85	C	2.472436	0.257887	-0.212546
C86	C	2.398539	0.217620	-0.215918
C87	C	2.424561	0.144253	-0.215627
C88	C	2.443323	-0.094233	0.022829
C89	C	2.423070	-0.094525	0.096197
C90	C	2.499849	-0.091159	0.136477
C91	C	2.596886	-0.087494	0.103387
C92	C	2.617136	-0.087198	0.030021
H93	H	1.872772	-0.282988	-0.097703
H94	H	2.659393	-0.084752	0.136194
Cl95	Cl	2.631284	-0.459041	-0.221834
Cl96	Cl	2.439739	0.350122	-0.212911
H97	H	1.915103	-0.320252	-0.331252
Cl98	Cl	2.739131	-0.082605	-0.011566
Cl99	Cl	2.052899	-0.921460	-0.357209
H100	H	1.902362	-0.416081	-0.097136
H101	H	2.541632	-0.099428	-0.429527
H102	H	2.014525	-0.767571	-0.329339
Cl103	Cl	2.222931	-0.442900	-0.205951
Cl104	Cl	2.070116	-0.085169	0.601315
Cl105	Cl	2.186135	-0.277297	-0.206596
Cl106	Cl	1.953455	-0.474144	-0.359114
Cl107	Cl	2.594511	-0.293464	-0.222491
Cl108	Cl	2.723988	0.109812	-0.203988
H109	H	2.438285	-0.501281	-0.213700
Cl110	Cl	1.677780	-0.101054	0.585127
Cl111	Cl	2.665265	0.275388	-0.204644
H112	H	2.001820	-0.863397	-0.095228
Cl113	Cl	2.346782	-0.098464	-0.027793
H114	H	2.560675	-0.098869	-0.562611
Cl115	Cl	1.846788	-0.098478	-0.027780
Cl116	Cl	2.410749	-0.092073	-0.655172
H117	H	2.232464	-0.086102	-0.549637
H118	H	2.072808	-0.086106	0.450385
H119	H	2.213408	-0.086659	-0.416533
Cl120	Cl	1.963436	-0.709507	-0.067357
Cl121	Cl	2.272934	0.259250	-0.220521
H122	H	2.364385	0.111476	-0.218381
Cl123	Cl	2.474376	-0.091535	0.228709
Cl124	Cl	1.801127	-0.099167	0.137812
Cl125	Cl	2.239126	-0.082586	-0.011595
Cl126	Cl	2.193460	-0.083290	0.153997
H127	H	1.757451	-0.098871	0.437372
Cl128	Cl	2.301078	-0.099138	0.137780
