data_functionalizedCrystal
_audit_creation_method	'MofGen! by Chris Wilmer'
_symmetry_space_group_name_H-M	'P1'
_symmetry_Int_Tables_number	1
_symmetry_cell_setting	triclinic
loop_
_symmetry_equiv_pos_as_xyz
  x,y,z
_cell_length_a	14.908742
_cell_length_b	13.897447
_cell_length_c	13.897441
_cell_angle_alpha	89.970673
_cell_angle_beta	93.280977
_cell_angle_gamma	86.726005
loop_
_atom_site_label
_atom_site_type_symbol
_atom_site_fract_x
_atom_site_fract_y
_atom_site_fract_z
Zn1	Zn	1.379176	-0.469028	-0.460135
Zn2	Zn	1.879176	0.030972	0.039865
Zn3	Zn	1.379072	-0.630343	-0.298846
Zn4	Zn	1.879072	-0.130343	0.201154
Zn5	Zn	1.228313	-0.459768	-0.308179
Zn6	Zn	1.728313	0.040232	0.191821
Zn7	Zn	1.228291	-0.620979	-0.469419
Zn8	Zn	1.728291	-0.120979	0.030581
O9	O	1.303713	-0.545030	-0.384145
O10	O	1.803713	-0.045030	0.115855
O11	O	1.505402	-0.498222	-0.430948
O12	O	2.005402	0.001778	0.069052
O13	O	1.359040	-0.607760	-0.165105
O14	O	1.859040	-0.107760	0.334895
O15	O	1.248378	-0.326018	-0.328356
O16	O	1.748378	0.173982	0.171644
O17	O	1.505325	-0.616739	-0.312450
O18	O	2.005325	-0.116739	0.187550
O19	O	1.359217	-0.332821	-0.439998
O20	O	1.859217	0.167179	0.060002
O21	O	1.248278	-0.482439	-0.171961
O22	O	1.748278	0.017561	0.328039
O23	O	1.102071	-0.473358	-0.337359
O24	O	1.602071	0.026642	0.162641
O25	O	1.248341	-0.600779	-0.603167
O26	O	1.748341	-0.100779	-0.103167
O27	O	1.102055	-0.591799	-0.455822
O28	O	1.602055	-0.091799	0.044178
O29	O	1.359195	-0.489141	-0.596346
O30	O	1.859195	0.010859	-0.096346
O31	O	1.359018	-0.764080	-0.321453
O32	O	1.859018	-0.264080	0.178547
O33	O	1.248240	-0.757199	-0.446772
O34	O	1.748240	-0.257199	0.053228
C35	C	1.069331	-0.530558	-0.398611
C36	C	1.569331	-0.030558	0.101389
C37	C	0.969061	-0.524391	-0.404823
C38	C	1.469061	-0.024391	0.095177
C39	C	0.827771	-0.454101	-0.475363
C40	C	1.327771	0.045899	0.024637
C41	C	0.921984	-0.459888	-0.469531
C42	C	1.421984	0.040112	0.030469
C43	C	0.921920	-0.583113	-0.345944
C44	C	1.421920	-0.083113	0.154056
C45	C	0.827707	-0.577327	-0.351776
C46	C	1.327707	-0.077327	0.148224
C47	C	0.780636	-0.512817	-0.416486
C48	C	1.280636	-0.012817	0.083514
C49	C	0.686422	-0.507027	-0.422312
C50	C	1.186422	-0.007027	0.077688
C51	C	0.686360	-0.630256	-0.298731
C52	C	1.186360	-0.130256	0.201269
C53	C	0.780572	-0.636043	-0.292900
C54	C	1.280572	-0.136043	0.207100
C55	C	1.303640	-0.795639	-0.384127
C56	C	1.803640	-0.295639	0.115873
C57	C	1.303691	-0.902856	-0.384147
C58	C	1.803691	-0.402856	0.115853
C59	C	1.303735	-0.989929	-0.384166
C60	C	1.803735	-0.489929	0.115834
C61	C	1.303798	-1.099165	-0.384187
C62	C	1.803798	-0.599165	0.115813
C63	C	1.539011	-0.559558	-0.369622
C64	C	2.039011	-0.059558	0.130378
C65	C	1.639281	-0.565749	-0.363434
C66	C	2.139281	-0.065749	0.136566
C67	C	1.303777	-0.544948	-0.635734
C68	C	1.803777	-0.044948	-0.135734
C69	C	1.303805	-0.544914	-0.742946
C70	C	1.803805	-0.044914	-0.242946
C71	C	1.303812	-0.293443	-0.384182
C72	C	1.803812	0.206557	0.115818
C73	C	1.303853	-0.186231	-0.384198
C74	C	1.803853	0.313769	0.115802
C75	C	1.303829	-0.544850	-0.939240
C76	C	1.803829	-0.044850	-0.439240
C77	C	1.303813	-0.544888	-0.830009
C78	C	1.803813	-0.044888	-0.330009
C79	C	1.303702	-0.545044	-0.133531
C80	C	1.803702	-0.045044	0.366469
C81	C	1.303849	-0.544818	-0.026309
C82	C	1.803849	-0.044818	0.473691
H83	H	0.960261	-0.635636	-0.293263
H84	H	1.460261	-0.135636	0.206737
H85	H	0.648099	-0.454496	-0.474999
H86	H	1.148099	0.045504	0.025001
C87	C	0.775987	-0.383142	-0.546531
C88	C	1.275987	0.116858	-0.046531
H89	H	0.713126	-0.388101	-0.541566
H90	H	1.213126	0.111899	-0.041566
H91	H	0.791450	-0.398277	-0.610361
H92	H	1.291450	0.101723	-0.110361
H93	H	0.791428	-0.319262	-0.531556
H94	H	1.291428	0.180738	-0.031556
H95	H	0.818910	-0.688566	-0.240217
H96	H	1.318910	-0.188566	0.259783
H97	H	0.960358	-0.412075	-0.517474
H98	H	1.460358	0.087925	-0.017474
C99	C	0.634510	-0.694853	-0.233972
C100	C	1.134510	-0.194853	0.266028
H101	H	0.571658	-0.682175	-0.246715
H102	H	1.071658	-0.182175	0.253285
H103	H	0.649925	-0.681612	-0.168231
H104	H	1.149925	-0.181612	0.331769
H105	H	0.649949	-0.760631	-0.247033
H106	H	1.149949	-0.260631	0.252967
