data_functionalizedCrystal
_audit_creation_method	'MofGen! by Chris Wilmer'
_symmetry_space_group_name_H-M	'P1'
_symmetry_Int_Tables_number	1
_symmetry_cell_setting	triclinic
loop_
_symmetry_equiv_pos_as_xyz
  x,y,z
_cell_length_a	17.639617
_cell_length_b	17.077402
_cell_length_c	17.077396
_cell_angle_alpha	90.029784
_cell_angle_beta	101.241102
_cell_angle_gamma	101.207680
loop_
_atom_site_label
_atom_site_type_symbol
_atom_site_fract_x
_atom_site_fract_y
_atom_site_fract_z
Zn1	Zn	1.208523	-0.070232	0.686896
Zn2	Zn	1.541856	0.263101	1.020230
Zn3	Zn	1.875190	0.596434	1.353563
Zn4	Zn	1.208430	-0.201526	0.555608
Zn5	Zn	1.541763	0.131807	0.888942
Zn6	Zn	1.875096	0.465141	1.222275
Zn7	Zn	1.076329	-0.096761	0.529057
Zn8	Zn	1.409662	0.236573	0.862390
Zn9	Zn	1.742995	0.569906	1.195724
Zn10	Zn	1.076296	-0.227968	0.660257
Zn11	Zn	1.409630	0.105365	0.993590
Zn12	Zn	1.742963	0.438699	1.326924
O13	O	1.142394	-0.149122	0.607955
O14	O	1.475728	0.184212	0.941288
O15	O	1.809061	0.517545	1.274621
O16	O	1.319133	-0.065480	0.691741
O17	O	1.652466	0.267853	1.025074
O18	O	1.985799	0.601186	1.358408
O19	O	1.190880	-0.187665	0.442234
O20	O	1.524214	0.145669	0.775567
O21	O	1.857547	0.479002	1.108901
O22	O	1.093917	0.016616	0.550031
O23	O	1.427250	0.349949	0.883365
O24	O	1.760584	0.683282	1.216698
O25	O	1.319064	-0.161941	0.595284
O26	O	1.652397	0.171392	0.928618
O27	O	1.985731	0.504725	1.261951
O28	O	1.191040	0.036106	0.665995
O29	O	1.524373	0.369439	0.999328
O30	O	1.857707	0.702773	1.332662
O31	O	1.093826	-0.110694	0.422727
O32	O	1.427160	0.222639	0.756060
O33	O	1.760493	0.555972	1.089394
O34	O	0.965702	-0.136334	0.524200
O35	O	1.299036	0.196999	0.857534
O36	O	1.632369	0.530333	1.190867
O37	O	1.093862	-0.207008	0.773643
O38	O	1.427196	0.126326	1.106976
O39	O	1.760529	0.459659	1.440310
O40	O	0.965679	-0.232731	0.620593
O41	O	1.299012	0.100602	0.953926
O42	O	1.632345	0.433935	1.287259
O43	O	1.191009	-0.091120	0.793215
O44	O	1.524342	0.242213	1.126548
O45	O	1.857675	0.575547	1.459881
O46	O	1.190849	-0.314891	0.569454
O47	O	1.524183	0.018442	0.902787
O48	O	1.857516	0.351776	1.236120
O49	O	1.093771	-0.334318	0.646339
O50	O	1.427105	-0.000984	0.979672
O51	O	1.760438	0.332349	1.313005
C52	C	1.142318	-0.353085	0.607908
C53	C	1.475651	-0.019752	0.941241
C54	C	1.808985	0.313582	1.274575
C55	C	1.142358	-0.440327	0.607929
C56	C	1.475691	-0.106993	0.941262
C57	C	1.809024	0.226340	1.274595
C58	C	0.937007	-0.190281	0.566625
C59	C	1.270341	0.143052	0.899958
C60	C	1.603674	0.476385	1.233292
C61	C	0.849142	-0.207908	0.548963
C62	C	1.182475	0.125425	0.882296
C63	C	1.515809	0.458758	1.215629
C64	C	1.192958	-0.471165	0.567959
C65	C	1.526291	-0.137832	0.901292
C66	C	1.859624	0.195502	1.234626
C67	C	1.192996	-0.553138	0.567987
C68	C	1.526330	-0.219804	0.901320
C69	C	1.859663	0.113529	1.234654
C70	C	1.142431	-0.604272	0.607980
C71	C	1.475764	-0.270938	0.941313
C72	C	1.809097	0.062395	1.274647
C73	C	1.091828	-0.573428	0.647955
C74	C	1.425162	-0.240095	0.981288
C75	C	1.758495	0.093239	1.314622
C76	C	1.091794	-0.491456	0.647931
C77	C	1.425128	-0.158123	0.981265
C78	C	1.758461	0.175211	1.314598
C79	C	1.091902	-0.744283	0.647999
C80	C	1.425235	-0.410950	0.981333
C81	C	1.758568	-0.077617	1.314666
C82	C	1.091934	-0.826261	0.648022
C83	C	1.425268	-0.492928	0.981355
C84	C	1.758601	-0.159595	1.314689
C85	C	1.193104	-0.805965	0.568055
C86	C	1.526437	-0.472632	0.901388
C87	C	1.859770	-0.139298	1.234722
C88	C	1.193070	-0.723993	0.568031
C89	C	1.526403	-0.390660	0.901365
C90	C	1.859736	-0.057326	1.234698
C91	C	1.142466	-0.693155	0.608005
C92	C	1.475800	-0.359822	0.941338
C93	C	1.809133	-0.026489	1.274672
C94	C	0.560314	-0.015194	0.742328
C95	C	0.893647	0.318140	1.075661
C96	C	1.226980	0.651473	1.408995
C97	C	0.477751	-0.031777	0.725715
C98	C	0.811084	0.301557	1.059049
C99	C	1.144417	0.634890	1.392382
C100	C	0.477701	-0.132055	0.625131
C101	C	0.811034	0.201278	0.958464
C102	C	1.144368	0.534612	1.291797
C103	C	0.560266	-0.115483	0.641737
C104	C	0.893599	0.217850	0.975071
C105	C	1.226932	0.551184	1.308404
C106	C	0.601565	-0.057051	0.700336
C107	C	0.934899	0.276282	1.033669
C108	C	1.268232	0.609616	1.367003
C109	C	0.601517	-0.157340	0.599745
C110	C	0.934851	0.175993	0.933079
C111	C	1.268184	0.509326	1.266412
C112	C	0.684075	-0.140766	0.616348
C113	C	1.017408	0.192567	0.949681
C114	C	1.350742	0.525900	1.283015
C115	C	0.725381	-0.082336	0.674943
C116	C	1.058714	0.250998	1.008276
C117	C	1.392047	0.584331	1.341609
C118	C	0.684123	-0.040477	0.716939
C119	C	1.017456	0.292856	1.050272
C120	C	1.350790	0.626189	1.383605
C121	C	0.560216	-0.215768	0.541143
C122	C	0.893549	0.117565	0.874476
C123	C	1.226883	0.450899	1.207810
C124	C	0.601468	-0.257625	0.499151
C125	C	0.934801	0.075708	0.832485
C126	C	1.268135	0.409041	1.165818
C127	C	0.684027	-0.241056	0.515758
C128	C	1.017360	0.092278	0.849091
C129	C	1.350694	0.425611	1.182424
C130	C	0.725333	-0.182625	0.574352
C131	C	1.058666	0.150709	0.907685
C132	C	1.391999	0.484042	1.241019
C133	C	0.725285	-0.282914	0.473761
C134	C	1.058618	0.050419	0.807095
C135	C	1.391951	0.383753	1.140428
C136	C	0.807842	-0.266340	0.490364
C137	C	1.141175	0.066993	0.823697
C138	C	1.474509	0.400326	1.157031
C139	C	0.807890	-0.166051	0.590955
C140	C	1.141223	0.167282	0.924288
C141	C	1.474557	0.500616	1.257621
C142	C	1.348583	-0.107802	0.649446
C143	C	1.681917	0.225531	0.982779
C144	C	2.015250	0.558865	1.316113
C145	C	1.436449	-0.090194	0.667127
C146	C	1.769782	0.243139	1.000460
C147	C	2.103116	0.576473	1.333794
C148	C	1.142442	-0.149054	0.812709
C149	C	1.475776	0.184279	1.146042
C150	C	1.809109	0.517612	1.479375
C151	C	1.142463	-0.149026	0.899963
C152	C	1.475796	0.184308	1.233296
C153	C	1.809129	0.517641	1.566629
C154	C	1.142493	0.055642	0.608023
C155	C	1.475826	0.388976	0.941356
C156	C	1.809159	0.722309	1.274690
C157	C	1.142534	0.142900	0.608052
C158	C	1.475868	0.476234	0.941385
C159	C	1.809201	0.809567	1.274719
C160	C	1.142392	-0.149123	0.404006
C161	C	1.475726	0.184210	0.737340
C162	C	1.809059	0.517544	1.070673
C163	C	1.142525	-0.148900	0.316784
C164	C	1.475858	0.184433	0.650117
C165	C	1.809192	0.517767	0.983450
C166	C	1.193049	-0.088678	0.951145
C167	C	1.526382	0.244655	1.284479
C168	C	1.859715	0.577988	1.617812
C169	C	1.193058	-0.088650	1.033128
C170	C	1.526391	0.244683	1.366461
C171	C	1.859725	0.578016	1.699794
C172	C	1.142485	-0.148973	1.063927
C173	C	1.475818	0.184360	1.397260
C174	C	1.809152	0.517693	1.730593
C175	C	1.091894	-0.209324	1.012737
C176	C	1.425227	0.124009	1.346070
C177	C	1.758560	0.457343	1.679404
C178	C	1.091881	-0.209348	0.930755
C179	C	1.425214	0.123985	1.264089
C180	C	1.758547	0.457319	1.597422
C181	C	1.091925	-0.209270	1.183614
C182	C	1.425259	0.124063	1.516947
C183	C	1.758592	0.457396	1.850280
C184	C	1.091939	-0.209247	1.265601
C185	C	1.425272	0.124086	1.598934
C186	C	1.758606	0.457419	1.932268
C187	C	1.193103	-0.088573	1.285986
C188	C	1.526436	0.244761	1.619319
C189	C	1.859770	0.578094	1.952653
C190	C	1.193090	-0.088597	1.204004
C191	C	1.526423	0.244737	1.537338
C192	C	1.859757	0.578070	1.870671
C193	C	1.142499	-0.148948	1.152820
C194	C	1.475833	0.184385	1.486154
C195	C	1.809166	0.517718	1.819487
H196	H	1.234131	-0.429537	0.535388
H197	H	1.567464	-0.096203	0.868721
H198	H	1.900798	0.237130	1.202055
H199	H	0.691646	-0.330484	0.426045
H200	H	1.024979	0.002850	0.759378
H201	H	1.358312	0.336183	1.092712
Br202	Br	1.261750	-0.006776	1.102595
Br203	Br	1.595084	0.326557	1.435929
Br204	Br	1.928417	0.659891	1.769262
H205	H	1.050713	-0.258438	1.037819
H206	H	1.384046	0.074896	1.371153
H207	H	1.717380	0.408229	1.704486
H208	H	1.050756	-0.258366	1.290674
H209	H	1.384090	0.074967	1.624007
H210	H	1.717423	0.408300	1.957341
H211	H	1.050680	-0.258483	0.889081
H212	H	1.384014	0.074851	1.222414
H213	H	1.717347	0.408184	1.555747
H214	H	0.444166	0.002317	0.759911
H215	H	0.777500	0.335650	1.093244
H216	H	1.110833	0.668984	1.426577
Br217	Br	1.023297	-0.895660	0.702285
Br218	Br	1.356630	-0.562327	1.035618
Br219	Br	1.689964	-0.228993	1.368951
Br220	Br	0.863948	-0.086758	0.670491
Br221	Br	1.197281	0.246575	1.003825
Br222	Br	1.530614	0.579908	1.337158
H223	H	1.234240	-0.682360	0.535461
H224	H	1.567573	-0.349027	0.868795
H225	H	1.900907	-0.015693	1.202128
H226	H	0.444063	-0.179628	0.577417
H227	H	0.777397	0.153706	0.910750
H228	H	1.110730	0.487039	1.244084
Br229	Br	0.740181	0.038816	0.796476
Br230	Br	1.073514	0.372149	1.129809
Br231	Br	1.406847	0.705482	1.463142
H232	H	0.492992	-0.229243	0.527610
H233	H	0.826326	0.104091	0.860943
H234	H	1.159659	0.437424	1.194277
Br235	Br	1.023228	-0.702432	0.702254
Br236	Br	1.356561	-0.369099	1.035587
Br237	Br	1.689895	-0.035765	1.368920
H238	H	1.234199	-0.578242	0.535439
H239	H	1.567533	-0.244908	0.868772
H240	H	1.900866	0.088425	1.202105
Br241	Br	0.545411	-0.336919	0.419623
Br242	Br	0.878745	-0.003586	0.752956
Br243	Br	1.212078	0.329748	1.086290
Br244	Br	0.616371	0.064099	0.821865
Br245	Br	0.949705	0.397432	1.155198
Br246	Br	1.283038	0.730766	1.488531
H247	H	1.050660	-0.615067	0.680522
H248	H	1.383993	-0.281734	1.013855
H249	H	1.717327	0.051599	1.347189
H250	H	1.050717	-0.258405	1.141939
H251	H	1.384050	0.074928	1.475272
H252	H	1.717383	0.408261	1.808605
Br253	Br	1.023125	-0.449602	0.702184
Br254	Br	1.356459	-0.116269	1.035518
Br255	Br	1.689792	0.217064	1.368851
H256	H	0.841430	-0.300425	0.456170
H257	H	1.174763	0.032909	0.789503
H258	H	1.508097	0.366242	1.122837
H259	H	1.234234	-0.039558	0.926076
H260	H	1.567567	0.293775	1.259410
H261	H	1.900900	0.627109	1.592743
Br262	Br	1.261769	-0.847817	0.513792
Br263	Br	1.595103	-0.514483	0.847125
Br264	Br	1.928436	-0.181150	1.180459
H265	H	1.234275	-0.039480	1.178932
H266	H	1.567609	0.293853	1.512265
H267	H	1.900942	0.627187	1.845599
H268	H	0.792604	-0.068840	0.688457
H269	H	1.125937	0.264494	1.021790
H270	H	1.459271	0.597827	1.355123
Br271	Br	1.261765	-0.006669	1.355449
Br272	Br	1.595099	0.326664	1.688782
Br273	Br	1.928432	0.659998	2.022116
