data_functionalizedCrystal
_audit_creation_method	'MofGen! by Chris Wilmer'
_symmetry_space_group_name_H-M	'P1'
_symmetry_Int_Tables_number	1
_symmetry_cell_setting	triclinic
loop_
_symmetry_equiv_pos_as_xyz
  x,y,z
_cell_length_a	11.792241
_cell_length_b	16.974829
_cell_length_c	15.455313
_cell_angle_alpha	83.671566
_cell_angle_beta	87.311612
_cell_angle_gamma	96.204706
loop_
_atom_site_label
_atom_site_type_symbol
_atom_site_fract_x
_atom_site_fract_y
_atom_site_fract_z
O1	O	-0.134618	1.056752	-0.146300
O2	O	-0.154151	0.825851	-0.130092
O3	O	0.020871	0.946905	-0.138595
O4	O	-0.309640	0.935698	-0.137798
O5	O	0.010904	0.939982	0.006154
O6	O	-0.164118	0.818928	0.014656
O7	O	-0.144586	1.049829	-0.001552
Cu8	Cu	-0.155262	0.933747	0.019769
Cu9	Cu	-0.143474	0.941934	-0.151413
O10	O	-0.319608	0.928775	0.006951
C11	C	-0.158575	0.792829	-0.055643
C12	C	-0.156896	0.704748	-0.049461
C13	C	-0.148063	0.208538	-0.006193
C14	C	-0.149641	0.291299	-0.012003
C15	C	-0.144988	0.336454	-0.093812
C16	C	-0.138768	0.298843	-0.169815
C17	C	-0.137198	0.216083	-0.164004
C18	C	-0.149106	0.584376	-0.119653
C19	C	-0.150673	0.667143	-0.125459
C20	C	-0.161548	0.659593	0.032354
C21	C	-0.159971	0.576832	0.038158
C22	C	-0.153757	0.539227	-0.037845
N23	N	-0.146597	0.421050	-0.099753
N24	N	-0.152156	0.454632	-0.031903
C25	C	-0.356904	0.932940	-0.065472
C26	C	-0.482886	0.935047	-0.065616
C27	C	-0.713538	0.938923	-0.065910
C28	C	-0.585187	0.936769	-0.065746
C29	C	0.058168	0.942740	-0.066174
C30	C	0.184151	0.940633	-0.066036
C31	C	-0.140161	1.082851	-0.076002
C32	C	-0.141840	1.170932	-0.082190
N33	N	-0.163552	0.927994	0.140168
N34	N	-0.135175	0.947692	-0.271813
C35	C	-0.089224	0.979441	0.181949
C36	C	-0.095504	0.975098	0.273062
C37	C	-0.176118	0.919312	0.322392
C38	C	-0.250450	0.867860	0.280606
C39	C	-0.244164	0.872200	0.189495
C40	C	-0.203221	0.900580	0.595289
C41	C	-0.209504	0.896246	0.686406
C42	C	-0.054555	1.003483	0.678857
C43	C	-0.048281	1.007821	0.587744
C44	C	-0.122608	0.956367	0.545965
N45	N	-0.182542	0.914873	0.415524
N46	N	-0.116179	0.960802	0.452835
H47	H	-0.144043	0.553769	-0.181541
H48	H	-0.163735	0.540074	0.104776
N49	N	-0.156341	0.331850	0.069973
H50	H	-0.086885	0.372146	0.070648
H51	H	-0.227630	0.359845	0.071472
N52	N	-0.296457	0.836066	0.739604
H53	H	-0.255887	0.798960	0.779900
H54	H	-0.349134	0.864853	0.775195
H55	H	-0.166609	0.690220	0.094231
N56	N	-0.283379	0.845081	0.550235
H57	H	-0.335400	0.809085	0.595313
H58	H	-0.330782	0.877459	0.510270
H59	H	-0.146893	0.703906	-0.192081
N60	N	-0.133755	0.347541	-0.258054
H61	H	-0.135688	0.405677	-0.250205
H62	H	-0.060751	0.340845	-0.291922
N63	N	-0.130492	0.175518	-0.245972
H64	H	-0.127780	0.216680	-0.298680
H65	H	-0.059252	0.147467	-0.247429
H66	H	-0.304688	0.830306	0.155478
H67	H	-0.023584	1.024871	0.141790
N68	N	-0.015374	1.030613	0.318125
H69	H	0.036630	1.066624	0.273048
H70	H	-0.061286	1.064054	0.353426
N71	N	0.038668	1.067993	0.534544
H72	H	0.024807	1.123595	0.546436
H73	H	0.118038	1.057690	0.551097
N74	N	-0.153071	0.159840	0.082046
H75	H	-0.156463	0.196293	0.129300
H76	H	-0.223429	0.119578	0.088562
N77	N	0.025609	1.058977	0.723917
H78	H	0.009399	1.047765	0.789121
H79	H	0.107171	1.050227	0.708665
H80	H	-0.316084	0.822434	0.320776
