data_functionalizedCrystal
_audit_creation_method	'MofGen! by Chris Wilmer'
_symmetry_space_group_name_H-M	'P1'
_symmetry_Int_Tables_number	1
_symmetry_cell_setting	triclinic
loop_
_symmetry_equiv_pos_as_xyz
  x,y,z
_cell_length_a	19.121102
_cell_length_b	19.121725
_cell_length_c	19.076919
_cell_angle_alpha	94.805082
_cell_angle_beta	89.940198
_cell_angle_gamma	85.251956
loop_
_atom_site_label
_atom_site_type_symbol
_atom_site_fract_x
_atom_site_fract_y
_atom_site_fract_z
Zn1	Zn	1.069969	-0.343698	-0.458327
Zn2	Zn	1.403303	-0.010365	-0.124994
Zn3	Zn	1.736636	0.322968	0.208339
Zn4	Zn	1.079223	-0.457030	-0.345873
Zn5	Zn	1.412556	-0.123696	-0.012540
Zn6	Zn	1.745890	0.209637	0.320793
Zn7	Zn	0.957038	-0.333965	-0.335408
Zn8	Zn	1.290371	-0.000632	-0.002075
Zn9	Zn	1.623704	0.332701	0.331258
Zn10	Zn	0.957283	-0.456288	-0.458291
Zn11	Zn	1.290616	-0.122955	-0.124957
Zn12	Zn	1.623949	0.210378	0.208376
O13	O	1.015878	-0.397745	-0.399475
O14	O	1.349212	-0.064412	-0.066142
O15	O	1.682545	0.268921	0.267192
O16	O	1.169492	-0.363115	-0.447805
O17	O	1.502825	-0.029782	-0.114472
O18	O	1.836158	0.303551	0.218861
O19	O	1.066785	-0.436942	-0.245996
O20	O	1.400118	-0.103608	0.087337
O21	O	1.733452	0.229725	0.420670
O22	O	0.968043	-0.236634	-0.347350
O23	O	1.301377	0.096699	-0.014016
O24	O	1.634710	0.430032	0.319317
O25	O	1.176290	-0.446379	-0.365186
O26	O	1.509624	-0.113046	-0.031852
O27	O	1.842957	0.220287	0.301481
O28	O	1.051014	-0.243785	-0.437658
O29	O	1.384347	0.089548	-0.104324
O30	O	1.717680	0.422882	0.229009
O31	O	0.977016	-0.346527	-0.238308
O32	O	1.310349	-0.013193	0.095026
O33	O	1.643683	0.320140	0.428359
O34	O	0.858776	-0.345808	-0.347314
O35	O	1.192109	-0.012475	-0.013981
O36	O	1.525442	0.320859	0.319353
O37	O	0.968461	-0.445116	-0.556784
O38	O	1.301794	-0.111783	-0.223451
O39	O	1.635127	0.221550	0.109882
O40	O	0.858956	-0.435678	-0.437595
O41	O	1.192289	-0.102345	-0.104262
O42	O	1.525622	0.230988	0.229072
O43	O	1.051251	-0.362397	-0.556811
O44	O	1.384585	-0.029064	-0.223478
O45	O	1.717918	0.304270	0.109855
O46	O	1.067023	-0.555553	-0.365150
O47	O	1.400356	-0.222220	-0.031817
O48	O	1.733689	0.111113	0.301517
O49	O	0.977434	-0.555009	-0.447742
O50	O	1.310767	-0.221676	-0.114409
O51	O	1.644100	0.111658	0.218924
C52	C	0.833379	-0.389607	-0.391315
C53	C	1.166712	-0.056274	-0.057982
C54	C	1.500046	0.277059	0.275351
C55	C	0.755305	-0.386143	-0.387842
C56	C	1.088638	-0.052810	-0.054509
C57	C	1.421972	0.280523	0.278825
C58	C	0.718743	-0.431372	-0.433147
C59	C	1.052076	-0.098039	-0.099814
C60	C	1.385410	0.235295	0.233520
C61	C	0.645384	-0.428108	-0.429886
C62	C	0.978717	-0.094775	-0.096553
C63	C	1.312050	0.238559	0.236780
C64	C	0.608588	-0.379618	-0.381317
C65	C	0.941921	-0.046285	-0.047984
C66	C	1.275255	0.287048	0.285350
C67	C	0.645155	-0.334385	-0.336010
C68	C	0.978488	-0.001052	-0.002677
C69	C	1.311821	0.332282	0.330657
C70	C	0.718512	-0.337646	-0.339274
C71	C	1.051846	-0.004313	-0.005941
C72	C	1.385179	0.329021	0.327392
C73	C	0.387089	-0.367425	-0.369115
C74	C	0.720422	-0.034092	-0.035782
C75	C	1.053756	0.299242	0.297551
C76	C	0.313726	-0.364169	-0.365853
C77	C	0.647059	-0.030836	-0.032520
C78	C	0.980393	0.302498	0.300814
C79	C	0.313960	-0.457891	-0.459731
C80	C	0.647294	-0.124558	-0.126397
C81	C	0.980627	0.208775	0.206936
C82	C	0.387320	-0.461151	-0.462988
C83	C	0.720653	-0.127818	-0.129654
C84	C	1.053986	0.205516	0.203679
C85	C	0.423880	-0.415915	-0.417683
C86	C	0.757213	-0.082582	-0.084350
C87	C	1.090546	0.250752	0.248983
C88	C	0.533603	-0.376283	-0.377982
C89	C	0.866936	-0.042949	-0.044648
C90	C	1.200270	0.290384	0.288685
C91	C	0.498863	-0.419248	-0.421023
C92	C	0.832196	-0.085915	-0.087689
C93	C	1.165530	0.247419	0.245644
C94	C	1.023277	-0.580854	-0.407594
C95	C	1.356611	-0.247521	-0.074261
C96	C	1.689944	0.085813	0.259073
C97	C	1.026506	-0.659193	-0.411094
C98	C	1.359839	-0.325859	-0.077760
C99	C	1.693173	0.007474	0.255573
C100	C	0.984867	-0.692336	-0.365692
C101	C	1.318200	-0.359003	-0.032359
C102	C	1.651533	-0.025670	0.300975
C103	C	0.987907	-0.765944	-0.368984
C104	C	1.321241	-0.432611	-0.035650
C105	C	1.654574	-0.099278	0.297683
C106	C	1.032584	-0.806407	-0.417681
C107	C	1.365918	-0.473073	-0.084348
C108	C	1.699251	-0.139740	0.248986
C109	C	1.074228	-0.773258	-0.463085
C110	C	1.407562	-0.439925	-0.129751
C111	C	1.740895	-0.106591	0.203582
C112	C	1.071191	-0.699652	-0.459789
C113	C	1.404524	-0.366318	-0.126456
C114	C	1.737858	-0.032985	0.206878
C115	C	1.043918	-1.028834	-0.429982
C116	C	1.377251	-0.695500	-0.096649
C117	C	1.710585	-0.362167	0.236684
C118	C	1.046951	-1.102445	-0.433276
C119	C	1.380284	-0.769112	-0.099943
C120	C	1.713617	-0.435778	0.233391
C121	C	0.960630	-1.095126	-0.339174
C122	C	1.293964	-0.761793	-0.005840
C123	C	1.627297	-0.428459	0.327493
C124	C	0.957594	-1.021519	-0.335885
C125	C	1.290927	-0.688185	-0.002552
C126	C	1.624260	-0.354852	0.330782
C127	C	0.999241	-0.988376	-0.381286
C128	C	1.332574	-0.655043	-0.047953
C129	C	1.665907	-0.321710	0.285380
C130	C	1.035692	-0.881646	-0.421048
C131	C	1.369025	-0.548312	-0.087715
C132	C	1.702358	-0.214979	0.245618
C133	C	0.996136	-0.913139	-0.377915
C134	C	1.329470	-0.579805	-0.044582
C135	C	1.662803	-0.246472	0.288752
C136	C	1.199090	-0.405916	-0.407667
C137	C	1.532424	-0.072582	-0.074334
C138	C	1.865757	0.260751	0.259000
C139	C	1.277164	-0.409398	-0.411158
C140	C	1.610498	-0.076064	-0.077825
C141	C	1.943831	0.257269	0.255509
C142	C	1.008851	-0.404760	-0.583049
C143	C	1.342184	-0.071426	-0.249716
C144	C	1.675518	0.261907	0.083618
C145	C	1.005857	-0.407749	-0.661277
C146	C	1.339190	-0.074415	-0.327944
C147	C	1.672523	0.258918	0.005389
C148	C	1.008469	-0.213923	-0.391341
C149	C	1.341802	0.119410	-0.058007
C150	C	1.675136	0.452744	0.275326
C151	C	1.005311	-0.135589	-0.387874
C152	C	1.338645	0.197744	-0.054541
C153	C	1.671978	0.531078	0.278792
C154	C	1.047552	-0.366087	-0.698044
C155	C	1.380885	-0.032754	-0.364711
C156	C	1.714219	0.300579	-0.031378
C157	C	1.044730	-0.368893	-0.771548
C158	C	1.378063	-0.035559	-0.438214
C159	C	1.711396	0.297774	-0.104881
C160	C	1.000215	-0.413364	-0.808283
C161	C	1.333548	-0.080030	-0.474950
C162	C	1.666882	0.253303	-0.141616
C163	C	0.958515	-0.455027	-0.771511
C164	C	1.291848	-0.121693	-0.438177
C165	C	1.625182	0.211640	-0.104844
C166	C	0.961334	-0.452217	-0.698008
C167	C	1.294667	-0.118884	-0.364675
C168	C	1.628001	0.214450	-0.031342
C169	C	0.987158	-0.426381	-1.028109
C170	C	1.320491	-0.093048	-0.694776
C171	C	1.653825	0.240285	-0.361443
C172	C	0.984344	-0.429189	-1.101617
C173	C	1.317677	-0.095856	-0.768284
C174	C	1.651010	0.237477	-0.434950
C175	C	1.070558	-0.343054	-1.101649
C176	C	1.403891	-0.009721	-0.768316
C177	C	1.737224	0.323613	-0.434982
C178	C	1.073376	-0.340251	-1.028145
C179	C	1.406709	-0.006918	-0.694812
C180	C	1.740043	0.326415	-0.361479
C181	C	1.031673	-0.381912	-0.991379
C182	C	1.365007	-0.048578	-0.658046
C183	C	1.698340	0.284755	-0.324713
N184	N	0.997331	-0.416234	-0.883415
N185	N	1.330664	-0.082901	-0.550082
N186	N	1.663997	0.250433	-0.216749
N187	N	1.034554	-0.379037	-0.916248
N188	N	1.367888	-0.045704	-0.582915
N189	N	1.701221	0.287630	-0.249581
C190	C	1.022916	-0.390709	-0.216615
C191	C	1.356250	-0.057376	0.116719
C192	C	1.689583	0.275957	0.450052
C193	C	1.026039	-0.387528	-0.138384
C194	C	1.359372	-0.054195	0.194949
C195	C	1.692706	0.279139	0.528283
H196	H	0.528825	-0.458725	-0.460571
H197	H	0.862159	-0.125392	-0.127237
H198	H	1.195492	0.207942	0.206096
H199	H	1.077827	-1.001855	-0.466951
H200	H	1.411160	-0.668522	-0.133618
H201	H	1.744494	-0.335188	0.199716
F202	F	0.425989	-0.319279	-0.320900
F203	F	0.759323	0.014054	0.012434
F204	F	1.092656	0.347388	0.345767
H205	H	0.927374	-0.486135	-0.668073
H206	H	1.260707	-0.152801	-0.334740
H207	H	1.594040	0.180532	-0.001406
F208	F	0.916310	-1.130404	-0.290858
F209	F	1.249644	-0.797071	0.042476
F210	F	1.582977	-0.463737	0.375809
H211	H	1.110608	-0.806209	-0.502732
H212	H	1.443942	-0.472875	-0.169399
H213	H	1.777275	-0.139542	0.163935
F214	F	0.943588	-0.801215	-0.320661
F215	F	1.276922	-0.467882	0.012672
F216	F	1.610255	-0.134548	0.346006
H217	H	1.078684	-0.334969	-0.801480
H218	H	1.412018	-0.001636	-0.468147
H219	H	1.745351	0.331697	-0.134814
H220	H	1.105099	-0.672667	-0.496759
H221	H	1.438432	-0.339334	-0.163426
H222	H	1.771766	-0.006000	0.169908
F223	F	1.094935	-0.318758	-0.658955
F224	F	1.428268	0.014575	-0.325621
F225	F	1.761601	0.347908	0.007712
F226	F	1.120755	-0.292920	-0.989054
F227	F	1.454088	0.040414	-0.655721
F228	F	1.787422	0.373747	-0.322388
F229	F	1.114936	-0.298718	-1.140783
F230	F	1.448269	0.034616	-0.807450
F231	F	1.781603	0.367949	-0.474116
H232	H	0.959763	-0.880192	-0.338263
H233	H	1.293096	-0.546859	-0.004930
H234	H	1.626430	-0.213525	0.328404
H235	H	0.284185	-0.494719	-0.496616
H236	H	0.617518	-0.161386	-0.163282
H237	H	0.950852	0.171948	0.170051
F238	F	0.426476	-0.512762	-0.514681
F239	F	0.759809	-0.179428	-0.181347
F240	F	1.093142	0.153905	0.151986
H241	H	0.948092	-0.465405	-1.131525
H242	H	1.281426	-0.132071	-0.798191
H243	H	1.614759	0.201262	-0.464858
H244	H	0.953211	-0.460315	-0.998184
H245	H	1.286545	-0.126981	-0.664851
H246	H	1.619878	0.206352	-0.331517
F247	F	0.605991	-0.282774	-0.284323
F248	F	0.939325	0.050559	0.049011
F249	F	1.272658	0.383892	0.382344
F250	F	0.274567	-0.312562	-0.314152
F251	F	0.607900	0.020772	0.019181
F252	F	0.941234	0.354105	0.352514
H253	H	0.921214	-0.988575	-0.296232
H254	H	1.254548	-0.655242	0.037101
H255	H	1.587881	-0.321908	0.370435
H256	H	0.922267	-0.491233	-0.801426
H257	H	1.255601	-0.157900	-0.468093
H258	H	1.588934	0.175433	-0.134759
F259	F	0.757424	-0.289506	-0.291056
F260	F	1.090757	0.043827	0.042277
F261	F	1.424090	0.377161	0.375611
H262	H	0.748697	-0.470860	-0.472695
H263	H	1.082031	-0.137526	-0.139362
H264	H	1.415364	0.195807	0.193971
H265	H	1.083322	-1.135388	-0.472944
H266	H	1.416656	-0.802055	-0.139611
H267	H	1.749989	-0.468722	0.193723
F268	F	1.083237	-0.924715	-0.472876
F269	F	1.416570	-0.591382	-0.139543
F270	F	1.749904	-0.258049	0.193791
F271	F	0.937312	-0.649279	-0.313864
F272	F	1.270645	-0.315946	0.019470
F273	F	1.603979	0.017387	0.352803
F274	F	0.606475	-0.476247	-0.478107
F275	F	0.939809	-0.142913	-0.144773
F276	F	1.273142	0.190420	0.188560
H277	H	0.503636	-0.336804	-0.338435
H278	H	0.836969	-0.003470	-0.005101
H279	H	1.170302	0.329863	0.328232
