data_functionalizedCrystal
_audit_creation_method	'MofGen! by Chris Wilmer'
_symmetry_space_group_name_H-M	'P1'
_symmetry_Int_Tables_number	1
_symmetry_cell_setting	triclinic
loop_
_symmetry_equiv_pos_as_xyz
  x,y,z
_cell_length_a	16.109301
_cell_length_b	27.732048
_cell_length_c	14.586319
_cell_angle_alpha	89.991275
_cell_angle_beta	89.999213
_cell_angle_gamma	83.052068
loop_
_atom_site_label
_atom_site_type_symbol
_atom_site_fract_x
_atom_site_fract_y
_atom_site_fract_z
O1	O	1.102362	0.062130	-0.076193
O2	O	1.602362	0.562130	0.423807
O3	O	0.860204	0.069862	-0.076208
O4	O	1.360204	0.569862	0.423792
O5	O	0.988804	-0.004369	-0.076183
O6	O	1.488804	0.495631	0.423817
O7	O	0.973762	0.136361	-0.076218
O8	O	1.473762	0.636361	0.423782
O9	O	0.988795	-0.004370	0.076298
O10	O	1.488795	0.495630	0.576298
O11	O	0.860195	0.069861	0.076272
O12	O	1.360195	0.569861	0.576272
O13	O	1.102353	0.062129	0.076288
O14	O	1.602353	0.562129	0.576288
Cu15	Cu	0.981273	0.065995	0.090203
Cu16	Cu	1.481273	0.565995	0.590203
Cu17	Cu	0.981283	0.065996	-0.090123
Cu18	Cu	1.481283	0.565996	0.409877
O19	O	0.973753	0.136360	0.076262
O20	O	1.473753	0.636360	0.576262
C21	C	0.829228	0.069548	0.000030
C22	C	1.329228	0.569548	0.500030
C23	C	0.736945	0.068609	0.000025
C24	C	1.236945	0.568609	0.500025
C25	C	0.514154	0.110473	0.000025
C26	C	1.014154	0.610473	0.500025
C27	C	0.427445	0.109587	0.000031
C28	C	0.927445	0.609587	0.500031
C29	C	0.448409	0.021514	0.000050
C30	C	0.948409	0.521514	0.500050
C31	C	0.535117	0.022401	0.000050
C32	C	1.035117	0.522401	0.500050
C33	C	0.567987	0.066882	0.000033
C34	C	1.067987	0.566882	0.500033
C35	C	0.394570	0.065109	0.000039
C36	C	0.894570	0.565109	0.500039
C37	C	0.300556	0.064148	0.000045
C38	C	0.800556	0.564148	0.500045
C39	C	0.662007	0.067843	0.000028
C40	C	1.162007	0.567843	0.500028
C41	C	0.988483	-0.022378	0.000060
C42	C	1.488483	0.477622	0.500060
C43	C	0.987533	-0.076037	0.000068
C44	C	1.487533	0.423963	0.500068
C45	C	1.057541	-0.414559	0.000025
C46	C	1.557541	0.085441	0.500025
C47	C	1.054013	-0.616233	0.000012
C48	C	1.554013	-0.116233	0.500012
O49	O	1.118031	-0.647221	-0.000024
O50	O	1.618031	-0.147221	0.499976
N51	N	0.977759	-0.635676	0.000008
N52	N	1.477759	-0.135676	0.500008
C53	C	0.902381	-0.604697	0.000001
C54	C	1.402381	-0.104697	0.500001
O55	O	0.837441	-0.625862	-0.000012
O56	O	1.337441	-0.125862	0.499988
C57	C	0.905910	-0.403024	0.000008
C58	C	1.405910	0.096976	0.500008
C59	C	0.982169	-0.383584	0.000021
C60	C	1.482169	0.116416	0.500021
C61	C	1.133794	-0.395119	0.000038
C62	C	1.633794	0.104881	0.500038
C63	C	1.134675	-0.344703	0.000046
C64	C	1.634675	0.155297	0.500046
C65	C	1.059303	-0.313728	0.000042
C66	C	1.559303	0.186272	0.500042
C67	C	0.983050	-0.333168	0.000029
C68	C	1.483050	0.166832	0.500029
C69	C	0.830533	-0.372045	-0.000006
C70	C	1.330533	0.127955	0.499994
C71	C	0.831422	-0.321624	-0.000006
C72	C	1.331422	0.178376	0.499994
C73	C	0.907681	-0.302184	0.000007
C74	C	1.407681	0.197816	0.500007
C75	C	0.908559	-0.251777	0.000034
C76	C	1.408559	0.248223	0.500034
N77	N	0.984814	-0.232334	0.000038
N78	N	1.484814	0.267666	0.500038
C79	C	1.060186	-0.263310	0.000042
C80	C	1.560186	0.236690	0.500042
C81	C	0.900534	-0.710579	-0.000000
C82	C	1.400534	-0.210579	0.500000
C83	C	0.899652	-0.760997	-0.000000
C84	C	1.399652	-0.260997	0.500000
C85	C	1.051284	-0.772530	0.000009
C86	C	1.551284	-0.272530	0.500009
C87	C	1.052166	-0.722111	0.000016
C88	C	1.552166	-0.222111	0.500016
C89	C	0.976789	-0.691136	0.000004
C90	C	1.476789	-0.191136	0.500004
C91	C	1.062030	-0.157433	0.000060
C92	C	1.562030	0.342567	0.500060
C93	C	1.062905	-0.107012	0.000072
C94	C	1.562905	0.392988	0.500072
C95	C	0.911273	-0.095484	0.000058
C96	C	1.411273	0.404516	0.500058
C97	C	0.910398	-0.145900	0.000051
C98	C	1.410398	0.354100	0.500051
C99	C	0.985783	-0.176874	0.000049
C100	C	1.485783	0.323126	0.500049
O101	O	0.844576	-0.220761	0.000059
O102	O	1.344576	0.279239	0.500059
O103	O	1.125116	-0.242135	0.000035
O104	O	1.625116	0.257865	0.500035
C105	C	1.056660	-0.464975	0.000017
C106	C	1.556660	0.035025	0.500017
C107	C	0.980407	-0.484415	0.000005
C108	C	1.480407	0.015585	0.500005
C109	C	0.905035	-0.453440	0.000001
C110	C	1.405035	0.046560	0.500001
C111	C	0.979525	-0.534833	0.000005
C112	C	1.479525	-0.034833	0.500005
C113	C	1.054897	-0.565808	0.000009
C114	C	1.554897	-0.065808	0.500009
C115	C	1.131151	-0.546365	0.000013
C116	C	1.631151	-0.046365	0.500013
C117	C	1.132032	-0.495950	0.000021
C118	C	1.632032	0.004050	0.500021
C119	C	0.828781	-0.472883	-0.000004
C120	C	1.328781	0.027117	0.499996
C121	C	0.827906	-0.523299	-0.000011
C122	C	1.327906	-0.023299	0.499989
C123	C	0.903278	-0.554274	-0.000007
C124	C	1.403278	-0.054274	0.499993
C125	C	1.133328	0.062443	0.000048
C126	C	1.633328	0.562443	0.500048
C127	C	1.225612	0.063382	0.000047
C128	C	1.725612	0.563382	0.500047
C129	C	0.974073	0.154369	0.000017
C130	C	1.474073	0.654369	0.500017
C131	C	0.975024	0.208028	0.000004
C132	C	1.475024	0.708028	0.500004
N133	N	0.981272	0.065994	0.217035
N134	N	1.481272	0.565994	0.717035
N135	N	0.981291	0.065994	-0.216955
N136	N	1.481291	0.565994	0.283045
C137	C	1.038234	0.033135	0.452053
C138	C	1.538234	0.533135	0.952053
C139	C	1.038237	0.033134	0.548034
C140	C	1.538237	0.533134	1.048034
C141	C	0.924323	0.098854	0.548020
C142	C	1.424323	0.598854	1.048020
C143	C	0.924317	0.098852	0.452041
C144	C	1.424317	0.598852	0.952041
C145	C	0.981278	0.065993	0.404060
C146	C	1.481278	0.565993	0.904060
C147	C	0.981286	0.065994	0.596020
C148	C	1.481286	0.565994	1.096020
C149	C	0.981288	0.065993	0.700087
C150	C	1.481288	0.565993	1.200087
C151	C	0.981275	0.065994	0.299986
C152	C	1.481275	0.565994	0.799986
H153	H	0.383617	0.145084	0.000026
H154	H	0.883617	0.645084	0.500026
H155	H	0.421636	-0.014700	0.000069
H156	H	0.921636	0.485300	0.500069
H157	H	0.770039	-0.296407	-0.000017
H158	H	1.270039	0.203593	0.499983
H159	H	0.877932	0.125610	0.412962
H160	H	1.377932	0.625610	0.912962
O161	O	1.093486	0.001235	0.594796
O162	O	1.593486	0.501235	1.094796
C163	C	1.144014	-0.027873	0.742661
C164	C	1.644014	0.472127	1.242661
C165	C	1.081385	0.008273	0.689819
C166	C	1.581385	0.508273	1.189819
H167	H	1.134264	-0.022188	0.819496
H168	H	1.634264	0.477812	1.319496
H169	H	1.133682	-0.066602	0.723870
H170	H	1.633682	0.433398	1.223870
H171	H	1.210511	-0.021567	0.723728
H172	H	1.710511	0.478433	1.223728
H173	H	1.014864	0.002011	0.708723
H174	H	1.514864	0.502011	1.208723
H175	H	1.091791	0.046989	0.708615
H176	H	1.591791	0.546989	1.208615
H177	H	1.084614	0.006379	0.412988
H178	H	1.584614	0.506379	0.912988
H179	H	0.578951	-0.013099	0.000059
H180	H	1.078951	0.486901	0.500059
O181	O	0.545946	0.153722	0.000057
O182	O	1.045946	0.653722	0.500057
C183	C	0.515996	0.240985	-0.000009
C184	C	1.015996	0.740985	0.499991
C185	C	0.479884	0.192038	-0.000028
C186	C	0.979884	0.692038	0.499972
H187	H	0.462603	0.271976	-0.000097
H188	H	0.962603	0.771976	0.499903
H189	H	0.556035	0.243632	0.063818
H190	H	1.056035	0.743632	0.563818
H191	H	0.556095	0.243578	-0.063808
H192	H	1.056095	0.743578	0.436192
H193	H	0.439748	0.189411	0.063728
H194	H	0.939748	0.689411	0.563728
H195	H	0.439892	0.189411	-0.063897
H196	H	0.939892	0.689411	0.436103
O197	O	1.137060	-0.088209	0.000041
O198	O	1.637060	0.411791	0.500041
C199	C	1.287365	-0.104979	0.000102
C200	C	1.787365	0.395021	0.500102
C201	C	1.203447	-0.126335	0.000119
C202	C	1.703447	0.373665	0.500119
H203	H	1.341061	-0.135793	0.000185
H204	H	1.841061	0.364207	0.500185
H205	H	1.291631	-0.081673	-0.063722
H206	H	1.791631	0.418327	0.436278
H207	H	1.291523	-0.081654	0.063904
H208	H	1.791523	0.418346	0.563904
H209	H	1.199233	-0.149682	-0.063640
H210	H	1.699233	0.350318	0.436360
H211	H	1.199217	-0.149613	0.063985
H212	H	1.699217	0.350387	0.563985
O213	O	0.869080	0.130756	0.594774
O214	O	1.369080	0.630756	1.094774
C215	C	0.818574	0.159868	0.742629
C216	C	1.318574	0.659868	1.242629
C217	C	0.881193	0.123719	0.689799
C218	C	1.381193	0.623719	1.189799
H219	H	0.828333	0.154184	0.819466
H220	H	1.328333	0.654184	1.319466
H221	H	0.828909	0.198595	0.723809
H222	H	1.328909	0.698595	1.223809
H223	H	0.752074	0.153564	0.723713
H224	H	1.252074	0.653564	1.223713
H225	H	0.947718	0.129978	0.708686
H226	H	1.447718	0.629978	1.208686
H227	H	0.870785	0.085004	0.708623
H228	H	1.370785	0.585004	1.208623
O229	O	1.135237	-0.187536	-0.000100
O230	O	1.635237	0.312464	0.499900
C231	C	1.222247	-0.251159	-0.079058
C232	C	1.722247	0.248841	0.420942
C233	C	1.139322	-0.217088	-0.079010
C234	C	1.639322	0.282912	0.420990
H235	H	1.225570	-0.275068	-0.142840
H236	H	1.725570	0.224932	0.357160
H237	H	1.276925	-0.228621	-0.079105
H238	H	1.776925	0.271379	0.420895
H239	H	1.225613	-0.275036	-0.015217
H240	H	1.725613	0.224964	0.484783
H241	H	1.135875	-0.193204	-0.142840
H242	H	1.635875	0.306796	0.357160
H243	H	1.084684	-0.239655	-0.078915
H244	H	1.584684	0.260345	0.421085
O245	O	1.124557	-0.802574	-0.000115
O246	O	1.624557	-0.302574	0.499885
C247	C	1.253852	-0.827881	-0.079155
C248	C	1.753852	-0.327881	0.420845
C249	C	1.170917	-0.793819	-0.079107
C250	C	1.670917	-0.293819	0.420893
H251	H	1.291350	-0.820822	-0.143023
H252	H	1.791350	-0.320822	0.356977
H253	H	1.291479	-0.820818	-0.015388
H254	H	1.791479	-0.320818	0.484612
H255	H	1.240095	-0.867251	-0.079113
H256	H	1.740095	-0.367251	0.420887
H257	H	1.184598	-0.754438	-0.079181
H258	H	1.684598	-0.254438	0.420819
H259	H	1.133315	-0.800924	-0.142868
H260	H	1.633315	-0.300924	0.357132
H261	H	1.196773	-0.328880	0.000053
H262	H	1.696773	0.171120	0.500053
H263	H	1.195175	-0.420334	0.000038
H264	H	1.695175	0.079666	0.500038
H265	H	1.114263	-0.706287	0.000026
H266	H	1.614263	-0.206287	0.500026
H267	H	0.839149	-0.685363	-0.000010
H268	H	1.339149	-0.185363	0.499990
H269	H	0.837554	-0.776820	0.000005
H270	H	1.337554	-0.276820	0.500005
O271	O	0.753873	-0.542236	-0.000147
O272	O	1.253873	-0.042236	0.499853
C273	C	0.664856	-0.592420	-0.079208
C274	C	1.164856	-0.092420	0.420792
C275	C	0.748731	-0.571018	-0.079145
C276	C	1.248731	-0.071018	0.420855
H277	H	0.660663	-0.615687	-0.143081
H278	H	1.160663	-0.115687	0.356919
H279	H	0.660622	-0.615777	-0.015446
H280	H	1.160622	-0.115777	0.484554
H281	H	0.611157	-0.561608	-0.079168
H282	H	1.111157	-0.061608	0.420832
H283	H	0.802478	-0.601800	-0.079217
H284	H	1.302478	-0.101800	0.420783
H285	H	0.752892	-0.547649	-0.142901
H286	H	1.252892	-0.047649	0.357099
O287	O	0.756380	-0.390841	-0.000064
O288	O	1.256380	0.109159	0.499936
C289	C	0.606077	-0.374059	-0.000039
C290	C	1.106077	0.125941	0.499961
C291	C	0.690001	-0.352710	0.000007
C292	C	1.190001	0.147290	0.500007
H293	H	0.552388	-0.343241	0.000037
H294	H	1.052388	0.156759	0.500037
H295	H	0.601818	-0.397349	-0.063871
H296	H	1.101818	0.102651	0.436129
H297	H	0.601900	-0.397397	0.063755
H298	H	1.101900	0.102603	0.563755
H299	H	0.694235	-0.329350	-0.063744
H300	H	1.194235	0.170650	0.436256
H301	H	0.694224	-0.329447	0.063881
H302	H	1.194224	0.170553	0.563881
O303	O	0.836248	-0.164707	0.000000
O304	O	1.336248	0.335293	0.500000
C305	C	0.685943	-0.147940	0.000032
C306	C	1.185943	0.352060	0.500032
C307	C	0.769859	-0.126582	0.000082
C308	C	1.269859	0.373418	0.500082
H309	H	0.632246	-0.117127	0.000117
H310	H	1.132246	0.382873	0.500117
H311	H	0.681690	-0.171227	-0.063807
H312	H	1.181690	0.328773	0.436193
H313	H	0.681775	-0.171285	0.063819
H314	H	1.181775	0.328715	0.563819
H315	H	0.774083	-0.103216	-0.063662
H316	H	1.274083	0.396784	0.436338
H317	H	0.774076	-0.103323	0.063963
H318	H	1.274076	0.396677	0.563963
O319	O	1.206089	-0.477046	0.000189
O320	O	1.706089	0.022954	0.500189
C321	C	1.295080	-0.426811	0.079159
C322	C	1.795080	0.073189	0.579159
C323	C	1.211185	-0.448191	0.079098
C324	C	1.711185	0.051809	0.579098
H325	H	1.299220	-0.403468	0.142941
H326	H	1.799220	0.096532	0.642941
H327	H	1.348825	-0.457597	0.079218
H328	H	1.848825	0.042403	0.579218
H329	H	1.299280	-0.403510	0.015318
H330	H	1.799280	0.096490	0.515318
H331	H	1.206904	-0.471485	0.142929
H332	H	1.706904	0.028515	0.642929
H333	H	1.157480	-0.417381	0.078992
H334	H	1.657480	0.082619	0.578992
O335	O	1.204292	-0.576529	-0.000026
O336	O	1.704292	-0.076529	0.499974
C337	C	1.270113	-0.659318	0.000015
C338	C	1.770113	-0.159318	0.500015
C339	C	1.187227	-0.625211	0.000045
C340	C	1.687227	-0.125211	0.500045
H341	H	1.256345	-0.698685	0.000092
H342	H	1.756345	-0.198685	0.500092
H343	H	1.307687	-0.652281	-0.063811
H344	H	1.807687	-0.152281	0.436189
H345	H	1.307677	-0.652232	0.063815
H346	H	1.807677	-0.152232	0.563815
H347	H	1.149596	-0.632277	-0.063711
H348	H	1.649596	-0.132277	0.436289
H349	H	1.149717	-0.632255	0.063914
H350	H	1.649717	-0.132255	0.563914
O351	O	0.838083	-0.065369	-0.000111
O352	O	1.338083	0.434631	0.499889
C353	C	0.751131	-0.001717	-0.079096
C354	C	1.251131	0.498283	0.420904
C355	C	0.834039	-0.035804	-0.079020
C356	C	1.334039	0.464196	0.420980
H357	H	0.747842	0.022202	-0.142877
H358	H	1.247842	0.522202	0.357123
H359	H	0.696437	-0.024243	-0.079166
H360	H	1.196437	0.475757	0.420834
H361	H	0.747760	0.022149	-0.015254
H362	H	1.247760	0.522149	0.484746
H363	H	0.837491	-0.059676	-0.142851
H364	H	1.337491	0.440324	0.357149
H365	H	0.888693	-0.013249	-0.078902
H366	H	1.388693	0.486751	0.421098
H367	H	0.767402	-0.447667	-0.000009
H368	H	1.267402	0.052333	0.499991
