data_functionalizedCrystal
_audit_creation_method	'MofGen! by Chris Wilmer'
_symmetry_space_group_name_H-M	'P1'
_symmetry_Int_Tables_number	1
_symmetry_cell_setting	triclinic
loop_
_symmetry_equiv_pos_as_xyz
  x,y,z
_cell_length_a	16.959455
_cell_length_b	16.120444
_cell_length_c	16.959447
_cell_angle_alpha	87.132720
_cell_angle_beta	90.014322
_cell_angle_gamma	92.923490
loop_
_atom_site_label
_atom_site_type_symbol
_atom_site_fract_x
_atom_site_fract_y
_atom_site_fract_z
Zn1	Zn	1.192388	-0.331959	0.462855
Zn2	Zn	1.692388	0.168041	0.962855
Zn3	Zn	1.185592	-0.471387	0.337374
Zn4	Zn	1.685592	0.028613	0.837374
Zn5	Zn	1.060215	-0.331985	0.330694
Zn6	Zn	1.560215	0.168015	0.830694
Zn7	Zn	1.053466	-0.471325	0.469510
Zn8	Zn	1.553466	0.028675	0.969510
O9	O	1.122915	-0.401664	0.400108
O10	O	1.622915	0.098336	0.900108
O11	O	1.302097	-0.350469	0.446221
O12	O	1.802097	0.149531	0.946221
O13	O	1.168941	-0.452932	0.225879
O14	O	1.668941	0.047068	0.725879
O15	O	1.083417	-0.215316	0.342645
O16	O	1.583417	0.284684	0.842645
O17	O	1.297104	-0.452907	0.354030
O18	O	1.797104	0.047093	0.854030
O19	O	1.180524	-0.215296	0.439743
O20	O	1.680524	0.284704	0.939743
O21	O	1.076827	-0.350514	0.220971
O22	O	1.576827	0.149486	0.720971
O23	O	0.948710	-0.350454	0.349097
O24	O	1.448710	0.149546	0.849097
O25	O	1.071914	-0.452801	0.579236
O26	O	1.571914	0.047199	1.079236
O27	O	0.943751	-0.452826	0.451085
O28	O	1.443751	0.047174	0.951085
O29	O	1.173979	-0.350409	0.574347
O30	O	1.673979	0.149591	1.074347
O31	O	1.162397	-0.588045	0.360483
O32	O	1.662397	-0.088045	0.860483
O33	O	1.065324	-0.587999	0.457563
O34	O	1.565324	-0.087999	0.957563
C35	C	0.917550	-0.401637	0.400089
C36	C	1.417550	0.098363	0.900089
C37	C	0.829693	-0.401645	0.400100
C38	C	1.329693	0.098355	0.900100
C39	C	0.460777	-0.348315	0.347107
C40	C	0.960777	0.151685	0.847107
C41	C	0.455654	-0.455082	0.453158
C42	C	0.955654	0.044918	0.953158
C43	C	0.538200	-0.455070	0.453153
C44	C	1.038200	0.044930	0.953153
C45	C	0.582039	-0.401681	0.400123
C46	C	1.082039	0.098319	0.900123
C47	C	0.543331	-0.348303	0.347098
C48	C	1.043331	0.151697	0.847098
C49	C	0.576914	-0.508452	0.506171
C50	C	1.076914	-0.008452	1.006171
C51	C	0.659466	-0.508443	0.506167
C52	C	1.159466	-0.008443	1.006167
C53	C	0.703306	-0.455049	0.453141
C54	C	1.203306	0.044951	0.953141
C55	C	0.664593	-0.401669	0.400114
C56	C	1.164593	0.098331	0.900114
C57	C	0.708431	-0.348279	0.347084
C58	C	1.208431	0.151721	0.847084
C59	C	0.669720	-0.294894	0.294061
C60	C	1.169720	0.205106	0.794061
C61	C	0.587171	-0.294909	0.294071
C62	C	1.087171	0.205091	0.794071
C63	C	0.785855	-0.455034	0.453130
C64	C	1.285855	0.044966	0.953130
C65	C	0.790985	-0.348268	0.347076
C66	C	1.290985	0.151732	0.847076
C67	C	1.112412	-0.618272	0.410487
C68	C	1.612412	-0.118272	0.910487
C69	C	1.107991	-0.710938	0.414954
C70	C	1.607991	-0.210938	0.914954
C71	C	1.146044	-0.921883	0.377108
C72	C	1.646044	-0.421883	0.877108
C73	C	1.099933	-0.880594	0.423117
C74	C	1.599933	-0.380594	0.923117
C75	C	1.104418	-0.786189	0.418574
C76	C	1.604418	-0.286189	0.918574
C77	C	1.141560	-1.016297	0.381650
C78	C	1.641560	-0.516297	0.881650
C79	C	1.329082	-0.401692	0.400128
C80	C	1.829082	0.098308	0.900128
C81	C	1.416938	-0.401704	0.400137
C82	C	1.916938	0.098296	0.900137
C83	C	1.122952	-0.401595	0.606273
C84	C	1.622952	0.098405	1.106273
C85	C	1.122967	-0.401566	0.694129
C86	C	1.622967	0.098434	1.194129
C87	C	1.133482	-0.184210	0.389706
C88	C	1.633482	0.315790	0.889706
C89	C	1.137984	-0.091544	0.385273
C90	C	1.637984	0.408456	0.885273
C91	C	1.122928	-0.401673	0.194743
C92	C	1.622928	0.098327	0.694743
C93	C	1.123077	-0.401467	0.106877
C94	C	1.623077	0.098533	0.606877
C95	C	1.069925	-0.454788	1.068148
C96	C	1.569925	0.045212	1.568148
C97	C	1.176207	-0.348167	1.063052
C98	C	1.676207	0.151833	1.563052
C99	C	1.176185	-0.348185	0.980507
C100	C	1.676185	0.151815	1.480507
C101	C	1.123033	-0.401506	0.941779
C102	C	1.623033	0.098494	1.441779
C103	C	1.069903	-0.454810	0.985596
C104	C	1.569903	0.045190	1.485596
C105	C	1.229319	-0.294888	0.936684
C106	C	1.729319	0.205112	1.436684
C107	C	1.229300	-0.294904	0.854134
C108	C	1.729300	0.205096	1.354134
C109	C	1.176144	-0.348222	0.815404
C110	C	1.676144	0.151778	1.315404
C111	C	1.123011	-0.401527	0.859226
C112	C	1.623011	0.098473	1.359226
C113	C	1.069859	-0.454848	0.820498
C114	C	1.569859	0.045152	1.320498
C115	C	1.016722	-0.508150	0.864318
C116	C	1.516722	-0.008150	1.364318
C117	C	1.016746	-0.508127	0.946866
C118	C	1.516746	-0.008127	1.446866
C119	C	1.176119	-0.348244	0.732857
C120	C	1.676119	0.151756	1.232857
C121	C	1.069837	-0.454869	0.737946
C122	C	1.569837	0.045131	1.237946
H123	H	0.690977	-0.551912	0.549343
H124	H	1.190977	-0.051912	1.049343
C125	C	1.287741	-0.236269	0.805939
C126	C	1.787741	0.263731	1.305939
H127	H	1.319395	-0.204507	0.840827
H128	H	1.819395	0.295493	1.340827
H129	H	1.320622	-0.268168	0.775255
H130	H	1.820622	0.231832	1.275255
H131	H	1.259252	-0.199944	0.772007
H132	H	1.759252	0.300056	1.272007
C133	C	0.828434	-0.513749	0.511448
C134	C	1.328434	-0.013749	1.011448
H135	H	0.790503	-0.545546	0.543033
H136	H	1.290503	-0.045546	1.043033
H137	H	0.858876	-0.550027	0.482890
H138	H	1.358876	-0.050027	0.982890
H139	H	0.862185	-0.481893	0.544414
H140	H	1.362185	0.018107	1.044414
C141	C	1.042051	-0.928617	0.480937
C142	C	1.542051	-0.428617	0.980937
H143	H	1.046586	-0.986688	0.476440
H144	H	1.546586	-0.486688	0.976440
H145	H	1.054243	-0.914345	0.533384
H146	H	1.554243	-0.414345	1.033384
H147	H	0.989607	-0.914456	0.468643
H148	H	1.489607	-0.414456	0.968643
H149	H	1.272597	-0.251482	0.968223
H150	H	1.772597	0.248518	1.468223
C151	C	1.203913	-0.873860	0.319282
C152	C	1.703913	-0.373860	0.819282
H153	H	1.199363	-0.815790	0.323773
H154	H	1.699363	-0.315790	0.823773
H155	H	1.256358	-0.888015	0.331556
H156	H	1.756358	-0.388015	0.831556
H157	H	1.191703	-0.888133	0.266835
H158	H	1.691703	-0.388133	0.766835
H159	H	1.026547	-0.498283	0.706419
H160	H	1.526547	0.001717	1.206419
C161	C	1.234558	-0.289616	0.684658
C162	C	1.734558	0.210384	1.184658
H163	H	1.266213	-0.257855	0.719546
H164	H	1.766213	0.242145	1.219546
H165	H	1.267437	-0.321517	0.653974
H166	H	1.767437	0.178483	1.153974
H167	H	1.206070	-0.253290	0.650727
H168	H	1.706070	0.246710	1.150727
C169	C	0.958258	-0.566799	0.821712
C170	C	1.458258	-0.066799	1.321712
H171	H	0.965858	-0.559172	0.766274
H172	H	1.465858	-0.059172	1.266274
H173	H	0.967101	-0.622814	0.837915
H174	H	1.467101	-0.122814	1.337915
H175	H	0.905742	-0.554579	0.834650
H176	H	1.405742	-0.054579	1.334650
C177	C	0.839205	-0.289538	0.288745
C178	C	1.339205	0.210462	0.788745
H179	H	0.893914	-0.297171	0.296334
H180	H	1.393914	0.202829	0.796334
H181	H	0.825070	-0.301666	0.236199
H182	H	1.325070	0.198334	0.736199
H183	H	0.828389	-0.233537	0.297727
H184	H	1.328389	0.266463	0.797727
H185	H	1.219485	-0.304760	1.094590
H186	H	1.719485	0.195240	1.594590
C187	C	0.958307	-0.566760	0.995065
C188	C	1.458307	-0.066760	1.495065
H189	H	0.926643	-0.598515	0.960180
H190	H	1.426643	-0.098515	1.460180
H191	H	0.986790	-0.603079	1.029000
H192	H	1.486790	-0.103079	1.529000
H193	H	0.925424	-0.534852	1.025746
H194	H	1.425424	-0.034852	1.525746
C195	C	0.717948	-0.236169	0.235732
C196	C	1.217948	0.263831	0.735732
H197	H	0.772654	-0.243810	0.243327
H198	H	1.272654	0.256190	0.743327
H199	H	0.703815	-0.248296	0.183186
H200	H	1.203815	0.251704	0.683186
H201	H	0.707137	-0.180166	0.244713
H202	H	1.207137	0.319834	0.744713
H203	H	1.026660	-0.498183	1.103830
H204	H	1.526660	0.001817	1.603830
H205	H	0.429254	-0.304848	0.303939
H206	H	0.929254	0.195152	0.803939
H207	H	0.419956	-0.498554	0.496329
H208	H	0.919956	0.001446	0.996329
C209	C	0.544591	-0.236195	0.235748
C210	C	1.044591	0.263805	0.735748
H211	H	0.582521	-0.204390	0.204168
H212	H	1.082521	0.295610	0.704168
H213	H	0.510838	-0.268048	0.202789
H214	H	1.010838	0.231952	0.702789
H215	H	0.514152	-0.199913	0.264310
H216	H	1.014152	0.300087	0.764310
C217	C	0.528693	-0.567174	0.564499
C218	C	1.028693	-0.067174	1.064499
H219	H	0.473986	-0.559527	0.556915
H220	H	0.973986	-0.059527	1.056915
H221	H	0.539505	-0.623174	0.555527
H222	H	1.039505	-0.123174	1.055527
H223	H	0.542828	-0.555036	0.617046
H224	H	1.042828	-0.055036	1.117046
