data_functionalizedCrystal
_audit_creation_method	'MofGen! by Chris Wilmer'
_symmetry_space_group_name_H-M	'P1'
_symmetry_Int_Tables_number	1
_symmetry_cell_setting	triclinic
loop_
_symmetry_equiv_pos_as_xyz
  x,y,z
_cell_length_a	17.000383
_cell_length_b	17.038272
_cell_length_c	17.766277
_cell_angle_alpha	89.993732
_cell_angle_beta	89.987363
_cell_angle_gamma	83.355929
loop_
_atom_site_label
_atom_site_type_symbol
_atom_site_fract_x
_atom_site_fract_y
_atom_site_fract_z
O1	O	1.058005	0.028053	-0.062646
O2	O	0.828185	0.056296	-0.062637
O3	O	0.941729	-0.071547	-0.062635
O4	O	0.944461	0.155896	-0.062647
O5	O	0.941708	-0.071552	0.062553
O6	O	0.828164	0.056291	0.062552
O7	O	1.057983	0.028048	0.062542
Cu8	Cu	0.943071	0.042169	0.073978
Cu9	Cu	0.943097	0.042175	-0.074072
O10	O	0.944439	0.155892	0.062541
C11	C	0.798624	0.057810	-0.000041
C12	C	0.710571	0.062321	-0.000037
C13	C	0.939234	-0.100508	-0.000041
C14	C	0.931821	-0.186793	-0.000041
C15	C	0.212326	0.091445	-0.000067
C16	C	0.295061	0.087201	-0.000066
C17	C	0.341068	0.013535	-0.000057
C18	C	0.304335	-0.055892	-0.000055
C19	C	0.221601	-0.051647	-0.000062
C20	C	0.591103	-0.002861	-0.000042
C21	C	0.673843	-0.007101	-0.000034
C22	C	0.664564	0.135993	-0.000046
C23	C	0.581828	0.140231	-0.000048
C24	C	0.545103	0.070804	-0.000051
C25	C	0.425637	0.009195	-0.000053
C26	C	0.460535	0.075145	-0.000059
C27	C	0.999879	-0.241568	-0.000043
C28	C	0.992910	-0.322641	-0.000050
C29	C	0.917881	-0.348938	-0.000049
C30	C	0.849817	-0.294156	-0.000050
C31	C	0.856788	-0.213085	-0.000048
C32	C	0.893255	-0.593009	-0.000059
C33	C	0.886289	-0.674088	-0.000058
C34	C	1.029382	-0.702567	-0.000060
C35	C	1.036346	-0.621493	-0.000054
C36	C	0.968283	-0.566718	-0.000058
C37	C	0.910755	-0.431807	-0.000054
C38	C	0.975410	-0.483850	-0.000059
C39	C	1.087545	0.026534	-0.000055
C40	C	1.175598	0.022024	-0.000064
C41	C	0.946935	0.184852	-0.000055
C42	C	0.954348	0.271137	-0.000060
N43	N	0.943059	0.042165	0.178108
N44	N	0.943115	0.042173	-0.178202
C45	C	0.993356	-0.014419	0.217496
C46	C	0.993360	-0.014423	0.296297
C47	C	0.943076	0.042170	0.335709
C48	C	0.892770	0.098759	0.296312
C49	C	0.892761	0.098756	0.217511
C50	C	0.937495	0.113760	0.460543
C51	C	0.937509	0.113763	0.539342
C52	C	0.943098	0.042178	0.578755
C53	C	0.948689	-0.029415	0.539360
C54	C	0.948681	-0.029417	0.460559
C55	C	0.943080	0.042178	0.421154
C56	C	0.993402	-0.014415	0.703588
C57	C	0.993401	-0.014420	0.782392
C58	C	0.892815	0.098769	0.782404
C59	C	0.892812	0.098767	0.703603
C60	C	0.943110	0.042175	0.664199
H61	H	0.174873	0.151432	-0.000069
H62	H	0.953240	-0.087707	0.571448
H63	H	0.788727	-0.315573	-0.000054
F64	F	0.703656	0.209876	-0.000047
H65	H	0.711300	-0.067092	-0.000030
F66	F	1.101815	-0.760867	-0.000056
F67	F	1.046930	-0.074648	0.661652
H68	H	0.561212	-0.059393	-0.000043
F69	F	0.954625	-0.105609	0.418635
H70	H	0.825189	-0.695494	-0.000045
H71	H	1.048330	-0.367237	-0.000050
H72	H	0.423073	0.135124	-0.000070
F73	F	1.046931	-0.074651	0.824312
F74	F	0.839251	0.158987	0.338256
F75	F	0.839294	0.158995	0.824345
H76	H	0.837832	-0.548421	-0.000062
F77	F	0.784350	-0.154789	-0.000048
H78	H	0.851859	0.144846	0.671531
F79	F	0.931604	0.189954	0.418605
F80	F	1.046895	-0.074651	0.338223
F81	F	1.055258	-0.455861	-0.000063
H82	H	0.849666	-0.453227	-0.000052
H83	H	0.932962	0.172057	0.571412
H84	H	1.034309	-0.060501	0.185416
H85	H	1.060976	-0.220165	-0.000039
F86	F	0.474608	-0.069204	-0.000037
F87	F	1.116202	-0.593513	-0.000073
F88	F	0.353301	-0.134293	-0.000048
F89	F	0.334145	0.161089	-0.000073
F90	F	0.839227	0.158983	0.175591
H91	H	0.544375	0.200218	-0.000058
H92	H	0.191699	-0.108177	-0.000060
