data_functionalizedCrystal
_audit_creation_method	'MofGen! by Chris Wilmer'
_symmetry_space_group_name_H-M	'P1'
_symmetry_Int_Tables_number	1
_symmetry_cell_setting	triclinic
loop_
_symmetry_equiv_pos_as_xyz
  x,y,z
_cell_length_a	17.038272
_cell_length_b	16.992695
_cell_length_c	16.053802
_cell_angle_alpha	87.258926
_cell_angle_beta	92.761434
_cell_angle_gamma	90.889890
loop_
_atom_site_label
_atom_site_type_symbol
_atom_site_fract_x
_atom_site_fract_y
_atom_site_fract_z
O1	O	-1.051195	-0.167893	-0.069325
O2	O	-0.551195	0.332107	0.430675
O3	O	-0.823395	-0.165177	-0.069350
O4	O	-0.323395	0.334823	0.430650
O5	O	-0.936382	-0.052332	-0.069331
O6	O	-0.436382	0.447668	0.430669
O7	O	-0.938209	-0.280738	-0.069344
O8	O	-0.438209	0.219262	0.430656
O9	O	-0.930161	-0.058516	0.069527
O10	O	-0.430161	0.441484	0.569527
O11	O	-0.817174	-0.171361	0.069508
O12	O	-0.317174	0.328639	0.569508
O13	O	-1.044974	-0.174077	0.069533
O14	O	-0.544974	0.325923	0.569533
Zn15	Zn	-0.930087	-0.173701	0.091567
Zn16	Zn	-0.430087	0.326299	0.591567
Zn17	Zn	-0.938283	-0.165553	-0.091384
Zn18	Zn	-0.438283	0.334447	0.408616
O19	O	-0.931988	-0.286922	0.069514
O20	O	-0.431988	0.213078	0.569514
C21	C	-0.791002	-0.165799	0.000076
C22	C	-0.291002	0.334201	0.500076
C23	C	-0.703747	-0.158432	0.000067
C24	C	-0.203747	0.341568	0.500067
C25	C	-1.077368	-0.173454	0.000105
C26	C	-0.577368	0.326546	0.500105
C27	C	-1.164623	-0.180822	0.000109
C28	C	-0.664623	0.319178	0.500109
C29	C	-0.930922	-0.026054	0.000098
C30	C	-0.430922	0.473946	0.500098
C31	C	-0.923911	0.061457	0.000097
C32	C	-0.423911	0.561457	0.500097
C33	C	-0.657877	-0.226072	0.000064
C34	C	-0.157877	0.273928	0.500064
C35	C	-0.575891	-0.219145	0.000076
C36	C	-0.075891	0.280855	0.500076
C37	C	-0.539777	-0.144578	0.000085
C38	C	-0.039777	0.355422	0.500085
C39	C	-0.585654	-0.076933	0.000090
C40	C	-0.085654	0.423067	0.500090
C41	C	-0.667637	-0.083861	0.000084
C42	C	-0.167637	0.416139	0.500084
C43	C	-0.292483	-0.120105	0.000108
C44	C	0.207517	0.379895	0.500108
C45	C	-0.210493	-0.113182	0.000112
C46	C	0.289507	0.386818	0.500112
C47	C	-0.200736	-0.255395	0.000099
C48	C	0.299264	0.244605	0.500099
C49	C	-0.282722	-0.262316	0.000088
C50	C	0.217278	0.237684	0.500088
C51	C	-0.328591	-0.194671	0.000098
C52	C	0.171409	0.305329	0.500098
C53	C	-0.455975	-0.137496	0.000094
C54	C	0.044025	0.362504	0.500094
C55	C	-0.412392	-0.201754	0.000094
C56	C	0.087608	0.298246	0.500094
C57	C	-0.937448	-0.313199	0.000083
C58	C	-0.437448	0.186801	0.500083
C59	C	-0.944458	-0.400711	0.000079
C60	C	-0.444458	0.099289	0.500079
N61	N	-0.924499	-0.179261	0.216426
N62	N	-0.424499	0.320739	0.716426
C63	C	-0.991551	0.107186	0.000105
C64	C	-0.491551	0.607186	0.500105
C65	C	-0.984960	0.189412	0.000096
C66	C	-0.484960	0.689412	0.500096
C67	C	-0.910728	0.225909	0.000085
C68	C	-0.410728	0.725909	0.500085
C69	C	-0.843083	0.180175	0.000075
C70	C	-0.343083	0.680175	0.500075
C71	C	-0.849676	0.097950	0.000077
C72	C	-0.349676	0.597950	0.500077
C73	C	-0.883406	0.471330	0.000071
C74	C	-0.383406	0.971330	0.500071
C75	C	-0.876819	0.553561	0.000071
C76	C	-0.376819	1.053561	0.500071
C77	C	-1.018696	0.562793	0.000091
C78	C	-0.518696	1.062793	0.500091
C79	C	-1.025282	0.480565	0.000098
C80	C	-0.525282	0.980565	0.500098
C81	C	-0.957637	0.434839	0.000083
C82	C	-0.457637	0.934839	0.500083
N83	N	-0.903989	0.309958	0.000079
N84	N	-0.403989	0.809958	0.500079
N85	N	-0.964377	0.350792	0.000083
N86	N	-0.464377	0.850792	0.500083
N87	N	-0.943877	-0.159987	-0.216244
N88	N	-0.443877	0.340013	0.283756
C89	C	-0.972594	-0.131265	0.260128
C90	C	-0.472594	0.368735	0.760128
C91	C	-0.968693	-0.135162	0.347534
C92	C	-0.468693	0.364838	0.847534
C93	C	-0.916700	-0.187061	0.391237
C94	C	-0.416700	0.312939	0.891237
C95	C	-0.868599	-0.235059	0.347529
C96	C	-0.368599	0.264941	0.847529
C97	C	-0.872497	-0.231157	0.260124
C98	C	-0.372497	0.268843	0.760124
C99	C	-0.899673	-0.204083	0.652644
C100	C	-0.399673	0.295917	1.152644
C101	C	-0.895781	-0.207983	0.740054
C102	C	-0.395781	0.292017	1.240054
C103	C	-0.995875	-0.108085	0.740054
C104	C	-0.495875	0.391915	1.240054
C105	C	-0.999771	-0.104191	0.652648
C106	C	-0.499771	0.395809	1.152648
C107	C	-0.951667	-0.152186	0.608947
C108	C	-0.451667	0.347814	1.108947
N109	N	-0.912713	-0.191048	0.480580
N110	N	-0.412713	0.308952	0.980580
N111	N	-0.955651	-0.148195	0.519606
N112	N	-0.455651	0.351805	1.019606
H113	H	-0.687274	-0.286792	0.000056
H114	H	-0.187274	0.213208	0.500056
H115	H	-1.040040	0.226641	0.000105
H116	H	-0.540040	0.726641	0.500105
F117	F	-0.417533	-0.058138	0.000101
F118	F	0.082467	0.441862	0.500101
F119	F	-0.151914	-0.327382	0.000090
F120	F	0.348086	0.172618	0.500090
H121	H	-0.860506	-0.243164	0.617070
H122	H	-0.360506	0.256836	1.117070
F123	F	-0.840440	-0.263226	0.786561
F124	F	-0.340440	0.236774	1.286561
H125	H	-0.826261	-0.277313	0.383117
H126	H	-0.326261	0.222687	0.883117
F127	F	-0.777684	0.049283	0.000066
F128	F	-0.277684	0.549283	0.500066
F129	F	-1.019881	-0.084079	0.394046
F130	F	-0.519881	0.415921	0.894046
F131	F	-1.070559	0.068350	0.000124
F132	F	-0.570559	0.568350	0.500124
F133	F	-1.055109	-0.048956	0.606137
F134	F	-0.555109	0.451044	1.106137
H135	H	-1.085729	0.450856	0.000107
H136	H	-0.585729	0.950856	0.500107
H137	H	-0.833331	-0.270239	0.224543
H138	H	-0.333331	0.229761	0.724543
H139	H	-1.014936	-0.089007	0.224551
H140	H	-0.514936	0.410993	0.724551
H141	H	-1.035038	-0.069009	0.775643
H142	H	-0.535038	0.430991	1.275643
H143	H	-1.073768	0.600032	0.000101
H144	H	-0.573768	1.100032	0.500101
F145	F	-0.321151	-0.341680	0.000073
F146	F	0.178849	0.158320	0.500073
F147	F	-0.172060	-0.033814	0.000136
F148	F	0.327940	0.466186	0.500136
F149	F	-0.341289	-0.048110	0.000119
F150	F	0.158711	0.451890	0.500119
F151	F	-0.527076	-0.291137	0.000069
F152	F	-0.027076	0.208863	0.500069
F153	F	-0.547216	0.002427	0.000106
F154	F	-0.047216	0.502427	0.500106
H155	H	-0.441799	-0.262466	0.000091
H156	H	0.058201	0.237534	0.500091
F157	F	-0.716456	-0.011869	0.000091
F158	F	-0.216456	0.488131	0.500091
F159	F	-0.797807	0.592401	0.000063
F160	F	-0.297807	1.092401	0.500063
F161	F	-0.811412	0.422675	0.000053
F162	F	-0.311412	0.922675	0.500053
H163	H	-0.782642	0.209897	0.000061
H164	H	-0.282642	0.709897	0.500061
