data_functionalizedCrystal
_audit_creation_method	'MofGen! by Chris Wilmer'
_symmetry_space_group_name_H-M	'P1'
_symmetry_Int_Tables_number	1
_symmetry_cell_setting	triclinic
loop_
_symmetry_equiv_pos_as_xyz
  x,y,z
_cell_length_a	19.851628
_cell_length_b	17.917603
_cell_length_c	17.917559
_cell_angle_alpha	60.139256
_cell_angle_beta	90.006775
_cell_angle_gamma	63.032829
loop_
_atom_site_label
_atom_site_type_symbol
_atom_site_fract_x
_atom_site_fract_y
_atom_site_fract_z
Zr1	Zr	0.687409	0.806773	-0.128966
O2	O	0.590747	0.951814	-0.249514
O3	O	0.712421	0.654543	-0.087312
O4	O	0.724626	0.796389	-0.242717
O5	O	0.574170	0.820664	0.023131
O6	O	0.835487	0.796376	-0.242702
O7	O	0.578542	0.809967	-0.094109
O8	O	0.813654	0.542639	0.035289
O9	O	0.596002	1.074402	-0.254860
O10	O	0.811404	0.719810	-0.075214
O11	O	0.725406	0.727803	0.012269
O12	O	0.739776	0.894809	-0.170700
O13	O	0.653779	0.902802	-0.083216
Zr14	Zr	0.857245	0.823812	0.058041
Zr15	Zr	0.864219	0.806752	-0.128943
Zr16	Zr	0.680435	0.823833	0.058018
Zr17	Zr	0.695789	1.002287	-0.137493
Zr18	Zr	0.848864	0.628298	0.066568
O19	O	0.832232	0.976042	0.016387
O20	O	0.842148	0.951784	-0.249480
O21	O	0.580831	0.976072	0.016353
O22	O	0.953906	0.678771	0.178589
O23	O	0.963822	0.654513	-0.087278
O24	O	0.702505	0.678801	0.178555
O25	O	0.970484	0.809921	-0.094056
O26	O	0.820027	0.834196	0.171792
O27	O	0.709166	0.834209	0.171777
O28	O	0.966111	0.820618	0.023184
O29	O	0.736542	1.074385	-0.254841
O30	O	0.808111	0.556200	0.183917
O31	O	0.948651	0.556183	0.183935
O32	O	0.954195	0.542622	0.035308
O33	O	0.590459	1.087963	-0.106233
O34	O	0.730999	1.087946	-0.106214
O35	O	0.804877	0.735776	0.099775
O36	O	0.890874	0.727783	0.012292
O37	O	0.819247	0.902782	-0.083194
O38	O	0.733249	0.910775	0.004289
C39	C	0.761844	0.570734	-0.024796
C40	C	0.758286	0.487733	-0.021176
C41	C	0.751785	0.335768	-0.014566
C42	C	0.792866	0.294813	-0.056357
C43	C	0.789249	0.210254	-0.052679
C44	C	0.755401	0.420334	-0.018243
C45	C	0.551164	0.815319	-0.035492
C46	C	0.476104	0.815327	-0.035502
C47	C	0.255703	0.910724	-0.087535
C48	C	0.232493	0.857697	-0.119931
C49	C	0.338695	0.815302	-0.035476
C50	C	0.228165	0.868334	-0.003096
C51	C	0.205961	0.815286	-0.035451
C52	C	0.316476	0.762271	-0.067920
C53	C	0.312145	0.772926	0.048960
C54	C	0.288984	0.719829	0.016587
C55	C	0.415158	0.815315	-0.035492
C56	C	0.129503	0.815265	-0.035436
C57	C	0.993489	0.815266	-0.035433
C58	C	1.068549	0.815257	-0.035423
C59	C	0.781050	0.793952	-0.269351
C60	C	0.784011	0.786709	-0.348731
C61	C	0.782810	1.059851	-0.046128
C62	C	0.786367	1.142852	-0.049748
C63	C	0.755219	0.857094	-0.576835
C64	C	0.789433	0.773496	-0.494087
C65	C	0.786415	0.780850	-0.413204
C66	C	0.758236	0.849741	-0.657727
C67	C	0.763603	0.836633	0.198426
C68	C	0.760642	0.843876	0.277806
C69	C	0.983006	0.570708	-0.024767
C70	C	1.054508	0.487698	-0.021137
C71	C	0.753120	0.592075	0.209092
C72	C	0.746602	0.516317	0.292092
C73	C	0.974282	0.592049	0.209122
C74	C	1.042824	0.516282	0.292131
C75	C	0.570371	1.038536	-0.280047
C76	C	0.501829	1.114303	-0.363056
C77	C	0.561647	1.059877	-0.046158
C78	C	0.490145	1.142887	-0.049788
C79	C	0.791533	1.038510	-0.280017
C80	C	0.798052	1.114268	-0.363016
C81	C	1.046604	0.444553	-0.065117
C82	C	1.113783	0.366566	-0.061724
C83	C	1.188865	0.331721	-0.014345
C84	C	1.196768	0.374873	0.029636
C85	C	1.129590	0.452864	0.026237
C86	C	0.785023	0.484903	0.376754
C87	C	0.778895	0.413731	0.454748
C88	C	0.734350	0.373970	0.448077
C89	C	0.695924	0.405391	0.363405
C90	C	0.702048	0.476566	0.285414
C91	C	1.119909	0.476528	0.285448
C92	C	1.184319	0.405348	0.363437
C93	C	1.171642	0.373916	0.448108
C94	C	1.094549	0.413677	0.454790
C95	C	1.030141	0.484861	0.376801
C96	C	0.424744	1.154066	-0.356373
C97	C	0.360335	1.225271	-0.434363
C98	C	0.373013	1.256707	-0.519035
C99	C	0.450106	1.216941	-0.525716
C100	C	0.514513	1.145743	-0.447727
C101	C	0.498050	1.186039	-0.005816
C102	C	0.430873	1.264046	-0.009230
C103	C	0.355791	1.298894	-0.056612
C104	C	0.347888	1.255738	-0.100590
C105	C	0.415065	1.177737	-0.097180
C106	C	0.842603	1.154007	-0.356317
C107	C	0.848743	1.225180	-0.434296
C108	C	0.810327	1.256618	-0.518974
C109	C	0.765774	1.216872	-0.525672
C110	C	0.759639	1.145695	-0.447693
H111	H	0.242374	0.991401	-0.131616
H112	H	0.985476	0.472922	-0.103709
Cl113	Cl	0.841029	0.534871	0.385164
Cl114	Cl	1.139540	0.507088	0.081541
H115	H	0.723663	0.934181	-0.586931
H116	H	0.967376	0.517220	0.382256
H117	H	0.830751	0.323256	-0.094898
H118	H	1.224094	0.315952	0.511604
H119	H	0.713902	0.307327	0.023971
Cl120	Cl	0.639929	0.355393	0.355035
Cl121	Cl	0.726661	0.284490	0.546134
H122	H	0.460419	1.242546	-0.594665
Cl123	Cl	1.135868	0.516034	0.179013
Cl124	Cl	0.263427	1.275244	-0.425943
Cl125	Cl	1.273309	0.233671	-0.010079
Cl126	Cl	0.179366	0.913002	-0.230158
Cl127	Cl	0.253493	1.299554	-0.160147
Cl128	Cl	0.818045	1.346104	-0.616997
H129	H	0.354457	0.717460	-0.095377
H130	H	0.670762	0.502133	0.216481
H131	H	1.107333	0.331440	-0.097539
H132	H	1.257908	0.346491	0.068211
Cl133	Cl	0.309723	0.595187	0.084508
H134	H	0.301098	1.362408	-0.059381
Cl135	Cl	0.904750	1.275139	-0.425856
Cl136	Cl	0.611418	1.095756	-0.456144
Cl137	Cl	0.717475	1.256415	-0.632133
Cl138	Cl	0.440826	1.318279	0.046066
Cl139	Cl	0.827211	0.374242	0.561180
H140	H	0.346553	0.737139	0.120339
H141	H	0.320561	1.314682	-0.582531
H142	H	1.247086	0.372981	0.357981
H143	H	1.084238	0.388074	0.523740
Cl144	Cl	0.703618	1.095755	-0.456132
H145	H	0.414407	1.128475	-0.287436
Cl146	Cl	0.838156	0.654467	-0.478493
Cl147	Cl	0.592430	1.142252	0.053751
H148	H	0.873887	1.128422	-0.287375
Cl149	Cl	0.169368	0.937582	0.039169
Cl150	Cl	0.405113	1.123491	-0.152459
