data_functionalizedCrystal
_audit_creation_method	'MofGen! by Chris Wilmer'
_symmetry_space_group_name_H-M	'P1'
_symmetry_Int_Tables_number	1
_symmetry_cell_setting	triclinic
loop_
_symmetry_equiv_pos_as_xyz
  x,y,z
_cell_length_a	19.077236
_cell_length_b	12.759400
_cell_length_c	19.076919
_cell_angle_alpha	87.723966
_cell_angle_beta	90.112677
_cell_angle_gamma	92.306121
loop_
_atom_site_label
_atom_site_type_symbol
_atom_site_fract_x
_atom_site_fract_y
_atom_site_fract_z
Zn1	Zn	1.058341	-0.381376	0.440562
Zn2	Zn	1.063003	-0.549744	0.323064
Zn3	Zn	0.945556	-0.380825	0.318342
Zn4	Zn	0.940824	-0.563760	0.435803
O5	O	1.001931	-0.468926	0.379442
O6	O	1.157292	-0.398075	0.428943
O7	O	1.051355	-0.521240	0.224106
O8	O	0.960547	-0.233876	0.334570
O9	O	1.160717	-0.521774	0.342618
O10	O	1.043409	-0.234281	0.424364
O11	O	0.965068	-0.397136	0.220637
O12	O	0.846596	-0.410727	0.329955
O13	O	0.952481	-0.545663	0.534765
O14	O	0.843119	-0.545129	0.416253
O15	O	1.038820	-0.411666	0.538261
O16	O	1.046766	-0.698625	0.338003
O17	O	0.957002	-0.708923	0.420832
C18	C	0.819361	-0.479390	0.372076
C19	C	0.741255	-0.483893	0.368941
C20	C	0.702776	-0.421715	0.412482
C21	C	0.629388	-0.425941	0.409530
C22	C	0.594481	-0.492350	0.363041
C23	C	0.632966	-0.554529	0.319496
C24	C	0.706352	-0.550298	0.322444
C25	C	0.375190	-0.511895	0.349393
C26	C	0.301798	-0.516124	0.346449
C27	C	0.298226	-0.387533	0.436483
C28	C	0.371614	-0.383312	0.439431
C29	C	0.410092	-0.445488	0.395882
N30	N	0.519467	-0.496673	0.360025
N31	N	0.485105	-0.441158	0.398896
C32	C	1.001895	-0.741895	0.379430
C33	C	1.001942	-0.858670	0.379451
C34	C	1.045065	-0.913667	0.426242
C35	C	1.045097	-1.023390	0.426261
C36	C	0.958882	-1.023110	0.332689
C37	C	0.958847	-0.913389	0.332675
C38	C	1.088160	-0.858948	0.473018
C39	C	1.131287	-0.913944	0.519813
C40	C	1.131319	-1.023668	0.519832
C41	C	1.088224	-1.078394	0.473055
C42	C	1.185214	-0.458422	0.386838
C43	C	1.263319	-0.453946	0.389990
C44	C	0.994603	-0.480289	0.562722
C45	C	0.991480	-0.485132	0.640825
C46	C	1.001986	-0.194891	0.379471
C47	C	1.002010	-0.078114	0.379483
C48	C	1.009271	-0.457529	0.196877
C49	C	1.012530	-0.452383	0.118780
C50	C	1.034963	-0.417645	0.679340
C51	C	1.032020	-0.422191	0.752725
C52	C	0.985598	-0.494230	0.787595
C53	C	0.942110	-0.561720	0.749076
C54	C	0.945050	-0.557168	0.675691
C55	C	0.971982	-0.515321	1.006876
C56	C	0.969047	-0.519870	1.080266
C57	C	1.058957	-0.380339	1.083910
C58	C	1.061895	-0.375797	1.010524
C59	C	1.018405	-0.443284	0.972011
N60	N	0.982590	-0.498881	0.862607
N61	N	1.021410	-0.438627	0.897000
H62	H	0.400030	-0.329239	0.477290
O63	O	0.256720	-0.320466	0.483440
H64	H	0.268603	-0.341219	0.539137
H65	H	0.273379	-0.570207	0.308591
O66	O	0.925042	-0.588054	0.965338
H67	H	0.892260	-0.638897	1.001917
O68	O	1.177770	-0.854923	0.570258
H69	H	1.163478	-0.880067	0.624915
O70	O	1.111966	-0.298093	0.972920
H71	H	1.106709	-0.306273	0.915420
O72	O	0.912341	-0.854067	0.282201
H73	H	0.875289	-0.808110	0.312172
O74	O	0.416688	-0.578948	0.302423
H75	H	0.380084	-0.625840	0.269606
H76	H	0.923797	-1.067677	0.294606
H77	H	0.931242	-0.578536	1.108655
O78	O	0.892034	-0.639417	0.786680
H79	H	0.897297	-0.631251	0.844180
O80	O	0.587888	-0.358873	0.456492
H81	H	0.553022	-0.410117	0.490841
H82	H	1.088245	-1.167739	0.473082
H83	H	0.909634	-0.612113	0.644333
O84	O	1.088124	-0.740604	0.472996
H85	H	1.125331	-0.711792	0.513385
H86	H	1.072767	-0.358986	0.650954
H87	H	0.604538	-0.608596	0.281640
H88	H	1.067430	-0.367238	0.784081
O89	O	1.177823	-1.082989	0.570307
H90	H	1.214866	-1.128965	0.540338
O91	O	1.105842	-0.307522	1.125447
H92	H	1.095992	-0.322773	1.182333
H93	H	0.737681	-0.600929	0.286988
O94	O	0.740426	-0.350081	0.462620
H95	H	0.701337	-0.307546	0.492394
