data_functionalizedCrystal
_audit_creation_method	'MofGen! by Chris Wilmer'
_symmetry_space_group_name_H-M	'P1'
_symmetry_Int_Tables_number	1
_symmetry_cell_setting	triclinic
loop_
_symmetry_equiv_pos_as_xyz
  x,y,z
_cell_length_a	14.446369
_cell_length_b	14.628931
_cell_length_c	14.628931
_cell_angle_alpha	60.000000
_cell_angle_beta	90.000654
_cell_angle_gamma	59.998427
loop_
_atom_site_label
_atom_site_type_symbol
_atom_site_fract_x
_atom_site_fract_y
_atom_site_fract_z
Zr1	Zr	0.891768	1.000532	-0.119930
O2	O	0.743958	1.191246	-0.265897
O3	O	0.937080	0.809824	-0.075184
O4	O	0.937080	1.000530	-0.265890
O5	O	0.743959	1.000540	0.075241
O6	O	1.089417	1.000522	-0.265884
O7	O	0.743959	1.000540	-0.075191
O8	O	1.089418	0.659383	0.075254
O9	O	0.743958	1.341678	-0.265897
O10	O	1.070093	0.888257	-0.056096
O11	O	0.956405	0.888263	0.056166
O12	O	0.956404	1.112795	-0.168366
O13	O	0.842717	1.112801	-0.056104
Zr14	Zr	1.134729	1.000519	0.120000
Zr15	Zr	1.134729	1.000519	-0.119922
Zr16	Zr	0.891769	1.000532	0.119991
Zr17	Zr	0.891768	1.240454	-0.119931
Zr18	Zr	1.134730	0.760597	0.120000
O19	O	1.089417	1.191228	0.075253
O20	O	1.089416	1.191228	-0.265884
O21	O	0.743959	1.191246	0.075241
O22	O	1.282539	0.809805	0.265966
O23	O	1.282538	0.809805	-0.075171
O24	O	0.937081	0.809824	0.265954
O25	O	1.282538	1.000511	-0.075171
O26	O	1.089418	1.000522	0.265959
O27	O	0.937081	1.000530	0.265954
O28	O	1.282538	1.000511	0.075260
O29	O	0.937079	1.341668	-0.265890
O30	O	1.089419	0.659383	0.265960
O31	O	1.282539	0.659373	0.265967
O32	O	1.282539	0.659373	0.075261
O33	O	0.743958	1.341678	-0.075192
O34	O	0.937079	1.341668	-0.075185
O35	O	1.070093	0.888257	0.168435
O36	O	1.183780	0.888251	0.056174
O37	O	1.070092	1.112788	-0.056096
O38	O	0.956405	1.112795	0.056165
C39	C	1.013249	0.700420	0.000035
C40	C	1.013250	0.598567	0.000036
C41	C	0.933492	0.631921	-0.078727
C42	C	0.933491	0.526652	-0.078728
C43	C	0.709343	1.000542	0.000024
C44	C	0.606200	1.000548	0.000020
C45	C	0.387830	1.142149	-0.070432
C46	C	0.495062	1.142244	-0.070828
C47	C	0.602876	0.930206	-0.051627
C48	C	0.495107	0.931105	-0.052144
C49	C	0.496471	0.928189	0.122209
C50	C	0.602440	0.930857	0.122016
C51	C	1.317155	1.000509	0.000046
C52	C	1.420298	1.000504	0.000050
C53	C	1.013248	1.000526	-0.300070
C54	C	1.013248	1.000526	-0.401923
C55	C	1.013248	1.300631	0.000034
C56	C	1.013248	1.402485	0.000034
C57	C	1.093005	1.000521	-0.447330
C58	C	1.093006	1.000521	-0.552600
C59	C	1.013249	1.000526	0.300140
C60	C	1.013250	1.000526	0.401993
C61	C	1.317155	0.700403	0.000046
C62	C	1.420299	0.598545	0.000050
C63	C	1.013250	0.700420	0.300141
C64	C	1.013250	0.598567	0.401994
C65	C	1.317156	0.700403	0.300152
C66	C	1.420299	0.598545	0.402009
C67	C	0.709341	1.300648	-0.300082
C68	C	0.606198	1.402507	-0.401939
C69	C	0.709342	1.300648	0.000023
C70	C	0.606199	1.402507	0.000019
C71	C	1.013247	1.300631	-0.300071
C72	C	1.013247	1.402485	-0.401924
C73	C	1.409886	0.553136	-0.055641
C74	C	1.516489	0.447859	-0.055638
C75	C	1.069647	0.553154	0.503097
C76	C	1.069649	0.447884	0.608368
C77	C	1.522681	0.553130	0.391730
C78	C	1.629286	0.447853	0.497003
H79	H	1.081530	0.374094	0.067473
H80	H	0.964973	0.441524	0.511351
H81	H	0.492616	1.197772	-0.160941
H82	H	1.717114	0.408794	0.488377
H83	H	0.944969	1.000522	-0.440980
H84	H	1.627611	0.441486	0.047747
N85	N	1.130202	0.602167	0.513906
N86	N	1.130108	0.687619	0.428375
H87	H	1.172874	0.722236	0.436010
H88	H	1.508134	0.559486	0.047728
N89	N	1.505535	0.398854	-0.115439
N90	N	1.592147	0.313399	-0.115347
H91	H	1.584413	0.278784	-0.157582
N92	N	0.847844	0.765513	-0.163322
N93	N	0.847970	0.850837	-0.163204
H94	H	0.787479	0.945189	-0.222952
N95	N	0.927565	1.000559	-0.549051
N96	N	0.863014	1.091203	-0.540954
H97	H	0.802497	1.091231	-0.506374
H98	H	0.964963	0.559516	0.393372
H99	H	1.117934	0.408829	0.695100
H100	H	1.081533	0.492077	0.067464
H101	H	0.493302	1.197715	-0.036454
H102	H	1.411570	0.559491	0.488745
H103	H	0.865205	0.555034	-0.146158
N104	N	1.178690	1.000485	-0.601558
N105	N	1.280787	0.909837	-0.545610
H106	H	1.341308	0.909806	-0.580184
N107	N	1.533624	0.602144	0.282918
N108	N	1.447010	0.687599	0.197555
H109	H	1.454740	0.722217	0.120704
N110	N	1.508699	0.451401	0.608945
N111	N	1.441415	0.440724	0.568553
H112	H	1.363602	0.475296	0.576209
H113	H	0.605011	0.979064	-0.140666
H114	H	0.446448	0.973510	0.165354
H115	H	0.332845	1.197470	-0.160001
N116	N	0.320141	1.211880	-0.027187
N117	N	0.295031	1.158004	0.056081
H118	H	0.247220	1.207250	0.086627
H119	H	0.444763	0.981094	-0.142036
N120	N	0.528553	0.800733	0.008094
N121	N	0.631342	0.709374	0.050375
H122	H	0.654968	0.617299	0.092912
H123	H	0.681145	0.826021	-0.002763
H124	H	0.601922	0.982146	0.160599
H125	H	0.681599	0.827481	0.178949
H126	H	0.523911	0.823846	0.174972
N127	N	1.299695	0.602155	-0.115466
N128	N	1.213254	0.687611	-0.115389
H129	H	1.135430	0.722232	-0.157643
H130	H	1.161291	1.000511	-0.408268
