data_functionalizedCrystal
_audit_creation_method	'MofGen! by Chris Wilmer'
_symmetry_space_group_name_H-M	'P1'
_symmetry_Int_Tables_number	1
_symmetry_cell_setting	triclinic
loop_
_symmetry_equiv_pos_as_xyz
  x,y,z
_cell_length_a	12.759401
_cell_length_b	12.759399
_cell_length_c	11.169409
_cell_angle_alpha	90.030608
_cell_angle_beta	90.022344
_cell_angle_gamma	90.011575
loop_
_atom_site_label
_atom_site_type_symbol
_atom_site_fract_x
_atom_site_fract_y
_atom_site_fract_z
Zn1	Zn	-1.606272	0.418295	-0.678614
Zn2	Zn	-1.606157	0.594020	-0.477936
Zn3	Zn	-1.430567	0.418344	-0.477942
Zn4	Zn	-1.430560	0.593920	-0.678575
O5	O	-1.518389	0.506145	-0.578267
O6	O	-1.753278	0.441627	-0.652007
O7	O	-1.582819	0.570779	-0.309987
O8	O	-1.453926	0.271316	-0.504580
O9	O	-1.753193	0.570731	-0.504571
O10	O	-1.583016	0.271280	-0.652012
O11	O	-1.453814	0.441710	-0.309991
O12	O	-1.283545	0.441613	-0.504542
O13	O	-1.453913	0.570560	-0.846530
O14	O	-1.283540	0.570608	-0.651947
O15	O	-1.583008	0.441529	-0.846558
O16	O	-1.582812	0.741028	-0.504533
O17	O	-1.453802	0.740954	-0.651941
C18	C	-1.245421	0.506105	-0.578242
C19	C	-1.128645	0.506114	-0.578259
C20	C	-1.073820	0.439013	-0.655147
C21	C	-0.964096	0.439027	-0.655151
C22	C	-0.964031	0.573252	-0.501377
C23	C	-1.073753	0.573232	-0.501367
C24	C	-1.073856	0.361522	-0.743931
C25	C	-0.964132	0.361536	-0.743935
C26	C	-1.518322	0.779112	-0.578259
C27	C	-1.518390	0.895889	-0.578295
C28	C	-1.518473	0.506028	-0.891309
C29	C	-1.518509	0.505979	-1.024709
C30	C	-0.792422	0.506171	-0.578285
C31	C	-0.909199	0.506148	-0.578273
C32	C	-1.585639	0.950754	-0.501628
C33	C	-1.585702	1.060478	-0.501672
C34	C	-1.451257	1.060461	-0.655054
C35	C	-1.451200	0.950739	-0.655015
C36	C	-1.663257	0.950765	-0.413071
C37	C	-1.663319	1.060489	-0.413114
C38	C	-1.518480	1.232111	-0.578317
C39	C	-1.518509	1.115335	-0.578378
C40	C	-1.518365	0.506185	-0.266442
C41	C	-1.518533	0.505938	-0.133043
H42	H	-0.934390	0.383427	-0.836850
N43	N	-1.634525	1.100060	-0.289980
H44	H	-1.621623	1.038577	-0.235002
H45	H	-1.568926	1.144111	-0.295370
H46	H	-1.740624	1.094438	-0.446489
H47	H	-1.118388	0.627862	-0.438747
N48	N	-1.113295	0.253707	-0.711144
H49	H	-1.192452	0.253650	-0.711126
H50	H	-1.086884	0.201026	-0.771525
N51	N	-0.919039	0.259112	-0.700035
H52	H	-0.943485	0.200201	-0.753643
H53	H	-0.839991	0.262956	-0.701629
N54	N	-1.378675	0.891558	-0.737710
H55	H	-1.394971	0.910579	-0.823484
H56	H	-1.303654	0.910744	-0.718906
N57	N	-1.378791	1.119622	-0.737798
H58	H	-1.389032	1.197456	-0.726193
H59	H	-1.303754	1.100514	-0.719036
N60	N	-1.118983	0.400230	-0.860813
H61	H	-1.163561	0.343403	-0.897889
H62	H	-1.163488	0.464292	-0.845481
H63	H	-1.744601	0.920912	-0.438033
H64	H	-1.634129	0.916818	-0.324734
H65	H	-0.919325	0.627898	-0.438774
