data_functionalizedCrystal
_audit_creation_method	'MofGen! by Chris Wilmer'
_symmetry_space_group_name_H-M	'P1'
_symmetry_Int_Tables_number	1
_symmetry_cell_setting	triclinic
loop_
_symmetry_equiv_pos_as_xyz
  x,y,z
_cell_length_a	12.645331
_cell_length_b	16.959454
_cell_length_c	16.959447
_cell_angle_alpha	90.026736
_cell_angle_beta	89.984361
_cell_angle_gamma	89.980946
loop_
_atom_site_label
_atom_site_type_symbol
_atom_site_fract_x
_atom_site_fract_y
_atom_site_fract_z
Zn1	Zn	1.620640	0.314687	-0.446956
Zn2	Zn	2.120640	0.814687	0.053044
Zn3	Zn	1.620536	0.446880	-0.314786
Zn4	Zn	2.120536	0.946880	0.185214
Zn5	Zn	1.443376	0.314717	-0.314791
Zn6	Zn	1.943376	0.814717	0.185209
Zn7	Zn	1.443329	0.446826	-0.446921
Zn8	Zn	1.943329	0.946826	0.053079
O9	O	1.531970	0.380777	-0.380864
O10	O	2.031970	0.880777	0.119136
O11	O	1.768974	0.332234	-0.429436
O12	O	2.268974	0.832234	0.070564
O13	O	1.597012	0.429383	-0.204176
O14	O	2.097012	0.929383	0.295824
O15	O	1.466954	0.204102	-0.332339
O16	O	1.966954	0.704102	0.167661
O17	O	1.768897	0.429355	-0.332331
O18	O	2.268897	0.929355	0.167669
O19	O	1.597189	0.204080	-0.429441
O20	O	2.097189	0.704080	0.070559
O21	O	1.466853	0.332284	-0.204179
O22	O	1.966853	0.832284	0.295821
O23	O	1.295023	0.332231	-0.332306
O24	O	1.795023	0.832231	0.167694
O25	O	1.466873	0.429262	-0.557537
O26	O	1.966873	0.929262	-0.057537
O27	O	1.294988	0.429291	-0.429381
O28	O	1.794988	0.929291	0.070619
O29	O	1.597143	0.332181	-0.557562
O30	O	2.097143	0.832181	-0.057562
O31	O	1.596966	0.557484	-0.332297
O32	O	2.096966	1.057484	0.167703
O33	O	1.466773	0.557444	-0.429377
O34	O	1.966773	1.057444	0.070623
C35	C	1.531882	0.586144	-0.380850
C36	C	2.031882	1.086144	0.119150
C37	C	1.531941	0.674000	-0.380871
C38	C	2.031941	1.174000	0.119129
C39	C	1.256541	0.380759	-0.380841
C40	C	1.756541	0.880759	0.119159
C41	C	1.138711	0.380770	-0.380850
C42	C	1.638711	0.880770	0.119150
C43	C	1.532015	0.380712	-0.587032
C44	C	2.032015	0.880712	-0.087032
C45	C	1.532033	0.380684	-0.674888
C46	C	2.032033	0.880684	-0.174888
C47	C	0.971133	0.319429	-0.320116
C48	C	1.471133	0.819429	0.179884
C49	C	1.093693	0.319587	-0.319848
C50	C	1.593693	0.819587	0.180152
C51	C	1.094189	0.464037	-0.358096
C52	C	1.594189	0.964037	0.141904
C53	C	0.971591	0.463702	-0.357682
C54	C	1.471591	0.963702	0.142318
C55	C	0.971549	0.359636	-0.464571
C56	C	1.471549	0.859636	0.035429
C57	C	1.094155	0.357776	-0.464106
C58	C	1.594155	0.857776	0.035894
C59	C	1.808476	0.380797	-0.380887
C60	C	2.308476	0.880797	0.119113
C61	C	1.926306	0.380805	-0.380897
C62	C	2.426306	0.880805	0.119103
C63	C	1.532088	0.174609	-0.380894
C64	C	2.032088	0.674609	0.119106
C65	C	1.532139	0.086753	-0.380907
C66	C	2.032139	0.586753	0.119093
C67	C	1.464277	1.045485	-0.431407
C68	C	1.964277	1.545485	0.068593
C69	C	1.599959	1.045467	-0.330400
C70	C	2.099959	1.545467	0.169600
C71	C	1.599922	0.962921	-0.330393
C72	C	2.099922	1.462921	0.169607
C73	C	1.532060	0.921653	-0.380893
C74	C	2.032060	1.421653	0.119107
C75	C	1.464236	0.962931	-0.431400
C76	C	1.964236	1.462931	0.068600
C77	C	1.667738	0.921636	-0.279881
C78	C	2.167738	1.421636	0.220119
C79	C	1.667703	0.839085	-0.279871
C80	C	2.167703	1.339085	0.220129
C81	C	1.599845	0.797816	-0.330376
C82	C	2.099845	1.297816	0.169624
C83	C	1.532019	0.839100	-0.380885
C84	C	2.032019	1.339100	0.119115
C85	C	1.464157	0.797832	-0.431385
C86	C	1.964157	1.297832	0.068615
C87	C	1.396335	0.839114	-0.481900
C88	C	1.896335	1.339114	0.018100
C89	C	1.396379	0.921662	-0.481904
C90	C	1.896379	1.421662	0.018096
C91	C	1.599802	0.715268	-0.330371
C92	C	2.099802	1.215268	0.169629
C93	C	1.464116	0.715279	-0.431378
C94	C	1.964116	1.215279	0.068622
C95	C	1.464335	0.431146	-1.046353
C96	C	1.964335	0.931146	-0.546353
C97	C	1.599986	0.330055	-1.046375
C98	C	2.099986	0.830055	-0.546375
C99	C	1.599957	0.330072	-0.963829
C100	C	2.099957	0.830072	-0.463829
C101	C	1.532118	0.380627	-0.922542
C102	C	2.032118	0.880627	-0.422542
C103	C	1.464306	0.431166	-0.963800
C104	C	1.964306	0.931166	-0.463800
C105	C	1.667775	0.279539	-0.922565
C106	C	2.167775	0.779539	-0.422565
C107	C	1.667750	0.279555	-0.840014
C108	C	2.167750	0.779555	-0.340014
C109	C	1.599905	0.330107	-0.798725
C110	C	2.099905	0.830107	-0.298725
C111	C	1.532090	0.380647	-0.839988
C112	C	2.032090	0.880647	-0.339988
C113	C	1.464250	0.431203	-0.798700
C114	C	1.964250	0.931203	-0.298700
C115	C	1.396429	0.481740	-0.839962
C116	C	1.896429	0.981740	-0.339962
C117	C	1.396461	0.481719	-0.922511
C118	C	1.896461	0.981719	-0.422511
C119	C	1.599873	0.330128	-0.716176
C120	C	2.099873	0.830128	-0.216176
C121	C	1.464222	0.431223	-0.716147
C122	C	1.964222	0.931223	-0.216147
C123	C	1.531987	0.380786	-0.175497
C124	C	2.031987	0.880786	0.324503
C125	C	1.532174	0.380591	-0.087641
C126	C	2.032174	0.880591	0.412359
H127	H	1.123795	0.257842	-0.334110
H128	H	1.623795	0.757842	0.165890
H129	H	1.341161	0.955281	-0.523030
H130	H	1.841161	1.455281	-0.023030
F131	F	1.324237	0.535547	-0.796012
F132	F	1.824237	1.035547	-0.296012
F133	F	1.324291	0.535502	-0.966430
F134	F	1.824291	1.035502	-0.466430
H135	H	1.341077	0.805504	-0.523014
H136	H	1.841077	1.305504	-0.023014
H137	H	1.722927	0.805479	-0.238741
H138	H	2.222927	1.305479	0.261259
F139	F	1.392104	1.089419	-0.485169
F140	F	1.892104	1.589419	0.014831
F141	F	1.134207	0.411947	-0.526466
F142	F	1.634207	0.911947	-0.026466
F143	F	1.672177	1.089389	-0.276658
F144	F	2.172177	1.589389	0.223342
H145	H	1.655223	0.288899	-1.079996
H146	H	2.155223	0.788899	-0.579996
H147	H	0.941670	0.257497	-0.334225
H148	H	1.441670	0.757497	0.165775
H149	H	1.722979	0.955243	-0.238761
H150	H	2.222979	1.455243	0.261239
F151	F	0.930808	0.337501	-0.239548
F152	F	1.430808	0.837501	0.260452
F153	F	1.672054	0.276352	-0.672266
F154	F	2.172054	0.776352	-0.172266
F155	F	1.671968	0.671336	-0.276606
F156	F	2.171968	1.171336	0.223394
H157	H	1.408859	0.681683	-0.472504
H158	H	1.908859	1.181683	0.027496
H159	H	1.123349	0.510989	-0.400977
H160	H	1.623349	1.010989	0.099023
F161	F	1.131979	0.337872	-0.238801
F162	F	1.631979	0.837872	0.261199
H163	H	1.409113	0.472290	-1.079953
H164	H	1.909113	0.972290	-0.579953
H165	H	1.408969	0.472385	-0.682536
H166	H	1.908969	0.972385	-0.182536
F167	F	1.739928	0.225768	-0.796107
F168	F	2.239928	0.725768	-0.296107
F169	F	0.934158	0.487164	-0.277728
F170	F	1.434158	0.987164	0.222272
F171	F	1.134266	0.487906	-0.279000
F172	F	1.634266	0.987906	0.221000
F173	F	0.932827	0.525500	-0.413018
F174	F	1.432827	1.025500	0.086982
F175	F	0.931168	0.281657	-0.491618
F176	F	1.431168	0.781657	0.008382
H177	H	1.123259	0.296501	-0.481264
H178	H	1.623259	0.796501	0.018736
F179	F	0.933658	0.418066	-0.523765
F180	F	1.433658	0.918066	-0.023765
F181	F	1.739976	0.225744	-0.966510
F182	F	2.239976	0.725744	-0.466510
