data_functionalizedCrystal
_audit_creation_method	'MofGen! by Chris Wilmer'
_symmetry_space_group_name_H-M	'P1'
_symmetry_Int_Tables_number	1
_symmetry_cell_setting	triclinic
loop_
_symmetry_equiv_pos_as_xyz
  x,y,z
_cell_length_a	15.995350
_cell_length_b	10.654550
_cell_length_c	9.130313
_cell_angle_alpha	90.004369
_cell_angle_beta	90.002845
_cell_angle_gamma	96.011347
loop_
_atom_site_label
_atom_site_type_symbol
_atom_site_fract_x
_atom_site_fract_y
_atom_site_fract_z
O1	O	1.111924	-0.161873	-0.121582
O2	O	1.611924	0.338127	0.378418
O3	O	0.868265	-0.181862	-0.121633
O4	O	1.368265	0.318138	0.378367
O5	O	0.995697	0.010945	-0.121597
O6	O	1.495697	0.510945	0.378403
O7	O	0.984493	-0.354680	-0.121618
O8	O	1.484493	0.145320	0.378382
O9	O	0.995688	0.010951	0.122002
O10	O	1.495688	0.510951	0.622002
O11	O	0.868256	-0.181856	0.121966
O12	O	1.368256	0.318144	0.621966
O13	O	1.111916	-0.161867	0.122017
O14	O	1.611916	0.338133	0.622017
Cu15	Cu	0.990085	-0.171861	0.144234
Cu16	Cu	1.490085	0.328139	0.644234
Cu17	Cu	0.990096	-0.171868	-0.143850
Cu18	Cu	1.490096	0.328132	0.356150
O19	O	0.984484	-0.354674	0.121981
O20	O	1.484484	0.145326	0.621981
C21	C	0.994870	0.057735	0.000201
C22	C	1.494870	0.557735	0.500201
C23	C	0.992409	0.197146	0.000199
C24	C	1.492409	0.697146	0.500199
C25	C	0.837061	-0.181033	0.000160
C26	C	1.337061	0.318967	0.500160
C27	C	0.744096	-0.178555	0.000141
C28	C	1.244096	0.321445	0.500141
C29	C	1.143120	-0.162696	0.000220
C30	C	1.643120	0.337304	0.500220
C31	C	1.236084	-0.165174	0.000230
C32	C	1.736084	0.334826	0.500230
C33	C	1.573883	-0.174071	0.000170
C34	C	2.073883	0.325929	0.500170
C35	C	1.527247	-0.311385	0.000713
C36	C	2.027247	0.188615	0.500713
C37	C	1.430542	-0.308907	0.000180
C38	C	1.930542	0.191093	0.500180
C39	C	1.406297	-0.169658	0.000201
C40	C	1.906297	0.330342	0.500201
C41	C	1.446970	-0.101933	-0.138905
C42	C	1.946970	0.398067	0.361095
C43	C	1.543625	-0.105382	-0.139037
C44	C	2.043625	0.394618	0.360963
C45	C	1.543991	-0.102540	0.137981
C46	C	2.043991	0.397460	0.637981
C47	C	1.447046	-0.102573	0.139835
C48	C	1.947046	0.397427	0.639835
C49	C	1.311585	-0.167156	0.000213
C50	C	1.811585	0.332844	0.500213
C51	C	1.668596	-0.176569	0.000148
C52	C	2.168596	0.323431	0.500148
C53	C	0.985311	-0.401464	0.000179
C54	C	1.485311	0.098536	0.500179
C55	C	0.987772	-0.540875	0.000172
C56	C	1.487772	-0.040875	0.500172
N57	N	0.990084	-0.171856	0.346857
N58	N	1.490084	0.328144	0.846857
C59	C	1.067438	0.277612	0.000214
C60	C	1.567438	0.777612	0.500214
C61	C	1.065121	0.408602	0.000195
C62	C	1.565121	0.908602	0.500195
C63	C	0.912737	0.378649	0.000153
C64	C	1.412737	0.878649	0.500153
C65	C	0.915055	0.247661	0.000161
C66	C	1.415055	0.747661	0.500161
N67	N	0.990103	-0.171863	-0.346473
N68	N	1.490103	0.328137	0.153527
C69	C	1.046530	-0.086517	0.423524
C70	C	1.546530	0.413483	0.923524
C71	C	1.046538	-0.086517	0.576861
C72	C	1.546538	0.413483	1.076861
C73	C	0.933651	-0.257207	0.576849
C74	C	1.433651	0.242793	1.076849
C75	C	0.933640	-0.257200	0.423515
C76	C	1.433640	0.242800	0.923515
H77	H	1.402437	-0.362150	0.099891
H78	H	1.902437	0.137850	0.599891
H79	H	1.547149	-0.366026	-0.098494
H80	H	2.047149	0.133974	0.401506
Cl81	Cl	1.556905	-0.396474	0.154053
Cl82	Cl	2.056905	0.103526	0.654053
Cl83	Cl	1.387983	-0.391649	-0.154044
Cl84	Cl	1.887983	0.108351	0.345956
Cl85	Cl	1.572314	-0.181641	-0.299590
Cl86	Cl	2.072314	0.318359	0.200410
Cl87	Cl	1.159449	0.509755	0.000211
Cl88	Cl	1.659449	1.009755	0.500211
H89	H	0.887697	-0.326693	0.639280
H90	H	1.387697	0.173307	1.139280
Cl91	Cl	0.820724	0.146496	0.000129
Cl92	Cl	1.320724	0.646496	0.500129
H93	H	1.092500	-0.017025	0.639280
H94	H	1.592500	0.482975	1.139280
Cl95	Cl	0.862670	-0.364486	0.327123
Cl96	Cl	1.362670	0.135514	0.827123
Cl97	Cl	1.117485	0.020777	0.327160
Cl98	Cl	1.617485	0.520777	0.827160
H99	H	1.575287	-0.004570	-0.145364
H100	H	2.075287	0.495430	0.354636
H101	H	1.432250	0.000370	-0.144063
H102	H	1.932250	0.500370	0.355937
H103	H	1.418829	-0.148944	-0.242425
H104	H	1.918829	0.351056	0.257575
Cl105	Cl	1.576120	-0.171848	0.300752
Cl106	Cl	2.076120	0.328152	0.800752
H107	H	1.420043	-0.152025	0.242743
H108	H	1.920043	0.347975	0.742743
H109	H	1.431097	-0.001025	0.148246
H110	H	1.931097	0.498975	0.648246
H111	H	1.575161	-0.001298	0.138920
H112	H	2.075161	0.498702	0.638920
H113	H	1.130424	0.236488	0.000241
H114	H	1.630424	0.736488	0.500241
H115	H	0.849758	0.419794	0.000125
H116	H	1.349758	0.919794	0.500125
