data_functionalizedCrystal
_audit_creation_method	'MofGen! by Chris Wilmer'
_symmetry_space_group_name_H-M	'P1'
_symmetry_Int_Tables_number	1
_symmetry_cell_setting	triclinic
loop_
_symmetry_equiv_pos_as_xyz
  x,y,z
_cell_length_a	11.026607
_cell_length_b	10.967829
_cell_length_c	10.065875
_cell_angle_alpha	86.921207
_cell_angle_beta	79.302338
_cell_angle_gamma	96.380563
loop_
_atom_site_label
_atom_site_type_symbol
_atom_site_fract_x
_atom_site_fract_y
_atom_site_fract_z
O1	O	1.650232	0.494401	-0.229769
O2	O	1.294313	0.436514	-0.216157
O3	O	1.474049	0.290844	-0.181891
O4	O	1.470496	0.640071	-0.264035
O5	O	1.439782	0.318764	0.038531
O6	O	1.260047	0.464434	0.004264
O7	O	1.615965	0.522321	-0.009348
Zn8	Zn	1.432565	0.497810	0.032455
Zn9	Zn	1.477713	0.461025	-0.257959
O10	O	1.436230	0.667991	-0.043614
C11	C	1.231487	0.439794	-0.103435
C12	C	1.095337	0.407959	-0.095948
C13	C	1.025499	0.495861	-0.116625
C14	C	0.884780	0.462960	-0.108888
C15	C	1.454068	0.259400	-0.061003
C16	C	1.445569	0.124107	-0.029189
C17	C	1.459531	0.049332	-0.129191
C18	C	1.450747	-0.090500	-0.096311
C19	C	1.678792	0.519040	-0.122073
C20	C	1.814944	0.550874	-0.129568
C21	C	1.456211	0.699435	-0.164505
C22	C	1.464712	0.834726	-0.196328
N23	N	1.401762	0.522917	0.230655
N24	N	1.508526	0.435911	-0.456158
C25	C	1.466988	0.469751	0.310940
C26	C	1.443291	0.489085	0.463559
H27	H	1.069885	0.595475	-0.140049
F28	F	1.426613	-0.142123	0.047421
H29	H	0.840403	0.363336	-0.085490
F30	F	1.488799	-0.113658	-0.340061
H31	H	1.581912	0.376070	0.499598
F32	F	1.562682	0.391284	0.253167
H33	H	1.328371	0.582742	0.274908
H34	H	1.427104	0.084602	0.080768
H35	H	1.369895	0.548914	0.507806
F36	F	0.872944	0.681089	-0.160180
H37	H	1.050954	0.308341	-0.072551
H38	H	1.477982	0.088836	-0.239147
