data_functionalizedCrystal
_audit_creation_method	'MofGen! by Chris Wilmer'
_symmetry_space_group_name_H-M	'P1'
_symmetry_Int_Tables_number	1
_symmetry_cell_setting	triclinic
loop_
_symmetry_equiv_pos_as_xyz
  x,y,z
_cell_length_a	14.044220
_cell_length_b	14.519709
_cell_length_c	12.996460
_cell_angle_alpha	89.992910
_cell_angle_beta	90.000499
_cell_angle_gamma	91.565489
loop_
_atom_site_label
_atom_site_type_symbol
_atom_site_fract_x
_atom_site_fract_y
_atom_site_fract_z
O1	O	1.258085	-0.222370	0.085462
O2	O	1.508085	0.027630	0.335462
O3	O	1.758085	0.277630	0.585462
O4	O	2.008085	0.527630	0.835462
O5	O	0.982102	-0.214346	0.085488
O6	O	1.232102	0.035654	0.335488
O7	O	1.482102	0.285654	0.585488
O8	O	1.732102	0.535654	0.835488
O9	O	1.127411	-0.084710	0.085465
O10	O	1.377411	0.165290	0.335465
O11	O	1.627411	0.415290	0.585465
O12	O	1.877411	0.665290	0.835465
O13	O	1.112776	-0.352006	0.085485
O14	O	1.362776	-0.102006	0.335485
O15	O	1.612776	0.147994	0.585485
O16	O	1.862776	0.397994	0.835485
O17	O	1.127396	-0.084701	-0.085669
O18	O	1.377396	0.165299	0.164331
O19	O	1.627396	0.415299	0.414331
O20	O	1.877396	0.665299	0.664331
O21	O	0.982087	-0.214337	-0.085646
O22	O	1.232087	0.035663	0.164354
O23	O	1.482087	0.285663	0.414354
O24	O	1.732087	0.535663	0.664354
O25	O	1.258070	-0.222361	-0.085672
O26	O	1.508070	0.027639	0.164328
O27	O	1.758070	0.277639	0.414328
O28	O	2.008070	0.527639	0.664328
Cu29	Cu	1.120077	-0.218348	-0.101285
Cu30	Cu	1.370077	0.031652	0.148715
Cu31	Cu	1.620077	0.281652	0.398715
Cu32	Cu	1.870077	0.531652	0.648715
Cu33	Cu	1.120095	-0.218359	0.101101
Cu34	Cu	1.370095	0.031641	0.351101
Cu35	Cu	1.620095	0.281641	0.601101
Cu36	Cu	1.870095	0.531641	0.851101
O37	O	1.112761	-0.351997	-0.085649
O38	O	1.362761	-0.101997	0.164351
O39	O	1.612761	0.148003	0.414351
O40	O	1.862761	0.398003	0.664351
C41	C	0.946774	-0.210829	-0.000076
C42	C	1.196774	0.039171	0.249924
C43	C	1.446774	0.289171	0.499924
C44	C	1.696774	0.539171	0.749924
C45	C	0.841531	-0.200352	-0.000066
C46	C	1.091531	0.049648	0.249934
C47	C	1.341531	0.299648	0.499934
C48	C	1.591531	0.549648	0.749934
C49	C	1.126721	-0.050290	-0.000102
C50	C	1.376721	0.199710	0.249898
C51	C	1.626721	0.449710	0.499898
C52	C	1.876721	0.699710	0.749898
C53	C	1.124677	0.052256	-0.000103
C54	C	1.374677	0.302256	0.249897
C55	C	1.624677	0.552256	0.499897
C56	C	1.874677	0.802256	0.749897
N57	N	1.120071	-0.218341	-0.243632
N58	N	1.370071	0.031659	0.006368
N59	N	1.620071	0.281659	0.256368
N60	N	1.870071	0.531659	0.506368
C61	C	0.648837	-0.181197	-0.000088
C62	C	0.898837	0.068803	0.249912
C63	C	1.148837	0.318803	0.499912
C64	C	1.398837	0.568803	0.749912
C65	C	0.591329	-0.255505	-0.000087
C66	C	0.841329	-0.005505	0.249913
C67	C	1.091329	0.244495	0.499913
C68	C	1.341329	0.494495	0.749913
C69	C	0.484108	-0.244848	-0.000099
C70	C	0.734108	0.005152	0.249901
C71	C	0.984108	0.255152	0.499901
C72	C	1.234108	0.505152	0.749901
C73	C	0.756068	-0.191854	-0.000076
C74	C	1.006068	0.058146	0.249924
C75	C	1.256068	0.308146	0.499924
C76	C	1.506068	0.558146	0.749924
C77	C	1.293398	-0.225878	-0.000106
C78	C	1.543398	0.024122	0.249894
C79	C	1.793398	0.274122	0.499894
C80	C	2.043398	0.524122	0.749894
C81	C	1.398641	-0.236355	-0.000109
C82	C	1.648641	0.013645	0.249891
C83	C	1.898641	0.263645	0.499891
C84	C	2.148641	0.513645	0.749891
C85	C	1.113451	-0.386416	-0.000080
C86	C	1.363451	-0.136416	0.249920
C87	C	1.613451	0.113584	0.499920
C88	C	1.863451	0.363584	0.749920
C89	C	1.115494	-0.488963	-0.000073
C90	C	1.365494	-0.238963	0.249927
C91	C	1.615494	0.011037	0.499927
C92	C	1.865494	0.261037	0.749927
C93	C	1.117153	0.427758	-0.000075
C94	C	1.367153	0.677758	0.249925
C95	C	1.617153	0.927758	0.499925
C96	C	1.867153	1.177758	0.749925
C97	C	1.119243	0.323282	-0.000083
C98	C	1.369243	0.573282	0.249917
C99	C	1.619243	0.823282	0.499917
C100	C	1.869243	1.073282	0.749917
C101	C	1.120915	0.240010	-0.000090
C102	C	1.370915	0.490010	0.249910
C103	C	1.620915	0.740010	0.499910
C104	C	1.870915	0.990010	0.749910
C105	C	1.123005	0.135527	-0.000096
C106	C	1.373005	0.385527	0.249904
C107	C	1.623005	0.635527	0.499904
C108	C	1.873005	0.885527	0.749904
C109	C	1.120094	-0.218360	-0.663446
C110	C	1.370094	0.031640	-0.413446
C111	C	1.620094	0.281640	-0.163446
C112	C	1.870094	0.531640	0.086554
C113	C	1.120085	-0.218357	-0.546641
C114	C	1.370085	0.031643	-0.296641
C115	C	1.620085	0.281643	-0.046641
C116	C	1.870085	0.531643	0.203359
C117	C	1.120083	-0.218351	-0.453543
C118	C	1.370083	0.031649	-0.203543
C119	C	1.620083	0.281649	0.046457
C120	C	1.870083	0.531649	0.296457
C121	C	1.120073	-0.218347	-0.336730
C122	C	1.370073	0.031653	-0.086730
C123	C	1.620073	0.281653	0.163270
C124	C	1.870073	0.531653	0.413270
N125	N	1.120108	-0.218360	0.243448
N126	N	1.370108	0.031640	0.493448
N127	N	1.620108	0.281640	0.743448
N128	N	1.870108	0.531640	0.993448
H129	H	0.622622	-0.327127	-0.000077
H130	H	0.872622	-0.077127	0.249923
H131	H	1.122622	0.172873	0.499923
H132	H	1.372622	0.422873	0.749923
C133	C	0.606570	-0.084449	-0.000089
C134	C	0.856570	0.165551	0.249911
C135	C	1.106570	0.415551	0.499911
C136	C	1.356570	0.665551	0.749911
H137	H	0.539004	-0.089889	-0.000085
H138	H	0.789004	0.160111	0.249915
H139	H	1.039004	0.410111	0.499915
H140	H	1.289004	0.660111	0.749915
H141	H	0.627308	-0.051876	-0.059762
H142	H	0.877308	0.198124	0.190238
H143	H	1.127308	0.448124	0.440238
H144	H	1.377308	0.698124	0.690238
H145	H	0.627302	-0.051901	0.059601
H146	H	0.877302	0.198099	0.309601
H147	H	1.127302	0.448099	0.559601
H148	H	1.377302	0.698099	0.809601
