data_functionalizedCrystal
_audit_creation_method	'MofGen! by Chris Wilmer'
_symmetry_space_group_name_H-M	'P1'
_symmetry_Int_Tables_number	1
_symmetry_cell_setting	triclinic
loop_
_symmetry_equiv_pos_as_xyz
  x,y,z
_cell_length_a	12.759401
_cell_length_b	21.295417
_cell_length_c	12.759393
_cell_angle_alpha	89.960830
_cell_angle_beta	89.981433
_cell_angle_gamma	90.029551
loop_
_atom_site_label
_atom_site_type_symbol
_atom_site_fract_x
_atom_site_fract_y
_atom_site_fract_z
Zn1	Zn	1.606140	-0.250588	-0.593928
Zn2	Zn	1.605986	-0.355872	-0.418225
Zn3	Zn	1.430442	-0.250619	-0.418267
Zn4	Zn	1.430382	-0.355822	-0.593866
O5	O	1.518237	-0.303225	-0.506071
O6	O	1.753141	-0.264563	-0.570629
O7	O	1.582660	-0.341944	-0.271209
O8	O	1.453838	-0.162526	-0.441612
O9	O	1.753027	-0.341914	-0.441540
O10	O	1.582923	-0.162503	-0.570670
O11	O	1.453689	-0.264615	-0.271240
O12	O	1.283413	-0.264566	-0.441552
O13	O	1.453736	-0.341828	-0.740895
O14	O	1.283369	-0.341858	-0.570564
O15	O	1.582865	-0.264514	-0.740941
O16	O	1.582602	-0.443955	-0.441480
O17	O	1.453587	-0.443918	-0.570523
C18	C	1.245270	-0.303210	-0.506057
C19	C	1.128493	-0.303219	-0.506075
C20	C	1.073683	-0.263018	-0.573396
C21	C	0.963959	-0.263030	-0.573402
C22	C	0.963865	-0.343450	-0.438765
C23	C	1.073587	-0.343434	-0.438754
C24	C	1.073737	-0.216591	-0.651131
C25	C	0.964013	-0.216603	-0.651137
C26	C	1.518100	-0.466777	-0.506013
C27	C	1.518137	-0.536745	-0.506023
C28	C	1.585375	-0.569610	-0.438900
C29	C	1.585424	-0.635353	-0.438923
C30	C	1.518217	-0.668227	-0.506060
C31	C	1.450974	-0.635355	-0.573196
C32	C	1.450934	-0.569613	-0.573178
N33	N	1.426309	-0.771492	-0.514064
N34	N	1.426350	-0.833943	-0.514075
C35	C	1.518334	-0.866302	-0.506120
N36	N	1.610278	-0.833850	-0.498132
N37	N	1.610236	-0.771393	-0.498116
C38	C	1.518253	-0.739513	-0.506087
C39	C	1.585631	-0.970453	-0.439018
C40	C	1.585682	-1.036196	-0.439049
C41	C	1.451223	-1.036197	-0.573317
C42	C	1.451181	-0.970455	-0.573291
C43	C	1.518384	-0.937586	-0.506136
C44	C	1.792271	-0.303241	-0.506087
C45	C	1.909047	-0.303247	-0.506093
C46	C	1.518311	-0.303162	-0.780105
C47	C	1.518342	-0.303135	-0.896881
C48	C	1.518404	-0.139035	-0.506153
C49	C	1.518475	-0.069067	-0.506187
C50	C	1.585589	-0.262873	-0.951769
C51	C	1.585614	-0.262850	-1.061493
C52	C	1.451143	-0.343356	-1.061433
C53	C	1.451113	-0.343375	-0.951711
C54	C	1.663228	-0.216396	-0.951805
C55	C	1.663253	-0.216373	-1.061529
C56	C	1.518225	-0.303243	-0.233104
C57	C	1.518397	-0.303093	-0.116328
H58	H	0.919147	-0.376192	-0.383955
H59	H	1.640098	-0.542851	-0.384221
Br60	Br	1.130512	-0.245786	-0.779854
H61	H	1.634161	-0.170052	-1.095587
Br62	Br	1.123398	-0.135300	-0.615066
H63	H	1.396425	-0.943694	-0.627945
H64	H	0.929993	-0.170271	-0.622148
Br65	Br	0.914415	-0.238468	-0.786691
Br66	Br	1.626986	-0.135144	-0.902217
H67	H	1.396255	-0.662125	-0.627861
H68	H	1.740492	-0.233873	-0.917765
Br69	Br	1.676682	-0.679965	-0.347821
Br70	Br	1.798865	-0.238125	-1.111167
H71	H	1.396180	-0.542854	-0.627840
Br72	Br	1.676953	-1.080801	-0.347955
Br73	Br	1.147970	-0.397973	-0.347351
H74	H	1.640355	-0.943690	-0.384340
Br75	Br	1.360021	-1.080806	-0.664443
H76	H	1.396351	-0.376158	-0.907025
H77	H	1.396405	-0.376117	-1.106088
