data_functionalizedCrystal
_audit_creation_method	'MofGen! by Chris Wilmer'
_symmetry_space_group_name_H-M	'P1'
_symmetry_Int_Tables_number	1
_symmetry_cell_setting	triclinic
loop_
_symmetry_equiv_pos_as_xyz
  x,y,z
_cell_length_a	9.065218
_cell_length_b	7.540329
_cell_length_c	9.065218
_cell_angle_alpha	89.998243
_cell_angle_beta	85.015885
_cell_angle_gamma	89.996962
loop_
_atom_site_label
_atom_site_type_symbol
_atom_site_fract_x
_atom_site_fract_y
_atom_site_fract_z
O1	O	1.960398	-0.147479	0.216355
O2	O	2.293732	0.185854	0.549688
O3	O	2.627065	0.519188	0.883021
O4	O	1.531114	-0.147481	0.234101
O5	O	1.864447	0.185852	0.567434
O6	O	2.197780	0.519186	0.900768
O7	O	1.754629	-0.147476	0.010585
O8	O	2.087963	0.185857	0.343919
O9	O	2.421296	0.519190	0.677252
O10	O	1.736883	-0.147484	0.439870
O11	O	2.070216	0.185850	0.773204
O12	O	2.403549	0.519183	1.106537
O13	O	1.754616	0.147489	0.010583
O14	O	2.087949	0.480822	0.343916
O15	O	2.421282	0.814155	0.677249
O16	O	1.531100	0.147484	0.234098
O17	O	1.864433	0.480817	0.567432
O18	O	2.197767	0.814151	0.900765
O19	O	1.960385	0.147486	0.216352
O20	O	2.293718	0.480819	0.549685
O21	O	2.627052	0.814153	0.883018
Cu22	Cu	1.745741	0.174418	0.225225
Cu23	Cu	2.079075	0.507751	0.558558
Cu24	Cu	2.412408	0.841084	0.891891
Cu25	Cu	1.745757	-0.174413	0.225228
Cu26	Cu	2.079091	0.158921	0.558562
Cu27	Cu	2.412424	0.492254	0.891895
O28	O	1.736869	0.147481	0.439867
O29	O	2.070203	0.480815	0.773201
O30	O	2.403536	0.814148	1.106534
C31	C	1.476120	0.000001	0.232394
C32	C	1.809454	0.333335	0.565727
C33	C	2.142787	0.666668	0.899061
C34	C	1.312277	0.000000	0.227294
C35	C	1.645611	0.333334	0.560628
C36	C	1.978944	0.666667	0.893961
N37	N	1.745741	0.419766	0.225222
N38	N	2.079074	0.753100	0.558555
N39	N	2.412408	1.086433	0.891888
N40	N	1.745769	-0.419761	0.225220
N41	N	2.079103	-0.086428	0.558553
N42	N	2.412436	0.246906	0.891887
C43	C	2.015378	-0.000000	0.218059
C44	C	2.348712	0.333333	0.551392
C45	C	2.682045	0.666667	0.884725
C46	C	2.179221	-0.000011	0.223158
C47	C	2.512555	0.333322	0.556492
C48	C	2.845888	0.666656	0.889825
C49	C	1.752917	0.000003	-0.044403
C50	C	2.086250	0.333337	0.288931
C51	C	2.419584	0.666670	0.622264
C52	C	1.747817	-0.000005	-0.208245
C53	C	2.081151	0.333328	0.125088
C54	C	2.414484	0.666661	0.458421
C55	C	1.738582	-0.000002	0.494855
C56	C	2.071915	0.333331	0.828189
C57	C	2.405248	0.666665	1.161522
C58	C	1.743681	-0.000005	0.658698
C59	C	2.077015	0.333328	0.992032
C60	C	2.410348	0.666661	1.325365
