data_functionalizedCrystal
_audit_creation_method	'MofGen! by Chris Wilmer'
_symmetry_space_group_name_H-M	'P1'
_symmetry_Int_Tables_number	1
_symmetry_cell_setting	triclinic
loop_
_symmetry_equiv_pos_as_xyz
  x,y,z
_cell_length_a	14.971486
_cell_length_b	6.394989
_cell_length_c	14.048226
_cell_angle_alpha	90.003392
_cell_angle_beta	89.998499
_cell_angle_gamma	94.944080
loop_
_atom_site_label
_atom_site_type_symbol
_atom_site_fract_x
_atom_site_fract_y
_atom_site_fract_z
O1	O	1.189891	-0.272212	-0.079045
O2	O	0.929843	-0.304810	-0.079070
O3	O	1.063558	0.015544	-0.079058
O4	O	1.056176	-0.592566	-0.079057
O5	O	1.063542	0.015563	0.079264
O6	O	0.929827	-0.304791	0.079252
O7	O	1.189874	-0.272193	0.079277
Zn8	Zn	1.059848	-0.288489	0.104401
Zn9	Zn	1.059870	-0.288514	-0.104194
O10	O	1.056159	-0.592547	0.079264
C11	C	0.896494	-0.303343	0.000088
C12	C	0.797150	-0.298974	0.000078
C13	C	0.741960	-0.487173	0.000079
C14	C	0.648616	-0.483056	0.000093
C15	C	0.610464	-0.290737	0.000099
C16	C	0.665661	-0.102524	0.000101
C17	C	0.759003	-0.106643	0.000093
C18	C	0.471106	-0.093951	0.000114
C19	C	0.377757	-0.089830	0.000119
C20	C	0.360719	-0.470364	0.000114
C21	C	0.454061	-0.474483	0.000107
C22	C	0.509252	-0.286268	0.000106
C23	C	1.223223	-0.273661	0.000117
C24	C	1.322567	-0.278029	0.000121
C25	C	1.062090	0.093378	0.000099
C26	C	1.057629	0.329624	0.000098
N27	N	1.059839	-0.288471	0.246762
N28	N	1.059885	-0.288516	-0.246555
C29	C	1.119068	-0.146677	0.296585
C30	C	1.119074	-0.146676	0.396243
C31	C	1.059855	-0.288480	0.446075
C32	C	1.000620	-0.430281	0.396245
C33	C	1.000610	-0.430271	0.296589
C34	C	1.000646	-0.430296	0.603959
C35	C	1.000656	-0.430310	0.703622
C36	C	1.119110	-0.146701	0.703613
C37	C	1.119100	-0.146691	0.603957
C38	C	1.059866	-0.288495	0.554134
H39	H	0.603684	-0.636307	0.000094
N40	N	0.495222	-0.681897	0.000103
H41	H	0.533567	-0.692080	-0.058590
H42	H	0.446051	-0.800394	0.000143
N43	N	0.301229	-0.673419	0.000137
H44	H	0.262107	-0.680267	-0.058541
H45	H	0.262193	-0.680094	0.058877
N46	N	0.783103	-0.694609	0.000080
H47	H	0.850610	-0.668669	0.000073
H48	H	0.763062	-0.776984	-0.058609
H49	H	0.346697	0.066773	0.000125
N50	N	0.530629	0.109057	0.000111
H51	H	0.569735	0.115820	-0.058581
H52	H	0.569682	0.115720	0.058837
H53	H	0.952379	-0.545731	0.256024
N54	N	1.183002	0.006244	0.757344
H55	H	1.174022	-0.015268	0.828037
H56	H	1.171006	0.154472	0.739931
H57	H	0.803939	0.046608	0.000091
N58	N	0.624505	0.104896	0.000106
H59	H	0.644473	0.187358	-0.058584
H60	H	0.644485	0.187200	0.058835
N61	N	0.936764	-0.583245	0.550215
H62	H	0.896258	-0.503267	0.508878
H63	H	0.899312	-0.673051	0.596962
N64	N	1.182946	0.006259	0.242841
H65	H	1.220466	0.096086	0.289530
H66	H	1.147662	0.098743	0.201502
N67	N	1.182987	0.006187	0.449982
H68	H	1.220515	0.095986	0.403292
H69	H	1.223416	-0.074028	0.491302
N70	N	1.182976	0.006237	0.550206
H71	H	1.220501	0.096071	0.596888
H72	H	1.147689	0.098715	0.508867
H73	H	0.952433	-0.545780	0.744190
H74	H	0.952398	-0.545734	0.436824
