data_functionalizedCrystal
_audit_creation_method	'MofGen! by Chris Wilmer'
_symmetry_space_group_name_H-M	'P1'
_symmetry_Int_Tables_number	1
_symmetry_cell_setting	triclinic
loop_
_symmetry_equiv_pos_as_xyz
  x,y,z
_cell_length_a	18.101398
_cell_length_b	25.639239
_cell_length_c	18.101389
_cell_angle_alpha	89.979551
_cell_angle_beta	89.975673
_cell_angle_gamma	90.033952
loop_
_atom_site_label
_atom_site_type_symbol
_atom_site_fract_x
_atom_site_fract_y
_atom_site_fract_z
Zn1	Zn	1.132082	-0.208272	-0.418828
Zn2	Zn	1.465415	0.125062	-0.085495
Zn3	Zn	1.798749	0.458395	0.247838
Zn4	Zn	1.131961	-0.295693	-0.294982
Zn5	Zn	1.465295	0.037640	0.038351
Zn6	Zn	1.798628	0.370974	0.371684
Zn7	Zn	1.008241	-0.208266	-0.294989
Zn8	Zn	1.341574	0.125067	0.038344
Zn9	Zn	1.674908	0.458400	0.371677
Zn10	Zn	1.008175	-0.295671	-0.418771
Zn11	Zn	1.341509	0.037663	-0.085438
Zn12	Zn	1.674842	0.370996	0.247896
O13	O	1.070115	-0.251975	-0.356893
O14	O	1.403448	0.081358	-0.023559
O15	O	1.736782	0.414691	0.309774
O16	O	1.235699	-0.219880	-0.402421
O17	O	1.569032	0.113453	-0.069088
O18	O	1.902366	0.446787	0.264246
O19	O	1.115527	-0.284103	-0.191350
O20	O	1.448860	0.049231	0.141983
O21	O	1.782193	0.382564	0.475316
O22	O	1.024747	-0.135102	-0.311444
O23	O	1.358080	0.198232	0.021889
O24	O	1.691413	0.531565	0.355223
O25	O	1.235610	-0.284108	-0.311432
O26	O	1.568944	0.049225	0.021902
O27	O	1.902277	0.382559	0.355235
O28	O	1.115732	-0.135106	-0.402428
O29	O	1.449065	0.198228	-0.069094
O30	O	1.782399	0.531561	0.264239
O31	O	1.024630	-0.219871	-0.191356
O32	O	1.357963	0.113463	0.141978
O33	O	1.691296	0.446796	0.475311
O34	O	0.904599	-0.219849	-0.311388
O35	O	1.237933	0.113484	0.021945
O36	O	1.571266	0.446818	0.355278
O37	O	1.024635	-0.284070	-0.522411
O38	O	1.357968	0.049263	-0.189078
O39	O	1.691301	0.382597	0.144255
O40	O	0.904551	-0.284065	-0.402330
O41	O	1.237884	0.049269	-0.068997
O42	O	1.571218	0.382602	0.264337
O43	O	1.115668	-0.219858	-0.522454
O44	O	1.449002	0.113475	-0.189120
O45	O	1.782335	0.446808	0.144213
O46	O	1.115463	-0.368855	-0.311376
O47	O	1.448796	-0.035522	0.021957
O48	O	1.782130	0.297811	0.355290
O49	O	1.024518	-0.368839	-0.402323
O50	O	1.357851	-0.035505	-0.068990
O51	O	1.691185	0.297828	0.264344
C52	C	0.877704	-0.251954	-0.356854
C53	C	1.211038	0.081379	-0.023521
C54	C	1.544371	0.414713	0.309813
C55	C	0.795390	-0.251958	-0.356855
C56	C	1.128724	0.081376	-0.023522
C57	C	1.462057	0.414709	0.309812
C58	C	0.496299	-0.251990	-0.356917
C59	C	0.829633	0.081343	-0.023584
C60	C	1.162966	0.414676	0.309749
C61	C	0.527630	-0.211386	-0.299978
C62	C	0.860963	0.121948	0.033355
C63	C	1.194297	0.455281	0.366688
C64	C	0.613248	-0.211495	-0.299735
C65	C	0.946582	0.121839	0.033598
C66	C	1.279915	0.455172	0.366931
C67	C	0.644682	-0.251974	-0.356886
C68	C	0.978015	0.081360	-0.023553
C69	C	1.311348	0.414693	0.309780
C70	C	0.613553	-0.307048	-0.335559
C71	C	0.946887	0.026286	-0.002226
C72	C	1.280220	0.359619	0.331107
C73	C	0.527908	-0.306822	-0.335163
C74	C	0.861242	0.026511	-0.001830
C75	C	1.194575	0.359845	0.331503
C76	C	0.527917	-0.238000	-0.435317
C77	C	0.861250	0.095333	-0.101984
C78	C	1.194583	0.428667	0.231349
C79	C	0.613568	-0.236773	-0.434890
C80	C	0.946901	0.096560	-0.101556
C81	C	1.280234	0.429893	0.231777
C82	C	0.728541	-0.251968	-0.356870
C83	C	1.061875	0.081366	-0.023537
C84	C	1.395208	0.414699	0.309796
C85	C	0.412440	-0.252000	-0.356932
C86	C	0.745773	0.081333	-0.023598
C87	C	1.079106	0.414667	0.309735
C88	C	1.069990	-0.387818	-0.356859
C89	C	1.403324	-0.054485	-0.023525
C90	C	1.736657	0.278849	0.309808
C91	C	1.070005	-0.445932	-0.356869
C92	C	1.403338	-0.112599	-0.023536
C93	C	1.736671	0.220735	0.309798
C94	C	1.117594	-0.806291	-0.309617
C95	C	1.450927	-0.472958	0.023716
C96	C	1.784260	-0.139624	0.357049
C97	C	1.117622	-0.860895	-0.309627
C98	C	1.450956	-0.527562	0.023706
C99	C	1.784289	-0.194229	0.357039
O100	O	1.157955	-0.889129	-0.269415
O101	O	1.491288	-0.555795	0.063918
O102	O	1.824621	-0.222462	0.397252
N103	N	1.070245	-0.888214	-0.356942
N104	N	1.403578	-0.554881	-0.023608
N105	N	1.736912	-0.221548	0.309725
C106	C	1.022841	-0.860926	-0.404255
C107	C	1.356175	-0.527593	-0.070921
C108	C	1.689508	-0.194260	0.262412
O109	O	0.982546	-0.889177	-0.444501
O110	O	1.315880	-0.555844	-0.111168
O111	O	1.649213	-0.222511	0.222166
C112	C	1.022817	-0.806323	-0.404248
C113	C	1.356150	-0.472990	-0.070915
C114	C	1.689484	-0.139656	0.262419
C115	C	1.070192	-0.779007	-0.356925
C116	C	1.403525	-0.445673	-0.023592
C117	C	1.736859	-0.112340	0.309741
C118	C	1.164965	-0.778975	-0.262299
C119	C	1.498299	-0.445641	0.071034
C120	C	1.831632	-0.112308	0.404368
C121	C	1.164936	-0.724374	-0.262288
C122	C	1.498269	-0.391041	0.071045
C123	C	1.831602	-0.057707	0.404378
C124	C	1.117534	-0.697090	-0.309596
C125	C	1.450867	-0.363757	0.023737
C126	C	1.784201	-0.030423	0.357071
C127	C	1.070162	-0.724406	-0.356914
C128	C	1.403495	-0.391073	-0.023581
C129	C	1.736829	-0.057740	0.309752
C130	C	0.975417	-0.779036	-0.451564
C131	C	1.308751	-0.445703	-0.118231
C132	C	1.642084	-0.112369	0.215102
C133	C	0.975397	-0.724429	-0.451554
C134	C	1.308731	-0.391096	-0.118221
C135	C	1.642064	-0.057762	0.215113
C136	C	1.022773	-0.697113	-0.404231
C137	C	1.356106	-0.363779	-0.070898
C138	C	1.689439	-0.030446	0.262436
C139	C	1.022731	-0.642522	-0.404212
C140	C	1.356064	-0.309188	-0.070878
C141	C	1.689397	0.024145	0.262455
N142	N	1.070108	-0.615202	-0.356897
N143	N	1.403441	-0.281869	-0.023564
N144	N	1.736774	0.051464	0.309770
C145	C	1.117509	-0.642487	-0.309589
C146	C	1.450843	-0.309153	0.023744
C147	C	1.784176	0.024180	0.357077
C148	C	1.022897	-0.975597	-0.404266
C149	C	1.356230	-0.642264	-0.070933
C150	C	1.689564	-0.308930	0.262400
C151	C	1.022917	-1.030199	-0.404270
C152	C	1.356251	-0.696866	-0.070936
C153	C	1.689584	-0.363533	0.262397
C154	C	1.117699	-1.030164	-0.309643
C155	C	1.451033	-0.696831	0.023690
C156	C	1.784366	-0.363498	0.357024
C157	C	1.117675	-0.975561	-0.309636
C158	C	1.451008	-0.642228	0.023697
C159	C	1.784342	-0.308894	0.357030
C160	C	1.070274	-0.948278	-0.356952
C161	C	1.403608	-0.614945	-0.023618
C162	C	1.736941	-0.281611	0.309715
C163	C	1.117443	-0.527822	-0.309570
C164	C	1.450776	-0.194488	0.023763
C165	C	1.784109	0.138845	0.357097
C166	C	1.117406	-0.473216	-0.309561
C167	C	1.450740	-0.139883	0.023772
C168	C	1.784073	0.193450	0.357105
C169	C	1.022627	-0.473256	-0.404190
C170	C	1.355961	-0.139922	-0.070857
C171	C	1.689294	0.193411	0.262476
C172	C	1.022661	-0.527856	-0.404197
C173	C	1.355994	-0.194523	-0.070863
C174	C	1.689327	0.138810	0.262470
C175	C	1.070074	-0.555138	-0.356884
C176	C	1.403408	-0.221805	-0.023551
C177	C	1.736741	0.111529	0.309783
O178	O	0.982421	-0.614254	-0.444405
O179	O	1.315754	-0.280920	-0.111072
O180	O	1.649087	0.052413	0.222261
O181	O	1.157804	-0.614229	-0.269357
O182	O	1.491138	-0.280896	0.063977
O183	O	1.824471	0.052438	0.397310
C184	C	1.263277	-0.251997	-0.356932
C185	C	1.596610	0.081336	-0.023599
C186	C	1.929943	0.414670	0.309735
C187	C	1.345591	-0.252006	-0.356949
C188	C	1.678924	0.081327	-0.023615
C189	C	2.012257	0.414660	0.309718
C190	C	1.070158	-0.251962	-0.550055
C191	C	1.403491	0.081371	-0.216721
C192	C	1.736824	0.414705	0.116612
C193	C	1.070176	-0.251957	-0.632369
C194	C	1.403509	0.081377	-0.299036
C195	C	1.736843	0.414710	0.034298
C196	C	1.070260	-0.115602	-0.356943
C197	C	1.403593	0.217731	-0.023610
C198	C	1.736927	0.551064	0.309724
C199	C	1.070322	-0.057488	-0.356964
C200	C	1.403655	0.275845	-0.023631
C201	C	1.736989	0.609178	0.309702
C202	C	1.070219	-0.251859	-0.931460
C203	C	1.403552	0.081475	-0.598127
C204	C	1.736886	0.414808	-0.264793
C205	C	1.012746	-0.292130	-0.900108
C206	C	1.346079	0.041203	-0.566775
C207	C	1.679413	0.374536	-0.233442
C208	C	1.012901	-0.292317	-0.814490
C209	C	1.346235	0.041016	-0.481157
C210	C	1.679568	0.374350	-0.147823
C211	C	1.070197	-0.251907	-0.783077
C212	C	1.403530	0.081426	-0.449744
C213	C	1.736864	0.414760	-0.116411
C214	C	1.148220	-0.266868	-0.814182
C215	C	1.481553	0.066466	-0.480849
C216	C	1.814886	0.399799	-0.147516
C217	C	1.147899	-0.267132	-0.899827
C218	C	1.481233	0.066201	-0.566494
C219	C	1.814566	0.399535	-0.233161
C220	C	1.050348	-0.196537	-0.899887
C221	C	1.383681	0.136797	-0.566554
C222	C	1.717015	0.470130	-0.233220
C223	C	1.048612	-0.196856	-0.814236
C224	C	1.381945	0.136477	-0.480903
C225	C	1.715279	0.469811	-0.147569
C226	C	1.070189	-0.251934	-0.699218
C227	C	1.403523	0.081400	-0.365885
C228	C	1.736856	0.414733	-0.032551
C229	C	1.070232	-0.251833	-1.015320
C230	C	1.403565	0.081500	-0.681986
C231	C	1.736899	0.414833	-0.348653
C232	C	1.070115	-0.251951	-0.164482
C233	C	1.403448	0.081383	0.168851
C234	C	1.736782	0.414716	0.502184
C235	C	1.070240	-0.251809	-0.082169
C236	C	1.403574	0.081524	0.251165
C237	C	1.736907	0.414857	0.584498
H238	H	0.633912	-0.338111	-0.375733
H239	H	0.967245	-0.004778	-0.042399
H240	H	1.300579	0.328555	0.290934
C241	C	1.217046	-0.694333	-0.210223
C242	C	1.550380	-0.361000	0.123111
C243	C	1.883713	-0.027667	0.456444
N244	N	1.256297	-0.671710	-0.171002
N245	N	1.589631	-0.338377	0.162331
N246	N	1.922964	-0.005043	0.495664
C247	C	0.974819	-0.178127	-0.929041
C248	C	1.308152	0.155207	-0.595708
C249	C	1.641485	0.488540	-0.262375
N250	N	0.917926	-0.164267	-0.951000
N251	N	1.251259	0.169067	-0.617666
N252	N	1.584593	0.502400	-0.284333
C253	C	0.923252	-0.694421	-0.503606
C254	C	1.256585	-0.361087	-0.170273
C255	C	1.589918	-0.027754	0.163060
N256	N	0.883975	-0.671820	-0.542811
N257	N	1.217308	-0.338486	-0.209478
N258	N	1.550641	-0.005153	0.123856
H259	H	1.203570	-0.801184	-0.223775
H260	H	1.536903	-0.467850	0.109558
H261	H	1.870236	-0.134517	0.442892
H262	H	1.156252	-0.953323	-0.271102
H263	H	1.489586	-0.619990	0.062231
H264	H	1.822919	-0.286657	0.395564
H265	H	1.156299	-1.052389	-0.271125
H266	H	1.489632	-0.719056	0.062208
H267	H	1.822966	-0.385723	0.395542
H268	H	1.087419	-0.165258	-0.792854
H269	H	1.420752	0.168075	-0.459520
H270	H	1.754086	0.501408	-0.126187
H271	H	0.506352	-0.198540	-0.454708
H272	H	0.839685	0.134794	-0.121374
H273	H	1.173019	0.468127	0.211959
C274	C	0.934344	-0.279609	-0.927912
C275	C	1.267678	0.053724	-0.594579
C276	C	1.601011	0.387057	-0.261246
N277	N	0.875291	-0.270178	-0.948860
N278	N	1.208624	0.063156	-0.615526
N279	N	1.541957	0.396489	-0.282193
H280	H	0.633700	-0.220743	-0.241642
H281	H	0.967033	0.112591	0.091692
H282	H	1.300367	0.445924	0.425025
H283	H	0.984292	-0.953386	-0.442794
H284	H	1.317625	-0.620052	-0.109461
H285	H	1.650958	-0.286719	0.223873
H286	H	0.507180	-0.338099	-0.374826
H287	H	0.840514	-0.004766	-0.041493
H288	H	1.173847	0.328567	0.291840
H289	H	1.156053	-0.550028	-0.271045
H290	H	1.489386	-0.216694	0.062288
H291	H	1.822720	0.116639	0.395622
H292	H	0.506079	-0.220529	-0.242223
H293	H	0.839412	0.112804	0.091111
H294	H	1.172746	0.446138	0.424444
H295	H	0.507068	-0.170421	-0.313200
H296	H	0.840401	0.162912	0.020133
H297	H	1.173734	0.496246	0.353467
H298	H	0.955044	-0.282955	-0.793458
H299	H	1.288377	0.050379	-0.460124
H300	H	1.621711	0.383712	-0.126791
H301	H	0.984333	-1.052436	-0.442798
H302	H	1.317666	-0.719102	-0.109465
H303	H	1.650999	-0.385769	0.223869
H304	H	0.991194	-0.185574	-0.793905
H305	H	1.324528	0.147759	-0.460571
H306	H	1.657861	0.481092	-0.127238
H307	H	1.092209	-0.166532	-0.920164
H308	H	1.425542	0.166801	-0.586831
H309	H	1.758876	0.500135	-0.253498
H310	H	0.936836	-0.801268	-0.490096
H311	H	1.270169	-0.467934	-0.156763
H312	H	1.603503	-0.134601	0.176570
H313	H	0.984086	-0.550098	-0.442733
H314	H	1.317420	-0.216765	-0.109400
H315	H	1.650753	0.116568	0.223934
C316	C	1.030298	-0.347192	-0.929174
C317	C	1.363631	-0.013859	-0.595841
C318	C	1.696964	0.319475	-0.262507
N319	N	1.043524	-0.388665	-0.951063
N320	N	1.376857	-0.055332	-0.617730
N321	N	1.710190	0.278002	-0.284396
C322	C	0.970491	-0.443233	-0.456229
C323	C	1.303824	-0.109899	-0.122896
C324	C	1.637158	0.223434	0.210437
N325	N	0.931226	-0.420618	-0.495430
N326	N	1.264559	-0.087284	-0.162097
N327	N	1.597893	0.246049	0.171236
H328	H	1.026019	-0.333323	-0.794005
H329	H	1.359353	0.000010	-0.460672
H330	H	1.692686	0.333343	-0.127339
C331	C	0.500868	-0.322846	-0.257732
C332	C	0.834202	0.010488	0.075602
C333	C	1.167535	0.343821	0.408935
N334	N	0.480506	-0.334913	-0.199407
N335	N	0.813839	-0.001579	0.133927
N336	N	1.147172	0.331754	0.467260
H337	H	1.192172	-0.239073	-0.920569
H338	H	1.525505	0.094260	-0.587236
H339	H	1.858839	0.427593	-0.253902
C340	C	0.641685	-0.156320	-0.317785
C341	C	0.975019	0.177014	0.015548
C342	C	1.308352	0.510347	0.348881
N343	N	0.663100	-0.114759	-0.331376
N344	N	0.996434	0.218575	0.001957
N345	N	1.329767	0.551908	0.335290
H346	H	0.634966	-0.319119	-0.278864
H347	H	0.968299	0.014214	0.054470
H348	H	1.301633	0.347547	0.387803
C349	C	0.641052	-0.182018	-0.456612
C350	C	0.974385	0.151315	-0.123279
C351	C	1.307719	0.484649	0.210055
N352	N	0.661755	-0.140775	-0.472970
N353	N	0.995088	0.192558	-0.139637
N354	N	1.328422	0.525892	0.193697
H355	H	1.164746	-0.307573	-0.919809
H356	H	1.498080	0.025760	-0.586475
H357	H	1.831413	0.359094	-0.253142
C358	C	1.207626	-0.228490	-0.786694
C359	C	1.540959	0.104843	-0.453361
C360	C	1.874293	0.438177	-0.120028
N361	N	1.252370	-0.199583	-0.765988
N362	N	1.585704	0.133750	-0.432655
N363	N	1.919037	0.467083	-0.099321
C364	C	1.171372	-0.320923	-0.785218
C365	C	1.504705	0.012410	-0.451885
C366	C	1.838039	0.345743	-0.118551
N367	N	1.188806	-0.361640	-0.763404
N368	N	1.522139	-0.028306	-0.430071
N369	N	1.855473	0.305027	-0.096737
C370	C	0.642471	-0.273820	-0.495275
C371	C	0.975804	0.059514	-0.161941
C372	C	1.309138	0.392847	0.171392
N373	N	0.664239	-0.301728	-0.540755
N374	N	0.997572	0.031605	-0.207422
N375	N	1.330906	0.364938	0.125912
H376	H	1.155985	-0.450977	-0.271023
H377	H	1.489318	-0.117644	0.062311
H378	H	1.822651	0.215690	0.395644
C379	C	0.500539	-0.277952	-0.492633
C380	C	0.833873	0.055381	-0.159299
C381	C	1.167206	0.388715	0.174034
N382	N	0.479914	-0.308045	-0.535797
N383	N	0.813247	0.025289	-0.202464
N384	N	1.146581	0.358622	0.130870
