data_functionalizedCrystal
_audit_creation_method	'MofGen! by Chris Wilmer'
_symmetry_space_group_name_H-M	'P1'
_symmetry_Int_Tables_number	1
_symmetry_cell_setting	triclinic
loop_
_symmetry_equiv_pos_as_xyz
  x,y,z
_cell_length_a	16.109295
_cell_length_b	12.996460
_cell_length_c	16.109301
_cell_angle_alpha	90.007568
_cell_angle_beta	96.539666
_cell_angle_gamma	89.997345
loop_
_atom_site_label
_atom_site_type_symbol
_atom_site_fract_x
_atom_site_fract_y
_atom_site_fract_z
O1	O	-1.103136	0.085500	0.106846
O2	O	-0.853136	0.335500	0.356846
O3	O	-0.603136	0.585500	0.606846
O4	O	-0.353136	0.835500	0.856846
O5	O	-0.861073	0.085518	0.120151
O6	O	-0.611073	0.335518	0.370151
O7	O	-0.361073	0.585518	0.620151
O8	O	-0.111073	0.835518	0.870151
O9	O	-0.988754	0.085498	-0.007533
O10	O	-0.738754	0.335498	0.242467
O11	O	-0.488754	0.585498	0.492467
O12	O	-0.238754	0.835498	0.742467
O13	O	-0.975455	0.085520	0.234530
O14	O	-0.725455	0.335520	0.484530
O15	O	-0.475455	0.585520	0.734530
O16	O	-0.225455	0.835520	0.984530
O17	O	-0.988741	-0.085636	-0.007540
O18	O	-0.738741	0.164364	0.242460
O19	O	-0.488741	0.414364	0.492460
O20	O	-0.238741	0.664364	0.742460
O21	O	-0.861060	-0.085616	0.120144
O22	O	-0.611060	0.164384	0.370144
O23	O	-0.361060	0.414384	0.620144
O24	O	-0.111060	0.664384	0.870144
O25	O	-1.103123	-0.085634	0.106839
O26	O	-0.853123	0.164366	0.356839
O27	O	-0.603123	0.414366	0.606839
O28	O	-0.353123	0.664366	0.856839
Cu29	Cu	-0.982090	-0.101251	0.113491
Cu30	Cu	-0.732090	0.148749	0.363491
Cu31	Cu	-0.482090	0.398749	0.613491
Cu32	Cu	-0.232090	0.648749	0.863491
Cu33	Cu	-0.982106	0.101135	0.113499
Cu34	Cu	-0.732106	0.351135	0.363499
Cu35	Cu	-0.482106	0.601135	0.613499
Cu36	Cu	-0.232106	0.851135	0.863499
O37	O	-0.975442	-0.085614	0.234523
O38	O	-0.725442	0.164386	0.484523
O39	O	-0.475442	0.414386	0.734523
O40	O	-0.225442	0.664386	0.984523
C41	C	-0.830092	-0.000047	0.119609
C42	C	-0.580092	0.249953	0.369609
C43	C	-0.330092	0.499953	0.619609
C44	C	-0.080092	0.749953	0.869609
C45	C	-0.737796	-0.000040	0.117996
C46	C	-0.487796	0.249960	0.367996
C47	C	-0.237796	0.499960	0.617996
C48	C	0.012204	0.749960	0.867996
C49	C	-0.515523	-0.000045	0.190008
C50	C	-0.265523	0.249955	0.440008
C51	C	-0.015523	0.499955	0.690008
C52	C	0.234477	0.749955	0.940008
C53	C	-0.428803	-0.000051	0.188486
C54	C	-0.178803	0.249949	0.438486
C55	C	0.071197	0.499949	0.688486
C56	C	0.321197	0.749949	0.938486
C57	C	-0.448677	-0.000061	0.036996
C58	C	-0.198677	0.249939	0.286996
C59	C	0.051323	0.499939	0.536996
C60	C	0.301323	0.749939	0.786996
C61	C	-0.535396	-0.000062	0.038520
C62	C	-0.285396	0.249938	0.288520
C63	C	-0.035396	0.499938	0.538520
C64	C	0.214604	0.749938	0.788520
C65	C	-0.568816	-0.000048	0.115028
C66	C	-0.318816	0.249952	0.365028
C67	C	-0.068816	0.499952	0.615028
C68	C	0.181184	0.749952	0.865028
C69	C	-0.395377	-0.000054	0.111982
C70	C	-0.145377	0.249946	0.361982
C71	C	0.104623	0.499946	0.611982
C72	C	0.354623	0.749946	0.861982
C73	C	-0.301351	-0.000061	0.110331
C74	C	-0.051351	0.249939	0.360331
C75	C	0.198649	0.499939	0.610331
C76	C	0.448649	0.749939	0.860331
C77	C	-0.662849	-0.000044	0.116679
C78	C	-0.412849	0.249956	0.366679
C79	C	-0.162849	0.499956	0.616679
C80	C	0.087151	0.749956	0.866679
N81	N	-0.982085	-0.243598	0.113484
N82	N	-0.732085	0.006402	0.363484
N83	N	-0.482085	0.256402	0.613484
N84	N	-0.232085	0.506402	0.863484
C85	C	-0.982105	-0.663412	0.113500
C86	C	-0.732105	-0.413412	0.363500
C87	C	-0.482105	-0.163412	0.613500
C88	C	-0.232105	0.086588	0.863500
C89	C	-0.982097	-0.546607	0.113499
C90	C	-0.732097	-0.296607	0.363499
C91	C	-0.482097	-0.046607	0.613499
C92	C	-0.232097	0.203393	0.863499
C93	C	-0.982095	-0.453509	0.113493
C94	C	-0.732095	-0.203509	0.363493
C95	C	-0.482095	0.046491	0.613493
C96	C	-0.232095	0.296491	0.863493
C97	C	-0.982087	-0.336696	0.113490
C98	C	-0.732087	-0.086696	0.363490
C99	C	-0.482087	0.163304	0.613490
C100	C	-0.232087	0.413304	0.863490
C101	C	-0.134104	-0.000066	0.107386
C102	C	0.115896	0.249934	0.357386
C103	C	0.365896	0.499934	0.607386
C104	C	0.615896	0.749934	0.857386
C105	C	-0.226397	-0.000062	0.109014
C106	C	0.023603	0.249938	0.359014
C107	C	0.273603	0.499938	0.609014
C108	C	0.523603	0.749938	0.859014
C109	C	-0.988209	-0.000069	-0.038511
C110	C	-0.738209	0.249931	0.211489
C111	C	-0.488209	0.499931	0.461489
C112	C	-0.238209	0.749931	0.711489
C113	C	-0.986594	-0.000071	-0.130806
C114	C	-0.736594	0.249929	0.119194
C115	C	-0.486594	0.499929	0.369194
C116	C	-0.236594	0.749929	0.619194
N117	N	-0.982117	0.243482	0.113499
N118	N	-0.732117	0.493482	0.363499
N119	N	-0.482117	0.743482	0.613499
N120	N	-0.232117	0.993482	0.863499
C121	C	-1.058602	-0.000060	-0.353080
C122	C	-0.808602	0.249940	-0.103080
C123	C	-0.558602	0.499940	0.146920
C124	C	-0.308602	0.749940	0.396920
C125	C	-1.057078	-0.000051	-0.439800
C126	C	-0.807078	0.249949	-0.189800
C127	C	-0.557078	0.499949	0.060200
C128	C	-0.307078	0.749949	0.310200
C129	C	-0.905588	-0.000044	-0.419923
C130	C	-0.655588	0.249956	-0.169923
C131	C	-0.405588	0.499956	0.080077
C132	C	-0.155588	0.749956	0.330077
C133	C	-0.907113	-0.000045	-0.333204
C134	C	-0.657113	0.249955	-0.083204
C135	C	-0.407113	0.499955	0.166796
C136	C	-0.157113	0.749955	0.416796
C137	C	-0.983622	-0.000058	-0.299785
C138	C	-0.733622	0.249942	-0.049785
C139	C	-0.483622	0.499942	0.200215
C140	C	-0.233622	0.749942	0.450215
C141	C	-0.980573	-0.000049	-0.473225
C142	C	-0.730573	0.249951	-0.223225
C143	C	-0.480573	0.499951	0.026775
C144	C	-0.230573	0.749951	0.276775
C145	C	-0.978920	-0.000039	-0.567251
C146	C	-0.728920	0.249961	-0.317251
C147	C	-0.478920	0.499961	-0.067251
C148	C	-0.228920	0.749961	0.182749
C149	C	-0.985276	-0.000066	-0.205754
C150	C	-0.735276	0.249934	0.044246
C151	C	-0.485276	0.499934	0.294246
C152	C	-0.235276	0.749934	0.544246
C153	C	-0.975987	-0.000044	0.265501
C154	C	-0.725987	0.249956	0.515501
C155	C	-0.475987	0.499956	0.765501
C156	C	-0.225987	0.749956	1.015501
C157	C	-0.977602	-0.000036	0.357796
C158	C	-0.727602	0.249964	0.607796
C159	C	-0.477602	0.499964	0.857796
C160	C	-0.227602	0.749964	1.107796
H161	H	-0.542731	-0.000042	0.252306
H162	H	-0.292731	0.249958	0.502306
H163	H	-0.042731	0.499958	0.752306
H164	H	0.207269	0.749958	1.002306
O165	O	-1.129968	0.000081	-0.491485
O166	O	-0.879968	0.250081	-0.241485
O167	O	-0.629968	0.500081	0.008515
O168	O	-0.379968	0.750081	0.258515
C169	C	-1.176416	0.088721	-0.476340
C170	C	-0.926416	0.338721	-0.226340
C171	C	-0.676416	0.588721	0.023660
C172	C	-0.426416	0.838721	0.273660
H173	H	-1.155986	0.118267	-0.410547
H174	H	-0.905986	0.368267	-0.160547
H175	H	-0.655986	0.618267	0.089453
H176	H	-0.405986	0.868267	0.339453
H177	H	-1.245758	0.068781	-0.482465
H178	H	-0.995758	0.318781	-0.232465
H179	H	-0.745758	0.568781	0.017535
H180	H	-0.495758	0.818781	0.267535
H181	H	-1.165065	0.150788	-0.523761
H182	H	-0.915065	0.400788	-0.273761
H183	H	-0.665065	0.650788	-0.023761
H184	H	-0.415065	0.900788	0.226239
O185	O	-0.376950	0.000096	0.261267
O186	O	-0.126950	0.250096	0.511267
O187	O	0.123050	0.500096	0.761267
O188	O	0.373050	0.750096	1.011267
C189	C	-0.326210	0.088740	0.264932
C190	C	-0.076210	0.338740	0.514932
C191	C	0.173790	0.588740	0.764932
C192	C	0.423790	0.838740	1.014932
H193	H	-0.321844	0.118280	0.198942
H194	H	-0.071844	0.368280	0.448942
H195	H	0.178156	0.618280	0.698942
H196	H	0.428156	0.868280	0.948942
H197	H	-0.261024	0.068809	0.295921
H198	H	-0.011024	0.318809	0.545921
H199	H	0.238976	0.568809	0.795921
H200	H	0.488976	0.818809	1.045921
H201	H	-0.354731	0.150809	0.302897
H202	H	-0.104731	0.400809	0.552897
H203	H	0.145269	0.650809	0.802897
H204	H	0.395269	0.900809	1.052897
H205	H	-1.120900	-0.000068	-0.325874
H206	H	-0.870900	0.249932	-0.075874
H207	H	-0.620900	0.499932	0.174126
H208	H	-0.370900	0.749932	0.424126
H209	H	-0.843297	-0.000035	-0.447144
H210	H	-0.593297	0.249965	-0.197144
H211	H	-0.343297	0.499965	0.052856
H212	H	-0.093297	0.749965	0.302856
O213	O	-0.834219	0.000092	-0.281513
O214	O	-0.584219	0.250092	-0.031513
O215	O	-0.334219	0.500092	0.218487
O216	O	-0.084219	0.750092	0.468487
C217	C	-0.787781	0.088739	-0.296632
C218	C	-0.537781	0.338739	-0.046632
C219	C	-0.287781	0.588739	0.203368
C220	C	-0.037781	0.838739	0.453368
H221	H	-0.808210	0.118286	-0.362420
H222	H	-0.558210	0.368286	-0.112420
H223	H	-0.308210	0.618286	0.137580
H224	H	-0.058210	0.868286	0.387580
H225	H	-0.718436	0.068810	-0.290506
H226	H	-0.468436	0.318810	-0.040506
H227	H	-0.218436	0.568810	0.209494
H228	H	0.031564	0.818810	0.459494
H229	H	-0.799146	0.150803	-0.249199
H230	H	-0.549146	0.400803	0.000801
H231	H	-0.299146	0.650803	0.250801
H232	H	-0.049146	0.900803	0.500801
O233	O	-0.416072	-0.000019	-0.037247
O234	O	-0.166072	0.249981	0.212753
O235	O	0.083928	0.499981	0.462753
O236	O	0.333928	0.749981	0.712753
C237	C	-0.328103	-0.000041	-0.022516
C238	C	-0.078103	0.249959	0.227484
C239	C	0.171897	0.499959	0.477484
C240	C	0.421897	0.749959	0.727484
H241	H	-0.307721	0.032362	0.042374
H242	H	-0.057721	0.282362	0.292374
H243	H	0.192279	0.532362	0.542374
H244	H	0.442279	0.782362	0.792374
H245	H	-0.301495	0.049643	-0.071464
H246	H	-0.051495	0.299643	0.178536
H247	H	0.198505	0.549643	0.428536
H248	H	0.448505	0.799643	0.678536
H249	H	-0.303961	-0.082141	-0.026545
H250	H	-0.053961	0.167859	0.223455
H251	H	0.196039	0.417859	0.473455
H252	H	0.446039	0.667859	0.723455
H253	H	-0.578790	-0.000068	-0.022542
H254	H	-0.328790	0.249932	0.227458
H255	H	-0.078790	0.499932	0.477458
H256	H	0.171210	0.749932	0.727458
