data_functionalizedCrystal
_audit_creation_method	'MofGen! by Chris Wilmer'
_symmetry_space_group_name_H-M	'P1'
_symmetry_Int_Tables_number	1
_symmetry_cell_setting	triclinic
loop_
_symmetry_equiv_pos_as_xyz
  x,y,z
_cell_length_a	10.967926
_cell_length_b	26.809956
_cell_length_c	27.732025
_cell_angle_alpha	89.990099
_cell_angle_beta	83.692545
_cell_angle_gamma	77.886827
loop_
_atom_site_label
_atom_site_type_symbol
_atom_site_fract_x
_atom_site_fract_y
_atom_site_fract_z
O1	O	1.654283	-0.100738	0.067787
O2	O	1.290884	-0.069502	0.074277
O3	O	1.483884	-0.086076	0.000705
O4	O	1.461282	-0.084164	0.141359
O5	O	1.483825	-0.169030	0.000704
O6	O	1.290825	-0.152456	0.074276
O7	O	1.654224	-0.183692	0.067787
Zn8	Zn	1.472515	-0.181245	0.071032
Zn9	Zn	1.472593	-0.071949	0.071032
O10	O	1.461223	-0.167118	0.141359
C11	C	1.244377	-0.106983	0.073804
C12	C	1.105891	-0.095079	0.072392
C13	C	1.044119	-0.132744	0.071762
C14	C	0.900986	-0.120441	0.070302
N15	N	1.472471	-0.255837	0.071031
C16	C	1.547671	-0.606934	0.100609
C17	C	1.547711	-0.815815	0.100609
O18	O	1.611616	-0.848318	0.125752
N19	N	1.472623	-0.835477	0.071027
C20	C	1.397524	-0.802916	0.041441
O21	O	1.333667	-0.824434	0.016276
C22	C	1.397492	-0.594036	0.041439
C23	C	1.472576	-0.574377	0.071026
C24	C	1.622750	-0.587274	0.130194
C25	C	1.622734	-0.535056	0.130196
C26	C	1.547639	-0.502499	0.100613
C27	C	1.472560	-0.522159	0.071028
C28	C	1.322401	-0.561477	0.011851
C29	C	1.322402	-0.509254	0.011852
C30	C	1.397486	-0.489595	0.041439
C31	C	1.397449	-0.437384	0.041447
N32	N	1.472538	-0.417722	0.071029
C33	C	1.547633	-0.450279	0.100612
C34	C	1.397545	-0.912581	0.041445
C35	C	1.397551	-0.964801	0.041446
C36	C	1.547740	-0.977696	0.100614
C37	C	1.547727	-0.925475	0.100615
C38	C	1.472634	-0.892919	0.071027
C39	C	1.547593	-0.340618	0.100613
C40	C	1.547566	-0.288394	0.100614
C41	C	1.397383	-0.275504	0.041445
C42	C	1.397404	-0.327722	0.041446
C43	C	1.472519	-0.360278	0.071032
O44	O	1.333588	-0.404853	0.016313
O45	O	1.611501	-0.428753	0.125765
C46	C	1.547687	-0.659152	0.100608
C47	C	1.472608	-0.678812	0.071023
C48	C	1.397513	-0.646255	0.041440
C49	C	1.472614	-0.731031	0.071024
C50	C	1.547709	-0.763589	0.100607
C51	C	1.622798	-0.743927	0.130189
C52	C	1.622782	-0.691709	0.130190
C53	C	1.322424	-0.665917	0.011858
C54	C	1.322445	-0.718135	0.011859
C55	C	1.397540	-0.750692	0.041442
C56	C	1.700730	-0.146210	0.068259
C57	C	1.839216	-0.158111	0.069672
C58	C	1.483385	-0.127508	-0.017306
C59	C	1.481969	-0.127371	-0.070970
N60	N	1.472646	0.002642	0.071029
C61	C	1.471944	-0.081318	-0.454198
C62	C	1.477241	-0.081757	-0.252505
O63	O	1.478004	-0.043362	-0.226433
N64	N	1.477871	-0.127031	-0.227280
C65	C	1.477185	-0.172199	-0.252482
O66	O	1.477856	-0.210718	-0.226399
C67	C	1.471897	-0.171760	-0.454173
C68	C	1.471254	-0.126482	-0.479395
C69	C	1.471302	-0.036043	-0.479420
C70	C	1.469971	-0.035934	-0.529839
C71	C	1.469281	-0.081098	-0.555037
C72	C	1.469923	-0.126372	-0.529815
C73	C	1.471219	-0.216928	-0.479374
C74	C	1.469900	-0.216815	-0.529801
C75	C	1.469258	-0.171537	-0.555022
C76	C	1.467902	-0.171426	-0.605432
N77	N	1.467272	-0.126152	-0.630658
C78	C	1.467961	-0.080988	-0.605460
C79	C	1.479959	-0.172426	-0.146590
C80	C	1.481279	-0.172536	-0.096167
C81	C	1.481338	-0.082094	-0.096195
C82	C	1.480009	-0.081984	-0.146618
C83	C	1.479329	-0.127152	-0.171815
C84	C	1.465165	-0.080760	-0.711345
C85	C	1.463828	-0.080654	-0.761769
C86	C	1.463777	-0.171096	-0.761737
C87	C	1.465106	-0.171202	-0.711318
C88	C	1.465805	-0.126031	-0.686123
O89	O	1.467153	-0.209802	-0.631536
O90	O	1.467318	-0.042477	-0.631553
C91	C	1.473275	-0.081428	-0.403778
C92	C	1.473916	-0.126702	-0.378556
C93	C	1.473226	-0.171866	-0.403753
C94	C	1.475236	-0.126811	-0.328133
C95	C	1.475926	-0.081647	-0.302935
C96	C	1.475296	-0.036373	-0.328160
C97	C	1.473965	-0.036263	-0.378580
C98	C	1.473856	-0.217140	-0.378528
C99	C	1.475186	-0.217246	-0.328108
C100	C	1.475876	-0.172082	-0.302911
C101	C	1.461723	-0.125685	0.159369
C102	C	1.463138	-0.125818	0.213034
H103	H	1.608759	-0.367120	0.124705
H104	H	1.683937	-0.770443	0.154279
H105	H	1.463300	-0.043781	-0.782302
C106	C	1.628873	-0.267006	0.132804
C107	C	1.552575	-0.230499	0.165279
C108	C	1.627426	-0.210793	0.194943
H109	H	1.686692	-0.251551	0.113259
H110	H	1.673571	-0.293861	0.150449
H111	H	1.507898	-0.203648	0.147636
H112	H	1.494757	-0.245942	0.184834
H113	H	1.672124	-0.237647	0.212588
H114	H	1.685242	-0.195340	0.175395
H115	H	1.575668	-0.186024	0.216984
C116	C	0.830461	-0.065261	0.069559
C117	C	0.915193	-0.032897	0.070412
C118	C	0.850272	0.017936	0.069723
H119	H	0.769631	-0.058115	0.097170
H120	H	0.789790	-0.059877	0.040894
H121	H	0.955843	-0.038278	0.099075
H122	H	0.976025	-0.040027	0.042804
H123	H	0.809601	0.023320	0.041058
H124	H	0.789444	0.025077	0.097334
H125	H	0.907754	0.039901	0.070297
C126	C	1.629321	-1.012964	0.132782
C127	C	1.695071	-0.984574	0.158699
C128	C	1.770224	-1.017047	0.188337
H129	H	1.687221	-1.038302	0.113225
H130	H	1.577789	-1.028906	0.154872
H131	H	1.746598	-0.968641	0.136612
H132	H	1.637202	-0.959238	0.178265
H133	H	1.718693	-1.032989	0.210427
H134	H	1.828117	-1.042384	0.168776
H135	H	1.814836	-0.997789	0.205928
H136	H	1.261290	-0.734136	-0.012233
H137	H	1.471868	0.000736	-0.458909
C138	C	1.482158	-0.221674	-0.068734
C139	C	1.590278	-0.233604	-0.044855
C140	C	1.591129	-0.278865	-0.019577
H141	H	1.481626	-0.248602	-0.090915
H142	H	1.409928	-0.217353	-0.045595
H143	H	1.662489	-0.237928	-0.067992
H144	H	1.590833	-0.206689	-0.022667
H145	H	1.518899	-0.274543	0.003563
H146	H	1.590594	-0.305788	-0.041761
H147	H	1.664480	-0.286962	-0.003368
C148	C	1.478981	-0.221416	-0.173988
C149	C	1.370843	-0.214758	-0.197857
C150	C	1.369887	-0.259874	-0.223099
H151	H	1.479466	-0.248422	-0.151786
H152	H	1.551199	-0.229526	-0.197130
H153	H	1.298645	-0.206655	-0.174718
H154	H	1.370335	-0.187760	-0.220067
H155	H	1.442105	-0.267983	-0.246241
H156	H	1.370376	-0.286876	-0.200894
H157	H	1.296523	-0.255361	-0.239301
H158	H	1.683924	-0.675707	0.154284
H159	H	1.471756	-0.253799	-0.458848
C160	C	0.910188	-0.213225	0.070418
C161	C	1.038040	-0.214473	0.071733
C162	C	1.103454	-0.265233	0.072427
H163	H	0.899116	-0.230895	0.042074
H164	H	0.878917	-0.229140	0.098350
H165	H	1.069301	-0.198565	0.043805
H166	H	1.049149	-0.196813	0.100076
H167	H	1.072183	-0.281148	0.100358
H168	H	1.092373	-0.282899	0.044082
H169	H	1.190206	-0.266087	0.073324
C170	C	1.315981	-0.986049	0.009275
C171	C	1.250245	-0.946357	-0.016642
C172	C	1.175108	-0.965911	-0.046291
H173	H	1.258073	-1.001455	0.028824
H174	H	1.367523	-1.010828	-0.012815
H175	H	1.198708	-0.921587	0.005445
H176	H	1.308123	-0.930947	-0.036201
H177	H	1.226649	-0.990690	-0.068381
H178	H	1.117207	-0.981317	-0.026737
H179	H	1.130506	-0.938985	-0.063882
H180	H	1.336392	-0.886077	0.017350
H181	H	1.469456	0.000936	-0.550371
C182	C	1.704405	-0.513818	0.162330
C183	C	1.770192	-0.553518	0.188223
C184	C	1.845461	-0.533979	0.217825
H185	H	1.652986	-0.489036	0.184438
H186	H	1.762276	-0.498423	0.142735
H187	H	1.712328	-0.568905	0.207816
H188	H	1.821634	-0.578304	0.166128
H189	H	1.903333	-0.518584	0.198230
H190	H	1.794033	-0.509196	0.239929
H191	H	1.890116	-0.560913	0.235393
C192	C	1.704458	-0.622656	0.162233
C193	C	1.789562	-0.659926	0.133233
C194	C	1.864860	-0.692521	0.162735
H195	H	1.653047	-0.638657	0.184307
H196	H	1.749239	-0.603482	0.179839
H197	H	1.744785	-0.679098	0.115636
H198	H	1.841001	-0.643940	0.111161
H199	H	1.909642	-0.673347	0.180341
H200	H	1.813439	-0.708518	0.184808
H201	H	1.922620	-0.717809	0.143063
H202	H	1.465734	-0.043978	-0.690837
H203	H	1.052812	-0.053724	0.071849
C204	C	1.465980	-0.220342	-0.683884
C205	C	1.574107	-0.232279	-0.660009
C206	C	1.574954	-0.277542	-0.634734
H207	H	1.465436	-0.247267	-0.706066
H208	H	1.393755	-0.216021	-0.660742
H209	H	1.646313	-0.236604	-0.683148
H210	H	1.574674	-0.205367	-0.637819
H211	H	1.502728	-0.273221	-0.611593
H212	H	1.574406	-0.304463	-0.656920
H213	H	1.648310	-0.285645	-0.618529
C214	C	1.629034	-0.904088	0.132800
C215	C	1.552747	-0.867576	0.165274
C216	C	1.627606	-0.847872	0.194935
H217	H	1.686860	-0.888638	0.113254
H218	H	1.673726	-0.930943	0.150447
H219	H	1.508077	-0.840725	0.147628
H220	H	1.494922	-0.883014	0.184830
H221	H	1.672298	-0.874727	0.212582
H222	H	1.685429	-0.832424	0.175385
H223	H	1.575856	-0.823100	0.216975
C224	C	1.240850	-0.582722	-0.020328
C225	C	1.175123	-0.543030	-0.046246
C226	C	1.099999	-0.562583	-0.075901
H227	H	1.182937	-0.598130	-0.000783
H228	H	1.292400	-0.607500	-0.042418
H229	H	1.123577	-0.518261	-0.024159
H230	H	1.233005	-0.527618	-0.065800
H231	H	1.151548	-0.587360	-0.097991
H232	H	1.042093	-0.577990	-0.056352
H233	H	1.055402	-0.535655	-0.093493
H234	H	1.261252	-0.482749	-0.012243
H235	H	1.261273	-0.639413	-0.012233
H236	H	1.463210	-0.207867	-0.782262
C237	C	1.315837	-0.348975	0.009273
C238	C	1.250089	-0.309283	-0.016639
C239	C	1.174959	-0.328839	-0.046290
H240	H	1.257935	-0.364386	0.028821
H241	H	1.367384	-0.373750	-0.012819
H242	H	1.198546	-0.284517	0.005450
H243	H	1.307959	-0.293868	-0.036197
H244	H	1.226506	-0.353614	-0.068382
H245	H	1.117065	-0.344250	-0.026738
H246	H	1.130349	-0.301912	-0.063879
H247	H	1.481891	-0.045319	-0.075670
C248	C	1.315778	-0.240078	0.009404
C249	C	1.230731	-0.202793	0.038408
C250	C	1.155560	-0.170145	0.008905
H251	H	1.270942	-0.259194	-0.008229
H252	H	1.367320	-0.224099	-0.012646
H253	H	1.179196	-0.218771	0.060449
H254	H	1.275533	-0.183665	0.056040
H255	H	1.207101	-0.154166	-0.013146
H256	H	1.110733	-0.189265	-0.008727
H257	H	1.097855	-0.144841	0.028579
C258	C	1.479359	-0.032777	-0.173915
C259	C	1.480261	0.006748	-0.141050
C260	C	1.479670	0.052086	-0.166175
H261	H	1.406076	-0.024535	-0.190142
H262	H	1.551652	-0.037074	-0.197021
H263	H	1.407975	0.011045	-0.117952
H264	H	1.553538	-0.001478	-0.124821
H265	H	1.551963	0.047788	-0.189281
H266	H	1.406386	0.060323	-0.182402
H267	H	1.480293	0.078907	-0.143881
C268	C	1.469096	-0.265903	-0.557066
C269	C	1.469911	-0.305571	-0.524180
C270	C	1.469150	-0.350796	-0.549278
H271	H	1.541339	-0.274064	-0.580181
H272	H	1.395764	-0.261512	-0.573279
H273	H	1.543235	-0.309962	-0.507975
H274	H	1.397673	-0.297427	-0.501065
H275	H	1.395818	-0.346405	-0.565490
H276	H	1.541394	-0.358952	-0.572391
H277	H	1.469691	-0.377715	-0.526968
H278	H	1.097200	-0.174099	0.072301
H279	H	1.473441	0.000607	-0.399111
H280	H	1.475848	0.000402	-0.307635
C281	C	1.475944	-0.266466	-0.300818
C282	C	1.475091	-0.305995	-0.333685
C283	C	1.475817	-0.351345	-0.308567
H284	H	1.403703	-0.262214	-0.277701
H285	H	1.549278	-0.274673	-0.284607
H286	H	1.401764	-0.297790	-0.349889
H287	H	1.547326	-0.310264	-0.356804
H288	H	1.549151	-0.359552	-0.292355
H289	H	1.403575	-0.347087	-0.285450
H290	H	1.475250	-0.378171	-0.330864
H291	H	1.473298	-0.253919	-0.399039
