data_functionalizedCrystal
_audit_creation_method	'MofGen! by Chris Wilmer'
_symmetry_space_group_name_H-M	'P1'
_symmetry_Int_Tables_number	1
_symmetry_cell_setting	triclinic
loop_
_symmetry_equiv_pos_as_xyz
  x,y,z
_cell_length_a	21.295418
_cell_length_b	21.295417
_cell_length_c	17.077396
_cell_angle_alpha	89.966808
_cell_angle_beta	89.961209
_cell_angle_gamma	90.046319
loop_
_atom_site_label
_atom_site_type_symbol
_atom_site_fract_x
_atom_site_fract_y
_atom_site_fract_z
Zn1	Zn	0.962325	-0.250343	-0.444221
Zn2	Zn	1.462325	0.249657	0.055779
Zn3	Zn	0.962237	-0.355617	-0.312944
Zn4	Zn	1.462237	0.144383	0.187056
Zn5	Zn	0.857057	-0.250394	-0.312925
Zn6	Zn	1.357057	0.249606	0.187075
Zn7	Zn	0.857018	-0.355608	-0.444124
Zn8	Zn	1.357018	0.144392	0.055876
O9	O	0.909659	-0.302990	-0.378554
O10	O	1.409659	0.197010	0.121446
O11	O	1.050403	-0.264291	-0.426856
O12	O	1.550403	0.235709	0.073144
O13	O	0.948264	-0.341683	-0.203095
O14	O	1.448264	0.158317	0.296905
O15	O	0.871075	-0.162298	-0.330374
O16	O	1.371075	0.337702	0.169626
O17	O	1.050338	-0.341634	-0.330407
O18	O	1.550338	0.158366	0.169593
O19	O	0.948415	-0.162261	-0.426837
O20	O	1.448415	0.337739	0.073163
O21	O	0.870989	-0.264377	-0.203081
O22	O	1.370989	0.235623	0.296919
O23	O	0.768963	-0.264369	-0.330280
O24	O	1.268963	0.235631	0.169720
O25	O	0.871007	-0.341619	-0.553984
O26	O	1.371007	0.158381	-0.053984
O27	O	0.768934	-0.341669	-0.426671
O28	O	1.268934	0.158331	0.073329
O29	O	0.948376	-0.264282	-0.554055
O30	O	1.448376	0.235718	-0.054055
O31	O	0.948225	-0.443705	-0.330313
O32	O	1.448225	0.056295	0.169687
O33	O	0.870922	-0.443698	-0.426690
O34	O	1.370922	0.056302	0.073310
C35	C	0.746107	-0.303024	-0.378463
C36	C	1.246107	0.196976	0.121537
C37	C	0.676139	-0.303053	-0.378443
C38	C	1.176139	0.196947	0.121557
C39	C	0.643274	-0.343356	-0.428559
C40	C	1.143274	0.156644	0.071441
C41	C	0.577532	-0.343341	-0.428594
C42	C	1.077532	0.156659	0.071406
C43	C	0.544657	-0.303029	-0.378500
C44	C	1.044657	0.196971	0.121500
C45	C	0.577530	-0.262717	-0.328380
C46	C	1.077530	0.237283	0.171620
C47	C	0.643271	-0.262729	-0.328352
C48	C	1.143271	0.237271	0.171648
N49	N	0.441386	-0.298113	-0.309843
N50	N	0.941386	0.201887	0.190157
N51	N	0.378934	-0.298105	-0.309872
N52	N	0.878934	0.201895	0.190128
C53	C	0.346582	-0.302988	-0.378583
C54	C	0.846582	0.197012	0.121417
N55	N	0.379041	-0.307893	-0.447265
N56	N	0.879041	0.192107	0.052735
N57	N	0.441498	-0.307904	-0.447235
N58	N	0.941498	0.192096	0.052765
C59	C	0.473372	-0.303011	-0.378525
C60	C	0.973372	0.196989	0.121475
C61	C	0.242431	-0.343277	-0.428741
C62	C	0.742431	0.156723	0.071259
C63	C	0.176688	-0.343257	-0.428778
C64	C	0.676688	0.156743	0.071222
C65	C	0.176688	-0.262637	-0.328557
C66	C	0.676688	0.237363	0.171443
C67	C	0.242430	-0.262654	-0.328527
C68	C	0.742430	0.237346	0.171473
C69	C	0.275298	-0.302977	-0.378618
C70	C	0.775298	0.197023	0.121382
C71	C	0.909577	-0.466542	-0.378510
C72	C	1.409577	0.033458	0.121490
C73	C	0.909599	-0.536510	-0.378518
C74	C	1.409599	-0.036510	0.121482
C75	C	0.949887	-0.569359	-0.328386
C76	C	1.449887	-0.069359	0.171614
C77	C	0.949916	-0.635102	-0.328403
C78	C	1.449916	-0.135102	0.171597
C79	C	0.909647	-0.667993	-0.378545
C80	C	1.409647	-0.167993	0.121455
C81	C	0.869356	-0.635136	-0.428687
C82	C	1.369356	-0.135136	0.071313
C83	C	0.869332	-0.569394	-0.428673
C84	C	1.369332	-0.069394	0.071327
N85	N	0.854579	-0.771274	-0.384499
N86	N	1.354579	-0.271274	0.115501
N87	N	0.854604	-0.833725	-0.384507
N88	N	1.354604	-0.333725	0.115493
C89	C	0.909717	-0.866067	-0.378590
C90	C	1.409717	-0.366067	0.121410
N91	N	0.964807	-0.833599	-0.372649
N92	N	1.464807	-0.333599	0.127351
N93	N	0.964781	-0.771142	-0.372637
N94	N	1.464781	-0.271142	0.127363
C95	C	0.909668	-0.739278	-0.378565
C96	C	1.409668	-0.239278	0.121435
C97	C	0.950041	-0.970202	-0.328474
C98	C	1.450041	-0.470202	0.171526
C99	C	0.950071	-1.035946	-0.328498
C100	C	1.450071	-0.535946	0.171502
C101	C	0.869505	-1.035978	-0.428777
C102	C	1.369505	-0.535978	0.071223
C103	C	0.869480	-0.970236	-0.428758
C104	C	1.369480	-0.470236	0.071242
C105	C	0.909747	-0.937352	-0.378602
C106	C	1.409747	-0.437352	0.121398
C107	C	1.073849	-0.302958	-0.378645
C108	C	1.573849	0.197042	0.121355
C109	C	1.143818	-0.302944	-0.378684
C110	C	1.643818	0.197056	0.121316
C111	C	0.909697	-0.302944	-0.583298
C112	C	1.409697	0.197056	-0.083298
C113	C	0.909713	-0.302924	-0.670548
C114	C	1.409713	0.197076	-0.170548
C115	C	0.909759	-0.138800	-0.378614
C116	C	1.409759	0.361200	0.121386
C117	C	0.909802	-0.068832	-0.378640
C118	C	1.409802	0.431168	0.121360
C119	C	0.950001	-0.262651	-0.711577
C120	C	1.450001	0.237349	-0.211577
C121	C	0.950009	-0.262631	-0.793557
C122	C	1.450009	0.237369	-0.293557
C123	C	0.909731	-0.302886	-0.834507
C124	C	1.409731	0.197114	-0.334507
C125	C	0.869439	-0.343161	-0.793473
C126	C	1.369439	0.156839	-0.293473
C127	C	0.869429	-0.343178	-0.711494
C128	C	1.369429	0.156822	-0.211494
C129	C	0.869465	-0.343123	-0.964343
C130	C	1.369465	0.156877	-0.464343
C131	C	0.869476	-0.343107	-1.046328
C132	C	1.369476	0.156893	-0.546328
C133	C	0.950044	-0.262575	-1.046406
C134	C	1.450044	0.237425	-0.546406
C135	C	0.950034	-0.262593	-0.964427
C136	C	1.450034	0.237407	-0.464427
C137	C	0.909743	-0.302868	-0.923398
C138	C	1.409743	0.197132	-0.423398
C139	C	0.909657	-0.302991	-0.174606
C140	C	1.409657	0.197009	0.325394
C141	C	0.909763	-0.302834	-0.087356
C142	C	1.409763	0.197166	0.412644
H143	H	0.269194	-0.376108	-0.469532
H144	H	0.769194	0.123892	0.030468
C145	C	0.476751	-0.379120	-0.473126
C146	C	0.976751	0.120880	0.026874
C147	C	0.541395	-0.387647	-0.483682
C148	C	1.041395	0.112353	0.016318
H149	H	0.454444	-0.406471	-0.507138
H150	H	0.954444	0.093529	-0.007138
H151	H	0.465931	-0.388273	-0.420372
H152	H	0.965931	0.111727	0.079628
H153	H	0.466035	-0.336834	-0.484724
H154	H	0.966035	0.163166	0.015276
H155	H	0.552111	-0.429933	-0.472079
H156	H	1.052111	0.070067	0.027921
H157	H	0.552218	-0.378499	-0.536449
H158	H	1.052218	0.121501	-0.036449
H159	H	0.982816	-0.229838	-0.826959
H160	H	1.482816	0.270162	-0.326959
H161	H	0.550759	-0.229894	-0.287594
H162	H	1.050759	0.270106	0.212406
H163	H	0.836617	-0.375966	-0.678089
H164	H	1.336617	0.124034	-0.178089
C165	C	0.958703	-0.709074	-0.222828
C166	C	1.458703	-0.209074	0.277172
C167	C	0.994191	-0.671213	-0.273272
C168	C	1.494191	-0.171213	0.226728
H169	H	0.986035	-0.731366	-0.188790
H170	H	1.486035	-0.231366	0.311210
H171	H	0.931279	-0.683470	-0.192777
H172	H	1.431279	-0.183470	0.307223
H173	H	0.934735	-0.738071	-0.252707
H174	H	1.434735	-0.238071	0.247293
H175	H	1.018156	-0.642213	-0.243393
H176	H	1.518156	-0.142213	0.256607
H177	H	1.021627	-0.696820	-0.303326
H178	H	1.521627	-0.196820	0.196674
H179	H	0.149930	-0.376076	-0.469593
H180	H	0.649930	0.123924	0.030407
C181	C	0.833614	-0.735928	-0.473223
C182	C	1.333614	-0.235928	0.026777
C183	C	0.825089	-0.671287	-0.483801
C184	C	1.325089	-0.171287	0.016199
H185	H	0.806283	-0.758244	-0.507249
H186	H	1.306283	-0.258244	-0.007249
H187	H	0.875903	-0.746643	-0.484781
H188	H	1.375903	-0.246643	0.015219
H189	H	0.824428	-0.746736	-0.420466
H190	H	1.324428	-0.246736	0.079534
H191	H	0.834279	-0.660478	-0.536557
H192	H	1.334279	-0.160478	-0.036557
H193	H	0.782791	-0.660567	-0.472249
H194	H	1.282791	-0.160567	0.027751
C195	C	0.860674	-0.427755	-1.138494
C196	C	1.360674	0.072245	-0.638494
C197	C	0.825195	-0.387344	-1.091348
C198	C	1.325195	0.112656	-0.591348
H199	H	0.833334	-0.455065	-1.166285
H200	H	1.333334	0.044935	-0.666285
H201	H	0.884672	-0.403768	-1.174652
H202	H	1.384672	0.096232	-0.674652
H203	H	0.888071	-0.451845	-1.106515
H204	H	1.388071	0.048155	-0.606515
H205	H	0.797802	-0.363251	-1.123328
H206	H	1.297802	0.136749	-0.623328
H207	H	0.801187	-0.411334	-1.055186
H208	H	1.301187	0.088666	-0.555186
C209	C	0.980722	-0.156058	-0.686399
C210	C	1.480722	0.343942	-0.186399
C211	C	0.994274	-0.218399	-0.666568
C212	C	1.494274	0.281601	-0.166568
H213	H	1.008052	-0.128737	-0.658610
H214	H	1.508052	0.371263	-0.158610
H215	H	0.986495	-0.150290	-0.741089
H216	H	1.486495	0.349710	-0.241089
H217	H	0.938429	-0.146866	-0.672935
H218	H	1.438429	0.353134	-0.172935
H219	H	1.036566	-0.227592	-0.680037
H220	H	1.536566	0.272408	-0.180037
H221	H	0.988506	-0.224170	-0.611866
H222	H	1.488506	0.275830	-0.111866
H223	H	0.269189	-0.229837	-0.287713
H224	H	0.769189	0.270163	0.212287
H225	H	0.982850	-0.229780	-1.079816
H226	H	1.482850	0.270220	-0.579816
C227	C	0.860669	-0.427812	-0.872104
C228	C	1.360669	0.072188	-0.372104
C229	C	0.825184	-0.387395	-0.919232
C230	C	1.325184	0.112605	-0.419232
H231	H	0.833335	-0.455141	-0.844249
H232	H	1.333335	0.044859	-0.344249
H233	H	0.888077	-0.451876	-0.904097
H234	H	1.388077	0.048124	-0.404097
H235	H	0.884654	-0.403827	-0.835995
H236	H	1.384654	0.096173	-0.335995
H237	H	0.801202	-0.411380	-0.955345
H238	H	1.301202	0.088620	-0.455345
H239	H	0.797764	-0.363328	-0.887236
H240	H	1.297764	0.136672	-0.387236
H241	H	0.982830	-0.943427	-0.287637
H242	H	1.482830	-0.443427	0.212363
H243	H	0.982882	-1.062690	-0.287676
H244	H	1.482882	-0.562690	0.212324
C245	C	0.156397	-0.231842	-0.195710
C246	C	0.656397	0.268158	0.304290
C247	C	0.140572	-0.218323	-0.273480
C248	C	0.640572	0.281677	0.226520
H249	H	0.134104	-0.204478	-0.161707
H250	H	0.634104	0.295522	0.338293
H251	H	0.145563	-0.274117	-0.184137
H252	H	0.645563	0.225883	0.315863
H253	H	0.200257	-0.226087	-0.188541
H254	H	0.700257	0.273913	0.311459
H255	H	0.096711	-0.224081	-0.280651
H256	H	0.596711	0.275919	0.219349
H257	H	0.151401	-0.176037	-0.285057
H258	H	0.651401	0.323963	0.214943
C259	C	1.029528	-0.575936	-0.229272
C260	C	1.529528	-0.075936	0.270728
C261	C	0.994157	-0.533214	-0.273267
C262	C	1.494157	-0.033214	0.226733
H263	H	1.056862	-0.553618	-0.195250
H264	H	1.556862	-0.053618	0.304750
H265	H	1.002125	-0.601622	-0.199205
H266	H	1.502125	-0.101622	0.300795
H267	H	1.053595	-0.601533	-0.263525
H268	H	1.553595	-0.101533	0.236475
H269	H	0.970086	-0.507620	-0.239013
H270	H	1.470086	-0.007620	0.260987
H271	H	1.021564	-0.507516	-0.303335
H272	H	1.521564	-0.007516	0.196665
C273	C	0.717124	-0.253894	-0.222753
C274	C	1.217124	0.246106	0.277247
C275	C	0.679403	-0.218429	-0.273257
C276	C	1.179403	0.281571	0.226743
H277	H	0.739434	-0.226544	-0.188743
H278	H	1.239434	0.273456	0.311257
H279	H	0.691423	-0.281277	-0.192677
H280	H	1.191423	0.218723	0.307323
H281	H	0.746106	-0.277905	-0.252592
H282	H	1.246106	0.222095	0.247408
H283	H	0.650418	-0.194422	-0.243419
H284	H	1.150418	0.305578	0.256581
H285	H	0.705107	-0.191036	-0.303336
H286	H	1.205107	0.308964	0.196664
C287	C	0.789700	-0.576032	-0.527796
C288	C	1.289700	-0.076032	-0.027796
C289	C	0.825040	-0.533283	-0.483778
C290	C	1.325040	-0.033283	0.016222
H291	H	0.762353	-0.553735	-0.561810
H292	H	1.262353	-0.053735	-0.061810
H293	H	0.817123	-0.601619	-0.557871
H294	H	1.317123	-0.101619	-0.057871
H295	H	0.765648	-0.601725	-0.493556
H296	H	1.265648	-0.101725	0.006444
H297	H	0.849096	-0.507592	-0.518017
H298	H	1.349096	-0.007592	-0.018017
H299	H	0.797614	-0.507685	-0.453700
H300	H	1.297614	-0.007685	0.046300
H301	H	0.670031	-0.376190	-0.469348
H302	H	1.170031	0.123810	0.030652
H303	H	0.836720	-1.062757	-0.469606
H304	H	1.336720	-0.562757	0.030394
C305	C	0.784776	-0.896394	-0.439508
C306	C	1.284776	-0.396394	0.060492
C307	C	0.825189	-0.934121	-0.483856
C308	C	1.325189	-0.434121	0.016144
H309	H	0.757436	-0.874096	-0.473528
H310	H	1.257436	-0.374096	0.026472
H311	H	0.760724	-0.922090	-0.405283
H312	H	1.260724	-0.422090	0.094717
H313	H	0.808763	-0.867402	-0.409644
H314	H	1.308763	-0.367402	0.090356
H315	H	0.801202	-0.963116	-0.513716
H316	H	1.301202	-0.463116	-0.013716
H317	H	0.849244	-0.908423	-0.518094
H318	H	1.349244	-0.408423	-0.018094
C319	C	1.029671	-0.182985	-0.972735
C320	C	1.529671	0.317015	-0.472735
C321	C	0.994306	-0.218343	-0.919413
C322	C	1.494306	0.281657	-0.419413
H323	H	1.056999	-0.155664	-0.944943
H324	H	1.556999	0.344336	-0.444943
H325	H	1.053738	-0.210399	-1.004712
H326	H	1.553738	0.289601	-0.504712
H327	H	1.002258	-0.158906	-1.004704
H328	H	1.502258	0.341094	-0.504704
H329	H	1.021719	-0.242427	-0.887447
H330	H	1.521719	0.257573	-0.387447
H331	H	0.970237	-0.190926	-0.887422
H332	H	1.470237	0.309074	-0.387422
H333	H	0.836643	-0.375935	-0.826821
H334	H	1.336643	0.124065	-0.326821
