data_functionalizedCrystal
_audit_creation_method	'MofGen! by Chris Wilmer'
_symmetry_space_group_name_H-M	'P1'
_symmetry_Int_Tables_number	1
_symmetry_cell_setting	triclinic
loop_
_symmetry_equiv_pos_as_xyz
  x,y,z
_cell_length_a	15.944551
_cell_length_b	11.792241
_cell_length_c	10.268362
_cell_angle_alpha	90.001488
_cell_angle_beta	89.999878
_cell_angle_gamma	96.153923
loop_
_atom_site_label
_atom_site_type_symbol
_atom_site_fract_x
_atom_site_fract_y
_atom_site_fract_z
O1	O	1.115185	-0.146374	-0.108165
O2	O	0.870717	-0.164421	-0.108197
O3	O	0.998884	0.009822	-0.108171
O4	O	0.987019	-0.320617	-0.108191
O5	O	0.998871	0.009816	0.108429
O6	O	0.870705	-0.164427	0.108403
O7	O	1.115173	-0.146380	0.108436
Cu8	Cu	0.992938	-0.155404	0.128197
Cu9	Cu	0.992952	-0.155397	-0.127958
O10	O	0.987006	-0.320623	0.108410
C11	C	0.998132	0.052104	0.000129
C12	C	0.995901	0.178099	0.000127
C13	C	0.839414	-0.163675	0.000099
C14	C	0.746157	-0.161429	0.000087
N15	N	0.992934	-0.155408	0.308363
C16	C	0.530789	-0.048056	0.000119
C17	C	0.470013	-0.100700	-0.106680
C18	C	0.575413	-0.157365	0.000102
C19	C	0.470023	-0.100731	0.106871
C20	C	0.410483	-0.153432	0.000123
C21	C	0.515865	-0.210039	-0.106785
C22	C	0.515882	-0.210055	0.106863
C23	C	0.455123	-0.262778	0.000038
C24	C	0.670426	-0.159628	0.000089
C25	C	0.315471	-0.151178	0.000127
C26	C	1.146476	-0.147126	0.000137
C27	C	1.239733	-0.149372	0.000140
C28	C	0.987758	-0.362905	0.000107
C29	C	0.989989	-0.488900	0.000100
C30	C	0.991799	0.408777	0.000105
C31	C	0.994079	0.280411	0.000117
N32	N	0.992963	-0.155384	-0.308124
C33	C	0.992940	-0.155409	0.426205
C34	C	0.992950	-0.155399	0.574043
H35	H	0.449699	-0.054464	-0.196965
H36	H	0.536216	-0.256253	0.197152
C37	C	0.411335	-0.383799	-0.000245
C38	C	0.360386	-0.400198	-0.111142
C39	C	0.320027	-0.511660	-0.111445
H40	H	0.452441	-0.436446	-0.001069
H41	H	0.377397	-0.395630	0.075598
H42	H	0.394322	-0.388378	-0.186966
H43	H	0.319266	-0.347578	-0.110341
H44	H	0.286088	-0.523491	-0.035602
H45	H	0.361138	-0.564297	-0.112266
H46	H	0.285447	-0.522798	-0.186681
C47	C	0.443084	-0.038888	0.227217
C48	C	0.481768	0.073456	0.226716
C49	C	0.456983	0.130464	0.337557
H50	H	0.383551	-0.038389	0.226878
H51	H	0.459581	-0.076919	0.303090
H52	H	0.465266	0.111478	0.150863
H53	H	0.541301	0.072990	0.227074
H54	H	0.473480	0.092433	0.413430
H55	H	0.397450	0.130955	0.337209
H56	H	0.483232	0.206692	0.337239
H57	H	0.563713	0.042662	-0.000008
C58	C	0.542966	-0.271543	-0.227268
C59	C	0.630664	-0.272858	-0.225916
C60	C	0.655662	-0.329488	-0.336892
H61	H	0.516464	-0.347629	-0.227695
H62	H	0.526947	-0.232963	-0.303046
H63	H	0.646675	-0.311441	-0.150159
H64	H	0.657187	-0.196789	-0.225509
H65	H	0.639643	-0.290907	-0.412669
H66	H	0.629155	-0.405570	-0.337309
H67	H	0.715168	-0.330379	-0.335996
