data_functionalizedCrystal
_audit_creation_method	'MofGen! by Chris Wilmer'
_symmetry_space_group_name_H-M	'P1'
_symmetry_Int_Tables_number	1
_symmetry_cell_setting	triclinic
loop_
_symmetry_equiv_pos_as_xyz
  x,y,z
_cell_length_a	11.169417
_cell_length_b	18.215399
_cell_length_c	11.169416
_cell_angle_alpha	89.975965
_cell_angle_beta	90.011219
_cell_angle_gamma	89.986667
loop_
_atom_site_label
_atom_site_type_symbol
_atom_site_fract_x
_atom_site_fract_y
_atom_site_fract_z
Zn1	Zn	1.834885	-0.416080	-0.477763
Zn2	Zn	2.084885	-0.166080	-0.227763
Zn3	Zn	2.334885	0.083920	0.022237
Zn4	Zn	2.584885	0.333920	0.272237
Zn5	Zn	1.834798	-0.293027	-0.678479
Zn6	Zn	2.084798	-0.043027	-0.428479
Zn7	Zn	2.334798	0.206973	-0.178479
Zn8	Zn	2.584798	0.456973	0.071521
Zn9	Zn	1.634194	-0.293035	-0.477812
Zn10	Zn	1.884194	-0.043035	-0.227812
Zn11	Zn	2.134194	0.206965	0.022188
Zn12	Zn	2.384194	0.456965	0.272188
Zn13	Zn	1.634179	-0.416059	-0.678406
Zn14	Zn	1.884179	-0.166059	-0.428406
Zn15	Zn	2.134179	0.083941	-0.178406
Zn16	Zn	2.384179	0.333941	0.071594
O17	O	1.734514	-0.354550	-0.578115
O18	O	1.984514	-0.104550	-0.328115
O19	O	2.234514	0.145450	-0.078115
O20	O	2.484514	0.395450	0.171885
O21	O	2.002823	-0.399762	-0.504399
O22	O	2.252823	-0.149762	-0.254399
O23	O	2.502823	0.100238	-0.004399
O24	O	2.752823	0.350238	0.245601
O25	O	1.808157	-0.190044	-0.651912
O26	O	2.058157	0.059956	-0.401912
O27	O	2.308157	0.309956	-0.151912
O28	O	2.558157	0.559956	0.098088
O29	O	1.660859	-0.309368	-0.309856
O30	O	1.910859	-0.059368	-0.059856
O31	O	2.160859	0.190632	0.190144
O32	O	2.410859	0.440632	0.440144
O33	O	2.002759	-0.309356	-0.651864
O34	O	2.252759	-0.059356	-0.401864
O35	O	2.502759	0.190644	-0.151864
O36	O	2.752759	0.440644	0.098136
O37	O	1.808306	-0.399769	-0.309820
O38	O	2.058306	-0.149769	-0.059820
O39	O	2.308306	0.100231	0.190180
O40	O	2.558306	0.350231	0.440180
O41	O	1.660774	-0.190049	-0.504482
O42	O	1.910774	0.059951	-0.254482
O43	O	2.160774	0.309951	-0.004482
O44	O	2.410774	0.559951	0.245518
O45	O	1.466242	-0.309349	-0.504411
O46	O	1.716242	-0.059349	-0.254411
O47	O	1.966242	0.190651	-0.004411
O48	O	2.216242	0.440651	0.245589
O49	O	1.660833	-0.519046	-0.651739
O50	O	1.910833	-0.269046	-0.401739
O51	O	2.160833	-0.019046	-0.151739
O52	O	2.410833	0.230954	0.098261
O53	O	1.466231	-0.399735	-0.651786
O54	O	1.716231	-0.149735	-0.401786
O55	O	1.966231	0.100265	-0.151786
O56	O	2.216231	0.350265	0.098214
O57	O	1.808292	-0.519061	-0.504327
O58	O	2.058292	-0.269061	-0.254327
O59	O	2.308292	-0.019061	-0.004327
O60	O	2.558292	0.230939	0.245673
O61	O	1.808142	-0.309336	-0.846419
O62	O	2.058142	-0.059336	-0.596419
O63	O	2.308142	0.190664	-0.346419
O64	O	2.558142	0.440664	-0.096419
O65	O	1.660748	-0.399727	-0.846365
O66	O	1.910748	-0.149727	-0.596365
O67	O	2.160748	0.100273	-0.346365
O68	O	2.410748	0.350273	-0.096365
C69	C	1.422689	-0.354541	-0.578097
C70	C	1.672689	-0.104541	-0.328097
C71	C	1.922689	0.145459	-0.078097
C72	C	2.172689	0.395459	0.171903
C73	C	1.289289	-0.354554	-0.578118
C74	C	1.539289	-0.104554	-0.328118
C75	C	1.789289	0.145446	-0.078118
C76	C	2.039289	0.395446	0.171882
C77	C	1.734571	-0.546503	-0.578019
C78	C	1.984571	-0.296503	-0.328019
C79	C	2.234571	-0.046503	-0.078019
C80	C	2.484571	0.203497	0.171981
C81	C	1.734595	-0.628302	-0.577978
C82	C	1.984595	-0.378302	-0.327978
C83	C	2.234595	-0.128302	-0.077978
C84	C	2.484595	0.121698	0.172022
C85	C	1.657918	-0.816500	-0.501160
C86	C	1.907918	-0.566500	-0.251160
C87	C	2.157918	-0.316500	-0.001160
C88	C	2.407918	-0.066500	0.248840
C89	C	1.657938	-0.893359	-0.501136
C90	C	1.907938	-0.643359	-0.251136
C91	C	2.157938	-0.393359	-0.001136
C92	C	2.407938	-0.143359	0.248864
C93	C	1.811415	-0.893342	-0.654653
C94	C	2.061415	-0.643342	-0.404653
C95	C	2.311415	-0.393342	-0.154653
C96	C	2.561415	-0.143342	0.095347
C97	C	1.811388	-0.816485	-0.654683
C98	C	2.061388	-0.566485	-0.404683
C99	C	2.311388	-0.316485	-0.154683
C100	C	2.561388	-0.066485	0.095317
C101	C	1.734641	-0.778066	-0.577929
C102	C	1.984641	-0.528066	-0.327929
C103	C	2.234641	-0.278066	-0.077929
C104	C	2.484641	-0.028066	0.172071
C105	C	1.734689	-0.931782	-0.577876
C106	C	1.984689	-0.681782	-0.327876
C107	C	2.234689	-0.431782	-0.077876
C108	C	2.484689	-0.181782	0.172124
C109	C	1.734712	-1.015116	-0.577850
C110	C	1.984712	-0.765116	-0.327850
C111	C	2.234712	-0.515116	-0.077850
C112	C	2.484712	-0.265116	0.172150
C113	C	1.734615	-0.694727	-0.577956
C114	C	1.984615	-0.444727	-0.327956
C115	C	2.234615	-0.194727	-0.077956
C116	C	2.484615	0.055273	0.172044
C117	C	2.047556	-0.354560	-0.578134
C118	C	2.297556	-0.104560	-0.328134
C119	C	2.547556	0.145440	-0.078134
C120	C	2.797556	0.395440	0.171866
C121	C	2.180956	-0.354564	-0.578142
C122	C	2.430956	-0.104564	-0.328142
C123	C	2.680956	0.145436	-0.078142
C124	C	2.930956	0.395436	0.171858
C125	C	1.734466	-0.354545	-0.889940
C126	C	1.984466	-0.104545	-0.639940
C127	C	2.234466	0.145455	-0.389940
C128	C	2.484466	0.395455	-0.139940
C129	C	1.734556	-0.354567	-1.023340
C130	C	1.984556	-0.104567	-0.773340
C131	C	2.234556	0.145433	-0.523340
C132	C	2.484556	0.395433	-0.273340
C133	C	1.734527	-0.163344	-0.578124
C134	C	1.984527	0.086656	-0.328124
C135	C	2.234527	0.336656	-0.078124
C136	C	2.484527	0.586656	0.171876
C137	C	1.734735	-0.081545	-0.577827
C138	C	1.984735	0.168455	-0.327827
C139	C	2.234735	0.418455	-0.077827
C140	C	2.484735	0.668455	0.172173
C141	C	1.734594	-0.354572	-0.265073
C142	C	1.984594	-0.104572	-0.015073
C143	C	2.234594	0.145428	0.234927
C144	C	2.484594	0.395428	0.484927
C145	C	1.734629	-0.354581	-0.131673
C146	C	1.984629	-0.104581	0.118327
C147	C	2.234629	0.145419	0.368327
C148	C	2.484629	0.395419	0.618327
H149	H	1.595425	-0.785221	-0.438662
H150	H	1.845425	-0.535221	-0.188662
H151	H	2.095425	-0.285221	0.061338
H152	H	2.345425	-0.035221	0.311338
H153	H	1.873868	-0.785191	-0.717202
H154	H	2.123868	-0.535191	-0.467202
H155	H	2.373868	-0.285191	-0.217202
H156	H	2.623868	-0.035191	0.032798
H157	H	1.873901	-0.924632	-0.717143
H158	H	2.123901	-0.674632	-0.467143
H159	H	2.373901	-0.424632	-0.217143
H160	H	2.623901	-0.174632	0.032857
C161	C	1.573544	-0.935633	-0.416676
C162	C	1.823544	-0.685633	-0.166676
C163	C	2.073544	-0.435633	0.083324
C164	C	2.323544	-0.185633	0.333324
N165	N	1.509975	-0.967473	-0.353056
N166	N	1.759975	-0.717473	-0.103056
N167	N	2.009975	-0.467473	0.146944
N168	N	2.259975	-0.217473	0.396944
