data_functionalizedCrystal
_audit_creation_method	'MofGen! by Chris Wilmer'
_symmetry_space_group_name_H-M	'P1'
_symmetry_Int_Tables_number	1
_symmetry_cell_setting	triclinic
loop_
_symmetry_equiv_pos_as_xyz
  x,y,z
_cell_length_a	16.120530
_cell_length_b	16.120484
_cell_length_c	16.120256
_cell_angle_alpha	84.383827
_cell_angle_beta	90.128265
_cell_angle_gamma	89.832673
loop_
_atom_site_label
_atom_site_type_symbol
_atom_site_fract_x
_atom_site_fract_y
_atom_site_fract_z
Zn1	Zn	1.224986	0.422281	-0.554816
Zn2	Zn	1.558319	0.755615	-0.221483
Zn3	Zn	1.891653	1.088948	0.111850
Zn4	Zn	1.224882	0.554961	-0.422121
Zn5	Zn	1.558215	0.888295	-0.088787
Zn6	Zn	1.891548	1.221628	0.244546
Zn7	Zn	1.093725	0.408193	-0.408058
Zn8	Zn	1.427059	0.741526	-0.074725
Zn9	Zn	1.760392	1.074859	0.258608
Zn10	Zn	1.078879	0.554198	-0.554054
Zn11	Zn	1.412212	0.887531	-0.220720
Zn12	Zn	1.745545	1.220864	0.112613
O13	O	1.155618	0.484908	-0.484762
O14	O	1.488951	0.818242	-0.151429
O15	O	1.822285	1.151575	0.181904
O16	O	1.341008	0.446097	-0.543418
O17	O	1.674341	0.779431	-0.210085
O18	O	2.007674	1.112764	0.123248
O19	O	1.213653	0.529915	-0.303622
O20	O	1.546987	0.863249	0.029712
O21	O	1.880320	1.196582	0.363045
O22	O	1.117394	0.293431	-0.421960
O23	O	1.450728	0.626764	-0.088627
O24	O	1.784061	0.960097	0.244707
O25	O	1.340931	0.543577	-0.445927
O26	O	1.674265	0.876910	-0.112594
O27	O	2.007598	1.210243	0.220739
O28	O	1.213831	0.303782	-0.529783
O29	O	1.547164	0.637115	-0.196449
O30	O	1.880498	0.970448	0.136884
O31	O	1.117293	0.422085	-0.293290
O32	O	1.450627	0.755418	0.040043
O33	O	1.783960	1.088752	0.373376
O34	O	0.975720	0.421345	-0.421221
O35	O	1.309054	0.754678	-0.087887
O36	O	1.642387	1.088011	0.245446
O37	O	1.092090	0.542275	-0.670788
O38	O	1.425424	0.875609	-0.337455
O39	O	1.758757	1.208942	-0.004122
O40	O	0.964812	0.528614	-0.528483
O41	O	1.298146	0.861947	-0.195150
O42	O	1.631479	1.195281	0.138184
O43	O	1.199435	0.445357	-0.671349
O44	O	1.532768	0.778690	-0.338015
O45	O	1.866101	1.112024	-0.004682
O46	O	1.199257	0.671491	-0.445188
O47	O	1.532590	1.004824	-0.111854
O48	O	1.865924	1.338157	0.221479
O49	O	1.091989	0.670930	-0.542119
O50	O	1.425322	1.004263	-0.208785
O51	O	1.758656	1.337597	0.124548
C52	C	1.144022	0.701453	-0.495116
C53	C	1.477356	1.034787	-0.161782
C54	C	1.810689	1.368120	0.171551
C55	C	1.139136	0.794098	-0.499577
C56	C	1.472469	1.127431	-0.166244
C57	C	1.805803	1.460764	0.167090
C58	C	0.940179	0.473368	-0.473243
C59	C	1.273513	0.806702	-0.139910
C60	C	1.606846	1.140035	0.193423
C61	C	0.848012	0.468453	-0.468336
C62	C	1.181345	0.801786	-0.135003
C63	C	1.514678	1.135119	0.198330
C64	C	1.144118	0.495303	-0.702156
C65	C	1.477451	0.828636	-0.368822
C66	C	1.810785	1.161969	-0.035489
C67	C	1.139217	0.499732	-0.794796
C68	C	1.472551	0.833065	-0.461463
C69	C	1.805884	1.166399	-0.128129
C70	C	0.679260	0.459459	-0.459384
C71	C	1.012594	0.792792	-0.126050
C72	C	1.345927	1.126125	0.207283
C73	C	0.632809	0.510422	-0.510204
C74	C	0.966143	0.843756	-0.176871
C75	C	1.299476	1.177089	0.156462
C76	C	0.538910	0.505418	-0.505223
C77	C	0.872244	0.838751	-0.171890
C78	C	1.205577	1.172085	0.161443
C79	C	0.773168	0.464462	-0.464364
C80	C	1.106501	0.797795	-0.131031
C81	C	1.439835	1.131128	0.202303
C82	C	1.371898	0.496494	-0.496326
C83	C	1.705231	0.829827	-0.162993
C84	C	2.038564	1.163160	0.170340
C85	C	1.464063	0.501431	-0.501254
C86	C	1.797396	0.834764	-0.167921
C87	C	2.130730	1.168098	0.165412
C88	C	1.167280	0.267520	-0.474388
C89	C	1.500614	0.600853	-0.141054
C90	C	1.833947	0.934186	0.192279
C91	C	1.172250	0.174881	-0.469967
C92	C	1.505584	0.508215	-0.136633
C93	C	1.838917	0.841548	0.196700
C94	C	1.130219	0.963721	-0.507739
C95	C	1.463552	1.297054	-0.174406
C96	C	1.796885	1.630388	0.158927
C97	C	1.181165	1.005263	-0.461807
C98	C	1.514498	1.338597	-0.128473
C99	C	1.847832	1.671930	0.204860
C100	C	1.176203	1.099648	-0.466348
C101	C	1.509537	1.432981	-0.133015
C102	C	1.842870	1.766314	0.200318
C103	C	1.135179	0.869328	-0.503199
C104	C	1.468513	1.202662	-0.169865
C105	C	1.801846	1.535995	0.163468
C106	C	1.181174	0.461788	-1.005960
C107	C	1.514507	0.795121	-0.672627
C108	C	1.847840	1.128454	-0.339294
C109	C	1.130244	0.507783	-0.964402
C110	C	1.463577	0.841116	-0.631069
C111	C	1.796911	1.174450	-0.297735
C112	C	1.135238	0.503302	-0.870024
C113	C	1.468572	0.836635	-0.536691
C114	C	1.801905	1.169969	-0.203358
C115	C	1.176181	0.466268	-1.100346
C116	C	1.509514	0.799601	-0.767013
C117	C	1.842847	1.132934	-0.433680
C118	C	1.167124	0.474497	-0.268214
C119	C	1.500457	0.807830	0.065119
C120	C	1.833791	1.141163	0.398453
C121	C	1.172198	0.469841	-0.175572
C122	C	1.505531	0.803174	0.157762
C123	C	1.838865	1.136508	0.491095
H124	H	0.663562	0.557811	-0.557456
H125	H	0.996895	0.891144	-0.224122
H126	H	1.330228	1.224478	0.109211
C127	C	1.066263	1.011424	-0.565464
C128	C	1.399596	1.344758	-0.232131
C129	C	1.732929	1.678091	0.101202
H130	H	1.034950	0.972950	-0.593692
H131	H	1.368283	1.306284	-0.260359
H132	H	1.701617	1.639617	0.072975
H133	H	1.030100	1.041978	-0.533222
H134	H	1.363433	1.375311	-0.199889
H135	H	1.696767	1.708645	0.133444
H136	H	1.094287	1.048774	-0.605103
H137	H	1.427621	1.382107	-0.271770
H138	H	1.760954	1.715440	0.061563
H139	H	1.228523	0.419049	-0.970662
H140	H	1.561857	0.752382	-0.637328
H141	H	1.895190	1.085715	-0.303995
H142	H	0.648510	0.412073	-0.412137
H143	H	0.981843	0.745406	-0.078804
H144	H	1.315177	1.078740	0.254530
H145	H	1.228507	0.969944	-0.419071
H146	H	1.561840	1.303277	-0.085738
H147	H	1.895174	1.636610	0.247595
H148	H	1.082887	0.550521	-0.999702
H149	H	1.416220	0.883855	-0.666369
H150	H	1.749553	1.217188	-0.333036
