data_functionalizedCrystal
_audit_creation_method	'MofGen! by Chris Wilmer'
_symmetry_space_group_name_H-M	'P1'
_symmetry_Int_Tables_number	1
_symmetry_cell_setting	triclinic
loop_
_symmetry_equiv_pos_as_xyz
  x,y,z
_cell_length_a	13.339070
_cell_length_b	23.532357
_cell_length_c	12.376457
_cell_angle_alpha	101.196651
_cell_angle_beta	75.589755
_cell_angle_gamma	99.228793
loop_
_atom_site_label
_atom_site_type_symbol
_atom_site_fract_x
_atom_site_fract_y
_atom_site_fract_z
O1	O	1.358829	0.277201	-0.094100
O2	O	1.064687	0.239788	-0.094086
O3	O	1.220649	0.176997	-0.094070
O4	O	1.202867	0.339992	-0.094115
O5	O	1.181673	0.192667	0.093938
O6	O	1.025710	0.255459	0.093923
O7	O	1.319852	0.292871	0.093909
Zn8	Zn	1.166593	0.276653	0.123766
Zn9	Zn	1.217946	0.256007	-0.123943
O10	O	1.163890	0.355663	0.093893
C11	C	1.007574	0.241304	-0.000079
C12	C	0.895467	0.222466	-0.000073
C13	C	1.200715	0.163544	-0.000062
C14	C	1.199375	0.100111	-0.000051
C15	C	0.529167	0.368938	-0.000132
C16	C	0.634499	0.386638	-0.000141
C17	C	0.699745	0.345597	-0.000124
C18	C	0.659651	0.286852	-0.000098
C19	C	0.554312	0.269148	-0.000097
C20	C	0.724890	0.245807	-0.000089
C21	C	0.684796	0.187062	-0.000063
C22	C	0.579466	0.169362	-0.000061
C23	C	0.514219	0.210404	-0.000079
C24	C	0.830230	0.263510	-0.000090
C25	C	0.855374	0.163721	-0.000055
C26	C	0.750043	0.146021	-0.000045
C27	C	1.212234	-0.301802	-0.102595
C28	C	1.210963	-0.361407	-0.102602
O29	O	1.228340	-0.399499	-0.189760
N30	N	1.189086	-0.382678	-0.000120
C31	C	1.168469	-0.344341	0.102375
O32	O	1.149744	-0.367907	0.189543
C33	C	1.169732	-0.284738	0.102380
C34	C	1.191621	-0.263469	-0.000108
C35	C	1.234119	-0.280533	-0.205076
C36	C	1.235391	-0.220931	-0.205069
C37	C	1.214778	-0.182599	-0.102582
C38	C	1.192893	-0.203868	-0.000101
C39	C	1.149108	-0.246403	0.204874
C40	C	1.150373	-0.186796	0.204870
C41	C	1.172261	-0.165528	0.102382
C42	C	1.173552	-0.105935	0.102392
N43	N	1.195429	-0.084664	-0.000089
C44	C	1.216042	-0.122996	-0.102576
C45	C	1.165815	-0.469513	0.102356
C46	C	1.164559	-0.529114	0.102352
C47	C	1.207051	-0.546176	-0.102625
C48	C	1.208315	-0.486572	-0.102620
C49	C	1.187692	-0.448241	-0.000126
C50	C	1.218713	0.002171	-0.102554
C51	C	1.219988	0.061779	-0.102538
C52	C	1.177490	0.078835	0.102438
C53	C	1.176221	0.019233	0.102423
C54	C	1.196831	-0.019098	-0.000083
O55	O	1.156181	-0.067809	0.189506
O56	O	1.234751	-0.099423	-0.189730
C57	C	1.376965	0.291356	-0.000100
C58	C	1.489075	0.310193	-0.000114
C59	C	1.183825	0.369115	-0.000117
C60	C	1.185166	0.432548	-0.000135
N61	N	1.131553	0.290744	0.292821
N62	N	1.252994	0.241912	-0.292998
C63	C	1.334333	0.209191	0.647826
C64	C	1.358852	0.199327	0.529489
C65	C	1.302029	0.222180	0.470316
C66	C	1.220684	0.254899	0.529492
C67	C	1.196168	0.264768	0.647841
C68	C	1.163864	0.277757	0.470331
C69	C	1.082518	0.310476	0.529507
C70	C	1.058006	0.320343	0.647844
C71	C	1.114829	0.297489	0.707017
C72	C	1.188380	0.267889	0.351982
C73	C	1.050214	0.323466	0.351997
C74	C	1.025696	0.333330	0.470334
H75	H	0.862862	0.311341	-0.000107
Br76	Br	1.265091	-0.192078	-0.344168
H77	H	1.237815	0.079092	-0.186001
Br78	Br	1.119397	-0.275252	0.343975
Br79	Br	1.298774	0.223487	0.271686
H80	H	0.908500	0.130301	-0.000046
H81	H	1.094864	0.305518	0.803377
H82	H	1.158407	0.001916	0.185877
Br83	Br	0.688908	0.466359	-0.000186
Br84	Br	1.246683	-0.049841	-0.241670
H85	H	1.250902	-0.311738	-0.288537
Br86	Br	1.235020	-0.598210	-0.241716
Br87	Br	1.469245	0.154927	0.449180
Br88	Br	1.238020	-0.457715	-0.241716
H89	H	0.476037	0.402347	-0.000156
H90	H	1.160712	0.110056	0.185880
H91	H	1.146750	-0.546424	0.185809
Br92	Br	1.411454	0.178187	0.728132
Br93	Br	1.137831	-0.417496	0.241469
H94	H	1.133563	-0.155591	0.288336
Br95	Br	0.947625	0.364757	0.728158
H96	H	0.959463	0.359970	0.518530
H97	H	1.321996	0.214148	0.373960
Br98	Br	0.973100	0.354488	0.271699
Br99	Br	0.695616	0.066297	-0.000008
H100	H	0.428448	0.195995	-0.000071
Br101	Br	0.842697	0.369620	-0.000136
H102	H	0.546828	0.121527	-0.000053
