data_functionalizedCrystal
_audit_creation_method	'MofGen! by Chris Wilmer'
_symmetry_space_group_name_H-M	'P1'
_symmetry_Int_Tables_number	1
_symmetry_cell_setting	triclinic
loop_
_symmetry_equiv_pos_as_xyz
  x,y,z
_cell_length_a	14.044191
_cell_length_b	10.723024
_cell_length_c	9.798715
_cell_angle_alpha	90.003391
_cell_angle_beta	90.000527
_cell_angle_gamma	91.170177
loop_
_atom_site_label
_atom_site_type_symbol
_atom_site_fract_x
_atom_site_fract_y
_atom_site_fract_z
O1	O	-0.133040	1.670502	0.113471
O2	O	-0.145775	1.308624	0.113475
O3	O	-0.001387	1.484127	0.113475
O4	O	-0.277427	1.494999	0.113470
O5	O	-0.001387	1.484112	-0.113507
O6	O	-0.145774	1.308610	-0.113508
O7	O	-0.133040	1.670488	-0.113511
Zn8	Zn	-0.139407	1.489546	-0.149548
Zn9	Zn	-0.139407	1.489565	0.149511
O10	O	-0.277427	1.494985	-0.113512
C11	C	-0.144848	1.262025	-0.000016
C12	C	-0.142075	1.123193	-0.000014
C13	C	-0.222867	1.056296	-0.000015
C14	C	-0.220003	0.912806	-0.000013
C15	C	-0.312773	1.499749	-0.000022
C16	C	-0.418091	1.513937	-0.000023
C17	C	-0.667892	1.439251	-0.000011
C18	C	-0.610917	1.539855	-0.000014
C19	C	-0.503619	1.525431	-0.000019
C20	C	-0.775200	1.453674	-0.000006
C21	C	0.033958	1.479363	-0.000012
C22	C	0.139277	1.465175	-0.000001
C23	C	-0.133967	1.717087	-0.000018
C24	C	-0.136739	1.855919	-0.000011
N25	N	-0.139406	1.489543	-0.353647
C26	C	-0.078515	1.563205	-0.421424
C27	C	-0.078511	1.563224	-0.578587
N28	N	-0.139401	1.489578	0.353611
H29	H	-0.294155	1.105252	-0.000024
H30	H	-0.642723	1.636818	0.000084
H31	H	-0.026381	1.626251	-0.363101
H32	H	-0.636088	1.342296	-0.000013
H33	H	-0.026383	1.626294	-0.636872
H34	H	-0.191539	1.426515	-0.588113
H35	H	-0.289167	0.855295	-0.000008
H36	H	-0.191532	1.426487	-0.411972
H37	H	-0.067572	0.913422	-0.000001
H38	H	-0.070786	1.074236	0.000022
