data_functionalizedCrystal
_audit_creation_method	'MofGen! by Chris Wilmer'
_symmetry_space_group_name_H-M	'P1'
_symmetry_Int_Tables_number	1
_symmetry_cell_setting	triclinic
loop_
_symmetry_equiv_pos_as_xyz
  x,y,z
_cell_length_a	17.699083
_cell_length_b	10.654550
_cell_length_c	9.730223
_cell_angle_alpha	90.004253
_cell_angle_beta	89.997260
_cell_angle_gamma	83.883973
loop_
_atom_site_label
_atom_site_type_symbol
_atom_site_fract_x
_atom_site_fract_y
_atom_site_fract_z
O1	O	-1.005084	-0.158805	-0.114097
O2	O	-0.784837	-0.179467	-0.114142
O3	O	-0.900024	0.013692	-0.114110
O4	O	-0.889897	-0.351964	-0.114129
O5	O	-0.900017	0.013697	0.114470
O6	O	-0.784830	-0.179462	0.114438
O7	O	-1.005077	-0.158800	0.114483
Zn8	Zn	-0.894952	-0.169130	0.150753
Zn9	Zn	-0.894962	-0.169137	-0.150411
O10	O	-0.889889	-0.351959	0.114451
C11	C	-0.756632	-0.178724	0.000143
C12	C	-0.672599	-0.176503	0.000126
C13	C	-1.033282	-0.159543	0.000196
C14	C	-1.117314	-0.161764	0.000204
C15	C	-0.899277	0.060479	0.000180
C16	C	-0.897052	0.199884	0.000177
C17	C	-0.624699	-0.289883	0.000120
C18	C	-0.545743	-0.287788	0.000138
C19	C	-0.514688	-0.172313	0.000152
C20	C	-0.562594	-0.058924	0.000161
C21	C	-0.641549	-0.061020	0.000153
C22	C	-0.244177	-0.050470	0.000196
C23	C	-0.165216	-0.048383	0.000200
C24	C	-0.148371	-0.277239	0.000180
C25	C	-0.227326	-0.279334	0.000172
C26	C	-0.275225	-0.165946	0.000189
C27	C	-0.360839	-0.168219	0.000172
C28	C	-0.429076	-0.170039	0.000159
C29	C	-0.890637	-0.398746	0.000159
C30	C	-0.892861	-0.538151	0.000153
N31	N	-0.894951	-0.169125	0.356289
C32	C	-0.964873	0.280556	0.000190
C33	C	-0.962778	0.411541	0.000173
C34	C	-0.825036	0.381166	0.000135
C35	C	-0.827132	0.250185	0.000142
N36	N	-0.894969	-0.169132	-0.355948
C37	C	-0.945973	-0.083630	0.428229
C38	C	-0.945981	-0.083630	0.572112
C39	C	-0.843941	-0.254631	0.572102
C40	C	-0.843930	-0.254624	0.428222
H41	H	-0.506745	-0.380114	0.000132
H42	H	-0.987516	-0.014009	0.369665
H43	H	-0.802378	-0.324245	0.369644
H44	H	-0.649978	-0.383916	0.000108
C45	C	-1.001417	0.008991	0.650395
C46	C	-1.048084	-0.057814	0.733011
C47	C	-1.099156	0.027472	0.805157
H48	H	-1.031872	0.059946	0.587102
H49	H	-0.973946	0.061197	0.706611
H50	H	-1.075554	-0.109997	0.676800
H51	H	-1.017650	-0.108763	0.796329
H52	H	-1.071684	0.079677	0.861373
H53	H	-1.129605	0.078421	0.741854
H54	H	-1.130820	-0.017843	0.861229
C55	C	-0.749104	0.435714	-0.000175
C56	C	-0.708078	0.394709	-0.117802
C57	C	-0.638129	0.444944	-0.118140
H58	H	-0.721053	0.408050	0.079436
H59	H	-0.757537	0.525281	-0.000248
H60	H	-0.699642	0.305161	-0.117716
H61	H	-0.736105	0.422371	-0.197431
H62	H	-0.646562	0.534511	-0.118214
H63	H	-0.610086	0.417276	-0.038525
H64	H	-0.610287	0.417139	-0.197954
H65	H	-0.283168	0.041858	0.000211
C66	C	-0.260896	-0.404837	0.000230
C67	C	-0.202046	-0.503686	0.000267
C68	C	-0.232940	-0.619318	0.000344
H69	H	-0.291332	-0.410595	-0.079461
H70	H	-0.291329	-0.410474	0.079971
H71	H	-0.171626	-0.498052	-0.079466
H72	H	-0.171605	-0.497970	0.079952
H73	H	-0.263373	-0.624955	0.080086
H74	H	-0.263376	-0.625063	-0.079348
H75	H	-0.193016	-0.686401	0.000383
H76	H	-0.109361	-0.369564	0.000174
H77	H	-0.802402	-0.324245	0.630684
H78	H	-0.771900	0.184497	0.000127
H79	H	-1.021807	0.239606	0.000216
H80	H	-0.139935	0.045657	0.000213
H81	H	-0.680549	0.031306	0.000157
C82	C	-0.528734	0.066325	0.000108
C83	C	-0.449336	0.043896	0.000074
C84	C	-0.418120	0.159247	0.000002
H85	H	-0.545054	0.113096	0.079800
H86	H	-0.545090	0.113009	-0.079632
H87	H	-0.432987	-0.002768	0.079806
H88	H	-0.432994	-0.002856	-0.079612
H89	H	-0.434476	0.205931	-0.079738
H90	H	-0.434446	0.206010	0.079695
H91	H	-0.364246	0.144045	-0.000034
H92	H	-1.018004	0.477220	0.000181
