data_functionalizedCrystal
_audit_creation_method	'MofGen! by Chris Wilmer'
_symmetry_space_group_name_H-M	'P1'
_symmetry_Int_Tables_number	1
_symmetry_cell_setting	triclinic
loop_
_symmetry_equiv_pos_as_xyz
  x,y,z
_cell_length_a	12.594517
_cell_length_b	21.295417
_cell_length_c	12.594510
_cell_angle_alpha	89.957633
_cell_angle_beta	89.977994
_cell_angle_gamma	90.029939
loop_
_atom_site_label
_atom_site_type_symbol
_atom_site_fract_x
_atom_site_fract_y
_atom_site_fract_z
Zn1	Zn	1.627158	-0.250562	-0.601826
Zn2	Zn	2.127158	0.249438	-0.101826
Zn3	Zn	1.627004	-0.355852	-0.423822
Zn4	Zn	2.127004	0.144148	0.076178
Zn5	Zn	1.449162	-0.250599	-0.423852
Zn6	Zn	1.949162	0.249401	0.076148
Zn7	Zn	1.449099	-0.355796	-0.601750
Zn8	Zn	1.949099	0.144204	-0.101750
O9	O	1.538106	-0.303202	-0.512813
O10	O	2.038106	0.196798	-0.012813
O11	O	1.776083	-0.264536	-0.578233
O12	O	2.276083	0.235464	-0.078233
O13	O	1.603376	-0.341929	-0.274881
O14	O	2.103376	0.158071	0.225119
O15	O	1.472865	-0.162505	-0.447505
O16	O	1.972865	0.337495	0.052495
O17	O	1.775971	-0.341892	-0.447455
O18	O	2.275971	0.158108	0.052545
O19	O	1.603637	-0.162477	-0.578262
O20	O	2.103637	0.337523	-0.078262
O21	O	1.472716	-0.264600	-0.274902
O22	O	1.972716	0.235400	0.225098
O23	O	1.300208	-0.264546	-0.447431
O24	O	1.800208	0.235454	0.052569
O25	O	1.472757	-0.341797	-0.750706
O26	O	1.972757	0.158203	-0.250706
O27	O	1.300162	-0.341834	-0.578132
O28	O	1.800162	0.158166	-0.078132
O29	O	1.603576	-0.264482	-0.750762
O30	O	2.103576	0.235518	-0.250762
O31	O	1.603314	-0.443934	-0.447381
O32	O	2.103314	0.056066	0.052619
O33	O	1.472608	-0.443893	-0.578103
O34	O	1.972608	0.056107	-0.078103
C35	C	1.261565	-0.303188	-0.512777
C36	C	1.761565	0.196812	-0.012777
C37	C	1.143260	-0.303198	-0.512787
C38	C	1.643260	0.196802	-0.012787
C39	C	1.003237	-0.261115	-0.441861
C40	C	1.503237	0.238885	0.058139
C41	C	1.074102	-0.245771	-0.538991
C42	C	1.574102	0.254229	-0.038991
C43	C	1.073966	-0.318513	-0.415668
C44	C	1.573966	0.181487	0.084332
C45	C	1.003339	-0.287849	-0.610046
C46	C	1.503339	0.212151	-0.110046
C47	C	1.003197	-0.360618	-0.486657
C48	C	1.503197	0.139382	0.013343
C49	C	1.074030	-0.345296	-0.583854
C50	C	1.574030	0.154704	-0.083854
C51	C	1.537966	-0.466754	-0.512754
C52	C	2.037966	0.033246	-0.012754
C53	C	1.538004	-0.536722	-0.512764
C54	C	2.038004	-0.036722	-0.012764
C55	C	1.606123	-0.569589	-0.444767
C56	C	2.106123	-0.069589	0.055233
C57	C	1.606173	-0.635331	-0.444791
C58	C	2.106173	-0.135331	0.055209
C59	C	1.538085	-0.668204	-0.512801
C60	C	2.038085	-0.168204	-0.012801
C61	C	1.469961	-0.635329	-0.580811
C62	C	1.969961	-0.135329	-0.080811
C63	C	1.469920	-0.569588	-0.580793
C64	C	1.969920	-0.069588	-0.080793
N65	N	1.444974	-0.771469	-0.520903
N66	N	1.944974	-0.271469	-0.020903
N67	N	1.445016	-0.833920	-0.520914
N68	N	1.945016	-0.333920	-0.020914
C69	C	1.538204	-0.866279	-0.512862
C70	C	2.038204	-0.366279	-0.012862
N71	N	1.631352	-0.833827	-0.504777
N72	N	2.131352	-0.333827	-0.004777
N73	N	1.631309	-0.771370	-0.504760
N74	N	2.131309	-0.271370	-0.004760
C75	C	1.538122	-0.739490	-0.512829
C76	C	2.038122	-0.239490	-0.012829
C77	C	1.606383	-0.970432	-0.444887
C78	C	2.106383	-0.470432	0.055113
C79	C	1.606435	-1.036175	-0.444918
C80	C	2.106435	-0.536175	0.055082
C81	C	1.470213	-1.036172	-0.580933
C82	C	1.970213	-0.536172	-0.080933
C83	C	1.470171	-0.970430	-0.580907
C84	C	1.970171	-0.470430	-0.080907
C85	C	1.538254	-0.937563	-0.512878
C86	C	2.038254	-0.437563	-0.012878
C87	C	1.815727	-0.303216	-0.512849
C88	C	2.315727	0.196784	-0.012849
C89	C	1.934032	-0.303222	-0.512864
C90	C	2.434032	0.196778	-0.012864
C91	C	1.538176	-0.303129	-0.790434
C92	C	2.038176	0.196871	-0.290434
C93	C	1.538206	-0.303099	-0.908739
C94	C	2.038206	0.196901	-0.408739
C95	C	1.538275	-0.139012	-0.512895
C96	C	2.038275	0.360988	-0.012895
C97	C	1.538347	-0.069044	-0.512930
C98	C	2.038347	0.430956	-0.012930
C99	C	1.609380	-0.261044	-0.978023
C100	C	2.109380	0.238956	-0.478023
C101	C	1.512310	-0.245635	-1.048816
C102	C	2.012310	0.254365	-0.548816
C103	C	1.635333	-0.318463	-1.048745
C104	C	2.135333	0.181537	-0.548745
C105	C	1.441085	-0.287660	-0.977974
C106	C	1.941085	0.212340	-0.477974
C107	C	1.564173	-0.360515	-0.977897
C108	C	2.064173	0.139485	-0.477897
C109	C	1.467036	-0.345128	-1.048658
C110	C	1.967036	0.154872	-0.548658
C111	C	1.538097	-0.303229	-0.236272
C112	C	2.038097	0.196771	0.263728
C113	C	1.538274	-0.303083	-0.117967
C114	C	2.038274	0.196917	0.382033
H115	H	0.972443	-0.274849	-0.692235
H116	H	1.472443	0.225151	-0.192235
N117	N	1.387260	-0.392224	-1.089502
N118	N	1.887260	0.107776	-0.589502
H119	H	1.424902	-0.424953	-1.133628
H120	H	1.924902	0.075047	-0.633628
H121	H	1.350750	-0.413217	-1.027502
H122	H	1.850750	0.086783	-0.527502
H123	H	0.972157	-0.225490	-0.381924
H124	H	1.472157	0.274510	0.118076
H125	H	1.104916	-0.380895	-0.643935
H126	H	1.604916	0.119105	-0.143935
H127	H	1.586142	-0.409064	-0.946725
H128	H	2.086142	0.090936	-0.446725
H129	H	1.104994	-0.331456	-0.333502
H130	H	1.604994	0.168544	0.166498
H131	H	1.661912	-1.062935	-0.389548
H132	H	2.161912	-0.562935	0.110452
H133	H	1.661564	-0.542831	-0.389376
H134	H	2.161564	-0.042831	0.110624
H135	H	1.661648	-0.662097	-0.389419
H136	H	2.161648	-0.162097	0.110581
H137	H	1.105227	-0.197221	-0.561144
H138	H	1.605227	0.302779	-0.061144
N139	N	1.483240	-0.181315	-1.090096
N140	N	1.983240	0.318685	-0.590096
H141	H	1.410428	-0.169377	-1.063245
H142	H	1.910428	0.330623	-0.563245
H143	H	1.537081	-0.149623	-1.064405
H144	H	2.037081	0.350377	-0.564405
H145	H	1.358951	-0.274602	-0.947017
H146	H	1.858951	0.225398	-0.447017
N147	N	1.688963	-0.213911	-0.936920
N148	N	2.188963	0.286089	-0.436920
H149	H	1.744243	-0.236225	-0.892762
H150	H	2.244243	0.263775	-0.392762
H151	H	1.724541	-0.192248	-0.998803
H152	H	2.224541	0.307752	-0.498803
N153	N	1.396518	-0.670777	-0.654167
N154	N	1.896518	-0.170777	-0.154167
H155	H	1.439760	-0.698007	-0.703538
H156	H	1.939760	-0.198007	-0.203538
H157	H	1.347244	-0.698063	-0.610797
H158	H	1.847244	-0.198063	-0.110797
H159	H	1.414449	-0.542827	-0.636166
H160	H	1.914449	-0.042827	-0.136166
H161	H	1.717442	-0.331464	-1.079836
H162	H	2.217442	0.168536	-0.579836
H163	H	1.661825	-0.943671	-0.389497
H164	H	2.161825	-0.443671	0.110503
N165	N	0.961906	-0.424907	-0.457301
N166	N	1.461906	0.075093	0.042699
H167	H	0.987548	-0.436431	-0.383857
H168	H	1.487548	0.063569	0.116143
H169	H	0.881726	-0.424491	-0.458298
H170	H	1.381726	0.075509	0.041702
N171	N	1.396781	-1.071618	-0.654298
N172	N	1.896781	-0.571618	-0.154298
H173	H	1.407144	-1.118253	-0.643995
H174	H	1.907144	-0.618253	-0.143995
H175	H	1.320765	-1.060177	-0.637659
H176	H	1.820765	-0.560177	-0.137659
H177	H	1.414697	-0.943667	-0.636273
H178	H	1.914697	-0.443667	-0.136273
