data_functionalizedCrystal
_audit_creation_method	'MofGen! by Chris Wilmer'
_symmetry_space_group_name_H-M	'P1'
_symmetry_Int_Tables_number	1
_symmetry_cell_setting	triclinic
loop_
_symmetry_equiv_pos_as_xyz
  x,y,z
_cell_length_a	11.792254
_cell_length_b	11.792254
_cell_length_c	9.130313
_cell_angle_alpha	89.998555
_cell_angle_beta	89.999802
_cell_angle_gamma	84.198598
loop_
_atom_site_label
_atom_site_type_symbol
_atom_site_fract_x
_atom_site_fract_y
_atom_site_fract_z
O1	O	1.506901	0.155630	-0.121799
O2	O	2.006901	0.655630	0.378201
O3	O	1.176562	0.171648	-0.121802
O4	O	1.676562	0.671648	0.378198
O5	O	1.349740	-0.001530	-0.121790
O6	O	1.849740	0.498470	0.378210
O7	O	1.333723	0.328808	-0.121811
O8	O	1.833723	0.828808	0.378189
O9	O	1.349738	-0.001525	0.121809
O10	O	1.849738	0.498475	0.621809
O11	O	1.176560	0.171653	0.121797
O12	O	1.676560	0.671653	0.621797
O13	O	1.506899	0.155635	0.121800
O14	O	2.006899	0.655635	0.621800
Cu15	Cu	1.341729	0.163644	0.144041
Cu16	Cu	1.841729	0.663644	0.644041
Cu17	Cu	1.341732	0.163639	-0.144043
Cu18	Cu	1.841732	0.663639	0.355957
O19	O	1.333721	0.328813	0.121788
O20	O	1.833721	0.828813	0.621788
C21	C	1.134271	0.170642	-0.000003
C22	C	1.634271	0.670642	0.499997
C23	C	1.008257	0.167621	-0.000004
C24	C	1.508257	0.667621	0.499996
C25	C	0.905921	0.165168	-0.000010
C26	C	1.405921	0.665168	0.499990
C27	C	0.777534	0.162099	-0.000011
C28	C	1.277534	0.662099	0.499989
C29	C	1.348730	-0.043818	0.000009
C30	C	1.848730	0.456182	0.500009
C31	C	1.345710	-0.169832	0.000008
C32	C	1.845710	0.330168	0.500008
C33	C	1.343256	-0.272168	0.000002
C34	C	1.843256	0.227832	0.500002
C35	C	1.340188	-0.400555	-0.000011
C36	C	1.840188	0.099445	0.499989
C37	C	1.549190	0.156642	-0.000002
C38	C	2.049190	0.656642	0.499998
C39	C	1.675204	0.159662	-0.000011
C40	C	2.175204	0.659662	0.499989
C41	C	1.334731	0.371102	-0.000014
C42	C	1.834731	0.871102	0.499986
C43	C	1.337751	0.497115	-0.000022
C44	C	1.837751	0.997115	0.499978
N45	N	1.341736	0.163648	0.346664
N46	N	1.841736	0.663648	0.846664
N47	N	1.341734	0.163627	-0.346666
N48	N	1.841734	0.663627	0.153334
C49	C	1.418439	0.086990	0.423321
C50	C	1.918439	0.586990	0.923321
C51	C	1.418436	0.086977	0.576658
C52	C	1.918436	0.586977	1.076658
C53	C	1.265023	0.240287	0.576666
C54	C	1.765023	0.740287	1.076666
C55	C	1.265021	0.240295	0.423332
C56	C	1.765021	0.740295	0.923332
C57	C	1.495153	0.010343	0.346652
C58	C	1.995153	0.510343	0.846652
C59	C	1.571863	-0.066319	0.423310
C60	C	2.071863	0.433681	0.923310
C61	C	1.571860	-0.066333	0.576646
C62	C	2.071860	0.433667	1.076646
C63	C	1.495147	0.010316	0.653326
C64	C	1.995147	0.510316	1.153326
H65	H	1.495165	0.010350	0.221798
H66	H	1.995165	0.510350	0.721798
H67	H	1.634313	-0.128762	0.639059
H68	H	2.134313	0.371238	1.139059
H69	H	1.495143	0.010291	0.778183
H70	H	1.995143	0.510291	1.278183
H71	H	1.202567	0.302693	0.639109
H72	H	1.702567	0.802693	1.139109
N73	N	1.186678	0.318616	0.345039
N74	N	1.686678	0.818616	0.845039
N75	N	1.188877	0.423538	0.362167
N76	N	1.688877	0.923538	0.862167
H77	H	1.133543	0.478853	0.306872
H78	H	1.633543	0.978853	0.806872
H79	H	1.634314	-0.128731	0.360869
H80	H	2.134314	0.371269	0.860869
