data_functionalizedCrystal
_audit_creation_method	'MofGen! by Chris Wilmer'
_symmetry_space_group_name_H-M	'P1'
_symmetry_Int_Tables_number	1
_symmetry_cell_setting	triclinic
loop_
_symmetry_equiv_pos_as_xyz
  x,y,z
_cell_length_a	13.930277
_cell_length_b	14.853569
_cell_length_c	14.853569
_cell_angle_alpha	96.364307
_cell_angle_beta	89.994242
_cell_angle_gamma	90.012441
loop_
_atom_site_label
_atom_site_type_symbol
_atom_site_fract_x
_atom_site_fract_y
_atom_site_fract_z
O1	O	0.079770	-1.196346	0.117707
O2	O	0.079782	-0.933887	0.131726
O3	O	0.079779	-1.072126	-0.006513
O4	O	0.079773	-1.058106	0.255946
O5	O	-0.079883	-1.072151	-0.006504
O6	O	-0.079880	-0.933911	0.131735
O7	O	-0.079892	-1.196371	0.117716
Zn8	Zn	-0.105236	-1.065145	0.124727
Zn9	Zn	0.105125	-1.065112	0.124715
O10	O	-0.079889	-1.058131	0.255955
C11	C	-0.000047	-0.900310	0.131095
C12	C	-0.000042	-0.800227	0.129190
N13	N	-0.248802	-1.065174	0.124734
N14	N	0.248692	-1.065091	0.124701
C15	C	-0.000036	-0.763850	0.046180
C16	C	-0.000051	-0.742561	0.210412
C17	C	-0.000051	-0.648527	0.208625
C18	C	-0.000046	-0.612150	0.125615
C19	C	-0.000040	-0.669807	0.044390
C20	C	-0.000067	-0.590863	0.289848
C21	C	-0.000069	-0.496823	0.288065
C22	C	-0.000056	-0.460444	0.205053
C23	C	-0.000049	-0.518108	0.123825
C24	C	-0.000043	-0.481730	0.040814
C25	C	-0.000029	-0.539392	-0.040414
C26	C	-0.000027	-0.633429	-0.038622
C27	C	-0.000058	-0.366408	0.203260
C28	C	-0.000047	-0.387688	0.039025
C29	C	0.700962	-1.003835	0.185819
C30	C	0.700929	-1.126495	0.063642
C31	C	0.600433	-1.126480	0.063635
C32	C	0.550197	-1.065141	0.124721
C33	C	0.600457	-1.003817	0.185813
C34	C	0.550166	-1.187797	0.002538
C35	C	0.449664	-1.187785	0.002528
C36	C	0.399426	-1.126450	0.063619
C37	C	0.449692	-1.065123	0.124714
C38	C	0.399456	-1.003784	0.185800
C39	C	0.449721	-0.942461	0.246900
C40	C	0.550219	-0.942481	0.246904
C41	C	0.298927	-1.126430	0.063615
C42	C	0.298951	-1.003766	0.185793
C43	C	-0.000049	-1.071503	-0.040097
C44	C	-0.000040	-1.069599	-0.140181
C45	C	-0.000059	-0.229947	0.118346
C46	C	-0.000053	-0.330031	0.120249
C47	C	-0.000059	-1.058754	0.289539
C48	C	-0.000062	-1.060659	0.389623
C49	C	-0.000068	-1.143669	0.426000
C50	C	-0.000050	-0.979437	0.447288
C51	C	-0.000047	-0.981223	0.541322
C52	C	-0.000054	-1.064234	0.577700
C53	C	-0.000063	-1.145458	0.520043
C54	C	-0.000028	-0.900001	0.598986
C55	C	-0.000024	-0.901784	0.693027
C56	C	-0.000038	-0.984796	0.729405
C57	C	-0.000048	-1.066023	0.671742
C58	C	-0.000055	-1.149034	0.708119
C59	C	-0.000072	-1.230263	0.650458
C60	C	-0.000076	-1.228470	0.556421
C61	C	-0.000034	-0.986588	0.823442
C62	C	-0.000049	-1.150823	0.802162
H63	H	-0.000037	-0.358078	-0.028573
N64	N	0.244716	-1.192568	-0.002272
H65	H	0.173428	-1.183252	0.006994
H66	H	0.262297	-1.182200	-0.066281
H67	H	0.591151	-0.892554	0.296648
H68	H	0.258055	-0.953819	0.235540
H69	H	-0.000015	-0.832418	0.569360
H70	H	0.741890	-0.953909	0.235569
N71	N	-0.000039	-0.500154	-0.129946
H72	H	-0.000050	-0.431832	-0.118747
H73	H	0.059154	-0.521213	-0.165498
N74	N	-0.000084	-0.304224	0.290863
H75	H	0.059095	-0.315923	0.327081
H76	H	-0.000121	-0.239156	0.277065
N77	N	-0.000041	-0.898988	0.885630
H78	H	-0.000048	-0.912716	0.950723
H79	H	0.059147	-0.862801	0.873843
H80	H	0.741834	-1.176431	0.013903
H81	H	0.591071	-1.237734	-0.047201
H82	H	-0.000037	-0.911853	0.417664
N83	N	0.395534	-0.876297	0.312777
H84	H	0.324243	-0.885592	0.303493
H85	H	0.413072	-0.886667	0.376791
H86	H	-0.000086	-1.209804	0.379048
H87	H	-0.000011	-0.835642	0.739967
N88	N	0.395454	-1.253942	-0.063348
H89	H	0.442529	-1.292807	-0.102037
H90	H	0.353748	-1.293748	-0.028655
H91	H	-0.000060	-1.218421	0.831772
H92	H	-0.000078	-0.449882	0.354206
H93	H	-0.000059	-1.297850	0.680088
H94	H	-0.000018	-0.680385	-0.104753
H95	H	-0.000021	-0.810802	-0.019955
N96	N	-0.000064	-0.781791	0.299941
H97	H	-0.000063	-0.850113	0.288749
H98	H	0.059123	-0.760696	0.335486
N99	N	-0.000095	-1.316069	0.494224
H100	H	0.059092	-1.318978	0.454728
H101	H	-0.000138	-1.368882	0.531593
N102	N	-0.000079	-0.630095	0.379376
H103	H	-0.000069	-0.698417	0.368182
H104	H	0.059105	-0.608994	0.414924
