data_functionalizedCrystal
_audit_creation_method	'MofGen! by Chris Wilmer'
_symmetry_space_group_name_H-M	'P1'
_symmetry_Int_Tables_number	1
_symmetry_cell_setting	triclinic
loop_
_symmetry_equiv_pos_as_xyz
  x,y,z
_cell_length_a	13.635800
_cell_length_b	11.168121
_cell_length_c	11.168144
_cell_angle_alpha	92.019983
_cell_angle_beta	108.508840
_cell_angle_gamma	108.508496
loop_
_atom_site_label
_atom_site_type_symbol
_atom_site_fract_x
_atom_site_fract_y
_atom_site_fract_z
V1	V	-2.054942	-0.174723	-0.393710
O2	O	-2.034734	0.008378	-0.386204
O3	O	-2.043085	-0.346428	-0.391027
O4	O	-2.043087	-0.172043	-0.565415
O5	O	-2.034732	-0.167214	-0.210609
V6	V	-2.293556	-0.152821	-0.371808
O7	O	-2.192473	-0.222766	-0.441752
O8	O	-2.381123	-0.104777	-0.323765
O9	O	-2.193809	0.018884	-0.374490
O10	O	-2.372462	-0.335921	-0.379313
O11	O	-2.372464	-0.160329	-0.554909
O12	O	-2.193808	-0.155500	-0.200102
V13	V	-1.554942	-0.174723	-0.393710
O14	O	-1.534734	0.008378	-0.386204
O15	O	-1.543085	-0.346428	-0.391027
O16	O	-1.543087	-0.172043	-0.565415
O17	O	-1.534732	-0.167214	-0.210609
V18	V	-1.793556	-0.152821	-0.371808
O19	O	-1.692473	-0.222766	-0.441752
O20	O	-1.881123	-0.104777	-0.323765
O21	O	-1.693809	0.018884	-0.374490
O22	O	-1.872462	-0.335921	-0.379313
O23	O	-1.872464	-0.160329	-0.554909
O24	O	-1.693808	-0.155500	-0.200102
C25	C	-1.968189	-0.388285	-0.384819
C26	C	-1.999221	-0.528657	-0.383770
C27	C	-1.968191	-0.165839	-0.607266
C28	C	-1.999222	-0.164784	-0.747637
C29	C	-2.100476	-0.597349	-0.389292
C30	C	-2.132551	-0.742431	-0.388208
C31	C	-2.100377	0.060736	-0.380695
C32	C	-2.058965	0.201106	-0.381752
C33	C	-2.016720	-0.053334	-0.938146
C34	C	-1.984648	-0.054421	-0.793065
C35	C	-2.100375	-0.161708	-0.158244
C36	C	-2.058962	-0.162757	-0.017873
C37	C	-1.468189	-0.388285	-0.384819
C38	C	-1.499221	-0.528657	-0.383770
C39	C	-1.468191	-0.165839	-0.607266
C40	C	-1.499222	-0.164784	-0.747637
C41	C	-1.600377	0.060736	-0.380695
C42	C	-1.558965	0.201106	-0.381752
C43	C	-1.600375	-0.161708	-0.158244
C44	C	-1.558962	-0.162757	-0.017873
C45	C	-1.600476	-0.597349	-0.389292
C46	C	-1.632551	-0.742431	-0.388208
C47	C	-1.600476	-0.170303	-0.816329
C48	C	-1.632550	-0.169213	-0.961409
H49	H	-2.163419	-0.548753	-0.394828
H50	H	-2.004306	0.041152	-0.977296
H51	H	-1.472220	-0.739851	-0.377021
Cl52	Cl	-2.078151	-0.308644	-0.957441
Cl53	Cl	-1.928721	0.090221	-0.687316
Cl54	Cl	-1.697664	-0.178850	-0.741311
Cl55	Cl	-2.055131	-0.309430	-0.853378
H56	H	-1.436278	-0.159244	-0.796232
Cl57	Cl	-2.266474	-0.833592	-0.395494
Cl58	Cl	-1.766478	-0.176515	-1.052573
H59	H	-1.663419	-0.548753	-0.394828
Cl60	Cl	-1.402038	-0.603678	-0.375243
Cl61	Cl	-1.925034	-0.707738	-0.374446
Cl62	Cl	-1.902038	-0.603678	-0.375243
Cl63	Cl	-1.425039	-0.155471	-0.926720
Cl64	Cl	-1.766474	-0.833592	-0.395494
