data_functionalizedCrystal
_audit_creation_method	'MofGen! by Chris Wilmer'
_symmetry_space_group_name_H-M	'P1'
_symmetry_Int_Tables_number	1
_symmetry_cell_setting	triclinic
loop_
_symmetry_equiv_pos_as_xyz
  x,y,z
_cell_length_a	19.121063
_cell_length_b	19.805407
_cell_length_c	19.805399
_cell_angle_alpha	89.975799
_cell_angle_beta	92.411105
_cell_angle_gamma	92.468477
loop_
_atom_site_label
_atom_site_type_symbol
_atom_site_fract_x
_atom_site_fract_y
_atom_site_fract_z
Zn1	Zn	-0.279645	1.023233	-0.394286
Zn2	Zn	0.220355	1.523233	0.105714
Zn3	Zn	-0.397097	1.018317	-0.285921
Zn4	Zn	0.102903	1.518317	0.214079
Zn5	Zn	-0.279662	0.910047	-0.281102
Zn6	Zn	0.220338	1.410047	0.218898
Zn7	Zn	-0.397058	0.905182	-0.399057
Zn8	Zn	0.102942	1.405182	0.100943
O9	O	-0.338365	0.964195	-0.340091
O10	O	0.161635	1.464195	0.159909
O11	O	-0.295234	1.117297	-0.379931
O12	O	0.204766	1.617297	0.120069
O13	O	-0.381543	1.003933	-0.190566
O14	O	0.118457	1.503933	0.309434
O15	O	-0.181375	0.929155	-0.292103
O16	O	0.318625	1.429155	0.207897
O17	O	-0.381525	1.113685	-0.300316
O18	O	0.118475	1.613685	0.199684
O19	O	-0.181362	1.012312	-0.375259
O20	O	0.318638	1.512312	0.124741
O21	O	-0.295264	0.924388	-0.187026
O22	O	0.204736	1.424388	0.312974
O23	O	-0.295226	0.814686	-0.296729
O24	O	0.204774	1.314686	0.203271
O25	O	-0.381459	0.920863	-0.493139
O26	O	0.118541	1.420863	0.006861
O27	O	-0.381476	0.811111	-0.383390
O28	O	0.118524	1.311111	0.116610
O29	O	-0.295196	1.007595	-0.489635
O30	O	0.204804	1.507595	0.010365
O31	O	-0.495376	0.999216	-0.304941
O32	O	0.004624	1.499216	0.195059
O33	O	-0.495348	0.916096	-0.388062
O34	O	0.004652	1.416096	0.111938
C35	C	-0.338350	0.788339	-0.340055
C36	C	0.161650	1.288339	0.159945
C37	C	-0.338360	0.713107	-0.340056
C38	C	0.161640	1.213107	0.159944
C39	C	-0.383360	0.249469	-0.385194
C40	C	0.116640	0.749469	0.114806
C41	C	-0.383359	0.320157	-0.385180
C42	C	0.116641	0.820157	0.114820
C43	C	-0.338382	0.357344	-0.340119
C44	C	0.161618	0.857344	0.159881
C45	C	-0.293409	0.323839	-0.295064
C46	C	0.206591	0.823839	0.204936
C47	C	-0.293414	0.253152	-0.295075
C48	C	0.206586	0.753152	0.204925
C49	C	-0.293388	0.608913	-0.295015
C50	C	0.206612	1.108913	0.204985
C51	C	-0.293384	0.679606	-0.295009
C52	C	0.206616	1.179606	0.204991
C53	C	-0.383332	0.675919	-0.385120
C54	C	0.116668	1.175919	0.114880
C55	C	-0.383338	0.605231	-0.385132
C56	C	0.116662	1.105231	0.114868
C57	C	-0.338367	0.571732	-0.340075
C58	C	0.161633	1.071732	0.159925
C59	C	-0.338370	0.495084	-0.340090
C60	C	0.161630	0.995084	0.159910
C61	C	-0.338376	0.433992	-0.340106
C62	C	0.161624	0.933992	0.159894
C63	C	-0.520846	0.956613	-0.347557
C64	C	-0.020846	1.456613	0.152443
C65	C	-0.598912	0.953431	-0.350773
C66	C	-0.098912	1.453431	0.149227
C67	C	-0.635579	0.995246	-0.309044
C68	C	-0.135579	1.495246	0.190956
C69	C	-0.708931	0.992258	-0.312073
C70	C	-0.208931	1.492258	0.187927
C71	C	-0.745614	0.947450	-0.356829
C72	C	-0.245614	1.447450	0.143171
C73	C	-0.708941	0.905634	-0.398563
C74	C	-0.208941	1.405634	0.101437
C75	C	-0.635591	0.908626	-0.395536
C76	C	-0.135591	1.408626	0.104464
C77	C	-0.967084	0.936252	-0.368132
C78	C	-0.467084	1.436252	0.131868
C79	C	-1.040439	0.933261	-0.371153
C80	C	-0.540439	1.433261	0.128847
C81	C	-1.040423	1.019887	-0.284664
C82	C	-0.540423	1.519887	0.215336
C83	C	-0.967072	1.022872	-0.281639
C84	C	-0.467072	1.522872	0.218361
C85	C	-0.930406	0.981058	-0.323376
C86	C	-0.430406	1.481058	0.176624
C87	C	-0.820591	0.944393	-0.359924
C88	C	-0.320591	1.444393	0.140076
C89	C	-0.855430	0.984119	-0.320283
C90	C	-0.355430	1.484119	0.179717
C91	C	-0.155172	0.971825	-0.332611
C92	C	0.344828	1.471825	0.167389
C93	C	-0.077106	0.975076	-0.329424
C94	C	0.422894	1.475076	0.170576
C95	C	-0.338321	0.964235	-0.516632
C96	C	0.161679	1.464235	-0.016632
C97	C	-0.338302	0.964251	-0.591864
C98	C	0.161698	1.464251	-0.091864
C99	C	-0.338382	1.140737	-0.340129
C100	C	0.161618	1.640737	0.159871
C101	C	-0.338389	1.215968	-0.340145
C102	C	0.161611	1.715968	0.159855
C103	C	-0.293383	1.009414	-0.625384
C104	C	0.206617	1.509414	-0.125384
C105	C	-0.293363	1.009422	-0.696071
C106	C	0.206637	1.509422	-0.196071
C107	C	-0.338266	0.964270	-0.733238
C108	C	0.161734	1.464270	-0.233238
C109	C	-0.383187	0.919103	-0.699713
C110	C	0.116813	1.419103	-0.199713
C111	C	-0.383203	0.919092	-0.629026
C112	C	0.116797	1.419092	-0.129026
C113	C	-0.383122	0.919144	-0.984784
C114	C	0.116878	1.419144	-0.484784
C115	C	-0.383103	0.919159	-1.055475
C116	C	0.116897	1.419159	-0.555475
C117	C	-0.293281	1.009473	-1.051829
C118	C	0.206719	1.509473	-0.551829
C119	C	-0.293297	1.009463	-0.981142
C120	C	0.206703	1.509463	-0.481142
C121	C	-0.338216	0.964293	-0.947623
C122	C	0.161784	1.464293	-0.447623
C123	C	-0.338236	0.964284	-0.870976
C124	C	0.161764	1.464284	-0.370976
C125	C	-0.338249	0.964281	-0.809884
C126	C	0.161751	1.464281	-0.309884
C127	C	-0.338359	0.964196	-0.164235
C128	C	0.161641	1.464196	0.335765
C129	C	-0.338180	0.964319	-0.088996
C130	C	0.161820	1.464319	0.411004
H131	H	-0.419960	0.574957	-0.421828
H132	H	0.080040	1.074957	0.078172
H133	H	-0.256792	0.225877	-0.258393
H134	H	0.243208	0.725877	0.241607
H135	H	-0.937206	1.059357	-0.245196
H136	H	-0.437206	1.559357	0.254804
H137	H	-0.937236	0.902204	-0.402114
H138	H	-0.437236	1.402204	0.097886
H139	H	-0.850466	0.907910	-0.396363
H140	H	-0.350466	1.407910	0.103637
H141	H	-0.256735	1.046232	-0.950885
H142	H	0.243265	1.546232	-0.450885
O143	O	-1.076182	0.889751	-0.414573
O144	O	-0.576182	1.389751	0.085427
C145	C	-1.148785	0.896088	-0.408300
C146	C	-0.648785	1.396088	0.091700
H147	H	-1.158815	0.917876	-0.356500
H148	H	-0.658815	1.417876	0.143500
H149	H	-1.176702	0.844247	-0.413990
H150	H	-0.676702	1.344247	0.086010
H151	H	-1.169547	0.931262	-0.449338
H152	H	-0.669547	1.431262	0.050662
H153	H	-0.738782	1.026307	-0.278092
H154	H	-0.238782	1.526307	0.221908
O155	O	-0.249741	0.360064	-0.251355
O156	O	0.250259	0.860064	0.248645
C157	C	-0.259389	0.429639	-0.260994
C158	C	0.240611	0.929639	0.239006
H159	H	-0.282461	0.438366	-0.314135
H160	H	0.217539	0.938366	0.185865
H161	H	-0.206771	0.458683	-0.254329
H162	H	0.293229	0.958683	0.245671
H163	H	-0.296735	0.448127	-0.222312
H164	H	0.203265	0.948127	0.277688
O165	O	-0.426926	0.708539	-0.428914
O166	O	0.073074	1.208539	0.071086
C167	C	-0.386994	0.751099	-0.471063
C168	C	0.113006	1.251099	0.028937
H169	H	-0.333737	0.763888	-0.445092
H170	H	0.166263	1.263888	0.054908
H171	H	-0.415614	0.799622	-0.481254
H172	H	0.084386	1.299622	0.018746
H173	H	-0.379343	0.724203	-0.520925
H174	H	0.120657	1.224203	-0.020925
H175	H	-1.070285	1.053930	-0.250686
H176	H	-0.570285	1.553930	0.249314
O177	O	-0.600057	1.038830	-0.265549
O178	O	-0.100057	1.538830	0.234451
C179	C	-0.648154	1.075083	-0.229356
C180	C	-0.148154	1.575083	0.270644
H181	H	-0.700418	1.075279	-0.259240
H182	H	-0.200418	1.575279	0.240760
H183	H	-0.626922	1.129282	-0.221312
H184	H	-0.126922	1.629282	0.278688
H185	H	-0.656014	1.050006	-0.178250
H186	H	-0.156014	1.550006	0.321750
O187	O	-0.249661	1.053282	-1.084495
O188	O	0.250339	1.553282	-0.584495
C189	C	-0.259281	1.043622	-1.154855
C190	C	0.240719	1.543622	-0.654855
H191	H	-0.282275	0.990430	-1.165435
H192	H	0.217725	1.490430	-0.665435
H193	H	-0.206665	1.050410	-1.179570
H194	H	0.293335	1.550410	-0.679570
H195	H	-0.296682	1.082214	-1.176455
H196	H	0.203318	1.582214	-0.676455
H197	H	-0.419670	0.882388	-1.085734
H198	H	0.080330	1.382388	-0.585734
O199	O	-0.744651	0.862199	-0.442075
O200	O	-0.244651	1.362199	0.057925
C201	C	-0.787006	0.898981	-0.487588
C202	C	-0.287006	1.398981	0.012412
H203	H	-0.797968	0.949842	-0.464220
H204	H	-0.297968	1.449842	0.035780
H205	H	-0.838602	0.869300	-0.498757
H206	H	-0.338602	1.369300	0.001243
H207	H	-0.758698	0.907542	-0.536588
H208	H	-0.258698	1.407542	-0.036588
O209	O	-0.600079	0.867941	-0.436100
O210	O	-0.100079	1.367941	0.063900
C211	C	-0.648183	0.827764	-0.476266
C212	C	-0.148183	1.327764	0.023734
H213	H	-0.700490	0.823296	-0.450695
H214	H	-0.200490	1.323296	0.049305
H215	H	-0.627026	0.775296	-0.482566
H216	H	-0.127026	1.275296	0.017434
H217	H	-0.655932	0.852209	-0.528013
H218	H	-0.155932	1.352209	-0.028013
H219	H	-0.419707	0.882373	-0.957501
H220	H	0.080293	1.382373	-0.457501
H221	H	-0.256756	0.709882	-0.258313
H222	H	0.243244	1.209882	0.241687
O223	O	-0.819877	1.027605	-0.276717
O224	O	-0.319877	1.527605	0.223283
C225	C	-0.837842	1.012103	-0.209983
C226	C	-0.337842	1.512103	0.290017
H227	H	-0.891125	0.983916	-0.210749
H228	H	-0.391125	1.483916	0.289251
H229	H	-0.840324	1.060865	-0.179779
H230	H	-0.340324	1.560865	0.320221
H231	H	-0.796606	0.978993	-0.185456
H232	H	-0.296606	1.478993	0.314544
H233	H	-0.256820	1.046184	-0.595128
H234	H	0.243180	1.546184	-0.095128
H235	H	-0.256786	1.046199	-0.723360
H236	H	0.243214	1.546199	-0.223360
O237	O	-0.426783	0.875305	-0.735918
O238	O	0.073217	1.375305	-0.235918
C239	C	-0.417126	0.884987	-0.805495
C240	C	0.082874	1.384987	-0.305495
H241	H	-0.394128	0.938181	-0.814226
H242	H	0.105872	1.438181	-0.314226
H243	H	-0.469728	0.878207	-0.834505
H244	H	0.030272	1.378207	-0.334505
H245	H	-0.379714	0.846401	-0.824017
H246	H	0.120286	1.346401	-0.324017
H247	H	-0.256772	0.581647	-0.258325
H248	H	0.243228	1.081647	0.241675
O249	O	-0.426944	0.875298	-0.596493
O250	O	0.073056	1.375298	-0.096493
C251	C	-0.496940	0.887172	-0.616639
C252	C	0.003060	1.387172	-0.116639
H253	H	-0.500481	0.941097	-0.636237
H254	H	-0.000481	1.441097	-0.136237
H255	H	-0.531649	0.879899	-0.571566
H256	H	-0.031649	1.379899	-0.071566
H257	H	-0.515293	0.850122	-0.658404
H258	H	-0.015293	1.350122	-0.158404
O259	O	-0.427114	0.213450	-0.428996
O260	O	0.072886	0.713450	0.071004
C261	C	-0.466793	0.258181	-0.468767
C262	C	0.033207	0.758181	0.031233
H263	H	-0.469187	0.308452	-0.441126
H264	H	0.030813	0.808452	0.058874
H265	H	-0.522140	0.235464	-0.478173
H266	H	-0.022140	0.735464	0.021827
H267	H	-0.441138	0.266797	-0.519159
H268	H	0.058862	0.766797	-0.019159
H269	H	-0.419981	0.347430	-0.421863
H270	H	0.080019	0.847430	0.078137
