data_functionalizedCrystal
_audit_creation_method	'MofGen! by Chris Wilmer'
_symmetry_space_group_name_H-M	'P1'
_symmetry_Int_Tables_number	1
_symmetry_cell_setting	triclinic
loop_
_symmetry_equiv_pos_as_xyz
  x,y,z
_cell_length_a	21.295411
_cell_length_b	11.169417
_cell_length_c	11.169416
_cell_angle_alpha	90.011219
_cell_angle_beta	90.011119
_cell_angle_gamma	90.021194
loop_
_atom_site_label
_atom_site_type_symbol
_atom_site_fract_x
_atom_site_fract_y
_atom_site_fract_z
Zn1	Zn	-0.355901	-1.834978	0.477916
Zn2	Zn	0.144099	-1.334978	0.977916
Zn3	Zn	-0.250646	-1.834863	0.678587
Zn4	Zn	0.249354	-1.334863	1.178587
Zn5	Zn	-0.250652	-1.634260	0.477920
Zn6	Zn	0.249348	-1.134260	0.977920
Zn7	Zn	-0.355884	-1.634272	0.678559
Zn8	Zn	0.144116	-1.134272	1.178559
O9	O	-0.303271	-1.734593	0.578245
O10	O	0.196729	-1.234593	1.078245
O11	O	-0.341943	-2.002913	0.504546
O12	O	0.158057	-1.502913	1.004546
O13	O	-0.162557	-1.808199	0.651982
O14	O	0.337443	-1.308199	1.151982
O15	O	-0.264624	-1.660929	0.309970
O16	O	0.235376	-1.160929	0.809970
O17	O	-0.264613	-2.002828	0.651978
O18	O	0.235387	-1.502828	1.151978
O19	O	-0.341949	-1.808396	0.309967
O20	O	0.158051	-1.308396	0.809967
O21	O	-0.162562	-1.660817	0.504552
O22	O	0.337438	-1.160817	1.004552
O23	O	-0.264607	-1.466312	0.504525
O24	O	0.235393	-0.966312	1.004525
O25	O	-0.443975	-1.660949	0.651929
O26	O	0.056025	-1.160949	1.151929
O27	O	-0.341920	-1.466321	0.651933
O28	O	0.158080	-0.966321	1.151933
O29	O	-0.443988	-1.808408	0.504518
O30	O	0.056012	-1.308408	1.004518
O31	O	-0.264596	-1.808211	0.846533
O32	O	0.235404	-1.308211	1.346533
O33	O	-0.341914	-1.660838	0.846512
O34	O	0.158086	-1.160838	1.346512
C35	C	-0.303266	-1.734546	0.890070
C36	C	0.196734	-1.234546	1.390070
C37	C	-0.303285	-1.734635	1.023470
C38	C	0.196715	-1.234635	1.523470
C39	C	-0.303263	-1.422769	0.578227
C40	C	0.196737	-0.922769	1.078227
C41	C	-0.303274	-1.289369	0.578248
C42	C	0.196726	-0.789369	1.078248
C43	C	-0.467461	-1.734693	0.578220
C44	C	0.032539	-1.234693	1.078220
C45	C	-0.537429	-1.734735	0.578209
C46	C	-0.037429	-1.234735	1.078209
C47	C	-0.570303	-1.811514	0.501449
C48	C	-0.070303	-1.311514	1.001449
C49	C	-0.636046	-1.811512	0.501397
C50	C	-0.136046	-1.311512	1.001397
C51	C	-0.668912	-1.734745	0.578127
C52	C	-0.168912	-1.234745	1.078127
C53	C	-0.636029	-1.657951	0.654892
C54	C	-0.136029	-1.157951	1.154892
C55	C	-0.570288	-1.657947	0.654934
C56	C	-0.070288	-1.157947	1.154934
N57	N	-0.772137	-1.725522	0.683118
N58	N	-0.272137	-1.225522	1.183118
N59	N	-0.834589	-1.725533	0.683075
N60	N	-0.334589	-1.225533	1.183075
C61	C	-0.866986	-1.734752	0.578005
C62	C	-0.366986	-1.234752	1.078005
N63	N	-0.834573	-1.743983	0.472976
N64	N	-0.334573	-1.243983	0.972976
N65	N	-0.772116	-1.743977	0.473020
N66	N	-0.272116	-1.243977	0.973020
C67	C	-0.740197	-1.734741	0.578090
C68	C	-0.240197	-1.234741	1.078090
C69	C	-0.971146	-1.811533	0.501181
C70	C	-0.471146	-1.311533	1.001181
C71	C	-1.036890	-1.811523	0.501127
C72	C	-0.536890	-1.311523	1.001127
C73	C	-1.036872	-1.657968	0.654634
C74	C	-0.536872	-1.157968	1.154634
C75	C	-0.971130	-1.657972	0.654677
C76	C	-0.471130	-1.157972	1.154677
C77	C	-0.938271	-1.734761	0.577953
C78	C	-0.438271	-1.234761	1.077953
C79	C	-0.139719	-1.734563	0.578184
C80	C	0.360281	-1.234563	1.078184
C81	C	-0.069751	-1.734753	0.577857
C82	C	0.430249	-1.234753	1.077857
C83	C	-0.303279	-2.047636	0.578264
C84	C	0.196721	-1.547636	1.078264
C85	C	-0.303283	-2.181036	0.578273
C86	C	0.196717	-1.681036	1.078273
C87	C	-0.303289	-1.734674	0.265203
C88	C	0.196711	-1.234674	0.765203
C89	C	-0.303297	-1.734708	0.131803
C90	C	0.196703	-1.234708	0.631803
H91	H	-0.662817	-1.874031	0.438882
H92	H	-0.162817	-1.374031	0.938882
H93	H	-0.543554	-1.874039	0.438972
H94	H	-0.043554	-1.374039	0.938972
N95	N	-0.669594	-1.579541	0.733282
N96	N	-0.169594	-1.079541	1.233282
N97	N	-0.662260	-1.587459	0.844034
N98	N	-0.162260	-1.087459	1.344034
H99	H	-0.685963	-1.532072	0.899395
H100	H	-0.185963	-1.032072	1.399395
N101	N	-1.070433	-1.579531	0.732997
N102	N	-0.570433	-1.079531	1.232997
N103	N	-1.107097	-1.503060	0.690740
N104	N	-0.607097	-1.003060	1.190740
H105	H	-1.130801	-1.447656	0.746083
H106	H	-0.630801	-0.947656	1.246083
H107	H	-0.944391	-1.874052	0.438701
H108	H	-0.444391	-1.374052	0.938701
H109	H	-0.543522	-1.595419	0.717440
H110	H	-0.043522	-1.095419	1.217440
H111	H	-1.063655	-1.874043	0.438613
H112	H	-0.563655	-1.374043	0.938613
N113	N	-0.937555	-1.579538	0.733097
N114	N	-0.437555	-1.079538	1.233097
N115	N	-0.966904	-1.510996	0.801598
N116	N	-0.466904	-1.010996	1.301598
H117	H	-0.943193	-1.455594	0.856983
H118	H	-0.443193	-0.955594	1.356983
