data_functionalizedCrystal
_audit_creation_method	'MofGen! by Chris Wilmer'
_symmetry_space_group_name_H-M	'P1'
_symmetry_Int_Tables_number	1
_symmetry_cell_setting	triclinic
loop_
_symmetry_equiv_pos_as_xyz
  x,y,z
_cell_length_a	12.594516
_cell_length_b	16.120530
_cell_length_c	16.120297
_cell_angle_alpha	89.871860
_cell_angle_beta	87.122232
_cell_angle_gamma	87.111852
loop_
_atom_site_label
_atom_site_type_symbol
_atom_site_fract_x
_atom_site_fract_y
_atom_site_fract_z
Zn1	Zn	-0.539249	1.247493	0.534603
Zn2	Zn	-0.205916	1.580827	0.867936
Zn3	Zn	0.127418	1.914160	1.201269
Zn4	Zn	-0.708692	1.254461	0.395557
Zn5	Zn	-0.375359	1.587794	0.728890
Zn6	Zn	-0.042025	1.921127	1.062224
Zn7	Zn	-0.521263	1.115482	0.388519
Zn8	Zn	-0.187930	1.448815	0.721853
Zn9	Zn	0.145404	1.782149	1.055186
Zn10	Zn	-0.707712	1.108417	0.527526
Zn11	Zn	-0.374379	1.441750	0.860860
Zn12	Zn	-0.041045	1.775084	1.194193
O13	O	-0.619229	1.181463	0.461551
O14	O	-0.285896	1.514797	0.794885
O15	O	0.047438	1.848130	1.128218
O16	O	-0.569664	1.364785	0.522065
O17	O	-0.236330	1.698118	0.855398
O18	O	0.097003	2.031451	1.188731
O19	O	-0.676712	1.241897	0.278258
O20	O	-0.343379	1.575231	0.611591
O21	O	-0.010046	1.908564	0.944924
O22	O	-0.374707	1.133034	0.407914
O23	O	-0.041373	1.466368	0.741247
O24	O	0.291960	1.799701	1.074581
O25	O	-0.694153	1.369904	0.419909
O26	O	-0.360819	1.703237	0.753242
O27	O	-0.027486	2.036570	1.086575
O28	O	-0.387921	1.230022	0.515241
O29	O	-0.054588	1.563356	0.848574
O30	O	0.278746	1.896689	1.181907
O31	O	-0.539009	1.139790	0.273087
O32	O	-0.205675	1.473124	0.606420
O33	O	0.127658	1.806457	0.939754
O34	O	-0.538058	0.998178	0.401052
O35	O	-0.204725	1.331511	0.734386
O36	O	0.128608	1.664844	1.067719
O37	O	-0.692482	1.120993	0.644831
O38	O	-0.359149	1.454327	0.978164
O39	O	-0.025815	1.787660	1.311498
O40	O	-0.675042	0.992987	0.503180
O41	O	-0.341708	1.326320	0.836513
O42	O	-0.008375	1.659654	1.169847
O43	O	-0.568713	1.223172	0.650030
O44	O	-0.235380	1.556505	0.983363
O45	O	0.097954	1.889839	1.316697
O46	O	-0.857504	1.235047	0.413047
O47	O	-0.524171	1.568380	0.746380
O48	O	-0.190838	1.901714	1.079713
O49	O	-0.856784	1.127749	0.510004
O50	O	-0.523451	1.461083	0.843337
O51	O	-0.190117	1.794416	1.176671
C52	C	-0.604493	0.965410	0.450585
C53	C	-0.271159	1.298743	0.783918
C54	C	0.062174	1.632076	1.117252
C55	C	-0.598215	0.872980	0.445913
C56	C	-0.264882	1.206313	0.779247
C57	C	0.068452	1.539647	1.112580
C58	C	-0.586730	0.703749	0.437391
C59	C	-0.253396	1.037083	0.770724
C60	C	0.079937	1.370416	1.104058
C61	C	-0.651810	0.660015	0.485772
C62	C	-0.318477	0.993348	0.819106
C63	C	0.014856	1.326681	1.152439
C64	C	-0.645420	0.565849	0.481031
C65	C	-0.312087	0.899182	0.814364
C66	C	0.021247	1.232515	1.147697
C67	C	-0.593119	0.797924	0.442132
C68	C	-0.259785	1.131257	0.775465
C69	C	0.073548	1.464590	1.108798
C70	C	-0.895766	1.181409	0.461540
C71	C	-0.562432	1.514742	0.794874
C72	C	-0.229099	1.848076	1.128207
C73	C	-1.014076	1.181461	0.461567
C74	C	-0.680743	1.514794	0.794901
C75	C	-0.347410	1.848127	1.128234
C76	C	-1.082974	1.123098	0.514263
C77	C	-0.749640	1.456431	0.847596
C78	C	-0.416307	1.789765	1.180930
C79	C	-1.147787	1.106686	0.437359
C80	C	-0.814454	1.440019	0.770693
C81	C	-0.481120	1.773352	1.104026
C82	C	-1.160068	1.197948	0.538488
C83	C	-0.826735	1.531281	0.871821
C84	C	-0.493401	1.864615	1.205155
C85	C	-1.077326	1.165010	0.384621
C86	C	-0.743993	1.498344	0.717955
C87	C	-0.410660	1.831677	1.051288
C88	C	-1.089606	1.256305	0.485803
C89	C	-0.756273	1.589639	0.819136
C90	C	-0.422940	1.922972	1.152470
C91	C	-1.154387	1.239924	0.408848
C92	C	-0.821053	1.573258	0.742182
C93	C	-0.487720	1.906591	1.075515
C94	C	-0.341615	1.181539	0.461582
C95	C	-0.008282	1.514873	0.794915
C96	C	0.325052	1.848206	1.128248
C97	C	-0.223313	1.181572	0.461595
C98	C	0.110021	1.514905	0.794928
C99	C	0.443354	1.848238	1.128261
C100	C	-0.632495	1.170517	0.678446
C101	C	-0.299161	1.503851	1.011780
C102	C	0.034172	1.837184	1.345113
C103	C	-0.638148	1.165853	0.770874
C104	C	-0.304814	1.499186	1.104208
C105	C	0.028519	1.832520	1.437541
C106	C	-0.634024	1.398360	0.472561
C107	C	-0.300690	1.731694	0.805894
C108	C	0.032643	2.065027	1.139228
C109	C	-0.640328	1.490789	0.477253
C110	C	-0.306995	1.824122	0.810586
C111	C	0.026338	2.157456	1.143919
C112	C	-0.605942	1.192414	0.245502
C113	C	-0.272608	1.525748	0.578836
C114	C	0.060725	1.859081	0.912169
C115	C	-0.600000	1.197240	0.153083
C116	C	-0.266666	1.530573	0.486417
C117	C	0.066667	1.863907	0.819750
C118	C	-0.648443	1.157306	0.940100
C119	C	-0.315109	1.490640	1.273433
C120	C	0.018224	1.823973	1.606766
C121	C	-0.589708	1.205784	0.983863
C122	C	-0.256374	1.539117	1.317197
C123	C	0.076959	1.872451	1.650530
C124	C	-0.595436	1.201029	1.078026
C125	C	-0.262103	1.534362	1.411359
C126	C	0.071231	1.867695	1.744693
C127	C	-0.642716	1.162061	0.845928
C128	C	-0.309382	1.495394	1.179262
C129	C	0.023951	1.828727	1.512595
H130	H	-0.526218	0.670473	0.392412
H131	H	-0.192885	1.003806	0.725746
H132	H	0.140448	1.337140	1.059079
C133	C	-0.515973	1.266682	0.938950
C134	C	-0.182640	1.600015	1.272283
C135	C	0.150694	1.933349	1.605616
H136	H	-0.521755	1.261937	0.880636
H137	H	-0.188422	1.595270	1.213970
H138	H	0.144912	1.928603	1.547303
H139	H	-0.444473	1.253838	0.952513
H140	H	-0.111139	1.587172	1.285846
H141	H	0.222194	1.920505	1.619180
H142	H	-0.536223	1.321849	0.955981
H143	H	-0.202890	1.655182	1.289314
H144	H	0.130444	1.988515	1.622648
C145	C	-0.722190	1.096426	0.985014
C146	C	-0.388856	1.429759	1.318347
C147	C	-0.055523	1.763092	1.651680
H148	H	-0.716419	1.101186	1.043327
H149	H	-0.383085	1.434520	1.376660
H150	H	-0.049752	1.767853	1.709993
H151	H	-0.701969	1.041256	0.967990
H152	H	-0.368636	1.374590	1.301324
H153	H	-0.035302	1.707923	1.634657
H154	H	-0.793691	1.109290	0.971449
H155	H	-0.460357	1.442624	1.304783
H156	H	-0.127024	1.775957	1.638116
H157	H	-0.712326	0.693293	0.530755
H158	H	-0.378993	1.026626	0.864089
H159	H	-0.045659	1.359959	1.197422
C160	C	-1.040607	1.056320	0.574363
C161	C	-0.707274	1.389653	0.907697
C162	C	-0.373941	1.722987	1.241030
H163	H	-1.060361	1.003213	0.557015
H164	H	-0.727028	1.336546	0.890348
H165	H	-0.393695	1.669879	1.223682
H166	H	-1.070083	1.067470	0.628833
H167	H	-0.736749	1.400804	0.962166
H168	H	-0.403416	1.734137	1.295499
H169	H	-0.965228	1.057070	0.574304
H170	H	-0.631895	1.390403	0.907637
H171	H	-0.298561	1.723737	1.240970
H172	H	-1.173578	1.043442	0.416881
H173	H	-0.840245	1.376776	0.750214
H174	H	-0.506912	1.710109	1.083548
H175	H	-1.185534	1.289330	0.364243
H176	H	-0.852200	1.622663	0.697576
H177	H	-0.518867	1.955997	1.030909
C178	C	-1.028673	1.146124	0.296731
C179	C	-0.695340	1.479457	0.630064
C180	C	-0.362006	1.812790	0.963397
H181	H	-0.953281	1.146168	0.297264
H182	H	-0.619947	1.479502	0.630597
H183	H	-0.286614	1.812835	0.963930
H184	H	-1.053679	1.187372	0.259262
H185	H	-0.720346	1.520705	0.592595
H186	H	-0.387013	1.854039	0.925928
H187	H	-1.049029	1.093163	0.279452
H188	H	-0.715696	1.426496	0.612785
H189	H	-0.382362	1.759830	0.946119
H190	H	-1.063819	1.319532	0.506317
H191	H	-0.730486	1.652866	0.839650
H192	H	-0.397152	1.986199	1.172984
C193	C	-1.208893	1.216732	0.626349
C194	C	-0.875560	1.550065	0.959682
C195	C	-0.542226	1.883398	1.293015
H196	H	-1.184409	1.175174	0.663706
H197	H	-0.851076	1.508508	0.997039
H198	H	-0.517742	1.841841	1.330372
H199	H	-1.284290	1.217142	0.625635
H200	H	-0.950957	1.550475	0.958968
H201	H	-0.617624	1.883808	1.292302
H202	H	-1.188078	1.269463	0.643916
H203	H	-0.854744	1.602796	0.977250
H204	H	-0.521411	1.936129	1.310583
