data_functionalizedCrystal
_audit_creation_method	'MofGen! by Chris Wilmer'
_symmetry_space_group_name_H-M	'P1'
_symmetry_Int_Tables_number	1
_symmetry_cell_setting	triclinic
loop_
_symmetry_equiv_pos_as_xyz
  x,y,z
_cell_length_a	15.944545
_cell_length_b	10.654550
_cell_length_c	14.421503
_cell_angle_alpha	90.002640
_cell_angle_beta	90.009865
_cell_angle_gamma	83.990538
loop_
_atom_site_label
_atom_site_type_symbol
_atom_site_fract_x
_atom_site_fract_y
_atom_site_fract_z
O1	O	-1.115451	-0.161919	0.077049
O2	O	-0.871016	-0.181896	0.077064
O3	O	-0.998854	0.010904	0.077053
O4	O	-0.987614	-0.354720	0.077060
O5	O	-0.998870	0.010892	-0.077171
O6	O	-0.871032	-0.181909	-0.077159
O7	O	-1.115467	-0.161932	-0.077174
Cu8	Cu	-0.993251	-0.171922	-0.091249
Cu9	Cu	-0.993232	-0.171907	0.091138
O10	O	-0.987630	-0.354733	-0.077163
C11	C	-0.839726	-0.181075	-0.000046
C12	C	-0.746465	-0.178593	-0.000040
C13	C	-1.146758	-0.162754	-0.000062
C14	C	-1.240019	-0.165236	-0.000062
C15	C	-0.475097	-0.051669	-0.000053
C16	C	-0.526041	-0.112867	-0.076094
C17	C	-0.410770	-0.169741	-0.000056
C18	C	-0.526006	-0.112887	0.075958
C19	C	-0.575708	-0.174083	-0.000047
C20	C	-0.460485	-0.230908	-0.076160
C21	C	-0.460447	-0.230910	0.075960
C22	C	-0.511358	-0.292195	-0.000100
C23	C	-0.315753	-0.167236	-0.000063
C24	C	-0.670722	-0.176598	-0.000047
C25	C	-0.998036	0.057685	-0.000058
C26	C	-0.995567	0.197096	-0.000054
C27	C	-0.988447	-0.401514	-0.000050
C28	C	-0.990916	-0.540925	-0.000048
N29	N	-0.993270	-0.171931	-0.219530
C30	C	-1.070836	0.277559	-0.000062
C31	C	-1.068511	0.408549	-0.000055
C32	C	-0.915642	0.378603	-0.000038
C33	C	-0.917968	0.247615	-0.000038
C34	C	-1.148435	0.227040	-0.000078
C35	C	-1.223710	0.307504	-0.000087
C36	C	-1.221385	0.438494	-0.000080
C37	C	-1.143785	0.489022	-0.000065
C38	C	-1.052395	-0.082761	-0.469164
C39	C	-0.976354	-0.058367	-0.530957
C40	C	-0.993251	-0.171916	-0.408691
C41	C	-1.069274	-0.196236	-0.530992
C42	C	-0.993240	-0.171898	-0.591413
C43	C	-0.917172	-0.147467	-0.469123
C44	C	-1.010142	-0.285384	-0.469154
C45	C	-0.934047	-0.261039	-0.530919
C46	C	-0.993259	-0.171923	-0.303430
C47	C	-0.993224	-0.171893	-0.696672
N48	N	-0.993220	-0.171887	0.219420
H49	H	-0.458856	0.050016	-0.000129
H50	H	-0.883971	-0.336433	-0.557863
H51	H	-0.554628	-0.062997	0.140241
H52	H	-1.133570	-0.216814	-0.558168
H53	H	-0.852860	-0.126780	-0.442061
Cl54	Cl	-0.570272	-0.035893	-0.175352
H55	H	-0.527439	-0.393958	-0.000142
Cl56	Cl	-1.129534	0.033703	-0.427294
Cl57	Cl	-0.954272	0.089794	-0.572863
H58	H	-1.024463	-0.381319	-0.441986
H59	H	-1.150337	0.120383	-0.000087
Cl60	Cl	-1.321259	0.243985	-0.000093
H61	H	-0.856677	0.182100	-0.000033
Cl62	Cl	-1.316014	0.539645	-0.000081
Cl63	Cl	-0.416186	-0.307822	0.175222
Cl64	Cl	-0.416466	-0.307845	-0.175523
Cl65	Cl	-1.140865	0.653698	-0.000098
H66	H	-0.852463	0.419753	-0.000027
