data_functionalizedCrystal
_audit_creation_method	'MofGen! by Chris Wilmer'
_symmetry_space_group_name_H-M	'P1'
_symmetry_Int_Tables_number	1
_symmetry_cell_setting	triclinic
loop_
_symmetry_equiv_pos_as_xyz
  x,y,z
_cell_length_a	25.639242
_cell_length_b	25.639239
_cell_length_c	16.120297
_cell_angle_alpha	92.868703
_cell_angle_beta	92.869733
_cell_angle_gamma	90.034213
loop_
_atom_site_label
_atom_site_type_symbol
_atom_site_fract_x
_atom_site_fract_y
_atom_site_fract_z
Zn1	Zn	0.784258	-0.223221	-0.471560
Zn2	Zn	0.788606	-0.306221	-0.332144
Zn3	Zn	0.701259	-0.218795	-0.332144
Zn4	Zn	0.696782	-0.310618	-0.471487
O5	O	0.742726	-0.264714	-0.401834
O6	O	0.857999	-0.234243	-0.453097
O7	O	0.780713	-0.290932	-0.215482
O8	O	0.712323	-0.146218	-0.350668
O9	O	0.861194	-0.295224	-0.350669
O10	O	0.773302	-0.149470	-0.453096
O11	O	0.716540	-0.226700	-0.215482
O12	O	0.627501	-0.230963	-0.350597
O13	O	0.704692	-0.302717	-0.588158
O14	O	0.624211	-0.298425	-0.452972
O15	O	0.768960	-0.238506	-0.588212
O16	O	0.776372	-0.379969	-0.350598
O17	O	0.708908	-0.383199	-0.452972
C18	C	0.606886	-0.264691	-0.401777
C19	C	0.548772	-0.264695	-0.401773
C20	C	0.186704	-0.299896	-0.455090
C21	C	0.132100	-0.299899	-0.455103
O22	O	0.102415	-0.329801	-0.500387
N23	N	0.106486	-0.264730	-0.401888
C24	C	0.135479	-0.229551	-0.348662
O25	O	0.108678	-0.199637	-0.303401
C26	C	0.190083	-0.229546	-0.348654
C27	C	0.215694	-0.264721	-0.401867
C28	C	0.212316	-0.335067	-0.508298
C29	C	0.266917	-0.335064	-0.508284
C30	C	0.295906	-0.299889	-0.455061
C31	C	0.270295	-0.264718	-0.401852
C32	C	0.219075	-0.194365	-0.295434
C33	C	0.273682	-0.194362	-0.295430
C34	C	0.299293	-0.229537	-0.348643
C35	C	0.353886	-0.229540	-0.348614
N36	N	0.379499	-0.264709	-0.401829
C37	C	0.350510	-0.299884	-0.455052
C38	C	0.020808	-0.229565	-0.348685
C39	C	-0.033795	-0.229573	-0.348689
C40	C	-0.037170	-0.299920	-0.455130
C41	C	0.017433	-0.299915	-0.455122
C42	C	0.046422	-0.264735	-0.401900
C43	C	0.465176	-0.299875	-0.455018
C44	C	0.519782	-0.299870	-0.454996
C45	C	0.523153	-0.229521	-0.348558
C46	C	0.468552	-0.229527	-0.348576
C47	C	0.439565	-0.264706	-0.401813
O48	O	0.383604	-0.199652	-0.303356
O49	O	0.377317	-0.329788	-0.500314
C50	C	0.742640	-0.400555	-0.401795
C51	C	0.742650	-0.458670	-0.401807
C52	C	0.777939	-0.817342	-0.348618
C53	C	0.777959	-0.871947	-0.348629
O54	O	0.807873	-0.898744	-0.303364
N55	N	0.742817	-0.900955	-0.401889
C56	C	0.707656	-0.875355	-0.455147
O57	O	0.677767	-0.905043	-0.500450
C58	C	0.707639	-0.820752	-0.455139
C59	C	0.742780	-0.791746	-0.401870
C60	C	0.813077	-0.788336	-0.295354
C61	C	0.813057	-0.733735	-0.295342
C62	C	0.777897	-0.708140	-0.348594
C63	C	0.742759	-0.737145	-0.401858
C64	C	0.672481	-0.795154	-0.508401
C65	C	0.672467	-0.740547	-0.508389
C66	C	0.707608	-0.711541	-0.455120
C67	C	0.707579	-0.656949	-0.455098
N68	N	0.742721	-0.627941	-0.401838
C69	C	0.777880	-0.653536	-0.348586
C70	C	0.707695	-0.990027	-0.455160
C71	C	0.707709	-1.044629	-0.455164
C72	C	0.778013	-1.041216	-0.348647
C73	C	0.777996	-0.986613	-0.348639
C74	C	0.742837	-0.961018	-0.401900
C75	C	0.777834	-0.538871	-0.348565
C76	C	0.777809	-0.484265	-0.348555
C77	C	0.707507	-0.487683	-0.455074
C78	C	0.707530	-0.542283	-0.455081
C79	C	0.742698	-0.567876	-0.401824
O80	O	0.677681	-0.630116	-0.500343
O81	O	0.807769	-0.623843	-0.303299
C82	C	0.879098	-0.264737	-0.401891
C83	C	0.937211	-0.264746	-0.401915
C84	C	0.735842	-0.271596	-0.619280
C85	C	0.732908	-0.274528	-0.711943
C86	C	0.742827	-0.128343	-0.401890
C87	C	0.742870	-0.070229	-0.401914
C88	C	0.727532	-0.279871	-0.881598
C89	C	0.758024	-0.249400	-0.922921
C90	C	0.755033	-0.252373	-1.017323
C91	C	0.730522	-0.276899	-0.787188
C92	C	0.749614	-0.257821	-0.185233
C93	C	0.752650	-0.254741	-0.092571
H94	H	0.038282	-0.328557	-0.498453
H95	H	0.679089	-1.068241	-0.498533
C96	C	0.816655	-0.954712	-0.290042
N97	N	0.845775	-0.930686	-0.245906
C98	C	0.547951	-0.338566	-0.513537
N99	N	0.569166	-0.367711	-0.557630
H100	H	0.786374	-0.221080	-0.887400
H101	H	-0.054642	-0.200935	-0.305349
H102	H	0.806425	-0.460650	-0.305174
H103	H	0.287764	-0.363706	-0.551617
H104	H	0.643863	-0.818761	-0.551774
H105	H	0.546766	-0.200884	-0.305222
C106	C	0.689233	-0.318126	-0.929584
N107	N	0.660386	-0.346940	-0.965736
C108	C	0.433298	-0.338577	-0.513574
N109	N	0.409288	-0.367730	-0.557674
H110	H	0.188718	-0.363711	-0.551644
H111	H	-0.060784	-0.328560	-0.498470
H112	H	0.044407	-0.200918	-0.305339
H113	H	0.297282	-0.165710	-0.252094
C114	C	0.440379	-0.190837	-0.290034
N115	N	0.419163	-0.161692	-0.245944
C116	C	0.190915	-0.155663	-0.236904
N117	N	0.169705	-0.126509	-0.192819
C118	C	0.816517	-0.567014	-0.289973
N119	N	0.845651	-0.588212	-0.245838
H120	H	0.841711	-0.809170	-0.251989
C121	C	0.851711	-0.701836	-0.236734
N122	N	0.880826	-0.677813	-0.192586
H123	H	0.806643	-1.062066	-0.305289
H124	H	0.643837	-0.719711	-0.551763
C125	C	0.669017	-0.961878	-0.513758
N126	N	0.639887	-0.940680	-0.557899
H127	H	0.678917	-0.565901	-0.498460
C128	C	0.668836	-0.459517	-0.513652
N129	N	0.639711	-0.438302	-0.557779
