data_functionalizedCrystal
_audit_creation_method	'MofGen! by Chris Wilmer'
_symmetry_space_group_name_H-M	'P1'
_symmetry_Int_Tables_number	1
_symmetry_cell_setting	triclinic
loop_
_symmetry_equiv_pos_as_xyz
  x,y,z
_cell_length_a	11.792241
_cell_length_b	9.130313
_cell_length_c	10.654550
_cell_angle_alpha	89.995631
_cell_angle_beta	84.339173
_cell_angle_gamma	90.000683
loop_
_atom_site_label
_atom_site_type_symbol
_atom_site_fract_x
_atom_site_fract_y
_atom_site_fract_z
O1	O	1.507305	-0.121657	0.172135
O2	O	1.177005	-0.121691	0.189875
O3	O	1.349749	-0.121664	-0.001755
O4	O	1.334561	-0.121684	0.363766
O5	O	1.349737	0.121935	-0.001761
O6	O	1.176993	0.121908	0.189870
O7	O	1.507293	0.121942	0.172130
Cu8	Cu	1.342142	0.144168	0.180999
Cu9	Cu	1.342156	-0.143916	0.181006
O10	O	1.334549	0.121915	0.363760
C11	C	1.134705	0.000104	0.188758
C12	C	1.008684	0.000092	0.185423
N13	N	1.342140	0.346790	0.180994
N14	N	1.342166	-0.346539	0.181001
C15	C	0.777958	0.000134	0.179290
C16	C	0.906351	0.000111	0.182697
C17	C	1.549592	0.000144	0.173247
C18	C	1.675614	0.000147	0.176582
C19	C	1.348628	0.000135	-0.048553
C20	C	1.345291	0.000132	-0.187987
C21	C	1.418657	0.423454	0.096175
C22	C	1.418668	0.576791	0.096176
C23	C	1.265641	0.576787	0.265824
C24	C	1.265626	0.423453	0.265816
C25	C	1.447000	0.000142	-0.267760
C26	C	1.443859	0.000124	-0.398772
C27	C	1.237290	0.000092	-0.370225
C28	C	1.240433	0.000100	-0.239215
C29	C	1.335670	0.000113	0.410558
C30	C	1.339006	0.000106	0.549992
H31	H	1.480959	0.361039	0.027106
H32	H	1.203311	0.361029	0.334886
C33	C	1.502834	0.661114	0.002859
N34	N	1.566228	0.724625	-0.067437
H35	H	1.532383	0.000166	-0.226055
H36	H	1.203346	0.639220	0.334886
H37	H	1.526681	0.000129	-0.463719
H38	H	1.151917	0.000068	-0.411951
C39	C	1.128539	0.000082	-0.151458
N40	N	1.044264	0.000063	-0.085360
