data_functionalizedCrystal
_audit_creation_method	'MofGen! by Chris Wilmer'
_symmetry_space_group_name_H-M	'P1'
_symmetry_Int_Tables_number	1
_symmetry_cell_setting	triclinic
loop_
_symmetry_equiv_pos_as_xyz
  x,y,z
_cell_length_a	16.120530
_cell_length_b	16.625546
_cell_length_c	16.120297
_cell_angle_alpha	92.870382
_cell_angle_beta	90.128140
_cell_angle_gamma	87.117901
loop_
_atom_site_label
_atom_site_type_symbol
_atom_site_fract_x
_atom_site_fract_y
_atom_site_fract_z
Zn1	Zn	1.247449	-0.408498	-0.534548
Zn2	Zn	1.254402	-0.536856	-0.395486
Zn3	Zn	1.115439	-0.394873	-0.388467
Zn4	Zn	1.108359	-0.536114	-0.527455
O5	O	1.181412	-0.469085	-0.461489
O6	O	1.364738	-0.431538	-0.522007
O7	O	1.241841	-0.512630	-0.278189
O8	O	1.133003	-0.283852	-0.407876
O9	O	1.369846	-0.525842	-0.419839
O10	O	1.229990	-0.293862	-0.515202
O11	O	1.139746	-0.408316	-0.273033
O12	O	0.998133	-0.407596	-0.400998
O13	O	1.120936	-0.524577	-0.644761
O14	O	0.992931	-0.511365	-0.503112
O15	O	1.223125	-0.430818	-0.649973
O16	O	1.234976	-0.649586	-0.412960
O17	O	1.127678	-0.649041	-0.509918
C18	C	1.181335	-0.678570	-0.461450
C19	C	1.181377	-0.768194	-0.461465
C20	C	0.965360	-0.457922	-0.450524
C21	C	0.872931	-0.453167	-0.445853
C22	C	1.181518	-1.096381	-0.461559
C23	C	1.181476	-1.005070	-0.461535
C24	C	1.181447	-0.932291	-0.461512
C25	C	1.181406	-0.840973	-0.461489
C26	C	0.703701	-0.444466	-0.437332
C27	C	0.659961	-0.493767	-0.485707
C28	C	0.565795	-0.488926	-0.480965
C29	C	0.797875	-0.449306	-0.442072
C30	C	1.398308	-0.480293	-0.472497
C31	C	1.490736	-0.485069	-0.477188
C32	C	1.170465	-0.479134	-0.678383
C33	C	1.165800	-0.483417	-0.770810
C34	C	1.181511	-0.258784	-0.461547
C35	C	1.181553	-0.169166	-0.461572
C36	C	1.157253	-0.491215	-0.940034
C37	C	1.205735	-0.446722	-0.983804
C38	C	1.200979	-0.451061	-1.077966
C39	C	1.162007	-0.486877	-0.845863
C40	C	1.192364	-0.459020	-0.245441
C41	C	1.197190	-0.454518	-0.153023
H42	H	0.693234	-0.539609	-0.530683
O43	O	1.103552	-0.540533	-0.979821
C44	C	1.110696	-0.533929	-1.066341
H45	H	1.174299	-0.511363	-1.081364
H46	H	1.103399	-0.595526	-1.099132
H47	H	1.060170	-0.489561	-1.088490
O48	O	0.664144	-0.389712	-0.383653
C49	C	0.723354	-0.344836	-0.339582
H50	H	0.783591	-0.346785	-0.376703
H51	H	0.698632	-0.279624	-0.329579
H52	H	0.735718	-0.371809	-0.276829
H53	H	1.250814	-0.405370	-0.950558
