data_functionalizedCrystal
_audit_creation_method	'MofGen! by Chris Wilmer'
_symmetry_space_group_name_H-M	'P1'
_symmetry_Int_Tables_number	1
_symmetry_cell_setting	triclinic
loop_
_symmetry_equiv_pos_as_xyz
  x,y,z
_cell_length_a	8.597227
_cell_length_b	10.065875
_cell_length_c	8.559649
_cell_angle_alpha	97.549942
_cell_angle_beta	77.621968
_cell_angle_gamma	73.516180
loop_
_atom_site_label
_atom_site_type_symbol
_atom_site_fract_x
_atom_site_fract_y
_atom_site_fract_z
O1	O	-2.136552	0.364760	-0.163747
O2	O	-1.636552	0.864760	0.336253
O3	O	-1.664819	0.309283	-0.193314
O4	O	-1.164819	0.809283	0.306686
O5	O	-1.942245	0.341907	0.054435
O6	O	-1.442245	0.841907	0.554435
O7	O	-1.859126	0.332135	-0.411496
O8	O	-1.359126	0.832135	0.088504
O9	O	-1.889320	0.108695	0.007005
O10	O	-1.389320	0.608695	0.507005
O11	O	-1.611894	0.076070	-0.240745
O12	O	-1.111894	0.576070	0.259255
O13	O	-2.083627	0.131547	-0.211177
O14	O	-1.583627	0.631547	0.288823
Zn15	Zn	-1.839358	0.066781	-0.233492
Zn16	Zn	-1.339358	0.566781	0.266508
Zn17	Zn	-1.909088	0.374049	-0.171000
Zn18	Zn	-1.409088	0.874049	0.329000
O19	O	-1.806201	0.098922	-0.458927
O20	O	-1.306201	0.598922	0.041073
C21	C	-1.578523	0.185640	-0.216502
C22	C	-1.078523	0.685640	0.283498
C23	C	-1.400242	0.164674	-0.214913
C24	C	-0.900242	0.664674	0.285087
N25	N	-1.791780	-0.142919	-0.276139
N26	N	-1.291780	0.357081	0.223861
C27	C	-1.892526	-0.198851	-0.185828
C28	C	-1.392526	0.301149	0.314172
C29	C	-1.855920	-0.360323	-0.218663
C30	C	-1.355920	0.139677	0.281337
C31	C	-1.169919	0.255187	-0.188002
C32	C	-0.669919	0.755187	0.311998
C33	C	-1.348189	0.276145	-0.189630
C34	C	-0.848189	0.776145	0.310370
C35	C	-1.922082	0.226044	0.090306
C36	C	-1.422082	0.726044	0.590306
C37	C	-1.940834	0.228257	0.267852
C38	C	-1.440834	0.728257	0.767852
N39	N	-1.956680	0.583751	-0.128339
N40	N	-1.456680	1.083751	0.371661
C41	C	-1.826364	0.214788	-0.494797
C42	C	-1.326364	0.714788	0.005203
C43	C	-1.807615	0.212585	-0.672341
C44	C	-1.307615	0.712585	-0.172341
H45	H	-2.005874	-0.127197	-0.084194
H46	H	-1.505874	0.372803	0.415806
N47	N	-1.469816	0.423804	-0.162555
N48	N	-0.969816	0.923804	0.337445
H49	H	-1.409757	0.495214	-0.145454
H50	H	-0.909757	0.995214	0.354546
H51	H	-1.515283	0.434471	-0.261277
H52	H	-1.015283	0.934471	0.238723
H53	H	-1.308407	0.053197	-0.235347
H54	H	-0.808407	0.553197	0.264653
H55	H	-2.070035	-0.344598	-0.026699
H56	H	-1.570035	0.155402	0.473301
N57	N	-2.110921	0.248254	0.379950
N58	N	-1.610921	0.748254	0.879950
H59	H	-2.192653	0.342012	0.377492
H60	H	-1.692653	0.842012	0.877492
H61	H	-2.153264	0.169034	0.342245
H62	H	-1.653264	0.669034	0.842245
N63	N	-1.637523	0.192562	0.215578
N64	N	-1.137523	0.692562	0.715578
H65	H	-1.647787	0.193770	0.100379
H66	H	-1.147787	0.693770	0.600379
H67	H	-1.595104	0.271714	0.253342
H68	H	-1.095104	0.771714	0.753342
H69	H	-1.742555	-0.431975	-0.320292
H70	H	-1.242555	0.068025	0.179708
H71	H	-1.678423	-0.214576	-0.377761
H72	H	-1.178423	0.285424	0.122239
