data_functionalizedCrystal
_audit_creation_method	'MofGen! by Chris Wilmer'
_symmetry_space_group_name_H-M	'P1'
_symmetry_Int_Tables_number	1
_symmetry_cell_setting	triclinic
loop_
_symmetry_equiv_pos_as_xyz
  x,y,z
_cell_length_a	12.645323
_cell_length_b	18.215407
_cell_length_c	18.215405
_cell_angle_alpha	89.976820
_cell_angle_beta	89.968645
_cell_angle_gamma	90.021746
loop_
_atom_site_label
_atom_site_type_symbol
_atom_site_fract_x
_atom_site_fract_y
_atom_site_fract_z
Zn1	Zn	-0.599412	-1.125097	-0.292955
Zn2	Zn	-0.099412	-0.625097	0.207045
Zn3	Zn	-0.422138	-1.125006	-0.416035
Zn4	Zn	0.077862	-0.625006	0.083965
Zn5	Zn	-0.422156	-1.002025	-0.292988
Zn6	Zn	0.077844	-0.502025	0.207012
Zn7	Zn	-0.599353	-1.002000	-0.415986
Zn8	Zn	-0.099353	-0.502000	0.084014
O9	O	-0.510765	-1.063532	-0.354491
O10	O	-0.010765	-0.563532	0.145509
O11	O	-0.575913	-1.228069	-0.309289
O12	O	-0.075913	-0.728069	0.190711
O13	O	-0.273793	-1.108665	-0.399746
O14	O	0.226207	-0.608665	0.100254
O15	O	-0.445702	-1.018400	-0.189999
O16	O	0.054298	-0.518400	0.310001
O17	O	-0.445670	-1.228002	-0.399715
O18	O	0.054330	-0.728002	0.100285
O19	O	-0.575931	-1.108820	-0.189975
O20	O	-0.075931	-0.608820	0.310025
O21	O	-0.273806	-1.018311	-0.309344
O22	O	0.226194	-0.518311	0.190656
O23	O	-0.445645	-0.899038	-0.309296
O24	O	0.054355	-0.399038	0.190704
O25	O	-0.747708	-1.018357	-0.399631
O26	O	-0.247708	-0.518357	0.100369
O27	O	-0.575831	-0.899019	-0.399663
O28	O	-0.075831	-0.399019	0.100337
O29	O	-0.747751	-1.108795	-0.309241
O30	O	-0.247751	-0.608795	0.190759
O31	O	-0.445614	-1.108640	-0.519013
O32	O	0.054386	-0.608640	-0.019013
O33	O	-0.575813	-1.018268	-0.518976
O34	O	-0.075813	-0.518268	-0.018976
C35	C	-0.510734	-0.872326	-0.354478
C36	C	-0.010734	-0.372326	0.145522
C37	C	-0.510747	-0.790527	-0.354491
C38	C	-0.010747	-0.290527	0.145509
C39	C	-0.510728	-1.063461	-0.545697
C40	C	-0.010728	-0.563461	-0.045697
C41	C	-0.510748	-1.063499	-0.627496
C42	C	-0.010748	-0.563499	-0.127496
C43	C	-0.787270	-1.063583	-0.354427
C44	C	-0.287270	-0.563583	0.145573
C45	C	-0.905100	-1.063605	-0.354400
C46	C	-0.405100	-0.563605	0.145600
C47	C	-0.949955	-1.006713	-0.411253
C48	C	-0.449955	-0.506713	0.088747
C49	C	-1.072515	-1.006513	-0.411039
C50	C	-0.572515	-0.506513	0.088961
C51	C	-1.073011	-1.042876	-0.276719
C52	C	-0.573011	-0.542876	0.223281
C53	C	-0.950413	-1.042441	-0.277094
C54	C	-0.450413	-0.542441	0.222906
C55	C	-0.950289	-1.141416	-0.374454
C56	C	-0.450289	-0.641416	0.125546
C57	C	-1.072895	-1.141022	-0.376119
C58	C	-0.572895	-0.641022	0.123881
C59	C	-0.235335	-1.063523	-0.354501
C60	C	0.264665	-0.563523	0.145499
C61	C	-0.117506	-1.063644	-0.354321
C62	C	0.382494	-0.563644	0.145679
C63	C	-0.510796	-1.255485	-0.354504
C64	C	-0.010796	-0.755485	0.145496
C65	C	-0.510809	-1.337284	-0.354510
C66	C	-0.010809	-0.837284	0.145490
C67	C	-0.578449	-0.602342	-0.401618
C68	C	-0.078449	-0.102342	0.098382
C69	C	-0.578463	-0.525484	-0.401620
C70	C	-0.078463	-0.025484	0.098380
C71	C	-0.443103	-0.525474	-0.307377
C72	C	0.056897	-0.025474	0.192623
C73	C	-0.443096	-0.602331	-0.307371
C74	C	0.056904	-0.102331	0.192629
C75	C	-0.510768	-0.640763	-0.354496
C76	C	-0.010768	-0.140763	0.145504
C77	C	-0.510788	-0.487047	-0.354504
C78	C	-0.010788	0.012953	0.145496
C79	C	-0.510802	-0.403714	-0.354506
C80	C	-0.010802	0.096286	0.145494
C81	C	-0.510756	-0.724102	-0.354493
C82	C	-0.010756	-0.224102	0.145507
C83	C	-0.578650	-1.110603	-0.815617
C84	C	-0.078650	-0.610603	-0.315617
C85	C	-0.578670	-1.110629	-0.892475
C86	C	-0.078670	-0.610629	-0.392475
C87	C	-0.442945	-1.016552	-0.892613
C88	C	0.057055	-0.516552	-0.392613
C89	C	-0.442931	-1.016522	-0.815756
C90	C	0.057069	-0.516522	-0.315756
C91	C	-0.510782	-1.063552	-0.777259
C92	C	-0.010782	-0.563552	-0.277259
C93	C	-0.510816	-1.063608	-0.930975
C94	C	-0.010816	-0.563608	-0.430975
C95	C	-0.510837	-1.063637	-1.014309
C96	C	-0.010837	-0.563637	-0.514309
C97	C	-0.510763	-1.063522	-0.693920
C98	C	-0.010763	-0.563522	-0.193920
C99	C	-0.510825	-1.063623	-0.162538
C100	C	-0.010825	-0.563623	0.337462
C101	C	-0.510850	-1.063662	-0.080739
C102	C	-0.010850	-0.563662	0.419261
H103	H	-1.102599	-1.019478	-0.468574
H104	H	-0.602599	-0.519478	0.031426
C105	C	-0.652897	-0.644615	-0.453451
C106	C	-0.152897	-0.144615	0.046549
N107	N	-0.708977	-0.676453	-0.492492
N108	N	-0.208977	-0.176453	0.007508
H109	H	-0.920740	-1.082091	-0.233274
H110	H	-0.420740	-0.582091	0.266726
H111	H	-0.387665	-0.978204	-0.784523
H112	H	0.112335	-0.478204	-0.284523
C113	C	-0.911093	-1.198678	-0.318519
C114	C	-0.411093	-0.698678	0.181481
N115	N	-0.881563	-1.241803	-0.276388
N116	N	-0.381563	-0.741803	0.223612
H117	H	-0.919367	-1.160360	-0.430104
H118	H	-0.419367	-0.660360	0.069896
H119	H	-1.103525	-1.185669	-0.337730
H120	H	-0.603525	-0.685669	0.162270
C121	C	-0.368637	-0.644596	-0.255531
C122	C	0.131363	-0.144596	0.244469
N123	N	-0.312558	-0.676431	-0.216485
N124	N	0.187442	-0.176431	0.283515
C125	C	-0.911778	-0.965611	-0.254176
C126	C	-0.411778	-0.465611	0.245824
N127	N	-0.882683	-0.907741	-0.236916
N128	N	-0.382683	-0.407741	0.263084
C129	C	-0.652908	-0.483224	-0.453465
C130	C	-0.152908	0.016776	0.046535
N131	N	-0.708981	-0.451395	-0.492519
N132	N	-0.208981	0.048605	0.007481
C133	C	-0.653323	-1.162394	-0.934665
C134	C	-0.153323	-0.662394	-0.434665
N135	N	-0.709553	-1.201387	-0.966441
N136	N	-0.209553	-0.701387	-0.466441
C137	C	-0.368663	-0.483191	-0.255546
C138	C	0.131337	0.016809	0.244454
N139	N	-0.312591	-0.451344	-0.216508
N140	N	0.187409	0.048656	0.283492
H141	H	-0.633900	-1.148896	-0.784275
H142	H	-0.133900	-0.648896	-0.284275
H143	H	-0.920473	-1.019514	-0.468991
H144	H	-0.420473	-0.519514	0.031009
C145	C	-0.908345	-0.929262	-0.393509
C146	C	-0.408345	-0.429262	0.106491
N147	N	-0.877005	-0.870926	-0.380141
N148	N	-0.377005	-0.370926	0.119859
C149	C	-1.112140	-0.928638	-0.393040
C150	C	-0.612140	-0.428638	0.106960
N151	N	-1.141985	-0.869980	-0.379479
N152	N	-0.641985	-0.369980	0.120521
H153	H	-0.387702	-0.978264	-0.923966
H154	H	0.112298	-0.478264	-0.423966
C155	C	-1.112414	-1.097137	-0.217890
C156	C	-0.612414	-0.597137	0.282110
N157	N	-1.142107	-1.138002	-0.173579
N158	N	-0.642107	-0.638002	0.326421
C159	C	-1.114490	-0.966908	-0.253368
C160	C	-0.614490	-0.466908	0.246632
N161	N	-1.145732	-0.909687	-0.235783
N162	N	-0.645732	-0.409687	0.264217
H163	H	-1.101972	-1.156685	-0.433231
H164	H	-0.601972	-0.656685	0.066769
