data_functionalizedCrystal
_audit_creation_method	'MofGen! by Chris Wilmer'
_symmetry_space_group_name_H-M	'P1'
_symmetry_Int_Tables_number	1
_symmetry_cell_setting	triclinic
loop_
_symmetry_equiv_pos_as_xyz
  x,y,z
_cell_length_a	11.169417
_cell_length_b	10.685194
_cell_length_c	11.169409
_cell_angle_alpha	94.405531
_cell_angle_beta	90.019824
_cell_angle_gamma	94.378129
loop_
_atom_site_label
_atom_site_type_symbol
_atom_site_fract_x
_atom_site_fract_y
_atom_site_fract_z
Zn1	Zn	1.798362	-0.502284	0.641889
Zn2	Zn	1.782870	-0.713363	0.425803
Zn3	Zn	1.597642	-0.502361	0.441218
Zn4	Zn	1.582282	-0.713261	0.626455
O5	O	1.690289	-0.607817	0.533841
O6	O	1.964256	-0.530295	0.613233
O7	O	1.758245	-0.685449	0.259892
O8	O	1.637180	-0.325751	0.480748
O9	O	1.952874	-0.685374	0.454475
O10	O	1.784648	-0.325695	0.628180
O11	O	1.622158	-0.530426	0.271218
O12	O	1.427656	-0.530326	0.465782
O13	O	1.611000	-0.685199	0.796458
O14	O	1.416371	-0.685274	0.601875
O15	O	1.769753	-0.530195	0.807797
O16	O	1.743350	-0.889949	0.439509
O17	O	1.595979	-0.889874	0.586928
C18	C	1.378466	-0.607798	0.533827
C19	C	1.245064	-0.607820	0.533848
C20	C	1.666349	-0.935702	0.509897
C21	C	1.656217	-1.075972	0.499694
C22	C	2.003330	-0.607837	0.533856
C23	C	2.136729	-0.607846	0.533862
C24	C	1.690391	-0.607677	0.846894
C25	C	1.690435	-0.607617	0.980299
C26	C	1.714355	-0.278652	0.557905
C27	C	1.724611	-0.138382	0.568160
C28	C	1.690263	-0.607866	0.222013
C29	C	1.690478	-0.607570	0.088635
H30	H	1.790918	-1.084503	0.634588
H31	H	1.589896	-1.129859	0.433272
