data_functionalizedCrystal
_audit_creation_method	'MofGen! by Chris Wilmer'
_symmetry_space_group_name_H-M	'P1'
_symmetry_Int_Tables_number	1
_symmetry_cell_setting	triclinic
loop_
_symmetry_equiv_pos_as_xyz
  x,y,z
_cell_length_a	23.532407
_cell_length_b	14.044220
_cell_length_c	13.101039
_cell_angle_alpha	86.332523
_cell_angle_beta	93.331090
_cell_angle_gamma	88.018778
loop_
_atom_site_label
_atom_site_type_symbol
_atom_site_fract_x
_atom_site_fract_y
_atom_site_fract_z
O1	O	-0.764355	-0.109759	-0.085088
O2	O	-0.431021	0.223575	0.248245
O3	O	-0.097688	0.556908	0.581579
O4	O	-0.599394	-0.126398	-0.085118
O5	O	-0.266061	0.206936	0.248215
O6	O	0.067272	0.540269	0.581548
O7	O	-0.679398	0.019883	-0.085094
O8	O	-0.346065	0.353216	0.248240
O9	O	-0.012731	0.686549	0.581573
O10	O	-0.684351	-0.256039	-0.085113
O11	O	-0.351018	0.077295	0.248220
O12	O	-0.017684	0.410628	0.581554
O13	O	-0.673659	0.009370	0.085335
O14	O	-0.340325	0.342703	0.418668
O15	O	-0.006992	0.676037	0.752001
O16	O	-0.593655	-0.136910	0.085310
O17	O	-0.260322	0.196423	0.418643
O18	O	0.073012	0.529756	0.751976
O19	O	-0.758615	-0.120271	0.085340
O20	O	-0.425282	0.213062	0.418673
O21	O	-0.091949	0.546395	0.752007
Zn22	Zn	-0.675224	-0.130260	0.112384
Zn23	Zn	-0.341891	0.203073	0.445717
Zn24	Zn	-0.008557	0.536407	0.779051
Zn25	Zn	-0.682786	-0.116409	-0.112162
Zn26	Zn	-0.349452	0.216924	0.221171
Zn27	Zn	-0.016119	0.550258	0.554504
O28	O	-0.678612	-0.266552	0.085315
O29	O	-0.345278	0.066782	0.418649
O30	O	-0.011945	0.400115	0.751982
C31	C	-0.575286	-0.131230	0.000092
C32	C	-0.241952	0.202103	0.333425
C33	C	0.091381	0.535437	0.666759
C34	C	-0.512000	-0.129955	0.000081
C35	C	-0.178667	0.203378	0.333414
C36	C	0.154667	0.536711	0.666747
C37	C	-0.674361	0.049920	0.000121
C38	C	-0.341027	0.383254	0.333454
C39	C	-0.007694	0.716587	0.666787
C40	C	-0.667895	0.155085	0.000121
C41	C	-0.334561	0.488418	0.333454
C42	C	-0.001228	0.821752	0.666787
C43	C	-0.782724	-0.115439	0.000128
C44	C	-0.449391	0.217895	0.333461
C45	C	-0.116057	0.551228	0.666794
C46	C	-0.846010	-0.116713	0.000132
C47	C	-0.512677	0.216620	0.333465
C48	C	-0.179343	0.549954	0.666799
C49	C	-0.117154	-0.208533	0.000121
C50	C	0.216179	0.124800	0.333455
C51	C	0.549512	0.458134	0.666788
C52	C	-0.057690	-0.207350	0.000128
C53	C	0.275643	0.125983	0.333461
C54	C	0.608977	0.459317	0.666794
O55	O	-0.024892	-0.280192	0.000160
O56	O	0.308441	0.053141	0.333493
O57	O	0.641774	0.386475	0.666827
N58	N	-0.030350	-0.120386	0.000132
N59	N	0.302983	0.212948	0.333466
N60	N	0.636317	0.546281	0.666799
C61	C	-0.062478	-0.034600	0.000141
C62	C	0.270856	0.298734	0.333474
C63	C	0.604189	0.632067	0.666807
O64	O	-0.033763	0.039479	0.000146
O65	O	0.299571	0.372812	0.333479
O66	O	0.632904	0.706145	0.666813
C67	C	-0.121941	-0.035784	0.000142
C68	C	0.211393	0.297549	0.333475
C69	C	0.544726	0.630882	0.666808
C70	C	-0.149278	-0.122754	0.000127
C71	C	0.184056	0.210580	0.333460
C72	C	0.517389	0.543913	0.666794
C73	C	-0.144492	-0.295495	0.000108
C74	C	0.188842	0.037838	0.333441
C75	C	0.522175	0.371171	0.666774
C76	C	-0.203952	-0.296678	0.000100
C77	C	0.129381	0.036655	0.333433
C78	C	0.462714	0.369989	0.666766
C79	C	-0.236076	-0.210898	0.000105
C80	C	0.097258	0.122435	0.333438
C81	C	0.430591	0.455768	0.666772
C82	C	-0.208738	-0.123936	0.000119
C83	C	0.124595	0.209397	0.333452
C84	C	0.457928	0.542730	0.666785
C85	C	-0.154067	0.050000	0.000157
C86	C	0.179266	0.383333	0.333491
C87	C	0.512600	0.716667	0.666824
C88	C	-0.213534	0.048808	0.000159
C89	C	0.119799	0.382141	0.333493
C90	C	0.453133	0.715475	0.666826
C91	C	-0.240871	-0.038161	0.000144
C92	C	0.092462	0.295172	0.333478
C93	C	0.425796	0.628505	0.666811
C94	C	-0.300322	-0.039339	0.000116
C95	C	0.033011	0.293994	0.333449
C96	C	0.366344	0.627327	0.666782
N97	N	-0.327662	-0.126303	0.000111
N98	N	0.005671	0.207030	0.333445
N99	N	0.339004	0.540363	0.666778
C100	C	-0.295539	-0.212083	0.000106
C101	C	0.037794	0.121250	0.333439
C102	C	0.371128	0.454584	0.666773
C103	C	0.062399	-0.032119	0.000140
C104	C	0.395733	0.301215	0.333474
C105	C	0.729066	0.634548	0.666807
C106	C	0.121861	-0.030933	0.000132
C107	C	0.455195	0.302401	0.333465
C108	C	0.788528	0.635734	0.666799
C109	C	0.126645	-0.203683	0.000121
C110	C	0.459978	0.129650	0.333454
C111	C	0.793312	0.462983	0.666788
C112	C	0.067182	-0.204868	0.000122
C113	C	0.400515	0.128465	0.333455
C114	C	0.733848	0.461799	0.666789
C115	C	0.035060	-0.119083	0.000136
C116	C	0.368393	0.214250	0.333469
C117	C	0.701726	0.547584	0.666803
C118	C	-0.420411	-0.214560	0.000088
C119	C	-0.087077	0.118773	0.333421
C120	C	0.246256	0.452107	0.666754
C121	C	-0.479877	-0.215735	0.000075
C122	C	-0.146543	0.117599	0.333409
C123	C	0.186790	0.450932	0.666742
C124	C	-0.484655	-0.042985	0.000092
C125	C	-0.151322	0.290348	0.333425
C126	C	0.182012	0.623682	0.666758
C127	C	-0.425194	-0.041809	0.000099
C128	C	-0.091861	0.291524	0.333432
C129	C	0.241472	0.624857	0.666765
C130	C	-0.393073	-0.127605	0.000100
C131	C	-0.059740	0.205728	0.333434
C132	C	0.273594	0.539062	0.666767
O133	O	-0.333156	0.033464	0.000088
O134	O	0.000177	0.366798	0.333421
O135	O	0.333510	0.700131	0.666754
O136	O	-0.324261	-0.286150	0.000114
O137	O	0.009072	0.047183	0.333447
O138	O	0.342406	0.380517	0.666781
C139	C	-0.683649	-0.296589	0.000099
C140	C	-0.350316	0.036744	0.333432
C141	C	-0.016982	0.370078	0.666766
C142	C	-0.690115	-0.401754	0.000092
C143	C	-0.356782	-0.068420	0.333425
C144	C	-0.023449	0.264913	0.666759
N145	N	-0.670067	-0.139712	0.265631
N146	N	-0.336734	0.193621	0.598964
N147	N	-0.003401	0.526954	0.932298
C148	C	-0.656074	0.347636	0.000104
C149	C	-0.322741	0.680970	0.333437
C150	C	0.010592	1.014303	0.666770
C151	C	-0.701933	0.405701	0.000109
C152	C	-0.368600	0.739034	0.333442
C153	C	-0.035267	1.072368	0.666776
C154	C	-0.695356	0.512843	0.000100
C155	C	-0.362023	0.846176	0.333433
C156	C	-0.028689	1.179510	0.666766
C157	C	-0.662651	0.240484	0.000113
C158	C	-0.329317	0.573817	0.333446
C159	C	0.004016	0.907151	0.666780
N160	N	-0.687946	-0.106949	-0.265409
N161	N	-0.354613	0.226384	0.067924
N162	N	-0.021280	0.559717	0.401257
C163	C	-0.663052	-0.152581	0.474671
C164	C	-0.329719	0.180752	0.808005
C165	C	0.003615	0.514086	1.141338
C166	C	-0.694960	-0.094083	0.525557
C167	C	-0.361627	0.239250	0.858890
C168	C	-0.028293	0.572583	1.192224
C169	C	-0.691057	-0.101244	0.641874
C170	C	-0.357723	0.232089	0.975208
C171	C	-0.024390	0.565423	1.308541
C172	C	-0.666955	-0.145422	0.358344
C173	C	-0.333621	0.187911	0.691677
C174	C	-0.000288	0.521245	1.025010
H175	H	-0.502131	-0.286558	0.000063
H176	H	-0.168798	0.046775	0.333396
H177	H	0.164535	0.380108	0.666729
H178	H	-0.725209	-0.038625	0.481764
H179	H	-0.391876	0.294708	0.815097
H180	H	-0.058543	0.628041	1.148431
N181	N	-0.760482	0.364967	0.000145
N182	N	-0.427149	0.698301	0.333479
N183	N	-0.093815	1.031634	0.666812
H184	H	-0.790171	0.418648	0.000153
H185	H	-0.456838	0.751981	0.333486
H186	H	-0.123505	1.085315	0.666819
H187	H	-0.767333	0.328354	-0.063026
H188	H	-0.433999	0.661687	0.270307
H189	H	-0.100666	0.995020	0.603640
H190	H	0.144113	0.039887	0.000128
H191	H	0.477447	0.373220	0.333461
H192	H	0.810780	0.706554	0.666795
H193	H	-0.632806	-0.208037	0.518459
H194	H	-0.299472	0.125296	0.851792
H195	H	0.033861	0.458630	1.185126
H196	H	-0.510821	0.026855	0.000092
H197	H	-0.177487	0.360188	0.333425
H198	H	0.155846	0.693521	0.666759
N199	N	-0.597530	0.388374	0.000103
N200	N	-0.264196	0.721707	0.333436
N201	N	0.069137	1.055040	0.666769
H202	H	-0.574023	0.362193	0.063282
H203	H	-0.240690	0.695527	0.396615
H204	H	0.092644	1.028860	0.729949
H205	H	-0.578316	0.369970	-0.063115
H206	H	-0.244983	0.703303	0.270218
H207	H	0.088351	1.036637	0.603551
N208	N	-0.385770	-0.307095	0.000114
N209	N	-0.052437	0.026238	0.333447
N210	N	0.280897	0.359571	0.666780
H211	H	-0.412118	-0.362358	0.000110
H212	H	-0.078785	-0.029025	0.333443
H213	H	0.254548	0.304308	0.666776
H214	H	-0.363111	-0.306489	-0.063057
H215	H	-0.029778	0.026844	0.270277
H216	H	0.303556	0.360178	0.603610
H217	H	-0.226205	-0.367497	0.000087
H218	H	0.107129	-0.034164	0.333420
H219	H	0.440462	0.299170	0.666754
N220	N	-0.109848	-0.388026	0.000160
N221	N	0.223485	-0.054693	0.333494
N222	N	0.556819	0.278641	0.666827
H223	H	-0.136197	-0.443288	0.000171
H224	H	0.197136	-0.109955	0.333504
H225	H	0.530470	0.223378	0.666837
H226	H	-0.087184	-0.387442	-0.063004
H227	H	0.246149	-0.054108	0.270329
H228	H	0.579483	0.279225	0.603663
H229	H	0.152811	-0.273530	0.000122
H230	H	0.486144	0.059803	0.333455
H231	H	0.819478	0.393137	0.666788
N232	N	0.037699	-0.298668	0.000103
N233	N	0.371032	0.034665	0.333436
N234	N	0.704365	0.367998	0.666769
H235	H	0.067077	-0.352824	0.000095
H236	H	0.400410	-0.019491	0.333429
H237	H	0.733744	0.313842	0.666762
H238	H	0.015257	-0.306828	0.063283
H239	H	0.348590	0.026505	0.396616
H240	H	0.681923	0.359838	0.729949
N241	N	-0.124595	0.143806	0.000185
N242	N	0.208738	0.477140	0.333518
N243	N	0.542071	0.810473	0.666851
H244	H	-0.097910	0.144249	0.063367
H245	H	0.235424	0.477582	0.396700
H246	H	0.568757	0.810916	0.730033
H247	H	-0.102186	0.152010	-0.063031
H248	H	0.231148	0.485344	0.270303
H249	H	0.564481	0.818677	0.603636
H250	H	-0.239685	0.118666	0.000171
H251	H	0.093648	0.452000	0.333505
H252	H	0.426981	0.785333	0.666838
N253	N	0.027760	0.060419	0.000137
N254	N	0.361093	0.393752	0.333470
N255	N	0.694427	0.727086	0.666804
H256	H	0.000858	0.067679	-0.063041
H257	H	0.334192	0.401013	0.270292
H258	H	0.667525	0.734346	0.603626
H259	H	0.005142	0.059836	0.063356
H260	H	0.338475	0.393169	0.396690
H261	H	0.671808	0.726502	0.730023
N262	N	-0.395705	0.051991	0.000095
N263	N	-0.062372	0.385324	0.333428
N264	N	0.270961	0.718657	0.666762
H265	H	-0.425081	0.106152	0.000092
H266	H	-0.091748	0.439485	0.333425
H267	H	0.241585	0.772818	0.666759
H268	H	-0.369019	0.052350	0.063281
H269	H	-0.035685	0.385683	0.396615
H270	H	0.297648	0.719017	0.729948
