data_functionalizedCrystal
_audit_creation_method	'MofGen! by Chris Wilmer'
_symmetry_space_group_name_H-M	'P1'
_symmetry_Int_Tables_number	1
_symmetry_cell_setting	triclinic
loop_
_symmetry_equiv_pos_as_xyz
  x,y,z
_cell_length_a	10.489711
_cell_length_b	11.026607
_cell_length_c	10.065875
_cell_angle_alpha	79.268236
_cell_angle_beta	81.162019
_cell_angle_gamma	83.443487
loop_
_atom_site_label
_atom_site_type_symbol
_atom_site_fract_x
_atom_site_fract_y
_atom_site_fract_z
O1	O	1.746376	-0.153658	-0.113541
O2	O	1.378725	-0.169799	-0.113532
O3	O	1.532079	0.015187	-0.113531
O4	O	1.593022	-0.338644	-0.113542
O5	O	1.502869	-0.020230	0.113458
O6	O	1.349515	-0.205217	0.113456
O7	O	1.717166	-0.189075	0.113448
Zn8	Zn	1.528703	-0.202769	0.149491
Zn9	Zn	1.567188	-0.156105	-0.149576
O10	O	1.563812	-0.374061	0.113446
C11	C	1.316321	-0.186297	-0.000037
C12	C	1.173892	-0.182673	-0.000034
C13	C	1.015979	-0.293915	-0.000053
C14	C	1.110302	-0.220885	-0.111966
C15	C	1.081470	-0.255774	0.111827
C16	C	1.014460	-0.103106	-0.112068
C17	C	0.985609	-0.138026	0.111825
C18	C	1.079889	-0.064906	-0.000116
C19	C	1.506232	0.042786	-0.000038
C20	C	1.472718	0.177790	-0.000042
C21	C	1.779570	-0.172577	-0.000050
C22	C	1.922000	-0.176199	-0.000063
C23	C	1.589659	-0.401660	-0.000049
C24	C	1.623174	-0.536663	-0.000054
N25	N	1.502447	-0.234615	0.353597
C26	C	1.565257	0.250797	-0.000046
C27	C	1.530621	0.390332	-0.000050
N28	N	1.593452	-0.124250	-0.353681
C29	C	1.558043	-0.167178	0.421376
C30	C	1.537848	-0.191697	0.578543
H31	H	1.108051	0.031944	-0.000169
H32	H	1.475289	-0.267585	0.636863
H33	H	0.931462	-0.103024	0.206448
C34	C	1.331047	0.232886	-0.000048
H35	H	1.277481	0.168990	-0.000056
H36	H	1.303934	0.269482	0.079102
H37	H	1.324321	0.294166	-0.079220
H38	H	1.620587	-0.091285	0.363052
C39	C	1.417950	-0.337136	0.432378
H40	H	1.415469	-0.340172	0.527677
H41	H	1.332585	-0.319763	0.409049
H42	H	1.453686	-0.414734	0.409023
C43	C	1.764855	0.408251	-0.000059
H44	H	1.818421	0.472153	-0.000072
H45	H	1.771594	0.346965	0.079095
H46	H	1.791962	0.371668	-0.079227
C47	C	1.388943	0.445422	-0.000056
H48	H	1.335378	0.381525	-0.000064
H49	H	1.361830	0.482017	0.079094
H50	H	1.382217	0.506702	-0.079228
H51	H	1.655999	-0.048352	0.587999
H52	H	0.987586	-0.390650	-0.000167
H53	H	1.164430	-0.255933	-0.206580
C54	C	1.706929	0.195702	-0.000044
H55	H	1.760497	0.259601	-0.000055
H56	H	1.713663	0.134417	0.079112
H57	H	1.734039	0.159117	-0.079210
H58	H	0.984894	-0.038565	-0.206793
H59	H	1.111211	-0.320364	0.206442
