data_functionalizedCrystal
_audit_creation_method	'MofGen! by Chris Wilmer'
_symmetry_space_group_name_H-M	'P1'
_symmetry_Int_Tables_number	1
_symmetry_cell_setting	triclinic
loop_
_symmetry_equiv_pos_as_xyz
  x,y,z
_cell_length_a	16.992695
_cell_length_b	17.699083
_cell_length_c	16.176319
_cell_angle_alpha	90.001389
_cell_angle_beta	89.993125
_cell_angle_gamma	93.024381
loop_
_atom_site_label
_atom_site_type_symbol
_atom_site_fract_x
_atom_site_fract_y
_atom_site_fract_z
O1	O	0.099146	-1.010252	-0.068631
O2	O	0.112045	-0.790676	-0.068658
O3	O	-0.008546	-0.899584	-0.068638
O4	O	0.219736	-0.901344	-0.068651
O5	O	-0.008553	-0.899567	0.068855
O6	O	0.112037	-0.790660	0.068835
O7	O	0.099138	-1.010235	0.068862
Cu8	Cu	0.105587	-0.900446	0.081403
Cu9	Cu	0.105596	-0.900465	-0.081199
O10	O	0.219729	-0.901328	0.068842
C11	C	0.111579	-0.762442	0.000085
C12	C	0.110192	-0.678338	0.000075
C13	C	-0.037758	-0.897311	0.000108
C14	C	-0.124789	-0.890554	0.000107
C15	C	0.099604	-1.038469	0.000117
C16	C	0.100991	-1.122574	0.000122
C17	C	-0.175154	-0.955751	0.000116
C18	C	-0.256928	-0.949398	0.000107
C19	C	-0.288336	-0.877846	0.000096
C20	C	-0.237965	-0.812643	0.000084
C21	C	-0.156192	-0.818998	0.000087
C22	C	-0.531884	-0.851510	0.000081
C23	C	-0.613663	-0.845160	0.000081
C24	C	-0.632621	-0.981915	0.000102
C25	C	-0.550845	-0.988263	0.000110
C26	C	-0.500481	-0.923061	0.000094
N27	N	-0.371923	-0.871350	0.000090
N28	N	-0.416897	-0.929558	0.000095
C29	C	0.248941	-0.903601	0.000094
C30	C	0.335972	-0.910358	0.000090
N31	N	0.105580	-0.900438	0.195768
C32	C	0.180976	-0.634124	0.000071
C33	C	0.179669	-0.555099	0.000082
C34	C	0.107576	-0.520290	0.000091
C35	C	0.036787	-0.564510	0.000097
C36	C	0.038095	-0.643533	0.000092
C37	C	0.031509	-0.245818	0.000118
C38	C	0.030206	-0.166789	0.000120
C39	C	0.173082	-0.157384	0.000108
C40	C	0.174391	-0.236408	0.000103
C41	C	0.103602	-0.280621	0.000113
C42	C	0.105020	-0.366308	0.000103
C43	C	0.106157	-0.434604	0.000095
N44	N	0.105597	-0.900479	-0.195564
C45	C	0.052204	-0.948679	0.239041
C46	C	0.052203	-0.948683	0.325588
C47	C	0.105583	-0.900449	0.368861
C48	C	0.158961	-0.852202	0.325582
C49	C	0.158957	-0.852195	0.239036
C50	C	0.158976	-0.852229	0.674610
C51	C	0.158977	-0.852242	0.761161
C52	C	0.052222	-0.948717	0.761162
C53	C	0.052218	-0.948709	0.674617
C54	C	0.105593	-0.900461	0.631345
C55	C	0.105593	-0.900456	0.537501
C56	C	0.105588	-0.900457	0.462703
H57	H	-0.149588	-1.014017	0.000131
O58	O	0.216540	-0.800184	0.372255
H59	H	0.253652	-0.766635	0.327622
H60	H	-0.673635	-1.034999	0.000114
H61	H	0.230722	-0.121377	0.000103
O62	O	-0.040970	-0.526965	0.000111
H63	H	-0.089971	-0.570988	0.000123
O64	O	-0.047554	-0.129240	0.000143
H65	H	-0.096559	-0.173259	0.000161
H66	H	-0.639232	-0.786891	0.000085
H67	H	-0.026132	-0.281807	0.000127
O68	O	0.252152	-0.273945	0.000099
H69	H	0.256177	-0.309717	-0.055945
O70	O	-0.038250	-0.691227	0.000093
H71	H	-0.088601	-0.653748	0.000093
O72	O	-0.005365	-1.000724	0.627944
H73	H	0.027581	-1.039501	0.588503
H74	H	0.237308	-0.519103	0.000078
H75	H	0.008740	-0.987960	0.203814
O76	O	0.216514	-0.800156	0.192352
H77	H	0.254573	-0.834302	0.152897
O78	O	-0.477574	-0.781183	0.000084
H79	H	-0.488724	-0.747175	-0.055953
O80	O	-0.311253	-1.019717	0.000131
H81	H	-0.275675	-1.070539	0.000154
H82	H	-0.525279	-1.046528	0.000120
H83	H	0.008758	-0.988001	0.796403
O84	O	-0.271835	-0.735466	0.000081
H85	H	-0.337158	-0.741999	0.000092
H86	H	0.008741	-0.987964	0.360821
H87	H	0.239682	-0.662460	0.000064
H88	H	0.202446	-0.812961	0.796393
H89	H	-0.115186	-0.765906	0.000080
H90	H	0.202437	-0.812945	0.639385
