data_functionalizedCrystal
_audit_creation_method	'MofGen! by Chris Wilmer'
_symmetry_space_group_name_H-M	'P1'
_symmetry_Int_Tables_number	1
_symmetry_cell_setting	triclinic
loop_
_symmetry_equiv_pos_as_xyz
  x,y,z
_cell_length_a	10.723023
_cell_length_b	12.811415
_cell_length_c	9.798715
_cell_angle_alpha	84.565994
_cell_angle_beta	89.996449
_cell_angle_gamma	84.254503
loop_
_atom_site_label
_atom_site_type_symbol
_atom_site_fract_x
_atom_site_fract_y
_atom_site_fract_z
O1	O	1.656454	0.147212	-0.131704
O2	O	1.293232	0.161304	-0.133451
O3	O	1.483981	0.001531	-0.113670
O4	O	1.465706	0.306985	-0.151486
O5	O	1.483966	0.001531	0.113313
O6	O	1.293218	0.161304	0.093531
O7	O	1.656440	0.147211	0.095278
Zn8	Zn	1.474827	0.154257	0.130443
Zn9	Zn	1.474845	0.154258	-0.168616
O10	O	1.465691	0.306984	0.075497
C11	C	1.246730	0.160279	-0.019834
C12	C	1.108191	0.157211	-0.019455
C13	C	1.046434	0.155843	-0.136870
C14	C	0.903246	0.152673	-0.136482
C15	C	1.482949	-0.037580	0.004661
C16	C	1.479882	-0.154120	0.019080
C17	C	1.474112	-0.373100	-0.201309
C18	C	1.471230	-0.482600	-0.187767
C19	C	1.471228	-0.482621	0.059704
C20	C	1.474110	-0.373121	0.046162
C21	C	1.475553	-0.318365	-0.084348
C22	C	1.478444	-0.208864	-0.097889
C23	C	1.478433	-0.208886	0.149581
C24	C	1.475551	-0.318386	0.163123
C25	C	1.702942	0.148237	-0.018342
C26	C	1.841481	0.151305	-0.018730
C27	C	1.466723	0.346096	-0.042837
C28	C	1.469790	0.462636	-0.057265
N29	N	1.474823	0.154257	0.334543
N30	N	1.474859	0.154251	-0.372715
C31	C	1.554915	0.086877	0.410662
C32	C	1.554935	0.086873	0.567825
H33	H	0.850137	0.151494	-0.237004
H34	H	1.406263	0.211937	0.385726
Cl35	Cl	0.923465	0.153112	0.136484
Cl36	Cl	1.128456	0.157661	-0.292522
Cl37	Cl	1.469376	-0.551472	0.223760
Cl38	Cl	1.660813	-0.002189	0.668834
H39	H	1.623466	0.029188	0.359482
H40	H	1.479624	-0.164283	-0.204157
H41	H	1.470051	-0.527160	-0.283009
Cl42	Cl	1.026167	0.155403	0.136196
H43	H	1.474371	-0.362983	0.269381
H44	H	1.475298	-0.328517	-0.307576
H45	H	1.479612	-0.164309	0.244819
H46	H	1.406290	0.211944	0.561866
