data_functionalizedCrystal
_audit_creation_method	'MofGen! by Chris Wilmer'
_symmetry_space_group_name_H-M	'P1'
_symmetry_Int_Tables_number	1
_symmetry_cell_setting	triclinic
loop_
_symmetry_equiv_pos_as_xyz
  x,y,z
_cell_length_a	15.944545
_cell_length_b	15.944545
_cell_length_c	15.021413
_cell_angle_alpha	90.001915
_cell_angle_beta	89.995468
_cell_angle_gamma	83.496173
loop_
_atom_site_label
_atom_site_type_symbol
_atom_site_fract_x
_atom_site_fract_y
_atom_site_fract_z
O1	O	1.114530	0.108296	-0.073979
O2	O	0.869979	0.121658	-0.073994
O3	O	0.998935	-0.007298	-0.073975
O4	O	0.985573	0.237252	-0.073997
O5	O	0.998915	-0.007280	0.074089
O6	O	0.869958	0.121676	0.074071
O7	O	1.114509	0.108314	0.074086
Zn8	Zn	0.992231	0.114998	0.097586
Zn9	Zn	0.992258	0.114974	-0.097495
O10	O	0.985553	0.237271	0.074067
C11	C	0.838675	0.121113	0.000037
C12	C	0.745428	0.119453	0.000031
C13	C	0.998371	-0.038583	0.000058
C14	C	0.996711	-0.131829	0.000060
C15	C	0.474798	0.034559	0.000048
C16	C	0.525368	0.075497	0.073050
C17	C	0.409785	0.113532	0.000047
C18	C	0.525369	0.075500	-0.072929
C19	C	0.574698	0.116437	0.000038
C20	C	0.459127	0.154449	0.073109
C21	C	0.459125	0.154441	-0.072936
C22	C	0.509662	0.195437	0.000084
C23	C	0.314783	0.111857	0.000053
C24	C	0.669698	0.118119	0.000038
C25	C	0.911817	-0.402460	0.000037
C26	C	0.952756	-0.351885	-0.072964
C27	C	0.990790	-0.467473	0.000035
C28	C	0.952757	-0.351894	0.073015
C29	C	0.993695	-0.302560	0.000049
C30	C	1.031708	-0.418126	-0.073027
C31	C	1.031698	-0.418138	0.073018
C32	C	1.072695	-0.367596	-0.000001
C33	C	0.989115	-0.562475	0.000026
C34	C	0.995377	-0.207560	0.000051
C35	C	1.145813	0.108859	0.000053
C36	C	1.239060	0.110519	0.000053
C37	C	0.986117	0.268556	0.000032
C38	C	0.987777	0.361802	0.000024
N39	N	0.992218	0.115014	0.230724
N40	N	0.992277	0.114951	-0.230632
C41	C	0.932580	0.174616	0.470399
C42	C	1.008480	0.190921	0.529736
C43	C	0.992240	0.114993	0.412331
C44	C	0.916360	0.098707	0.529735
C45	C	0.992254	0.114975	0.587755
C46	C	1.068178	0.131336	0.470362
C47	C	0.976008	0.039089	0.470356
C48	C	1.051964	0.055362	0.529666
C49	C	0.992230	0.115006	0.311274
C50	C	0.992272	0.114962	0.688810
H51	H	0.554291	0.042152	0.134774
H52	H	0.525153	0.263502	0.000120
H53	H	0.554296	0.042127	-0.134643
O54	O	0.424623	0.194148	0.146798
C55	C	0.336455	0.192092	0.145922
H56	H	0.320459	0.137358	0.102653
H57	H	0.313185	0.183287	0.216704
H58	H	0.304428	0.253967	0.117704
H59	H	0.882178	0.225077	0.444376
H60	H	1.140760	-0.352106	-0.000038
O61	O	1.071562	-0.452734	0.146558
C62	C	1.140762	-0.510421	0.120393
H63	H	1.161545	-0.494021	0.050515
H64	H	1.195250	-0.506777	0.168854
H65	H	1.121450	-0.577111	0.120651
H66	H	1.065045	-0.446940	-0.134812
H67	H	1.022221	0.255103	0.555818
H68	H	0.962244	-0.025073	0.444253
H69	H	0.919383	-0.322971	0.134731
O70	O	1.144679	0.147936	0.439238
C71	C	1.143733	0.147790	0.345382
H72	H	1.075865	0.160935	0.320837
H73	H	1.182098	0.198795	0.319481
H74	H	1.172473	0.083524	0.319933
O75	O	1.112285	-0.004815	0.560375
C76	C	1.154827	-0.046401	0.487748
H77	H	1.147972	-0.003719	0.426689
H78	H	1.224564	-0.061737	0.504722
H79	H	1.126350	-0.107374	0.473107
O80	O	0.456158	-0.046589	0.000294
C81	C	0.490076	-0.087924	0.077404
H82	H	0.499390	-0.039147	0.130932
H83	H	0.444809	-0.132927	0.102884
H84	H	0.553453	-0.125122	0.060751
O85	O	0.424648	0.194065	-0.146662
C86	C	0.458581	0.152199	-0.223481
H87	H	0.483160	0.084272	-0.205985
H88	H	0.407362	0.152445	-0.276458
H89	H	0.512657	0.186024	-0.250118
H90	H	0.843804	-0.418111	-0.000039
H91	H	0.919412	-0.322957	-0.134686
O92	O	0.839731	0.082375	0.560740
C93	C	0.777024	0.145414	0.530559
H94	H	0.800213	0.176189	0.468074
H95	H	0.716987	0.115791	0.514568
H96	H	0.763165	0.195235	0.584629
