data_functionalizedCrystal
_audit_creation_method	'MofGen! by Chris Wilmer'
_symmetry_space_group_name_H-M	'P1'
_symmetry_Int_Tables_number	1
_symmetry_cell_setting	triclinic
loop_
_symmetry_equiv_pos_as_xyz
  x,y,z
_cell_length_a	8.597340
_cell_length_b	15.944545
_cell_length_c	7.681481
_cell_angle_alpha	84.255493
_cell_angle_beta	103.474906
_cell_angle_gamma	84.420861
loop_
_atom_site_label
_atom_site_type_symbol
_atom_site_fract_x
_atom_site_fract_y
_atom_site_fract_z
O1	O	2.099853	0.116162	0.172147
O2	O	1.635793	0.129546	0.101736
O3	O	1.880503	0.000577	0.138887
O4	O	1.855143	0.245131	0.134997
O5	O	1.910622	-0.015333	0.436317
O6	O	1.665912	0.113636	0.399167
O7	O	2.129972	0.100252	0.469578
Zn8	Zn	1.902725	0.104418	0.481596
Zn9	Zn	1.863041	0.125380	0.089718
O10	O	1.885263	0.229221	0.432427
C11	C	1.591469	0.121040	0.241442
C12	C	1.414525	0.119388	0.214595
C13	C	1.894512	-0.038672	0.287444
C14	C	1.891362	-0.131919	0.286971
C15	C	1.730263	-0.402540	0.262492
C16	C	1.793080	-0.344115	0.127627
C17	C	1.880122	-0.467559	0.285216
C18	C	1.822815	-0.359828	0.420876
C19	C	1.885636	-0.302647	0.286080
C20	C	1.942886	-0.410355	0.150223
C21	C	1.972613	-0.426079	0.443601
C22	C	2.035536	-0.367684	0.308716
C23	C	1.876940	-0.562560	0.284716
C24	C	1.888828	-0.207648	0.286569
C25	C	2.174296	0.108758	0.329868
C26	C	2.351239	0.110411	0.356703
C27	C	1.871253	0.268470	0.283866
C28	C	1.874402	0.361717	0.284327
N29	N	1.929820	0.090112	0.749043
N30	N	1.835958	0.139680	-0.177727
H31	H	1.432427	0.103983	0.498914
O32	O	1.721446	0.199992	0.715383
C33	C	1.568195	0.183979	0.737047
H34	H	1.581980	0.144391	0.873047
H35	H	1.490482	0.246814	0.731377
H36	H	1.508200	0.147783	0.624238
O37	O	2.044051	0.029645	0.855900
C38	C	2.013301	-0.051063	0.806369
H39	H	1.938179	-0.043716	0.661081
H40	H	2.132386	-0.092151	0.818301
H41	H	1.944478	-0.082584	0.899669
H42	H	1.333329	0.125810	0.072375
H43	H	1.717235	-0.308544	-0.005958
O44	O	1.576230	-0.421151	0.238643
C45	C	1.482090	-0.378931	0.071847
H46	H	1.563749	-0.363855	-0.021641
H47	H	1.391513	-0.421455	0.007706
H48	H	1.414886	-0.317346	0.094598
H49	H	1.993559	-0.432526	0.035701
H50	H	2.164688	-0.352197	0.328231
O51	O	2.062810	-0.468629	0.602971
C52	C	1.964817	-0.516436	0.687057
H53	H	1.855670	-0.529180	0.580990
H54	H	2.036960	-0.579399	0.757615
H55	H	1.922584	-0.479390	0.790560
O56	O	1.762051	-0.333334	0.557255
C57	C	1.601164	-0.350684	0.532272
H58	H	1.580896	-0.404159	0.444641
H59	H	1.576407	-0.370707	0.668942
H60	H	1.516093	-0.291219	0.463036
