data_functionalizedCrystal
_audit_creation_method	'MofGen! by Chris Wilmer'
_symmetry_space_group_name_H-M	'P1'
_symmetry_Int_Tables_number	1
_symmetry_cell_setting	triclinic
loop_
_symmetry_equiv_pos_as_xyz
  x,y,z
_cell_length_a	11.026660
_cell_length_b	17.038272
_cell_length_c	9.482900
_cell_angle_alpha	100.012096
_cell_angle_beta	78.636107
_cell_angle_gamma	99.848195
loop_
_atom_site_label
_atom_site_type_symbol
_atom_site_fract_x
_atom_site_fract_y
_atom_site_fract_z
O1	O	1.662364	0.322495	-0.120915
O2	O	1.305154	0.284666	-0.120914
O3	O	1.481634	0.189467	-0.120903
O4	O	1.485884	0.417694	-0.120926
O5	O	1.445798	0.208904	0.120887
O6	O	1.269318	0.304103	0.120876
O7	O	1.626527	0.341931	0.120876
Cu8	Cu	1.444650	0.324792	0.142953
Cu9	Cu	1.487031	0.301806	-0.142992
O10	O	1.450047	0.437131	0.120864
C11	C	1.241305	0.287406	-0.000019
C12	C	1.104444	0.266602	-0.000018
C13	C	0.895116	0.302551	-0.000026
C14	C	1.036569	0.324054	-0.000025
C15	C	1.459854	0.169513	-0.000008
C16	C	1.448332	0.081096	-0.000008
C17	C	1.554116	0.045888	-0.000007
C18	C	1.543284	-0.037190	-0.000021
C19	C	1.426667	-0.085058	-0.000025
C20	C	1.320877	-0.049844	-0.000031
C21	C	1.331711	0.033232	-0.000028
C22	C	1.388394	-0.336210	-0.000045
C23	C	1.377568	-0.419291	-0.000044
C24	C	1.599977	-0.406632	-0.000037
C25	C	1.610799	-0.323554	-0.000024
C26	C	1.505010	-0.288349	-0.000038
C27	C	1.415593	-0.169976	-0.000035
C28	C	1.516087	-0.203432	-0.000039
C29	C	1.690377	0.339192	-0.000023
C30	C	1.827239	0.359995	-0.000033
C31	C	1.471828	0.457085	-0.000034
C32	C	1.483351	0.545500	-0.000043
N33	N	1.414850	0.340960	0.344072
N34	N	1.516840	0.285633	-0.344110
C35	C	1.478233	0.306569	0.416275
C36	C	1.453448	0.320029	0.583691
H37	H	1.057855	0.201490	-0.000108
C38	C	1.191397	0.417419	-0.124345
C39	C	1.099467	0.411945	-0.000045
H40	H	1.230220	0.471679	-0.124361
H41	H	1.252306	0.384174	-0.124324
H42	H	1.154003	0.400129	-0.208650
H43	H	1.136862	0.429230	0.084261
H44	H	1.038548	0.445201	-0.000053
C45	C	1.668734	0.203203	0.670823
C46	C	1.614871	0.232428	0.572047
H47	H	1.729247	0.170354	0.619059
H48	H	1.707840	0.247158	0.730171
H49	H	1.605643	0.172266	0.730213
H50	H	1.677961	0.263371	0.512664
H51	H	1.575765	0.188467	0.512674
C52	C	1.311248	0.397197	0.577543
C53	C	1.316824	0.394161	0.427926
H54	H	1.250734	0.430047	0.629305
H55	H	1.288515	0.344363	0.602414
H56	H	1.390712	0.419255	0.602381
H57	H	1.237362	0.372097	0.403086
H58	H	1.339551	0.447005	0.403045
H59	H	0.848504	0.237453	0.000002
H60	H	0.873848	0.425095	-0.000030
H61	H	1.282596	-0.458262	-0.000024
H62	H	1.550841	0.267158	0.354151
H63	H	1.380826	0.359435	0.645811
H64	H	1.649076	0.084857	0.000006
C65	C	1.764205	-0.016330	0.000021
C66	C	1.659563	-0.075890	-0.000003
H67	H	1.835990	-0.040222	0.000042
H68	H	1.776310	0.009034	-0.084290
H69	H	1.751286	0.022584	0.084345
H70	H	1.672478	-0.114802	-0.084333
H71	H	1.647456	-0.101267	0.084318
H72	H	1.705760	-0.284586	-0.000020
C73	C	1.682131	-0.528361	-0.000053
C74	C	1.716258	-0.445334	-0.000043
H75	H	1.753925	-0.552253	-0.000071
H76	H	1.622181	-0.537798	0.084261
H77	H	1.647158	-0.551342	-0.084375
H78	H	1.751222	-0.422352	0.084285
H79	H	1.776228	-0.435891	-0.084366
H80	H	1.302253	-0.307556	-0.000056
C81	C	1.205512	-0.182811	-0.000022
C82	C	1.192687	-0.102458	-0.000031
H83	H	1.126368	-0.215289	-0.000009
H84	H	1.261914	-0.200599	-0.084335
H85	H	1.236934	-0.187041	0.084301
H86	H	1.161275	-0.098227	-0.084360
H87	H	1.136266	-0.084665	0.084291
H88	H	1.245571	0.061897	-0.000029
H89	H	1.320642	-0.208959	-0.000035
H90	H	1.611041	-0.164458	-0.000067
