data_functionalizedCrystal
_audit_creation_method	'MofGen! by Chris Wilmer'
_symmetry_space_group_name_H-M	'P1'
_symmetry_Int_Tables_number	1
_symmetry_cell_setting	triclinic
loop_
_symmetry_equiv_pos_as_xyz
  x,y,z
_cell_length_a	10.540510
_cell_length_b	10.540539
_cell_length_c	9.016244
_cell_angle_alpha	90.000067
_cell_angle_beta	90.007604
_cell_angle_gamma	84.519401
loop_
_atom_site_label
_atom_site_type_symbol
_atom_site_fract_x
_atom_site_fract_y
_atom_site_fract_z
O1	O	1.685915	0.178715	0.123342
O2	O	1.316497	0.195611	0.123342
O3	O	1.509634	0.002455	0.123340
O4	O	1.492778	0.371870	0.123344
O5	O	1.509606	0.002460	-0.123341
O6	O	1.316469	0.195615	-0.123339
O7	O	1.685887	0.178719	-0.123339
Cu8	Cu	1.501175	0.187168	-0.145863
Cu9	Cu	1.501209	0.187162	0.145866
O10	O	1.492750	0.371875	-0.123337
C11	C	1.269179	0.194354	0.000002
C12	C	1.128229	0.190587	0.000002
C13	C	0.910774	0.324771	0.000570
C14	C	1.057370	0.328789	0.000005
C15	C	1.083453	0.119843	-0.140862
C16	C	0.936692	0.116804	-0.140971
C17	C	0.936919	0.113921	0.139551
C18	C	1.083260	0.120476	0.141404
C19	C	1.508356	-0.044845	0.000003
C20	C	1.504574	-0.185793	0.000011
C21	C	1.359655	-0.369204	0.000564
C22	C	1.363489	-0.222587	0.000009
C23	C	1.572454	-0.247455	-0.140856
C24	C	1.567639	-0.393999	-0.140975
C25	C	1.570541	-0.394523	0.139547
C26	C	1.571841	-0.247541	0.141410
C27	C	1.733204	0.179976	0.000005
C28	C	1.874154	0.183743	0.000014
C29	C	1.494028	0.419175	0.000004
C30	C	1.497810	0.560123	0.000006
N31	N	1.501161	0.187170	-0.351049
C32	C	1.397528	0.290149	-0.586080
C33	C	1.397757	0.290535	-0.414189
C34	C	1.633885	0.217290	-0.413387
C35	C	1.633320	0.218019	-0.585332
C36	C	1.473387	0.053735	-0.585594
C37	C	1.470341	0.054600	-0.413639
N38	N	1.501233	0.187150	0.351052
H39	H	1.130843	0.018102	-0.146102
Cl40	Cl	1.755947	0.104628	-0.350244
H41	H	1.415657	0.389517	-0.373042
Cl42	Cl	1.273619	-0.413350	0.156530
H43	H	1.114296	0.168977	-0.245692
Cl44	Cl	1.730654	-0.210158	0.154554
Cl45	Cl	1.727872	-0.467455	0.141015
H46	H	1.415195	0.388571	-0.629272
H47	H	1.304138	-0.399404	-0.099888
H48	H	1.525277	-0.204849	-0.245685
H49	H	1.299140	0.272414	-0.372045
Cl50	Cl	1.590123	-0.064627	-0.648359
Cl51	Cl	1.500048	-0.443213	0.304391
H52	H	1.517448	-0.422192	-0.246276
H53	H	1.298601	0.272307	-0.627474
H54	H	0.894383	0.157502	0.246319
H55	H	1.657674	0.315354	-0.625420
H56	H	1.669105	-0.441979	-0.147366
H57	H	1.712963	0.146021	-0.626915
Cl58	Cl	1.579244	-0.069424	-0.347313
H59	H	1.658784	0.313525	-0.370308
Cl60	Cl	1.127521	0.199903	0.302304
H61	H	1.676063	-0.225112	-0.146094
H62	H	1.132329	0.019578	0.149910
Cl63	Cl	0.846019	0.407905	0.156541
Cl64	Cl	1.327091	0.009496	-0.652621
Cl65	Cl	1.102700	0.414245	0.155905
H66	H	1.309678	-0.180823	-0.101138
Cl67	Cl	1.319593	0.019346	-0.350740
Cl68	Cl	0.843585	0.407430	-0.154509
Cl69	Cl	0.874576	0.191459	-0.303536
Cl70	Cl	1.101216	0.414751	-0.156164
Cl71	Cl	0.901181	-0.042777	-0.150940
Cl72	Cl	0.902723	-0.046280	0.141017
Cl73	Cl	1.281021	-0.156798	0.155911
H74	H	1.522173	-0.206679	0.245619
