data_functionalizedCrystal
_audit_creation_method	'MofGen! by Chris Wilmer'
_symmetry_space_group_name_H-M	'P1'
_symmetry_Int_Tables_number	1
_symmetry_cell_setting	triclinic
loop_
_symmetry_equiv_pos_as_xyz
  x,y,z
_cell_length_a	11.792254
_cell_length_b	10.868271
_cell_length_c	9.065215
_cell_angle_alpha	90.004170
_cell_angle_beta	95.393352
_cell_angle_gamma	89.994489
loop_
_atom_site_label
_atom_site_type_symbol
_atom_site_fract_x
_atom_site_fract_y
_atom_site_fract_z
O1	O	-1.508020	0.102354	0.202314
O2	O	-1.008020	0.602354	0.702314
O3	O	-1.177796	0.102349	0.223136
O4	O	-0.677796	0.602349	0.723136
O5	O	-1.349736	0.102346	-0.001981
O6	O	-0.849736	0.602346	0.498019
O7	O	-1.336081	0.102357	0.427431
O8	O	-0.836081	0.602357	0.927431
O9	O	-1.349721	-0.102298	-0.001990
O10	O	-0.849721	0.397702	0.498010
O11	O	-1.177782	-0.102296	0.223127
O12	O	-0.677782	0.397704	0.723127
O13	O	-1.508006	-0.102290	0.202305
O14	O	-1.008006	0.397710	0.702305
Zn15	Zn	-1.342892	-0.134785	0.212715
Zn16	Zn	-0.842892	0.365215	0.712715
Zn17	Zn	-1.342911	0.134843	0.212726
Zn18	Zn	-0.842911	0.634843	0.712726
O19	O	-1.336067	-0.102288	0.427422
O20	O	-0.836067	0.397712	0.927422
C21	C	-1.135491	0.000026	0.221820
C22	C	-0.635491	0.500026	0.721820
C23	C	-1.009456	0.000024	0.217894
C24	C	-0.509456	0.500024	0.717894
C25	C	-0.907102	0.000027	0.214704
C26	C	-0.407102	0.500027	0.714704
C27	C	-0.778694	0.000024	0.210715
C28	C	-0.278694	0.500024	0.710715
N29	N	-1.342887	-0.318799	0.212706
N30	N	-0.842887	0.181201	0.712706
C31	C	-1.342905	-0.569805	0.212723
C32	C	-0.842905	-0.069805	0.712723
C33	C	-1.342891	-0.430127	0.212718
C34	C	-0.842891	0.069873	0.712718
C35	C	-0.550311	0.000029	0.203621
C36	C	-0.050311	0.500029	0.703621
C37	C	-0.676346	0.000022	0.207547
C38	C	-0.176346	0.500022	0.707547
C39	C	-1.348417	0.000025	-0.056960
C40	C	-0.848417	0.500025	0.443040
C41	C	-1.344495	0.000029	-0.220767
C42	C	-0.844495	0.500029	0.279233
N43	N	-1.342924	0.318857	0.212724
N44	N	-0.842924	0.818857	0.712724
C45	C	-1.337385	0.000036	0.482401
C46	C	-0.837385	0.500036	0.982401
C47	C	-1.341307	0.000040	0.646208
C48	C	-0.841307	0.500040	1.146208
