data_functionalizedCrystal
_audit_creation_method	'MofGen! by Chris Wilmer'
_symmetry_space_group_name_H-M	'P1'
_symmetry_Int_Tables_number	1
_symmetry_cell_setting	triclinic
loop_
_symmetry_equiv_pos_as_xyz
  x,y,z
_cell_length_a	11.792254
_cell_length_b	23.532407
_cell_length_c	10.268362
_cell_angle_alpha	89.990068
_cell_angle_beta	89.995475
_cell_angle_gamma	83.523637
loop_
_atom_site_label
_atom_site_type_symbol
_atom_site_fract_x
_atom_site_fract_y
_atom_site_fract_z
O1	O	1.505062	0.078089	-0.108314
O2	O	1.838395	0.411423	0.225020
O3	O	2.171729	0.744756	0.558353
O4	O	1.174534	0.086126	-0.108318
O5	O	1.507867	0.419459	0.225015
O6	O	1.841200	0.752793	0.558349
O7	O	1.349765	-0.000765	-0.108292
O8	O	1.683098	0.332569	0.225042
O9	O	2.016432	0.665902	0.558375
O10	O	1.329831	0.164980	-0.108340
O11	O	1.663164	0.498313	0.224994
O12	O	1.996498	0.831647	0.558327
O13	O	1.349750	-0.000768	0.108309
O14	O	1.683083	0.332565	0.441642
O15	O	2.016417	0.665898	0.774975
O16	O	1.174519	0.086123	0.108283
O17	O	1.507852	0.419456	0.441616
O18	O	1.841185	0.752789	0.774949
O19	O	1.505047	0.078086	0.108287
O20	O	1.838380	0.411419	0.441620
O21	O	2.171714	0.744752	0.774954
Cu22	Cu	1.339781	0.082104	0.128062
Cu23	Cu	1.673115	0.415437	0.461396
Cu24	Cu	2.006448	0.748770	0.794729
Cu25	Cu	1.339799	0.082108	-0.128093
Cu26	Cu	1.673133	0.415441	0.205240
Cu27	Cu	2.006466	0.748775	0.538574
O28	O	1.329816	0.164976	0.108261
O29	O	1.663149	0.498310	0.441594
O30	O	1.996482	0.831643	0.774928
C31	C	1.132247	0.085618	-0.000018
C32	C	1.465581	0.418951	0.333315
C33	C	1.798914	0.752285	0.666649
C34	C	1.006270	0.084103	-0.000018
C35	C	1.339603	0.417436	0.333315
C36	C	1.672937	0.750769	0.666648
C37	C	0.903963	0.082872	-0.000024
C38	C	1.237296	0.416205	0.333310
C39	C	1.570629	0.749538	0.666643
C40	C	0.775612	0.081332	-0.000024
C41	C	1.108945	0.414665	0.333309
C42	C	1.442279	0.747999	0.666643
C43	C	1.349250	-0.021986	0.000012
C44	C	1.682583	0.311348	0.333345
C45	C	2.015917	0.644681	0.666679
C46	C	1.347724	-0.085212	0.000022
C47	C	1.681057	0.248122	0.333355
C48	C	2.014390	0.581455	0.666689
C49	C	1.441849	-0.483755	-0.000048
C50	C	1.775183	-0.150421	0.333285
C51	C	2.108516	0.182912	0.666618
C52	C	1.440432	-0.543163	-0.000058
C53	C	1.773765	-0.209830	0.333275
C54	C	2.107098	0.123503	0.666608
O55	O	1.527687	-0.579389	-0.000105
O56	O	1.861020	-0.246056	0.333228
O57	O	2.194354	0.087278	0.666562
N58	N	1.336257	-0.566409	-0.000059
N59	N	1.669590	-0.233076	0.333275
N60	N	2.002923	0.100257	0.666608
C61	C	1.233493	-0.530243	-0.000062
C62	C	1.566826	-0.196910	0.333271
C63	C	1.900159	0.136424	0.666604
O64	O	1.144754	-0.555471	-0.000065
O65	O	1.478087	-0.222137	0.333268
O66	O	1.811420	0.111196	0.666602
C67	C	1.234912	-0.470836	-0.000062
C68	C	1.568245	-0.137502	0.333272
C69	C	1.901578	0.195831	0.666605
C70	C	1.339093	-0.447593	-0.000048
C71	C	1.672427	-0.114260	0.333285
C72	C	2.005760	0.219073	0.666618
C73	C	1.546023	-0.460512	-0.000036
C74	C	1.879356	-0.127178	0.333297
C75	C	2.212689	0.206155	0.666631
C76	C	1.547440	-0.401107	-0.000024
C77	C	1.880773	-0.067774	0.333310
C78	C	2.214106	0.265560	0.666643
C79	C	1.444684	-0.364946	-0.000024
C80	C	1.778017	-0.031612	0.333310
C81	C	2.111351	0.301721	0.666643
C82	C	1.340511	-0.388189	-0.000036
C83	C	1.673844	-0.054855	0.333297
C84	C	2.007177	0.278478	0.666631
C85	C	1.132149	-0.434671	-0.000075
C86	C	1.465482	-0.101337	0.333258
C87	C	1.798816	0.231996	0.666592
C88	C	1.133577	-0.375260	-0.000075
C89	C	1.466910	-0.041926	0.333258
C90	C	1.800244	0.291407	0.666591
C91	C	1.237759	-0.352017	-0.000062
C92	C	1.571092	-0.018684	0.333272
C93	C	1.904425	0.314650	0.666605
C94	C	1.239172	-0.292622	-0.000023
C95	C	1.572505	0.040711	0.333310
C96	C	1.905839	0.374044	0.666643
N97	N	1.343347	-0.269376	-0.000023
N98	N	1.676680	0.063957	0.333310
N99	N	2.010014	0.397290	0.666644
C100	C	1.446103	-0.305538	-0.000023
C101	C	1.779436	0.027795	0.333310
C102	C	2.112770	0.361129	0.666644
C103	C	1.230521	-0.655003	-0.000066
C104	C	1.563854	-0.321670	0.333267
C105	C	1.897187	0.011663	0.666601
C106	C	1.229101	-0.714410	-0.000057
C107	C	1.562434	-0.381076	0.333276
C108	C	1.895767	-0.047743	0.666609
C109	C	1.436040	-0.727326	-0.000055
C110	C	1.769373	-0.393993	0.333278
C111	C	2.102707	-0.060659	0.666611
C112	C	1.437459	-0.667918	-0.000055
C113	C	1.770792	-0.334585	0.333278
C114	C	2.104126	-0.001252	0.666612
C115	C	1.334696	-0.631757	-0.000065
C116	C	1.668029	-0.298424	0.333268
C117	C	2.001362	0.034909	0.666601
C118	C	1.449071	-0.180784	0.000004
C119	C	1.782405	0.152550	0.333337
C120	C	2.115738	0.485883	0.666671
C121	C	1.450480	-0.121373	0.000022
C122	C	1.783813	0.211960	0.333355
C123	C	2.117146	0.545293	0.666688
C124	C	1.243541	-0.108462	0.000013
C125	C	1.576874	0.224871	0.333346
C126	C	1.910208	0.558204	0.666680
C127	C	1.242132	-0.167867	0.000002
C128	C	1.575465	0.165466	0.333336
C129	C	1.908799	0.498799	0.666669
C130	C	1.344907	-0.204027	-0.000007
C131	C	1.678240	0.129306	0.333327
C132	C	2.011573	0.462639	0.666660
O133	O	1.151962	-0.256362	0.000018
O134	O	1.485296	0.076971	0.333352
O135	O	1.818629	0.410305	0.666685
O136	O	1.534827	-0.280302	-0.000038
O137	O	1.868161	0.053031	0.333296
O138	O	2.201494	0.386364	0.666629
C139	C	1.547333	0.078594	-0.000016
C140	C	1.880667	0.411927	0.333317
C141	C	2.214000	0.745260	0.666651
C142	C	1.673311	0.080109	-0.000024
C143	C	2.006644	0.413442	0.333309
C144	C	2.339977	0.746776	0.666643
C145	C	1.330331	0.186197	-0.000046
C146	C	1.663664	0.519531	0.333288
C147	C	1.996998	0.852864	0.666621
C148	C	1.331857	0.249423	-0.000064
C149	C	1.665190	0.582757	0.333269
C150	C	1.998524	0.916090	0.666602
N151	N	1.339777	0.082100	0.308228
N152	N	1.673111	0.415434	0.641561
N153	N	2.006444	0.748767	0.974895
N154	N	1.339813	0.082107	-0.308259
N155	N	1.673146	0.415440	0.025074
N156	N	2.006479	0.748774	0.358408
C157	C	1.339794	0.082107	0.573899
C158	C	1.673127	0.415440	0.907232
C159	C	2.006460	0.748774	1.240565
C160	C	1.339781	0.082105	0.426061
C161	C	1.673114	0.415438	0.759394
C162	C	2.006447	0.748772	1.092727
H163	H	1.535320	-0.102453	0.000036
H164	H	1.868654	0.230880	0.333369
H165	H	2.201987	0.564214	0.666703
F166	F	1.558456	-0.219260	-0.000006
F167	F	1.891789	0.114074	0.333327
F168	F	2.225122	0.447407	0.666661
F169	F	1.021263	-0.459394	-0.000095
F170	F	1.354596	-0.126060	0.333238
F171	F	1.687930	0.207273	0.666572
F172	F	1.545403	-0.765822	-0.000062
F173	F	1.878736	-0.432489	0.333271
F174	F	2.212069	-0.099156	0.666604
H175	H	1.632275	-0.382189	-0.000018
H176	H	1.965608	-0.048856	0.333315
H177	H	2.298942	0.284478	0.666649
F178	F	1.121138	-0.616522	-0.000065
F179	F	1.454472	-0.283189	0.333268
F180	F	1.787805	0.050144	0.666601
F181	F	1.655400	-0.498990	-0.000037
F182	F	1.988733	-0.165656	0.333296
F183	F	2.322066	0.167677	0.666629
H184	H	1.522293	-0.648999	-0.000045
H185	H	1.855626	-0.315666	0.333289
H186	H	2.188959	0.017668	0.666622
H187	H	1.049893	-0.345819	-0.000086
H188	H	1.383226	-0.012486	0.333247
H189	H	1.716559	0.320847	0.666581
H190	H	1.144266	-0.733328	-0.000046
H191	H	1.477599	-0.399995	0.333288
H192	H	1.810932	-0.066661	0.666621
F193	F	1.131251	-0.192605	0.000011
F194	F	1.464585	0.140729	0.333344
F195	F	1.797918	0.474062	0.666678
F196	F	1.134187	-0.069966	0.000014
F197	F	1.467520	0.263367	0.333347
F198	F	1.800853	0.596700	0.666680
