data_functionalizedCrystal
_audit_creation_method	'MofGen! by Chris Wilmer'
_symmetry_space_group_name_H-M	'P1'
_symmetry_Int_Tables_number	1
_symmetry_cell_setting	triclinic
loop_
_symmetry_equiv_pos_as_xyz
  x,y,z
_cell_length_a	15.298708
_cell_length_b	13.897447
_cell_length_c	15.296720
_cell_angle_alpha	99.647031
_cell_angle_beta	107.326883
_cell_angle_gamma	99.713397
loop_
_atom_site_label
_atom_site_type_symbol
_atom_site_fract_x
_atom_site_fract_y
_atom_site_fract_z
Zn1	Zn	1.330627	-0.189305	-0.280176
Zn2	Zn	1.357451	-0.316884	-0.124695
Zn3	Zn	1.202043	-0.189368	-0.151557
Zn4	Zn	1.175098	-0.384340	-0.307006
O5	O	1.266305	-0.269974	-0.215859
O6	O	1.464314	-0.177971	-0.237081
O7	O	1.359339	-0.271764	0.001866
O8	O	1.219150	-0.054371	-0.168632
O9	O	1.484022	-0.271703	-0.122850
O10	O	1.313621	-0.054325	-0.263127
O11	O	1.245161	-0.178079	-0.017869
O12	O	1.068340	-0.243489	-0.194647
O13	O	1.173227	-0.386673	-0.433572
O14	O	1.048544	-0.386734	-0.308855
O15	O	1.287493	-0.243381	-0.413860
O16	O	1.333211	-0.460820	-0.148866
O17	O	1.199237	-0.510380	-0.282809
C18	C	1.024701	-0.322439	-0.257578
C19	C	0.921338	-0.344912	-0.275448
C20	C	0.671034	-0.109650	-0.088368
C21	C	0.768148	-0.088531	-0.071580
C22	C	0.806450	-0.152624	-0.122545
C23	C	0.747629	-0.237841	-0.190302
C24	C	0.650504	-0.258958	-0.207098
C25	C	0.785921	-0.301932	-0.241275
C26	C	0.727099	-0.387148	-0.309032
C27	C	0.629984	-0.408262	-0.325824
C28	C	0.591681	-0.344169	-0.274859
C29	C	0.883046	-0.280815	-0.224479
C30	C	0.862516	-0.430122	-0.343209
C31	C	0.765401	-0.451242	-0.359997
C32	C	1.266233	-0.520600	-0.215850
C33	C	1.266282	-0.627808	-0.215863
C34	C	1.266323	-0.714872	-0.215876
C35	C	1.266384	-0.824096	-0.215889
C36	C	1.508852	-0.217305	-0.173977
C37	C	1.612211	-0.194861	-0.156129
C38	C	1.224362	-0.322545	-0.458399
C39	C	1.206489	-0.344947	-0.561756
C40	C	1.266399	-0.018368	-0.215883
C41	C	1.266439	0.088851	-0.215893
C42	C	1.394084	-0.109684	-0.812047
C43	C	1.410883	-0.088637	-0.714938
C44	C	1.359786	-0.152712	-0.676638
C45	C	1.291887	-0.237840	-0.735456
C46	C	1.275092	-0.258894	-0.832574
C47	C	1.240793	-0.301921	-0.697164
C48	C	1.172895	-0.387049	-0.755983
C49	C	1.156102	-0.408099	-0.853092
C50	C	1.207199	-0.344023	-0.891392
C51	C	1.257589	-0.280867	-0.600046
C52	C	1.138596	-0.430077	-0.620573
C53	C	1.121797	-0.451124	-0.717683
C54	C	1.308138	-0.217527	0.025748
C55	C	1.326191	-0.194814	0.129135
H56	H	0.816035	-0.019150	-0.016409
H57	H	0.930929	-0.211428	-0.169313
H58	H	1.466168	-0.019327	-0.667054
H59	H	0.893700	-0.482310	-0.384712
O60	O	1.088900	-0.492455	-0.583529
C61	C	1.025361	-0.572096	-0.656267
H62	H	1.051475	-0.582174	-0.718917
H63	H	1.020268	-0.644168	-0.629909
H64	H	0.952963	-0.554347	-0.678794
H65	H	0.717495	-0.520626	-0.415167
O66	O	0.633676	-0.047518	-0.038933
C67	C	0.535339	-0.084411	-0.068314
H68	H	0.516826	-0.168364	-0.100923
H69	H	0.510442	-0.070674	-0.005068
H70	H	0.499230	-0.044031	-0.122707
O71	O	0.572786	-0.490930	-0.391753
C72	C	0.506217	-0.461362	-0.461605
H73	H	0.534483	-0.380307	-0.462415
H74	H	0.492763	-0.512103	-0.533295
H75	H	0.437575	-0.467769	-0.445590
H76	H	1.312872	-0.211555	-0.552165
O77	O	0.497347	-0.364819	-0.291135
C78	C	0.468988	-0.459097	-0.272772
H79	H	0.531929	-0.477953	-0.222456
H80	H	0.411672	-0.456592	-0.239487
H81	H	0.440432	-0.518979	-0.341520
H82	H	1.373468	-0.135570	-0.597566
O83	O	1.443827	-0.047369	-0.849094
C84	C	1.507336	0.032299	-0.776363
H85	H	1.522514	0.008501	-0.706574
H86	H	1.575753	0.052410	-0.791776
H87	H	1.475098	0.100407	-0.771929
O88	O	0.900812	-0.131992	-0.106088
C89	C	0.944514	-0.043023	-0.035371
H90	H	0.897924	-0.029821	0.009251
H91	H	1.015582	-0.050290	0.011201
H92	H	0.955377	0.022982	-0.069380
H93	H	1.193525	-0.361156	-0.970466
H94	H	1.100822	-0.477422	-0.900979
H95	H	1.066513	-0.520436	-0.765587
