data_functionalizedCrystal
_audit_creation_method	'MofGen! by Chris Wilmer'
_symmetry_space_group_name_H-M	'P1'
_symmetry_Int_Tables_number	1
_symmetry_cell_setting	triclinic
loop_
_symmetry_equiv_pos_as_xyz
  x,y,z
_cell_length_a	12.645331
_cell_length_b	21.295417
_cell_length_c	12.645324
_cell_angle_alpha	89.959220
_cell_angle_beta	89.978020
_cell_angle_gamma	90.029485
loop_
_atom_site_label
_atom_site_type_symbol
_atom_site_fract_x
_atom_site_fract_y
_atom_site_fract_z
Zn1	Zn	1.620630	-0.250579	-0.599379
Zn2	Zn	1.953963	0.082754	-0.266046
Zn3	Zn	2.287296	0.416087	0.067288
Zn4	Zn	1.620474	-0.355866	-0.422091
Zn5	Zn	1.953807	-0.022533	-0.088758
Zn6	Zn	2.287140	0.310800	0.244576
Zn7	Zn	1.443346	-0.250613	-0.422123
Zn8	Zn	1.776680	0.082720	-0.088790
Zn9	Zn	2.110013	0.416054	0.244543
Zn10	Zn	1.443286	-0.355813	-0.599306
Zn11	Zn	1.776620	-0.022479	-0.265973
Zn12	Zn	2.109953	0.310854	0.067360
O13	O	1.531934	-0.303218	-0.510725
O14	O	1.865267	0.030116	-0.177392
O15	O	2.198601	0.363449	0.155942
O16	O	1.768956	-0.264554	-0.575878
O17	O	2.102289	0.068779	-0.242545
O18	O	2.435623	0.402113	0.090788
O19	O	1.596937	-0.341941	-0.273748
O20	O	1.930271	-0.008607	0.059586
O21	O	2.263604	0.324726	0.392919
O22	O	1.466954	-0.162519	-0.445681
O23	O	1.800287	0.170814	-0.112347
O24	O	2.133620	0.504148	0.220986
O25	O	1.768842	-0.341908	-0.445625
O26	O	2.102175	-0.008575	-0.112292
O27	O	2.435508	0.324759	0.221041
O28	O	1.597203	-0.162494	-0.575910
O29	O	1.930536	0.170839	-0.242576
O30	O	2.263870	0.504172	0.090757
O31	O	1.466803	-0.264612	-0.273772
O32	O	1.800136	0.068722	0.059562
O33	O	2.133469	0.402055	0.392895
O34	O	1.294991	-0.264560	-0.445610
O35	O	1.628324	0.068774	-0.112277
O36	O	1.961658	0.402107	0.221056
O37	O	1.466851	-0.341817	-0.747663
O38	O	1.800185	-0.008483	-0.414330
O39	O	2.133518	0.324850	-0.080997
O40	O	1.294947	-0.341849	-0.575786
O41	O	1.628280	-0.008516	-0.242452
O42	O	1.961614	0.324817	0.090881
O43	O	1.597145	-0.264502	-0.747717
O44	O	1.930478	0.068831	-0.414383
O45	O	2.263811	0.402165	-0.081050
O46	O	1.596879	-0.443949	-0.445555
O47	O	1.930212	-0.110615	-0.112221
O48	O	2.263546	0.222718	0.221112
O49	O	1.466700	-0.443909	-0.575754
O50	O	1.800034	-0.110576	-0.242421
O51	O	2.133367	0.222758	0.090912
C52	C	1.256504	-0.303203	-0.510694
C53	C	1.589838	0.030131	-0.177361
C54	C	1.923171	0.363464	0.155972
C55	C	1.138674	-0.303212	-0.510706
C56	C	1.472008	0.030122	-0.177373
C57	C	1.805341	0.363455	0.155960
C58	C	0.971103	-0.254365	-0.429265
C59	C	1.304436	0.078968	-0.095931
C60	C	1.637769	0.412302	0.237402
C61	C	1.093662	-0.254491	-0.428906
C62	C	1.426996	0.078842	-0.095573
C63	C	1.760329	0.412175	0.237761
C64	C	1.094129	-0.369526	-0.480174
C65	C	1.427463	-0.036193	-0.146840
C66	C	1.760796	0.297140	0.186493
C67	C	0.971531	-0.369260	-0.479618
C68	C	1.304864	-0.035926	-0.146285
C69	C	1.638198	0.297407	0.187049
C70	C	0.971530	-0.286375	-0.622995
C71	C	1.304863	0.046959	-0.289661
C72	C	1.638196	0.380292	0.043672
C73	C	1.094136	-0.284893	-0.622372
C74	C	1.427470	0.048440	-0.289038
C75	C	1.760803	0.381773	0.044295
C76	C	1.531795	-0.466769	-0.510666
C77	C	1.865128	-0.133436	-0.177333
C78	C	2.198462	0.199897	0.156000
C79	C	1.531833	-0.536737	-0.510677
C80	C	1.865166	-0.203404	-0.177343
C81	C	2.198499	0.129929	0.155990
C82	C	1.599677	-0.569604	-0.442951
C83	C	1.933010	-0.236270	-0.109618
C84	C	2.266344	0.097063	0.223715
C85	C	1.599727	-0.635346	-0.442975
C86	C	1.933060	-0.302013	-0.109642
C87	C	2.266393	0.031320	0.223692
C88	C	1.531913	-0.668220	-0.510713
C89	C	1.865246	-0.334887	-0.177380
C90	C	2.198580	-0.001553	0.155954
C91	C	1.464064	-0.635346	-0.578452
C92	C	1.797397	-0.302012	-0.245118
C93	C	2.130731	0.031321	0.088215
C94	C	1.464024	-0.569605	-0.578433
C95	C	1.797357	-0.236271	-0.245100
C96	C	2.130690	0.097062	0.088233
N97	N	1.439177	-0.771484	-0.518784
N98	N	1.772510	-0.438151	-0.185451
N99	N	2.105843	-0.104817	0.147882
N100	N	1.439218	-0.833935	-0.518796
N101	N	1.772551	-0.500602	-0.185462
N102	N	2.105885	-0.167269	0.147871
C103	C	1.532032	-0.866295	-0.510774
C104	C	1.865365	-0.532961	-0.177441
C105	C	2.198698	-0.199628	0.155893
N106	N	1.624805	-0.833843	-0.502720
N107	N	1.958138	-0.500510	-0.169386
N108	N	2.291471	-0.167177	0.163947
N109	N	1.624762	-0.771386	-0.502703
N110	N	1.958096	-0.438053	-0.169370
N111	N	2.291429	-0.104719	0.163964
C112	C	1.531950	-0.739505	-0.510741
C113	C	1.865283	-0.406172	-0.177408
C114	C	2.198616	-0.072839	0.155926
C115	C	1.599936	-0.970446	-0.443071
C116	C	1.933269	-0.637113	-0.109737
C117	C	2.266602	-0.303780	0.223596
C118	C	1.599987	-1.036190	-0.443102
C119	C	1.933320	-0.702857	-0.109769
C120	C	2.266654	-0.369523	0.223565
C121	C	1.464315	-1.036188	-0.578573
C122	C	1.797648	-0.702855	-0.245240
C123	C	2.130982	-0.369522	0.088094
C124	C	1.464273	-0.970446	-0.578547
C125	C	1.797606	-0.637113	-0.245214
C126	C	2.130940	-0.303779	0.088119
C127	C	1.532082	-0.937579	-0.510791
C128	C	1.865415	-0.604246	-0.177457
C129	C	2.198749	-0.270912	0.155876
C130	C	1.808439	-0.303233	-0.510756
C131	C	2.141773	0.030100	-0.177423
C132	C	2.475106	0.363433	0.155910
C133	C	1.926269	-0.303240	-0.510770
C134	C	2.259603	0.030094	-0.177436
C135	C	2.592936	0.363427	0.155897
C136	C	1.532009	-0.303150	-0.787230
C137	C	1.865342	0.030184	-0.453897
C138	C	2.198675	0.363517	-0.120564
C139	C	1.532041	-0.303121	-0.905061
C140	C	1.865374	0.030213	-0.571727
C141	C	2.198707	0.363546	-0.238394
C142	C	1.532102	-0.139027	-0.510807
C143	C	1.865436	0.194306	-0.177474
C144	C	2.198769	0.527639	0.155860
C145	C	1.532174	-0.069059	-0.510842
C146	C	1.865507	0.264274	-0.177509
C147	C	2.198841	0.597607	0.155825
C148	C	1.614026	-0.254472	-0.949976
C149	C	1.947360	0.078862	-0.616643
C150	C	2.280693	0.412195	-0.283309
C151	C	1.614378	-0.254599	-1.072536
C152	C	1.947712	0.078735	-0.739203
C153	C	2.281045	0.412068	-0.405869
C154	C	1.561971	-0.369490	-1.072924
C155	C	1.895305	-0.036157	-0.739590
C156	C	2.228638	0.297176	-0.406257
C157	C	1.562536	-0.369225	-0.950326
C158	C	1.895869	-0.035892	-0.616993
C159	C	2.229202	0.297441	-0.283659
C160	C	1.419982	-0.285945	-0.950236
C161	C	1.753315	0.047388	-0.616902
C162	C	2.086649	0.380721	-0.283569
C163	C	1.420614	-0.284465	-1.072843
C164	C	1.753947	0.048868	-0.739510
C165	C	2.087281	0.382201	-0.406176
C166	C	1.531921	-0.303240	-0.235295
C167	C	1.865254	0.030093	0.098038
C168	C	2.198587	0.363426	0.431371
C169	C	1.532094	-0.303092	-0.117466
C170	C	1.865427	0.030241	0.215868
C171	C	2.198761	0.363575	0.549201
H172	H	1.123284	-0.406915	-0.537674
H173	H	1.456617	-0.073582	-0.204341
H174	H	1.789951	0.259751	0.128993
H175	H	1.644438	-0.383752	-0.921738
H176	H	1.977771	-0.050419	-0.588404
H177	H	2.311104	0.282914	-0.255071
H178	H	1.122937	-0.265639	-0.345743
H179	H	1.456270	0.067694	-0.012409
H180	H	1.789604	0.401028	0.320924
H181	H	0.940651	-0.238862	-0.650759
H182	H	1.273984	0.094472	-0.317426
H183	H	1.607317	0.427805	0.015907
H184	H	1.392680	-0.238363	-0.919331
H185	H	1.726013	0.094971	-0.585998
H186	H	2.059347	0.428304	-0.252664
H187	H	1.697428	-0.265977	-1.101875
H188	H	2.030761	0.067357	-0.768541
H189	H	2.364095	0.400690	-0.435208
H190	H	1.655241	-1.062949	-0.387954
H191	H	1.988574	-0.729615	-0.054621
H192	H	2.321907	-0.396282	0.278713
O193	O	1.486866	-0.418896	-0.910947
O194	O	1.820200	-0.085563	-0.577613
O195	O	2.153533	0.247771	-0.244280
H196	H	1.450038	-0.443002	-0.979472
H197	H	1.783371	-0.109669	-0.646139
H198	H	2.116705	0.223664	-0.312806
H199	H	1.358903	-0.321376	-0.921183
H200	H	1.692237	0.011957	-0.587850
H201	H	2.025570	0.345291	-0.254516
H202	H	1.409104	-1.062954	-0.633731
H203	H	1.742438	-0.729620	-0.300398
H204	H	2.075771	-0.396287	0.032935
H205	H	1.654893	-0.542845	-0.387782
H206	H	1.988227	-0.209512	-0.054449
H207	H	2.321560	0.123821	0.278884
O208	O	1.133559	-0.189349	-0.454226
O209	O	1.466892	0.143985	-0.120892
O210	O	1.800226	0.477318	0.212441
H211	H	1.104495	-0.175029	-0.533462
H212	H	1.437829	0.158305	-0.200129
H213	H	1.771162	0.491638	0.133204
H214	H	1.696589	-0.265720	-0.919178
H215	H	2.029923	0.067614	-0.585845
H216	H	2.363256	0.400947	-0.252512
O217	O	1.390908	-0.670797	-0.651503
O218	O	1.724241	-0.337463	-0.318170
O219	O	2.057574	-0.004130	0.015164
H220	H	1.402321	-0.722033	-0.640127
H221	H	1.735655	-0.388700	-0.306794
H222	H	2.068988	-0.055366	0.026540
H223	H	0.941657	-0.205042	-0.448199
H224	H	1.274990	0.128291	-0.114866
H225	H	1.608324	0.461624	0.218468
H226	H	1.654977	-0.662111	-0.387825
H227	H	1.988311	-0.328778	-0.054492
H228	H	2.321644	0.004556	0.278841
H229	H	1.408776	-0.542844	-0.633585
H230	H	1.742109	-0.209511	-0.300251
H231	H	2.075442	0.123822	0.033082
O232	O	1.132710	-0.220254	-0.652884
O233	O	1.466043	0.113080	-0.319551
O234	O	1.799376	0.446413	0.013783
H235	H	1.183396	-0.201248	-0.588797
H236	H	1.516730	0.132085	-0.255464
H237	H	1.850063	0.465419	0.077870
O238	O	0.933567	-0.388193	-0.370943
O239	O	1.266900	-0.054860	-0.037610
O240	O	1.600233	0.278473	0.295724
H241	H	1.002773	-0.397451	-0.319278
H242	H	1.336106	-0.064118	0.014055
H243	H	1.669439	0.269216	0.347388
O244	O	1.485328	-0.418813	-1.111463
O245	O	1.818661	-0.085479	-0.778130
O246	O	2.151994	0.247854	-0.444797
H247	H	1.424986	-0.396471	-1.162901
H248	H	1.758320	-0.063137	-0.829567
H249	H	2.091653	0.270196	-0.496234
H250	H	1.655153	-0.943685	-0.387902
H251	H	1.988487	-0.610352	-0.054569
H252	H	2.321820	-0.277018	0.278764
H253	H	1.409023	-0.943684	-0.633691
H254	H	1.742357	-0.610351	-0.300358
H255	H	2.075690	-0.277018	0.032975
H256	H	1.595712	-0.205373	-1.102656
H257	H	1.929046	0.127960	-0.769322
H258	H	2.262379	0.461294	-0.435989
H259	H	1.595581	-0.205097	-0.920533
H260	H	1.928914	0.128236	-0.587200
H261	H	2.262247	0.461570	-0.253867
H262	H	0.940252	-0.265389	-0.346591
H263	H	1.273585	0.067944	-0.013258
H264	H	1.606918	0.401278	0.320076
H265	H	0.941872	-0.406908	-0.536393
H266	H	1.275205	-0.073575	-0.203060
H267	H	1.608538	0.259758	0.130274
O268	O	1.390753	-0.219740	-1.111412
O269	O	1.724086	0.113593	-0.778078
O270	O	2.057419	0.446927	-0.444745
H271	H	1.311878	-0.206922	-1.079529
H272	H	1.645212	0.126412	-0.746196
H273	H	1.978545	0.459745	-0.412862
O274	O	1.669284	-0.389054	-1.113613
O275	O	2.002617	-0.055721	-0.780279
O276	O	2.335950	0.277613	-0.446946
H277	H	1.661510	-0.433290	-1.159328
H278	H	1.994844	-0.099957	-0.825995
H279	H	2.328177	0.233377	-0.492662
O280	O	1.335471	-0.327986	-1.113301
O281	O	1.668805	0.005348	-0.779967
O282	O	2.002138	0.338681	-0.446634
H283	H	1.332693	-0.325539	-1.200937
H284	H	1.666027	0.007795	-0.867603
H285	H	1.999360	0.341128	-0.534270
H286	H	1.124780	-0.384073	-0.399012
H287	H	1.458113	-0.050740	-0.065678
H288	H	1.791447	0.282593	0.267655
H289	H	1.124781	-0.317894	-0.686348
H290	H	1.458114	0.015439	-0.353015
H291	H	1.791447	0.348773	-0.019681
O292	O	0.933121	-0.333520	-0.703448
O293	O	1.266455	-0.000187	-0.370114
O294	O	1.599788	0.333147	-0.036781
H295	H	0.882045	-0.368795	-0.663766
H296	H	1.215378	-0.035462	-0.330432
H297	H	1.548711	0.297872	0.002901
