data_functionalizedCrystal
_audit_creation_method	'MofGen! by Chris Wilmer'
_symmetry_space_group_name_H-M	'P1'
_symmetry_Int_Tables_number	1
_symmetry_cell_setting	triclinic
loop_
_symmetry_equiv_pos_as_xyz
  x,y,z
_cell_length_a	10.908878
_cell_length_b	15.021413
_cell_length_c	11.026607
_cell_angle_alpha	89.993144
_cell_angle_beta	84.335404
_cell_angle_gamma	90.005349
loop_
_atom_site_label
_atom_site_type_symbol
_atom_site_fract_x
_atom_site_fract_y
_atom_site_fract_z
O1	O	1.662462	0.074017	-0.179092
O2	O	1.309528	0.074021	-0.088552
O3	O	1.456744	0.074017	-0.304572
O4	O	1.515246	0.074022	0.036928
O5	O	1.456720	-0.074048	-0.304541
O6	O	1.309503	-0.074043	-0.088521
O7	O	1.662438	-0.074047	-0.179061
Zn8	Zn	1.485967	-0.097553	-0.133786
Zn9	Zn	1.485999	0.097528	-0.133827
O10	O	1.515222	-0.074042	0.036959
C11	C	1.263630	-0.000010	-0.080075
C12	C	1.126902	-0.000009	-0.054876
N13	N	1.485954	-0.230691	-0.133760
C14	C	1.056640	-0.000010	-0.146821
C15	C	0.915324	-0.000008	-0.120779
C16	C	1.417859	-0.470372	-0.033908
C17	C	1.533923	-0.529707	-0.033778
C18	C	1.485979	-0.412298	-0.133795
C19	C	1.369951	-0.529704	-0.133906
C20	C	1.485993	-0.587722	-0.133825
C21	C	1.602111	-0.470327	-0.133624
C22	C	1.438055	-0.470318	-0.233783
C23	C	1.554189	-0.529627	-0.233713
C24	C	1.485969	-0.311240	-0.133775
C25	C	1.486015	-0.688777	-0.133849
C26	C	1.708336	-0.000013	-0.187538
C27	C	1.845063	-0.000009	-0.212737
C28	C	1.445939	-0.000014	-0.347589
C29	C	1.413766	-0.000011	-0.475811
N30	N	1.486019	0.230665	-0.133864
C31	C	1.502601	-0.000011	-0.567544
C32	C	1.469351	-0.000007	-0.700068
C33	C	1.526026	-0.000009	0.079976
C34	C	1.558199	-0.000007	0.208198
H35	H	1.101105	-0.000007	-0.244817
F36	F	0.857217	0.000001	0.007319
H37	H	1.603272	-0.000017	-0.547968
F38	F	1.282179	-0.000001	-0.501390
H39	H	0.889522	-0.000005	-0.310740
H40	H	1.082437	-0.000003	0.043120
F41	F	1.342677	-0.436360	0.076552
H42	H	1.368674	0.000000	-0.719637
F43	F	1.586922	-0.563804	0.076722
F44	F	1.730433	-0.436383	-0.133386
H45	H	1.611881	-0.555481	-0.318217
H46	H	1.397481	-0.444212	-0.318289
F47	F	1.241690	-0.563797	-0.134018
F48	F	1.689794	-0.000004	-0.766233
