data_functionalizedCrystal
_audit_creation_method	'MofGen! by Chris Wilmer'
_symmetry_space_group_name_H-M	'P1'
_symmetry_Int_Tables_number	1
_symmetry_cell_setting	triclinic
loop_
_symmetry_equiv_pos_as_xyz
  x,y,z
_cell_length_a	15.995343
_cell_length_b	15.995343
_cell_length_c	10.868271
_cell_angle_alpha	90.000003
_cell_angle_beta	89.998578
_cell_angle_gamma	96.510816
loop_
_atom_site_label
_atom_site_type_symbol
_atom_site_fract_x
_atom_site_fract_y
_atom_site_fract_z
O1	O	-0.107896	1.110986	-0.102181
O2	O	-0.121231	0.867210	-0.102208
O3	O	0.007325	0.995765	-0.102206
O4	O	-0.236452	0.982431	-0.102183
O5	O	0.007330	0.995755	0.102439
O6	O	-0.121226	0.867199	0.102437
O7	O	-0.107891	1.110976	0.102464
Zn8	Zn	-0.114558	0.989086	0.134942
Zn9	Zn	-0.114564	0.989100	-0.134686
O10	O	-0.236447	0.982420	0.102462
C11	C	-0.120678	0.836010	0.000111
C12	C	-0.119029	0.743059	0.000099
C13	C	-0.116035	0.572873	0.000115
C14	C	-0.023238	0.549530	0.000106
C15	C	-0.021492	0.452852	0.000578
C16	C	-0.113087	0.405313	0.000130
C17	C	-0.159744	0.434397	0.116764
C18	C	-0.160845	0.531190	0.116855
C19	C	-0.162209	0.531112	-0.115872
C20	C	-0.158783	0.434617	-0.117398
C21	C	-0.111425	0.310615	0.000142
C22	C	-0.117700	0.667570	0.000111
C23	C	-0.267644	0.982976	0.000143
C24	C	-0.360595	0.984625	0.000152
C25	C	-0.530781	0.987619	0.000132
C26	C	-0.554124	1.080416	0.000142
C27	C	-0.650802	1.082162	-0.000332
C28	C	-0.698341	0.990567	0.000113
C29	C	-0.669253	0.943913	-0.116521
C30	C	-0.572461	0.942812	-0.116609
C31	C	-0.572545	0.941442	0.116118
C32	C	-0.669040	0.944867	0.117642
C33	C	-0.793039	0.992228	0.000099
C34	C	-0.436083	0.985954	0.000138
C35	C	0.038522	0.995210	0.000111
C36	C	0.131473	0.993561	0.000093
C37	C	-0.108444	1.142176	0.000143
C38	C	-0.110093	1.235127	0.000146
N39	N	-0.114553	0.989082	0.318956
N40	N	-0.114563	0.989110	-0.318700
C41	C	-0.114563	0.989095	0.569962
C42	C	-0.114560	0.989085	0.430285
H43	H	-0.228895	0.545761	0.121849
N44	N	-0.695856	0.986332	-0.231925
H45	H	-0.644447	1.006785	-0.282145
H46	H	-0.734217	0.944839	-0.281932
H47	H	-0.526118	1.116379	0.083773
N48	N	-0.123436	0.568561	-0.233016
H49	H	-0.075542	0.612983	-0.212080
H50	H	-0.101446	0.522812	-0.283619
N51	N	-0.515731	1.127301	-0.110462
H52	H	-0.483283	1.088691	-0.160575
H53	H	-0.561852	1.147153	-0.162655
H54	H	-0.669240	1.118520	-0.084423
N55	N	0.023642	0.587915	0.110717
H56	H	-0.014970	0.620359	0.160831
H57	H	0.043490	0.541787	0.162905
H58	H	-0.128906	0.557972	0.204366
H59	H	-0.545676	0.974752	-0.204120
H60	H	-0.544365	0.970799	0.204553
H61	H	-0.227155	0.402549	0.120780
H62	H	-0.230513	0.545123	-0.116990
H63	H	-0.557889	0.874761	-0.121573
N64	N	-0.117333	0.407795	0.232175
H65	H	-0.067908	0.376910	0.209174
H66	H	-0.096937	0.459244	0.282338
H67	H	-0.701100	0.876502	-0.120538
N68	N	-0.113783	0.410047	-0.231704
H69	H	-0.064004	0.380056	-0.207472
H70	H	-0.153722	0.371439	-0.283751
H71	H	-0.687596	0.978842	0.203929
N72	N	-0.712651	0.856318	0.127405
H73	H	-0.752197	0.844519	0.055461
H74	H	-0.669240	0.815130	0.126595
N75	N	-0.247318	0.390977	-0.127196
H76	H	-0.259115	0.351419	-0.055263
H77	H	-0.288533	0.434363	-0.126398
H78	H	-0.669819	1.118683	0.083259
N79	N	-0.553988	0.850966	0.117610
H80	H	-0.518706	0.839905	0.043560
H81	H	-0.522293	0.839978	0.195242
H82	H	0.012729	0.577542	-0.083521
N83	N	0.026891	0.427657	-0.110139
H84	H	0.047274	0.479399	-0.159692
H85	H	0.076743	0.399181	-0.081879
H86	H	0.014864	0.434412	0.084668
