data_functionalizedCrystal
_audit_creation_method	'MofGen! by Chris Wilmer'
_symmetry_space_group_name_H-M	'P1'
_symmetry_Int_Tables_number	1
_symmetry_cell_setting	triclinic
loop_
_symmetry_equiv_pos_as_xyz
  x,y,z
_cell_length_a	16.959455
_cell_length_b	11.169416
_cell_length_c	11.169409
_cell_angle_alpha	90.030874
_cell_angle_beta	90.028099
_cell_angle_gamma	90.007361
loop_
_atom_site_label
_atom_site_type_symbol
_atom_site_fract_x
_atom_site_fract_y
_atom_site_fract_z
Zn1	Zn	1.208498	-0.477805	0.678820
Zn2	Zn	1.208425	-0.678546	0.478142
Zn3	Zn	1.076308	-0.477865	0.478125
Zn4	Zn	1.076313	-0.678435	0.678758
O5	O	1.142386	-0.578163	0.578461
O6	O	1.319099	-0.504455	0.652232
O7	O	1.190867	-0.651996	0.310190
O8	O	1.093872	-0.309907	0.504767
O9	O	1.319045	-0.651939	0.504795
O10	O	1.190991	-0.309863	0.652216
O11	O	1.093801	-0.504557	0.310178
O12	O	0.965698	-0.504449	0.504707
O13	O	1.093880	-0.651749	0.846716
O14	O	0.965702	-0.651807	0.652111
O15	O	1.190996	-0.504348	0.846761
O16	O	1.190871	-0.846481	0.504735
O17	O	1.093810	-0.846399	0.652127
C18	C	1.142355	-0.889987	0.578452
C19	C	1.142414	-1.023387	0.578488
C20	C	0.937020	-0.578123	0.578401
C21	C	0.849163	-0.578136	0.578403
C22	C	0.477649	-0.654881	0.501651
C23	C	0.477726	-0.501544	0.655417
C24	C	0.560272	-0.501524	0.655388
C25	C	0.601510	-0.578185	0.578491
C26	C	0.560202	-0.654866	0.501622
C27	C	0.601586	-0.424853	0.732263
C28	C	0.684137	-0.424831	0.732238
C29	C	0.725376	-0.501487	0.655334
C30	C	0.684064	-0.578170	0.578462
C31	C	0.725302	-0.654831	0.501564
C32	C	0.683991	-0.731509	0.424685
C33	C	0.601442	-0.731522	0.424718
C34	C	0.807925	-0.501474	0.655301
C35	C	0.807855	-0.654817	0.501535
C36	C	1.348554	-0.578203	0.578523
C37	C	1.436411	-0.578220	0.578549
C38	C	1.142447	-0.578029	0.891504
C39	C	1.142472	-0.577973	1.024904
C40	C	1.142439	-0.265120	0.578497
C41	C	1.142461	-0.131720	0.578512
C42	C	1.142371	-0.578209	0.266636
C43	C	1.142498	-0.577927	0.133237
H44	H	0.841426	-0.717240	0.438911
F45	F	0.727889	-0.813102	0.342855
H46	H	0.444145	-0.439137	0.718030
F47	F	0.557693	-0.343285	0.814110
F48	F	0.557471	-0.813123	0.342907
H49	H	0.444010	-0.717307	0.439055
H50	H	0.717765	-0.362395	0.794837
F51	F	0.851888	-0.419880	0.737120
