data_functionalizedCrystal
_audit_creation_method	'MofGen! by Chris Wilmer'
_symmetry_space_group_name_H-M	'P1'
_symmetry_Int_Tables_number	1
_symmetry_cell_setting	triclinic
loop_
_symmetry_equiv_pos_as_xyz
  x,y,z
_cell_length_a	10.686220
_cell_length_b	18.050590
_cell_length_c	18.050582
_cell_angle_alpha	89.976663
_cell_angle_beta	94.355462
_cell_angle_gamma	94.400502
loop_
_atom_site_label
_atom_site_type_symbol
_atom_site_fract_x
_atom_site_fract_y
_atom_site_fract_z
Zn1	Zn	1.929029	-0.208485	-0.332919
Zn2	Zn	2.429029	0.291515	0.167081
Zn3	Zn	1.928913	-0.332674	-0.208733
Zn4	Zn	2.428913	0.167326	0.291267
Zn5	Zn	1.718037	-0.218037	-0.218258
Zn6	Zn	2.218037	0.281963	0.281742
Zn7	Zn	1.717984	-0.342181	-0.342393
Zn8	Zn	2.217984	0.157819	0.157607
O9	O	1.823491	-0.275344	-0.275576
O10	O	2.323491	0.224656	0.224424
O11	O	2.105589	-0.216983	-0.308495
O12	O	2.605589	0.283017	0.191505
O13	O	1.900913	-0.317486	-0.106073
O14	O	2.400913	0.182514	0.393927
O15	O	1.746096	-0.112842	-0.233490
O16	O	2.246096	0.387158	0.266510
O17	O	2.105503	-0.308224	-0.217255
O18	O	2.605503	0.191776	0.282745
O19	O	1.901111	-0.105825	-0.317731
O20	O	2.401111	0.394175	0.182269
O21	O	1.745983	-0.233263	-0.113071
O22	O	2.245983	0.266737	0.386929
O23	O	1.541454	-0.242481	-0.242676
O24	O	2.041454	0.257519	0.257324
O25	O	1.746006	-0.324427	-0.445060
O26	O	2.246006	0.175573	0.054940
O27	O	1.541416	-0.333689	-0.333878
O28	O	2.041416	0.166311	0.166122
O29	O	1.901060	-0.226202	-0.438100
O30	O	2.401060	0.273798	0.061900
O31	O	1.900862	-0.437863	-0.226442
O32	O	2.400862	0.062137	0.273558
O33	O	1.745893	-0.444847	-0.324641
O34	O	2.245893	0.055153	0.175359
C35	C	1.495651	-0.290153	-0.290339
C36	C	1.995651	0.209847	0.209661
C37	C	1.355400	-0.296507	-0.296672
C38	C	1.855400	0.203493	0.203328
C39	C	1.823394	-0.468301	-0.275551
C40	C	2.323394	0.031699	0.224449
C41	C	1.823467	-0.550843	-0.275560
C42	C	2.323467	-0.050843	0.224440
C43	C	1.907915	-0.746461	-0.222220
C44	C	2.407915	-0.246461	0.277780
C45	C	1.938728	-0.794406	-0.288610
C46	C	2.438728	-0.294406	0.211390
C47	C	1.823539	-0.701970	-0.275586
C48	C	2.323539	-0.201970	0.224414
C49	C	1.792854	-0.801101	-0.209220
C50	C	2.292854	-0.301101	0.290780
C51	C	1.823611	-0.847952	-0.275605
C52	C	2.323611	-0.347952	0.224395
C53	C	1.854412	-0.748826	-0.342009
C54	C	2.354412	-0.248826	0.157991
C55	C	1.708484	-0.755519	-0.262576
C56	C	2.208484	-0.255519	0.237424
C57	C	1.739254	-0.803444	-0.329015
C58	C	2.239254	-0.303444	0.170985
C59	C	1.823501	-0.617874	-0.275574
C60	C	2.323501	-0.117874	0.224426
C61	C	1.823648	-0.932047	-0.275625
C62	C	2.323648	-0.432047	0.224375
C63	C	2.152610	-0.260478	-0.260756
C64	C	2.652610	0.239522	0.239244
C65	C	2.292862	-0.254143	-0.254440
C66	C	2.792862	0.245857	0.245560
C67	C	1.823540	-0.275309	-0.469279
C68	C	2.323540	0.224691	0.030721
C69	C	1.823561	-0.275294	-0.551824
C70	C	2.323561	0.224706	-0.051824
C71	C	1.823622	-0.081633	-0.275616
C72	C	2.323622	0.418367	0.224384
C73	C	1.823678	0.000916	-0.275633
C74	C	2.323678	0.500916	0.224367
C75	C	1.739307	-0.328638	-0.755057
C76	C	2.239307	0.171362	-0.255057
C77	C	1.854434	-0.341586	-0.799257
C78	C	2.354434	0.158414	-0.299257
C79	C	1.823623	-0.275235	-0.702952
C80	C	2.323623	0.224765	-0.202952
C81	C	1.708560	-0.262263	-0.805831
C82	C	2.208560	0.237737	-0.305831
C83	C	1.823673	-0.275179	-0.848935
C84	C	2.323673	0.224821	-0.348935
C85	C	1.938810	-0.288215	-0.746061
C86	C	2.438810	0.211785	-0.246061
C87	C	1.792859	-0.208864	-0.752635
C88	C	2.292859	0.291136	-0.252635
C89	C	1.908065	-0.221783	-0.796809
C90	C	2.408065	0.278217	-0.296809
C91	C	1.823593	-0.275269	-0.618855
C92	C	2.323593	0.224731	-0.118855
C93	C	1.823717	-0.275144	-0.933029
C94	C	2.323717	0.224856	-0.433029
C95	C	1.823514	-0.275322	-0.082623
C96	C	2.323514	0.224678	0.417377
C97	C	1.823737	-0.275117	-0.000067
C98	C	2.323737	0.224883	0.499933
H99	H	1.979292	-0.721561	-0.177132
H100	H	2.479292	-0.221561	0.322868
F101	F	1.363120	-0.200383	-0.200845
F102	F	1.863120	0.299617	0.299155
H103	H	1.979472	-0.176594	-0.815126
H104	H	2.479472	0.323406	-0.315126
F105	F	2.066060	-0.302616	-0.712090
F106	F	2.566060	0.197384	-0.212090
F107	F	1.285135	-0.350277	-0.350263
F108	F	1.785135	0.149723	0.149737
F109	F	1.758765	-0.135555	-0.725788
F110	F	2.258765	0.364445	-0.225788
H111	H	1.611182	-0.738246	-0.251536
H112	H	2.111182	-0.238246	0.248464
H113	H	2.036058	-0.811662	-0.299628
H114	H	2.536058	-0.311662	0.200372
H115	H	1.611232	-0.251314	-0.831914
H116	H	2.111232	0.248686	-0.331914
H117	H	1.880298	-0.726008	-0.398196
H118	H	2.380298	-0.226008	0.101804
H119	H	1.667931	-0.828203	-0.374202
H120	H	2.167931	-0.328203	0.125798
F121	F	1.646196	-0.387733	-0.730925
F122	F	2.146196	0.112267	-0.230925
F123	F	1.758891	-0.831052	-0.135852
F124	F	2.258891	-0.331052	0.364148
H125	H	1.880484	-0.397690	-0.819780
H126	H	2.380484	0.102310	-0.319780
