data_functionalizedCrystal
_audit_creation_method	'MofGen! by Chris Wilmer'
_symmetry_space_group_name_H-M	'P1'
_symmetry_Int_Tables_number	1
_symmetry_cell_setting	triclinic
loop_
_symmetry_equiv_pos_as_xyz
  x,y,z
_cell_length_a	19.805407
_cell_length_b	16.625545
_cell_length_c	19.805399
_cell_angle_alpha	90.025704
_cell_angle_beta	89.980427
_cell_angle_gamma	89.975963
loop_
_atom_site_label
_atom_site_type_symbol
_atom_site_fract_x
_atom_site_fract_y
_atom_site_fract_z
Zn1	Zn	1.034747	0.321020	-0.382728
Zn2	Zn	1.034666	0.455857	-0.269544
Zn3	Zn	0.921561	0.321043	-0.269553
Zn4	Zn	0.921530	0.455815	-0.382691
O5	O	0.978126	0.388434	-0.326129
O6	O	1.129453	0.338915	-0.367726
O7	O	1.019642	0.438001	-0.174829
O8	O	0.936623	0.208207	-0.284586
O9	O	1.129394	0.437980	-0.284570
O10	O	1.019780	0.208191	-0.367735
O11	O	0.936545	0.338953	-0.174835
O12	O	0.826841	0.338912	-0.284549
O13	O	0.936569	0.437907	-0.477412
O14	O	0.826817	0.437928	-0.367671
O15	O	1.019749	0.338874	-0.477440
O16	O	1.019612	0.568684	-0.284533
O17	O	0.936491	0.568653	-0.367662
C18	C	0.802270	0.388418	-0.326107
C19	C	0.727038	0.388431	-0.326114
C20	C	0.691699	0.440067	-0.369325
C21	C	0.621011	0.440068	-0.369335
C22	C	0.585663	0.388437	-0.326129
C23	C	0.621006	0.336796	-0.282916
C24	C	0.691693	0.336791	-0.282910
C25	C	0.335933	0.336814	-0.282938
C26	C	0.265241	0.336825	-0.282946
C27	C	0.265251	0.440091	-0.369363
C28	C	0.335938	0.440086	-0.369357
C29	C	0.371275	0.388442	-0.326147
C30	C	0.447924	0.388440	-0.326138
C31	C	0.509015	0.388443	-0.326134
C32	C	0.978057	0.597925	-0.326107
C33	C	0.978090	0.687546	-0.326121
C34	C	0.978200	1.015721	-0.326202
C35	C	0.978167	0.924413	-0.326181
C36	C	0.978144	0.851636	-0.326161
C37	C	0.978113	0.760322	-0.326141
C38	C	1.154669	0.388450	-0.326151
C39	C	1.229901	0.388457	-0.326161
C40	C	0.978164	0.388383	-0.502672
C41	C	0.978180	0.388361	-0.577904
C42	C	0.978208	1.178125	-0.326174
C43	C	0.978228	1.088504	-0.326213
C44	C	1.021493	0.336792	-0.613264
C45	C	1.021500	0.336769	-0.683952
C46	C	0.978197	0.388319	-0.719280
C47	C	0.934879	0.439890	-0.683915
C48	C	0.934870	0.439909	-0.613228
C49	C	0.934918	0.439815	-0.968988
C50	C	0.934932	0.439794	-1.039680
C51	C	1.021548	0.336675	-1.039713
C52	C	1.021538	0.336694	-0.969025
C53	C	0.978218	0.388262	-0.933667
C54	C	0.978210	0.388285	-0.857019
C55	C	0.978208	0.388300	-0.795927
C56	C	0.978127	0.388426	-0.150273
C57	C	0.978242	0.388221	-0.075041
H58	H	0.720465	0.294740	-0.247726
C59	C	0.887255	0.496610	-0.722773
C60	C	0.839618	0.553343	-0.683876
C61	C	0.791999	0.610072	-0.722732
C62	C	0.792018	0.610067	-0.800485
C63	C	0.839657	0.553332	-0.839386
C64	C	0.887276	0.496603	-0.800530
H65	H	0.839602	0.553348	-0.626314
H66	H	0.756734	0.652071	-0.693934
H67	H	0.756768	0.652061	-0.829249
H68	H	0.839673	0.553327	-0.896948
H69	H	0.922542	0.454604	-0.829328
C70	C	1.069143	0.280040	-0.722848
C71	C	1.116778	0.223338	-0.683990
C72	C	1.164421	0.166604	-0.722886
C73	C	1.164430	0.166571	-0.800639
C74	C	1.116793	0.223275	-0.839501
C75	C	1.069150	0.280009	-0.800605
H76	H	1.116773	0.223361	-0.626429
H77	H	1.199684	0.124628	-0.694117
H78	H	1.199698	0.124572	-0.829431
H79	H	1.116798	0.223252	-0.897062
H80	H	1.033887	0.321985	-0.829374
C81	C	0.226355	0.280023	-0.235420
C82	C	0.177728	0.314880	-0.182231
C83	C	0.138842	0.258082	-0.134708
C84	C	0.148583	0.166428	-0.140375
C85	C	0.197212	0.131566	-0.193567
C86	C	0.236098	0.188363	-0.241089
H87	H	0.170515	0.382732	-0.178034
H88	H	0.102843	0.283890	-0.095332
H89	H	0.119797	0.124383	-0.105196
H90	H	0.204425	0.063713	-0.197764
H91	H	0.272097	0.162556	-0.280466
H92	H	0.899593	0.481894	-0.584439
C93	C	0.887290	0.496497	-1.078543
C94	C	0.839636	0.553216	-1.039652
C95	C	0.791998	0.609915	-1.078514
C96	C	0.792013	0.609894	-1.156267
C97	C	0.839669	0.553172	-1.195162
C98	C	0.887307	0.496474	-1.156300
H99	H	0.839624	0.553233	-0.982090
H100	H	0.756720	0.651904	-1.049721
H101	H	0.756748	0.651866	-1.185036
H102	H	0.839682	0.553155	-1.252724
H103	H	0.922585	0.454485	-1.185093
C104	C	0.582125	0.279995	-0.235393
C105	C	0.620999	0.223190	-0.187866
C106	C	0.582119	0.166386	-0.140344
C107	C	0.504366	0.166387	-0.140348
C108	C	0.465488	0.223194	-0.187877
C109	C	0.504367	0.279998	-0.235399
H110	H	0.678560	0.223187	-0.187862
H111	H	0.610900	0.124334	-0.105160
H112	H	0.475585	0.124337	-0.105169
H113	H	0.407927	0.223197	-0.187881
H114	H	0.475587	0.322050	-0.270583
H115	H	0.364696	0.294769	-0.247748
C116	C	1.069128	0.280085	-0.574406
C117	C	1.063641	0.188420	-0.584141
C118	C	1.111276	0.131709	-0.545286
C119	C	1.164396	0.166663	-0.496696
C120	C	1.169885	0.258333	-0.486959
C121	C	1.122251	0.315044	-0.525814
H122	H	1.024316	0.162541	-0.620112
H123	H	1.107212	0.063849	-0.552494
H124	H	1.199658	0.124682	-0.467933
H125	H	1.209210	0.284212	-0.450987
H126	H	1.126314	0.382904	-0.518606
H127	H	0.720475	0.482113	-0.404506
H128	H	0.592241	0.482116	-0.404521
H129	H	0.364715	0.482132	-0.404537
H130	H	0.899654	0.481817	-0.940208
H131	H	1.056802	0.294719	-0.940265
C132	C	0.226378	0.496894	-0.416903
C133	C	0.148625	0.496902	-0.416918
C134	C	0.109755	0.553705	-0.464455
C135	C	0.148638	0.610501	-0.511976
C136	C	0.226395	0.610495	-0.511963
C137	C	0.265265	0.553691	-0.464426
H138	H	0.119838	0.454857	-0.381738
H139	H	0.052193	0.553709	-0.464465
H140	H	0.119863	0.652550	-0.547166
H141	H	0.255182	0.652540	-0.547143
H142	H	0.322827	0.553687	-0.464416
H143	H	1.056819	0.294683	-1.068510
