data_functionalizedCrystal
_audit_creation_method	'MofGen! by Chris Wilmer'
_symmetry_space_group_name_H-M	'P1'
_symmetry_Int_Tables_number	1
_symmetry_cell_setting	triclinic
loop_
_symmetry_equiv_pos_as_xyz
  x,y,z
_cell_length_a	8.559649
_cell_length_b	17.699083
_cell_length_c	16.176319
_cell_angle_alpha	90.007696
_cell_angle_beta	90.007370
_cell_angle_gamma	76.530839
loop_
_atom_site_label
_atom_site_type_symbol
_atom_site_fract_x
_atom_site_fract_y
_atom_site_fract_z
O1	O	-2.120234	0.025680	-0.068732
O2	O	-1.654878	-0.013416	-0.068738
O3	O	-1.900704	0.117074	-0.068727
O4	O	-1.874409	-0.104810	-0.068742
O5	O	-1.900670	0.117080	0.068766
O6	O	-1.654845	-0.013410	0.068756
O7	O	-2.120200	0.025686	0.068761
Cu8	Cu	-1.887519	0.006138	0.081313
Cu9	Cu	-1.887559	0.006132	-0.081289
O10	O	-1.874375	-0.104804	0.068751
C11	C	-1.595320	-0.016376	0.000008
C12	C	-1.417906	-0.025195	0.000007
C13	C	-1.899745	0.145220	0.000019
C14	C	-1.896918	0.229076	0.000020
C15	C	-2.179758	0.028646	0.000013
C16	C	-2.357173	0.037465	0.000010
C17	C	-1.875334	-0.132950	0.000002
C18	C	-1.878161	-0.216806	-0.000003
N19	N	-1.887503	0.006144	0.195678
C20	C	-2.041212	0.285959	0.000022
C21	C	-2.038547	0.364749	0.000015
C22	C	-1.891585	0.386656	0.000011
C23	C	-1.747280	0.329767	0.000006
C24	C	-1.749947	0.250978	0.000007
C25	C	-1.736521	0.647514	-0.000001
C26	C	-1.733865	0.726310	-0.000000
C27	C	-2.025120	0.761286	0.000007
C28	C	-2.027787	0.682496	0.000008
C29	C	-1.883483	0.625614	-0.000001
C30	C	-1.886375	0.540181	0.000005
C31	C	-1.888692	0.472088	0.000010
N32	N	-1.887588	0.006133	-0.195654
C33	C	-1.996387	0.063906	0.238946
C34	C	-1.996395	0.063907	0.325494
C35	C	-1.887526	0.006143	0.368770
C36	C	-1.778630	-0.051622	0.325496
C37	C	-1.778615	-0.051620	0.238950
C38	C	-1.778685	-0.051633	0.674524
C39	C	-1.778711	-0.051633	0.761075
C40	C	-1.996464	0.063893	0.761067
C41	C	-1.996450	0.063896	0.674522
C42	C	-1.887549	0.006134	0.631255
C43	C	-1.887540	0.006134	0.537410
C44	C	-1.887541	0.006139	0.462613
H45	H	-1.440904	0.097859	0.000010
H46	H	-1.334165	-0.085592	-0.000002
C47	C	-1.572188	0.750403	-0.000012
N48	N	-1.450420	0.768551	-0.000021
H49	H	-1.690050	-0.098673	0.796310
C50	C	-2.202884	0.261871	0.000027
N51	N	-2.324660	0.243730	0.000027
C52	C	-2.197282	0.427318	0.000032
N53	N	-2.316849	0.474445	0.000048
C54	C	-2.116245	0.127440	0.808669
N55	N	-2.206462	0.175301	0.844521
C56	C	-1.585621	0.353867	0.000008
N57	N	-1.463855	0.372017	0.000016
C58	C	-2.116154	0.127453	0.191350
N59	N	-2.206360	0.175320	0.155503
H60	H	-2.142620	0.807609	0.000011
C61	C	-2.189456	0.658405	0.000013
N62	N	-2.311228	0.640261	0.000013
C63	C	-1.577781	0.584953	-0.000016
N64	N	-1.458210	0.537828	-0.000030
H65	H	-1.689949	-0.098655	0.203722
C66	C	-2.116138	0.127466	0.373085
N67	N	-2.206319	0.175347	0.408931
C68	C	-1.658857	-0.115158	0.373103
N69	N	-1.568641	-0.163014	0.408961
C70	C	-2.116211	0.127443	0.626922
N71	N	-2.206412	0.175310	0.591071
H72	H	-1.632448	0.204663	0.000004
C73	C	-1.659098	-0.115260	0.626941
N74	N	-1.569093	-0.163217	0.591099
