data_functionalizedCrystal
_audit_creation_method	'MofGen! by Chris Wilmer'
_symmetry_space_group_name_H-M	'P1'
_symmetry_Int_Tables_number	1
_symmetry_cell_setting	triclinic
loop_
_symmetry_equiv_pos_as_xyz
  x,y,z
_cell_length_a	19.805407
_cell_length_b	19.121063
_cell_length_c	19.805399
_cell_angle_alpha	92.411105
_cell_angle_beta	89.980427
_cell_angle_gamma	92.469032
loop_
_atom_site_label
_atom_site_type_symbol
_atom_site_fract_x
_atom_site_fract_y
_atom_site_fract_z
Zn1	Zn	1.023234	-0.279631	-0.394203
Zn2	Zn	1.018317	-0.397083	-0.285838
Zn3	Zn	0.910048	-0.279650	-0.281028
Zn4	Zn	0.905182	-0.397046	-0.398983
O5	O	0.964195	-0.338352	-0.340013
O6	O	1.117298	-0.295218	-0.379840
O7	O	1.003934	-0.381529	-0.190484
O8	O	0.929156	-0.181363	-0.292028
O9	O	1.113686	-0.381510	-0.300225
O10	O	1.012313	-0.181348	-0.375177
O11	O	0.924388	-0.295251	-0.186951
O12	O	0.814686	-0.295215	-0.296663
O13	O	0.920863	-0.381447	-0.493065
O14	O	0.811111	-0.381465	-0.383324
O15	O	1.007595	-0.295182	-0.489553
O16	O	0.999216	-0.495363	-0.304860
O17	O	0.916096	-0.495335	-0.387987
C18	C	0.788340	-0.338339	-0.339991
C19	C	0.713107	-0.338350	-0.339998
C20	C	0.956613	-0.520833	-0.347479
C21	C	0.953431	-0.598899	-0.350696
C22	C	0.675917	-0.383328	-0.385055
C23	C	0.605228	-0.383329	-0.385064
C24	C	0.571732	-0.338356	-0.340013
C25	C	0.608927	-0.293373	-0.294954
C26	C	0.679614	-0.293368	-0.294948
C27	C	0.323853	-0.293388	-0.294977
C28	C	0.253161	-0.293397	-0.294985
C29	C	0.249467	-0.383349	-0.385093
C30	C	0.320154	-0.383345	-0.385087
C31	C	0.357344	-0.338360	-0.340031
C32	C	0.433992	-0.338358	-0.340022
C33	C	0.495084	-0.338360	-0.340018
C34	C	0.995246	-0.635566	-0.308963
C35	C	0.992258	-0.708917	-0.311992
C36	C	0.947451	-0.745601	-0.356752
C37	C	0.905634	-0.708929	-0.398489
C38	C	0.908626	-0.635579	-0.395463
C39	C	0.936252	-0.967071	-0.368056
C40	C	0.933262	-1.040426	-0.371078
C41	C	1.019887	-1.040409	-0.284581
C42	C	1.022872	-0.967058	-0.281556
C43	C	0.981058	-0.930393	-0.323296
C44	C	0.944394	-0.820578	-0.359848
C45	C	0.984119	-0.855417	-0.320203
C46	C	1.140737	-0.338366	-0.340036
C47	C	1.215969	-0.338372	-0.340046
C48	C	0.964235	-0.338308	-0.516554
C49	C	0.964252	-0.338289	-0.591785
C50	C	0.971825	-0.155159	-0.332532
C51	C	0.975077	-0.077093	-0.329345
C52	C	1.009414	-0.293369	-0.625302
C53	C	1.009422	-0.293349	-0.695989
C54	C	0.964270	-0.338253	-0.733159
C55	C	0.919103	-0.383175	-0.699638
C56	C	0.919093	-0.383191	-0.628952
C57	C	0.919144	-0.383109	-0.984709
C58	C	0.919159	-0.383091	-1.055400
C59	C	1.009474	-0.293267	-1.051747
C60	C	1.009463	-0.293283	-0.981060
C61	C	0.964294	-0.338202	-0.947545
C62	C	0.964285	-0.338223	-0.870897
C63	C	0.964282	-0.338236	-0.809806
C64	C	0.964197	-0.338346	-0.164157
C65	C	0.964319	-0.338167	-0.088918
H66	H	0.703185	-0.419953	-0.421739
C67	C	0.216316	-0.243918	-0.245431
H68	H	0.248588	-0.217120	-0.218601
H69	H	0.187614	-0.270744	-0.216996
H70	H	0.190021	-0.213356	-0.270133
C71	C	1.059081	-0.243976	-0.584418
H72	H	1.052613	-0.250422	-0.537519
H73	H	1.051144	-0.196783	-0.594074
H74	H	1.104134	-0.254261	-0.596432
C75	C	0.208557	-0.432826	-0.434662
H76	H	0.161661	-0.426384	-0.428221
H77	H	0.218178	-0.480002	-0.426610
H78	H	0.220589	-0.422604	-0.479738
C79	C	0.564320	-0.432848	-0.434587
H80	H	0.594393	-0.459651	-0.461400
H81	H	0.537849	-0.406064	-0.463043
H82	H	0.535486	-0.463403	-0.409857
H83	H	0.347424	-0.419970	-0.421771
C84	C	0.869491	-0.432485	-1.096289
H85	H	0.875974	-0.426046	-1.143188
H86	H	0.824439	-0.422205	-1.084282
H87	H	0.877431	-0.479682	-1.086632
C88	C	0.364752	-0.243919	-0.245406
H89	H	0.334677	-0.217144	-0.218570
H90	H	0.393611	-0.213345	-0.270083
H91	H	0.391197	-0.270754	-0.216967
H92	H	1.020604	-0.825547	-0.283763
H93	H	1.053931	-1.070270	-0.250600
C94	C	1.038251	-0.749248	-0.266083
H95	H	1.065359	-0.716895	-0.238986
H96	H	1.066565	-0.777818	-0.293177
H97	H	1.011202	-0.777904	-0.237749
H98	H	0.581649	-0.256751	-0.258275
H99	H	0.709894	-0.256739	-0.258261
H100	H	1.046199	-0.256772	-0.723275
C101	C	1.059127	-0.243887	-0.940176
H102	H	1.086022	-0.217126	-0.970262
H103	H	1.087496	-0.270760	-0.913702
H104	H	1.034499	-0.213288	-0.911350
C105	C	1.044536	-0.595220	-0.259728
H106	H	1.069015	-0.627566	-0.235313
H107	H	1.019830	-0.566648	-0.229033
H108	H	1.075183	-0.566565	-0.284471
H109	H	1.059358	-0.937192	-0.245110
H110	H	1.046250	-0.256689	-1.079043
C111	C	0.883978	-1.080777	-0.420320
H112	H	0.859508	-1.048436	-0.444751
H113	H	0.853331	-1.109435	-0.395587
H114	H	0.908697	-1.109347	-0.451012
H115	H	0.902204	-0.937224	-0.402041
C116	C	0.895105	-0.860929	-0.409079
H117	H	0.870629	-0.828589	-0.433505
H118	H	0.864465	-0.889590	-0.384342
H119	H	0.919822	-0.889496	-0.439775
C120	C	0.856348	-0.749276	-0.447726
H121	H	0.831878	-0.716931	-0.472153
H122	H	0.825702	-0.777933	-0.422992
H123	H	0.881063	-0.777845	-0.478422
H124	H	0.882374	-0.419695	-0.957430
C125	C	0.869436	-0.432569	-0.740520
H126	H	0.842533	-0.459320	-0.710433
H127	H	0.894056	-0.463167	-0.769349
H128	H	0.841066	-0.405689	-0.766992
H129	H	0.874577	-0.605726	-0.429447
H130	H	0.882310	-0.419762	-0.601663
