data_functionalizedCrystal
_audit_creation_method	'MofGen! by Chris Wilmer'
_symmetry_space_group_name_H-M	'P1'
_symmetry_Int_Tables_number	1
_symmetry_cell_setting	triclinic
loop_
_symmetry_equiv_pos_as_xyz
  x,y,z
_cell_length_a	13.032891
_cell_length_b	15.299816
_cell_length_c	13.033352
_cell_angle_alpha	72.071039
_cell_angle_beta	89.095298
_cell_angle_gamma	74.595482
loop_
_atom_site_label
_atom_site_type_symbol
_atom_site_fract_x
_atom_site_fract_y
_atom_site_fract_z
Zn1	Zn	1.607825	-0.636916	0.922494
Zn2	Zn	2.107825	-0.136916	1.422494
Zn3	Zn	1.653766	-0.777322	0.781755
Zn4	Zn	2.153766	-0.277322	1.281755
Zn5	Zn	1.450951	-0.597471	0.719967
Zn6	Zn	1.950951	-0.097471	1.219967
Zn7	Zn	1.459107	-0.772276	0.930752
Zn8	Zn	1.959107	-0.272276	1.430752
O9	O	1.542912	-0.695996	0.838742
O10	O	2.042912	-0.195996	1.338742
O11	O	1.761037	-0.674160	0.926227
O12	O	2.261037	-0.174160	1.426227
O13	O	1.642676	-0.739069	0.626444
O14	O	2.142676	-0.239069	1.126444
O15	O	1.449120	-0.470787	0.717519
O16	O	1.949120	0.029213	1.217519
O17	O	1.794790	-0.777316	0.822826
O18	O	2.294790	-0.277316	1.322826
O19	O	1.564375	-0.499766	0.866315
O20	O	2.064375	0.000234	1.366315
O21	O	1.493668	-0.606933	0.581049
O22	O	1.993668	-0.106933	1.081049
O23	O	1.304915	-0.602040	0.725526
O24	O	1.804915	-0.102040	1.225526
O25	O	1.463022	-0.768716	1.076771
O26	O	1.963022	-0.268716	1.576771
O27	O	1.310908	-0.730468	0.880388
O28	O	1.810908	-0.230468	1.380388
O29	O	1.572284	-0.669267	1.070704
O30	O	2.072284	-0.169267	1.570704
O31	O	1.650585	-0.908569	0.830833
O32	O	2.150585	-0.408569	1.330833
O33	O	1.507569	-0.904862	0.940301
O34	O	2.007569	-0.404862	1.440301
C35	C	1.269765	-0.661427	0.797149
C36	C	1.769765	-0.161427	1.297149
C37	C	1.152913	-0.646663	0.779386
C38	C	1.652913	-0.146663	1.279386
C39	C	0.983061	-0.688449	0.829664
C40	C	1.483061	-0.188449	1.329664
C41	C	1.103835	-0.703712	0.848023
C42	C	1.603835	-0.203712	1.348023
C43	C	1.584973	-0.940926	0.893195
C44	C	2.084973	-0.440926	1.393195
C45	C	1.603060	-1.045724	0.916540
C46	C	2.103060	-0.545724	1.416540
C47	C	1.414298	-1.281096	0.672353
C48	C	1.914298	-0.781096	1.172353
C49	C	1.397299	-1.182633	0.650421
C50	C	1.897299	-0.682633	1.150421
C51	C	1.448738	-1.148401	0.716949
C52	C	1.948738	-0.648401	1.216949
C53	C	1.517178	-1.212641	0.805413
C54	C	2.017178	-0.712641	1.305413
C55	C	1.534172	-1.311114	0.827352
C56	C	2.034172	-0.811114	1.327352
C57	C	1.568612	-1.178418	0.871947
C58	C	2.068612	-0.678418	1.371947
C59	C	1.637052	-1.242659	0.960412
C60	C	2.137052	-0.742659	1.460412
C61	C	1.654043	-1.341122	0.982346
C62	C	2.154043	-0.841122	1.482346
C63	C	1.602605	-1.375354	0.915819
C64	C	2.102605	-0.875354	1.415819
C65	C	1.551618	-1.079946	0.850008
C66	C	2.051618	-0.579946	1.350008
C67	C	1.671492	-1.109964	1.005007
C68	C	2.171492	-0.609964	1.505007
C69	C	1.688491	-1.208427	1.026939
C70	C	2.188491	-0.708427	1.526939
C71	C	1.817126	-0.730701	0.880498
C72	C	2.317126	-0.230701	1.380498
C73	C	1.933980	-0.745490	0.898292
C74	C	2.433980	-0.245490	1.398292
C75	C	1.513438	-0.722828	1.112949
C76	C	2.013438	-0.222828	1.612949
C77	C	1.500878	-0.734263	1.229799
C78	C	2.000878	-0.234263	1.729799
C79	C	1.500713	-0.450116	0.784104
C80	C	2.000713	0.049884	1.284104
C81	C	1.482730	-0.345336	0.760820
C82	C	1.982730	0.154664	1.260820
C83	C	1.549339	-0.690155	1.278893
C84	C	2.049339	-0.190155	1.778893
C85	C	1.536359	-0.701972	1.399665
C86	C	2.036359	-0.201972	1.899665
C87	C	1.572267	-0.669289	1.565605
C88	C	2.072267	-0.169289	2.065605
C89	C	1.584826	-0.657859	1.448755
C90	C	2.084826	-0.157859	1.948755
H91	H	0.981370	-0.805621	0.970641
H92	H	1.481370	-0.305621	1.470641
H93	H	1.713376	-1.082094	1.059181
H94	H	2.213376	-0.582094	1.559181
Br95	Br	1.746898	-1.428304	1.102426
Br96	Br	2.246898	-0.928304	1.602426
H97	H	1.495894	-1.027649	0.777980
H98	H	1.995894	-0.527649	1.277980
Br99	Br	1.415696	-0.811777	1.308754
Br100	Br	1.915696	-0.311777	1.808754
Br101	Br	1.425213	-1.014759	0.687531
Br102	Br	1.925213	-0.514759	1.187531
Br103	Br	1.182808	-0.803943	0.968621
Br104	Br	1.682808	-0.303943	1.468621
H105	H	1.744215	-1.260745	1.098968
H106	H	2.244215	-0.760745	1.598968
Br107	Br	1.451173	-0.779490	1.478615
Br108	Br	1.951173	-0.279490	1.978615
H109	H	1.600434	-0.643641	1.231513
H110	H	2.100434	-0.143641	1.731513
H111	H	1.635923	-0.611339	1.401379
H112	H	2.135923	-0.111339	1.901379
H113	H	1.105525	-0.586520	0.707038
H114	H	1.605525	-0.086520	1.207038
Br115	Br	1.304404	-1.095456	0.530381
Br116	Br	1.804404	-0.595456	1.030381
H117	H	0.935668	-0.628311	0.757322
H118	H	1.435668	-0.128311	1.257322
Br119	Br	1.625945	-1.508994	0.945372
Br120	Br	2.125945	-1.008994	1.445372
Br121	Br	1.344474	-1.327558	0.582094
Br122	Br	1.844474	-0.827558	1.082094
