data_functionalizedCrystal
_audit_creation_method	'MofGen! by Chris Wilmer'
_symmetry_space_group_name_H-M	'P1'
_symmetry_Int_Tables_number	1
_symmetry_cell_setting	triclinic
loop_
_symmetry_equiv_pos_as_xyz
  x,y,z
_cell_length_a	9.065215
_cell_length_b	10.723022
_cell_length_c	7.540329
_cell_angle_alpha	89.997341
_cell_angle_beta	89.997358
_cell_angle_gamma	84.740962
loop_
_atom_site_label
_atom_site_type_symbol
_atom_site_fract_x
_atom_site_fract_y
_atom_site_fract_z
O1	O	0.206929	1.658026	-0.147467
O2	O	0.226740	1.294953	-0.147473
O3	O	0.002149	1.483996	-0.147462
O4	O	0.431520	1.468983	-0.147478
O5	O	0.002146	1.483985	0.147503
O6	O	0.226737	1.294942	0.147492
O7	O	0.206926	1.658014	0.147498
Cu8	Cu	0.216831	1.476477	0.174428
Cu9	Cu	0.216835	1.476491	-0.174403
O10	O	0.431517	1.468972	0.147487
C11	C	0.225297	1.248442	0.000009
C12	C	0.220985	1.109870	0.000007
C13	C	0.091471	1.060784	0.000011
C14	C	0.087012	0.917564	0.000008
C15	C	-0.052831	1.482548	0.000019
C16	C	-0.216650	1.478237	0.000013
C17	C	0.486497	1.470419	0.000003
C18	C	0.650315	1.474731	-0.000003
C19	C	0.208369	1.704526	0.000012
C20	C	0.212681	1.843097	0.000003
N21	N	0.216828	1.476477	0.419776
N22	N	0.216826	1.476501	-0.419751
H23	H	0.323575	0.885350	0.000010
F24	F	0.361605	1.026216	-0.000012
H25	H	-0.016108	1.124791	0.000006
F26	F	-0.057933	0.862330	0.000025
