data_functionalizedCrystal
_audit_creation_method	'MofGen! by Chris Wilmer'
_symmetry_space_group_name_H-M	'P1'
_symmetry_Int_Tables_number	1
_symmetry_cell_setting	triclinic
loop_
_symmetry_equiv_pos_as_xyz
  x,y,z
_cell_length_a	20.875641
_cell_length_b	14.628931
_cell_length_c	20.875641
_cell_angle_alpha	90.001412
_cell_angle_beta	60.089808
_cell_angle_gamma	62.439816
loop_
_atom_site_label
_atom_site_type_symbol
_atom_site_fract_x
_atom_site_fract_y
_atom_site_fract_z
Zr1	Zr	0.694345	0.922464	-0.105770
O2	O	0.820586	0.788502	-0.209034
O3	O	0.563090	0.958518	-0.070838
O4	O	0.687113	0.971980	-0.204310
O5	O	0.704016	0.770122	0.025997
O6	O	0.687113	1.122412	-0.204310
O7	O	0.696562	0.775040	-0.075562
O8	O	0.465258	1.098331	0.034447
O9	O	0.925871	0.794204	-0.212760
O10	O	0.618934	1.092216	-0.059897
O11	O	0.624497	0.976280	0.015895
O12	O	0.770518	0.992130	-0.141251
O13	O	0.776081	0.876194	-0.065459
Zr14	Zr	0.706232	1.154543	0.056206
Zr15	Zr	0.694345	1.162385	-0.105769
Zr16	Zr	0.706233	0.914621	0.056206
Zr17	Zr	0.862263	0.931557	-0.111712
Zr18	Zr	0.538314	1.145449	0.062148
O19	O	0.837487	1.118488	0.021274
O20	O	0.820585	1.129640	-0.209034
O21	O	0.837488	0.777350	0.021274
O22	O	0.579992	1.288504	0.159470
O23	O	0.563089	1.299656	-0.070838
O24	O	0.579992	0.947366	0.159470
O25	O	0.696561	1.306884	-0.075561
O26	O	0.713464	1.105026	0.154746
O27	O	0.713464	0.954594	0.154746
O28	O	0.704015	1.301966	0.025998
O29	O	0.925870	0.984910	-0.212760
O30	O	0.474707	1.092097	0.163196
O31	O	0.474706	1.282803	0.163196
O32	O	0.465258	1.289037	0.034447
O33	O	0.935320	0.787970	-0.084011
O34	O	0.935319	0.978675	-0.084011
O35	O	0.630059	1.084876	0.091688
O36	O	0.624496	1.200812	0.015895
O37	O	0.776080	1.100726	-0.065459
O38	O	0.781643	0.984790	0.010334
C39	C	0.490249	1.027129	-0.017349
C40	C	0.418964	1.023268	-0.014826
C41	C	0.382570	1.081969	-0.053204
C42	C	0.315586	1.078344	-0.050826
C43	C	0.285000	1.016012	-0.010075
C44	C	0.321397	0.957309	0.028308
C45	C	0.388376	0.960941	0.025934
C46	C	0.084989	0.998667	0.001271
C47	C	0.018007	0.995037	0.003640
C48	C	0.012199	1.116074	-0.075493
C49	C	0.079183	1.119695	-0.077867
C50	C	0.115571	1.060997	-0.039481
N51	N	0.216533	1.012302	-0.007645
N52	N	0.184032	1.064713	-0.041906
C53	C	0.700289	0.738397	-0.024782
C54	C	0.700289	0.636544	-0.024782
C55	C	0.625094	0.640784	0.015575
C56	C	0.625092	0.535515	0.015576
C57	C	0.910328	1.049878	-0.032215
C58	C	0.981613	1.053738	-0.034738
C59	C	0.685419	1.048313	-0.227388
C60	C	0.680373	1.051643	-0.296151
C61	C	0.700288	1.338609	-0.024782
C62	C	0.700288	1.440462	-0.024781
C63	C	0.757125	1.000965	-0.370921
C64	C	0.752378	1.004108	-0.435528
C65	C	0.670878	1.057922	-0.425363
C66	C	0.594120	1.108606	-0.350585
C67	C	0.598868	1.105470	-0.285979
C68	C	0.648194	1.072911	-0.614029
C69	C	0.643452	1.076041	-0.678642
C70	C	0.801711	0.971544	-0.763582
C71	C	0.806451	0.968406	-0.698971
C72	C	0.729693	1.019095	-0.624199
N73	N	0.666024	1.061133	-0.491401
N74	N	0.734548	1.015891	-0.558163
C75	C	0.715158	1.028693	0.177824
C76	C	0.720204	1.025363	0.246587
C77	C	0.490249	1.327234	-0.017348
C78	C	0.418963	1.425227	-0.014826
C79	C	0.505119	1.017318	0.185257
C80	C	0.438880	1.010128	0.256543
C81	C	0.505118	1.317424	0.185258
C82	C	0.438879	1.412087	0.256543
C83	C	0.895459	0.759582	-0.234822
C84	C	0.961698	0.664919	-0.306107
C85	C	0.910329	0.749772	-0.032215
C86	C	0.981614	0.651779	-0.034738
C87	C	0.895459	1.059688	-0.234821
C88	C	0.961698	1.066878	-0.306107
C89	C	0.382583	1.414560	-0.053210
C90	C	0.315610	1.506627	-0.050855
C91	C	0.285016	1.609359	-0.010110
C92	C	0.321403	1.620024	0.028275
C93	C	0.388378	1.527959	0.025915
C94	C	0.410677	1.063438	0.329589
C95	C	0.348448	1.056678	0.396575
C96	C	0.314419	0.996615	0.390514
C97	C	0.342627	0.943299	0.317460
C98	C	0.404860	0.950053	0.250475
C99	C	0.404869	1.517069	0.250457
C100	C	0.342639	1.606025	0.317431
C101	C	0.314416	1.589997	0.390490
C102	C	0.348432	1.485004	0.396575
C103	C	0.410666	1.396050	0.329602
C104	C	0.995717	0.559937	-0.300021
C105	C	1.057967	0.470982	-0.366996
C106	C	1.086194	0.487011	-0.440055
C107	C	1.052173	0.592004	-0.446140
C108	C	0.989928	0.680957	-0.379166
C109	C	1.018001	0.662447	0.003640
C110	C	1.084991	0.570382	0.001266
C111	C	1.115588	0.467650	-0.039481
C112	C	1.079198	0.456985	-0.077864
C113	C	1.012214	0.549049	-0.075495
C114	C	0.995708	1.126950	-0.300020
C115	C	1.057938	1.133727	-0.366994
C116	C	1.086161	1.080424	-0.440054
C117	C	1.052145	1.020350	-0.446138
C118	C	0.989911	1.013580	-0.379165
H119	H	0.407472	1.132721	-0.086392
Cl120	Cl	0.947171	0.938042	-0.386831
Cl121	Cl	0.551697	1.136587	-0.520038
H122	H	-0.017435	1.163865	-0.106744
Cl123	Cl	0.979555	0.791585	0.054866
H124	H	0.263746	0.991124	0.445063
Cl125	Cl	0.440301	0.883035	0.158649
Cl126	Cl	1.087643	0.953335	-0.537992
H127	H	0.577081	1.119862	-0.670357
H128	H	0.764669	0.436998	-0.059338
H129	H	0.314911	0.894396	0.312536
Cl130	Cl	0.200814	1.725088	-0.007149
Cl131	Cl	0.299883	1.738004	0.309764
Cl132	Cl	0.269853	1.152119	-0.099093
H133	H	0.296482	1.703681	0.061449
H134	H	0.438378	1.112347	0.334539
Cl135	Cl	1.117669	0.327827	-0.129082
H136	H	0.560717	0.722348	0.050128
Cl137	Cl	0.908913	0.900699	-0.711758
Cl138	Cl	0.966472	0.535618	-0.123741
H139	H	0.263741	1.662438	0.445018
H140	H	1.136837	1.085945	-0.494581
Cl141	Cl	0.947163	0.812931	-0.386831
H142	H	1.114609	0.579087	0.032525
Cl143	Cl	1.100694	1.209246	-0.359327
Cl144	Cl	0.434100	1.541388	0.074183
Cl145	Cl	0.117633	1.198052	-0.129104
H146	H	-0.006891	0.944274	0.036824
Cl147	Cl	0.440342	1.537248	0.158619
H148	H	0.407491	1.330919	-0.086399
H149	H	0.972738	0.546865	-0.240538
H150	H	0.325489	1.100099	0.456052
Cl151	Cl	0.799688	0.510620	-0.078124
Cl152	Cl	0.312941	1.464872	0.488428
Cl153	Cl	0.130722	0.924879	0.049531
H154	H	0.438349	1.310572	0.334568
H155	H	0.296485	0.906563	0.061493
Cl156	Cl	0.491662	1.176261	-0.337805
H157	H	1.136878	0.414570	-0.494583
H158	H	1.085657	0.385501	-0.362026
H159	H	0.418009	0.913138	0.057183
Cl160	Cl	0.525692	0.540860	0.068918
H161	H	0.823492	0.957136	-0.379208
H162	H	0.814878	0.962843	-0.496408
H163	H	1.075163	0.605042	-0.505633
Cl164	Cl	0.960239	1.193971	-0.208182
H165	H	0.864203	0.930276	-0.824467
Cl166	Cl	0.502375	1.169195	-0.191979
H167	H	1.170131	0.392694	-0.041404
Cl168	Cl	0.269877	1.493194	-0.099113
