data_functionalizedCrystal
_audit_creation_method	'MofGen! by Chris Wilmer'
_symmetry_space_group_name_H-M	'P1'
_symmetry_Int_Tables_number	1
_symmetry_cell_setting	triclinic
loop_
_symmetry_equiv_pos_as_xyz
  x,y,z
_cell_length_a	17.699083
_cell_length_b	9.730217
_cell_length_c	17.699092
_cell_angle_alpha	90.001559
_cell_angle_beta	83.284691
_cell_angle_gamma	89.995378
loop_
_atom_site_label
_atom_site_type_symbol
_atom_site_fract_x
_atom_site_fract_y
_atom_site_fract_z
O1	O	1.004075	0.114092	0.095710
O2	O	0.783697	0.114137	0.108162
O3	O	0.900109	0.114110	-0.008253
O4	O	0.887663	0.114119	0.212125
O5	O	0.900106	-0.114470	-0.008254
O6	O	0.783694	-0.114444	0.108161
O7	O	1.004072	-0.114488	0.095709
Zn8	Zn	0.893882	-0.150758	0.101935
Zn9	Zn	0.893887	0.150406	0.101936
O10	O	0.887660	-0.114461	0.212124
C11	C	0.755499	-0.000148	0.107715
C12	C	0.671480	-0.000131	0.106377
N13	N	0.893885	-0.356294	0.101933
C14	C	0.622862	-0.000128	0.174710
C15	C	0.543918	-0.000146	0.173448
C16	C	0.513595	-0.000157	0.103851
C17	C	0.562220	-0.000163	0.035513
C18	C	0.641162	-0.000155	0.036776
C19	C	0.243857	-0.000197	0.030418
C20	C	0.164909	-0.000201	0.029160
C21	C	0.146613	-0.000188	0.167089
C22	C	0.225555	-0.000180	0.168352
C23	C	0.274173	-0.000194	0.100014
C24	C	0.359772	-0.000177	0.101384
C25	C	0.427998	-0.000163	0.102481
C26	C	0.997009	-0.356308	-0.001123
C27	C	1.048576	-0.428255	-0.052649
C28	C	1.048584	-0.572135	-0.052649
C29	C	0.997017	-0.644071	-0.001120
C30	C	0.945450	-0.572124	0.050406
C31	C	0.945450	-0.428241	0.050403
C32	C	0.842323	-0.572110	0.153457
C33	C	0.842318	-0.428230	0.153463
C34	C	0.790757	-0.644046	0.204986
C35	C	0.739192	-0.572099	0.256517
C36	C	0.739187	-0.428211	0.256516
C37	C	0.790751	-0.356283	0.204988
C38	C	1.032271	-0.000201	0.096155
C39	C	1.116289	-0.000209	0.097494
C40	C	0.899661	-0.000178	-0.036450
C41	C	0.898319	-0.000171	-0.120468
N42	N	0.893891	0.355943	0.101931
C43	C	0.897693	0.124429	-0.159935
C44	C	0.896428	0.124431	-0.238878
C45	C	0.895795	-0.000169	-0.278353
C46	C	0.896419	-0.124779	-0.238881
C47	C	0.897679	-0.124780	-0.159938
C48	C	0.891339	-0.124780	-0.557246
C49	C	0.890082	-0.124770	-0.636194
C50	C	0.890088	0.124431	-0.636185
C51	C	0.891348	0.124430	-0.557243
C52	C	0.891968	-0.000179	-0.517777
C53	C	0.893338	-0.000180	-0.432178
C54	C	0.894430	-0.000170	-0.363952
C55	C	0.888109	-0.000170	0.240321
C56	C	0.889450	-0.000168	0.324339
H57	H	0.647544	-0.000119	0.231383
C58	C	0.682473	-0.651226	0.313194
C59	C	0.682596	-0.809488	0.313313
C60	C	0.625877	-0.888620	0.369991
C61	C	0.569035	-0.809489	0.426551
C62	C	0.568910	-0.651218	0.426434
C63	C	0.625629	-0.572086	0.369756
H64	H	0.724676	-0.868074	0.271442
H65	H	0.625969	-1.005783	0.370078
H66	H	0.527048	-0.868067	0.468508
H67	H	0.526830	-0.592632	0.468305
H68	H	0.625536	-0.454923	0.369669
H69	H	0.889580	0.225894	-0.668328
C70	C	0.889380	-0.261840	-0.679617
C71	C	0.823849	-0.364613	-0.660058
C72	C	0.823149	-0.501674	-0.703482
C73	C	0.887981	-0.535963	-0.766465
C74	C	0.953517	-0.433188	-0.786027
C75	C	0.954217	-0.296127	-0.742603
H76	H	0.775852	-0.339232	-0.613432
H77	H	0.774634	-0.577755	-0.689000
H78	H	0.887463	-0.637424	-0.798609
H79	H	1.001514	-0.458568	-0.832653
H80	H	1.002731	-0.220046	-0.757085
C81	C	0.898390	0.261494	-0.116515
C82	C	0.963913	0.364280	-0.136085
C83	C	0.964607	0.501348	-0.092667
C84	C	0.899779	0.535631	-0.029680
C85	C	0.834251	0.432842	-0.010108
C86	C	0.833556	0.295774	-0.053525
H87	H	1.011908	0.338904	-0.182714
H88	H	1.013116	0.577439	-0.107156
H89	H	0.900292	0.637097	0.002461
H90	H	0.786256	0.458218	0.036522
H91	H	0.785048	0.219683	-0.039036
H92	H	0.891859	-0.226245	-0.525124
H93	H	0.504335	-0.000143	0.229091
H94	H	0.283433	-0.000209	-0.025227
H95	H	0.895921	0.225894	-0.271009
C96	C	0.131553	-0.000224	-0.047401
C97	C	0.149956	-0.118935	-0.104117
C98	C	0.116598	-0.118956	-0.180673
C99	C	0.064838	-0.000266	-0.200513
C100	C	0.046433	0.118454	-0.143795
C101	C	0.079790	0.118475	-0.067239
H102	H	0.188274	-0.206805	-0.089432
H103	H	0.130224	-0.206842	-0.222659
H104	H	0.040145	-0.000282	-0.257184
H105	H	0.008115	0.206324	-0.158481
H106	H	0.066165	0.206360	-0.025253
H107	H	0.997021	-0.761226	-0.001130
C108	C	0.258909	-0.000172	0.244909
C109	C	0.205429	-0.000178	0.320077
C110	C	0.238782	-0.000176	0.396635
C111	C	0.325615	-0.000166	0.398026
C112	C	0.379100	-0.000160	0.322855
C113	C	0.345747	-0.000162	0.246297
H114	H	0.141146	-0.000185	0.319050
H115	H	0.199189	-0.000181	0.452281
H116	H	0.350305	-0.000165	0.454699
H117	H	0.443384	-0.000153	0.323882
H118	H	0.385341	-0.000157	0.190651
H119	H	0.895899	-0.226231	-0.271027
H120	H	0.891867	0.225893	-0.525107
H121	H	0.107018	-0.000185	0.222733
H122	H	0.697191	-0.369639	0.298472
H123	H	0.898178	-0.226242	-0.127804
H124	H	0.790762	-0.761201	0.204981
C125	C	0.528868	-0.000172	-0.041045
C126	C	0.442036	-0.000171	-0.042439
C127	C	0.408686	-0.000174	-0.118998
C128	C	0.462168	-0.000179	-0.194164
C129	C	0.549005	-0.000180	-0.192773
C130	C	0.582356	-0.000177	-0.116214
H131	H	0.402440	-0.000167	0.013206
H132	H	0.344403	-0.000173	-0.120028
H133	H	0.437480	-0.000181	-0.250838
H134	H	0.588601	-0.000183	-0.248418
H135	H	0.646639	-0.000178	-0.115184
H136	H	0.680748	-0.000156	-0.018868
H137	H	1.090560	-0.369673	-0.094605
H138	H	0.997014	-0.239154	-0.001121
H139	H	1.090572	-0.630715	-0.094608
H140	H	0.790754	-0.239129	0.204986
