data_functionalizedCrystal
_audit_creation_method	'MofGen! by Chris Wilmer'
_symmetry_space_group_name_H-M	'P1'
_symmetry_Int_Tables_number	1
_symmetry_cell_setting	triclinic
loop_
_symmetry_equiv_pos_as_xyz
  x,y,z
_cell_length_a	20.919309
_cell_length_b	12.970454
_cell_length_c	12.970454
_cell_angle_alpha	59.999776
_cell_angle_beta	89.998754
_cell_angle_gamma	57.441317
loop_
_atom_site_label
_atom_site_type_symbol
_atom_site_fract_x
_atom_site_fract_y
_atom_site_fract_z
Zr1	Zr	0.641765	1.047964	-0.095045
O2	O	0.535394	1.276406	-0.266343
O3	O	0.674373	0.828780	-0.042532
O4	O	0.674374	1.043870	-0.257623
O5	O	0.535393	1.061317	0.118415
O6	O	0.784004	1.030109	-0.250746
O7	O	0.535393	1.061316	-0.051252
O8	O	0.784002	0.645353	0.134013
O9	O	0.535394	1.446073	-0.266344
O10	O	0.770095	0.905235	-0.015004
O11	O	0.688280	0.915506	0.106483
O12	O	0.688281	1.168746	-0.146759
O13	O	0.606465	1.179016	-0.025271
Zr14	Zr	0.816610	1.026018	0.186522
Zr15	Zr	0.816611	1.026017	-0.084076
Zr16	Zr	0.641764	1.047966	0.175554
Zr17	Zr	0.641765	1.318564	-0.095046
Zr18	Zr	0.816610	0.755419	0.186524
O19	O	0.784002	1.245202	0.134010
O20	O	0.784004	1.245200	-0.250747
O21	O	0.535393	1.276408	0.118413
O22	O	0.922981	0.797577	0.357820
O23	O	0.922982	0.797574	-0.026936
O24	O	0.674371	0.828783	0.342224
O25	O	0.922982	1.012665	-0.026937
O26	O	0.784001	1.030113	0.349100
O27	O	0.674371	1.043874	0.342223
O28	O	0.922982	1.012666	0.142729
O29	O	0.674374	1.428628	-0.257625
O30	O	0.784001	0.645354	0.349102
O31	O	0.922981	0.627909	0.357821
O32	O	0.922982	0.627908	0.142731
O33	O	0.535393	1.446075	-0.051254
O34	O	0.674373	1.428629	-0.042535
O35	O	0.770094	0.905237	0.238236
O36	O	0.851910	0.894966	0.116748
O37	O	0.770095	1.158477	-0.015006
O38	O	0.688280	1.168747	0.106482
C39	C	0.729187	0.698512	0.045740
C40	C	0.729187	0.583635	0.045741
C41	C	0.510481	1.064444	0.032018
C42	C	0.436254	1.073761	0.027362
C43	C	0.444086	0.940592	0.093942
C44	C	0.374340	0.949356	0.089564
C45	C	0.296761	1.091290	0.018597
C46	C	0.288930	1.224469	-0.047984
C47	C	0.358676	1.215704	-0.043598
C48	C	0.084036	1.124636	0.001920
C49	C	0.014289	1.133390	-0.002465
C50	C	0.099703	0.858276	0.135086
C51	C	0.169446	0.849524	0.139460
C52	C	0.161610	0.982703	0.072884
C53	C	0.225467	1.100251	0.014117
C54	C	0.232903	0.973740	0.077372
C55	C	0.947894	1.009539	0.059459
C56	C	1.022121	1.000221	0.064115
C57	C	0.729189	1.036989	-0.292739
C58	C	0.729190	1.036989	-0.407615
C59	C	0.729188	1.375470	0.045737
C60	C	0.729188	1.490347	0.045736
C61	C	0.729186	1.036993	0.384216
C62	C	0.729185	1.036994	0.499092
C63	C	0.947894	0.671059	0.059461
C64	C	1.022121	0.546865	0.064118
C65	C	0.729186	0.698514	0.384218
C66	C	0.729185	0.583638	0.499095
C67	C	0.947892	0.671061	0.397938
C68	C	1.022119	0.546868	0.517471
C69	C	0.510483	1.402921	-0.306461
C70	C	0.436256	1.527114	-0.425994
C71	C	0.510481	1.402923	0.032017
C72	C	0.436254	1.527117	0.027360
C73	C	0.729189	1.375468	-0.292740
C74	C	0.729190	1.490345	-0.407617
C75	C	1.014272	0.493903	-0.002480
C76	C	1.084010	0.377225	0.001870
C77	C	1.161595	0.313505	0.072826
C78	C	1.169442	0.366478	0.139426
C79	C	1.099705	0.483161	0.135068
C80	C	1.099691	0.483184	0.510190
C81	C	1.169441	0.366505	0.622495
C82	C	1.161618	0.313506	0.742078
C83	C	1.084037	0.377202	0.749356
C84	C	1.014289	0.493886	0.637053
C85	C	0.358684	1.590812	-0.418713
C86	C	0.288934	1.707524	-0.531017
C87	C	0.296757	1.760529	-0.650601
C88	C	0.374337	1.696826	-0.657879
C89	C	0.444086	1.580123	-0.545576
C90	C	0.444103	1.580091	0.093946
C91	C	0.374365	1.696798	0.089566
C92	C	0.296780	1.760522	0.018606
C93	C	0.288933	1.707544	-0.047988
C94	C	0.358670	1.590846	-0.043615
H95	H	0.507251	0.825014	0.151736
H96	H	0.225772	1.759372	-0.525067
H97	H	1.218372	0.218494	0.076365
F98	F	0.931733	0.561645	0.644822
F99	F	1.251999	0.298731	0.614722
H100	H	1.232621	0.314580	0.197196
F101	F	1.235858	0.189317	0.861592
H102	H	0.352299	1.547663	-0.321353
H103	H	1.106107	0.526268	0.189308
H104	H	0.239957	1.855556	-0.742035
H105	H	1.077680	0.334032	0.846736
F106	F	0.382651	1.753252	-0.785160
H107	H	0.352294	1.324144	-0.097799
F108	F	0.222567	1.884722	0.013965
F109	F	0.931706	0.561702	-0.078010
F110	F	1.108036	0.539574	0.382932
H111	H	0.507247	1.528262	-0.551519
H112	H	0.507271	1.528215	0.151738
H113	H	0.380771	1.739913	0.143801
F114	F	0.315467	0.822689	0.152908
H115	H	0.225754	1.759446	-0.105763
F116	F	0.350304	1.534472	-0.114483
H117	H	0.380724	0.840915	0.143782
H118	H	1.077604	0.334110	-0.052364
H119	H	-0.048881	1.248976	-0.060260
F120	F	0.252009	0.698458	0.214992
H121	H	0.106074	0.749850	0.189290
H122	H	0.225760	1.340034	-0.105760
F123	F	0.142898	1.251303	-0.061409
F124	F	0.075687	1.266378	-0.068941
