data_functionalizedCrystal
_audit_creation_method	'MofGen! by Chris Wilmer'
_symmetry_space_group_name_H-M	'P1'
_symmetry_Int_Tables_number	1
_symmetry_cell_setting	triclinic
loop_
_symmetry_equiv_pos_as_xyz
  x,y,z
_cell_length_a	29.839134
_cell_length_b	29.839131
_cell_length_c	11.169409
_cell_angle_alpha	89.959881
_cell_angle_beta	89.964765
_cell_angle_gamma	90.034165
loop_
_atom_site_label
_atom_site_type_symbol
_atom_site_fract_x
_atom_site_fract_y
_atom_site_fract_z
Zn1	Zn	0.686768	-0.178904	-0.678971
Zn2	Zn	0.686686	-0.254045	-0.478261
Zn3	Zn	0.611637	-0.178921	-0.478251
Zn4	Zn	0.611599	-0.253998	-0.678852
O5	O	0.649172	-0.216467	-0.578584
O6	O	0.749624	-0.188884	-0.652400
O7	O	0.676712	-0.244107	-0.310310
O8	O	0.621653	-0.116051	-0.504924
O9	O	0.749564	-0.244090	-0.504939
O10	O	0.676852	-0.116039	-0.652391
O11	O	0.621573	-0.188913	-0.310303
O12	O	0.548764	-0.188867	-0.504808
O13	O	0.621589	-0.244010	-0.846817
O14	O	0.548737	-0.244026	-0.652188
O15	O	0.676815	-0.188838	-0.846905
O16	O	0.676675	-0.316906	-0.504823
O17	O	0.621509	-0.316871	-0.652197
C18	C	0.532450	-0.216444	-0.578484
C19	C	0.482515	-0.216444	-0.578470
C20	C	0.649091	-0.333189	-0.578524
C21	C	0.649098	-0.383124	-0.578539
C22	C	0.125930	-0.187703	-0.502000
C23	C	0.313603	-0.187690	-0.501927
O24	O	0.337870	-0.163215	-0.436797
N25	N	0.337070	-0.216452	-0.578531
C26	C	0.313616	-0.245216	-0.655164
O27	O	0.337882	-0.269676	-0.720328
C28	C	0.125944	-0.245226	-0.655242
C29	C	0.102479	-0.216466	-0.578624
C30	C	0.102466	-0.158945	-0.425389
C31	C	0.055550	-0.158950	-0.425404
C32	C	0.032099	-0.187713	-0.502028
C33	C	0.055564	-0.216471	-0.578639
C34	C	0.102490	-0.273988	-0.731881
C35	C	0.055569	-0.273987	-0.731895
C36	C	0.032105	-0.245227	-0.655278
C37	C	-0.014803	-0.245240	-0.655278
N38	N	-0.038269	-0.216478	-0.578674
C39	C	-0.014819	-0.187715	-0.502049
C40	C	0.412147	-0.245209	-0.655116
C41	C	0.459064	-0.245207	-0.655095
C42	C	0.459048	-0.187681	-0.501859
C43	C	0.412130	-0.187686	-0.501875
C44	C	0.388680	-0.216448	-0.578512
C45	C	-0.113344	-0.187729	-0.502084
C46	C	-0.160264	-0.187738	-0.502102
C47	C	-0.160244	-0.245262	-0.655342
C48	C	-0.113328	-0.245255	-0.655320
C49	C	-0.089880	-0.216485	-0.578688
O50	O	-0.039098	-0.269698	-0.720383
O51	O	-0.039093	-0.163252	-0.436914
C52	C	0.172846	-0.187698	-0.501985
C53	C	0.196310	-0.216456	-0.578596
C54	C	0.172859	-0.245219	-0.655221
C55	C	0.243228	-0.216454	-0.578575
C56	C	0.266679	-0.187691	-0.501950
C57	C	0.243212	-0.158930	-0.425346
C58	C	0.196297	-0.158935	-0.425360
C59	C	0.196326	-0.273980	-0.731825
C60	C	0.243242	-0.273973	-0.731803
C61	C	0.266693	-0.245210	-0.655178
C62	C	0.677950	-0.692773	-0.501959
C63	C	0.678005	-0.880446	-0.502005
O64	O	0.702472	-0.904715	-0.436848
N65	N	0.649265	-0.903909	-0.578674
C66	C	0.620512	-0.880451	-0.655343
O67	O	0.596072	-0.904714	-0.720564
C68	C	0.620459	-0.692779	-0.655301
C69	C	0.649197	-0.669318	-0.578619
C70	C	0.706686	-0.669312	-0.425283
C71	C	0.706670	-0.622396	-0.425268
C72	C	0.677918	-0.598942	-0.501928
C73	C	0.649182	-0.622403	-0.578603
C74	C	0.591708	-0.669322	-0.731975
C75	C	0.591698	-0.622401	-0.731960
C76	C	0.620437	-0.598940	-0.655277
C77	C	0.620413	-0.552033	-0.655248
N78	N	0.649153	-0.528569	-0.578578
C79	C	0.677905	-0.552024	-0.501919
C80	C	0.620541	-0.978982	-0.655357
C81	C	0.620554	-1.025899	-0.655366
C82	C	0.678048	-1.025891	-0.502030
C83	C	0.678032	-0.978972	-0.502016
C84	C	0.649281	-0.955518	-0.578688
C85	C	0.677870	-0.453498	-0.501891
C86	C	0.677850	-0.406579	-0.501879
C87	C	0.620358	-0.406591	-0.655219
C88	C	0.620376	-0.453507	-0.655227
C89	C	0.649135	-0.476959	-0.578559
O90	O	0.595963	-0.527734	-0.720380
O91	O	0.702349	-0.527753	-0.436726
C92	C	0.677966	-0.739688	-0.501974
C93	C	0.649229	-0.763149	-0.578650
C94	C	0.620477	-0.739694	-0.655309
C95	C	0.649242	-0.810067	-0.578659
C96	C	0.677994	-0.833521	-0.501999
C97	C	0.706734	-0.810058	-0.425330
C98	C	0.706718	-0.763143	-0.425314
C99	C	0.591737	-0.763158	-0.731979
C100	C	0.591755	-0.810073	-0.731987
C101	C	0.620507	-0.833528	-0.655327
C102	C	0.766351	-0.216491	-0.578684
C103	C	0.816285	-0.216501	-0.578727
C104	C	0.649207	-0.216417	-0.891626
C105	C	0.649222	-0.216396	-1.025026
C106	C	0.649266	-0.099289	-0.578670
C107	C	0.649306	-0.049354	-0.578706
C108	C	0.649164	-0.216484	-0.266759
C109	C	0.649236	-0.216379	-0.133360
H110	H	-0.179367	-0.164317	-0.439707
H111	H	0.701459	-1.044996	-0.439611
H112	H	0.121554	-0.135520	-0.362992
H113	H	0.730119	-0.744044	-0.362872
H114	H	0.121587	-0.297408	-0.794270
H115	H	0.597148	-1.044997	-0.717798
H116	H	-0.094258	-0.164299	-0.439688
C117	C	0.029777	-0.305631	-0.816200
N118	N	0.010352	-0.329466	-0.879694
H119	H	0.701434	-0.959873	-0.439575
C120	C	0.560095	-0.695118	-0.816337
N121	N	0.536282	-0.714547	-0.879886
H122	H	0.730143	-0.829163	-0.362907
C123	C	0.709463	-0.380774	-0.417513
N124	N	0.733274	-0.361340	-0.353969
H125	H	0.036449	-0.135531	-0.363014
H126	H	0.568349	-0.829171	-0.794430
H127	H	0.568324	-0.744064	-0.794406
H128	H	0.262314	-0.135511	-0.362951
H129	H	0.597127	-0.959889	-0.717795
C130	C	-0.087517	-0.276893	-0.739600
N131	N	-0.068078	-0.300720	-0.803091
H132	H	0.568286	-0.603307	-0.794400
C133	C	0.170537	-0.305630	-0.816106
N134	N	0.151114	-0.329475	-0.879582
C135	C	0.386323	-0.156044	-0.417599
N136	N	0.366888	-0.132209	-0.354123
H137	H	0.701289	-0.472587	-0.439463
H138	H	0.478150	-0.164262	-0.439467
C139	C	0.588761	-0.479314	-0.739577
N140	N	0.564951	-0.498749	-0.803121
C141	C	-0.186049	-0.276899	-0.739628
N142	N	-0.205487	-0.300725	-0.803120
C143	C	0.738281	-0.596596	-0.340900
N144	N	0.762091	-0.577166	-0.277347
H145	H	0.177196	-0.135515	-0.362971
H146	H	0.262343	-0.297397	-0.794192
C147	C	0.738316	-0.695105	-0.340937
N148	N	0.762139	-0.714529	-0.277394
H149	H	0.478165	-0.268631	-0.717472
C150	C	0.386357	-0.276860	-0.739409
N151	N	0.366935	-0.300703	-0.802889
H152	H	0.596947	-0.387487	-0.717631
