data_functionalizedCrystal
_audit_creation_method	'MofGen! by Chris Wilmer'
_symmetry_space_group_name_H-M	'P1'
_symmetry_Int_Tables_number	1
_symmetry_cell_setting	triclinic
loop_
_symmetry_equiv_pos_as_xyz
  x,y,z
_cell_length_a	15.297475
_cell_length_b	15.297327
_cell_length_c	15.297908
_cell_angle_alpha	110.755734
_cell_angle_beta	72.640407
_cell_angle_gamma	91.625546
loop_
_atom_site_label
_atom_site_type_symbol
_atom_site_fract_x
_atom_site_fract_y
_atom_site_fract_z
Zn1	Zn	1.401251	-0.754794	-0.882695
Zn2	Zn	1.901251	-0.254794	-0.382695
Zn3	Zn	1.356634	-0.874065	-0.744760
Zn4	Zn	1.856634	-0.374065	-0.244760
Zn5	Zn	1.228159	-0.691656	-0.691033
Zn6	Zn	1.728159	-0.191656	-0.191033
Zn7	Zn	1.228095	-0.873985	-0.873348
Zn8	Zn	1.728095	-0.373985	-0.373348
O9	O	1.303535	-0.798625	-0.797959
O10	O	1.803535	-0.298625	-0.297959
O11	O	1.521565	-0.797073	-0.890794
O12	O	2.021565	-0.297073	-0.390794
O13	O	1.320945	-0.823478	-0.603608
O14	O	1.820945	-0.323478	-0.103608
O15	O	1.269819	-0.573811	-0.697885
O16	O	1.769819	-0.073811	-0.197885
O17	O	1.488785	-0.884700	-0.789454
O18	O	1.988785	-0.384700	-0.289454
O19	O	1.396989	-0.620198	-0.838698
O20	O	1.896989	-0.120198	-0.338698
O21	O	1.226555	-0.689463	-0.564135
O22	O	1.726555	-0.189463	-0.064135
O23	O	1.101917	-0.689385	-0.688821
O24	O	1.601917	-0.189385	-0.188821
O25	O	1.269711	-0.884564	-1.008613
O26	O	1.769711	-0.384564	-0.508613
O27	O	1.101871	-0.823341	-0.822767
O28	O	1.601871	-0.323341	-0.322767
O29	O	1.396927	-0.796995	-1.015481
O30	O	1.896927	-0.296995	-0.515481
O31	O	1.320884	-1.000274	-0.780391
O32	O	1.820884	-0.500274	-0.280391
O33	O	1.226447	-1.000216	-0.874863
O34	O	1.726447	-0.500216	-0.374863
C35	C	1.069163	-0.749504	-0.748950
C36	C	1.569163	-0.249504	-0.248950
C37	C	0.968898	-0.728516	-0.728010
C38	C	1.468898	-0.228516	-0.228010
C39	C	0.686163	-0.948636	-0.947626
C40	C	1.186163	-0.448636	-0.447626
C41	C	0.780365	-0.968362	-0.967299
C42	C	1.280365	-0.468362	-0.467299
C43	C	0.827503	-0.908402	-0.907479
C44	C	1.327503	-0.408402	-0.407479
C45	C	0.780429	-0.828713	-0.827982
C46	C	1.280429	-0.328713	-0.327982
C47	C	0.686215	-0.808990	-0.808302
C48	C	1.186215	-0.308990	-0.308302
C49	C	0.827556	-0.768755	-0.768155
C50	C	1.327556	-0.268755	-0.268155
C51	C	0.780481	-0.689067	-0.688658
C52	C	1.280481	-0.189067	-0.188658
C53	C	0.686277	-0.669347	-0.668983
C54	C	1.186277	-0.169347	-0.168983
C55	C	0.639139	-0.729306	-0.728803
C56	C	1.139139	-0.229306	-0.228803
C57	C	0.921769	-0.788479	-0.787834
C58	C	1.421769	-0.288479	-0.287834
C59	C	0.921822	-0.648832	-0.648510
C60	C	1.421822	-0.148832	-0.148510
C61	C	0.827619	-0.629107	-0.628838
C62	C	1.327619	-0.129107	-0.128838
C63	C	1.268845	-1.032982	-0.832469
C64	C	1.768845	-0.532982	-0.332469
C65	C	1.254091	-1.133264	-0.847281
C66	C	1.754091	-0.633264	-0.347281
C67	C	1.409398	-1.416016	-0.692495
C68	C	1.909398	-0.916016	-0.192495
C69	C	1.423259	-1.321794	-0.678573
C70	C	1.923259	-0.821794	-0.178573
C71	C	1.380968	-1.274657	-0.720749
C72	C	1.880968	-0.774657	-0.220749
C73	C	1.324814	-1.321751	-0.776849
C74	C	1.824814	-0.821751	-0.276849
C75	C	1.310946	-1.415979	-0.790767
C76	C	1.810946	-0.915979	-0.290767
C77	C	1.282517	-1.274621	-0.819021
C78	C	1.782517	-0.774621	-0.319021
C79	C	1.226363	-1.321714	-0.875121
C80	C	1.726363	-0.821714	-0.375121
C81	C	1.212498	-1.415934	-0.889036
C82	C	1.712498	-0.915934	-0.389036
C83	C	1.254788	-1.463071	-0.846860
C84	C	1.754788	-0.963071	-0.346860
C85	C	1.296384	-1.180392	-0.805103
C86	C	1.796384	-0.680392	-0.305103
C87	C	1.197933	-1.180356	-0.903375
C88	C	1.697933	-0.680356	-0.403375
C89	C	1.184072	-1.274577	-0.917297
C90	C	1.684072	-0.774577	-0.417297
C91	C	1.538821	-0.847939	-0.847160
C92	C	2.038821	-0.347939	-0.347160
C93	C	1.639087	-0.868953	-0.868127
C94	C	2.139087	-0.368953	-0.368127
C95	C	1.338289	-0.847814	-1.047770
C96	C	1.838289	-0.347814	-0.547770
C97	C	1.353099	-0.868775	-1.154225
C98	C	1.853099	-0.368775	-0.654225
C99	C	1.338388	-0.563362	-0.763341
C100	C	1.838388	-0.063362	-0.263341
C101	C	1.353240	-0.463107	-0.748589
C102	C	1.853240	0.036893	-0.248589
C103	C	1.198279	-0.648768	-1.372107
C104	C	1.698279	-0.148768	-0.872107
C105	C	1.184367	-0.629066	-1.272086
C106	C	1.684367	-0.129066	-0.772086
C107	C	1.226548	-0.688991	-1.242616
C108	C	1.726548	-0.188991	-0.742616
C109	C	1.282645	-0.768623	-1.313176
C110	C	1.782645	-0.268623	-0.813176
C111	C	1.296564	-0.788324	-1.413206
C112	C	1.796564	-0.288324	-0.913206
C113	C	1.324833	-0.828547	-1.283715
C114	C	1.824833	-0.328547	-0.783715
C115	C	1.380930	-0.908178	-1.354275
C116	C	1.880930	-0.408178	-0.854275
C117	C	1.394846	-0.927876	-1.454295
C118	C	1.894846	-0.427876	-0.954295
C119	C	1.352665	-0.867950	-1.483766
C120	C	1.852665	-0.367950	-0.983766
C121	C	1.310914	-0.808846	-1.183685
C122	C	1.810914	-0.308846	-0.683685
C123	C	1.409200	-0.948401	-1.224784
C124	C	1.909200	-0.448401	-0.724784
C125	C	1.423112	-0.968104	-1.324805
C126	C	1.923112	-0.468104	-0.824805
C127	C	1.268977	-0.749573	-0.549121
C128	C	1.768977	-0.249573	-0.049121
C129	C	1.254379	-0.728395	-0.442666
C130	C	1.754379	-0.228395	0.057334
H131	H	0.647949	-0.604466	-0.604242
H132	H	1.147949	-0.104466	-0.104242
O133	O	0.537531	-0.708032	-0.707589
O134	O	1.037531	-0.208032	-0.207589
H135	H	0.512714	-0.642547	-0.642263
H136	H	1.012714	-0.142547	-0.142263
O137	O	1.123868	-0.543185	-1.195983
O138	O	1.623868	-0.043185	-0.695983
H139	H	1.164713	-0.496788	-1.152116
H140	H	1.664713	0.003212	-0.652116
O141	O	1.455011	-1.466842	-0.647003
O142	O	1.955011	-0.966842	-0.147003
H143	H	1.530761	-1.466760	-0.675606
H144	H	2.030761	-0.966760	-0.175606
H145	H	1.265241	-0.744008	-1.126244
H146	H	1.765241	-0.244008	-0.626244
H147	H	0.789277	-0.564224	-0.564110
H148	H	1.289277	-0.064224	-0.064110
H149	H	1.215217	-0.672945	-1.161173
H150	H	1.715217	-0.172945	-0.661173
O151	O	0.972650	-0.584149	-0.583984
O152	O	1.472650	-0.084149	-0.083984
H153	H	1.046069	-0.611244	-0.611030
H154	H	1.546069	-0.111244	-0.111030
H155	H	1.342105	-1.142057	-0.759426
H156	H	1.842105	-0.642057	-0.259426
O157	O	1.152815	-0.584119	-1.403891
O158	O	1.652815	-0.084119	-0.903891
H159	H	1.171926	-0.611194	-1.485299
H160	H	1.671926	-0.111194	-0.985299
H161	H	1.392256	-1.197937	-0.709409
H162	H	1.892256	-0.697937	-0.209409
O163	O	1.239838	-1.564700	-0.861883
O164	O	1.739838	-1.064700	-0.361883
H165	H	1.165446	-1.571536	-0.831931
H166	H	1.665446	-1.071536	-0.331931
H167	H	1.363983	-0.883992	-1.565209
H168	H	1.863983	-0.383992	-1.065209
O169	O	1.151928	-1.466731	-0.949536
O170	O	1.651928	-0.966731	-0.449536
H171	H	1.124856	-1.418130	-0.976534
H172	H	1.624856	-0.918130	-0.476534
H173	H	1.468978	-1.283454	-0.632896
H174	H	1.968978	-0.783454	-0.132896
H175	H	0.647773	-0.997451	-0.996318
H176	H	1.147773	-0.497451	-0.496318
O177	O	0.831138	-1.054306	-1.053033
O178	O	1.331138	-0.554306	-0.553033
H179	H	0.886826	-1.032604	-1.104860
H180	H	1.386826	-0.532604	-0.604860
O181	O	1.123492	-1.325374	-0.977785
O182	O	1.623492	-0.825374	-0.477785
H183	H	1.164300	-1.386313	-1.041308
H184	H	1.664300	-0.886313	-0.541308
H185	H	1.443550	-0.997196	-1.200791
H186	H	1.943550	-0.497196	-0.700791
O187	O	1.152317	-1.129531	-0.948876
O188	O	1.652317	-0.629531	-0.448876
H189	H	1.171403	-1.056104	-0.929784
H190	H	1.671403	-0.556104	-0.429784
H191	H	1.440532	-0.992711	-1.511745
H192	H	1.940532	-0.492711	-1.011745
O193	O	1.483617	-1.053991	-1.400907
O194	O	1.983617	-0.553991	-0.900907
H195	H	1.541839	-1.032218	-1.450133
H196	H	2.041839	-0.532218	-0.950133
O197	O	0.972547	-0.874411	-0.873583
O198	O	1.472547	-0.374411	-0.373583
H199	H	0.941694	-0.938142	-0.863691
H200	H	1.441694	-0.438142	-0.363691
O201	O	0.929108	-0.929671	-0.928691
O202	O	1.429108	-0.429671	-0.428691
H203	H	0.953925	-0.995152	-0.994023
H204	H	1.453925	-0.495152	-0.494023
