data_functionalizedCrystal
_audit_creation_method	'MofGen! by Chris Wilmer'
_symmetry_space_group_name_H-M	'P1'
_symmetry_Int_Tables_number	1
_symmetry_cell_setting	triclinic
loop_
_symmetry_equiv_pos_as_xyz
  x,y,z
_cell_length_a	15.298709
_cell_length_b	15.299816
_cell_length_c	10.685986
_cell_angle_alpha	83.955911
_cell_angle_beta	75.319814
_cell_angle_gamma	88.426258
loop_
_atom_site_label
_atom_site_type_symbol
_atom_site_fract_x
_atom_site_fract_y
_atom_site_fract_z
Zn1	Zn	1.374030	-0.098739	0.405359
Zn2	Zn	1.410644	-0.253247	0.222944
Zn3	Zn	1.238184	-0.131655	0.235176
Zn4	Zn	1.248420	-0.267368	0.476514
O5	O	1.317819	-0.187752	0.334998
O6	O	1.503630	-0.099550	0.346264
O7	O	1.398806	-0.244984	0.047225
O8	O	1.236598	-0.005830	0.233091
O9	O	1.530530	-0.213067	0.212245
O10	O	1.336403	0.018353	0.358124
O11	O	1.272101	-0.155650	0.056211
O12	O	1.114799	-0.169343	0.302087
O13	O	1.254043	-0.237133	0.644417
O14	O	1.122319	-0.269050	0.479397
O15	O	1.346328	-0.113242	0.592140
O16	O	1.408731	-0.376579	0.281241
O17	O	1.289546	-0.386954	0.467537
C18	C	1.086215	-0.224301	0.399792
C19	C	0.987135	-0.239957	0.427545
C20	C	0.944551	-0.299314	0.532786
C21	C	0.851459	-0.314018	0.558873
C22	C	0.800943	-0.269371	0.479715
C23	C	0.843527	-0.210018	0.374467
C24	C	0.936627	-0.195307	0.348383
C25	C	0.793018	-0.165365	0.295313
C26	C	0.835602	-0.106011	0.190064
C27	C	0.928693	-0.091303	0.163985
C28	C	0.979210	-0.135950	0.243142
C29	C	0.699918	-0.180075	0.321396
C30	C	0.691993	-0.076069	0.136993
C31	C	0.785085	-0.061365	0.110907
C32	C	1.354245	-0.413254	0.380804
C33	C	1.369906	-0.509710	0.400419
C34	C	1.206440	-0.832238	0.195071
C35	C	1.191720	-0.741614	0.176646
C36	C	1.236266	-0.683633	0.232587
C37	C	1.295533	-0.716286	0.306958
C38	C	1.310249	-0.806920	0.325393
C39	C	1.340075	-0.658316	0.362909
C40	C	1.399342	-0.690969	0.437280
C41	C	1.414056	-0.781594	0.455711
C42	C	1.369510	-0.839574	0.399770
C43	C	1.325359	-0.567682	0.344474
C44	C	1.429168	-0.542364	0.474796
C45	C	1.443887	-0.632988	0.493221
C46	C	1.550329	-0.151061	0.269953
C47	C	1.649410	-0.135426	0.242234
C48	C	1.297243	-0.173091	0.665547
C49	C	1.288474	-0.166843	0.806407
C50	C	1.281274	0.038635	0.289035
C51	C	1.265701	0.135108	0.269448
C52	C	1.338357	-0.202286	0.005709
C53	C	1.347259	-0.208262	-0.135249
H54	H	0.665255	-0.228401	0.407092
O55	O	1.472302	-0.485973	0.529219
C56	C	1.407903	-0.437975	0.614587
H57	H	1.340969	-0.437115	0.585958
H58	H	1.432789	-0.367723	0.608484
H59	H	1.397879	-0.470272	0.718348
H60	H	1.231438	-0.126600	0.864224
O61	O	1.069641	-0.121592	0.217584
C62	C	1.096393	-0.059610	0.107744
H63	H	1.045359	-0.059130	0.046283
H64	H	1.165886	-0.078048	0.047450
H65	H	1.099568	0.008467	0.140678
H66	H	1.277103	-0.541104	0.283921
H67	H	0.963361	-0.042968	0.078291
O68	O	0.710528	-0.283784	0.505200
C69	C	0.683770	-0.345727	0.615088
H70	H	0.744524	-0.387196	0.627986
H71	H	0.629182	-0.390161	0.600905
H72	H	0.655967	-0.309913	0.705229
O73	O	1.415194	-0.256381	0.795789
C74	C	1.378200	-0.323787	0.744773
H75	H	1.306399	-0.338476	0.805469
H76	H	1.421323	-0.385568	0.747677
H77	H	1.376965	-0.301826	0.639924
O78	O	0.810246	-0.371736	0.661109
C79	C	0.874790	-0.407977	0.725397
H80	H	0.944851	-0.402737	0.655493
H81	H	0.858123	-0.480034	0.760162
H82	H	0.873588	-0.370467	0.812519
H83	H	0.985689	-0.335654	0.597230
O84	O	0.826579	-0.003815	0.008611
C85	C	0.893474	-0.048280	-0.078434
H86	H	0.915287	-0.109924	-0.024434
H87	H	0.954276	-0.003322	-0.120849
H88	H	0.864955	-0.067549	-0.160405
H89	H	1.492143	-0.659588	0.553775
H90	H	1.224278	-0.609843	0.217579
O91	O	0.642809	-0.032814	0.060166
C92	C	0.551509	-0.058519	0.105761
H93	H	0.547068	-0.125709	0.164301
H94	H	0.521063	-0.062359	0.019545
H95	H	0.512568	-0.008279	0.170304
H96	H	1.170173	-0.879453	0.149539
O97	O	1.134161	-0.710040	0.104314
C98	C	1.097986	-0.780646	0.058912
H99	H	1.145254	-0.839649	0.057489
H100	H	1.090508	-0.760418	-0.043624
H101	H	1.028944	-0.798964	0.126156
O102	O	1.383778	-0.927601	0.417912
C103	C	1.358142	-0.956107	0.551921
H104	H	1.360309	-0.898212	0.610056
H105	H	1.406759	-1.009361	0.575576
H106	H	1.286631	-0.983797	0.578493
O107	O	1.471557	-0.813215	0.528123
C108	C	1.440541	-0.788554	0.655380
H109	H	1.395427	-0.728077	0.654184
H110	H	1.500791	-0.772704	0.693632
H111	H	1.400327	-0.844937	0.721227
