data_functionalizedCrystal
_audit_creation_method	'MofGen! by Chris Wilmer'
_symmetry_space_group_name_H-M	'P1'
_symmetry_Int_Tables_number	1
_symmetry_cell_setting	triclinic
loop_
_symmetry_equiv_pos_as_xyz
  x,y,z
_cell_length_a	17.000371
_cell_length_b	17.019294
_cell_length_c	15.500227
_cell_angle_alpha	88.951630
_cell_angle_beta	87.380458
_cell_angle_gamma	79.505866
loop_
_atom_site_label
_atom_site_type_symbol
_atom_site_fract_x
_atom_site_fract_y
_atom_site_fract_z
O1	O	1.059871	0.024409	-0.073766
O2	O	0.828215	0.052925	-0.075891
O3	O	0.950068	-0.076148	-0.066271
O4	O	0.938019	0.153482	-0.083386
O5	O	0.942673	-0.068345	0.077036
O6	O	0.820821	0.060729	0.067416
O7	O	1.052477	0.032212	0.069541
Cu8	Cu	0.935974	0.047183	0.081564
Cu9	Cu	0.944718	0.037954	-0.087913
O10	O	0.930624	0.161286	0.059921
C11	C	0.794869	0.058359	-0.004351
C12	C	0.706522	0.062913	-0.004691
C13	C	0.674307	-0.007176	0.000535
C14	C	0.591296	-0.002892	0.000209
C15	C	0.540501	0.071482	-0.005336
C16	C	0.572721	0.141576	-0.010564
C17	C	0.655731	0.137291	-0.010245
C18	C	0.289400	0.088033	-0.006575
C19	C	0.206385	0.092313	-0.006892
C20	C	0.224966	-0.052156	0.003880
C21	C	0.307976	-0.056434	0.004204
C22	C	0.340189	0.013660	-0.001029
C23	C	0.455650	0.075863	-0.005666
C24	C	0.425039	0.009278	-0.000705
C25	C	0.945768	-0.101483	0.007560
C26	C	0.943963	-0.188598	0.014048
C27	C	0.947147	-0.233774	-0.061020
C28	C	0.945446	-0.315627	-0.054922
C29	C	0.940566	-0.352303	0.026246
C30	C	0.937379	-0.307120	0.101319
C31	C	0.939074	-0.225268	0.095220
C32	C	0.935239	-0.599230	0.048570
C33	C	0.933545	-0.681089	0.054663
C34	C	0.941611	-0.689590	-0.101579
C35	C	0.943311	-0.607736	-0.107671
C36	C	0.940120	-0.562560	-0.032597
C37	C	0.938829	-0.435970	0.032481
C38	C	0.941851	-0.478893	-0.038834
C39	C	1.085824	0.026779	-0.002000
C40	C	1.174170	0.022224	-0.001666
C41	C	0.934924	0.186620	-0.013912
C42	C	0.936730	0.273735	-0.020405
N43	N	0.929829	0.053673	0.200765
N44	N	0.950869	0.031457	-0.207114
C45	C	0.981480	-0.001002	0.250117
C46	C	0.976840	0.003913	0.340323
C47	C	0.920552	0.063508	0.381176
C48	C	0.868896	0.118186	0.331818
C49	C	0.873532	0.113266	0.241613
C50	C	0.903849	0.081216	0.653323
C51	C	0.899218	0.086133	0.743534
C52	C	1.007162	-0.028141	0.752034
C53	C	1.011797	-0.033052	0.661827
C54	C	0.960138	0.021623	0.612476
C55	C	0.915810	0.068535	0.473381
C56	C	0.964877	0.016592	0.520273
H57	H	0.681959	0.194365	-0.014496
H58	H	1.010703	-0.031933	0.487008
H59	H	0.165028	0.152881	-0.011403
H60	H	0.861788	0.125736	0.613149
C61	C	1.043398	-0.066558	0.205184
C62	C	1.048506	-0.071974	0.105962
C63	C	1.110424	-0.137534	0.061033
C64	C	1.167235	-0.197678	0.115324
C65	C	1.162130	-0.192265	0.214551
C66	C	1.100212	-0.126705	0.259481
H67	H	1.006449	-0.027450	0.065768
H68	H	1.114202	-0.141541	-0.012422
H69	H	1.213070	-0.246210	0.082064
H70	H	1.204186	-0.236789	0.254746
H71	H	1.096433	-0.122697	0.332935
C72	C	0.730178	-0.088990	0.006634
C73	C	0.793640	-0.115854	-0.066081
C74	C	0.849509	-0.197671	-0.059985
C75	C	0.841915	-0.252624	0.018826
C76	C	0.778450	-0.225761	0.091546
C77	C	0.722581	-0.143944	0.085450
H78	H	0.799264	-0.075174	-0.124426
H79	H	0.896490	-0.217557	-0.113818
H80	H	0.883272	-0.313189	0.023338
H81	H	0.772826	-0.266441	0.149892
H82	H	0.675601	-0.124058	0.139283
C83	C	1.063979	-0.088287	0.806319
C84	C	1.155237	-0.093858	0.794258
C85	C	1.212055	-0.154009	0.848542
C86	C	1.177615	-0.208590	0.914888
C87	C	1.086352	-0.203021	0.926953
C88	C	1.029535	-0.142869	0.872668
H89	H	1.180736	-0.053452	0.745142
H90	H	1.279614	-0.158132	0.839611
H91	H	1.219675	-0.253118	0.955073
H92	H	1.060854	-0.243426	0.976069
H93	H	0.961976	-0.138747	0.881599
H94	H	0.823061	0.166707	0.365085
C95	C	0.933445	-0.476325	0.121758
C96	C	0.861305	-0.447875	0.184331
C97	C	0.855909	-0.488236	0.273604
C98	C	0.922653	-0.557047	0.300303
C99	C	0.994798	-0.585501	0.237728
C100	C	1.000194	-0.545140	0.148456
H101	H	0.811893	-0.396933	0.164568
H102	H	0.802502	-0.467172	0.319926
H103	H	0.918658	-0.586924	0.366388
H104	H	1.044210	-0.636442	0.257491
H105	H	1.053601	-0.566204	0.102134
C106	C	0.948963	-0.365318	-0.137502
C107	C	1.017945	-0.436449	-0.153766
C108	C	1.021466	-0.486139	-0.236352
C109	C	0.956004	-0.464698	-0.302674
C110	C	0.887016	-0.393563	-0.286413
C111	C	0.883496	-0.343874	-0.203827
H112	H	1.066409	-0.452325	-0.104668
H113	H	1.072536	-0.538798	-0.248389
H114	H	0.958611	-0.501481	-0.363810
H115	H	0.838553	-0.377688	-0.335510
H116	H	0.832426	-0.291215	-0.191789
H117	H	0.831472	0.157788	0.201432
C118	C	0.945110	-0.739284	-0.184155
C119	C	1.014084	-0.810420	-0.200432
C120	C	1.017579	-0.860113	-0.283013
C121	C	0.952100	-0.838670	-0.349316
C122	C	0.883121	-0.767529	-0.333041
C123	C	0.879626	-0.717836	-0.250460
H124	H	1.062560	-0.826297	-0.151349
H125	H	1.068642	-0.912776	-0.295060
H126	H	0.954687	-0.875455	-0.410447
H127	H	0.834645	-0.751653	-0.382124
H128	H	0.828563	-0.665174	-0.238413
H129	H	0.565072	-0.059966	0.004464
H130	H	0.198729	-0.109223	0.008131
C131	C	0.324819	0.165140	-0.012318
C132	C	0.301892	0.229365	0.057619
C133	C	0.337310	0.306478	0.051880
C134	C	0.395656	0.319367	-0.023796
C135	C	0.418586	0.255141	-0.093739
C136	C	0.383167	0.178027	-0.088000
H137	H	0.258699	0.219825	0.113644
H138	H	0.320336	0.354023	0.103657
H139	H	0.421874	0.376451	-0.028045
H140	H	0.461779	0.264680	-0.149764
H141	H	0.400142	0.130483	-0.139776
H142	H	0.869981	0.117059	0.506651
H143	H	0.349329	-0.116997	0.008724
C144	C	0.935573	-0.175572	0.177797
C145	C	1.004662	-0.131820	0.196112
C146	C	1.001157	-0.082124	0.278692
C147	C	0.928563	-0.076180	0.342957
C148	C	0.859469	-0.119934	0.324643
C149	C	0.862974	-0.169630	0.242063
H150	H	1.058405	-0.136218	0.148538
H151	H	1.052305	-0.049735	0.292248
H152	H	0.925968	-0.039393	0.404087
H153	H	0.805725	-0.115535	0.372217
H154	H	0.811826	-0.202019	0.228507
H155	H	1.018898	-0.040608	0.380505
C156	C	0.928140	-0.721444	0.143944
C157	C	0.855984	-0.692995	0.206497
C158	C	0.850565	-0.733356	0.295767
C159	C	0.917303	-0.802166	0.322484
C160	C	0.989464	-0.830619	0.259929
C161	C	0.994882	-0.790257	0.170659
H162	H	0.806576	-0.642054	0.186721
H163	H	0.797146	-0.712293	0.342074
H164	H	0.913291	-0.832044	0.388567
H165	H	1.038871	-0.881559	0.279705
H166	H	1.048301	-0.811320	0.124352
C167	C	0.480911	-0.072532	0.005396
C168	C	0.536693	-0.091279	0.081513
C169	C	0.592573	-0.173088	0.087618
C170	C	0.592671	-0.236150	0.017605
C171	C	0.536887	-0.217405	-0.058517
C172	C	0.481007	-0.135595	-0.064622
H173	H	0.536623	-0.044595	0.133345
H174	H	0.633869	-0.186965	0.143969
H175	H	0.634037	-0.296711	0.022124
H176	H	0.536957	-0.264088	-0.110349
H177	H	0.439712	-0.121719	-0.120973
C178	C	1.073710	-0.098609	0.616886
C179	C	1.071502	-0.187316	0.635954
C180	C	1.133417	-0.252870	0.591010
C181	C	1.197539	-0.229716	0.526997
C182	C	1.199749	-0.141004	0.507926
C183	C	1.137834	-0.075450	0.552870
H184	H	1.024033	-0.204460	0.683343
H185	H	1.131780	-0.318541	0.605128
H186	H	1.243372	-0.278243	0.493727
H187	H	1.247218	-0.123860	0.460537
H188	H	1.139471	-0.009780	0.538752
C189	C	0.931996	-0.347465	0.190601
C190	C	0.859857	-0.319012	0.253176
C191	C	0.854471	-0.359358	0.342458
C192	C	0.921223	-0.428158	0.369166
C193	C	0.993366	-0.456615	0.306590
C194	C	0.998753	-0.416269	0.217308
H195	H	0.810439	-0.268079	0.233407
H196	H	0.801065	-0.338292	0.388781
H197	H	0.917235	-0.458024	0.435258
H198	H	1.042785	-0.507548	0.326359
H199	H	1.052159	-0.437335	0.170985
H200	H	0.853380	0.134665	0.776792
H201	H	0.531358	0.202133	-0.015085
H202	H	0.951125	-0.203920	-0.127116
H203	H	0.414284	0.136418	-0.010180
H204	H	0.947286	-0.577881	-0.173766
H205	H	0.932656	-0.562460	0.109700
H206	H	0.945819	-0.449027	-0.104920
