data_functionalizedCrystal
_audit_creation_method	'MofGen! by Chris Wilmer'
_symmetry_space_group_name_H-M	'P1'
_symmetry_Int_Tables_number	1
_symmetry_cell_setting	triclinic
loop_
_symmetry_equiv_pos_as_xyz
  x,y,z
_cell_length_a	19.188930
_cell_length_b	19.188930
_cell_length_c	10.868271
_cell_angle_alpha	89.989749
_cell_angle_beta	89.981803
_cell_angle_gamma	83.144779
loop_
_atom_site_label
_atom_site_type_symbol
_atom_site_fract_x
_atom_site_fract_y
_atom_site_fract_z
O1	O	0.926145	0.087168	-0.102732
O2	O	1.259478	0.420501	0.230602
O3	O	1.592811	0.753835	0.563935
O4	O	0.722833	0.098902	-0.102649
O5	O	1.056167	0.432236	0.230684
O6	O	1.389500	0.765569	0.564018
O7	O	0.830356	-0.008620	-0.102669
O8	O	1.163689	0.324713	0.230665
O9	O	1.497023	0.658046	0.563998
O10	O	0.818622	0.194691	-0.102712
O11	O	1.151955	0.528024	0.230621
O12	O	1.485288	0.861357	0.563955
O13	O	0.830347	-0.008625	0.101976
O14	O	1.163681	0.324709	0.435309
O15	O	1.497014	0.658042	0.768643
O16	O	0.722825	0.098898	0.101996
O17	O	1.056158	0.432232	0.435329
O18	O	1.389491	0.765565	0.768662
O19	O	0.926136	0.087164	0.101913
O20	O	1.259469	0.420497	0.435246
O21	O	1.592802	0.753831	0.768580
Zn22	Zn	0.824479	0.093030	0.134446
Zn23	Zn	1.157812	0.426364	0.467779
Zn24	Zn	1.491145	0.759697	0.801113
Zn25	Zn	0.824490	0.093036	-0.135182
Zn26	Zn	1.157824	0.426369	0.198151
Zn27	Zn	1.491157	0.759702	0.531485
O28	O	0.818613	0.194687	0.101933
O29	O	1.151946	0.528020	0.435266
O30	O	1.485280	0.861353	0.768599
C31	C	0.696818	0.098520	-0.000316
C32	C	1.030151	0.431854	0.333018
C33	C	1.363485	0.765187	0.666351
C34	C	0.619313	0.097380	-0.000283
C35	C	0.952647	0.430713	0.333050
C36	C	1.285980	0.764046	0.666383
C37	C	0.829972	-0.034634	-0.000343
C38	C	1.163305	0.298700	0.332991
C39	C	1.496638	0.632033	0.666324
C40	C	0.828831	-0.112138	-0.000332
C41	C	1.162164	0.221195	0.333002
C42	C	1.495498	0.554529	0.666335
C43	C	0.574389	0.160470	-0.000316
C44	C	0.907723	0.493804	0.333017
C45	C	1.241056	0.827137	0.666351
C46	C	0.501566	0.159399	-0.000329
C47	C	0.834899	0.492732	0.333004
C48	C	1.168232	0.826065	0.666337
C49	C	0.473669	0.095233	-0.000335
C50	C	0.807002	0.428566	0.332999
C51	C	1.140336	0.761899	0.666332
C52	C	0.518603	0.032133	-0.000295
C53	C	0.851936	0.365467	0.333038
C54	C	1.185270	0.698800	0.666372
C55	C	0.591425	0.033207	-0.000269
C56	C	0.924758	0.366540	0.333064
C57	C	1.258092	0.699874	0.666397
N58	N	0.365692	0.046187	-0.070023
N59	N	0.699025	0.379520	0.263310
N60	N	1.032359	0.712854	0.596644
N61	N	0.296513	0.045172	-0.070050
N62	N	0.629847	0.378505	0.263283
N63	N	0.963180	0.711838	0.596617
C64	C	0.254260	0.091994	-0.000409
C65	C	0.587594	0.425328	0.332924
C66	C	0.920927	0.758661	0.666258
N67	N	0.283798	0.139882	0.069244
N68	N	0.617131	0.473215	0.402578
N69	N	0.950465	0.806548	0.735911
N70	N	0.352983	0.140899	0.069266
N71	N	0.686316	0.474233	0.402599
N72	N	1.019650	0.807566	0.735933
C73	C	0.394707	0.094062	-0.000362
C74	C	0.728040	0.427395	0.332972
C75	C	1.061373	0.760728	0.666305
C76	C	0.130372	0.153928	-0.000455
C77	C	0.463705	0.487261	0.332879
C78	C	0.797039	0.820594	0.666212
C79	C	0.057547	0.152853	-0.000460
C80	C	0.390881	0.486187	0.332873
C81	C	0.724214	0.819520	0.666206
C82	C	0.074586	0.025586	-0.000438
C83	C	0.407919	0.358920	0.332895
C84	C	0.741253	0.692253	0.666229
C85	C	0.147409	0.026662	-0.000420
C86	C	0.480743	0.359996	0.332913
C87	C	0.814076	0.693329	0.666247
C88	C	0.175298	0.090835	-0.000434
C89	C	0.508631	0.424168	0.332899
C90	C	0.841964	0.757502	0.666233
C91	C	0.891922	-0.157062	-0.000351
C92	C	1.225255	0.176271	0.332982
C93	C	1.558588	0.509605	0.666315
C94	C	0.890850	-0.229886	-0.000371
C95	C	1.224184	0.103448	0.332963
C96	C	1.557517	0.436781	0.666296
C97	C	0.826684	-0.257782	-0.000345
C98	C	1.160017	0.075551	0.332988
C99	C	1.493351	0.408884	0.666321
C100	C	0.763585	-0.212849	-0.000333
C101	C	1.096918	0.120485	0.333001
C102	C	1.430252	0.453818	0.666334
C103	C	0.764658	-0.140026	-0.000326
C104	C	1.097992	0.193307	0.333008
C105	C	1.431325	0.526640	0.666341
N106	N	0.777634	-0.365789	0.069319
N107	N	1.110967	-0.032455	0.402652
N108	N	1.444300	0.300878	0.735986
N109	N	0.776618	-0.434967	0.069315
N110	N	1.109952	-0.101634	0.402648
N111	N	1.443285	0.231699	0.735982
C112	C	0.823446	-0.477191	-0.000369
C113	C	1.156779	-0.143858	0.332964
C114	C	1.490113	0.189476	0.666298
N115	N	0.871338	-0.447624	-0.070033
N116	N	1.204671	-0.114291	0.263300
N117	N	1.538005	0.219043	0.596633
N118	N	0.872356	-0.378439	-0.070024
N119	N	1.205689	-0.045106	0.263309
N120	N	1.539022	0.288227	0.596643
C121	C	0.825513	-0.336745	-0.000354
C122	C	1.158846	-0.003412	0.332980
C123	C	1.492180	0.329922	0.666313
C124	C	0.885379	-0.601079	-0.000411
C125	C	1.218712	-0.267746	0.332922
C126	C	1.552046	0.065587	0.666255
C127	C	0.884305	-0.673904	-0.000438
C128	C	1.217638	-0.340571	0.332895
C129	C	1.550971	-0.007238	0.666228
C130	C	0.757038	-0.656865	-0.000388
C131	C	1.090371	-0.323532	0.332945
C132	C	1.423704	0.009801	0.666279
C133	C	0.758114	-0.584042	-0.000373
C134	C	1.091447	-0.250709	0.332960
C135	C	1.424781	0.082624	0.666293
C136	C	0.822286	-0.556154	-0.000379
C137	C	1.155620	-0.222821	0.332954
C138	C	1.488953	0.110513	0.666287
C139	C	0.952151	0.087546	-0.000423
C140	C	1.285485	0.420879	0.332911
C141	C	1.618818	0.754213	0.666244
C142	C	1.029656	0.088687	-0.000463
C143	C	1.362989	0.422020	0.332870
C144	C	1.696322	0.755353	0.666203
C145	C	0.818997	0.220700	-0.000396
C146	C	1.152331	0.554033	0.332937
C147	C	1.485664	0.887366	0.666271
C148	C	0.820138	0.298204	-0.000415
C149	C	1.153471	0.631538	0.332918
C150	C	1.486805	0.964871	0.666252
N151	N	0.824476	0.093026	0.318460
N152	N	1.157809	0.426360	0.651794
N153	N	1.491143	0.759693	0.985127
N154	N	0.824499	0.093034	-0.319196
N155	N	1.157832	0.426368	0.014137
N156	N	1.491165	0.759701	0.347471
C157	C	0.824487	0.093034	0.569466
C158	C	1.157820	0.426368	0.902800
C159	C	1.491153	0.759701	1.236133
C160	C	0.824478	0.093032	0.429789
C161	C	1.157812	0.426365	0.763122
C162	C	1.491145	0.759699	1.096455
H163	H	0.597091	0.212725	-0.000330
H164	H	0.930424	0.546058	0.333004
H165	H	1.263758	0.879391	0.666337
H166	H	0.935683	-0.710481	-0.000461
H167	H	1.269017	-0.377148	0.332872
H168	H	1.602350	-0.043815	0.666206
H169	H	0.704792	-0.679578	-0.000374
H170	H	1.038126	-0.346245	0.332960
H171	H	1.371459	-0.012911	0.666293
O172	O	0.690066	-0.535581	-0.000321
O173	O	1.023399	-0.202248	0.333012
O174	O	1.356733	0.131086	0.666345
H175	H	0.645266	-0.567211	-0.000293
H176	H	0.978599	-0.233878	0.333041
H177	H	1.311932	0.099456	0.666374
O178	O	0.694377	-0.242935	-0.000289
O179	O	1.027710	0.090399	0.333044
O180	O	1.361044	0.423732	0.666377
H181	H	0.690848	-0.275703	-0.083691
H182	H	1.024182	0.057631	0.249643
H183	H	1.357515	0.390964	0.582976
H184	H	0.464982	0.210776	-0.000353
H185	H	0.798315	0.544110	0.332981
H186	H	1.131648	0.877443	0.666314
O187	O	0.958900	-0.278354	-0.000375
O188	O	1.292233	0.054980	0.332958
O189	O	1.625566	0.388313	0.666291
H190	H	1.003702	-0.246727	-0.000368
H191	H	1.337036	0.086607	0.332965
H192	H	1.670369	0.419940	0.666298
H193	H	0.153080	0.206181	-0.000448
H194	H	0.486413	0.539514	0.332885
H195	H	0.819746	0.872847	0.666219
H196	H	0.944176	-0.134360	-0.000360
H197	H	1.277509	0.198973	0.332973
H198	H	1.610843	0.532306	0.666306
O199	O	0.696608	-0.091565	-0.000283
O200	O	1.029942	0.241768	0.333050
O201	O	1.363275	0.575101	0.666384
H202	H	0.651807	-0.123194	-0.000260
H203	H	0.985141	0.210139	0.333073
H204	H	1.318474	0.543472	0.666407
O205	O	0.195865	-0.041389	-0.000394
O206	O	0.529198	0.291944	0.332939
O207	O	0.862532	0.625278	0.666273
H208	H	0.251189	-0.029863	-0.000365
H209	H	0.584522	0.303470	0.332969
H210	H	0.917856	0.636803	0.666302
O211	O	0.488521	-0.037077	-0.000301
O212	O	0.821855	0.296257	0.333032
O213	O	1.155188	0.629590	0.666366
H214	H	0.430335	-0.027225	-0.000336
H215	H	0.763669	0.306109	0.332997
H216	H	1.097002	0.639442	0.666330
O217	O	0.639886	-0.034843	-0.000240
O218	O	0.973220	0.298490	0.333093
O219	O	1.306553	0.631823	0.666427
H220	H	0.608257	-0.079644	-0.000249
H221	H	0.941590	0.253689	0.333084
H222	H	1.274924	0.587022	0.666418
H223	H	0.937632	-0.578372	-0.000422
H224	H	1.270966	-0.245038	0.332912
H225	H	1.604299	0.088295	0.666245
H226	H	0.020970	0.204232	-0.000480
H227	H	0.354303	0.537565	0.332854
H228	H	0.687637	0.870898	0.666187
H229	H	0.051874	-0.026659	-0.000519
H230	H	0.385207	0.306674	0.332815
H231	H	0.718540	0.640008	0.666148
