data_functionalizedCrystal
_audit_creation_method	'MofGen! by Chris Wilmer'
_symmetry_space_group_name_H-M	'P1'
_symmetry_Int_Tables_number	1
_symmetry_cell_setting	triclinic
loop_
_symmetry_equiv_pos_as_xyz
  x,y,z
_cell_length_a	21.295420
_cell_length_b	21.295417
_cell_length_c	21.295411
_cell_angle_alpha	90.020597
_cell_angle_beta	90.024592
_cell_angle_gamma	90.025484
loop_
_atom_site_label
_atom_site_type_symbol
_atom_site_fract_x
_atom_site_fract_y
_atom_site_fract_z
Zn1	Zn	0.962359	-0.250752	0.355917
Zn2	Zn	0.962263	-0.356004	0.250644
Zn3	Zn	0.857082	-0.250744	0.250661
Zn4	Zn	0.857053	-0.355979	0.355875
O5	O	0.909689	-0.303370	0.303274
O6	O	1.050435	-0.264727	0.341962
O7	O	0.948282	-0.342048	0.162557
O8	O	0.871100	-0.162656	0.264648
O9	O	1.050365	-0.342055	0.264618
O10	O	0.948446	-0.162661	0.341979
O11	O	0.871006	-0.264714	0.162570
O12	O	0.768989	-0.264691	0.264609
O13	O	0.871050	-0.342014	0.443970
O14	O	0.768967	-0.342006	0.341909
O15	O	0.948418	-0.264703	0.444000
O16	O	0.948254	-0.444090	0.264578
O17	O	0.870957	-0.444072	0.341892
C18	C	0.746138	-0.303346	0.303257
C19	C	0.676169	-0.303351	0.303264
C20	C	0.176748	-0.263200	0.343622
C21	C	0.242490	-0.263195	0.343622
C22	C	0.275330	-0.303389	0.303289
C23	C	0.242422	-0.343602	0.262965
C24	C	0.176681	-0.343610	0.262970
N25	N	0.378520	-0.308125	0.248169
N26	N	0.440971	-0.308113	0.248166
C27	C	0.473405	-0.303368	0.303270
N28	N	0.441027	-0.298623	0.358380
N29	N	0.378570	-0.298631	0.358383
C30	C	0.346615	-0.303385	0.303279
C31	C	0.577590	-0.263156	0.343595
C32	C	0.643334	-0.263156	0.343596
C33	C	0.643265	-0.343559	0.262933
C34	C	0.577522	-0.343562	0.262938
C35	C	0.544689	-0.303358	0.303268
C36	C	0.909609	-0.466921	0.303242
C37	C	0.909632	-0.536890	0.303250
C38	C	0.949883	-0.569702	0.343545
C39	C	0.949906	-0.635444	0.343560
C40	C	0.909683	-0.668372	0.303270
C41	C	0.869424	-0.635552	0.262972
C42	C	0.869399	-0.569811	0.262962
N43	N	0.904924	-0.771624	0.248179
N44	N	0.904952	-0.834075	0.248190
C45	C	0.909757	-0.866447	0.303298
N46	N	0.914545	-0.834007	0.358396
N47	N	0.914520	-0.771550	0.358384
C48	C	0.909706	-0.739657	0.303276
C49	C	0.950034	-0.970544	0.343613
C50	C	0.950052	-1.036288	0.343630
C51	C	0.869574	-1.036394	0.263036
C52	C	0.869553	-0.970652	0.263025
C53	C	0.909786	-0.937731	0.303313
C54	C	1.073879	-0.303394	0.303293
C55	C	1.143847	-0.303405	0.303300
C56	C	0.909741	-0.303357	0.467465
C57	C	0.909764	-0.303351	0.537433
C58	C	0.909787	-0.139180	0.303320
C59	C	0.909828	-0.069211	0.303340
C60	C	0.909673	-0.303338	0.139723
C61	C	0.909773	-0.303166	0.069755
C62	C	0.950047	-0.263094	0.570316
C63	C	0.950046	-0.263066	0.636059
C64	C	0.909769	-0.303308	0.668915
C65	C	0.869477	-0.343568	0.636024
C66	C	0.869475	-0.343589	0.570283
N67	N	0.904913	-0.358375	0.772132
N68	N	0.904919	-0.358353	0.834583
C69	C	0.909773	-0.303244	0.866990
N70	N	0.914632	-0.248157	0.834586
N71	N	0.914630	-0.248180	0.772129
C72	C	0.909766	-0.303288	0.740201
C73	C	0.950057	-0.262953	0.971159
C74	C	0.950052	-0.262925	1.036903
C75	C	0.869486	-0.343432	1.036867
C76	C	0.869488	-0.343455	0.971125
C77	C	0.909777	-0.303216	0.938275
H78	H	0.670120	-0.230418	0.376436
H79	H	0.982849	-0.230281	0.662838
H80	H	0.982860	-0.230185	0.944411
O81	O	0.545533	-0.382681	0.223854
C82	C	0.507499	-0.423384	0.259623
H83	H	0.527334	-0.427340	0.309193
H84	H	0.506727	-0.471797	0.236770
H85	H	0.457682	-0.403931	0.261829
H86	H	0.982855	-0.230139	1.063675
O87	O	0.675255	-0.382546	0.223776
C88	C	0.740335	-0.373933	0.232430
H89	H	0.749342	-0.325381	0.253130
H90	H	0.765296	-0.378136	0.185270
H91	H	0.758994	-0.411316	0.265886
H92	H	0.150019	-0.230465	0.376464
O93	O	0.830277	-0.382611	0.538310
C94	C	0.789652	-0.346782	0.500251
H95	H	0.785792	-0.297195	0.520060
H96	H	0.741194	-0.369543	0.499484
H97	H	0.809117	-0.344635	0.450436
H98	H	0.550856	-0.230419	0.376434
O99	O	0.989185	-1.068235	0.382686
C100	C	1.029879	-1.106238	0.346886
H101	H	1.007699	-1.116128	0.299164
H102	H	1.038320	-1.152447	0.372541
H103	H	1.076523	-1.080869	0.340004
H104	H	0.269283	-0.230453	0.376456
O105	O	0.830320	-0.537836	0.223875
C106	C	0.838937	-0.472752	0.232492
H107	H	0.859527	-0.463731	0.281089
H108	H	0.791779	-0.447805	0.228174
H109	H	0.872471	-0.454090	0.195180
O110	O	0.988983	-0.537821	0.382740
C111	C	1.024526	-0.580885	0.418297
H112	H	0.998759	-0.627767	0.420461
H113	H	1.031214	-0.561861	0.467898
H114	H	1.072347	-0.587849	0.395287
H115	H	0.982793	-0.943739	0.376420
O116	O	0.988916	-0.667360	0.382768
C117	C	0.953071	-0.705410	0.423385
H118	H	0.903486	-0.685632	0.427232
H119	H	0.975819	-0.706123	0.471849
H120	H	0.950924	-0.755242	0.403920
H121	H	0.836673	-0.662366	0.230169
O122	O	0.830466	-1.068440	0.223987
C123	C	0.789794	-1.106466	0.259799
H124	H	0.811979	-1.116274	0.307524
H125	H	0.781382	-1.152715	0.234159
H126	H	0.743135	-1.081160	0.266672
O127	O	0.830438	-0.938872	0.223817
C128	C	0.794930	-0.982029	0.188268
H129	H	0.820731	-1.028872	0.186121
H130	H	0.788234	-0.963066	0.138662
H131	H	0.747111	-0.989048	0.211276
H132	H	0.982853	-0.230328	0.543574
O133	O	0.830443	-0.382727	0.667966
C134	C	0.866259	-0.423369	0.706015
H135	H	0.915834	-0.427270	0.686221
H136	H	0.843463	-0.471809	0.706749
H137	H	0.868443	-0.403892	0.755841
H138	H	0.836685	-0.376191	1.063618
O139	O	0.830339	-0.382624	0.939275
C140	C	0.794775	-0.418124	0.982370
H141	H	0.820559	-0.420295	1.029243
H142	H	0.788027	-0.467726	0.963370
H143	H	0.746981	-0.395061	0.989345
H144	H	0.149894	-0.376351	0.230135
O145	O	0.274389	-0.382676	0.223872
C146	C	0.312412	-0.423388	0.259637
H147	H	0.322292	-0.401252	0.307380
H148	H	0.358626	-0.431781	0.233977
H149	H	0.287066	-0.470051	0.266473
