data_functionalizedCrystal
_audit_creation_method	'MofGen! by Chris Wilmer'
_symmetry_space_group_name_H-M	'P1'
_symmetry_Int_Tables_number	1
_symmetry_cell_setting	triclinic
loop_
_symmetry_equiv_pos_as_xyz
  x,y,z
_cell_length_a	29.839125
_cell_length_b	15.297475
_cell_length_c	15.298852
_cell_angle_alpha	110.787890
_cell_angle_beta	80.316520
_cell_angle_gamma	99.674916
loop_
_atom_site_label
_atom_site_type_symbol
_atom_site_fract_x
_atom_site_fract_y
_atom_site_fract_z
Zn1	Zn	-0.328749	-1.486001	-0.616852
Zn2	Zn	-0.242547	-1.512850	-0.772327
Zn3	Zn	-0.242574	-1.330485	-0.589887
Zn4	Zn	-0.306594	-1.357365	-0.745357
O5	O	-0.280116	-1.421675	-0.681105
O6	O	-0.326575	-1.619718	-0.660048
O7	O	-0.179682	-1.488646	-0.748128
O8	O	-0.263289	-1.328629	-0.463332
O9	O	-0.263243	-1.639444	-0.774275
O10	O	-0.326601	-1.442886	-0.483143
O11	O	-0.179702	-1.354663	-0.614090
O12	O	-0.241806	-1.203896	-0.587938
O13	O	-0.372402	-1.374441	-0.728308
O14	O	-0.288841	-1.223644	-0.702161
O15	O	-0.388679	-1.468950	-0.633896
O16	O	-0.241760	-1.514710	-0.898881
O17	O	-0.288815	-1.400476	-0.879066
C18	C	-0.262923	-1.180022	-0.639198
C19	C	-0.255576	-1.076646	-0.621292
C20	C	-0.397297	-1.421699	-0.681101
C21	C	-0.447232	-1.421709	-0.681100
C22	C	-0.262892	-1.463449	-0.922719
C23	C	-0.255545	-1.481405	-1.026097
C24	C	-0.765370	-1.470955	-0.631795
C25	C	-0.953052	-1.470988	-0.631723
O26	O	-0.984528	-1.512804	-0.589878
N27	N	-0.968044	-1.421789	-0.680872
C28	C	-0.936112	-1.372574	-0.730037
O29	O	-0.953171	-1.330721	-0.771832
C30	C	-0.748431	-1.372537	-0.730102
C31	C	-0.733442	-1.421746	-0.680958
C32	C	-0.750380	-1.520160	-0.582653
C33	C	-0.703462	-1.520155	-0.582676
C34	C	-0.671534	-1.470946	-0.631840
C35	C	-0.686524	-1.421742	-0.680981
C36	C	-0.716500	-1.323317	-0.779261
C37	C	-0.669578	-1.323310	-0.779271
C38	C	-0.654589	-1.372519	-0.730127
C39	C	-0.607679	-1.372529	-0.730167
N40	N	-0.592686	-1.421727	-0.681018
C41	C	-0.624614	-1.470936	-0.631854
C42	C	-1.034648	-1.372599	-0.730001
C43	C	-1.081568	-1.372609	-0.729986
C44	C	-1.098505	-1.471021	-0.631671
C45	C	-1.051584	-1.471016	-0.631691
C46	C	-1.019656	-1.421797	-0.680852
C47	C	-0.526083	-1.470924	-0.631906
C48	C	-0.479160	-1.470918	-0.631936
C49	C	-0.462228	-1.372502	-0.730247
C50	C	-0.509147	-1.372511	-0.730222
C51	C	-0.541074	-1.421724	-0.681044
O52	O	-0.576178	-1.330725	-0.771981
O53	O	-0.607547	-1.512766	-0.590049
C54	C	-0.812288	-1.470960	-0.631772
C55	C	-0.827278	-1.421755	-0.680913
C56	C	-0.795350	-1.372546	-0.730077
C57	C	-0.874198	-1.421766	-0.680898
C58	C	-0.906126	-1.470975	-0.631735
C59	C	-0.891133	-1.520173	-0.582586
C60	C	-0.844216	-1.520169	-0.582608
C61	C	-0.810342	-1.323348	-0.779226
C62	C	-0.857261	-1.323357	-0.779200
C63	C	-0.889188	-1.372566	-0.730036
C64	C	-0.163400	-1.421693	-0.681052
C65	C	-0.113496	-1.421818	-0.680823
C66	C	-0.297377	-1.664272	-0.723178
C67	C	-0.304733	-1.767652	-0.741106
C68	C	-0.332623	-0.826540	-0.809088
C69	C	-0.339524	-0.923669	-0.825919
C70	C	-0.318538	-0.961918	-0.774763
C71	C	-0.290649	-0.903029	-0.706775
C72	C	-0.283745	-0.805892	-0.689948
C73	C	-0.269660	-0.941269	-0.655623
C74	C	-0.241771	-0.882380	-0.587634
C75	C	-0.234869	-0.785253	-0.570810
C76	C	-0.255855	-0.747004	-0.621966
C77	C	-0.276564	-1.038406	-0.672450
C78	C	-0.227686	-1.017758	-0.553309
C79	C	-0.220785	-0.920629	-0.536479
C80	C	-0.332716	-1.293950	-1.276334
C81	C	-0.339623	-1.277081	-1.179205
C82	C	-0.318604	-1.328160	-1.140924
C83	C	-0.290677	-1.396111	-1.199780
C84	C	-0.283773	-1.412986	-1.296919
C85	C	-0.269660	-1.447197	-1.161508
C86	C	-0.241734	-1.515148	-1.220365
C87	C	-0.234830	-1.532020	-1.317494
C88	C	-0.255849	-1.480941	-1.355776
C89	C	-0.276565	-1.430322	-1.064369
C90	C	-0.227621	-1.549359	-1.084954
C91	C	-0.220715	-1.566227	-1.182083
C92	C	-0.297419	-1.379764	-0.438553
C93	C	-0.304793	-1.361904	-0.335191
H94	H	-0.466959	-1.510993	-0.591917
C95	C	-0.326121	-1.068765	-0.793295
N96	N	-0.331832	-1.149248	-0.807260
C97	C	-0.326199	-1.309596	-1.034078
N98	N	-0.331918	-1.295606	-0.953596
H99	H	-0.250239	-0.667914	-0.608264
H100	H	-0.349829	-1.252373	-1.307514
C101	C	-0.355703	-0.784460	-0.865354
N102	N	-0.373088	-0.752764	-0.907738
H103	H	-0.362229	-0.971610	-0.881277
H104	H	-1.008656	-1.332521	-0.770040
H105	H	-0.212155	-0.737309	-0.515459
C106	C	-0.561196	-1.525066	-0.577814
N107	N	-0.587644	-1.565852	-0.537078
C108	C	-0.190107	-0.855840	-0.461697
N109	N	-0.166999	-0.807040	-0.405371
C110	C	-0.732977	-1.269173	-0.833316
N111	N	-0.745386	-1.228384	-0.874030
C112	C	-0.248250	-1.499487	-1.462622
N113	N	-0.242527	-1.513452	-1.543100
C114	C	-1.098050	-1.318483	-0.784057
N115	N	-1.110463	-1.277708	-0.824779
H116	H	-0.212094	-1.587357	-1.365414
C117	C	-0.189997	-1.640972	-1.246837
N118	N	-0.166859	-1.697270	-1.295611
H119	H	-0.210596	-1.048899	-0.511656
H120	H	-0.299303	-1.374996	-1.016457
H121	H	-0.869459	-1.283288	-0.819228
C122	C	-0.370364	-1.202379	-1.114478
N123	N	-0.393527	-1.146123	-1.065726
H124	H	-0.210507	-1.590954	-1.053787
H125	H	-0.832016	-1.560239	-0.542589
H126	H	-0.436224	-1.332441	-0.770278
C127	C	-0.686981	-1.574275	-0.528597
N128	N	-0.674571	-1.615034	-0.487856
H129	H	-0.521351	-1.332451	-0.770249
C130	C	-1.035101	-1.525141	-0.577621
N131	N	-1.022688	-1.565908	-0.536890
C132	C	-0.785495	-1.574302	-0.528568
N133	N	-0.811941	-1.615093	-0.487835
H134	H	-0.643584	-1.283217	-0.819293
C135	C	-1.133634	-1.525145	-0.577584
N136	N	-1.160095	-1.565902	-0.536841
H137	H	-0.917138	-1.560244	-0.542559
H138	H	-0.784350	-1.283276	-0.819263
H139	H	-0.299271	-1.086345	-0.727806
