data_functionalizedCrystal
_audit_creation_method	'MofGen! by Chris Wilmer'
_symmetry_space_group_name_H-M	'P1'
_symmetry_Int_Tables_number	1
_symmetry_cell_setting	triclinic
loop_
_symmetry_equiv_pos_as_xyz
  x,y,z
_cell_length_a	12.759401
_cell_length_b	12.759393
_cell_length_c	12.759400
_cell_angle_alpha	90.030490
_cell_angle_beta	89.986201
_cell_angle_gamma	89.979258
loop_
_atom_site_label
_atom_site_type_symbol
_atom_site_fract_x
_atom_site_fract_y
_atom_site_fract_z
Zn1	Zn	1.606266	-0.594015	0.418240
Zn2	Zn	1.606158	-0.418335	0.593956
Zn3	Zn	1.430565	-0.418350	0.418289
Zn4	Zn	1.430557	-0.593973	0.593875
O5	O	1.518387	-0.506168	0.506090
O6	O	1.753273	-0.570721	0.441563
O7	O	1.582823	-0.271316	0.570707
O8	O	1.453921	-0.441677	0.271261
O9	O	1.753193	-0.441650	0.570660
O10	O	1.583008	-0.570737	0.271226
O11	O	1.453816	-0.271327	0.441646
O12	O	1.283543	-0.441636	0.441567
O13	O	1.453908	-0.740999	0.570523
O14	O	1.283537	-0.570665	0.570570
O15	O	1.583000	-0.741030	0.441485
O16	O	1.582815	-0.441609	0.740966
O17	O	1.453802	-0.570650	0.740907
C18	C	1.245419	-0.506148	0.506066
C19	C	1.128643	-0.506165	0.506081
C20	C	1.073753	-0.439103	0.438821
C21	C	0.964029	-0.439116	0.438845
C22	C	0.964094	-0.573262	0.573393
C23	C	1.073816	-0.573243	0.573373
C24	C	1.073714	-0.361658	0.361137
C25	C	0.963990	-0.361671	0.361162
C26	C	1.518465	-0.780202	0.505989
C27	C	1.518499	-0.896978	0.505946
C28	C	1.585722	-0.951858	0.438745
C29	C	1.585740	-1.061582	0.438700
C30	C	1.451308	-1.061537	0.573066
C31	C	1.451285	-0.951815	0.573105
C32	C	1.623352	-1.211560	0.314745
C33	C	1.690592	-1.266444	0.247553
C34	C	1.793105	-1.230852	0.231447
C35	C	1.828399	-1.140378	0.282548
C36	C	1.761164	-1.085501	0.349747
C37	C	1.658637	-1.121091	0.365834
C38	C	1.413684	-0.801835	0.697061
C39	C	1.346454	-0.746955	0.764267
C40	C	1.243940	-0.782545	0.780384
C41	C	1.208650	-0.873022	0.729301
C42	C	1.275880	-0.927902	0.662096
C43	C	1.378393	-0.892304	0.645977
C44	C	1.792420	-0.506189	0.506115
C45	C	1.909196	-0.506197	0.506126
C46	C	1.518324	-0.506146	0.779057
C47	C	1.518394	-0.506172	0.895834
C48	C	1.518369	-0.233201	0.506115
C49	C	1.518539	-0.116425	0.505862
C50	C	1.518478	-0.506213	0.232057
C51	C	1.518517	-0.506232	0.115280
C52	C	1.585645	-0.439055	0.950692
C53	C	1.585710	-0.439087	1.060416
C54	C	1.451262	-0.573357	1.060414
C55	C	1.451204	-0.573329	0.950692
C56	C	1.663264	-0.361532	0.950694
C57	C	1.663329	-0.361565	1.060418
H58	H	1.103445	-0.280244	0.382824
O59	O	1.624693	-0.259101	0.905722
H60	H	1.554252	-0.273685	0.856823
O61	O	0.904994	-0.645572	0.646036
H62	H	0.926094	-0.728070	0.628169
O63	O	0.918849	-0.259220	0.399635
H64	H	0.945749	-0.244475	0.481037
O65	O	0.924549	-0.390745	0.253431
H66	H	0.992257	-0.404980	0.200672
H67	H	1.640449	-0.907213	0.384058
H68	H	1.661847	-1.340107	0.205947
O69	O	1.118827	-0.400417	0.258787
H70	H	1.091964	-0.481873	0.244294
H71	H	1.396452	-0.627990	0.906028
H72	H	1.789901	-1.011842	0.391356
H73	H	1.539876	-1.240542	0.327845
O74	O	1.378780	-0.645774	1.119581
H75	H	1.390110	-0.634513	1.205095
H76	H	1.911879	-1.111412	0.269436
O77	O	1.865627	-1.290032	0.158963
H78	H	1.823862	-1.358913	0.126130
O79	O	1.634524	-0.253776	1.099987
H80	H	1.620360	-0.200983	1.032342
O81	O	1.237813	-1.025484	0.606992
H82	H	1.301787	-1.057668	0.557559
O83	O	1.378816	-1.120681	0.645501
H84	H	1.390130	-1.206198	0.634191
H85	H	1.744608	-0.383385	0.920838
H86	H	1.740633	-0.390778	1.094364
H87	H	1.118503	-0.627841	0.628153
H88	H	1.125175	-0.902003	0.742428
H89	H	1.189205	-0.737857	0.835118
H90	H	1.375200	-0.673291	0.805870
H91	H	1.497158	-0.772844	0.683936
