data_functionalizedCrystal
_audit_creation_method	'MofGen! by Chris Wilmer'
_symmetry_space_group_name_H-M	'P1'
_symmetry_Int_Tables_number	1
_symmetry_cell_setting	triclinic
loop_
_symmetry_equiv_pos_as_xyz
  x,y,z
_cell_length_a	10.654550
_cell_length_b	16.109304
_cell_length_c	9.730223
_cell_angle_alpha	90.001479
_cell_angle_beta	89.996251
_cell_angle_gamma	83.973770
loop_
_atom_site_label
_atom_site_type_symbol
_atom_site_fract_x
_atom_site_fract_y
_atom_site_fract_z
O1	O	1.666252	0.116770	-0.114393
O2	O	2.166252	0.616770	0.385607
O3	O	1.300622	0.127896	-0.114371
O4	O	1.800622	0.627896	0.385629
O5	O	1.493479	0.001362	-0.114383
O6	O	1.993479	0.501362	0.385617
O7	O	1.473395	0.243304	-0.114381
O8	O	1.973395	0.743304	0.385619
O9	O	1.493477	0.001365	0.114197
O10	O	1.993477	0.501365	0.614197
O11	O	1.300620	0.127899	0.114209
O12	O	1.800620	0.627899	0.614209
O13	O	1.666249	0.116773	0.114186
O14	O	2.166249	0.616773	0.614186
Zn15	Zn	1.483434	0.122337	0.150490
Zn16	Zn	1.983434	0.622337	0.650490
Zn17	Zn	1.483437	0.122332	-0.150674
Zn18	Zn	1.983437	0.622332	0.349326
O19	O	1.473392	0.243307	0.114199
O20	O	1.973392	0.743307	0.614199
C21	C	1.253834	0.127080	-0.000078
C22	C	1.753834	0.627080	0.499922
C23	C	1.114424	0.124636	-0.000069
C24	C	1.614424	0.624636	0.499931
C25	C	1.033929	0.199137	-0.000088
C26	C	1.533929	0.699137	0.499912
C27	C	0.902939	0.196836	-0.000112
C28	C	1.402939	0.696836	0.499888
C29	C	0.932953	0.045526	-0.000103
C30	C	1.432953	0.545526	0.499897
C31	C	1.063940	0.047828	-0.000070
C32	C	1.563940	0.547828	0.499930
C33	C	1.016600	0.286495	-0.000100
C34	C	1.516600	0.786495	0.499900
C35	C	0.885610	0.284194	-0.000123
C36	C	1.385610	0.784194	0.499877
C37	C	1.492664	-0.029616	-0.000096
C38	C	1.992664	0.470384	0.499904
C39	C	1.490223	-0.121926	-0.000106
C40	C	1.990223	0.378074	0.499894
C41	C	1.484585	-0.334299	-0.124699
C42	C	1.984585	0.165701	0.375301
C43	C	1.482280	-0.421033	-0.124698
C44	C	1.982280	0.078967	0.375302
C45	C	1.482283	-0.421026	0.124513
C46	C	1.982283	0.078974	0.624513
C47	C	1.484580	-0.334293	0.124510
C48	C	1.984580	0.165707	0.624510
C49	C	1.485737	-0.290932	-0.000100
C50	C	1.985737	0.209068	0.499900
C51	C	1.481135	-0.464399	-0.000096
C52	C	1.981135	0.035601	0.499904
C53	C	1.478636	-0.558440	-0.000093
C54	C	1.978636	-0.058440	0.499907
C55	C	1.488234	-0.196885	-0.000103
C56	C	1.988234	0.303115	0.499897
C57	C	1.713037	0.117589	-0.000109
C58	C	2.213037	0.617589	0.499891
C59	C	1.852448	0.120033	-0.000127
C60	C	2.352448	0.620033	0.499873
C61	C	1.474208	0.274285	-0.000091
C62	C	1.974208	0.774285	0.499909
C63	C	1.476649	0.366595	-0.000090
C64	C	1.976649	0.866595	0.499910
N65	N	1.483442	0.122339	0.356026
N66	N	1.983442	0.622339	0.856026
N67	N	1.483440	0.122323	-0.356210
N68	N	1.983440	0.622323	0.143790
C69	C	1.568860	0.066329	0.427947
C70	C	2.068860	0.566329	0.927947
C71	C	1.568857	0.066319	0.571830
C72	C	2.068857	0.566319	1.071830
C73	C	1.398012	0.178336	0.571859
C74	C	1.898012	0.678336	1.071859
C75	C	1.398011	0.178342	0.427979
C76	C	1.898011	0.678342	0.927979
C77	C	1.667500	0.001659	0.427931
C78	C	2.167500	0.501659	0.927931
C79	C	1.667497	0.001649	0.571814
C80	C	2.167497	0.501649	1.071814
H81	H	1.045467	0.320662	0.095567
H82	H	1.545467	0.820662	0.595567
H83	H	1.051879	0.314310	-0.098787
H84	H	1.551879	0.814310	0.401213
H85	H	1.129476	-0.012838	-0.000034
H86	H	1.629476	0.487162	0.499966
H87	H	0.839580	0.310596	0.098561
H88	H	1.339580	0.810596	0.598561
Cl89	Cl	1.621641	-0.091579	0.640711
Cl90	Cl	2.121641	0.408421	1.140711
H91	H	1.763815	0.015894	0.610859
H92	H	2.263815	0.515894	1.110859
Cl93	Cl	1.480829	-0.475547	-0.281344
Cl94	Cl	1.980829	0.024453	0.218656
H95	H	0.891833	-0.017009	-0.000125
H96	H	1.391833	0.482991	0.499875
H97	H	1.485523	-0.298997	-0.226165
H98	H	1.985523	0.201003	0.273835
Cl99	Cl	1.807847	0.032932	0.359011
Cl100	Cl	2.307847	0.532932	0.859011
H101	H	0.843432	0.317108	-0.095791
H102	H	1.343432	0.817108	0.404209
Cl103	Cl	1.480830	-0.475543	0.281156
Cl104	Cl	1.980830	0.024457	0.781156
H105	H	1.485510	-0.298982	0.225979
H106	H	1.985510	0.201018	0.725979
H107	H	1.328445	0.223942	0.369423
H108	H	1.828445	0.723942	0.869423
H109	H	1.328456	0.223931	0.630458
H110	H	1.828456	0.723931	1.130458
H111	H	1.646923	-0.062244	0.388878
H112	H	2.146923	0.437756	0.888878
