data_functionalizedCrystal
_audit_creation_method	'MofGen! by Chris Wilmer'
_symmetry_space_group_name_H-M	'P1'
_symmetry_Int_Tables_number	1
_symmetry_cell_setting	triclinic
loop_
_symmetry_equiv_pos_as_xyz
  x,y,z
_cell_length_a	12.759395
_cell_length_b	12.594516
_cell_length_c	12.759387
_cell_angle_alpha	89.971510
_cell_angle_beta	89.979491
_cell_angle_gamma	90.017589
loop_
_atom_site_label
_atom_site_type_symbol
_atom_site_fract_x
_atom_site_fract_y
_atom_site_fract_z
Zn1	Zn	1.606259	-0.423642	-0.594022
Zn2	Zn	1.606145	-0.601660	-0.418349
Zn3	Zn	1.430557	-0.423700	-0.418359
Zn4	Zn	1.430545	-0.601584	-0.593989
O5	O	1.518377	-0.512647	-0.506180
O6	O	1.753265	-0.447264	-0.570729
O7	O	1.582811	-0.578109	-0.271330
O8	O	1.453917	-0.274747	-0.441679
O9	O	1.753181	-0.578053	-0.441663
O10	O	1.583004	-0.274704	-0.570738
O11	O	1.453807	-0.447363	-0.271336
O12	O	1.283534	-0.447290	-0.441646
O13	O	1.453897	-0.577924	-0.741014
O14	O	1.283526	-0.577980	-0.570681
O15	O	1.582993	-0.447191	-0.741039
O16	O	1.582799	-0.750595	-0.441631
O17	O	1.453786	-0.750540	-0.570672
C18	C	1.245409	-0.512634	-0.506162
C19	C	1.128632	-0.512654	-0.506179
C20	C	1.128662	-0.648962	-0.640325
C21	C	1.073816	-0.717124	-0.707401
C22	C	0.964094	-0.717137	-0.707414
C23	C	0.909216	-0.648978	-0.640346
C24	C	0.964062	-0.580816	-0.573270
C25	C	1.073786	-0.580812	-0.573262
C26	C	0.964033	-0.444504	-0.439130
C27	C	1.073754	-0.444495	-0.439111
C28	C	0.909155	-0.376345	-0.372062
C29	C	0.964001	-0.308186	-0.304979
C30	C	1.073729	-0.308177	-0.304968
C31	C	1.128600	-0.376332	-0.372034
C32	C	1.518308	-0.789188	-0.506169
C33	C	1.518374	-0.907493	-0.506200
C34	C	1.448198	-0.976755	-0.576336
C35	C	1.422596	-1.047624	-0.480469
C36	C	1.544072	-1.047422	-0.602083
C37	C	1.492722	-0.976805	-0.410282
C38	C	1.614242	-0.976596	-0.531961
C39	C	1.588677	-1.047434	-0.436028
C40	C	1.792410	-0.512660	-0.506198
C41	C	1.909187	-0.512666	-0.506206
C42	C	1.518456	-0.512542	-0.780213
C43	C	1.518490	-0.512498	-0.896990
C44	C	1.518474	-0.235026	-0.506213
C45	C	1.518516	-0.116720	-0.506227
C46	C	1.652927	-0.376375	-0.897035
C47	C	1.720160	-0.308297	-0.951919
C48	C	1.720185	-0.308258	-1.061641
C49	C	1.652968	-0.376302	-1.116481
C50	C	1.585735	-0.444380	-1.061598
C51	C	1.585719	-0.444413	-0.951874
C52	C	1.451295	-0.580496	-1.061553
C53	C	1.451273	-0.580542	-0.951831
C54	C	1.384078	-0.648540	-1.116393
C55	C	1.316848	-0.716624	-1.061510
C56	C	1.316826	-0.716661	-0.951781
C57	C	1.384040	-0.648619	-0.896947
C58	C	1.518358	-0.512674	-0.233212
C59	C	1.518528	-0.512418	-0.116436
H60	H	1.217941	-0.376334	-0.372029
H61	H	1.388745	-0.945719	-0.635562
H62	H	1.652922	-0.376409	-0.807694
N63	N	0.907946	-0.238554	-0.236495
N64	N	0.846761	-0.170778	-0.273594
H65	H	0.807168	-0.121598	-0.225227
H66	H	1.470951	-0.945913	-0.329184
H67	H	1.774926	-0.252817	-1.106327
N68	N	1.248180	-0.786120	-1.117510
N69	N	1.188152	-0.846897	-1.068500
H70	H	1.139648	-0.895976	-1.108052
H71	H	1.341588	-1.078847	-0.458703
N72	N	1.663198	-1.086116	-0.361545
N73	N	1.653613	-1.063277	-0.266701
H74	H	1.706240	-1.090597	-0.214094
H75	H	1.695232	-0.945377	-0.553774
H76	H	1.384033	-0.648647	-0.807606
H77	H	1.652986	-0.376255	-1.205822
N78	N	0.797077	-0.376341	-0.372095
N79	N	0.748152	-0.354204	-0.454097
H80	H	0.668996	-0.354201	-0.454120
N81	N	1.571252	-1.086340	-0.703794
N82	N	1.515439	-1.063675	-0.781121
H83	H	1.534626	-1.091158	-0.852957
N84	N	1.788805	-0.238795	-0.895884
N85	N	1.788776	-0.238835	-0.797919
H86	H	1.837255	-0.189747	-0.758346
H87	H	1.384099	-0.648499	-1.205734
N88	N	1.248131	-0.786185	-0.895723
N89	N	1.151192	-0.779096	-0.907964
H90	H	1.102672	-0.828198	-0.868375
N91	N	1.240739	-0.648978	-0.640311
N92	N	1.289724	-0.709841	-0.700187
H93	H	1.368881	-0.709857	-0.700178
H94	H	0.919439	-0.772635	-0.762038
N95	N	1.129891	-0.786744	-0.775891
N96	N	1.191087	-0.854513	-0.738798
H97	H	1.230690	-0.903681	-0.787169
N98	N	0.797139	-0.648988	-0.640386
N99	N	0.748183	-0.709843	-0.700289
H100	H	0.669026	-0.709849	-0.700319
H101	H	1.118378	-0.252663	-0.250354
