data_functionalizedCrystal
_audit_creation_method	'MofGen! by Chris Wilmer'
_symmetry_space_group_name_H-M	'P1'
_symmetry_Int_Tables_number	1
_symmetry_cell_setting	triclinic
loop_
_symmetry_equiv_pos_as_xyz
  x,y,z
_cell_length_a	14.628931
_cell_length_b	27.440280
_cell_length_c	27.440280
_cell_angle_alpha	59.998992
_cell_angle_beta	90.004064
_cell_angle_gamma	60.000700
loop_
_atom_site_label
_atom_site_type_symbol
_atom_site_fract_x
_atom_site_fract_y
_atom_site_fract_z
Zr1	Zr	0.880578	0.533472	-0.064036
O2	O	0.734608	0.635142	-0.141862
O3	O	0.925331	0.431796	-0.040167
O4	O	0.925321	0.533463	-0.141846
O5	O	0.734620	0.533485	0.040011
O6	O	1.075753	0.533463	-0.141846
O7	O	0.734618	0.533475	-0.040183
O8	O	1.075771	0.351600	0.040039
O9	O	0.734602	0.715348	-0.141875
O10	O	1.056677	0.473620	-0.030000
O11	O	0.944413	0.473627	0.029847
O12	O	0.944401	0.593326	-0.089867
O13	O	0.832137	0.593333	-0.030019
Zr14	Zr	1.120503	0.533487	0.063863
Zr15	Zr	1.120500	0.533472	-0.064036
Zr16	Zr	0.880582	0.533487	0.063863
Zr17	Zr	0.880569	0.661392	-0.064056
Zr18	Zr	1.120512	0.405568	0.063884
O19	O	1.075751	0.635163	0.039994
O20	O	1.075746	0.635142	-0.141862
O21	O	0.734613	0.635163	0.039994
O22	O	1.266473	0.431818	0.141689
O23	O	1.266468	0.431796	-0.040167
O24	O	0.925336	0.431818	0.141690
O25	O	1.266461	0.533475	-0.040183
O26	O	1.075760	0.533497	0.141673
O27	O	0.925329	0.533497	0.141673
O28	O	1.266463	0.533485	0.040010
O29	O	0.925308	0.715348	-0.141875
O30	O	1.075773	0.351612	0.141702
O31	O	1.266479	0.351612	0.141702
O32	O	1.266476	0.351600	0.040039
O33	O	0.734605	0.715360	-0.040212
O34	O	0.925311	0.715360	-0.040212
O35	O	1.056680	0.473634	0.089694
O36	O	1.168944	0.473627	0.029847
O37	O	1.056668	0.593333	-0.030020
O38	O	0.944404	0.593340	0.029828
C39	C	1.000552	0.373472	-0.000061
C40	C	1.000556	0.319167	-0.000052
C41	C	0.917660	0.026664	-0.044290
C42	C	0.917660	-0.024353	-0.044296
O43	O	0.847198	-0.013165	-0.081888
N44	N	1.000537	-0.094052	-0.000110
C45	C	1.083427	-0.112734	0.044082
O46	O	1.153921	-0.176703	0.081665
C47	C	1.083431	-0.061718	0.044085
C48	C	1.000542	0.007982	-0.000100
C49	C	0.834779	0.096359	-0.088472
C50	C	0.834779	0.147373	-0.088465
C51	C	0.917660	0.128690	-0.044276
C52	C	1.000542	0.058995	-0.000093
C53	C	1.166324	-0.080400	0.088274
C54	C	1.166322	-0.029376	0.088273
C55	C	1.083433	0.040323	0.044088
C56	C	1.083423	0.091326	0.044103
N57	N	1.000546	0.161025	-0.000083
C58	C	0.917664	0.179707	-0.044272
C59	C	1.083412	-0.219869	0.044071
C60	C	1.083404	-0.270886	0.044071
C61	C	0.917638	-0.182501	-0.044308
C62	C	0.917642	-0.131484	-0.044305
C63	C	1.000535	-0.150170	-0.000115
C64	C	0.917670	0.286836	-0.044254
C65	C	0.917674	0.337849	-0.044242
C66	C	1.083443	0.249461	0.044135
C67	C	1.083436	0.198451	0.044125
C68	C	1.000544	0.217144	-0.000075
O69	O	1.153851	0.080190	0.081675
O70	O	0.847191	0.243676	-0.081854
C71	C	0.700435	0.533480	-0.000086
C72	C	0.598583	0.533480	-0.000086
C73	C	0.553172	0.533475	-0.042071
C74	C	0.447902	0.533475	-0.042072
C75	C	1.300646	0.533480	-0.000087
C76	C	1.402499	0.533480	-0.000087
C77	C	1.000536	0.533461	-0.160069
C78	C	1.000535	0.533455	-0.214365
C79	C	1.000529	0.693487	-0.000112
C80	C	1.000526	0.747793	-0.000120
C81	C	0.941944	0.595977	-0.582349
C82	C	0.941947	0.595981	-0.633371
O83	O	0.892139	0.649122	-0.686336
N84	N	1.000552	0.533496	-0.627639
C85	C	1.059166	0.471003	-0.570880
O86	O	1.109015	0.417855	-0.570689
C87	C	1.059169	0.471000	-0.519859
C88	C	1.000551	0.533489	-0.525596
C89	C	0.883332	0.658461	-0.588083
C90	C	0.883327	0.658457	-0.537065
C91	C	0.941935	0.595969	-0.480311
C92	C	1.000546	0.533485	-0.474577
C93	C	1.117789	0.408508	-0.463101
C94	C	1.117787	0.408510	-0.412079
C95	C	1.059170	0.470999	-0.417816
C96	C	1.059149	0.470993	-0.366805
N97	N	1.000544	0.533478	-0.372537
C98	C	0.941937	0.595966	-0.429290
C99	C	1.059158	0.471014	-0.678030
C100	C	1.059149	0.471017	-0.729049
C101	C	0.941932	0.595995	-0.791538
C102	C	0.941934	0.595992	-0.740517
C103	C	1.000553	0.533499	-0.683762
C104	C	0.941931	0.595952	-0.322145
C105	C	0.941928	0.595943	-0.271118
C106	C	1.059150	0.470965	-0.208635
C107	C	1.059149	0.470974	-0.259657
C108	C	1.000537	0.533474	-0.316413
O109	O	1.108936	0.417878	-0.313821
O110	O	0.892109	0.649105	-0.429470
C111	C	1.000545	0.533499	0.159896
C112	C	1.000546	0.533505	0.214193
C113	C	1.300657	0.373472	-0.000061
C114	C	1.402514	0.319167	-0.000052
C115	C	1.000556	0.373491	0.159922
C116	C	1.000562	0.319192	0.214227
C117	C	1.300662	0.373491	0.159921
C118	C	1.402520	0.319192	0.214226
C119	C	0.700420	0.693469	-0.160094
C120	C	0.598562	0.747767	-0.214399
C121	C	0.700424	0.693487	-0.000111
C122	C	0.598567	0.747793	-0.000120
C123	C	1.000525	0.693469	-0.160094
C124	C	1.000520	0.747767	-0.214399
C125	C	1.391745	0.293661	-0.031294
C126	C	1.487441	0.242643	-0.031297
C127	C	1.593905	0.217128	-0.000056
C128	C	1.604672	0.242639	0.031185
C129	C	1.508977	0.293660	0.031186
C130	C	1.059166	0.293697	0.270974
C131	C	1.059167	0.242685	0.322005
C132	C	1.000569	0.217165	0.316286
C133	C	0.941957	0.242666	0.259533
C134	C	0.941950	0.293681	0.208504
C135	C	1.508964	0.293689	0.208489
C136	C	1.604680	0.242677	0.259509
C137	C	1.593949	0.217165	0.316267
C138	C	1.487493	0.242673	0.322003
C139	C	1.391780	0.293688	0.270983
C140	C	0.492117	0.773277	-0.208661
C141	C	0.396401	0.824305	-0.259682
C142	C	0.407132	0.849819	-0.316439
C143	C	0.513588	0.824308	-0.322176
C144	C	0.609301	0.773284	-0.271156
C145	C	0.609337	0.773304	0.031116
C146	C	0.513641	0.824336	0.031105
C147	C	0.407176	0.849853	-0.000137
C148	C	0.396409	0.824340	-0.031377
C149	C	0.492104	0.773312	-0.031370
C150	C	1.059129	0.773271	-0.208662
C151	C	1.059146	0.824283	-0.259683
C152	C	1.000546	0.849795	-0.316440
C153	C	0.941935	0.824287	-0.322176
C154	C	0.941925	0.773272	-0.271156
H155	H	0.850169	0.394603	-0.080222
H156	H	1.305065	0.314435	-0.056741
Cl157	Cl	0.527060	0.856388	-0.393533
Cl158	Cl	0.743166	0.741240	0.070394
Cl159	Cl	1.000566	0.913932	-0.380575
H160	H	1.478773	0.221894	0.368222
Cl161	Cl	1.270540	-0.052874	0.143829
Cl162	Cl	1.132861	0.210635	0.393344
H163	H	0.835607	0.709349	-0.634292
H164	H	1.106884	0.314469	0.275642
H165	H	1.517762	0.314420	0.056629
Cl166	Cl	1.000591	0.153030	0.380444
H167	H	0.309713	0.845123	-0.056814
Cl168	Cl	0.868247	0.674552	-0.747735
Cl169	Cl	1.191494	0.329943	-0.340731
Cl170	Cl	1.738522	0.210553	0.070460
Cl171	Cl	0.730569	0.119863	-0.144032
H172	H	1.106848	0.752506	-0.162452
Cl173	Cl	0.527202	0.856397	0.070384
Cl174	Cl	0.868299	0.210576	0.252355
Cl175	Cl	1.187634	0.110828	0.099677
H176	H	0.483320	0.752542	-0.056804
Cl177	Cl	0.813447	-0.159024	-0.099863
H178	H	0.894224	0.845067	-0.368395
H179	H	0.894231	0.314433	0.162300
Cl180	Cl	1.473879	0.210580	-0.070573
Cl181	Cl	0.286883	0.914002	-0.000139
H182	H	0.309730	0.845067	-0.255000
H183	H	0.441540	0.533488	0.035859
H184	H	1.106873	0.845046	-0.255001
Cl185	Cl	0.868245	0.674524	-0.393488
Cl186	Cl	0.868224	0.741224	-0.278380
H187	H	0.559530	0.533480	0.035861
Cl188	Cl	0.813461	0.310343	-0.099820
H189	H	1.150921	0.234260	0.080114
Cl190	Cl	0.730572	0.234990	-0.144018
Cl191	Cl	1.738496	0.210617	0.252284
Cl192	Cl	1.187598	-0.358503	0.099629
Cl193	Cl	0.813438	-0.043866	-0.099855
H194	H	1.150912	-0.235094	0.080061
Cl195	Cl	0.868223	0.674506	-0.278337
Cl196	Cl	1.522484	0.325756	0.137143
Cl197	Cl	1.132842	0.392444	-0.606682
H198	H	1.233823	-0.137145	0.124255
H199	H	1.671894	0.175625	0.357806
Cl200	Cl	0.613468	0.533463	-0.097569
H201	H	0.408847	0.533474	-0.078020
Cl202	Cl	1.132824	0.392455	-0.721829
Cl203	Cl	0.809614	0.737019	-0.544287
H204	H	1.305112	0.314446	0.275663
H205	H	1.165524	0.357622	-0.458418
Cl206	Cl	0.868260	0.674552	-0.862894
H207	H	1.106864	0.420091	-0.254984
H208	H	0.483358	0.752505	-0.162451
H209	H	1.106863	0.420089	-0.162418
Cl210	Cl	0.286794	0.913963	-0.380574
H211	H	1.671817	0.175583	-0.000061
H212	H	0.695971	0.752515	-0.275835
