data_functionalizedCrystal
_audit_creation_method	'MofGen! by Chris Wilmer'
_symmetry_space_group_name_H-M	'P1'
_symmetry_Int_Tables_number	1
_symmetry_cell_setting	triclinic
loop_
_symmetry_equiv_pos_as_xyz
  x,y,z
_cell_length_a	14.519731
_cell_length_b	16.109301
_cell_length_c	14.586319
_cell_angle_alpha	90.000787
_cell_angle_beta	89.995223
_cell_angle_gamma	96.424833
loop_
_atom_site_label
_atom_site_type_symbol
_atom_site_fract_x
_atom_site_fract_y
_atom_site_fract_z
O1	O	0.118539	-1.103344	-0.076184
O2	O	0.133291	-0.861309	-0.076199
O3	O	-0.008336	-0.988734	-0.076183
O4	O	0.260165	-0.975918	-0.076201
O5	O	-0.008338	-0.988726	0.076298
O6	O	0.133289	-0.861300	0.076282
O7	O	0.118537	-1.103335	0.076296
Cu8	Cu	0.125912	-0.982317	0.090212
Cu9	Cu	0.125915	-0.982327	-0.090115
O10	O	0.260163	-0.975910	0.076280
C11	C	0.132692	-0.830328	0.000039
C12	C	0.130901	-0.738030	0.000034
C13	C	-0.042695	-0.988129	0.000057
C14	C	-0.145072	-0.986330	0.000058
C15	C	0.119135	-1.134316	0.000056
C16	C	0.120927	-1.226614	0.000055
C17	C	-0.228213	-0.984868	0.000056
C18	C	-0.332518	-0.983041	0.000049
C19	C	-0.415654	-0.981591	0.000043
C20	C	-0.519965	-0.979764	0.000037
C21	C	0.294523	-0.976515	0.000038
C22	C	0.396899	-0.978314	0.000031
N23	N	0.125910	-0.982315	0.217043
C24	C	0.210773	-0.515901	0.000039
C25	C	0.209083	-0.429178	0.000045
C26	C	0.041048	-0.448750	0.000052
C27	C	0.042739	-0.535471	0.000053
C28	C	0.127605	-0.569045	0.000042
C29	C	0.124223	-0.395599	0.000047
C30	C	0.122389	-0.301570	0.000054
C31	C	0.129439	-0.663080	0.000037
N32	N	0.125910	-0.982335	-0.216946
C33	C	0.063219	-1.038758	0.452057
C34	C	0.063217	-1.038761	0.548038
C35	C	0.188604	-0.925886	0.548033
C36	C	0.188601	-0.925881	0.452054
C37	C	0.125910	-0.982321	0.404068
C38	C	0.125910	-0.982329	0.596029
C39	C	0.125908	-0.982332	0.700096
C40	C	0.125910	-0.982318	0.299994
H41	H	0.276807	-0.385911	0.000045
H42	H	-0.028047	-0.421403	0.000067
H43	H	0.239648	-0.879935	0.587113
H44	H	-0.024991	-0.578743	0.000058
O45	O	0.002194	-1.093551	0.594553
C46	C	-0.158148	-1.141994	0.623970
C47	C	-0.089138	-1.079908	0.571220
H48	H	-0.232006	-1.130974	0.605139
H49	H	-0.146184	-1.208616	0.605075
H50	H	-0.147336	-1.132315	0.700808
H51	H	-0.099909	-1.089510	0.494370
H52	H	-0.101120	-1.013308	0.590191
O53	O	0.293289	-0.548377	0.000077
C54	C	0.459778	-0.519807	0.000022
C55	C	0.366392	-0.482921	-0.000002
H56	H	0.518906	-0.466904	-0.000062
H57	H	0.464829	-0.559888	0.063850
H58	H	0.464726	-0.559948	-0.063776
H59	H	0.361380	-0.442743	0.063753
H60	H	0.361380	-0.442888	-0.063872
O61	O	0.002242	-1.093446	0.405362
C62	C	-0.123807	-1.110879	0.297124
C63	C	-0.054760	-1.048866	0.349914
H64	H	-0.169924	-1.074860	0.252296
H65	H	-0.084086	-1.152488	0.252098
H66	H	-0.168570	-1.151206	0.347955
H67	H	-0.009980	-1.008484	0.299149
H68	H	-0.094537	-1.007315	0.394954
H69	H	0.239652	-0.879919	0.412979
