data_functionalizedCrystal
_audit_creation_method	'MofGen! by Chris Wilmer'
_symmetry_space_group_name_H-M	'P1'
_symmetry_Int_Tables_number	1
_symmetry_cell_setting	triclinic
loop_
_symmetry_equiv_pos_as_xyz
  x,y,z
_cell_length_a	19.121215
_cell_length_b	19.120785
_cell_length_c	12.759393
_cell_angle_alpha	87.522438
_cell_angle_beta	87.531628
_cell_angle_gamma	94.788068
loop_
_atom_site_label
_atom_site_type_symbol
_atom_site_fract_x
_atom_site_fract_y
_atom_site_fract_z
Zn1	Zn	1.063790	-0.234315	-0.647135
Zn2	Zn	1.058677	-0.352007	-0.463595
Zn3	Zn	0.946114	-0.239358	-0.463613
Zn4	Zn	0.941072	-0.356961	-0.631385
O5	O	1.002413	-0.295660	-0.551432
O6	O	1.161578	-0.245743	-0.629372
O7	O	1.043716	-0.337101	-0.316572
O8	O	0.965974	-0.140218	-0.494557
O9	O	1.157821	-0.332211	-0.494526
O10	O	1.052430	-0.136512	-0.629390
O11	O	0.961016	-0.254339	-0.316585
O12	O	0.846979	-0.259142	-0.479284
O13	O	0.957381	-0.340654	-0.780500
O14	O	0.843275	-0.345545	-0.602546
O15	O	1.047541	-0.250547	-0.792071
O16	O	1.038827	-0.451136	-0.479253
O17	O	0.952423	-0.454775	-0.602528
C18	C	0.819596	-0.303429	-0.539208
C19	C	0.741385	-0.306769	-0.534003
C20	C	0.994542	-0.478487	-0.539204
C21	C	0.991239	-0.556699	-0.534012
C22	C	0.298942	-0.327916	-0.501069
C23	C	0.372430	-0.324774	-0.505953
C24	C	0.411128	-0.278257	-0.578706
C25	C	0.376336	-0.234875	-0.646574
C26	C	0.302850	-0.238014	-0.641684
C27	C	0.633107	-0.266526	-0.596981
C28	C	0.706598	-0.263392	-0.601867
C29	C	0.702687	-0.353290	-0.461244
C30	C	0.629199	-0.356429	-0.456366
C31	C	0.594413	-0.313044	-0.524229
C32	C	0.486244	-0.275045	-0.583702
C33	C	0.519299	-0.316252	-0.519228
C34	C	0.970284	-0.999148	-0.501158
C35	C	0.973389	-0.925660	-0.506036
C36	C	1.019924	-0.886929	-0.578726
C37	C	1.063352	-0.921690	-0.646550
C38	C	1.060243	-0.995176	-0.641676
C39	C	1.031558	-0.664947	-0.596962
C40	C	1.034665	-0.591455	-0.601828
C41	C	0.944701	-0.595430	-0.461315
C42	C	0.941599	-0.668918	-0.456443
C43	C	0.985024	-0.703673	-0.524271
C44	C	1.023100	-0.811812	-0.583712
C45	C	0.981844	-0.778788	-0.519289
C46	C	1.185945	-0.287862	-0.563704
C47	C	1.264155	-0.284539	-0.568934
C48	C	1.002469	-0.295590	-0.825474
C49	C	1.002493	-0.295561	-0.942254
C50	C	1.010334	-0.112118	-0.563732
C51	C	1.013710	-0.033904	-0.568974
C52	C	1.049443	-0.248634	-1.003143
C53	C	1.049456	-0.248604	-1.112870
C54	C	0.955567	-0.342432	-1.100808
C55	C	0.955551	-0.342458	-0.991083
C56	C	1.002401	-0.295677	-0.278463
C57	C	1.002522	-0.295503	-0.161706
H58	H	0.267439	-0.365799	-0.441830
H59	H	1.087664	-0.210445	-0.963390
C60	C	0.930684	-0.821394	-0.439294
N61	N	0.892161	-0.853490	-0.379024
C62	C	0.919091	-1.041746	-0.421192
N63	N	0.880529	-1.073829	-0.360963
H64	H	1.087686	-0.210390	-1.162443
C65	C	0.740958	-0.401003	-0.386589
N66	N	0.769784	-0.436938	-0.330350
C67	C	0.476728	-0.367420	-0.439202
N68	N	0.444658	-0.405962	-0.378929
C69	C	0.903897	-0.394082	-0.924100
N70	N	0.864991	-0.432961	-0.873648
C71	C	0.896931	-0.557195	-0.386719
N72	N	0.860945	-0.528395	-0.330534
C73	C	1.114542	-0.879082	-0.726509
N74	N	1.153102	-0.846991	-0.786732
H75	H	0.407850	-0.196997	-0.705807
H76	H	0.917350	-0.380615	-1.140578
H77	H	0.400750	-0.360095	-0.450689
H78	H	0.597696	-0.394307	-0.397121
C79	C	1.085850	-0.548852	-0.681810
N80	N	1.124398	-0.516764	-0.742053
C81	C	0.890404	-0.711517	-0.376483
N82	N	0.851844	-0.743603	-0.316254
H83	H	1.066926	-0.693234	-0.652180
C84	C	1.108017	-1.033407	-0.716277
N85	N	1.144001	-1.062201	-0.772470
H86	H	0.738104	-0.225507	-0.661111
H87	H	1.060991	-0.780271	-0.642896
C88	C	0.594851	-0.218806	-0.671641
N89	N	0.566035	-0.182863	-0.727881
H90	H	0.274527	-0.202689	-0.696944
H91	H	0.517761	-0.237173	-0.642940
H92	H	0.938028	-0.897362	-0.450815
