data_functionalizedCrystal
_audit_creation_method	'MofGen! by Chris Wilmer'
_symmetry_space_group_name_H-M	'P1'
_symmetry_Int_Tables_number	1
_symmetry_cell_setting	triclinic
loop_
_symmetry_equiv_pos_as_xyz
  x,y,z
_cell_length_a	10.723024
_cell_length_b	9.198806
_cell_length_c	10.723024
_cell_angle_alpha	89.997988
_cell_angle_beta	84.467869
_cell_angle_gamma	89.996352
loop_
_atom_site_label
_atom_site_type_symbol
_atom_site_fract_x
_atom_site_fract_y
_atom_site_fract_z
O1	O	1.657188	-0.120879	0.175024
O2	O	1.294035	-0.120884	0.191778
O3	O	1.483988	-0.120876	0.001825
O4	O	1.467235	-0.120887	0.364977
O5	O	1.483973	0.120909	0.001824
O6	O	1.294020	0.120901	0.191777
O7	O	1.657173	0.120906	0.175024
Cu8	Cu	1.475595	0.142981	0.183401
Cu9	Cu	1.475613	-0.142958	0.183401
O10	O	1.467220	0.120898	0.364977
C11	C	1.247528	0.000008	0.190558
C12	C	1.108974	0.000007	0.186911
C13	C	1.482762	0.000015	-0.044675
C14	C	1.479114	0.000010	-0.183229
C15	C	1.033991	0.000002	0.293198
C16	C	0.890788	0.000001	0.289431
C17	C	1.703680	0.000011	0.176243
C18	C	1.842234	0.000003	0.179891
N19	N	1.475592	0.344095	0.183399
N20	N	1.475626	-0.344072	0.183393
C21	C	1.555347	0.416295	0.103292
C22	C	1.555367	0.583707	0.103288
C23	C	1.585401	0.000009	-0.258212
C24	C	1.581634	0.000004	-0.401415
C25	C	1.468447	0.000004	0.411477
C26	C	1.472094	-0.000000	0.550031
H27	H	1.075814	0.000008	0.386984
F28	F	0.926441	-0.000003	0.060950
H29	H	1.623611	0.354171	0.034707
F30	F	1.386376	0.574786	0.273048
F31	F	1.054316	0.000020	0.064321
H32	H	1.381099	0.000010	-0.385544
H33	H	1.385328	-0.000001	-0.225051
F34	F	1.386352	0.425291	0.273035
F35	F	0.806574	-0.000015	0.408367
F36	F	1.644625	0.664859	0.013647
H37	H	1.679187	0.000019	-0.216390
H38	H	1.672624	0.000010	-0.465848
