data_functionalizedCrystal
_audit_creation_method	'MofGen! by Chris Wilmer'
_symmetry_space_group_name_H-M	'P1'
_symmetry_Int_Tables_number	1
_symmetry_cell_setting	triclinic
loop_
_symmetry_equiv_pos_as_xyz
  x,y,z
_cell_length_a	12.645330
_cell_length_b	12.759401
_cell_length_c	12.759393
_cell_angle_alpha	90.020895
_cell_angle_beta	89.969952
_cell_angle_gamma	89.983686
loop_
_atom_site_label
_atom_site_type_symbol
_atom_site_fract_x
_atom_site_fract_y
_atom_site_fract_z
Zn1	Zn	-0.422016	-1.606234	-0.594060
Zn2	Zn	-0.599320	-1.606119	-0.418384
Zn3	Zn	-0.422067	-1.430536	-0.418392
Zn4	Zn	-0.599233	-1.430515	-0.594019
O5	O	-0.510659	-1.518351	-0.506214
O6	O	-0.445550	-1.753239	-0.570770
O7	O	-0.575864	-1.582788	-0.271364
O8	O	-0.273713	-1.453899	-0.441715
O9	O	-0.575815	-1.753155	-0.441702
O10	O	-0.273675	-1.582983	-0.570777
O11	O	-0.445637	-1.453788	-0.271370
O12	O	-0.445553	-1.283512	-0.441675
O13	O	-0.575668	-1.453864	-0.741045
O14	O	-0.575717	-1.283497	-0.570707
O15	O	-0.445467	-1.582964	-0.741075
O16	O	-0.747656	-1.582768	-0.441662
O17	O	-0.747592	-1.453753	-0.570700
C18	C	-0.510632	-1.245383	-0.506188
C19	C	-0.510646	-1.128607	-0.506202
C20	C	-0.786089	-1.518274	-0.506199
C21	C	-0.903919	-1.518337	-0.506228
C22	C	-0.578390	-0.963977	-0.438920
C23	C	-0.578370	-1.073702	-0.438905
C24	C	-0.442929	-1.073782	-0.573511
C25	C	-0.442944	-0.964060	-0.573520
C26	C	-0.646126	-0.909078	-0.371627
C27	C	-0.713842	-0.963895	-0.304316
C28	C	-0.713822	-1.073619	-0.304301
C29	C	-0.646087	-1.128526	-0.371596
C30	C	-1.071487	-1.437509	-0.587656
C31	C	-0.948927	-1.437095	-0.587394
C32	C	-0.948522	-1.488364	-0.395505
C33	C	-1.071120	-1.487871	-0.395999
C34	C	-1.071008	-1.629634	-0.534625
C35	C	-0.948401	-1.628952	-0.537046
C36	C	-0.234154	-1.518456	-0.506251
C37	C	-0.116324	-1.518501	-0.506267
C38	C	-0.510552	-1.518424	-0.780247
C39	C	-0.510506	-1.518456	-0.897024
C40	C	-0.510682	-0.792384	-0.506234
C41	C	-0.510680	-0.909161	-0.506226
C42	C	-0.442704	-1.585687	-0.951903
C43	C	-0.442666	-1.585712	-1.061627
C44	C	-0.578241	-1.451271	-1.061583
C45	C	-0.578273	-1.451242	-0.951861
C46	C	-0.374937	-1.652901	-0.897066
C47	C	-0.307131	-1.720139	-0.951946
C48	C	-0.307092	-1.720164	-1.061670
C49	C	-0.374861	-1.652951	-1.116515
C50	C	-0.510689	-1.518338	-0.233246
C51	C	-0.510436	-1.518510	-0.116470
H52	H	-0.646151	-0.819735	-0.371634
H53	H	-1.100785	-1.544302	-0.333291
H54	H	-0.387804	-0.919427	-0.628322
H55	H	-0.768984	-0.919182	-0.249522
C56	C	-1.111214	-1.462596	-0.698936
C57	C	-1.077309	-1.393349	-0.791882
C58	C	-1.117047	-1.418437	-0.903165
C59	C	-1.190690	-1.512772	-0.921501
C60	C	-1.224599	-1.582025	-0.828552
C61	C	-1.184861	-1.556937	-0.717269
H62	H	-1.022791	-1.323511	-0.778311
H63	H	-1.091945	-1.367171	-0.971973
H64	H	-1.220106	-1.531344	-1.003879
H65	H	-1.279117	-1.651863	-0.842123
H66	H	-1.209963	-1.608203	-0.648461
H67	H	-0.919371	-1.545485	-0.333208
C68	C	-0.232504	-1.794118	-1.122038
C69	C	-0.241181	-1.913546	-1.106965
C70	C	-0.166594	-1.987507	-1.167330
C71	C	-0.083329	-1.942039	-1.242769
C72	C	-0.074648	-1.822605	-1.257845
C73	C	-0.149235	-1.748644	-1.197480
H74	H	-0.302822	-1.947210	-1.051118
H75	H	-0.173021	-2.075920	-1.156169
H76	H	-0.028115	-1.996789	-1.287455
H77	H	-0.013007	-1.788941	-1.313693
H78	H	-0.142809	-1.660230	-1.208642
H79	H	-0.374812	-1.652965	-1.205859
C80	C	-0.652858	-1.377300	-0.891474
C81	C	-0.644200	-1.257868	-0.906532
C82	C	-0.718783	-1.183926	-0.846138
C83	C	-0.802024	-1.229415	-0.770687
C84	C	-0.810686	-1.348853	-0.755626
C85	C	-0.736103	-1.422795	-0.816019
H86	H	-0.582576	-1.224189	-0.962388
H87	H	-0.712370	-1.095510	-0.857288
H88	H	-0.857235	-1.174678	-0.725980
H89	H	-0.872309	-1.382532	-0.699769
H90	H	-0.742516	-1.511211	-0.804869
H91	H	-0.917757	-1.692473	-0.482083
H92	H	-0.768953	-1.118248	-0.249487
H93	H	-0.646069	-1.217871	-0.371571
H94	H	-0.387783	-1.118496	-0.628300
H95	H	-0.918766	-1.455848	-0.669494
C96	C	-0.652790	-1.377349	-1.121909
C97	C	-0.652760	-1.377384	-1.242599
C98	C	-0.727314	-1.303464	-1.302923
C99	C	-0.801897	-1.229509	-1.242558
C100	C	-0.801930	-1.229470	-1.121861
C101	C	-0.727376	-1.303391	-1.061536
H102	H	-0.597547	-1.432133	-1.287291
H103	H	-0.727289	-1.303493	-1.392271
H104	H	-0.857086	-1.174788	-1.287213
H105	H	-0.857143	-1.174722	-1.077168
H106	H	-0.727401	-1.303362	-0.972188
H107	H	-1.100003	-1.689976	-0.475346
C108	C	-0.232586	-1.794067	-0.891622
C109	C	-0.232625	-1.794047	-0.770932
C110	C	-0.158078	-1.867977	-0.710612
C111	C	-0.083492	-1.941927	-0.770981
C112	C	-0.083450	-1.941950	-0.891678
C113	C	-0.157997	-1.868020	-0.951999
H114	H	-0.287841	-1.739303	-0.726237
H115	H	-0.158110	-1.867960	-0.621264
H116	H	-0.028308	-1.996655	-0.726328
H117	H	-0.028235	-1.996695	-0.936373
H118	H	-0.157966	-1.868037	-1.041347
H119	H	-1.102387	-1.355635	-0.569109
H120	H	-0.919692	-1.354706	-0.568607
C121	C	-1.109889	-1.378122	-0.363555
C122	C	-1.079786	-1.333171	-0.255598
C123	C	-1.118549	-1.223419	-0.223156
C124	C	-1.187414	-1.158619	-0.298672
C125	C	-1.217520	-1.203570	-0.406636
C126	C	-1.178758	-1.313322	-0.439078
H127	H	-1.028805	-1.381140	-0.199691
H128	H	-1.096261	-1.190143	-0.143234
H129	H	-1.216108	-1.077374	-0.274657
H130	H	-1.268502	-1.155601	-0.462543
H131	H	-1.201046	-1.346597	-0.519000
H132	H	-1.101845	-1.656976	-0.613991
C133	C	-0.909001	-1.659496	-0.647123
C134	C	-0.936520	-1.590308	-0.742142
C135	C	-0.897110	-1.620846	-0.852219
C136	C	-0.830181	-1.720572	-0.867277
C137	C	-0.802658	-1.789768	-0.772254
C138	C	-0.842068	-1.759230	-0.662177
H139	H	-0.986068	-1.516478	-0.730998
H140	H	-0.917485	-1.569622	-0.922561
H141	H	-0.801008	-1.743178	-0.948762
H142	H	-0.753110	-1.863597	-0.783398
H143	H	-0.821693	-1.810453	-0.591836
H144	H	-0.917911	-1.407972	-0.371048
H145	H	-0.374963	-1.652890	-0.807723
