data_functionalizedCrystal
_audit_creation_method	'MofGen! by Chris Wilmer'
_symmetry_space_group_name_H-M	'P1'
_symmetry_Int_Tables_number	1
_symmetry_cell_setting	triclinic
loop_
_symmetry_equiv_pos_as_xyz
  x,y,z
_cell_length_a	10.654545
_cell_length_b	14.971486
_cell_length_c	9.130313
_cell_angle_alpha	90.003208
_cell_angle_beta	90.003278
_cell_angle_gamma	84.048604
loop_
_atom_site_label
_atom_site_type_symbol
_atom_site_fract_x
_atom_site_fract_y
_atom_site_fract_z
O1	O	1.666496	0.125610	0.121786
O2	O	1.300888	0.137583	0.121792
O3	O	1.493491	0.001450	0.121778
O4	O	1.473893	0.261743	0.121799
O5	O	1.493477	0.001450	-0.121821
O6	O	1.300874	0.137583	-0.121807
O7	O	1.666481	0.125610	-0.121813
Cu8	Cu	1.483676	0.131597	-0.144053
Cu9	Cu	1.483693	0.131597	0.144031
O10	O	1.473878	0.261743	-0.121800
C11	C	1.254092	0.136705	-0.000007
C12	C	1.114677	0.134077	-0.000005
C13	C	1.049178	0.132840	-0.132791
C14	C	0.918185	0.130356	-0.132792
C15	C	0.918201	0.130350	0.132793
C16	C	1.049193	0.132828	0.132792
C17	C	1.492608	-0.031880	-0.000021
C18	C	1.489981	-0.131191	-0.000020
C19	C	1.603130	-0.187802	-0.000022
C20	C	1.600655	-0.281115	-0.000008
C21	C	1.485029	-0.317815	-0.000000
C22	C	1.371871	-0.261197	0.000007
C23	C	1.374348	-0.167886	0.000003
C24	C	1.366717	-0.455687	0.000012
C25	C	1.364240	-0.549005	0.000014
C26	C	1.593024	-0.568916	0.000002
C27	C	1.595500	-0.475605	-0.000002
C28	C	1.482342	-0.418994	0.000002
C29	C	1.713277	0.126488	-0.000011
C30	C	1.852693	0.129116	-0.000004
C31	C	1.474762	0.295073	0.000003
C32	C	1.477389	0.394384	0.000011
N33	N	1.483673	0.131596	-0.346675
C34	C	1.559917	0.186351	-0.423319
C35	C	1.559938	0.186345	-0.576655
C36	C	1.407459	0.076829	-0.576692
C37	C	1.407447	0.076830	-0.423358
N38	N	1.483706	0.131590	0.346654
H39	H	1.697286	-0.157929	-0.000037
C40	C	1.323602	0.016601	-0.661055
C41	C	1.341959	-0.085975	-0.639998
C42	C	1.258096	-0.146200	-0.724361
C43	C	1.155876	-0.103850	-0.829782
C44	C	1.137514	-0.001268	-0.850845
C45	C	1.221377	0.058957	-0.766481
H46	H	1.417632	-0.117331	-0.561955
H47	H	1.271689	-0.222138	-0.708769
H48	H	1.093795	-0.148432	-0.892233
H49	H	1.061841	0.030088	-0.928888
H50	H	1.207784	0.134895	-0.782074
C51	C	1.323569	0.016599	-0.339039
C52	C	1.239709	-0.043632	-0.423380
C53	C	1.155840	-0.103863	-0.339059
C54	C	1.155831	-0.103863	-0.170398
C55	C	1.239694	-0.043630	-0.086047
C56	C	1.323563	0.016601	-0.170368
H57	H	1.239713	-0.043635	-0.548241
H58	H	1.093759	-0.148452	-0.401502
H59	H	1.093746	-0.148450	-0.107979
H60	H	1.239690	-0.043628	0.038814
H61	H	1.385644	0.061189	-0.107925
H62	H	1.622025	0.230931	-0.639051
H63	H	0.864861	0.129349	-0.240920
H64	H	1.277726	-0.291085	0.000022
H65	H	1.102491	0.133858	-0.240923
H66	H	0.864868	0.129334	0.240911
C67	C	1.725124	-0.343383	-0.000016
C68	C	1.819819	-0.338774	-0.126521
C69	C	1.944296	-0.401041	-0.126526
C70	C	1.974079	-0.467917	-0.000025
C71	C	1.879382	-0.472529	0.126491
C72	C	1.754905	-0.410262	0.126495
H73	H	1.797774	-0.289266	-0.220174
H74	H	2.014397	-0.397627	-0.220182
H75	H	2.066224	-0.514011	-0.000028
H76	H	1.901427	-0.522038	0.220143
H77	H	1.684804	-0.413677	0.220151
H78	H	1.621986	0.230944	-0.360888
C79	C	1.717504	-0.631183	0.000002
C80	C	1.747250	-0.698079	-0.126488
C81	C	1.871726	-0.760348	-0.126499
C82	C	1.966455	-0.755720	-0.000019
C83	C	1.936711	-0.688821	0.126480
C84	C	1.812235	-0.626552	0.126491
H85	H	1.677124	-0.701507	-0.220124
H86	H	1.893744	-0.809871	-0.220142
H87	H	2.058599	-0.801815	-0.000027
H88	H	2.006837	-0.685393	0.220117
H89	H	1.790217	-0.577029	0.220135
C90	C	1.237059	-0.589387	0.000063
C91	C	1.203870	-0.650813	-0.126407
C92	C	1.076692	-0.691200	-0.126344
C93	C	0.982703	-0.670162	0.000189
C94	C	1.015891	-0.608733	0.126668
C95	C	1.143068	-0.568346	0.126605
H96	H	1.273448	-0.666389	-0.220083
H97	H	1.052125	-0.736674	-0.219972
H98	H	0.888559	-0.700059	0.000236
H99	H	0.946313	-0.593156	0.220344
H100	H	1.167635	-0.522872	0.220234
H101	H	1.274571	-0.409596	0.000020
H102	H	1.102524	0.133833	0.240929
H103	H	1.689653	-0.445727	-0.000019
H104	H	1.282210	-0.121793	0.000005
