data_functionalizedCrystal
_audit_creation_method	'MofGen! by Chris Wilmer'
_symmetry_space_group_name_H-M	'P1'
_symmetry_Int_Tables_number	1
_symmetry_cell_setting	triclinic
loop_
_symmetry_equiv_pos_as_xyz
  x,y,z
_cell_length_a	10.723024
_cell_length_b	11.026660
_cell_length_c	9.198806
_cell_angle_alpha	89.996329
_cell_angle_beta	89.997988
_cell_angle_gamma	96.526352
loop_
_atom_site_label
_atom_site_type_symbol
_atom_site_fract_x
_atom_site_fract_y
_atom_site_fract_z
O1	O	0.523486	1.614511	-0.120894
O2	O	1.023486	2.114511	0.379106
O3	O	0.463878	1.260711	-0.120896
O4	O	0.963878	1.760711	0.379104
O5	O	0.313867	1.445772	-0.120890
O6	O	0.813867	1.945772	0.379110
O7	O	0.673497	1.429450	-0.120900
O8	O	1.173497	1.929450	0.379100
O9	O	0.313863	1.445757	0.120896
O10	O	0.813863	1.945757	0.620896
O11	O	0.463874	1.260696	0.120890
O12	O	0.963874	1.760696	0.620890
O13	O	0.523482	1.614496	0.120891
O14	O	1.023482	2.114496	0.620891
Cu15	Cu	0.493678	1.437595	0.142967
Cu16	Cu	0.993678	1.937595	0.642967
Cu17	Cu	0.493682	1.437612	-0.142972
Cu18	Cu	0.993682	1.937612	0.357028
O19	O	0.673493	1.429435	0.120885
O20	O	1.173493	1.929435	0.620885
C21	C	0.452879	1.215401	-0.000003
C22	C	0.952879	1.715401	0.499997
C23	C	0.420098	1.080415	-0.000004
C24	C	0.920098	1.580415	0.499996
C25	C	0.267109	1.444577	0.000001
C26	C	0.767109	1.944577	0.500001
C27	C	0.127788	1.441023	-0.000004
C28	C	0.627788	1.941023	0.499996
C29	C	0.476745	0.867847	-0.000010
C30	C	0.976745	1.367847	0.499990
C31	C	0.510629	1.007362	-0.000008
C32	C	1.010629	1.507362	0.499992
C33	C	-0.087795	1.330634	-0.000012
C34	C	0.412205	1.830634	0.499988
C35	C	0.056201	1.334304	-0.000007
C36	C	0.556201	1.834304	0.499993
C37	C	0.720251	1.430630	-0.000009
C38	C	1.220251	1.930630	0.499991
C39	C	0.859572	1.434184	-0.000014
C40	C	1.359572	1.934184	0.499986
C41	C	0.534481	1.659806	-0.000005
C42	C	1.034481	2.159806	0.499995
C43	C	0.567262	1.794792	-0.000014
C44	C	1.067262	2.294792	0.499986
N45	N	0.493676	1.437591	0.344081
N46	N	0.993676	1.937591	0.844081
N47	N	0.493676	1.437625	-0.344086
N48	N	0.993676	1.937625	0.155914
C49	C	0.430339	1.515293	0.416281
C50	C	0.930339	2.015293	0.916281
C51	C	0.430339	1.515312	0.583693
C52	C	0.930339	2.015312	1.083693
H53	H	0.374164	0.827105	0.000015
H54	H	0.874164	1.327105	0.500015
H55	H	0.547910	1.371102	0.593835
H56	H	1.047910	1.871102	1.093835
H57	H	0.317509	1.039681	-0.000097
H58	H	0.817509	1.539681	0.499903
H59	H	0.613216	1.048098	-0.000001
H60	H	1.113216	1.548098	0.499999
H61	H	0.669843	0.835534	-0.000008
H62	H	1.169843	1.335534	0.499992
H63	H	-0.149337	1.239263	-0.000023
H64	H	0.350663	1.739263	0.499977
H65	H	0.547896	1.371077	0.406207
H66	H	1.047896	1.871077	0.906207
H67	H	0.082497	1.529675	0.000001
H68	H	0.582497	2.029675	0.500001
H69	H	-0.078885	1.525555	-0.000064
H70	H	0.421115	2.025555	0.499936
H71	H	0.376108	1.581799	0.354157
H72	H	0.876108	2.081799	0.854157
H73	H	0.101501	1.245657	0.000004
H74	H	0.601501	1.745657	0.500004
H75	H	0.376119	1.581840	0.645781
H76	H	0.876119	2.081840	1.145781
