data_functionalizedCrystal
_audit_creation_method	'MofGen! by Chris Wilmer'
_symmetry_space_group_name_H-M	'P1'
_symmetry_Int_Tables_number	1
_symmetry_cell_setting	triclinic
loop_
_symmetry_equiv_pos_as_xyz
  x,y,z
_cell_length_a	18.215407
_cell_length_b	19.805404
_cell_length_c	18.215399
_cell_angle_alpha	90.028419
_cell_angle_beta	90.016899
_cell_angle_gamma	90.027052
loop_
_atom_site_label
_atom_site_type_symbol
_atom_site_fract_x
_atom_site_fract_y
_atom_site_fract_z
Zn1	Zn	1.125048	-0.269516	0.416056
Zn2	Zn	1.625048	0.230484	0.916056
Zn3	Zn	1.124946	-0.382707	0.292989
Zn4	Zn	1.624946	0.117293	0.792989
Zn5	Zn	1.001980	-0.269532	0.293009
Zn6	Zn	1.501980	0.230468	0.793009
Zn7	Zn	1.001936	-0.382663	0.416020
Zn8	Zn	1.501936	0.117337	0.916020
O9	O	1.063478	-0.326105	0.354518
O10	O	1.563478	0.173895	0.854518
O11	O	1.228019	-0.284543	0.399737
O12	O	1.728019	0.215457	0.899737
O13	O	1.108610	-0.367719	0.190007
O14	O	1.608610	0.132281	0.690007
O15	O	1.018367	-0.174814	0.309356
O16	O	1.518367	0.325186	0.809356
O17	O	1.227944	-0.367703	0.309320
O18	O	1.727944	0.132297	0.809320
O19	O	1.108784	-0.174802	0.399757
O20	O	1.608784	0.325198	0.899757
O21	O	1.018268	-0.284570	0.190022
O22	O	1.518268	0.215430	0.690022
O23	O	0.898990	-0.284528	0.309321
O24	O	1.398990	0.215472	0.809321
O25	O	1.018291	-0.367629	0.519009
O26	O	1.518291	0.132371	1.019009
O27	O	0.898958	-0.367645	0.399696
O28	O	1.398958	0.132355	0.899696
O29	O	1.108741	-0.284500	0.519035
O30	O	1.608741	0.215500	1.019035
O31	O	1.108568	-0.477418	0.309285
O32	O	1.608568	0.022582	0.809285
O33	O	1.018193	-0.477386	0.399676
O34	O	1.518193	0.022614	0.899676
C35	C	0.872271	-0.326084	0.354507
C36	C	1.372271	0.173916	0.854507
C37	C	0.790472	-0.326091	0.354520
C38	C	1.290472	0.173909	0.854520
C39	C	0.525417	-0.369455	0.401512
C40	C	1.025417	0.130545	0.901512
C41	C	0.602276	-0.369449	0.401509
C42	C	1.102276	0.130551	0.901509
C43	C	0.602279	-0.282770	0.307538
C44	C	1.102279	0.217230	0.807538
C45	C	0.525422	-0.282779	0.307538
C46	C	1.025422	0.217221	0.807538
C47	C	0.486993	-0.326121	0.354529
C48	C	0.986993	0.173879	0.854529
C49	C	0.640709	-0.326106	0.354525
C50	C	1.140709	0.173894	0.854525
C51	C	0.724043	-0.326099	0.354521
C52	C	1.224043	0.173901	0.854521
C53	C	0.403654	-0.326129	0.354533
C54	C	0.903654	0.173871	0.854533
C55	C	1.063384	-0.501961	0.354490
C56	C	1.563384	-0.001961	0.854490
C57	C	1.063412	-0.577193	0.354503
C58	C	1.563412	-0.077193	0.854503
C59	C	1.110717	-1.038978	0.307555
C60	C	1.610717	-0.538978	0.807555
C61	C	1.110682	-0.968289	0.307541
C62	C	1.610682	-0.468289	0.807541
C63	C	1.063574	-0.932954	0.354557
C64	C	1.563574	-0.432954	0.854557
C65	C	1.016492	-0.968311	0.401586
C66	C	1.516492	-0.468311	0.901586
C67	C	1.016524	-1.038999	0.401596
C68	C	1.516524	-0.538999	0.901596
C69	C	1.016364	-0.683238	0.401546
C70	C	1.516364	-0.183238	0.901546
C71	C	1.016338	-0.612546	0.401534
C72	C	1.516338	-0.112546	0.901534
C73	C	1.110523	-0.612529	0.307490
C74	C	1.610523	-0.112529	0.807490
C75	C	1.110554	-0.683216	0.307500
C76	C	1.610554	-0.183216	0.807500
C77	C	1.063470	-0.718567	0.354526
C78	C	1.563470	-0.218567	0.854526
C79	C	1.063507	-0.795215	0.354540
C80	C	1.563507	-0.295215	0.854540
C81	C	1.063540	-0.856307	0.354548
C82	C	1.563540	-0.356307	0.854548
C83	C	1.255431	-0.326126	0.354530
C84	C	1.755431	0.173874	0.854530
C85	C	1.337229	-0.326135	0.354535
C86	C	1.837229	0.173865	0.854535
C87	C	1.063522	-0.326058	0.546471
C88	C	1.563522	0.173942	1.046471
C89	C	1.063542	-0.326038	0.628270
C90	C	1.563542	0.173962	1.128270
C91	C	1.063591	-0.149562	0.354563
C92	C	1.563591	0.350438	0.854563
C93	C	1.063640	-0.074330	0.354582
C94	C	1.563640	0.425670	0.854582
C95	C	1.063475	-0.326102	0.163312
C96	C	1.563475	0.173898	0.663312
C97	C	1.063599	-0.325932	0.081514
C98	C	1.563599	0.174068	0.581514
C99	C	1.110656	-0.282712	0.816479
C100	C	1.610656	0.217288	1.316479
C101	C	1.110664	-0.282693	0.893338
C102	C	1.610664	0.217307	1.393338
C103	C	1.016480	-0.369259	0.893299
C104	C	1.516480	0.130741	1.393299
C105	C	1.016468	-0.369275	0.816442
C106	C	1.516468	0.130725	1.316442
C107	C	1.063560	-0.326003	0.778034
C108	C	1.563560	0.173997	1.278034
C109	C	1.063581	-0.325967	0.931750
C110	C	1.563581	0.174033	1.431750
C111	C	1.063590	-0.325946	1.015084
C112	C	1.563590	0.174054	1.515084
C113	C	1.063550	-0.326023	0.694695
C114	C	1.563550	0.173977	1.194695
H115	H	0.494131	-0.404746	0.439775
H116	H	0.994131	0.095254	0.939775
H117	H	1.148859	-0.583739	0.269197
H118	H	1.648859	-0.083739	0.769197
C119	C	0.533139	-0.197091	0.214653
C120	C	1.033139	0.302909	0.714653
C121	C	0.483180	-0.235141	0.255892
C122	C	0.983180	0.264859	0.755892
H123	H	0.507059	-0.167682	0.182774
H124	H	1.007059	0.332318	0.682774
H125	H	0.563096	-0.226544	0.186448
H126	H	1.063096	0.273456	0.686448
H127	H	0.563137	-0.171233	0.246772
H128	H	1.063137	0.328767	0.746772
H129	H	0.453186	-0.261003	0.223773
H130	H	0.953186	0.238997	0.723773
H131	H	0.453211	-0.205685	0.284100
H132	H	0.953211	0.294315	0.784100
C133	C	0.923374	-0.454851	0.824117
C134	C	1.423374	0.045149	1.324117
C135	C	0.964699	-0.416866	0.774177
C136	C	1.464699	0.083134	1.274177
H137	H	0.891419	-0.484232	0.798023
H138	H	1.391419	0.015768	1.298023
H139	H	0.895246	-0.425355	0.854097
H140	H	1.395246	0.074645	1.354097
H141	H	0.955435	-0.480737	0.854093
H142	H	1.455435	0.019263	1.354093
H143	H	0.932638	-0.390977	0.744204
H144	H	1.432638	0.109023	1.244204
H145	H	0.992830	-0.446366	0.744184
H146	H	1.492830	0.053634	1.244184
H147	H	1.149081	-1.067743	0.269273
H148	H	1.649081	-0.567743	0.769273
C149	C	0.594548	-0.455120	0.494401
C150	C	1.094548	0.044880	0.994401
C151	C	0.644512	-0.417080	0.453157
C152	C	1.144512	0.082920	0.953157
H153	H	0.620624	-0.484523	0.526291
H154	H	1.120624	0.015477	1.026291
H155	H	0.564552	-0.480977	0.462291
H156	H	1.064552	0.019023	0.962291
H157	H	0.564589	-0.425655	0.522603
H158	H	1.064589	0.074345	1.022603
H159	H	0.674467	-0.446544	0.424951
H160	H	1.174467	0.053456	0.924951
H161	H	0.674520	-0.391220	0.485272
H162	H	1.174520	0.108780	0.985272
H163	H	1.148917	-0.711982	0.269217
H164	H	1.648917	-0.211982	0.769217
H165	H	0.978132	-0.939538	0.439865
H166	H	1.478132	-0.439538	0.939865
C167	C	1.203800	-0.975373	0.214597
C168	C	1.703800	-0.475373	0.714597
C169	C	1.162438	-0.929430	0.255855
C170	C	1.662438	-0.429430	0.755855
H171	H	1.235757	-0.951381	0.182692
H172	H	1.735757	-0.451381	0.682692
H173	H	1.171769	-1.002983	0.186419
H174	H	1.671769	-0.502983	0.686419
H175	H	1.231936	-1.002904	0.246703
H176	H	1.731936	-0.502904	0.746703
H177	H	1.134298	-0.901902	0.223749
H178	H	1.634298	-0.401902	0.723749
H179	H	1.194474	-0.901809	0.284036
H180	H	1.694474	-0.401809	0.784036
H181	H	0.633578	-0.247482	0.269280
H182	H	1.133578	0.252518	0.769280
H183	H	1.149013	-0.247440	0.924637
H184	H	1.649013	0.252560	1.424637
H185	H	0.977974	-0.583777	0.439821
H186	H	1.477974	-0.083777	0.939821
C187	C	0.923267	-0.676145	0.494509
C188	C	1.423267	-0.176145	0.994509
C189	C	0.964615	-0.722090	0.453241
C190	C	1.464615	-0.222090	0.953241
H191	H	0.891322	-0.700134	0.526427
H192	H	1.391322	-0.200134	1.026427
H193	H	0.895127	-0.648616	0.462415
H194	H	1.395127	-0.148616	0.962415
H195	H	0.955313	-0.648532	0.522680
H196	H	1.455313	-0.148532	1.022680
H197	H	0.932569	-0.749699	0.425065
H198	H	1.432569	-0.249699	0.925065
H199	H	0.992757	-0.749630	0.485338
H200	H	1.492757	-0.249630	0.985338
C201	C	1.120917	-0.191686	0.730076
C202	C	1.620917	0.308314	1.230076
C203	C	1.162410	-0.235141	0.774260
C204	C	1.662410	0.264859	1.274260
H205	H	1.152869	-0.162319	0.704011
H206	H	1.652869	0.337681	1.204011
H207	H	1.088877	-0.165793	0.760063
H208	H	1.588877	0.334207	1.260063
H209	H	1.092872	-0.217479	0.696179
H210	H	1.592872	0.282521	1.196179
H211	H	1.190450	-0.209348	0.808161
H212	H	1.690450	0.290652	1.308161
H213	H	1.194462	-0.261037	0.744270
H214	H	1.694462	0.238963	1.244270
H215	H	0.978193	-1.067781	0.439894
H216	H	1.478193	-0.567781	0.939894
H217	H	0.978140	-0.404491	0.924580
H218	H	1.478140	0.095509	1.424580
