data_functionalizedCrystal
_audit_creation_method	'MofGen! by Chris Wilmer'
_symmetry_space_group_name_H-M	'P1'
_symmetry_Int_Tables_number	1
_symmetry_cell_setting	triclinic
loop_
_symmetry_equiv_pos_as_xyz
  x,y,z
_cell_length_a	16.956995
_cell_length_b	16.974823
_cell_length_c	12.996460
_cell_angle_alpha	93.655544
_cell_angle_beta	89.990890
_cell_angle_gamma	100.268316
loop_
_atom_site_label
_atom_site_type_symbol
_atom_site_fract_x
_atom_site_fract_y
_atom_site_fract_z
O1	O	1.058003	-0.032767	-0.088366
O2	O	0.825816	-0.060528	-0.090664
O3	O	0.948383	0.068879	-0.079889
O4	O	0.935436	-0.162174	-0.099141
O5	O	0.948367	0.068871	0.091244
O6	O	0.825800	-0.060536	0.080469
O7	O	1.057988	-0.032775	0.082767
Cu8	Cu	0.941892	-0.046656	0.097244
Cu9	Cu	0.941911	-0.046647	-0.105141
O10	O	0.935420	-0.162182	0.071992
C11	C	0.796098	-0.061953	-0.005214
C12	C	0.707573	-0.066179	-0.005561
C13	C	0.947883	0.098301	0.008127
C14	C	0.946407	0.185981	0.015427
C15	C	0.208238	-0.097792	-0.008233
C16	C	0.291417	-0.093815	-0.007901
C17	C	0.342588	-0.019170	-0.001674
C18	C	0.310575	0.051503	0.004212
C19	C	0.227397	0.047526	0.003872
C20	C	0.592382	0.000517	-0.000015
C21	C	0.675565	0.004489	0.000327
C22	C	0.656402	-0.140830	-0.011788
C23	C	0.573223	-0.144801	-0.012120
C24	C	0.541217	-0.074128	-0.006241
N25	N	0.427611	-0.015103	-0.001331
N26	N	0.456196	-0.078195	-0.006591
C27	C	1.087705	-0.031350	-0.002685
C28	C	1.176230	-0.027124	-0.002345
C29	C	0.945724	0.227173	-0.074427
C30	C	0.944331	0.309557	-0.067565
C31	C	0.943628	0.350748	0.029152
C32	C	0.944309	0.309549	0.119013
C33	C	0.945695	0.227166	0.112150
C34	C	0.939475	0.597136	0.059681
C35	C	0.938091	0.679526	0.066537
C36	C	0.938112	0.679527	-0.120042
C37	C	0.939503	0.597143	-0.126897
C38	C	0.940180	0.555951	-0.037036
N39	N	0.942207	0.434958	0.036169
N40	N	0.941595	0.471742	-0.044053
C41	C	0.935923	0.808397	-0.016023
C42	C	0.937408	0.720718	-0.023317
N43	N	0.941885	-0.046662	0.239590
N44	N	0.941925	-0.046634	-0.247487
C45	C	0.941889	-0.046664	0.332696
C46	C	0.941896	-0.046658	0.449502
C47	C	0.941906	-0.046649	0.542601
C48	C	0.941915	-0.046644	0.659414
H49	H	0.317473	-0.151361	-0.012705
C50	C	0.366861	0.133611	0.011065
H51	H	0.420983	0.125860	0.010435
H52	H	0.357179	0.162822	-0.046177
H53	H	0.357150	0.162804	0.073185
C54	C	0.943532	0.354853	0.225403
H55	H	0.944129	0.318517	0.277934
H56	H	0.989470	0.396058	0.232715
H57	H	0.896503	0.377921	0.231202
C58	C	0.940233	0.551838	0.158525
H59	H	0.939627	0.588173	0.217106
H60	H	0.894295	0.510632	0.158984
H61	H	0.987262	0.528771	0.160474
H62	H	0.166579	-0.158577	-0.013297
H63	H	0.717228	0.065277	0.005394
H64	H	0.940077	0.563612	-0.205655
H65	H	0.943778	0.343093	-0.140735
H66	H	0.531564	-0.205585	-0.017195
H67	H	0.946301	0.193642	-0.153185
H68	H	0.201339	0.105071	0.008665
H69	H	0.682470	-0.198368	-0.016576
C70	C	0.937357	0.724838	-0.218880
H71	H	0.936423	0.779801	-0.200945
H72	H	0.984066	0.720405	-0.257587
H73	H	0.891099	0.702267	-0.259081
H74	H	0.946240	0.193626	0.185319
H75	H	0.566334	0.058064	0.004776
C76	C	0.937308	0.724833	0.172931
H77	H	0.937901	0.688500	0.225467
H78	H	0.983247	0.766038	0.180245
H79	H	0.890280	0.747902	0.178720
