data_functionalizedCrystal
_audit_creation_method	'MofGen! by Chris Wilmer'
_symmetry_space_group_name_H-M	'P1'
_symmetry_Int_Tables_number	1
_symmetry_cell_setting	triclinic
loop_
_symmetry_equiv_pos_as_xyz
  x,y,z
_cell_length_a	12.759401
_cell_length_b	12.759400
_cell_length_c	15.298259
_cell_angle_alpha	99.709100
_cell_angle_beta	80.339241
_cell_angle_gamma	90.012598
loop_
_atom_site_label
_atom_site_type_symbol
_atom_site_fract_x
_atom_site_fract_y
_atom_site_fract_z
Zn1	Zn	-1.503449	0.315475	-0.510067
Zn2	Zn	-1.533749	0.521594	-0.359212
Zn3	Zn	-1.358154	0.345921	-0.359227
Zn4	Zn	-1.327747	0.491114	-0.510032
O5	O	-1.430775	0.418526	-0.434635
O6	O	-1.654488	0.342832	-0.490065
O7	O	-1.535862	0.523788	-0.232968
O8	O	-1.377472	0.194857	-0.379257
O9	O	-1.676749	0.494267	-0.379232
O10	O	-1.484220	0.172489	-0.490079
O11	O	-1.406853	0.394722	-0.232979
O12	O	-1.207101	0.365166	-0.379223
O13	O	-1.325648	0.442317	-0.636283
O14	O	-1.184761	0.471839	-0.490019
O15	O	-1.454736	0.313277	-0.636309
O16	O	-1.506378	0.664576	-0.379198
O17	O	-1.355029	0.642182	-0.490005
C18	C	-1.157811	0.418499	-0.434619
C19	C	-1.041031	0.418509	-0.434634
C20	C	-1.430716	0.691497	-0.434616
C21	C	-1.430781	0.808269	-0.434638
C22	C	-1.383421	0.371001	-0.669945
C23	C	-1.363241	0.350749	-0.770221
C24	C	-0.974584	0.474178	-0.492229
C25	C	-0.864858	0.474185	-0.492238
C26	C	-0.888038	0.362853	-0.377047
C27	C	-0.997761	0.362840	-0.377044
C28	C	-1.017854	0.529847	-0.549819
C29	C	-0.951405	0.585521	-0.607418
C30	C	-0.841680	0.585529	-0.607427
C31	C	-0.798402	0.529861	-0.549836
C32	C	-0.704805	0.418544	-0.434648
C33	C	-0.821583	0.418529	-0.434645
C34	C	-1.430858	0.144485	-0.434673
C35	C	-1.430894	0.027705	-0.434690
C36	C	-1.509650	0.874744	-0.377005
C37	C	-1.509709	0.984463	-0.377033
C38	C	-1.352020	0.961221	-0.492329
C39	C	-1.351967	0.851504	-0.492305
C40	C	-1.588465	0.831509	-0.319337
C41	C	-1.667339	0.897985	-0.261698
C42	C	-1.667398	1.007704	-0.261726
C43	C	-1.588582	1.050946	-0.319393
C44	C	-1.575035	0.562463	-1.052851
C45	C	-1.593990	0.581498	-0.958637
C46	C	-1.536304	0.523812	-0.911528
C47	C	-1.459661	0.447089	-0.958642
C48	C	-1.440699	0.428058	-1.052865
C49	C	-1.401968	0.389407	-0.911543
C50	C	-1.325325	0.312683	-0.958657
C51	C	-1.306367	0.293655	-1.052871
C52	C	-1.364052	0.351341	-1.099979
C53	C	-1.420930	0.408437	-0.817320
C54	C	-1.286594	0.274032	-0.817335
C55	C	-1.267640	0.254997	-0.911548
C56	C	-1.478005	0.465790	-0.200240
C57	C	-1.498388	0.485747	-0.099965
H58	H	-1.107197	0.529849	-0.549817
Br59	Br	-1.698001	0.685618	-0.894702
H60	H	-1.731514	0.862770	-0.214753
Br61	Br	-1.244933	0.761280	-0.570528
Br62	Br	-1.010134	0.661055	-0.685581
Br63	Br	-1.245062	1.019908	-0.570585
H64	H	-1.621987	0.609430	-1.091215
H65	H	-0.787578	0.630853	-0.654333
H66	H	-1.588644	1.140286	-0.319418
H67	H	-1.051863	0.317500	-0.330152
H68	H	-1.483340	0.470900	-0.778969
H69	H	-1.551741	0.539316	-0.834815
Br70	Br	-0.649485	0.529859	-0.549858
H71	H	-0.852793	0.317532	-0.330159
Br72	Br	-1.202302	0.189580	-1.116810
Br73	Br	-1.774450	1.097917	-0.183515
H74	H	-1.348626	0.335845	-1.176696
H75	H	-1.239621	0.227060	-0.778979
Br76	Br	-1.588657	0.682551	-0.319574
Br77	Br	-1.163628	0.150874	-0.975499
