data_functionalizedCrystal
_audit_creation_method	'MofGen! by Chris Wilmer'
_symmetry_space_group_name_H-M	'P1'
_symmetry_Int_Tables_number	1
_symmetry_cell_setting	triclinic
loop_
_symmetry_equiv_pos_as_xyz
  x,y,z
_cell_length_a	12.759395
_cell_length_b	16.625539
_cell_length_c	12.759394
_cell_angle_alpha	89.975368
_cell_angle_beta	90.014682
_cell_angle_gamma	89.986391
loop_
_atom_site_label
_atom_site_type_symbol
_atom_site_fract_x
_atom_site_fract_y
_atom_site_fract_z
Zn1	Zn	1.606207	-0.455845	-0.418288
Zn2	Zn	1.606115	-0.321017	-0.593984
Zn3	Zn	1.430523	-0.321034	-0.418319
Zn4	Zn	1.430497	-0.455815	-0.593925
O5	O	1.518336	-0.388428	-0.506129
O6	O	1.753216	-0.437966	-0.441606
O7	O	1.582795	-0.208187	-0.570719
O8	O	1.453878	-0.338937	-0.271294
O9	O	1.753149	-0.338908	-0.570689
O10	O	1.582952	-0.437982	-0.271271
O11	O	1.453788	-0.208199	-0.441658
O12	O	1.283499	-0.338907	-0.441602
O13	O	1.453833	-0.568651	-0.570590
O14	O	1.283480	-0.437930	-0.570619
O15	O	1.582927	-0.568674	-0.441550
O16	O	1.582770	-0.338878	-0.740997
O17	O	1.453744	-0.437914	-0.740954
C18	C	1.245368	-0.388418	-0.506108
C19	C	1.128592	-0.388433	-0.506125
C20	C	1.128643	-0.491748	-0.371928
C21	C	1.073807	-0.543413	-0.304843
C22	C	0.964086	-0.543423	-0.304861
C23	C	0.909197	-0.491761	-0.371970
C24	C	0.964032	-0.440097	-0.439056
C25	C	1.073756	-0.440094	-0.439032
C26	C	0.963981	-0.336778	-0.573246
C27	C	1.073703	-0.336771	-0.573234
C28	C	0.909092	-0.285117	-0.640355
C29	C	0.963928	-0.233455	-0.707447
C30	C	1.073656	-0.233448	-0.707427
C31	C	1.128538	-0.285107	-0.640319
C32	C	1.518387	-0.598737	-0.506060
C33	C	1.518409	-0.688358	-0.506030
C34	C	1.518426	-0.761140	-0.506007
C35	C	1.518451	-0.852449	-0.505968
C36	C	1.518476	-0.925225	-0.505931
C37	C	1.518502	-1.016540	-0.505893
C38	C	1.792369	-0.388438	-0.506151
C39	C	1.909146	-0.388443	-0.506160
C40	C	1.518273	-0.388408	-0.779097
C41	C	1.518342	-0.388427	-0.895873
C42	C	1.518345	-0.178937	-0.506122
C43	C	1.518527	-0.089316	-0.505856
C44	C	1.652797	-0.285378	-0.895865
C45	C	1.720052	-0.233864	-0.950721
C46	C	1.720114	-0.233886	-1.060443
C47	C	1.652915	-0.285430	-1.115310
C48	C	1.585660	-0.336944	-1.060454
C49	C	1.585604	-0.336915	-0.950730
C50	C	1.451212	-0.439995	-1.060463
C51	C	1.451143	-0.439971	-0.950741
C52	C	1.384013	-0.491539	-1.115330
C53	C	1.316752	-0.543051	-1.060474
C54	C	1.316692	-0.543027	-0.950746
C55	C	1.383888	-0.491485	-0.895885
C56	C	1.518428	-0.388465	-0.232096
C57	C	1.518467	-0.388481	-0.115319
H58	H	0.819856	-0.491767	-0.371971
C59	C	0.751951	-0.361794	-0.667315
C60	C	0.788485	-0.285127	-0.640380
H61	H	0.677492	-0.361797	-0.667339
H62	H	0.776787	-0.399944	-0.617748
H63	H	0.776785	-0.375628	-0.735135
H64	H	0.763657	-0.271295	-0.572557
H65	H	0.763638	-0.246965	-0.689949
C66	C	1.898064	-0.194720	-1.094121
C67	C	1.794044	-0.177260	-1.120742
H68	H	1.943703	-0.159758	-1.131342
H69	H	1.913402	-0.248901	-1.112045
H70	H	1.907633	-0.187327	-1.020921
H71	H	1.784473	-0.184658	-1.193941
H72	H	1.778700	-0.123066	-1.102824
H73	H	1.383840	-0.491455	-0.806543
H74	H	1.774767	-0.191899	-0.906038
H75	H	1.262049	-0.585018	-1.105156
C76	C	0.795708	-0.187591	-0.767052
C77	C	0.903594	-0.176675	-0.781208
H78	H	0.758460	-0.152540	-0.812596
H79	H	0.777740	-0.175886	-0.696451
H80	H	0.777757	-0.241748	-0.782526
H81	H	0.921546	-0.122519	-0.765726
H82	H	0.921569	-0.188375	-0.851826
C83	C	1.752948	-0.306078	-1.272375
C84	C	1.652995	-0.285457	-1.235918
H85	H	1.752996	-0.306091	-1.346834
H86	H	1.771049	-0.358112	-1.247490
H87	H	1.802583	-0.268008	-1.247538
H88	H	1.603360	-0.323532	-1.260748
H89	H	1.634881	-0.233416	-1.260814
C90	C	1.410843	-0.568293	-1.272410
C91	C	1.384088	-0.491567	-1.235938
H92	H	1.410894	-0.568307	-1.346869
H93	H	1.361172	-0.606341	-1.247598
H94	H	1.478620	-0.582259	-1.247511
H95	H	1.316308	-0.477604	-1.260831
H96	H	1.433762	-0.453507	-1.260761
H97	H	1.217879	-0.285102	-0.640291
C98	C	1.062574	-0.131323	-0.840077
C99	C	1.133927	-0.176659	-0.781175
H100	H	1.099782	-0.096268	-0.885612
H101	H	1.019776	-0.100548	-0.794251
H102	H	1.019784	-0.166409	-0.880330
H103	H	1.176712	-0.141573	-0.740916
H104	H	1.176743	-0.207436	-0.827007
H105	H	1.217984	-0.491742	-0.371901
H106	H	1.261929	-0.584979	-0.906087
H107	H	1.652740	-0.285345	-0.806524
C108	C	1.242029	-0.589289	-0.245231
C109	C	1.134143	-0.600200	-0.231082
H110	H	1.279273	-0.624350	-0.199697
H111	H	1.259985	-0.535141	-0.229748
H112	H	1.259999	-0.600988	-0.315844
H113	H	1.116171	-0.588495	-0.160471
H114	H	1.116180	-0.654360	-0.246557
C115	C	0.975145	-0.645559	-0.172218
C116	C	0.903804	-0.600215	-0.231126
H117	H	0.937928	-0.680623	-0.126704
H118	H	1.017923	-0.610484	-0.131954
H119	H	1.017957	-0.676331	-0.218050
H120	H	0.860998	-0.569438	-0.185294
H121	H	0.861009	-0.635294	-0.271393
