data_functionalizedCrystal
_audit_creation_method	'MofGen! by Chris Wilmer'
_symmetry_space_group_name_H-M	'P1'
_symmetry_Int_Tables_number	1
_symmetry_cell_setting	triclinic
loop_
_symmetry_equiv_pos_as_xyz
  x,y,z
_cell_length_a	18.050591
_cell_length_b	18.050589
_cell_length_c	19.805399
_cell_angle_alpha	89.976299
_cell_angle_beta	89.979210
_cell_angle_gamma	90.024669
loop_
_atom_site_label
_atom_site_type_symbol
_atom_site_fract_x
_atom_site_fract_y
_atom_site_fract_z
Zn1	Zn	1.135300	-0.295737	-0.382815
Zn2	Zn	1.135209	-0.419932	-0.269637
Zn3	Zn	1.011117	-0.295753	-0.269632
Zn4	Zn	1.011067	-0.419882	-0.382776
O5	O	1.073173	-0.357826	-0.326215
O6	O	1.239213	-0.312226	-0.367820
O7	O	1.118730	-0.403487	-0.174920
O8	O	1.027649	-0.191826	-0.284660
O9	O	1.239145	-0.403472	-0.284669
O10	O	1.118886	-0.191814	-0.367815
O11	O	1.027561	-0.312253	-0.174916
O12	O	0.907186	-0.312204	-0.284622
O13	O	1.027565	-0.403386	-0.477498
O14	O	0.907149	-0.403401	-0.367749
O15	O	1.118838	-0.312177	-0.477526
O16	O	1.118682	-0.523850	-0.284631
O17	O	1.027476	-0.523813	-0.367754
C18	C	0.880221	-0.357800	-0.326181
C19	C	0.797675	-0.357806	-0.326183
C20	C	0.548848	-0.308162	-0.281085
C21	C	0.598281	-0.290074	-0.342855
C22	C	0.500555	-0.357844	-0.326238
C23	C	0.598203	-0.375878	-0.264445
C24	C	0.646540	-0.357824	-0.326208
C25	C	0.548901	-0.339722	-0.388041
C26	C	0.548819	-0.425557	-0.309589
C27	C	0.598230	-0.407495	-0.371401
C28	C	0.416457	-0.357854	-0.326255
C29	C	0.730637	-0.357814	-0.326198
C30	C	1.073084	-0.550778	-0.326204
C31	C	1.073113	-0.633324	-0.326222
C32	C	1.023564	-0.832781	-0.371408
C33	C	1.005465	-0.882221	-0.309644
C34	C	1.073186	-0.784454	-0.326230
C35	C	1.091322	-0.882096	-0.388002
C36	C	1.073255	-0.930439	-0.326244
C37	C	1.055051	-0.832806	-0.264433
C38	C	1.140940	-0.832678	-0.342833
C39	C	1.122866	-0.882095	-0.281026
C40	C	1.073144	-0.700356	-0.326223
C41	C	1.073297	-1.014536	-0.326245
C42	C	1.266879	-0.357853	-0.326249
C43	C	1.349425	-0.357864	-0.326264
C44	C	1.073206	-0.357774	-0.502758
C45	C	1.073220	-0.357752	-0.577990
C46	C	1.073283	-0.164120	-0.326241
C47	C	1.073330	-0.081574	-0.326252
C48	C	1.025761	-0.310242	-0.613331
C49	C	1.025771	-0.310228	-0.684020
C50	C	1.073244	-0.357720	-0.719366
C51	C	1.120705	-0.405235	-0.684019
C52	C	1.120690	-0.405253	-0.613332
C53	C	1.120764	-0.405166	-0.969092
C54	C	1.120776	-0.405143	-1.039785
C55	C	1.025845	-0.310141	-1.039781
C56	C	1.025830	-0.310158	-0.969093
C57	C	1.073288	-0.357676	-0.933753
C58	C	1.073275	-0.357692	-0.857105
C59	C	1.073261	-0.357701	-0.796013
C60	C	1.073184	-0.357823	-0.150359
C61	C	1.073314	-0.357636	-0.075127
H62	H	0.619862	-0.391139	-0.212200
N63	N	0.520391	-0.319383	-0.457276
H64	H	0.489202	-0.361276	-0.475571
H65	H	0.489300	-0.273018	-0.454012
N66	N	1.171975	-0.456371	-1.077914
H67	H	1.225044	-0.444857	-1.065625
H68	H	1.160339	-0.509415	-1.065592
N69	N	1.171914	-0.456460	-0.722133
H70	H	1.160345	-0.509523	-0.709820
H71	H	1.164705	-0.449179	-0.772265
N72	N	0.974646	-0.258899	-1.077900
H73	H	0.944573	-0.228815	-1.044781
H74	H	1.004900	-0.224529	-1.107242
N75	N	1.171880	-0.456499	-0.575216
H76	H	1.224951	-0.444970	-0.587528
H77	H	1.164605	-0.449286	-0.525085
H78	H	0.981539	-0.811128	-0.409559
H79	H	0.527167	-0.266124	-0.242961
N80	N	0.627061	-0.214215	-0.361504
H81	H	0.609102	-0.176726	-0.327383
H82	H	0.683006	-0.214959	-0.361796
H83	H	1.039674	-0.811244	-0.212185
H84	H	0.619774	-0.449501	-0.409616
N85	N	0.974560	-0.259010	-0.575217
H86	H	0.921494	-0.270533	-0.587509
H87	H	0.981813	-0.266247	-0.525086
N88	N	0.520015	-0.501398	-0.290928
H89	H	0.537915	-0.514986	-0.244228
H90	H	0.464070	-0.500904	-0.291555
N91	N	1.216777	-0.803830	-0.361451
H92	H	1.230407	-0.821726	-0.408140
H93	H	1.216249	-0.747885	-0.360831
H94	H	1.159399	-0.443866	-0.940327
H95	H	0.948200	-0.903999	-0.295614
H96	H	1.164860	-0.903611	-0.242783
N97	N	1.111606	-0.910784	-0.457187
H98	H	1.074060	-0.892846	-0.491267
H99	H	1.162405	-0.891984	-0.470015
N100	N	0.974582	-0.258988	-0.722139
H101	H	0.944509	-0.228901	-0.689022
H102	H	1.004837	-0.224618	-0.751481
H103	H	0.987176	-0.271482	-0.940319
