data_functionalizedCrystal
_audit_creation_method	'MofGen! by Chris Wilmer'
_symmetry_space_group_name_H-M	'P1'
_symmetry_Int_Tables_number	1
_symmetry_cell_setting	triclinic
loop_
_symmetry_equiv_pos_as_xyz
  x,y,z
_cell_length_a	12.759401
_cell_length_b	13.031981
_cell_length_c	12.759393
_cell_angle_alpha	82.782247
_cell_angle_beta	89.978811
_cell_angle_gamma	97.191589
loop_
_atom_site_label
_atom_site_type_symbol
_atom_site_fract_x
_atom_site_fract_y
_atom_site_fract_z
Zn1	Zn	1.553145	-0.416057	-0.540877
Zn2	Zn	1.530723	-0.590873	-0.342853
Zn3	Zn	1.377440	-0.416111	-0.365201
Zn4	Zn	1.355130	-0.590792	-0.518496
O5	O	1.454110	-0.503458	-0.441857
O6	O	1.697190	-0.439258	-0.514622
O7	O	1.510343	-0.567747	-0.198789
O8	O	1.419468	-0.269838	-0.407225
O9	O	1.680717	-0.567695	-0.369134
O10	O	1.548557	-0.269799	-0.536293
O11	O	1.397727	-0.439350	-0.215208
O12	O	1.227461	-0.439272	-0.385523
O13	O	1.381444	-0.567557	-0.668493
O14	O	1.211070	-0.567609	-0.498148
O15	O	1.526924	-0.439180	-0.684937
O16	O	1.488710	-0.737128	-0.347433
O17	O	1.359703	-0.737069	-0.476477
C18	C	1.181145	-0.503438	-0.441832
C19	C	1.064366	-0.503455	-0.441844
C20	C	0.891203	-0.570248	-0.366045
C21	C	1.000930	-0.570229	-0.366017
C22	C	1.018072	-0.436688	-0.517695
C23	C	0.908348	-0.436703	-0.517717
C24	C	0.881307	-0.647350	-0.278477
C25	C	0.991034	-0.647331	-0.278450
C26	C	1.419381	-0.775023	-0.407124
C27	C	1.404620	-0.891200	-0.392300
C28	C	1.461869	-0.942892	-0.449614
C29	C	1.446615	-1.062967	-0.434295
C30	C	1.728140	-0.503480	-0.441882
C31	C	1.844916	-0.503489	-0.441893
C32	C	1.454197	-0.503353	-0.715904
C33	C	1.454234	-0.503308	-0.832686
C34	C	1.489002	-0.230833	-0.476748
C35	C	1.503871	-0.114656	-0.491617
C36	C	1.529995	-0.436456	-0.896113
C37	C	1.530025	-0.436418	-1.005842
C38	C	1.378527	-0.570094	-0.988707
C39	C	1.378494	-0.570126	-0.878981
C40	C	1.617464	-0.359282	-0.906006
C41	C	1.617494	-0.359244	-1.015735
C42	C	1.454093	-0.503488	-0.168886
C43	C	1.454297	-0.503239	-0.052141
H44	H	0.854265	-0.625582	-0.199933
H45	H	0.870666	-0.382333	-0.579473
F46	F	1.325789	-0.949541	-0.313343
H47	H	1.564178	-1.070022	-0.552036
H48	H	1.316798	-0.624559	-0.827343
H49	H	1.606029	-0.278336	-0.886595
H50	H	1.696097	-0.380925	-1.042746
F51	F	1.592150	-0.258762	-1.073085
F52	F	0.823993	-0.747905	-0.303560
F53	F	1.040318	-0.609305	-0.182336
F54	F	1.085589	-0.365614	-0.598389
H55	H	1.691032	-0.388301	-0.868265
H56	H	1.010480	-0.728303	-0.289752
F57	F	1.540686	-0.884551	-0.528587
F58	F	1.297924	-0.641201	-1.037986
F59	F	1.367778	-1.121304	-0.355333
