data_functionalizedCrystal
_audit_creation_method	'MofGen! by Chris Wilmer'
_symmetry_space_group_name_H-M	'P1'
_symmetry_Int_Tables_number	1
_symmetry_cell_setting	triclinic
loop_
_symmetry_equiv_pos_as_xyz
  x,y,z
_cell_length_a	29.839134
_cell_length_b	16.994731
_cell_length_c	29.839125
_cell_angle_alpha	89.938631
_cell_angle_beta	90.021980
_cell_angle_gamma	89.943075
loop_
_atom_site_label
_atom_site_type_symbol
_atom_site_fract_x
_atom_site_fract_y
_atom_site_fract_z
Zn1	Zn	0.687011	-0.314247	0.254372
Zn2	Zn	0.687065	-0.446128	0.179346
Zn3	Zn	0.611894	-0.314230	0.179242
Zn4	Zn	0.611964	-0.446102	0.254434
O5	O	0.649483	-0.380177	0.216848
O6	O	0.749885	-0.331760	0.244437
O7	O	0.677087	-0.428635	0.116465
O8	O	0.621806	-0.203851	0.189138
O9	O	0.749925	-0.428652	0.189316
O10	O	0.676994	-0.203864	0.244336
O11	O	0.621859	-0.331730	0.116388
O12	O	0.549036	-0.331705	0.189199
O13	O	0.621925	-0.428607	0.317293
O14	O	0.549087	-0.428590	0.244442
O15	O	0.677062	-0.331734	0.317248
O16	O	0.677155	-0.556506	0.189376
O17	O	0.621978	-0.556487	0.244543
C18	C	0.532761	-0.380143	0.216816
C19	C	0.482826	-0.380148	0.216813
C20	C	0.649506	-0.674437	0.216883
C21	C	0.649546	-0.585115	0.216942
Zn22	Zn	0.687130	-0.814213	0.179391
Zn23	Zn	0.611748	-0.814264	0.254198
Zn24	Zn	0.686794	-0.946382	0.254414
Zn25	Zn	0.611959	-0.945847	0.179002
O26	O	0.649408	-0.880176	0.216751
O27	O	0.677183	-0.703839	0.189387
O28	O	0.621474	-0.832035	0.317093
O29	O	0.749705	-0.929052	0.244715
O30	O	0.621800	-0.703876	0.244347
O31	O	0.749952	-0.831948	0.189596
O32	O	0.676610	-0.929101	0.317252
O33	O	0.676815	-1.056692	0.244338
O34	O	0.622160	-0.928141	0.116187
O35	O	0.621834	-1.056299	0.188933
O36	O	0.677388	-0.831430	0.116473
O37	O	0.548909	-0.831516	0.243970
O38	O	0.549064	-0.928190	0.188724
C39	C	0.173219	-0.430700	0.245579
C40	C	-0.014454	-0.430722	0.245599
O41	O	-0.038688	-0.473666	0.270037
N42	N	-0.037959	-0.380206	0.216882
C43	C	-0.014543	-0.329677	0.188161
O44	O	-0.038841	-0.286704	0.163740
C45	C	0.173130	-0.329651	0.188144
C46	C	0.196632	-0.380176	0.216859
C47	C	0.196722	-0.481220	0.274292
C48	C	0.243637	-0.481217	0.274285
C49	C	0.267050	-0.430694	0.245565
C50	C	0.243548	-0.380173	0.216852
C51	C	0.196545	-0.279119	0.159425
C52	C	0.243466	-0.279115	0.159424
C53	C	0.266968	-0.329641	0.188139
C54	C	0.313876	-0.329647	0.188125
N55	N	0.337381	-0.380163	0.216841
C56	C	0.313968	-0.430686	0.245561
C57	C	-0.113073	-0.329695	0.188172
C58	C	-0.159991	-0.329702	0.188175
C59	C	-0.159899	-0.430747	0.245614
C60	C	-0.112980	-0.430743	0.245607
C61	C	-0.089568	-0.380211	0.216888
C62	C	0.412494	-0.430677	0.245544
C63	C	0.459413	-0.430671	0.245533
C64	C	0.459317	-0.329625	0.188096
C65	C	0.412402	-0.329632	0.188105
C66	C	0.388991	-0.380161	0.216833
O67	O	0.338139	-0.286719	0.163702
O68	O	0.338275	-0.473640	0.269986
C69	C	0.126304	-0.430703	0.245586
C70	C	0.102801	-0.380182	0.216873
C71	C	0.126214	-0.329659	0.188153
C72	C	0.055883	-0.380190	0.216876
C73	C	0.032470	-0.430713	0.245596
C74	C	0.055975	-0.481229	0.274313
C75	C	0.102891	-0.481226	0.274306
C76	C	0.102709	-0.279143	0.159436
C77	C	0.055794	-0.279150	0.159445
C78	C	0.032381	-0.329674	0.188165
C79	C	0.766662	-0.380211	0.216881
C80	C	0.816596	-0.380226	0.216895
C81	C	0.649495	-0.380170	0.334027
C82	C	0.649501	-0.380167	0.383961
C83	C	0.649383	-0.174436	0.216718
C84	C	0.649341	-0.085114	0.216661
C85	C	0.649497	-0.380127	0.100126
C86	C	0.649579	-0.379908	0.050192
C87	C	0.678241	-0.329593	0.693584
C88	C	0.678263	-0.329526	0.881257
O89	O	0.702665	-0.286601	0.905504
N90	N	0.649560	-0.379955	0.904746
C91	C	0.620848	-0.430402	0.881315
O92	O	0.596431	-0.473288	0.905600
C93	C	0.620823	-0.430465	0.693642
C94	C	0.649531	-0.380037	0.670155
C95	C	0.706946	-0.279169	0.670097
C96	C	0.706942	-0.279189	0.623182
C97	C	0.678232	-0.329634	0.599753
C98	C	0.649527	-0.380058	0.623240
C99	C	0.592109	-0.480907	0.670212
C100	C	0.592105	-0.480917	0.623290
C101	C	0.620813	-0.430489	0.599804
C102	C	0.620814	-0.430522	0.552896
N103	N	0.649517	-0.380093	0.529407
C104	C	0.678226	-0.329648	0.552835
C105	C	0.620863	-0.430367	0.979845
C106	C	0.620869	-0.430352	1.026763
C107	C	0.678284	-0.329474	1.026702
C108	C	0.678280	-0.329494	0.979784
C109	C	0.649566	-0.379937	0.956356
C110	C	0.678215	-0.329695	0.454309
C111	C	0.678210	-0.329722	0.407390
C112	C	0.620794	-0.430597	0.407455
C113	C	0.620801	-0.430573	0.454370
C114	C	0.649513	-0.380116	0.477796
O115	O	0.596421	-0.473419	0.528620
O116	O	0.702631	-0.286756	0.528542
C117	C	0.678245	-0.329573	0.740499
C118	C	0.649540	-0.379997	0.763986
C119	C	0.620830	-0.430441	0.740558
C120	C	0.649546	-0.379982	0.810904
C121	C	0.678255	-0.329538	0.834333
C122	C	0.706958	-0.279108	0.810843
C123	C	0.706954	-0.279128	0.763928
C124	C	0.592128	-0.480871	0.764047
C125	C	0.592134	-0.480847	0.810963
C126	C	0.620844	-0.430403	0.834391
C127	C	0.532686	-0.879799	0.216283
C128	C	0.482752	-0.879614	0.216095
C129	C	0.649835	-0.879720	0.099574
C130	C	0.650017	-0.879525	0.049640
C131	C	0.766585	-0.880554	0.217223
C132	C	0.816519	-0.880714	0.217424
C133	C	0.649014	-0.880588	0.333473
C134	C	0.648956	-0.880635	0.383407
C135	C	0.459235	-0.829147	0.244747
C136	C	0.412316	-0.828958	0.244571
C137	C	0.388916	-0.879241	0.215745
C138	C	0.412436	-0.929710	0.187089
C139	C	0.459354	-0.929894	0.187264
C140	C	0.678860	-0.829082	0.026337
C141	C	0.679040	-0.828899	-0.020582
C142	C	0.650374	-0.879157	-0.044196
C143	C	0.621529	-0.929606	-0.020889
C144	C	0.621352	-0.929792	0.026028
C145	C	0.839843	-0.931353	0.246216
C146	C	0.886761	-0.931519	0.246405
C147	C	0.910355	-0.881043	0.217804
C148	C	0.887029	-0.830403	0.189009
C149	C	0.840111	-0.830241	0.188818
C150	C	0.677429	-0.931558	0.406919
C151	C	0.677384	-0.931602	0.453838
C152	C	0.648863	-0.880726	0.477244
C153	C	0.620388	-0.829797	0.453729
C154	C	0.620436	-0.829749	0.406811
H155	H	0.478547	-0.471818	0.268916
H156	H	0.700572	-0.973078	0.472977
H157	H	0.598191	-0.970525	-0.040123
H158	H	-0.179123	-0.288567	0.164788
H159	H	0.478389	-0.288492	0.164712
C160	C	0.814460	-0.774521	0.157149
N161	N	0.795143	-0.732549	0.133294
C162	C	0.386453	-0.773443	0.276100
N163	N	0.366974	-0.731630	0.299848
H164	H	0.700660	-0.972983	0.387868
C165	C	0.589224	-0.486050	0.480207
N166	N	0.565436	-0.527831	0.499663
C167	C	0.738536	-0.223615	0.836624
N168	N	0.762317	-0.181816	0.856044
H169	H	0.597167	-0.788375	0.472793
H170	H	0.350713	-0.879079	0.215606
H171	H	0.568758	-0.521918	0.830082
H172	H	0.597862	-0.970868	0.044998
C173	C	0.650571	-0.878937	-0.095807
N174	N	0.650720	-0.878765	-0.134680
C175	C	-0.185662	-0.486318	0.277208
N176	N	-0.205069	-0.528168	0.301007
H177	H	0.648828	-0.880772	0.515448
C178	C	0.813898	-0.986889	0.277679
N179	N	0.794360	-1.028725	0.301377
C180	C	0.589107	-0.773734	0.380953
N181	N	0.565507	-0.731540	0.361480
H182	H	0.393438	-0.471820	0.268937
H183	H	0.478281	-0.788199	0.268222
H184	H	0.905747	-0.972756	0.269855
H185	H	0.906246	-0.789307	0.165723
H186	H	0.948559	-0.881183	0.217964
H187	H	0.177664	-0.522363	0.297681
C188	C	0.269484	-0.536795	0.305876
N189	N	0.288949	-0.578658	0.329673
H190	H	-0.093848	-0.471884	0.268990
H191	H	-0.094015	-0.288545	0.164783
H192	H	0.597481	-0.471449	0.960775
H193	H	0.393376	-0.970647	0.163619
H194	H	0.177417	-0.237978	0.136041
C195	C	0.485217	-0.985422	0.155746
N196	N	0.504696	-1.027249	0.132005
H197	H	0.702202	-0.788151	0.045557
H198	H	0.262526	-0.237961	0.136039
C199	C	0.128737	-0.536806	0.305896
N200	N	0.148202	-0.578670	0.329693
C201	C	0.030212	-0.536804	0.305906
N202	N	0.010805	-0.578657	0.329702
C203	C	0.386548	-0.274058	0.156514
N204	N	0.367079	-0.232194	0.132722
C205	C	0.029946	-0.223563	0.127855
N206	N	0.010480	-0.181689	0.104066
H207	H	0.121767	-0.237999	0.136049
C208	C	0.709790	-0.274242	0.381557
N209	N	0.733574	-0.232453	0.362101
C210	C	0.710768	-0.773391	-0.046210
N211	N	0.734665	-0.731580	-0.065512
H212	H	0.730318	-0.238125	0.604063
C213	C	0.709803	-0.274194	0.480071
N214	N	0.733597	-0.232395	0.499475
H215	H	0.730324	-0.238087	0.689167
H216	H	0.701655	-0.288430	0.960664
H217	H	0.701661	-0.288401	1.045786
H218	H	0.597498	-0.471424	1.045882
H219	H	0.568732	-0.521970	0.689327
H220	H	0.597421	-0.471670	0.388371
C221	C	0.738531	-0.223647	0.738098
N222	N	0.762316	-0.181853	0.718647
C223	C	0.560543	-0.536366	0.738282
N224	N	0.536753	-0.578171	0.718878
C225	C	0.560517	-0.536412	0.597523
N226	N	0.536727	-0.578213	0.578116
