data_functionalizedCrystal
_audit_creation_method	'MofGen! by Chris Wilmer'
_symmetry_space_group_name_H-M	'P1'
_symmetry_Int_Tables_number	1
_symmetry_cell_setting	triclinic
loop_
_symmetry_equiv_pos_as_xyz
  x,y,z
_cell_length_a	18.101398
_cell_length_b	18.050589
_cell_length_c	18.101390
_cell_angle_alpha	89.971488
_cell_angle_beta	89.975319
_cell_angle_gamma	90.023488
loop_
_atom_site_label
_atom_site_type_symbol
_atom_site_fract_x
_atom_site_fract_y
_atom_site_fract_z
Zn1	Zn	1.132138	-0.295725	-0.418861
Zn2	Zn	1.632138	0.204275	0.081139
Zn3	Zn	1.132040	-0.419930	-0.295029
Zn4	Zn	1.632040	0.080070	0.204971
Zn5	Zn	1.008297	-0.295749	-0.295023
Zn6	Zn	1.508297	0.204251	0.204977
Zn7	Zn	1.008254	-0.419867	-0.418818
Zn8	Zn	1.508254	0.080133	0.081182
O9	O	1.070182	-0.357818	-0.356933
O10	O	1.570182	0.142182	0.143067
O11	O	1.235758	-0.312217	-0.402456
O12	O	1.735758	0.187783	0.097544
O13	O	1.115601	-0.403494	-0.191396
O14	O	1.615601	0.096506	0.308604
O15	O	1.024783	-0.191821	-0.311465
O16	O	1.524783	0.308179	0.188535
O17	O	1.235686	-0.403471	-0.311477
O18	O	1.735686	0.096529	0.188523
O19	O	1.115770	-0.191803	-0.402449
O20	O	1.615770	0.308197	0.097551
O21	O	1.024688	-0.312258	-0.191391
O22	O	1.524688	0.187742	0.308609
O23	O	0.904658	-0.312197	-0.311423
O24	O	1.404658	0.187803	0.188577
O25	O	1.024711	-0.403363	-0.522457
O26	O	1.524711	0.096637	-0.022457
O27	O	0.904627	-0.403386	-0.402375
O28	O	1.404627	0.096614	0.097625
O29	O	1.115729	-0.312156	-0.522489
O30	O	1.615729	0.187844	-0.022489
O31	O	1.115560	-0.523847	-0.311435
O32	O	1.615560	-0.023847	0.188565
O33	O	1.024616	-0.523800	-0.402382
O34	O	1.524616	-0.023800	0.097618
C35	C	0.877772	-0.357788	-0.356894
C36	C	1.377772	0.142212	0.143106
C37	C	0.795458	-0.357793	-0.356895
C38	C	1.295458	0.142207	0.143105
C39	C	0.496367	-0.357839	-0.356957
C40	C	0.996367	0.142161	0.143043
C41	C	0.527687	-0.300178	-0.300012
C42	C	1.027687	0.199822	0.199988
C43	C	0.613305	-0.300333	-0.299769
C44	C	1.113305	0.199667	0.200231
C45	C	0.644749	-0.357815	-0.356927
C46	C	1.144749	0.142185	0.143073
C47	C	0.613635	-0.436048	-0.335608
C48	C	1.113635	0.063952	0.164392
C49	C	0.527990	-0.435728	-0.335212
C50	C	1.027990	0.064272	0.164788
C51	C	0.527981	-0.337947	-0.435355
C52	C	1.027981	0.162053	0.064645
C53	C	0.613632	-0.336205	-0.434927
C54	C	1.113632	0.163795	0.065073
C55	C	0.728609	-0.357807	-0.356910
C56	C	1.228609	0.142193	0.143090
C57	C	0.412507	-0.357853	-0.356972
C58	C	0.912507	0.142147	0.143028
C59	C	1.070093	-0.550770	-0.356921
C60	C	1.570093	-0.050770	0.143079
C61	C	1.070122	-0.633316	-0.356940
C62	C	1.570122	-0.133316	0.143060
C63	C	1.020715	-0.832768	-0.406380
C64	C	1.520715	-0.332768	0.093620
C65	C	1.002663	-0.882213	-0.338801
C66	C	1.502663	-0.382213	0.161199
C67	C	1.070195	-0.784446	-0.356950
C68	C	1.570195	-0.284446	0.143050
C69	C	1.088284	-0.882083	-0.424536
C70	C	1.588284	-0.382083	0.075464
C71	C	1.070264	-0.930431	-0.356965
C72	C	1.570264	-0.430431	0.143035
C73	C	1.052107	-0.832803	-0.289335
C74	C	1.552107	-0.332803	0.210665
C75	C	1.137760	-0.832669	-0.375116
C76	C	1.637760	-0.332669	0.124884
C77	C	1.119733	-0.882092	-0.307491
C78	C	1.619733	-0.382092	0.192509
C79	C	1.070154	-0.700348	-0.356942
C80	C	1.570154	-0.200348	0.143058
C81	C	1.070306	-1.014528	-0.356965
C82	C	1.570306	-0.514528	0.143035
C83	C	1.263344	-0.357849	-0.356972
C84	C	1.763344	0.142151	0.143028
C85	C	1.345658	-0.357862	-0.356989
C86	C	1.845658	0.142138	0.143011
C87	C	1.070226	-0.357750	-0.550095
C88	C	1.570226	0.142250	-0.050095
C89	C	1.070245	-0.357721	-0.632409
C90	C	1.570245	0.142279	-0.132409
C91	C	1.070292	-0.164112	-0.356961
C92	C	1.570292	0.335888	0.143039
C93	C	1.070339	-0.081566	-0.356974
C94	C	1.570339	0.418434	0.143026
C95	C	1.070285	-0.357675	-0.931500
C96	C	1.570285	0.142325	-0.431500
C97	C	1.127739	-0.300492	-0.900195
C98	C	1.627739	0.199508	-0.400195
C99	C	1.127560	-0.300280	-0.814577
C100	C	1.627560	0.199720	-0.314577
C101	C	1.070266	-0.357698	-0.783117
C102	C	1.570266	0.142302	-0.283117
C103	C	0.992248	-0.336428	-0.814182
C104	C	1.492248	0.163572	-0.314182
C105	C	0.992592	-0.336000	-0.899828
C106	C	1.492592	0.164000	-0.399828
C107	C	1.090162	-0.436274	-0.899920
C108	C	1.590162	0.063726	-0.399920
C109	C	1.091874	-0.435873	-0.814270
C110	C	1.591874	0.064127	-0.314270
C111	C	1.070250	-0.357712	-0.699258
C112	C	1.570250	0.142288	-0.199258
C113	C	1.070296	-0.357659	-1.015360
C114	C	1.570296	0.142341	-0.515360
C115	C	1.070181	-0.357832	-0.164522
C116	C	1.570181	0.142168	0.335478
C117	C	1.070306	-0.357651	-0.082209
C118	C	1.570306	0.142349	0.417791
H119	H	0.507727	-0.379945	-0.477785
H120	H	1.007727	0.120055	0.022215
C121	C	0.641159	-0.495647	-0.389879
C122	C	1.141159	0.004353	0.110121
N123	N	0.661895	-0.540537	-0.430754
N124	N	1.161895	-0.040537	0.069246
H125	H	0.978810	-0.811110	-0.448122
H126	H	1.478810	-0.311110	0.051878
C127	C	0.640940	-0.318103	-0.221289
C128	C	1.140940	0.181897	0.278711
N129	N	0.661755	-0.331491	-0.162176
N130	N	1.161755	0.168509	0.337824
C131	C	1.214882	-0.803235	-0.395906
C132	C	1.714882	-0.303235	0.104094
N133	N	1.272969	-0.781060	-0.411574
N134	N	1.772969	-0.281060	0.088426
C135	C	0.642558	-0.459231	-0.259014
C136	C	1.142558	0.040769	0.240986
N137	N	0.664341	-0.476687	-0.201320
N138	N	1.164341	0.023313	0.298680
C139	C	1.031382	-0.803683	-0.212106
C140	C	1.531382	-0.303683	0.287894
N141	N	1.015769	-0.781748	-0.153938
N142	N	1.515769	-0.281748	0.346062
H143	H	0.975742	-0.278544	-0.919813
H144	H	1.475742	0.221456	-0.419813
H145	H	0.507270	-0.480145	-0.374880
H146	H	1.007270	0.019855	0.125120
C147	C	0.932791	-0.389813	-0.927804
C148	C	1.432791	0.110187	-0.427804
N149	N	0.887745	-0.430340	-0.948872
N150	N	1.387745	0.069660	-0.448872
C151	C	0.925513	-0.911612	-0.318046
C152	C	1.425513	-0.411612	0.181954
N153	N	0.867402	-0.933754	-0.302418
N154	N	1.367402	-0.433754	0.197582
H155	H	0.506406	-0.281892	-0.454739
H156	H	1.006406	0.218108	0.045261
C157	C	1.108917	-0.911327	-0.501744
C158	C	1.608917	-0.411327	-0.001744
N159	N	1.124452	-0.933350	-0.559899
N160	N	1.624452	-0.433350	-0.059899
H161	H	1.161606	-0.903613	-0.265648
H162	H	1.661606	-0.403613	0.234352
H163	H	0.948278	-0.376795	-0.793803
H164	H	1.448278	0.123205	-0.293803
H165	H	1.185412	-0.313600	-0.793575
H166	H	1.685412	0.186400	-0.293575
C167	C	1.206154	-0.318267	-0.928030
C168	C	1.706154	0.181733	-0.428030
N169	N	1.265218	-0.331660	-0.948996
N170	N	1.765218	0.168340	-0.448996
C171	C	1.033632	-0.493834	-0.927273
C172	C	1.533632	0.006166	-0.427273
N173	N	0.991052	-0.537183	-0.947880
N174	N	1.491052	-0.037183	-0.447880
C175	C	0.498564	-0.317732	-0.221990
C176	C	0.998564	0.182268	0.278010
N177	N	0.476626	-0.330956	-0.163225
N178	N	0.976626	0.169044	0.336775
C179	C	1.110189	-0.222265	-0.929279
C180	C	1.610189	0.277735	-0.429279
N181	N	1.096967	-0.163346	-0.951186
N182	N	1.596967	0.336654	-0.451186
H183	H	0.507978	-0.452597	-0.277900
H184	H	1.007978	0.047403	0.222100
H185	H	0.633973	-0.278634	-0.451002
H186	H	1.133973	0.221366	0.048998
H187	H	0.635039	-0.375141	-0.479629
H188	H	1.135039	0.124859	0.020371
H189	H	1.114403	-0.242052	-0.794098
H190	H	1.614403	0.257948	-0.294098
H191	H	0.975092	-0.279611	-0.792738
H192	H	1.475092	0.220389	-0.292738
H193	H	1.146055	-0.455640	-0.921571
H194	H	1.646055	0.044360	-0.421571
C195	C	1.039447	-0.496526	-0.785344
C196	C	1.539447	0.003474	-0.285344
N197	N	0.999951	-0.542208	-0.763559
N198	N	1.499951	-0.042208	-0.263559
C199	C	0.641728	-0.221957	-0.317810
C200	C	1.141728	0.278043	0.182190
N201	N	0.663132	-0.162920	-0.331395
N202	N	1.163132	0.337080	0.168605
C203	C	0.499890	-0.221564	-0.317861
C204	C	0.999890	0.278436	0.182139
N205	N	0.478948	-0.162350	-0.331305
N206	N	0.978948	0.337650	0.168695
C207	C	1.169436	-0.457545	-0.786837
C208	C	1.669436	0.042455	-0.286837
N209	N	1.227855	-0.473867	-0.766168
N210	N	1.727855	0.026133	-0.266168
