data_functionalizedCrystal
_audit_creation_method	'MofGen! by Chris Wilmer'
_symmetry_space_group_name_H-M	'P1'
_symmetry_Int_Tables_number	1
_symmetry_cell_setting	triclinic
loop_
_symmetry_equiv_pos_as_xyz
  x,y,z
_cell_length_a	23.532355
_cell_length_b	23.532357
_cell_length_c	22.610064
_cell_angle_alpha	89.998517
_cell_angle_beta	89.997644
_cell_angle_gamma	82.827896
loop_
_atom_site_label
_atom_site_type_symbol
_atom_site_fract_x
_atom_site_fract_y
_atom_site_fract_z
O1	O	0.755270	0.068988	-0.049111
O2	O	1.005270	0.318988	0.200889
O3	O	1.255270	0.568988	0.450889
O4	O	1.505270	0.818988	0.700889
O5	O	0.589401	0.079022	-0.049131
O6	O	0.839401	0.329022	0.200869
O7	O	1.089401	0.579022	0.450869
O8	O	1.339401	0.829022	0.700869
O9	O	0.677352	-0.008929	-0.049108
O10	O	0.927352	0.241071	0.200892
O11	O	1.177352	0.491071	0.450892
O12	O	1.427352	0.741071	0.700892
O13	O	0.667319	0.156940	-0.049134
O14	O	0.917319	0.406940	0.200866
O15	O	1.167319	0.656940	0.450866
O16	O	1.417319	0.906940	0.700866
O17	O	0.677337	-0.008917	0.049261
O18	O	0.927337	0.241083	0.299261
O19	O	1.177337	0.491083	0.549261
O20	O	1.427337	0.741083	0.799261
O21	O	0.589385	0.079035	0.049238
O22	O	0.839385	0.329035	0.299238
O23	O	1.089385	0.579035	0.549238
O24	O	1.339385	0.829035	0.799238
O25	O	0.755255	0.069001	0.049258
O26	O	1.005255	0.319001	0.299258
O27	O	1.255255	0.569001	0.549258
O28	O	1.505255	0.819001	0.799258
Zn29	Zn	0.672318	0.074020	0.064866
Zn30	Zn	0.922318	0.324020	0.314866
Zn31	Zn	1.172318	0.574020	0.564866
Zn32	Zn	1.422318	0.824020	0.814866
Zn33	Zn	0.672338	0.074003	-0.064739
Zn34	Zn	0.922338	0.324003	0.185261
Zn35	Zn	1.172338	0.574003	0.435261
Zn36	Zn	1.422338	0.824003	0.685261
O37	O	0.667303	0.156953	0.049235
O38	O	0.917303	0.406953	0.299235
O39	O	1.167303	0.656953	0.549235
O40	O	1.417303	0.906953	0.799235
C41	C	0.568177	0.078778	0.000051
C42	C	0.818177	0.328778	0.250051
C43	C	1.068177	0.578778	0.500051
C44	C	1.318177	0.828778	0.750051
C45	C	0.504958	0.078024	0.000044
C46	C	0.754958	0.328024	0.250044
C47	C	1.004958	0.578024	0.500044
C48	C	1.254958	0.828024	0.750044
C49	C	0.112937	0.073293	0.053691
C50	C	0.362937	0.323293	0.303691
C51	C	0.612937	0.573293	0.553691
C52	C	0.862937	0.823293	0.803691
C53	C	0.053537	0.072575	0.053693
C54	C	0.303537	0.322575	0.303693
C55	C	0.553537	0.572575	0.553693
C56	C	0.803537	0.822575	0.803693
O57	O	0.022812	0.072191	0.099295
O58	O	0.272812	0.322191	0.349295
O59	O	0.522812	0.572191	0.599295
O60	O	0.772812	0.822191	0.849295
N61	N	0.023837	0.072212	0.000072
N62	N	0.273837	0.322212	0.250072
N63	N	0.523837	0.572212	0.500072
N64	N	0.773837	0.822212	0.750072
C65	C	0.053541	0.072561	-0.053554
C66	C	0.303541	0.322561	0.196446
C67	C	0.553541	0.572561	0.446446
C68	C	0.803541	0.822561	0.696446
O69	O	0.022824	0.072186	-0.099163
O70	O	0.272824	0.322186	0.150837
O71	O	0.522824	0.572186	0.400837
O72	O	0.772824	0.822186	0.650837
C73	C	0.112939	0.073275	-0.053556
C74	C	0.362939	0.323275	0.196444
C75	C	0.612939	0.573275	0.446444
C76	C	0.862939	0.823275	0.696444
C77	C	0.142636	0.073643	0.000068
C78	C	0.392636	0.323643	0.250068
C79	C	0.642636	0.573643	0.500068
C80	C	0.892636	0.823643	0.750068
C81	C	0.142633	0.073661	0.107311
C82	C	0.392633	0.323661	0.357311
C83	C	0.642633	0.573661	0.607311
C84	C	0.892633	0.823661	0.857311
C85	C	0.202028	0.074379	0.107308
C86	C	0.452028	0.324379	0.357308
C87	C	0.702028	0.574379	0.607308
C88	C	0.952028	0.824379	0.857308
C89	C	0.231727	0.074730	0.053686
C90	C	0.481727	0.324730	0.303686
C91	C	0.731727	0.574730	0.553686
C92	C	0.981727	0.824730	0.803686
C93	C	0.202031	0.074362	0.000066
C94	C	0.452031	0.324362	0.250066
C95	C	0.702031	0.574362	0.500066
C96	C	0.952031	0.824362	0.750066
C97	C	0.142642	0.073620	-0.107182
C98	C	0.392642	0.323620	0.142818
C99	C	0.642642	0.573620	0.392818
C100	C	0.892642	0.823620	0.642818
C101	C	0.202045	0.074333	-0.107179
C102	C	0.452045	0.324333	0.142821
C103	C	0.702045	0.574333	0.392821
C104	C	0.952045	0.824333	0.642821
C105	C	0.231741	0.074701	-0.053555
C106	C	0.481741	0.324701	0.196445
C107	C	0.731741	0.574701	0.446445
C108	C	0.981741	0.824701	0.696445
C109	C	0.291124	0.075431	-0.053560
C110	C	0.541124	0.325431	0.196440
C111	C	0.791124	0.575431	0.446440
C112	C	1.041124	0.825431	0.696440
N113	N	0.320824	0.075794	0.000061
N114	N	0.570824	0.325794	0.250061
N115	N	0.820824	0.575794	0.500061
N116	N	1.070824	0.825794	0.750061
C117	C	0.291126	0.075443	0.053684
C118	C	0.541126	0.325443	0.303684
C119	C	0.791126	0.575443	0.553684
C120	C	1.041126	0.825443	0.803684
C121	C	-0.071201	0.071062	-0.053546
C122	C	0.178799	0.321062	0.196454
C123	C	0.428799	0.571062	0.446454
C124	C	0.678799	0.821062	0.696454
C125	C	-0.130599	0.070353	-0.053545
C126	C	0.119401	0.320353	0.196455
C127	C	0.369401	0.570353	0.446455
C128	C	0.619401	0.820353	0.696455
C129	C	-0.130598	0.070366	0.053702
C130	C	0.119402	0.320366	0.303702
C131	C	0.369402	0.570366	0.553702
C132	C	0.619402	0.820366	0.803702
C133	C	-0.071199	0.071079	0.053701
C134	C	0.178801	0.321079	0.303701
C135	C	0.428801	0.571079	0.553701
C136	C	0.678801	0.821079	0.803701
C137	C	-0.041501	0.071425	0.000074
C138	C	0.208499	0.321425	0.250074
C139	C	0.458499	0.571425	0.500074
C140	C	0.708499	0.821425	0.750074
C141	C	0.415859	0.076952	0.053674
C142	C	0.665859	0.326952	0.303674
C143	C	0.915859	0.576952	0.553674
C144	C	1.165859	0.826952	0.803674
C145	C	0.475259	0.077673	0.053667
C146	C	0.725259	0.327673	0.303667
C147	C	0.975259	0.577673	0.553667
C148	C	1.225259	0.827673	0.803667
C149	C	0.475254	0.077657	-0.053581
C150	C	0.725254	0.327657	0.196419
C151	C	0.975254	0.577657	0.446419
C152	C	1.225254	0.827657	0.696419
C153	C	0.415858	0.076940	-0.053574
C154	C	0.665858	0.326940	0.196426
C155	C	0.915858	0.576940	0.446426
C156	C	1.165858	0.826940	0.696426
C157	C	0.386163	0.076585	0.000059
C158	C	0.636163	0.326585	0.250059
C159	C	0.886163	0.576585	0.500059
C160	C	1.136163	0.826585	0.750059
O161	O	0.321888	0.075813	-0.099138
O162	O	0.571888	0.325813	0.150862
O163	O	0.821888	0.575813	0.400862
O164	O	1.071888	0.825813	0.650862
O165	O	0.321850	0.075811	0.099285
O166	O	0.571850	0.325811	0.349285
O167	O	0.821850	0.575811	0.599285
O168	O	1.071850	0.825811	0.849285
C169	C	0.677094	-0.030140	0.000078
C170	C	0.927094	0.219860	0.250078
C171	C	1.177094	0.469860	0.500078
C172	C	1.427094	0.719860	0.750078
C173	C	0.676339	-0.093358	0.000084
C174	C	0.926339	0.156642	0.250084
C175	C	1.176339	0.406642	0.500084
C176	C	1.426339	0.656642	0.750084
C177	C	0.671611	-0.485375	-0.053570
C178	C	0.921611	-0.235375	0.196430
C179	C	1.171611	0.014625	0.446430
C180	C	1.421611	0.264625	0.696430
C181	C	0.670893	-0.544775	-0.053573
C182	C	0.920893	-0.294775	0.196427
C183	C	1.170893	-0.044775	0.446427
C184	C	1.420893	0.205225	0.696427
O185	O	0.670510	-0.575497	-0.099176
O186	O	0.920510	-0.325497	0.150824
O187	O	1.170510	-0.075497	0.400824
O188	O	1.420510	0.174503	0.650824
N189	N	0.670529	-0.574479	0.000047
N190	N	0.920529	-0.324479	0.250047
N191	N	1.170529	-0.074479	0.500047
N192	N	1.420529	0.175521	0.750047
C193	C	0.670877	-0.544780	0.053674
C194	C	0.920877	-0.294780	0.303674
C195	C	1.170877	-0.044780	0.553674
C196	C	1.420877	0.205220	0.803674
O197	O	0.670500	-0.575500	0.099282
O198	O	0.920500	-0.325500	0.349282
O199	O	1.170500	-0.075500	0.599282
O200	O	1.420500	0.174500	0.849282
C201	C	0.671590	-0.485381	0.053677
C202	C	0.921590	-0.235381	0.303677
C203	C	1.171590	0.014619	0.553677
C204	C	1.421590	0.264619	0.803677
C205	C	0.671960	-0.455681	0.000053
C206	C	0.921960	-0.205681	0.250053
C207	C	1.171960	0.044319	0.500053
C208	C	1.421960	0.294319	0.750053
C209	C	0.671980	-0.455675	-0.107189
C210	C	0.921980	-0.205675	0.142811
C211	C	1.171980	0.044325	0.392811
C212	C	1.421980	0.294325	0.642811
C213	C	0.672698	-0.396280	-0.107186
C214	C	0.922698	-0.146280	0.142814
C215	C	1.172698	0.103720	0.392814
C216	C	1.422698	0.353720	0.642814
C217	C	0.673047	-0.366585	-0.053563
C218	C	0.923047	-0.116585	0.196437
C219	C	1.173047	0.133415	0.446437
C220	C	1.423047	0.383415	0.696437
C221	C	0.672678	-0.396286	0.000057
C222	C	0.922678	-0.146286	0.250057
C223	C	1.172678	0.103714	0.500057
C224	C	1.422678	0.353714	0.750057
C225	C	0.671933	-0.455682	0.107303
C226	C	0.921933	-0.205682	0.357303
C227	C	1.171933	0.044318	0.607303
C228	C	1.421933	0.294318	0.857303
C229	C	0.672646	-0.396280	0.107302
C230	C	0.922646	-0.146280	0.357302
C231	C	1.172646	0.103720	0.607302
C232	C	1.422646	0.353720	0.857302
C233	C	0.673016	-0.366579	0.053678
C234	C	0.923016	-0.116579	0.303678
C235	C	1.173016	0.133421	0.553678
C236	C	1.423016	0.383421	0.803678
C237	C	0.673745	-0.307196	0.053684
C238	C	0.923745	-0.057196	0.303684
C239	C	1.173745	0.192804	0.553684
C240	C	1.423745	0.442804	0.803684
N241	N	0.674109	-0.277492	0.000063
N242	N	0.924109	-0.027492	0.250063
N243	N	1.174109	0.222508	0.500063
N244	N	1.424109	0.472508	0.750063
C245	C	0.673760	-0.307186	-0.053560
C246	C	0.923760	-0.057186	0.196440
C247	C	1.173760	0.192814	0.446440
C248	C	1.423760	0.442814	0.696440
C249	C	0.669378	-0.669521	0.053664
C250	C	0.919378	-0.419521	0.303664
C251	C	1.169378	-0.169521	0.553664
C252	C	1.419378	0.080479	0.803664
C253	C	0.668669	-0.728919	0.053662
C254	C	0.918669	-0.478919	0.303662
C255	C	1.168669	-0.228919	0.553662
C256	C	1.418669	0.021081	0.803662
C257	C	0.668685	-0.728910	-0.053586
C258	C	0.918685	-0.478910	0.196414
C259	C	1.168685	-0.228910	0.446414
C260	C	1.418685	0.021090	0.696414
C261	C	0.669398	-0.669511	-0.053583
C262	C	0.919398	-0.419511	0.196417
C263	C	1.169398	-0.169511	0.446417
C264	C	1.419398	0.080489	0.696417
C265	C	0.669742	-0.639817	0.000044
C266	C	0.919742	-0.389817	0.250044
C267	C	1.169742	-0.139817	0.500044
C268	C	1.419742	0.110183	0.750044
C269	C	0.675269	-0.182453	-0.053548
C270	C	0.925269	0.067547	0.196452
C271	C	1.175269	0.317547	0.446452
C272	C	1.425269	0.567547	0.696452
C273	C	0.675990	-0.123053	-0.053540
C274	C	0.925990	0.126947	0.196460
C275	C	1.175990	0.376947	0.446460
C276	C	1.425990	0.626947	0.696460
C277	C	0.675971	-0.123067	0.053708
C278	C	0.925971	0.126933	0.303708
C279	C	1.175971	0.376933	0.553708
C280	C	1.425971	0.626933	0.803708
C281	C	0.675253	-0.182462	0.053700
C282	C	0.925253	0.067538	0.303700
C283	C	1.175253	0.317538	0.553700
C284	C	1.425253	0.567538	0.803700
C285	C	0.674901	-0.212153	0.000067
C286	C	0.924901	0.037847	0.250067
C287	C	1.174901	0.287847	0.500067
C288	C	1.424901	0.537847	0.750067
O289	O	0.674126	-0.276436	0.099263
O290	O	0.924126	-0.026436	0.349263
O291	O	1.174126	0.223564	0.599263
O292	O	1.424126	0.473564	0.849263
O293	O	0.674129	-0.276458	-0.099160
O294	O	0.924129	-0.026458	0.150840
O295	O	1.174129	0.223542	0.400840
O296	O	1.424129	0.473542	0.650840
C297	C	0.776479	0.069245	0.000074
C298	C	1.026479	0.319245	0.250074
C299	C	1.276479	0.569245	0.500074
C300	C	1.526479	0.819245	0.750074
C301	C	0.839698	0.069999	0.000078
C302	C	1.089698	0.319999	0.250078
C303	C	1.339698	0.569999	0.500078
C304	C	1.589698	0.819999	0.750078
C305	C	0.667562	0.178163	0.000048
C306	C	0.917562	0.428163	0.250048
C307	C	1.167562	0.678163	0.500048
C308	C	1.417562	0.928163	0.750048
C309	C	0.668317	0.241381	0.000038
C310	C	0.918317	0.491381	0.250038
C311	C	1.168317	0.741381	0.500038
C312	C	1.418317	0.991381	0.750038
N313	N	0.672308	0.074031	0.153319
N314	N	0.922308	0.324031	0.403319
N315	N	1.172308	0.574031	0.653319
N316	N	1.422308	0.824031	0.903319
N317	N	0.672352	0.073987	-0.153192
N318	N	0.922352	0.323987	0.096808
N319	N	1.172352	0.573987	0.346808
N320	N	1.422352	0.823987	0.596808
C321	C	0.711285	0.035064	0.561970
C322	C	0.961285	0.285064	0.811970
C323	C	1.211285	0.535064	1.061970
C324	C	1.461285	0.785064	1.311970
C325	C	0.711288	0.035060	0.623890
C326	C	0.961288	0.285060	0.873890
C327	C	1.211288	0.535060	1.123890
C328	C	1.461288	0.785060	1.373890
O329	O	0.744403	0.001937	0.655917
O330	O	0.994403	0.251937	0.905917
O331	O	1.244403	0.501937	1.155917
O332	O	1.494403	0.751937	1.405917
N333	N	0.672338	0.073991	0.654856
N334	N	0.922338	0.323991	0.904856
N335	N	1.172338	0.573991	1.154856
N336	N	1.422338	0.823991	1.404856
C337	C	0.633378	0.112926	0.623899
C338	C	0.883378	0.362926	0.873899
C339	C	1.133378	0.612926	1.123899
C340	C	1.383378	0.862926	1.373899
O341	O	0.600249	0.146039	0.655923
O342	O	0.850249	0.396039	0.905923
O343	O	1.100249	0.646039	1.155923
O344	O	1.350249	0.896039	1.405923
C345	C	0.633373	0.112927	0.561980
C346	C	0.883373	0.362927	0.811980
C347	C	1.133373	0.612927	1.061980
C348	C	1.383373	0.862927	1.311980
C349	C	0.672330	0.073996	0.531017
C350	C	0.922330	0.323996	0.781017
C351	C	1.172330	0.573996	1.031017
C352	C	1.422330	0.823996	1.281017
C353	C	0.750237	-0.003863	0.531008
C354	C	1.000237	0.246137	0.781008
C355	C	1.250237	0.496137	1.031008
C356	C	1.500237	0.746137	1.281008
C357	C	0.750235	-0.003858	0.469092
C358	C	1.000235	0.246142	0.719092
C359	C	1.250235	0.496142	0.969092
C360	C	1.500235	0.746142	1.219092
C361	C	0.711280	0.035074	0.438139
C362	C	0.961280	0.285074	0.688139
C363	C	1.211280	0.535074	0.938139
C364	C	1.461280	0.785074	1.188139
C365	C	0.672327	0.074001	0.469102
C366	C	0.922327	0.324001	0.719102
C367	C	1.172327	0.574001	0.969102
C368	C	1.422327	0.824001	1.219102
C369	C	0.594412	0.151858	0.531024
C370	C	0.844412	0.401858	0.781024
C371	C	1.094412	0.651858	1.031024
C372	C	1.344412	0.901858	1.281024
C373	C	0.594410	0.151855	0.469101
C374	C	0.844410	0.401855	0.719101
C375	C	1.094410	0.651855	0.969101
C376	C	1.344410	0.901855	1.219101
C377	C	0.633366	0.112925	0.438138
C378	C	0.883366	0.362925	0.688138
C379	C	1.133366	0.612925	0.938138
C380	C	1.383366	0.862925	1.188138
C381	C	0.633370	0.112939	0.376233
C382	C	0.883370	0.362939	0.626233
C383	C	1.133370	0.612939	0.876233
C384	C	1.383370	0.862939	1.126233
N385	N	0.672320	0.074007	0.345267
N386	N	0.922320	0.324007	0.595267
N387	N	1.172320	0.574007	0.845267
N388	N	1.422320	0.824007	1.095267
C389	C	0.711275	0.035075	0.376220
C390	C	0.961275	0.285075	0.626220
C391	C	1.211275	0.535075	0.876220
C392	C	1.461275	0.785075	1.126220
C393	C	0.633392	0.112920	0.753932
C394	C	0.883392	0.362920	1.003932
C395	C	1.133392	0.612920	1.253932
C396	C	1.383392	0.862920	1.503932
C397	C	0.633399	0.112922	0.815850
C398	C	0.883399	0.362922	1.065850
C399	C	1.133399	0.612922	1.315850
C400	C	1.383399	0.862922	1.565850
C401	C	0.711308	0.035056	0.815837
C402	C	0.961308	0.285056	1.065837
C403	C	1.211308	0.535056	1.315837
C404	C	1.461308	0.785056	1.565837
C405	C	0.711302	0.035057	0.753918
C406	C	0.961302	0.285057	1.003918
C407	C	1.211302	0.535057	1.253918
C408	C	1.461302	0.785057	1.503918
C409	C	0.672342	0.073989	0.722966
C410	C	0.922342	0.323989	0.972966
C411	C	1.172342	0.573989	1.222966
C412	C	1.422342	0.823989	1.472966
C413	C	0.711267	0.035089	0.246193
C414	C	0.961267	0.285089	0.496193
C415	C	1.211267	0.535089	0.746193
C416	C	1.461267	0.785089	0.996193
C417	C	0.711263	0.035099	0.184272
C418	C	0.961263	0.285099	0.434272
C419	C	1.211263	0.535099	0.684272
C420	C	1.461263	0.785099	0.934272
C421	C	0.633353	0.112963	0.184290
C422	C	0.883353	0.362963	0.434290
C423	C	1.133353	0.612963	0.684290
C424	C	1.383353	0.862963	0.934290
C425	C	0.633359	0.112955	0.246206
C426	C	0.883359	0.362955	0.496206
C427	C	1.133359	0.612955	0.746206
C428	C	1.383359	0.862955	0.996206
C429	C	0.672318	0.074013	0.277156
C430	C	0.922318	0.324013	0.527156
C431	C	1.172318	0.574013	0.777156
C432	C	1.422318	0.824013	1.027156
O433	O	0.600270	0.146043	0.344166
O434	O	0.850270	0.396043	0.594166
O435	O	1.100270	0.646043	0.844166
O436	O	1.350270	0.896043	1.094166
O437	O	0.744394	0.001962	0.344188
O438	O	0.994394	0.251962	0.594188
O439	O	1.244394	0.501962	0.844188
O440	O	1.494394	0.751962	1.094188
H441	H	-0.154774	0.070062	-0.097212
H442	H	0.095226	0.320062	0.152788
H443	H	0.345226	0.570062	0.402788
H444	H	0.595226	0.820062	0.652788
F445	F	0.752732	-0.006358	0.279123
F446	F	1.002732	0.243642	0.529123
F447	F	1.252732	0.493642	0.779123
F448	F	1.502732	0.743642	1.029123
H449	H	0.781955	-0.035560	0.443886
H450	H	1.031955	0.214440	0.693886
H451	H	1.281955	0.464440	0.943886
H452	H	1.531955	0.714440	1.193886
F453	F	0.668309	-0.760523	-0.110657
F454	F	0.918309	-0.510523	0.139343
F455	F	1.168309	-0.260523	0.389343
F456	F	1.418309	-0.010523	0.639343
F457	F	0.673088	-0.364678	-0.164260
F458	F	0.923088	-0.114678	0.085740
F459	F	1.173088	0.135322	0.335740
F460	F	1.423088	0.385322	0.585740
H461	H	0.743026	0.003354	0.841050
H462	H	0.993026	0.253354	1.091050
H463	H	1.243026	0.503354	1.341050
H464	H	1.493026	0.753354	1.591050
F465	F	0.591902	0.154396	0.279157
F466	F	0.841902	0.404396	0.529157
F467	F	1.091902	0.654396	0.779157
F468	F	1.341902	0.904396	1.029157
F469	F	0.233626	0.074768	0.164383
F470	F	0.483626	0.324768	0.414383
F471	F	0.733626	0.574768	0.664383
F472	F	0.983626	0.824768	0.914383
H473	H	0.601637	0.144663	0.159078
H474	H	0.851637	0.394663	0.409078
H475	H	1.101637	0.644663	0.659078
H476	H	1.351637	0.894663	0.909078
F477	F	0.384264	0.076574	0.110756
F478	F	0.634264	0.326574	0.360756
F479	F	0.884264	0.576574	0.610756
F480	F	1.134264	0.826574	0.860756
H481	H	0.118459	0.073374	0.150979
H482	H	0.368459	0.323374	0.400979
H483	H	0.618459	0.573374	0.650979
H484	H	0.868459	0.823374	0.900979
H485	H	0.118474	0.073319	-0.150849
H486	H	0.368474	0.323319	0.099151
H487	H	0.618474	0.573319	0.349151
H488	H	0.868474	0.823319	0.599151
H489	H	0.671633	-0.479854	0.150970
H490	H	0.921633	-0.229854	0.400970
H491	H	1.171633	0.020146	0.650970
H492	H	1.421633	0.270146	0.900970
F493	F	-0.162216	0.069991	0.110773
F494	F	0.087784	0.319991	0.360773
F495	F	0.337784	0.569991	0.610773
F496	F	0.587784	0.819991	0.860773
F497	F	0.506860	0.078067	0.110744
F498	F	0.756860	0.328067	0.360744
F499	F	1.006860	0.578067	0.610744
F500	F	1.256860	0.828067	0.860744
H501	H	0.743024	0.003356	0.728712
H502	H	0.993024	0.253356	0.978712
H503	H	1.243024	0.503356	1.228712
H504	H	1.493024	0.753356	1.478712
H505	H	0.601683	0.144629	0.841055
H506	H	0.851683	0.394629	1.091055
H507	H	1.101683	0.644629	1.341055
H508	H	1.351683	0.894629	1.591055
H509	H	0.674958	-0.206646	0.097365
H510	H	0.924958	0.043354	0.347365
H511	H	1.174958	0.293354	0.597365
H512	H	1.424958	0.543354	0.847365
F513	F	0.506872	0.078029	-0.110647
F514	F	0.756872	0.328029	0.139353
F515	F	1.006872	0.578029	0.389353
F516	F	1.256872	0.828029	0.639353
F517	F	0.674894	-0.214044	-0.110630
F518	F	0.924894	0.035956	0.139370
F519	F	1.174894	0.285956	0.389370
F520	F	1.424894	0.535956	0.639370
H521	H	-0.047025	0.071380	0.097366
H522	H	0.202975	0.321380	0.347366
H523	H	0.452975	0.571380	0.597366
H524	H	0.702975	0.821380	0.847366
F525	F	0.752728	-0.006336	0.151322
F526	F	1.002728	0.243664	0.401322
F527	F	1.252728	0.493664	0.651322
F528	F	1.502728	0.743664	0.901322
H529	H	0.226222	0.074614	-0.150849
H530	H	0.476222	0.324614	0.099151
H531	H	0.726222	0.574614	0.349151
H532	H	0.976222	0.824614	0.599151
F533	F	0.671608	-0.487269	-0.164268
F534	F	0.921608	-0.237269	0.085732
F535	F	1.171608	0.012731	0.335732
F536	F	1.421608	0.262731	0.585732
H537	H	0.669698	-0.645333	-0.097248
H538	H	0.919698	-0.395333	0.152752
H539	H	1.169698	-0.145333	0.402752
H540	H	1.419698	0.104667	0.652752
F541	F	0.791701	-0.045305	0.563942
F542	F	1.041701	0.204695	0.813942
F543	F	1.291701	0.454695	1.063942
F544	F	1.541701	0.704695	1.313942
H545	H	0.672917	-0.372104	0.150972
H546	H	0.922917	-0.122104	0.400972
H547	H	1.172917	0.127896	0.650972
H548	H	1.422917	0.377896	0.900972
F549	F	0.676385	-0.091447	-0.110616
F550	F	0.926385	0.158553	0.139384
F551	F	1.176385	0.408553	0.389384
F552	F	1.426385	0.658553	0.639384
H553	H	0.676258	-0.098879	0.097366
H554	H	0.926258	0.151121	0.347366
H555	H	1.176258	0.401121	0.597366
H556	H	1.426258	0.651121	0.847366
F557	F	0.591925	0.154363	0.720996
F558	F	0.841925	0.404363	0.970996
F559	F	1.091925	0.654363	1.220996
F560	F	1.341925	0.904363	1.470996
F561	F	0.552949	0.193292	0.563965
F562	F	0.802949	0.443292	0.813965
F563	F	1.052949	0.693292	1.063965
F564	F	1.302949	0.943292	1.313965
F565	F	-0.039599	0.071436	-0.110627
F566	F	0.210401	0.321436	0.139373
F567	F	0.460401	0.571436	0.389373
F568	F	0.710401	0.821436	0.639373
H569	H	0.668376	-0.753097	0.097328
H570	H	0.918376	-0.503097	0.347328
H571	H	1.168376	-0.253097	0.597328
H572	H	1.418376	-0.003097	0.847328
F573	F	0.552940	0.193292	0.436164
F574	F	0.802940	0.443292	0.686164
F575	F	1.052940	0.693292	0.936164
F576	F	1.302940	0.943292	1.186164
H577	H	0.391677	0.076649	-0.097239
H578	H	0.641677	0.326649	0.152761
H579	H	0.891677	0.576649	0.402761
H580	H	1.141677	0.826649	0.652761
H581	H	0.669660	-0.645348	0.097336
H582	H	0.919660	-0.395348	0.347336
H583	H	1.169660	-0.145348	0.597336
H584	H	1.419660	0.104652	0.847336
