data_functionalizedCrystal
_audit_creation_method	'MofGen! by Chris Wilmer'
_symmetry_space_group_name_H-M	'P1'
_symmetry_Int_Tables_number	1
_symmetry_cell_setting	triclinic
loop_
_symmetry_equiv_pos_as_xyz
  x,y,z
_cell_length_a	16.109295
_cell_length_b	14.586319
_cell_length_c	16.109304
_cell_angle_alpha	90.000981
_cell_angle_beta	96.539088
_cell_angle_gamma	89.999424
loop_
_atom_site_label
_atom_site_type_symbol
_atom_site_fract_x
_atom_site_fract_y
_atom_site_fract_z
O1	O	-1.103135	0.076172	0.106844
O2	O	-0.603135	0.576172	0.606844
O3	O	-0.861072	0.076187	0.120148
O4	O	-0.361072	0.576187	0.620148
O5	O	-0.988752	0.076180	-0.007535
O6	O	-0.488752	0.576180	0.492465
O7	O	-0.975455	0.076179	0.234527
O8	O	-0.475455	0.576179	0.734527
O9	O	-0.988743	-0.076301	-0.007537
O10	O	-0.488743	0.423699	0.492463
O11	O	-0.861063	-0.076294	0.120146
O12	O	-0.361063	0.423706	0.620146
O13	O	-1.103126	-0.076309	0.106842
O14	O	-0.603126	0.423691	0.606842
Cu15	Cu	-0.982094	-0.090224	0.113494
Cu16	Cu	-0.482094	0.409776	0.613494
Cu17	Cu	-0.982104	0.090102	0.113496
Cu18	Cu	-0.482104	0.590102	0.613496
O19	O	-0.975446	-0.076301	0.234525
O20	O	-0.475446	0.423699	0.734525
C21	C	-0.830093	-0.000051	0.119609
C22	C	-0.330093	0.499949	0.619609
C23	C	-0.737797	-0.000046	0.117996
C24	C	-0.237797	0.499954	0.617996
C25	C	-0.515525	-0.000055	0.190008
C26	C	-0.015525	0.499945	0.690008
C27	C	-0.428804	-0.000061	0.188485
C28	C	0.071196	0.499939	0.688485
C29	C	-0.448677	-0.000057	0.036996
C30	C	0.051323	0.499943	0.536996
C31	C	-0.535396	-0.000058	0.038520
C32	C	-0.035396	0.499942	0.538520
C33	C	-0.568818	-0.000053	0.115028
C34	C	-0.068818	0.499947	0.615028
C35	C	-0.395378	-0.000057	0.111982
C36	C	0.104622	0.499943	0.611982
C37	C	-0.301352	-0.000063	0.110331
C38	C	0.198648	0.499937	0.610331
C39	C	-0.662850	-0.000048	0.116679
C40	C	-0.162850	0.499952	0.616679
N41	N	-0.982093	-0.217056	0.113492
N42	N	-0.482093	0.282944	0.613492
C43	C	-1.038648	-0.452065	0.056973
C44	C	-0.538648	0.047935	0.556973
C45	C	-1.038650	-0.548047	0.056971
C46	C	-0.538650	-0.048047	0.556971
C47	C	-0.925551	-0.548050	0.170013
C48	C	-0.425551	-0.048050	0.670013
C49	C	-0.925545	-0.452070	0.170011
C50	C	-0.425545	0.047930	0.670011
C51	C	-0.982098	-0.404080	0.113491
C52	C	-0.482098	0.095920	0.613491
C53	C	-0.982106	-0.596041	0.113492
C54	C	-0.482106	-0.096041	0.613492
C55	C	-0.982109	-0.700108	0.113490
C56	C	-0.482109	-0.200108	0.613490
C57	C	-0.982095	-0.300007	0.113492
C58	C	-0.482095	0.199993	0.613492
C59	C	-0.134105	-0.000067	0.107386
C60	C	0.365895	0.499933	0.607386
C61	C	-0.226398	-0.000064	0.109014
C62	C	0.273602	0.499936	0.609014
C63	C	-0.988209	-0.000059	-0.038511
C64	C	-0.488209	0.499941	0.461489
C65	C	-0.986592	-0.000052	-0.130806
C66	C	-0.486592	0.499948	0.369194
N67	N	-0.982112	0.216934	0.113491
N68	N	-0.482112	0.716934	0.613491
C69	C	-0.982864	0.083062	-0.343142
C70	C	-0.482864	0.583062	0.156858
C71	C	-0.981338	0.083061	-0.429862
C72	C	-0.481338	0.583061	0.070138
C73	C	-0.981332	-0.083182	-0.429862
C74	C	-0.481332	0.416818	0.070138
C75	C	-0.982852	-0.083180	-0.343142
C76	C	-0.482852	0.416820	0.156858
C77	C	-0.983622	-0.000056	-0.299785
C78	C	-0.483622	0.499944	0.200215
C79	C	-0.980576	-0.000058	-0.473225
C80	C	-0.480576	0.499942	0.026775
C81	C	-0.978921	-0.000060	-0.567251
C82	C	-0.478921	0.499940	-0.067251
C83	C	-0.985275	-0.000054	-0.205753
C84	C	-0.485275	0.499946	0.294247
C85	C	-0.975990	-0.000061	0.265501
C86	C	-0.475990	0.499939	0.765501
C87	C	-0.977606	-0.000061	0.357796
C88	C	-0.477606	0.499939	0.857796
H89	H	-0.385417	-0.000065	0.249542
H90	H	0.114583	0.499935	0.749542
H91	H	-1.084696	-0.412994	0.010950
H92	H	-0.584696	0.087006	0.510950
H93	H	-0.983488	0.150747	-0.307843
H94	H	-0.483488	0.650747	0.192157
H95	H	-1.084697	-0.587113	0.010947
H96	H	-0.584697	-0.087113	0.510947
O97	O	-0.870704	-0.594811	0.224887
O98	O	-0.370704	-0.094811	0.724887
C99	C	-0.882821	-0.689815	0.212760
C100	C	-0.382821	-0.189815	0.712760
H101	H	-0.948927	-0.702919	0.181702
H102	H	-0.448927	-0.202919	0.681702
H103	H	-0.873559	-0.726288	0.275722
H104	H	-0.373559	-0.226288	0.775722
H105	H	-0.835777	-0.717061	0.171050
H106	H	-0.335777	-0.217061	0.671050
H107	H	-0.879492	-0.412998	0.216035
H108	H	-0.379492	0.087002	0.716035
H109	H	-0.980718	0.150744	-0.465160
H110	H	-0.480718	0.650744	0.034840
O111	O	-0.587136	0.000109	-0.034343
O112	O	-0.087136	0.500109	0.465657
C113	C	-0.571981	0.079070	-0.080802
C114	C	-0.071981	0.579070	0.419198
H115	H	-0.542328	0.134267	-0.036902
H116	H	-0.042328	0.634267	0.463098
H117	H	-0.633520	0.105577	-0.114153
H118	H	-0.133520	0.605577	0.385847
H119	H	-0.527842	0.061219	-0.128917
H120	H	-0.027842	0.561219	0.371083
H121	H	-0.980707	-0.150859	-0.465173
H122	H	-0.480707	0.349141	0.034827
O123	O	-0.983623	-0.164008	-0.301153
O124	O	-0.483623	0.335992	0.198847
C125	C	-0.982603	-0.237376	-0.358012
C126	C	-0.482603	0.262624	0.141988
H127	H	-1.007829	-0.213016	-0.423280
H128	H	-0.507829	0.286984	0.076720
H129	H	-1.023378	-0.295510	-0.338241
H130	H	-0.523378	0.204490	0.161759
H131	H	-0.915780	-0.262930	-0.358493
H132	H	-0.415780	0.237070	0.141507
H133	H	-0.421455	-0.000067	-0.025294
H134	H	0.078545	0.499933	0.474706
H135	H	-0.542734	-0.000058	0.252305
H136	H	-0.042734	0.499942	0.752305
