data_functionalizedCrystal
_audit_creation_method	'MofGen! by Chris Wilmer'
_symmetry_space_group_name_H-M	'P1'
_symmetry_Int_Tables_number	1
_symmetry_cell_setting	triclinic
loop_
_symmetry_equiv_pos_as_xyz
  x,y,z
_cell_length_a	16.956995
_cell_length_b	15.944551
_cell_length_c	15.455313
_cell_angle_alpha	92.664316
_cell_angle_beta	87.515363
_cell_angle_gamma	79.776605
loop_
_atom_site_label
_atom_site_type_symbol
_atom_site_fract_x
_atom_site_fract_y
_atom_site_fract_z
O1	O	1.061537	0.030892	-0.072191
O2	O	0.829381	0.060381	-0.072180
O3	O	0.951798	-0.077078	-0.072178
O4	O	0.939119	0.168352	-0.072193
O5	O	0.944797	-0.069248	0.072084
O6	O	0.822380	0.068211	0.072082
O7	O	1.054536	0.038723	0.072071
Cu8	Cu	0.937819	0.054182	0.085249
Cu9	Cu	0.946098	0.044922	-0.085358
O10	O	0.932119	0.176182	0.072069
C11	C	0.796172	0.065806	-0.000048
C12	C	0.707652	0.070295	-0.000043
C13	C	0.208355	0.103873	-0.000078
C14	C	0.291530	0.099649	-0.000077
C15	C	0.342613	0.020359	-0.000065
C16	C	0.310519	-0.054712	-0.000064
C17	C	0.227345	-0.050487	-0.000071
C18	C	0.592384	-0.000552	-0.000049
C19	C	0.675562	-0.004770	-0.000039
C20	C	0.656568	0.149591	-0.000054
C21	C	0.573393	0.153809	-0.000056
C22	C	0.541306	0.078738	-0.000059
N23	N	0.427632	0.016040	-0.000062
N24	N	0.456290	0.083058	-0.000069
C25	C	0.947771	-0.104421	-0.000047
C26	C	0.946193	-0.197557	-0.000046
C27	C	0.866542	-0.406879	-0.000055
C28	C	0.900078	-0.466606	0.071073
C29	C	0.943339	-0.368085	-0.000053
C30	C	0.906998	-0.474311	-0.071158
C31	C	0.940576	-0.532806	-0.000063
C32	C	0.976893	-0.426582	0.071134
C33	C	0.983805	-0.434283	-0.071161
C34	C	1.017397	-0.493995	-0.000016
C35	C	0.944928	-0.273193	-0.000046
C36	C	0.938992	-0.627697	-0.000063
C37	C	1.087745	0.033297	-0.000064
C38	C	1.176265	0.028808	-0.000074
C39	C	0.936146	0.203524	-0.000064
C40	C	0.937724	0.296660	-0.000071
N41	N	0.932002	0.060694	0.205244
N42	N	0.951921	0.038402	-0.205353
C43	C	0.984027	0.002315	0.250639
C44	C	0.979635	0.007247	0.341447
C45	C	0.923222	0.070562	0.386858
C46	C	0.871191	0.128944	0.341457
C47	C	0.875579	0.124007	0.250650
C48	C	0.904279	0.091847	0.658439
C49	C	0.899896	0.096781	0.749252
C50	C	1.008340	-0.024917	0.749236
C51	C	1.012727	-0.029845	0.658428
C52	C	0.960693	0.028534	0.613034
N53	N	0.918733	0.075607	0.479678
N54	N	0.965179	0.023485	0.520216
H55	H	0.717154	-0.069342	-0.000034
O56	O	0.365610	-0.140235	-0.000043
H57	H	0.428837	-0.130562	-0.000027
O58	O	1.064460	-0.087880	0.798194
H59	H	1.055148	-0.153609	0.780775
O60	O	0.153266	0.189399	-0.000088
H61	H	0.112064	0.198215	0.058713
H62	H	0.833214	0.171544	0.213691
O63	O	0.782104	-0.356876	0.000048
H64	H	0.784058	-0.287691	-0.000559
O65	O	0.691183	0.230553	-0.000058
H66	H	0.667811	0.271564	0.058739
O67	O	0.848164	0.154820	0.609490
H68	H	0.860683	0.140751	0.538717
H69	H	0.317653	0.160775	-0.000088
O70	O	1.101904	-0.543800	-0.000020
H71	H	1.108354	-0.581769	0.058483
O72	O	0.810345	0.197240	0.390429
H73	H	0.816040	0.190873	0.461199
H74	H	1.058663	-0.081401	0.621456
O75	O	0.557786	-0.081521	-0.000032
H76	H	0.581173	-0.122543	-0.058817
O77	O	0.518295	0.239328	-0.000067
H78	H	0.554584	0.290818	-0.000074
H79	H	0.201220	-0.111613	-0.000069
O80	O	1.016021	-0.398774	0.150874
H81	H	0.981471	-0.411979	0.209787
O82	O	0.853196	-0.485931	0.150736
H83	H	0.790603	-0.450600	0.150596
H84	H	0.877424	-0.495394	-0.131295
O85	O	1.030661	-0.414914	-0.150817
H86	H	1.001519	-0.433836	-0.209776
O87	O	1.044871	-0.065978	0.201660
H88	H	1.080303	-0.105749	0.248486
O89	O	1.035762	-0.055703	0.390412
H90	H	1.075739	-0.100547	0.343579
H91	H	0.853954	0.148344	0.786221
