data_functionalizedCrystal
_audit_creation_method	'MofGen! by Chris Wilmer'
_symmetry_space_group_name_H-M	'P1'
_symmetry_Int_Tables_number	1
_symmetry_cell_setting	triclinic
loop_
_symmetry_equiv_pos_as_xyz
  x,y,z
_cell_length_a	12.645331
_cell_length_b	12.645329
_cell_length_c	12.645323
_cell_angle_alpha	90.026248
_cell_angle_beta	90.022822
_cell_angle_gamma	90.018192
loop_
_atom_site_label
_atom_site_type_symbol
_atom_site_fract_x
_atom_site_fract_y
_atom_site_fract_z
Zn1	Zn	1.620729	-0.422025	0.599440
Zn2	Zn	1.620610	-0.599313	0.422176
Zn3	Zn	1.443444	-0.422065	0.422184
Zn4	Zn	1.443425	-0.599247	0.599391
O5	O	1.532052	-0.510662	0.510798
O6	O	1.769061	-0.445553	0.575943
O7	O	1.597067	-0.575844	0.273830
O8	O	1.467019	-0.273712	0.445722
O9	O	1.768973	-0.575806	0.445708
O10	O	1.597270	-0.273683	0.575951
O11	O	1.466903	-0.445621	0.273836
O12	O	1.295094	-0.445557	0.445674
O13	O	1.466986	-0.575695	0.747745
O14	O	1.295080	-0.575733	0.575867
O15	O	1.597251	-0.445490	0.747781
O16	O	1.597048	-0.747651	0.445660
O17	O	1.466871	-0.747603	0.575859
C18	C	1.256622	-0.510643	0.510767
C19	C	1.138792	-0.510660	0.510778
C20	C	1.093883	-0.428640	0.429007
C21	C	0.971324	-0.428337	0.429287
C22	C	0.970963	-0.480868	0.622687
C23	C	1.093561	-0.480255	0.622176
C24	C	1.093576	-0.622718	0.481697
C25	C	0.970969	-0.622133	0.479271
C26	C	1.531973	-0.786092	0.510776
C27	C	1.532036	-0.903922	0.510803
C28	C	1.450103	-0.948818	0.592663
C29	C	1.450443	-1.071378	0.593019
C30	C	1.643960	-1.071689	0.540910
C31	C	1.643388	-0.949091	0.541470
C32	C	1.503229	-0.949213	0.398701
C33	C	1.500862	-1.071821	0.399332
C34	C	1.808557	-0.510683	0.510830
C35	C	1.926387	-0.510691	0.510844
C36	C	1.532130	-0.510580	0.787303
C37	C	1.532163	-0.510546	0.905133
C38	C	1.532160	-0.234157	0.510843
C39	C	1.532206	-0.116327	0.510862
C40	C	1.532035	-0.510668	0.235368
C41	C	1.532207	-0.510404	0.117539
C42	C	1.449961	-0.592071	1.072675
C43	C	1.450176	-0.592475	0.950115
C44	C	1.643863	-0.540864	0.949653
C45	C	1.643412	-0.541375	1.072251
C46	C	1.503722	-0.398246	1.072334
C47	C	1.501230	-0.398919	0.949727
H48	H	1.122179	-0.398358	0.646758
H49	H	1.367584	-1.101566	0.574237
Br50	Br	1.593116	-1.122818	0.292292
Br51	Br	1.311488	-0.560750	1.121785
H52	H	1.367347	-0.573503	0.920013
Br53	Br	1.748621	-0.899568	0.446382
H54	H	1.706770	-0.484474	1.101931
H55	H	0.940283	-0.399880	0.647708
Br56	Br	1.145015	-0.668105	0.348022
Br57	Br	0.920033	-0.729389	0.571290
Br58	Br	1.480922	-0.729775	1.124125
Br59	Br	1.311482	-0.899841	0.561726
H60	H	0.941830	-0.644629	0.396959
H61	H	1.556758	-0.334855	0.919108
H62	H	1.468980	-0.675623	0.920799
H63	H	1.667556	-0.623364	1.100860
Br64	Br	1.363777	-1.120462	0.361552
H65	H	1.123287	-0.447031	0.345809
H66	H	1.562898	-0.920166	0.337711
Br67	Br	1.748744	-0.444859	0.901103
Br68	Br	0.922464	-0.289955	0.461479
H69	H	1.706722	-1.100796	0.483137
Br70	Br	1.142013	-0.724572	0.580935
Br71	Br	1.364214	-0.360813	0.901247
Br72	Br	1.481538	-0.897363	0.730327
Br73	Br	1.145260	-0.291026	0.460768
Br74	Br	1.684802	-0.676086	0.898503
H75	H	1.469617	-1.100632	0.676091
H76	H	0.941863	-0.538791	0.685305
H77	H	1.667773	-0.920416	0.623409
H78	H	1.668815	-1.102314	0.621965
H79	H	1.423077	-0.918392	0.371279
H80	H	1.423689	-0.370610	1.103239
Br81	Br	1.603567	-0.296833	1.120690
H82	H	1.123275	-0.537423	0.685211
Br83	Br	0.921076	-0.459335	0.291085
