data_functionalizedCrystal
_audit_creation_method	'MofGen! by Chris Wilmer'
_symmetry_space_group_name_H-M	'P1'
_symmetry_Int_Tables_number	1
_symmetry_cell_setting	triclinic
loop_
_symmetry_equiv_pos_as_xyz
  x,y,z
_cell_length_a	18.215407
_cell_length_b	19.077068
_cell_length_c	19.077482
_cell_angle_alpha	94.575287
_cell_angle_beta	87.622837
_cell_angle_gamma	92.327501
loop_
_atom_site_label
_atom_site_type_symbol
_atom_site_fract_x
_atom_site_fract_y
_atom_site_fract_z
Zn1	Zn	1.130268	-0.296065	-0.409821
Zn2	Zn	1.120538	-0.409387	-0.296674
Zn3	Zn	1.002316	-0.291525	-0.291959
Zn4	Zn	1.002412	-0.413909	-0.414508
O5	O	1.063884	-0.352721	-0.353241
O6	O	1.231962	-0.311104	-0.394823
O7	O	1.100744	-0.389960	-0.197409
O8	O	1.023321	-0.193484	-0.303659
O9	O	1.224813	-0.394361	-0.311695
O10	O	1.117326	-0.196819	-0.390251
O11	O	1.013887	-0.303368	-0.193946
O12	O	0.899344	-0.307753	-0.308204
O13	O	1.023485	-0.402069	-0.512526
O14	O	0.899415	-0.397667	-0.398240
O15	O	1.117420	-0.315490	-0.509082
O16	O	1.100837	-0.508630	-0.316240
O17	O	1.014050	-0.511952	-0.402812
C18	C	0.872677	-0.352709	-0.353220
C19	C	0.790878	-0.352721	-0.353228
C20	C	0.602735	-0.399608	-0.400056
C21	C	0.525876	-0.399611	-0.400065
C22	C	0.525785	-0.305848	-0.306441
C23	C	0.602642	-0.305843	-0.306436
C24	C	0.641115	-0.352727	-0.353243
C25	C	0.487399	-0.352735	-0.353256
C26	C	0.404066	-0.352737	-0.353266
C27	C	0.724454	-0.352724	-0.353235
C28	C	1.056419	-0.535869	-0.360562
C29	C	1.053294	-0.614221	-0.363717
C30	C	1.097049	-0.649279	-0.320163
C31	C	1.094114	-0.722900	-0.323136
C32	C	1.047419	-0.761461	-0.369658
C33	C	1.003663	-0.726397	-0.413216
C34	C	1.006602	-0.652778	-0.410247
C35	C	1.033783	-0.981826	-0.383370
C36	C	1.030846	-1.055450	-0.386335
C37	C	1.121298	-1.051947	-0.296254
C38	C	1.124230	-0.978327	-0.293286
C39	C	1.080476	-0.943270	-0.336847
N40	N	1.044417	-0.836713	-0.372696
N41	N	1.083483	-0.868020	-0.333813
C42	C	1.255837	-0.352735	-0.353262
C43	C	1.337636	-0.352741	-0.353271
C44	C	1.071548	-0.359790	-0.537095
C45	C	1.074814	-0.362802	-0.615443
C46	C	1.071398	-0.168859	-0.345906
C47	C	1.074601	-0.090508	-0.342781
C48	C	1.056293	-0.345629	-0.170100
C49	C	1.053178	-0.342419	-0.091744
C50	C	1.097285	-0.385663	-0.056688
C51	C	1.094347	-0.382651	0.016935
C52	C	1.047305	-0.336390	0.055500
C53	C	1.003192	-0.293144	0.020439
C54	C	1.006127	-0.296160	-0.053183
C55	C	1.033637	-0.322573	0.275874
C56	C	1.030707	-0.319558	0.349501
C57	C	1.121861	-0.409066	0.345992
C58	C	1.124795	-0.412076	0.272369
C59	C	1.080680	-0.368832	0.237314
N60	N	1.044302	-0.333308	0.130755
N61	N	1.083679	-0.371918	0.162061
H62	H	1.135069	-0.617888	-0.282277
H63	H	1.130255	-0.417873	0.045475
H64	H	0.965647	-0.757800	-0.451099
C65	C	0.483462	-0.254284	-0.254949
C66	C	0.398922	-0.254290	-0.254948
C67	C	0.356601	-0.202726	-0.203454
C68	C	0.398820	-0.151156	-0.151960
C69	C	0.483365	-0.151148	-0.151959
C70	C	0.525686	-0.202712	-0.203454
H71	H	0.367664	-0.292467	-0.293069
H72	H	0.294015	-0.202732	-0.203455
H73	H	0.367492	-0.112985	-0.113841
H74	H	0.514623	-0.112971	-0.113839
H75	H	0.588272	-0.202705	-0.203453
C76	C	0.645056	-0.451173	-0.451548
C77	C	0.701454	-0.422836	-0.505715
C78	C	0.743773	-0.474401	-0.557210
C79	C	0.729693	-0.554303	-0.554539
C80	C	0.673293	-0.582644	-0.500371
C81	C	0.630974	-0.531079	-0.448875
H82	H	0.711878	-0.363684	-0.507694
H83	H	0.785524	-0.453420	-0.597310
H84	H	0.761020	-0.592474	-0.592659
H85	H	0.662868	-0.641795	-0.498391
H86	H	0.589223	-0.552059	-0.408776
C87	C	0.644864	-0.254272	-0.254934
C88	C	0.637806	-0.174371	-0.257607
C89	C	0.680028	-0.122802	-0.206109
C90	C	0.729307	-0.151133	-0.151937
C91	C	0.736367	-0.231038	-0.149261
C92	C	0.694145	-0.282607	-0.200760
H93	H	0.601325	-0.153395	-0.297710
H94	H	0.674802	-0.063651	-0.208090
H95	H	0.760562	-0.112958	-0.113815
H96	H	0.772848	-0.252014	-0.109158
H97	H	0.699372	-0.341758	-0.198779
C98	C	0.958468	-0.614210	-0.458154
C99	C	0.874162	-0.624173	-0.452739
C100	C	0.826029	-0.585606	-0.500649
C101	C	0.862204	-0.537076	-0.553975
C102	C	0.946515	-0.527110	-0.559393
C103	C	0.994647	-0.565678	-0.511483
H104	H	0.847379	-0.660100	-0.413261
H105	H	0.763616	-0.592983	-0.496638
H106	H	0.826573	-0.508526	-0.589441
H107	H	0.973298	-0.491183	-0.598870
H108	H	1.057061	-0.558301	-0.515494
C109	C	1.142250	-0.761460	-0.275226
C110	C	1.133374	-0.748297	-0.194682
C111	C	1.181516	-0.786855	-0.146772
C112	C	1.238534	-0.838574	-0.179406
C113	C	1.247413	-0.851739	-0.259954
C114	C	1.199270	-0.813182	-0.307864
H115	H	1.091164	-0.710009	-0.170521
H116	H	1.174944	-0.777109	-0.087145
H117	H	1.274172	-0.867117	-0.143940
H118	H	1.289623	-0.890027	-0.284115
H119	H	1.205843	-0.822927	-0.367491
C120	C	1.169430	-1.090512	-0.248345
C121	C	1.133261	-1.139046	-0.195019
C122	C	1.181398	-1.177610	-0.147110
C123	C	1.265704	-1.167641	-0.152527
C124	C	1.301878	-1.119105	-0.205855
C125	C	1.253741	-1.080541	-0.253764
H126	H	1.070848	-1.146427	-0.191008
H127	H	1.154619	-1.213539	-0.107633
H128	H	1.301338	-1.196188	-0.117062
H129	H	1.364290	-1.111723	-0.209867
H130	H	1.280520	-1.044611	-0.293241
C131	C	1.170379	-0.456637	0.384554
C132	C	1.222123	-0.507524	0.342134
C133	C	1.270642	-0.555100	0.380695
C134	C	1.267416	-0.551789	0.461676
C135	C	1.215671	-0.500900	0.504100
C136	C	1.167152	-0.453324	0.465539
H137	H	1.224513	-0.509977	0.282183
H138	H	1.308947	-0.592771	0.349289
H139	H	1.303333	-0.587007	0.490221
H140	H	1.213281	-0.498447	0.564051
H141	H	1.128846	-0.415653	0.496945
H142	H	0.970211	-0.260945	-0.081725
C143	C	0.978955	-0.268671	0.391928
C144	C	0.988033	-0.188918	0.384795
C145	C	0.936287	-0.138034	0.427223
C146	C	0.875464	-0.166902	0.476785
C147	C	0.866383	-0.246659	0.483920
C148	C	0.918129	-0.297543	0.441491
H149	H	1.033061	-0.167545	0.348104
H150	H	0.943010	-0.078993	0.421941
H151	H	0.837159	-0.129234	0.508193
H152	H	0.821356	-0.268032	0.520610
H153	H	0.911407	-0.356585	0.446773
C154	C	0.483658	-0.451182	-0.451560
C155	C	0.525980	-0.502749	-0.503044
C156	C	0.483762	-0.554322	-0.554542
C157	C	0.399222	-0.554329	-0.554556
C158	C	0.356896	-0.502760	-0.503070
C159	C	0.399114	-0.451187	-0.451572
H160	H	0.588566	-0.502746	-0.503036
H161	H	0.515096	-0.592497	-0.592656
H162	H	0.367970	-0.592507	-0.592678
H163	H	0.294310	-0.502763	-0.503078
H164	H	0.367780	-0.413012	-0.413458
H165	H	0.992831	-1.086845	-0.424231
H166	H	1.163101	-0.449747	0.240974
H167	H	1.135596	-0.423330	-0.088082
C168	C	0.985652	-0.943275	-0.431288
C169	C	0.901346	-0.953244	-0.425877
C170	C	0.853213	-0.914691	-0.473799
C171	C	0.889387	-0.866169	-0.527133
C172	C	0.973698	-0.856198	-0.532547
C173	C	1.021831	-0.894750	-0.484624
H174	H	0.874564	-0.989165	-0.386393
H175	H	0.790801	-0.922073	-0.469791
H176	H	0.853757	-0.837630	-0.562609
H177	H	1.000480	-0.820277	-0.572030
H178	H	1.084243	-0.887369	-0.488632
H179	H	1.162252	-0.946932	-0.255404
H180	H	0.997714	-0.287362	0.247341
H181	H	0.964886	-0.255480	0.051844
