data_functionalizedCrystal
_audit_creation_method	'MofGen! by Chris Wilmer'
_symmetry_space_group_name_H-M	'P1'
_symmetry_Int_Tables_number	1
_symmetry_cell_setting	triclinic
loop_
_symmetry_equiv_pos_as_xyz
  x,y,z
_cell_length_a	14.908979
_cell_length_b	12.759400
_cell_length_c	12.759393
_cell_angle_alpha	90.031877
_cell_angle_beta	93.275020
_cell_angle_gamma	86.683756
loop_
_atom_site_label
_atom_site_type_symbol
_atom_site_fract_x
_atom_site_fract_y
_atom_site_fract_z
Zn1	Zn	1.379216	0.325439	-0.501488
Zn2	Zn	1.379129	0.501165	-0.325814
Zn3	Zn	1.228354	0.335641	-0.335945
Zn4	Zn	1.228341	0.511224	-0.511568
O5	O	1.303760	0.418368	-0.418704
O6	O	1.505445	0.340271	-0.469727
O7	O	1.359098	0.479268	-0.180139
O8	O	1.248409	0.187264	-0.357926
O9	O	1.505381	0.469375	-0.340660
O10	O	1.359246	0.179769	-0.479550
O11	O	1.248324	0.357658	-0.187582
O12	O	1.102111	0.367412	-0.367699
O13	O	1.248385	0.486520	-0.657250
O14	O	1.102102	0.496412	-0.496729
O15	O	1.359232	0.350025	-0.649844
O16	O	1.359084	0.649523	-0.350433
O17	O	1.248301	0.656914	-0.486906
C18	C	1.069374	0.434112	-0.434408
C19	C	0.969102	0.440872	-0.441151
C20	C	0.827793	0.517666	-0.517713
C21	C	0.922007	0.511315	-0.511386
C22	C	0.921977	0.376779	-0.377236
C23	C	0.827763	0.383130	-0.383562
C24	C	0.780674	0.453576	-0.453805
C25	C	0.686458	0.459921	-0.460136
C26	C	0.686430	0.325391	-0.325981
C27	C	0.780644	0.319040	-0.319654
C28	C	1.303706	0.691339	-0.418685
C29	C	1.303766	0.808111	-0.418707
C30	C	1.303817	0.418256	-0.692733
C31	C	1.303841	0.418209	-0.809508
C32	C	1.539062	0.402563	-0.402939
C33	C	1.639333	0.395828	-0.396221
C34	C	1.303838	0.144329	-0.418743
C35	C	1.303872	0.027550	-0.418760
C36	C	1.361515	0.859086	-0.347716
C37	C	1.361570	0.968806	-0.347745
C38	C	1.246120	0.976568	-0.489759
C39	C	1.246070	0.866849	-0.489735
C40	C	1.428166	0.854606	-0.265722
C41	C	1.428222	0.964326	-0.265750
C42	C	1.246180	0.489223	-0.977949
C43	C	1.246145	0.489256	-0.868227
C44	C	1.361570	0.347117	-0.860517
C45	C	1.361599	0.347080	-0.970237
C46	C	1.179543	0.571290	-0.982400
C47	C	1.179509	0.571323	-0.872678
C48	C	1.303755	0.418399	-0.145737
C49	C	1.303905	0.418139	-0.028950
H50	H	0.789452	0.575017	-0.574916
H51	H	1.409559	0.995444	-0.185621
Br52	Br	1.221237	0.697293	-1.036307
Br53	Br	1.439855	0.250674	-0.780829
H54	H	0.960367	0.563505	-0.563427
Br55	Br	0.844558	0.223444	-0.224327
Br56	Br	1.063115	0.542785	-1.039857
H57	H	1.113133	0.546652	-0.843108
H58	H	1.198239	0.651429	-0.841623
H59	H	0.648056	0.273200	-0.273945
Br60	Br	0.985898	0.281193	-0.281905
H61	H	0.648120	0.517277	-0.517335
H62	H	1.199055	0.825346	-0.547550
Br63	Br	1.439957	0.250619	-1.039450
H64	H	1.199147	1.024406	-0.547588
H65	H	1.494599	0.993806	-0.290511
H66	H	1.498012	0.820050	-0.282889
Br67	Br	1.386461	0.800819	-0.139652
