data_functionalizedCrystal
_audit_creation_method	'MofGen! by Chris Wilmer'
_symmetry_space_group_name_H-M	'P1'
_symmetry_Int_Tables_number	1
_symmetry_cell_setting	triclinic
loop_
_symmetry_equiv_pos_as_xyz
  x,y,z
_cell_length_a	14.519709
_cell_length_b	15.072220
_cell_length_c	14.519709
_cell_angle_alpha	90.002063
_cell_angle_beta	96.319855
_cell_angle_gamma	89.993636
loop_
_atom_site_label
_atom_site_type_symbol
_atom_site_fract_x
_atom_site_fract_y
_atom_site_fract_z
O1	O	-1.223879	0.073658	0.120885
O2	O	-0.955402	0.073688	0.135122
O3	O	-1.096759	0.073664	-0.006235
O4	O	-1.082522	0.073682	0.262242
O5	O	-1.096724	-0.073901	-0.006227
O6	O	-0.955367	-0.073877	0.135129
O7	O	-1.223844	-0.073907	0.120893
Zn8	Zn	-1.089600	-0.097321	0.128012
Zn9	Zn	-1.089646	0.097102	0.128002
O10	O	-1.082487	-0.073883	0.262250
C11	C	-0.921025	-0.000091	0.134462
C12	C	-0.818643	-0.000080	0.132474
C13	C	-0.443748	-0.000117	0.125154
C14	C	-0.548056	-0.000107	0.127187
C15	C	-0.631192	-0.000098	0.128814
C16	C	-0.735507	-0.000089	0.130847
N17	N	-1.089575	-0.230010	0.128019
C18	C	-1.089644	-0.589212	0.127999
C19	C	-1.013752	-0.551592	0.203381
C20	C	-1.013927	-0.448766	0.203657
C21	C	-1.089609	-0.411008	0.128009
C22	C	-1.185870	-0.448308	0.149184
C23	C	-1.185445	-0.551166	0.149720
C24	C	-1.070133	-0.551316	0.031218
C25	C	-1.067926	-0.448452	0.031859
C26	C	-1.089595	-0.310294	0.128013
C27	C	-1.089664	-0.689925	0.127997
C28	C	-0.258221	-0.000124	0.121553
C29	C	-0.360602	-0.000123	0.123541
C30	C	-1.096078	-0.000118	-0.040591
C31	C	-1.094089	-0.000119	-0.142972
N32	N	-1.089678	0.229791	0.127988
C33	C	-1.086770	-0.000095	-0.517868
C34	C	-1.088803	-0.000102	-0.413560
C35	C	-1.090430	-0.000108	-0.330423
C36	C	-1.092463	-0.000113	-0.226109
C37	C	-1.083168	-0.000099	0.296606
C38	C	-1.085156	-0.000093	0.398987
H39	H	-0.942380	-0.423548	0.191017
H40	H	-1.026402	-0.424149	0.275473
N41	N	-1.143435	-0.583536	-0.043097
H42	H	-1.189067	-0.622489	-0.014267
H43	H	-1.113169	-0.618705	-0.090764
N44	N	-0.918671	-0.584383	0.186919
H45	H	-0.871007	-0.559470	0.236045
H46	H	-0.904061	-0.564317	0.123771
H47	H	-1.203445	-0.422536	0.218967
H48	H	-1.026057	-0.577427	0.274793
H49	H	-1.202614	-0.575145	0.220307
H50	H	-1.243690	-0.576050	0.096989
N51	N	-1.262478	-0.415920	0.078402
H52	H	-1.235456	-0.376660	0.031818
H53	H	-1.308958	-0.381033	0.110609
N54	N	-0.979148	-0.585704	0.004306
H55	H	-0.949654	-0.626204	0.054584
H56	H	-0.936419	-0.534126	-0.003931
N57	N	-0.974097	-0.416223	0.010603
H58	H	-0.945751	-0.377521	0.063025
H59	H	-0.981349	-0.380798	-0.048795
N60	N	-1.136376	-0.414426	-0.045950
H61	H	-1.182620	-0.374077	-0.019859
H62	H	-1.170003	-0.466181	-0.078541
