data_functionalizedCrystal
_audit_creation_method	'MofGen! by Chris Wilmer'
_symmetry_space_group_name_H-M	'P1'
_symmetry_Int_Tables_number	1
_symmetry_cell_setting	triclinic
loop_
_symmetry_equiv_pos_as_xyz
  x,y,z
_cell_length_a	18.050591
_cell_length_b	18.050590
_cell_length_c	12.759387
_cell_angle_alpha	89.963724
_cell_angle_beta	89.973947
_cell_angle_gamma	90.015000
loop_
_atom_site_label
_atom_site_type_symbol
_atom_site_fract_x
_atom_site_fract_y
_atom_site_fract_z
Zn1	Zn	1.135389	-0.295682	-0.594176
Zn2	Zn	1.135307	-0.419893	-0.418484
Zn3	Zn	1.011194	-0.295714	-0.418491
Zn4	Zn	1.011177	-0.419827	-0.594100
O5	O	1.073266	-0.357779	-0.506313
O6	O	1.239302	-0.312173	-0.570899
O7	O	1.118816	-0.403462	-0.271463
O8	O	1.027710	-0.191785	-0.441831
O9	O	1.239242	-0.403431	-0.441818
O10	O	1.118956	-0.191762	-0.570906
O11	O	1.027631	-0.312228	-0.271469
O12	O	0.907267	-0.312164	-0.441757
O13	O	1.027681	-0.403318	-0.741132
O14	O	0.907254	-0.403349	-0.570777
O15	O	1.118939	-0.312109	-0.741187
O16	O	1.118799	-0.523809	-0.441745
O17	O	1.027601	-0.523761	-0.570770
C18	C	0.880314	-0.357753	-0.506260
C19	C	0.797769	-0.357760	-0.506263
C20	C	0.548928	-0.308122	-0.436268
C21	C	0.598365	-0.290025	-0.532151
C22	C	0.500648	-0.357798	-0.506349
C23	C	0.598294	-0.375840	-0.410429
C24	C	0.646633	-0.357777	-0.506301
C25	C	0.548997	-0.339666	-0.602282
C26	C	0.548922	-0.425513	-0.480496
C27	C	0.598336	-0.407442	-0.576445
C28	C	0.416550	-0.357808	-0.506375
C29	C	0.730730	-0.357767	-0.506286
C30	C	1.073209	-0.550731	-0.506271
C31	C	1.073253	-0.633277	-0.506288
C32	C	1.122949	-0.832727	-0.436222
C33	C	1.141092	-0.882052	-0.532112
C34	C	1.073295	-0.784407	-0.506330
C35	C	1.055228	-0.882165	-0.410483
C36	C	1.073337	-0.930393	-0.506362
C37	C	1.091473	-0.832645	-0.602271
C38	C	1.005577	-0.832753	-0.480577
C39	C	1.023694	-0.882055	-0.576533
C40	C	1.073273	-0.700309	-0.506310
C41	C	1.073359	-1.014489	-0.506393
C42	C	1.266972	-0.357806	-0.506366
C43	C	1.349518	-0.357817	-0.506389
C44	C	1.073317	-0.357702	-0.780346
C45	C	1.073338	-0.357670	-0.897123
C46	C	1.073344	-0.164074	-0.506378
C47	C	1.073377	-0.081528	-0.506406
C48	C	0.978394	-0.262661	-0.897148
C49	C	0.930935	-0.215142	-0.952021
C50	C	0.930957	-0.215116	-1.061743
C51	C	0.978442	-0.262614	-1.116594
C52	C	1.025901	-0.310133	-1.061721
C53	C	1.025875	-0.310153	-0.951996
C54	C	1.120840	-0.405144	-1.061696
C55	C	1.120823	-0.405169	-0.951974
C56	C	1.168325	-0.452643	-1.116547
C57	C	1.215788	-0.500160	-1.061674
C58	C	1.215765	-0.500184	-0.951946
C59	C	1.168282	-0.452688	-0.897101
C60	C	1.073259	-0.357802	-0.233345
C61	C	1.073381	-0.357625	-0.116569
H62	H	0.619891	-0.449443	-0.635758
Cl63	Cl	1.275471	-0.559871	-1.130634
H64	H	1.168260	-0.452700	-0.807760
Cl65	Cl	1.229540	-0.915471	-0.565794
H66	H	0.948307	-0.811081	-0.458745
H67	H	0.981721	-0.903578	-0.635903
Cl68	Cl	0.515708	-0.315987	-0.727528
Cl69	Cl	0.515360	-0.513913	-0.446712
Cl70	Cl	0.631729	-0.399416	-0.285222
H71	H	1.164955	-0.811067	-0.376996
Cl72	Cl	1.115207	-0.799209	-0.727470
H73	H	0.978449	-0.262595	-1.205935
Cl74	Cl	1.031607	-0.915748	-0.285320
H75	H	1.168336	-0.452622	-1.205888
H76	H	0.892311	-0.176423	-1.106420
H77	H	0.978377	-0.262673	-0.807807
H78	H	0.892272	-0.176472	-0.907349
H79	H	1.254414	-0.538878	-0.907274
H80	H	0.620069	-0.232749	-0.554016
Cl81	Cl	0.515432	-0.243231	-0.344913
