data_functionalizedCrystal
_audit_creation_method	'MofGen! by Chris Wilmer'
_symmetry_space_group_name_H-M	'P1'
_symmetry_Int_Tables_number	1
_symmetry_cell_setting	triclinic
loop_
_symmetry_equiv_pos_as_xyz
  x,y,z
_cell_length_a	9.065218
_cell_length_b	17.038272
_cell_length_c	8.140239
_cell_angle_alpha	89.996147
_cell_angle_beta	89.997198
_cell_angle_gamma	88.063721
loop_
_atom_site_label
_atom_site_type_symbol
_atom_site_fract_x
_atom_site_fract_y
_atom_site_fract_z
O1	O	1.971908	0.114742	-0.136620
O2	O	1.543567	0.124153	-0.136623
O3	O	1.755192	0.005614	-0.136608
O4	O	1.760283	0.233281	-0.136634
O5	O	1.755179	0.005612	0.136619
O6	O	1.543555	0.124152	0.136605
O7	O	1.971895	0.114740	0.136607
Zn8	Zn	1.757723	0.119446	0.179986
Zn9	Zn	1.757740	0.119448	-0.180002
O10	O	1.760271	0.233280	0.136593
C11	C	1.488484	0.123248	-0.000009
C12	C	1.324369	0.120544	-0.000010
C13	C	1.750555	-0.023549	0.000005
C14	C	1.736739	-0.110441	0.000005
C15	C	1.863587	-0.159639	0.000007
C16	C	1.850596	-0.241284	-0.000009
C17	C	1.710756	-0.273728	-0.000015
C18	C	1.583899	-0.224524	-0.000022
C19	C	1.596891	-0.142881	-0.000019
C20	C	1.664859	-0.519818	-0.000038
C21	C	1.651876	-0.601467	-0.000037
C22	C	1.918575	-0.618221	-0.000026
C23	C	1.931554	-0.536576	-0.000012
C24	C	1.804697	-0.487379	-0.000028
C25	C	1.697475	-0.357182	-0.000026
C26	C	1.817980	-0.403927	-0.000029
C27	C	2.026979	0.115646	-0.000010
C28	C	2.191093	0.118350	-0.000020
C29	C	1.764908	0.262442	-0.000024
C30	C	1.778724	0.349335	-0.000034
N31	N	1.757722	0.119444	0.425669
N32	N	1.757751	0.119443	-0.425685
H33	H	1.977459	-0.133230	0.000022
C34	C	1.990136	-0.295399	-0.000001
C35	C	2.101914	-0.291092	0.141890
C36	C	2.241463	-0.345205	0.141895
C37	C	2.269234	-0.403626	0.000007
C38	C	2.157453	-0.407936	-0.141894
C39	C	2.017904	-0.353822	-0.141899
H40	H	2.081359	-0.247843	0.246933
H41	H	2.324210	-0.342015	0.246940
H42	H	2.372536	-0.443684	0.000011
H43	H	2.178007	-0.451185	-0.246937
H44	H	1.935156	-0.357013	-0.246945
C45	C	1.457357	-0.088759	-0.000019
C46	C	1.345572	-0.093067	-0.141902
C47	C	1.206034	-0.038945	-0.141912
C48	C	1.178282	0.019485	-0.000039
C49	C	1.290070	0.023796	0.141856
C50	C	1.429608	-0.030326	0.141866
H51	H	1.366113	-0.136323	-0.246935
H52	H	1.123281	-0.042137	-0.246953
H53	H	1.074987	0.059550	-0.000046
H54	H	1.269529	0.067052	0.246889
H55	H	1.512361	-0.027134	0.246906
H56	H	2.045426	-0.510166	-0.000007
C57	C	2.058110	-0.672340	-0.000028
C58	C	2.085853	-0.730780	0.141843
C59	C	2.225395	-0.784899	0.141833
C60	C	2.337195	-0.780577	-0.000048
C61	C	2.309455	-0.722134	-0.141930
C62	C	2.169912	-0.668015	-0.141920
H63	H	2.003090	-0.733982	0.246881
H64	H	2.245930	-0.828162	0.246864
H65	H	2.440492	-0.820639	-0.000055
H66	H	2.392218	-0.718932	-0.246968
H67	H	2.149378	-0.624752	-0.246951
H68	H	1.537996	-0.627879	-0.000015
H69	H	1.561561	-0.479770	-0.000050
H70	H	1.470038	-0.250946	-0.000038
H71	H	1.931837	-0.377507	-0.000060
H72	H	1.583616	-0.383607	-0.000027
