data_functionalizedCrystal
_audit_creation_method	'MofGen! by Chris Wilmer'
_symmetry_space_group_name_H-M	'P1'
_symmetry_Int_Tables_number	1
_symmetry_cell_setting	triclinic
loop_
_symmetry_equiv_pos_as_xyz
  x,y,z
_cell_length_a	21.295417
_cell_length_b	16.120542
_cell_length_c	16.120297
_cell_angle_alpha	90.127087
_cell_angle_beta	87.132998
_cell_angle_gamma	92.878379
loop_
_atom_site_label
_atom_site_type_symbol
_atom_site_fract_x
_atom_site_fract_y
_atom_site_fract_z
Zn1	Zn	-0.318985	-1.247394	0.534551
Zn2	Zn	0.181015	-0.747394	1.034551
Zn3	Zn	-0.419195	-1.254330	0.395481
Zn4	Zn	0.080805	-0.754330	0.895481
Zn5	Zn	-0.308340	-1.115386	0.388467
Zn6	Zn	0.191660	-0.615386	0.888467
Zn7	Zn	-0.418607	-1.108286	0.527447
Zn8	Zn	0.081393	-0.608286	1.027447
O9	O	-0.366282	-1.181349	0.461486
O10	O	0.133718	-0.681349	0.961486
O11	O	-0.336979	-1.364680	0.522011
O12	O	0.163021	-0.864680	1.022011
O13	O	-0.400281	-1.241772	0.278185
O14	O	0.099719	-0.741772	0.778185
O15	O	-0.221667	-1.132966	0.407884
O16	O	0.278333	-0.632966	0.907884
O17	O	-0.410603	-1.369776	0.419837
O18	O	0.089397	-0.869776	0.919837
O19	O	-0.229488	-1.229952	0.515211
O20	O	0.270512	-0.729952	1.015211
O21	O	-0.318837	-1.139691	0.273033
O22	O	0.181163	-0.639691	0.773033
O23	O	-0.318267	-0.998078	0.400995
O24	O	0.181733	-0.498078	0.900995
O25	O	-0.409601	-1.120865	0.644754
O26	O	0.090399	-0.620865	1.144754
O27	O	-0.399279	-0.992862	0.503103
O28	O	0.100721	-0.492862	1.003103
O29	O	-0.336409	-1.223067	0.649973
O30	O	0.163591	-0.723067	1.149973
O31	O	-0.507202	-1.234887	0.412948
O32	O	-0.007202	-0.734887	0.912948
O33	O	-0.506770	-1.127590	0.509903
O34	O	-0.006770	-0.627590	1.009903
C35	C	-0.357555	-0.965298	0.450517
C36	C	0.142445	-0.465298	0.950517
C37	C	-0.353837	-0.872869	0.445845
C38	C	0.146163	-0.372869	0.945845
C39	C	-0.529827	-1.181242	0.461435
C40	C	-0.029827	-0.681242	0.961435
C41	C	-0.599797	-1.181271	0.461444
C42	C	-0.099797	-0.681271	0.961444
C43	C	-0.385546	-0.659902	0.485680
C44	C	0.114454	-0.159902	0.985680
C45	C	-0.347055	-0.703646	0.437312
C46	C	0.152945	-0.203646	0.937312
C47	C	-0.350830	-0.797810	0.442061
C48	C	0.149170	-0.297810	0.942061
C49	C	-0.381773	-0.565729	0.480932
C50	C	0.118227	-0.065729	0.980932
C51	C	-0.632872	-1.237186	0.411017
C52	C	-0.132872	-0.737186	0.911017
C53	C	-0.698616	-1.237224	0.411038
C54	C	-0.198616	-0.737224	0.911038
C55	C	-0.731283	-1.181333	0.461476
C56	C	-0.231283	-0.681333	0.961476
C57	C	-0.698201	-1.125414	0.511914
C58	C	-0.198201	-0.625414	1.011914
C59	C	-0.632458	-1.125383	0.511898
C60	C	-0.132458	-0.625383	1.011898
N61	N	-0.831845	-1.108267	0.464122
N62	N	-0.331845	-0.608267	0.964122
N63	N	-0.894298	-1.108299	0.464133
N64	N	-0.394298	-0.608299	0.964133
C65	C	-0.929363	-1.181424	0.461529
C66	C	-0.429363	-0.681424	0.961529
N67	N	-0.899616	-1.254517	0.458898
N68	N	-0.399616	-0.754517	0.958898
N69	N	-0.837157	-1.254485	0.458883
N70	N	-0.337157	-0.754485	0.958883
C71	C	-0.802570	-1.181361	0.461500
C72	C	-0.302570	-0.681361	0.961500
C73	C	-1.033726	-1.237384	0.411121
C74	C	-0.533726	-0.737384	0.911121
C75	C	-1.099472	-1.237423	0.411148
C76	C	-0.599472	-0.737423	0.911148
C77	C	-1.099055	-1.125606	0.512019
C78	C	-0.599055	-0.625606	1.012019
C79	C	-1.033310	-1.125574	0.511997
C80	C	-0.533310	-0.625574	1.011997
C81	C	-1.000650	-1.181462	0.461544
C82	C	-0.500650	-0.681462	0.961544
C83	C	-0.202099	-1.181478	0.461558
C84	C	0.297901	-0.681478	0.961558
C85	C	-0.132134	-1.181533	0.461588
C86	C	0.367866	-0.681533	0.961588
C87	C	-0.374127	-1.170401	0.678379
C88	C	0.125873	-0.670401	1.178379
C89	C	-0.377470	-1.165735	0.770806
C90	C	0.122530	-0.665735	1.270806
C91	C	-0.375040	-0.398245	0.472487
C92	C	0.124960	0.101755	0.972487
C93	C	-0.378763	-0.490674	0.477145
C94	C	0.121237	0.009326	0.977145
C95	C	-0.358424	-1.192303	0.245440
C96	C	0.141576	-0.692303	0.745440
C97	C	-0.354910	-1.197129	0.153022
C98	C	0.145090	-0.697129	0.653022
C99	C	-0.383558	-1.157186	0.940030
C100	C	0.116442	-0.657186	1.440030
C101	C	-0.348824	-1.205675	0.983803
C102	C	0.151176	-0.705675	1.483803
C103	C	-0.352212	-1.200919	1.077965
C104	C	0.147788	-0.700919	1.577965
C105	C	-0.380171	-1.161942	0.845859
C106	C	0.119829	-0.661942	1.345859
H107	H	-0.311267	-0.670375	0.392336
H108	H	0.188733	-0.170375	0.892336
H109	H	-0.421332	-0.693171	0.530652
H110	H	0.078668	-0.193171	1.030652
N111	N	-0.597646	-1.297474	0.356614
N112	N	-0.097646	-0.797474	0.856614
H113	H	-0.628579	-1.332905	0.324676
H114	H	-0.128579	-0.832905	0.824676
H115	H	-0.573113	-1.334204	0.392449
H116	H	-0.073113	-0.834204	0.892449
N117	N	-0.306073	-1.265409	0.939776
N118	N	0.193927	-0.765409	1.439776
H119	H	-0.283367	-1.297110	0.982111
H120	H	0.216633	-0.797110	1.482111
H121	H	-0.274302	-1.233375	0.902018
H122	H	0.225698	-0.733375	1.402018
N123	N	-0.426323	-1.097471	0.984044
N124	N	0.073677	-0.597471	1.484044
H125	H	-0.413618	-1.038810	0.965958
H126	H	0.086382	-0.538810	1.465958
H127	H	-0.422699	-1.102564	1.046034
H128	H	0.077301	-0.602564	1.546034
N129	N	-0.596776	-1.065071	0.566283
N130	N	-0.096776	-0.565071	1.066283
H131	H	-0.610853	-1.074941	0.626365
H132	H	-0.110853	-0.574941	1.126365
H133	H	-0.605411	-1.006353	0.550237
H134	H	-0.105411	-0.506353	1.050237
N135	N	-0.734301	-1.297535	0.356647
N136	N	-0.234301	-0.797535	0.856647
H137	H	-0.703634	-1.332935	0.324685
H138	H	-0.203634	-0.832935	0.824685
H139	H	-0.758856	-1.265666	0.316431
H140	H	-0.258856	-0.765666	0.816431
H141	H	-1.007133	-1.282894	0.370041
H142	H	-0.507133	-0.782894	0.870041
N143	N	-0.733430	-1.065133	0.566319
N144	N	-0.233430	-0.565133	1.066319
H145	H	-0.780097	-1.073635	0.558676
H146	H	-0.280097	-0.573635	1.058676
H147	H	-0.719116	-1.006405	0.550312
H148	H	-0.219116	-0.506405	1.050312
N149	N	-1.135149	-1.297738	0.356760
N150	N	-0.635149	-0.797738	0.856760
H151	H	-1.104480	-1.333134	0.324797
H152	H	-0.604480	-0.833134	0.824797
H153	H	-1.159708	-1.265874	0.316545
H154	H	-0.659708	-0.765874	0.816545
H155	H	-1.125652	-1.080102	0.553091
H156	H	-0.625652	-0.580102	1.053091
H157	H	-1.006379	-1.080040	0.553057
H158	H	-0.506379	-0.580040	1.053057
