data_functionalizedCrystal
_audit_creation_method	'MofGen! by Chris Wilmer'
_symmetry_space_group_name_H-M	'P1'
_symmetry_Int_Tables_number	1
_symmetry_cell_setting	triclinic
loop_
_symmetry_equiv_pos_as_xyz
  x,y,z
_cell_length_a	13.033291
_cell_length_b	18.101395
_cell_length_c	13.032268
_cell_angle_alpha	97.146252
_cell_angle_beta	89.079236
_cell_angle_gamma	97.200752
loop_
_atom_site_label
_atom_site_type_symbol
_atom_site_fract_x
_atom_site_fract_y
_atom_site_fract_z
Zn1	Zn	1.498388	-0.230406	-0.781468
Zn2	Zn	1.831721	0.102928	-0.448135
Zn3	Zn	2.165054	0.436261	-0.114802
Zn4	Zn	1.520096	-0.336832	-0.609490
Zn5	Zn	1.853429	-0.003499	-0.276156
Zn6	Zn	2.186763	0.329834	0.057177
Zn7	Zn	1.348249	-0.226495	-0.587644
Zn8	Zn	1.681583	0.106838	-0.254311
Zn9	Zn	2.014916	0.440172	0.079022
Zn10	Zn	1.326337	-0.367705	-0.759528
Zn11	Zn	1.659670	-0.034372	-0.426195
Zn12	Zn	1.993003	0.298961	-0.092862
O13	O	1.423267	-0.290359	-0.684533
O14	O	1.756601	0.042974	-0.351199
O15	O	2.089934	0.376307	-0.017866
O16	O	1.645190	-0.233239	-0.776979
O17	O	1.978523	0.100094	-0.443646
O18	O	2.311856	0.433427	-0.110313
O19	O	1.515556	-0.307639	-0.462684
O20	O	1.848889	0.025695	-0.129351
O21	O	2.182222	0.359028	0.203983
O22	O	1.368251	-0.123377	-0.613395
O23	O	1.701584	0.209957	-0.280062
O24	O	2.034918	0.543290	0.053271
O25	O	1.661139	-0.311431	-0.650627
O26	O	1.994472	0.021903	-0.317294
O27	O	2.327805	0.355236	0.016039
O28	O	1.478557	-0.126250	-0.755797
O29	O	1.811890	0.207084	-0.422464
O30	O	2.145224	0.540417	-0.089130
O31	O	1.389301	-0.226574	-0.446635
O32	O	1.722634	0.106759	-0.113301
O33	O	2.055967	0.440092	0.220032
O34	O	1.201420	-0.256510	-0.592121
O35	O	1.534753	0.076823	-0.258788
O36	O	1.868087	0.410156	0.074546
O37	O	1.330904	-0.364049	-0.906346
O38	O	1.664237	-0.030716	-0.573013
O39	O	1.997571	0.302617	-0.239680
O40	O	1.185321	-0.360257	-0.718403
O41	O	1.518654	-0.026924	-0.385070
O42	O	1.851988	0.306409	-0.051737
O43	O	1.457309	-0.263176	-0.922466
O44	O	1.790643	0.070158	-0.589132
O45	O	2.123976	0.403491	-0.255799
O46	O	1.494308	-0.444565	-0.629353
O47	O	1.827641	-0.111231	-0.296020
O48	O	2.160974	0.222102	0.037314
O49	O	1.351954	-0.467247	-0.739586
O50	O	1.685287	-0.133914	-0.406252
O51	O	2.018620	0.199420	-0.072919
C52	C	1.156053	-0.311310	-0.650511
C53	C	1.489386	0.022023	-0.317178
C54	C	1.822720	0.355356	0.016155
C55	C	1.041734	-0.320293	-0.635981
C56	C	1.375068	0.013040	-0.302648
C57	C	1.708401	0.346373	0.030685
C58	C	0.864711	-0.294968	-0.677107
C59	C	1.198044	0.038365	-0.343774
C60	C	1.531378	0.371698	-0.010441
C61	C	0.982866	-0.285685	-0.692124
C62	C	1.316199	0.047648	-0.358791
C63	C	1.649532	0.380981	-0.025457
C64	C	1.423134	-0.482778	-0.684485
C65	C	1.756467	-0.149444	-0.351152
C66	C	2.089800	0.183889	-0.017818
C67	C	1.423166	-0.565091	-0.684511
C68	C	1.756499	-0.231758	-0.351178
C69	C	2.089833	0.101575	-0.017844
C70	C	1.423385	-0.864170	-0.684595
C71	C	1.756718	-0.530837	-0.351262
C72	C	2.090051	-0.197503	-0.017928
C73	C	1.333979	-0.847152	-0.754171
C74	C	1.667312	-0.513819	-0.420838
C75	C	2.000645	-0.180486	-0.087504
C76	C	1.333633	-0.761539	-0.753874
C77	C	1.666967	-0.428205	-0.420541
C78	C	2.000300	-0.094872	-0.087207
C79	C	1.423276	-0.715794	-0.684554
C80	C	1.756609	-0.382460	-0.351221
C81	C	2.089943	-0.049127	-0.017887
C82	C	1.407705	-0.738260	-0.572443
C83	C	1.741038	-0.404927	-0.239109
C84	C	2.074372	-0.071594	0.094224
C85	C	1.407133	-0.823994	-0.572854
C86	C	1.740467	-0.490661	-0.239521
C87	C	2.073800	-0.157327	0.093812
C88	C	1.528657	-0.826791	-0.726199
C89	C	1.861990	-0.493458	-0.392865
C90	C	2.195324	-0.160124	-0.059532
C91	C	1.527715	-0.741431	-0.728494
C92	C	1.861048	-0.408098	-0.395161
C93	C	2.194382	-0.074765	-0.061827
C94	C	1.423217	-0.631937	-0.684525
C95	C	1.756551	-0.298604	-0.351191
C96	C	2.089884	0.034730	-0.017858
C97	C	1.423442	-0.948026	-0.684617
C98	C	1.756775	-0.614693	-0.351284
C99	C	2.090109	-0.281360	-0.017950
C100	C	1.691525	-0.269328	-0.718687
C101	C	2.024859	0.064006	-0.385354
C102	C	2.358192	0.397339	-0.052021
C103	C	1.805841	-0.260365	-0.733242
C104	C	2.139174	0.072968	-0.399909
C105	C	2.472507	0.406302	-0.066576
C106	C	1.389241	-0.317492	-0.952763
C107	C	1.722574	0.015841	-0.619430
C108	C	2.055908	0.349174	-0.286096
C109	C	1.374741	-0.329055	-1.067067
C110	C	1.708074	0.004278	-0.733733
C111	C	2.041408	0.337612	-0.400400
C112	C	1.423427	-0.097190	-0.684607
C113	C	1.756760	0.236143	-0.351273
C114	C	2.090093	0.569477	-0.017940
C115	C	1.423495	-0.014872	-0.684638
C116	C	1.756828	0.318461	-0.351305
C117	C	2.090161	0.651794	-0.017972
C118	C	1.430819	-0.284300	-1.126002
C119	C	1.764152	0.049034	-0.792669
C120	C	2.097486	0.382367	-0.459336
C121	C	1.415834	-0.296249	-1.244142
C122	C	1.749167	0.037084	-0.910808
C123	C	2.082501	0.370418	-0.577475
C124	C	1.457221	-0.263274	-0.417353
C125	C	1.790554	0.070059	-0.084020
C126	C	2.123887	0.403393	0.249313
C127	C	1.471920	-0.251487	-0.303076
C128	C	1.805253	0.081846	0.030258
C129	C	2.138587	0.415179	0.363591
H130	H	1.004668	-0.356794	-0.576800
H131	H	1.338002	-0.023460	-0.243467
H132	H	1.671335	0.309873	0.089866
O133	O	0.854934	-0.212011	-0.811624
O134	O	1.188268	0.121322	-0.478291
O135	O	1.521601	0.454656	-0.144958
H136	H	0.824145	-0.234560	-0.889712
H137	H	1.157479	0.098773	-0.556379
H138	H	1.490812	0.432107	-0.223045
H139	H	1.341780	-0.747181	-0.836571
H140	H	1.675113	-0.413847	-0.503238
H141	H	2.008447	-0.080514	-0.169904
H142	H	1.341910	-0.874447	-0.837105
H143	H	1.675243	-0.541114	-0.503772
H144	H	2.008577	-0.207780	-0.170439
H145	H	1.545538	-0.854115	-0.807285
H146	H	1.878872	-0.520782	-0.473951
H147	H	2.212205	-0.187448	-0.140618
O148	O	1.509110	-0.221824	-1.076993
O149	O	1.842444	0.111509	-0.743659
O150	O	2.175777	0.444843	-0.410326
H151	H	1.547905	-0.190854	-1.138134
H152	H	1.881238	0.142480	-0.804801
H153	H	2.214571	0.475813	-0.471468
O154	O	1.543607	-0.722859	-0.837870
O155	O	1.876940	-0.389525	-0.504537
O156	O	2.210274	-0.056192	-0.171203
H157	H	1.548758	-0.775255	-0.890828
H158	H	1.882091	-0.441921	-0.557494
H159	H	2.215425	-0.108588	-0.224161
O160	O	1.490641	-0.837456	-0.500868
O161	O	1.823974	-0.504123	-0.167535
O162	O	2.157308	-0.170790	0.165798
H163	H	1.490867	-0.898733	-0.500633
H164	H	1.824200	-0.565399	-0.167299
H165	H	2.157534	-0.232066	0.166034
H166	H	1.256131	-0.873187	-0.725816
H167	H	1.589464	-0.539854	-0.392483
H168	H	1.922798	-0.206521	-0.059149
O169	O	1.229918	-0.740384	-0.715900
O170	O	1.563252	-0.407051	-0.382567
O171	O	1.896585	-0.073717	-0.049234
H172	H	1.179816	-0.791334	-0.697669
H173	H	1.513149	-0.458000	-0.364336
H174	H	1.846483	-0.124667	-0.031002
O175	O	1.492043	-0.697279	-0.501088
O176	O	1.825376	-0.363945	-0.167755
O177	O	2.158710	-0.030612	0.165578
H178	H	1.546078	-0.660372	-0.544879
H179	H	1.879412	-0.327038	-0.211546
H180	H	2.212745	0.006295	0.121788
O181	O	1.550225	-0.189013	-1.254075
O182	O	1.883558	0.144320	-0.920742
O183	O	2.216892	0.477654	-0.587409
H184	H	1.530046	-0.134333	-1.272402
H185	H	1.863379	0.199000	-0.939069
H186	H	2.196713	0.532334	-0.605736
H187	H	0.827640	-0.331462	-0.617926
H188	H	1.160973	0.001871	-0.284593
H189	H	1.494306	0.335205	0.048740
H190	H	1.596746	-0.709685	-0.682613
H191	H	1.930079	-0.376352	-0.349280
H192	H	2.263412	-0.043019	-0.015947
O193	O	1.337528	-0.358724	-1.293138
O194	O	1.670862	-0.025391	-0.959805
O195	O	2.004195	0.307942	-0.626471
H196	H	1.377362	-0.397714	-1.347923
H197	H	1.710695	-0.064381	-1.014590
H198	H	2.044029	0.268952	-0.681257
O199	O	1.296446	-0.391529	-1.116075
O200	O	1.629779	-0.058195	-0.782742
O201	O	1.963113	0.275138	-0.449409
H202	H	1.218327	-0.383085	-1.085249
H203	H	1.551660	-0.049752	-0.751916
H204	H	1.884993	0.283582	-0.418582
H205	H	1.019934	-0.249182	-0.751300
H206	H	1.353267	0.084152	-0.417967
H207	H	1.686600	0.417485	-0.084634
O208	O	1.305747	-0.855664	-0.528304
O209	O	1.639080	-0.522330	-0.194971
O210	O	1.972413	-0.188997	0.138363
H211	H	1.240987	-0.844610	-0.576176
H212	H	1.574321	-0.511276	-0.242843
H213	H	1.907654	-0.177943	0.090491
O214	O	1.307499	-0.714908	-0.527463
O215	O	1.640833	-0.381575	-0.194130
O216	O	1.974166	-0.048241	0.139204
H217	H	1.268643	-0.687306	-0.584754
H218	H	1.601976	-0.353972	-0.251421
H219	H	1.935309	-0.020639	0.081913
O220	O	1.616705	-0.839861	-0.659479
O221	O	1.950038	-0.506527	-0.326146
O222	O	2.283371	-0.173194	0.007188
H223	H	1.585702	-0.872790	-0.596973
H224	H	1.919035	-0.539457	-0.263640
H225	H	2.252369	-0.206124	0.069693
