data_functionalizedCrystal
_audit_creation_method	'MofGen! by Chris Wilmer'
_symmetry_space_group_name_H-M	'P1'
_symmetry_Int_Tables_number	1
_symmetry_cell_setting	triclinic
loop_
_symmetry_equiv_pos_as_xyz
  x,y,z
_cell_length_a	15.297475
_cell_length_b	13.897448
_cell_length_c	15.298259
_cell_angle_alpha	80.288631
_cell_angle_beta	88.370891
_cell_angle_gamma	80.320483
loop_
_atom_site_label
_atom_site_type_symbol
_atom_site_fract_x
_atom_site_fract_y
_atom_site_fract_z
Zn1	Zn	1.253541	-0.481795	-0.726676
Zn2	Zn	1.278796	-0.674907	-0.580180
Zn3	Zn	1.132394	-0.491177	-0.554900
Zn4	Zn	1.107036	-0.620594	-0.701320
O5	O	1.192942	-0.567118	-0.640769
O6	O	1.379473	-0.526216	-0.728435
O7	O	1.280558	-0.677192	-0.454240
O8	O	1.148508	-0.354953	-0.577719
O9	O	1.398028	-0.668094	-0.620805
O10	O	1.237513	-0.348060	-0.703922
O11	O	1.172997	-0.542206	-0.435668
O12	O	1.006448	-0.489540	-0.553132
O13	O	1.105288	-0.575525	-0.827270
O14	O	0.987817	-0.584622	-0.660706
O15	O	1.212924	-0.473550	-0.845899
O16	O	1.255969	-0.802682	-0.596218
O17	O	1.129777	-0.762778	-0.685218
C18	C	0.965348	-0.532206	-0.601424
C19	C	0.867979	-0.517290	-0.584613
C20	C	0.554870	-0.673737	-0.760923
C21	C	0.646353	-0.687760	-0.776715
C22	C	0.701764	-0.645143	-0.728692
C23	C	0.665683	-0.588502	-0.664872
C24	C	0.574191	-0.574484	-0.649073
C25	C	0.721086	-0.545890	-0.616842
C26	C	0.685004	-0.489249	-0.553022
C27	C	0.593521	-0.475234	-0.537227
C28	C	0.538110	-0.517850	-0.585250
C29	C	0.812577	-0.559908	-0.632641
C30	C	0.831898	-0.460655	-0.520791
C31	C	0.740415	-0.446633	-0.504998
C32	C	1.192882	-0.817728	-0.640733
C33	C	1.192932	-0.924946	-0.640760
C34	C	1.193014	-1.121244	-0.640831
C35	C	1.192965	-1.012009	-0.640794
C36	C	1.421424	-0.602167	-0.680268
C37	C	1.518789	-0.617103	-0.697100
C38	C	1.153460	-0.517433	-0.869259
C39	C	1.136636	-0.496260	-0.966627
C40	C	1.193022	-0.315529	-0.640829
C41	C	1.193056	-0.208317	-0.640855
C42	C	1.313218	-0.717706	-1.279766
C43	C	1.329021	-0.737605	-1.188282
C44	C	1.280927	-0.677270	-1.132864
C45	C	1.217026	-0.597034	-1.168938
C46	C	1.201216	-0.577138	-1.260429
C47	C	1.168924	-0.536702	-1.113528
C48	C	1.105023	-0.456465	-1.149602
C49	C	1.089217	-0.436573	-1.241085
C50	C	1.137312	-0.496907	-1.296503
C51	C	1.184734	-0.556598	-1.022037
C52	C	1.072731	-0.416029	-1.002700
C53	C	1.056929	-0.396131	-1.094184
C54	C	1.232320	-0.616549	-0.413178
C55	C	1.249314	-0.637476	-0.315839
H56	H	0.463616	-0.506434	-0.572397
H57	H	1.381041	-0.802941	-1.158916
H58	H	0.564149	-0.429124	-0.485252
H59	H	0.711024	-0.400515	-0.453036
H60	H	0.675724	-0.733879	-0.828675
H61	H	0.841945	-0.606025	-0.684604
Cl62	Cl	1.373663	-0.793554	-1.349435
Cl63	Cl	1.012254	-0.340186	-0.933036
H64	H	1.293796	-0.693477	-1.058375
H65	H	0.509748	-0.708436	-0.800012
H66	H	0.877015	-0.425955	-0.481684
H67	H	1.236768	-0.621922	-0.992675
H68	H	1.124451	-0.480708	-1.370997
Cl69	Cl	0.976598	-0.295266	-1.139545
Cl70	Cl	0.816773	-0.662769	-0.748549
H71	H	1.037176	-0.371247	-1.270451
