data_functionalizedCrystal
_audit_creation_method	'MofGen! by Chris Wilmer'
_symmetry_space_group_name_H-M	'P1'
_symmetry_Int_Tables_number	1
_symmetry_cell_setting	triclinic
loop_
_symmetry_equiv_pos_as_xyz
  x,y,z
_cell_length_a	18.050591
_cell_length_b	19.121063
_cell_length_c	18.050582
_cell_angle_alpha	92.415032
_cell_angle_beta	89.979078
_cell_angle_gamma	92.465257
loop_
_atom_site_label
_atom_site_type_symbol
_atom_site_fract_x
_atom_site_fract_y
_atom_site_fract_z
Zn1	Zn	1.122676	-0.279734	-0.432630
Zn2	Zn	1.117290	-0.397178	-0.313729
Zn3	Zn	0.998495	-0.279737	-0.308441
Zn4	Zn	0.993148	-0.397141	-0.437863
O5	O	1.057903	-0.338447	-0.373166
O6	O	1.225886	-0.295327	-0.416880
O7	O	1.101515	-0.381616	-0.209104
O8	O	1.019460	-0.181452	-0.320512
O9	O	1.221929	-0.381613	-0.329524
O10	O	1.110695	-0.181449	-0.411753
O11	O	1.014237	-0.295332	-0.205219
O12	O	0.893862	-0.295296	-0.325586
O13	O	1.010347	-0.381550	-0.541093
O14	O	0.889934	-0.381552	-0.420672
O15	O	1.105510	-0.295291	-0.537248
O16	O	1.096331	-0.495458	-0.334599
O17	O	1.005124	-0.495430	-0.425799
C18	C	0.864952	-0.338421	-0.373123
C19	C	0.782406	-0.338427	-0.373124
C20	C	0.585072	-0.291466	-0.321528
C21	C	0.532763	-0.355526	-0.306137
C22	C	0.631274	-0.338448	-0.373158
C23	C	0.536500	-0.274410	-0.388548
C24	C	0.485288	-0.338463	-0.373190
C25	C	0.580051	-0.402542	-0.357733
C26	C	0.583794	-0.321383	-0.440174
C27	C	0.531506	-0.385487	-0.424811
C28	C	0.715373	-0.338439	-0.373138
C29	C	0.401191	-0.338480	-0.373211
C30	C	1.049583	-0.520928	-0.381357
C31	C	1.046092	-0.598994	-0.384886
C32	C	1.091975	-0.635661	-0.339100
C33	C	1.088695	-0.709012	-0.342424
C34	C	1.039529	-0.745696	-0.391530
C35	C	0.993644	-0.709024	-0.437321
C36	C	0.996928	-0.635674	-0.434001
C37	C	1.027241	-0.967166	-0.403932
C38	C	1.023960	-1.040521	-0.407247
C39	C	1.119012	-1.040504	-0.312351
C40	C	1.122288	-0.967153	-0.309032
C41	C	1.076406	-0.930487	-0.354825
C42	C	1.036174	-0.820673	-0.394927
C43	C	1.079765	-0.855512	-0.351432
C44	C	1.251607	-0.338474	-0.373208
C45	C	1.334152	-0.338485	-0.373227
C46	C	1.057933	-0.338416	-0.566870
C47	C	1.057946	-0.338403	-0.649415
C48	C	1.066275	-0.155254	-0.364959
C49	C	1.069843	-0.077188	-0.361461
C50	C	1.006237	-0.385246	-0.850954
C51	C	1.073218	-0.402419	-0.901126
C52	C	1.057985	-0.338349	-0.800543
C53	C	0.991042	-0.321157	-0.897452
C54	C	1.058017	-0.338299	-0.946526
C55	C	1.125000	-0.355556	-0.849629
C56	C	1.042780	-0.274264	-0.845950
C57	C	1.109809	-0.291412	-0.896099
C58	C	1.057966	-0.338380	-0.716446
C59	C	1.058044	-0.338268	-1.030621
C60	C	1.057917	-0.338428	-0.180213
C61	C	1.058057	-0.338243	-0.097659
H62	H	0.608520	-0.251778	-0.277822
O63	O	1.133421	-0.744500	-0.297979
C64	C	1.258829	-0.766732	-0.263153
C65	C	1.208227	-0.726522	-0.313520
H66	H	1.319320	-0.752223	-0.275711
H67	H	1.246550	-0.752318	-0.202594
H68	H	1.248074	-0.825470	-0.273902
H69	H	1.218954	-0.667776	-0.302837
H70	H	1.220517	-0.740995	-0.374062
O71	O	0.953995	-0.432520	-0.827180
C72	C	0.842683	-0.451313	-0.755689
C73	C	0.901782	-0.397699	-0.782575
H74	H	0.800463	-0.423184	-0.719608
H75	H	0.813359	-0.478559	-0.805580
H76	H	0.870512	-0.491903	-0.721930
H77	H	0.874011	-0.357067	-0.816321
H78	H	0.931101	-0.370507	-0.732652
H79	H	0.510374	-0.369971	-0.249476
O80	O	0.923465	-0.303951	-0.922589
C81	C	0.816911	-0.339480	-0.997607
C82	C	0.893424	-0.359053	-0.969184
H83	H	0.792607	-0.384013	-1.035297
H84	H	0.778277	-0.330189	-0.948527
H85	H	0.823230	-0.289717	-1.030082
H86	H	0.887176	-0.408826	-0.936721
H87	H	0.932030	-0.368299	-1.018295
O88	O	1.088460	-0.467088	-0.929899
C89	C	1.051172	-0.589662	-0.939567
C90	C	1.033821	-0.516461	-0.906952
H91	H	1.007017	-0.629603	-0.921015
H92	H	1.051538	-0.588929	-1.002687
H93	H	1.107848	-0.604654	-0.919101
H94	H	0.977144	-0.501424	-0.927361
H95	H	1.033505	-0.517233	-0.843835
O96	O	0.602999	-0.467127	-0.342117
C97	C	0.707028	-0.539587	-0.324628
C98	C	0.681140	-0.466411	-0.342307
H99	H	0.770207	-0.539037	-0.324792
H100	H	0.685594	-0.554251	-0.267679
H101	H	0.684438	-0.579665	-0.368383
H102	H	0.703720	-0.426285	-0.298600
H103	H	0.702566	-0.451807	-0.399277
O104	O	1.139694	-0.600106	-0.291297
C105	C	1.176801	-0.577680	-0.163990
C106	C	1.122719	-0.617999	-0.218045
H107	H	1.163086	-0.592121	-0.104753
H108	H	1.236044	-0.592066	-0.177683
H109	H	1.171279	-0.518960	-0.169517
H110	H	1.128175	-0.676729	-0.212547
H111	H	1.063498	-0.603556	-0.204337
H112	H	1.153633	-0.251732	-0.915852
H113	H	1.029880	-0.220105	-0.821794
O114	O	1.127418	-0.819849	-0.303650
C115	C	1.141165	-0.737043	-0.199683
C116	C	1.087119	-0.777408	-0.253739
H117	H	1.108606	-0.702709	-0.159326
H118	H	1.173386	-0.775814	-0.167466
H119	H	1.181527	-0.702686	-0.232279
H120	H	1.046712	-0.811766	-0.221200
H121	H	1.054952	-0.738600	-0.285957
O122	O	0.503713	-0.433039	-0.476838
C123	C	0.494455	-0.554247	-0.519414
C124	C	0.525964	-0.500469	-0.460440
H125	H	0.512445	-0.608773	-0.506186
H126	H	0.431327	-0.553644	-0.519379
H127	H	0.516309	-0.540122	-0.576375
H128	H	0.504166	-0.514556	-0.403450
H129	H	0.589090	-0.501081	-0.460541
O130	O	1.170016	-0.931601	-0.261234
C131	C	1.207133	-0.909177	-0.133929
C132	C	1.153045	-0.949493	-0.187981
H133	H	1.193421	-0.923616	-0.074692
H134	H	1.266374	-0.923566	-0.147627
H135	H	1.201614	-0.850456	-0.139457
H136	H	1.158497	-1.008223	-0.182483
H137	H	1.093825	-0.935045	-0.174268
O138	O	0.610503	-0.304007	-0.507720
C139	C	0.618723	-0.216846	-0.600316
C140	C	0.588442	-0.236438	-0.523804
H141	H	0.600885	-0.162222	-0.613350
H142	H	0.681847	-0.217465	-0.599817
H143	H	0.595809	-0.256375	-0.644451
H144	H	0.611300	-0.196928	-0.479626
H145	H	0.525318	-0.235841	-0.524366
H146	H	0.517235	-0.220255	-0.401527
O147	O	1.163667	-1.076150	-0.267985
C148	C	1.260217	-1.158920	-0.261852
C149	C	1.209694	-1.118585	-0.312181
H150	H	1.297432	-1.193250	-0.297564
H151	H	1.295974	-1.120130	-0.226204
H152	H	1.224602	-1.193279	-0.224520
H153	H	1.245252	-1.084226	-0.349558
H154	H	1.173932	-1.157413	-0.347779
O155	O	0.976183	-1.076048	-0.455022
C156	C	0.882229	-1.068329	-0.548776
C157	C	0.936310	-1.028008	-0.494722
H158	H	0.849966	-1.029506	-0.580876
H159	H	0.914736	-1.102605	-0.589237
H160	H	0.841908	-1.102735	-0.516188
H161	H	0.976643	-0.993563	-0.527248
H162	H	0.903755	-0.993776	-0.454260
H163	H	0.989881	-0.937319	-0.441218
H164	H	0.953615	-0.738898	-0.477307
H165	H	1.181639	-0.370137	-0.828690
H166	H	0.959566	-0.605821	-0.471285
H167	H	0.996142	-0.850549	-0.434907
