data_functionalizedCrystal
_audit_creation_method	'MofGen! by Chris Wilmer'
_symmetry_space_group_name_H-M	'P1'
_symmetry_Int_Tables_number	1
_symmetry_cell_setting	triclinic
loop_
_symmetry_equiv_pos_as_xyz
  x,y,z
_cell_length_a	10.489746
_cell_length_b	10.489741
_cell_length_c	16.776229
_cell_angle_alpha	89.993659
_cell_angle_beta	89.995805
_cell_angle_gamma	84.540238
loop_
_atom_site_label
_atom_site_type_symbol
_atom_site_fract_x
_atom_site_fract_y
_atom_site_fract_z
O1	O	1.694054	0.180003	-0.066234
O2	O	1.322860	0.196888	-0.066247
O3	O	1.516903	0.002848	-0.066236
O4	O	1.500011	0.374043	-0.066246
O5	O	1.516877	0.002836	0.066341
O6	O	1.322833	0.196876	0.066329
O7	O	1.694028	0.179990	0.066342
Zn8	Zn	1.508427	0.188431	0.087385
Zn9	Zn	1.508461	0.188447	-0.087290
O10	O	1.499985	0.374031	0.066331
C11	C	1.275315	0.195606	0.000039
C12	C	1.133686	0.191786	0.000034
C13	C	1.515614	-0.044690	0.000052
C14	C	1.511797	-0.186320	0.000050
C15	C	0.980828	0.066062	0.000049
C16	C	1.058209	0.128913	0.065412
C17	C	1.058190	0.128954	-0.065298
C18	C	0.958717	0.247894	0.065471
C19	C	0.958693	0.247918	-0.065298
C20	C	1.036025	0.310856	0.000081
C21	C	1.388333	-0.254462	0.000040
C22	C	1.446643	-0.346589	0.065409
C23	C	1.446698	-0.346552	-0.065301
C24	C	1.570159	-0.276582	0.065474
C25	C	1.570196	-0.276535	-0.065295
C26	C	1.628597	-0.368635	0.000090
C27	C	1.741573	0.181273	0.000054
C28	C	1.883202	0.185093	0.000054
C29	C	1.501273	0.421569	0.000041
C30	C	1.505091	0.563198	0.000038
N31	N	1.508413	0.188420	0.206596
N32	N	1.508485	0.188449	-0.206501
C33	C	1.594362	0.102534	0.248319
C34	C	1.594369	0.102533	0.331771
C35	C	1.508432	0.188425	0.373499
C36	C	1.422473	0.274314	0.331771
C37	C	1.422461	0.274308	0.248320
C38	C	1.422520	0.274340	0.668318
C39	C	1.422541	0.274342	0.751775
C40	C	1.594428	0.102565	0.751769
C41	C	1.594415	0.102559	0.668318
C42	C	1.508453	0.188443	0.626597
C43	C	1.508445	0.188441	0.536109
C44	C	1.508445	0.188433	0.463986
H45	H	0.956107	-0.037439	0.000118
H46	H	1.101675	0.078659	0.120676
H47	H	1.622343	-0.245754	0.120800
Br48	Br	1.359610	-0.398193	-0.157406
Br49	Br	1.305802	0.390863	0.191697
H50	H	0.915204	0.298127	-0.120564
Br51	Br	1.076818	0.483496	0.000128
H52	H	0.915427	0.298104	0.120795
Br53	Br	1.711007	-0.014031	0.191696
Br54	Br	1.711012	-0.014032	0.388397
H55	H	1.101644	0.078688	-0.120559
H56	H	1.664397	0.032622	0.634345
H57	H	1.352528	0.344272	0.634356
H58	H	1.286821	-0.204813	0.000102
H59	H	1.394392	-0.377607	0.120671
Br60	Br	1.657216	-0.224778	-0.157406
H61	H	1.730200	-0.418057	0.000130
H62	H	1.664419	0.032629	0.785747
Br63	Br	1.305906	0.390918	0.808407
Br64	Br	1.305832	0.390875	0.388399
