data_functionalizedCrystal
_audit_creation_method	'MofGen! by Chris Wilmer'
_symmetry_space_group_name_H-M	'P1'
_symmetry_Int_Tables_number	1
_symmetry_cell_setting	triclinic
loop_
_symmetry_equiv_pos_as_xyz
  x,y,z
_cell_length_a	17.019292
_cell_length_b	17.000371
_cell_length_c	16.098538
_cell_angle_alpha	92.504966
_cell_angle_beta	88.859203
_cell_angle_gamma	100.495790
loop_
_atom_site_label
_atom_site_type_symbol
_atom_site_fract_x
_atom_site_fract_y
_atom_site_fract_z
O1	O	-1.039357	0.101646	0.005316
O2	O	-0.809694	0.113739	-0.011164
O3	O	-0.938785	-0.008138	-0.001895
O4	O	-0.910265	0.223523	-0.003953
O5	O	-0.931246	-0.001046	0.136077
O6	O	-0.802155	0.120830	0.126808
O7	O	-1.031818	0.108738	0.143288
Zn8	Zn	-0.915789	0.115910	0.156954
Zn9	Zn	-0.925722	0.106567	-0.024830
O10	O	-0.902726	0.230614	0.134019
C11	C	-0.776684	0.116688	0.055724
C12	C	-0.689556	0.114899	0.049472
C13	C	-0.644519	0.117922	0.121745
C14	C	-0.562656	0.116228	0.115874
C15	C	-0.525831	0.111517	0.037728
C16	C	-0.570875	0.108492	-0.034551
C17	C	-0.652737	0.110179	-0.028678
C18	C	-0.278866	0.106223	0.016234
C19	C	-0.196997	0.104538	0.010367
C20	C	-0.188784	0.112273	0.160792
C21	C	-0.270647	0.113965	0.166657
C22	C	-0.315685	0.110935	0.094379
C23	C	-0.442154	0.109789	0.031724
C24	C	-0.399362	0.112658	0.100383
C25	C	-0.936548	-0.034242	0.067201
C26	C	-0.941103	-0.122589	0.067527
C27	C	-0.064829	0.105785	0.076397
C28	C	-0.151959	0.107561	0.082640
C29	C	-0.871004	-0.154791	0.062493
C30	C	-0.875289	-0.237803	0.062803
C31	C	-0.949673	-0.288612	0.068140
C32	C	-1.019778	-0.256405	0.073177
C33	C	-1.015492	-0.173394	0.072873
C34	C	-0.966228	-0.539717	0.069323
C35	C	-0.970508	-0.622733	0.069624
C36	C	-0.826019	-0.604125	0.059251
C37	C	-0.821740	-0.521113	0.058943
C38	C	-0.891843	-0.488913	0.063984
C39	C	-0.954055	-0.373464	0.068455
C40	C	-0.887461	-0.404062	0.063675
C41	C	-0.904964	0.256718	0.064921
C42	C	-0.900409	0.345065	0.064590
N43	N	-0.909016	0.122286	0.281017
N44	N	-0.932502	0.100184	-0.148892
C45	C	-0.963825	0.070575	0.328537
C46	C	-0.959094	0.075043	0.415386
C47	C	-0.899556	0.131226	0.454714
C48	C	-0.844742	0.182939	0.407187
C49	C	-0.849470	0.178467	0.320339
C50	C	-0.882416	0.147425	0.716733
C51	C	-0.877693	0.151895	0.803587
C52	C	-0.992045	0.043997	0.811781
C53	C	-0.996771	0.039533	0.724931
C54	C	-0.941954	0.091244	0.677412
C55	C	-0.894720	0.135796	0.543488
C56	C	-0.946787	0.086669	0.588639
H57	H	-0.412161	0.105953	-0.031903
H58	H	-1.045251	-0.006216	0.692913
Cl59	Cl	-0.132162	0.116078	0.251650
H60	H	-1.012310	0.024828	0.296523
Cl61	Cl	-0.793952	-0.340187	0.056969
Cl62	Cl	-1.027997	0.010033	0.475128
H63	H	-0.167016	0.100703	-0.053272
Cl64	Cl	-1.047564	-0.437345	0.075168
H65	H	-0.846245	0.181543	0.575515
H66	H	-0.804838	0.220575	0.281648
H67	H	-0.761168	-0.479749	0.054594
Cl68	Cl	-1.060951	-0.021009	0.871523
Cl69	Cl	-0.316935	0.119893	0.264902
Cl70	Cl	-0.802840	0.222534	0.853021
H71	H	-0.837783	0.189531	0.678049
H72	H	-1.031085	-0.664101	0.073965
H73	H	-0.315526	0.103753	-0.042621
Cl74	Cl	-0.690804	0.123850	0.219991
H75	H	-1.080343	-0.297781	0.077528
Cl76	Cl	-0.506038	0.120044	0.206736
Cl77	Cl	-1.021629	0.016039	0.539198
Cl78	Cl	-0.524586	0.102540	-0.132791
Cl79	Cl	-0.709357	0.106375	-0.119540
Cl80	Cl	-0.445658	0.118578	0.198620
H81	H	-0.818207	-0.264017	0.058698
Cl82	Cl	-0.777487	-0.090924	0.055778
Cl83	Cl	-0.737894	-0.644610	0.052916
H84	H	-1.023311	-0.513510	0.073425
H85	H	-1.072574	-0.147177	0.076974
H86	H	-0.796261	0.228682	0.439212
